0
                    3D
 Structure written by MMmdl.
179189  0  0  1  0            999 V2000
  -30.8482  -14.2022   20.8592 C   0  0  0  0  0  0
  -30.4270  -12.2634   19.4009 C   0  0  0  0  0  0
  -29.5015  -12.5698   18.2076 C   0  0  0  0  0  0
  -28.0282  -12.3916   18.6126 C   0  0  0  0  0  0
  -27.6826  -13.1854   19.8990 C   0  0  2  0  0  0
  -28.7085  -12.8758   21.0163 C   0  0  0  0  0  0
  -25.2678  -13.8027   20.5681 C   0  0  0  0  0  0
  -24.1916  -13.0364   20.9176 C   0  0  0  0  0  0
  -24.6436  -11.6801   20.8794 C   0  0  0  0  0  0
  -23.9134  -10.4212   21.0499 C   0  0  0  0  0  0
  -24.3631   -9.4107   21.9289 C   0  0  0  0  0  0
  -23.6274   -8.2163   22.0788 C   0  0  0  0  0  0
  -22.4269   -8.0270   21.3551 C   0  0  0  0  0  0
  -21.9951   -9.0280   20.4683 C   0  0  0  0  0  0
  -22.7317  -10.2130   20.3138 C   0  0  0  0  0  0
  -21.6776   -6.0766   22.5295 C   0  0  0  0  0  0
  -21.3953   -6.5668   23.8247 C   0  0  0  0  0  0
  -21.3641   -5.6799   24.9193 C   0  0  0  0  0  0
  -21.6071   -4.3075   24.7212 C   0  0  0  0  0  0
  -21.8798   -3.8184   23.4307 C   0  0  0  0  0  0
  -21.9130   -4.7010   22.3390 C   0  0  0  0  0  0
  -22.7921  -13.5225   21.1750 C   0  0  0  0  0  0
  -22.1608   -4.2209   21.0962 F   0  0  0  0  0  0
  -21.5656   -3.4554   25.7719 F   0  0  0  0  0  0
  -30.0699  -13.1484   20.5133 N   0  0  0  0  0  0
  -26.3152  -12.9180   20.3441 N   0  0  0  0  0  0
  -25.9368  -11.6354   20.5815 N   0  0  0  0  0  0
  -22.0500  -12.8318   22.0317 N   0  0  0  0  0  0
  -25.4341  -15.1741   20.3998 N   0  0  0  0  0  0
  -31.8548  -14.5407   20.2222 O   0  0  0  0  0  0
  -21.6558   -6.8905   21.4264 O   0  0  0  0  0  0
  -22.3687  -14.5532   20.6486 O   0  0  0  0  0  0
  -24.6259  -31.8726   23.2319 C   0  0  0  0  0  0
  -25.9174  -32.4832   23.8505 C   0  0  1  0  0  0
  -27.1525  -27.3958   19.9720 C   0  0  0  0  0  0
  -25.5934  -33.8655   24.2321 N   0  0  0  0  0  0
  -23.3994  -30.5300   21.5823 C   0  0  2  0  0  0
  -24.8071  -29.0197   20.1178 C   0  0  0  0  0  0
  -22.7367  -29.4828   22.5099 C   0  0  0  0  0  0
  -18.0295  -28.1436   22.8561 C   0  0  0  0  0  0
  -24.1458  -36.7385   23.2623 C   0  0  0  0  0  0
  -25.9516  -30.8056   21.4052 C   0  0  0  0  0  0
  -25.9991  -29.4582   20.7140 C   0  0  0  0  0  0
  -27.1761  -28.6535   20.6454 C   0  0  0  0  0  0
  -25.8828  -26.9877   19.4570 C   0  0  0  0  0  0
  -24.7477  -27.7814   19.5004 C   0  0  0  0  0  0
  -23.5835  -29.8995   20.1873 C   0  0  0  0  0  0
  -25.4121  -36.3169   24.0282 C   0  0  1  0  0  0
  -20.5900  -28.3773   23.1318 C   0  0  2  0  0  0
  -20.6832  -26.9533   22.5423 C   0  0  0  0  0  0
  -19.5735  -26.6472   21.5257 C   0  0  0  0  0  0
  -18.1919  -26.7997   22.1677 C   0  0  0  0  0  0
  -19.1537  -28.8898   23.2934 C   0  0  0  0  0  0
  -18.9419  -30.1478   23.8979 C   0  0  0  0  0  0
  -17.6409  -30.6640   24.0575 C   0  0  0  0  0  0
  -25.9077  -34.9503   23.5137 C   0  0  0  0  0  0
  -16.5325  -29.9176   23.6295 C   0  0  0  0  0  0
  -16.7255  -28.6560   23.0417 C   0  0  0  0  0  0
  -26.4533  -31.6692   25.0904 C   0  0  0  0  0  0
  -25.3687  -31.3860   26.1542 C   0  0  0  0  0  0
  -27.0342  -30.3046   24.6540 C   0  0  0  0  0  0
  -27.6086  -32.4474   25.7603 C   0  0  0  0  0  0
  -27.5584  -37.1827   24.8397 C   0  0  0  0  0  0
  -21.4094  -29.3115   22.3676 N   0  0  0  0  0  0
  -26.4293  -37.3861   23.9361 N   0  0  0  0  0  0
  -24.6825  -31.0800   22.1262 N   0  0  0  0  0  0
  -23.4118  -28.8344   23.3126 O   0  0  0  0  0  0
  -28.2921  -26.5984   19.7548 O   0  0  0  0  0  0
  -26.5657  -34.8952   22.4710 O   0  0  0  0  0  0
  -23.5466  -32.1625   23.7678 O   0  0  0  0  0  0
  -28.1168  -23.3701   17.7285 C   0  0  0  0  0  0
  -29.9468  -21.7909   18.0226 C   0  0  0  0  0  0
  -28.5923  -22.0569   17.6371 C   0  0  0  0  0  0
  -28.8768  -24.4052   18.3123 C   0  0  0  0  0  0
  -30.8040  -22.9315   18.0719 C   0  0  0  0  0  0
  -30.2738  -24.2133   18.4054 C   0  0  0  0  0  0
  -30.9836  -16.9929   23.0543 C   0  0  0  0  0  0
  -31.4027  -20.5357   19.7668 C   0  0  0  0  0  0
  -29.2649  -19.5547   18.9898 C   0  0  0  0  0  0
  -31.2061  -15.4610   23.0221 C   0  0  0  0  0  0
  -29.6712  -16.0812   21.4027 C   0  0  0  0  0  0
  -31.6449  -19.2438   20.5985 C   0  0  0  0  0  0
  -29.5517  -18.3193   19.8011 C   0  0  0  0  0  0
  -30.4562  -20.4019   18.5285 C   0  0  1  0  0  0
  -30.7300  -17.1860   21.5669 C   0  0  1  0  0  0
  -27.5603  -21.0434   17.1347 C   0  0  0  0  0  0
  -32.2280  -22.8145   17.5424 C   0  0  0  0  0  0
  -31.1534  -25.3656   18.8670 C   0  0  0  0  0  0
  -28.0582  -25.6432   18.6721 C   0  0  0  0  0  0
  -30.3796  -14.9244   21.9049 N   0  0  0  0  0  0
  -30.4022  -18.5212   20.9985 N   0  3  1  0  0  0
  -31.4769  -12.3497   19.1117 H   0  0  0  0  0  0
  -30.2951  -11.2313   19.7313 H   0  0  0  0  0  0
  -29.7407  -11.9151   17.3700 H   0  0  0  0  0  0
  -29.6753  -13.5908   17.8595 H   0  0  0  0  0  0
  -27.8603  -11.3288   18.7786 H   0  0  0  0  0  0
  -27.3749  -12.6860   17.7909 H   0  0  0  0  0  0
  -27.7558  -14.2456   19.6626 H   0  0  0  0  0  0
  -28.6548  -11.8182   21.2908 H   0  0  0  0  0  0
  -28.4545  -13.4225   21.9279 H   0  0  0  0  0  0
  -25.2705   -9.5514   22.4981 H   0  0  0  0  0  0
  -23.9938   -7.4488   22.7459 H   0  0  0  0  0  0
  -21.0878   -8.8817   19.8965 H   0  0  0  0  0  0
  -22.3794  -10.9713   19.6299 H   0  0  0  0  0  0
  -21.1955   -7.6172   23.9764 H   0  0  0  0  0  0
  -21.1505   -6.0538   25.9103 H   0  0  0  0  0  0
  -22.0597   -2.7648   23.2795 H   0  0  0  0  0  0
  -22.3937  -11.9958   22.4780 H   0  0  0  0  0  0
  -21.1141  -13.1451   22.2426 H   0  0  0  0  0  0
  -24.6354  -15.7922   20.4748 H   0  0  0  0  0  0
  -26.2531  -15.6085   19.9942 H   0  0  0  0  0  0
  -26.7212  -32.5425   23.1200 H   0  0  0  0  0  0
  -24.9712  -33.9880   25.0184 H   0  0  0  0  0  0
  -22.6966  -31.3620   21.4786 H   0  0  0  0  0  0
  -23.3730  -35.9684   23.3223 H   0  0  0  0  0  0
  -24.3554  -36.9157   22.2057 H   0  0  0  0  0  0
  -23.7199  -37.6544   23.6742 H   0  0  0  0  0  0
  -26.0990  -31.5952   20.6715 H   0  0  0  0  0  0
  -26.8288  -30.8140   22.0438 H   0  0  0  0  0  0
  -28.1023  -29.0059   21.0825 H   0  0  0  0  0  0
  -25.6589  -26.0631   18.9558 H   0  0  0  0  0  0
  -23.8243  -27.4380   19.0479 H   0  0  0  0  0  0
  -23.6664  -30.6807   19.4284 H   0  0  0  0  0  0
  -22.6871  -29.3368   19.9132 H   0  0  0  0  0  0
  -25.1306  -36.2036   25.0774 H   0  0  0  0  0  0
  -20.9982  -28.3370   24.1430 H   0  0  0  0  0  0
  -20.5880  -26.2380   23.3644 H   0  0  0  0  0  0
  -21.6694  -26.7728   22.1074 H   0  0  0  0  0  0
  -19.6917  -25.6380   21.1301 H   0  0  0  0  0  0
  -19.6617  -27.3267   20.6768 H   0  0  0  0  0  0
  -17.4233  -26.6788   21.4057 H   0  0  0  0  0  0
  -18.0281  -26.0130   22.9054 H   0  0  0  0  0  0
  -19.7847  -30.7267   24.2474 H   0  0  0  0  0  0
  -17.4954  -31.6322   24.5148 H   0  0  0  0  0  0
  -15.5334  -30.3094   23.7559 H   0  0  0  0  0  0
  -15.8655  -28.0807   22.7278 H   0  0  0  0  0  0
  -24.5737  -30.7460   25.7675 H   0  0  0  0  0  0
  -24.9068  -32.3076   26.5074 H   0  0  0  0  0  0
  -25.7910  -30.8747   27.0202 H   0  0  0  0  0  0
  -26.3033  -29.6825   24.1343 H   0  0  0  0  0  0
  -27.3568  -29.7346   25.5266 H   0  0  0  0  0  0
  -27.9116  -30.4197   24.0183 H   0  0  0  0  0  0
  -27.2676  -33.3737   26.2255 H   0  0  0  0  0  0
  -28.3781  -32.7179   25.0345 H   0  0  0  0  0  0
  -28.0868  -31.8563   26.5418 H   0  0  0  0  0  0
  -28.2540  -38.0193   24.7585 H   0  0  0  0  0  0
  -28.1166  -36.2751   24.6063 H   0  0  0  0  0  0
  -27.2266  -37.1224   25.8778 H   0  0  0  0  0  0
  -20.9302  -29.8612   21.6670 H   0  0  0  0  0  0
  -26.0151  -38.2881   24.1527 H   0  0  0  0  0  0
  -27.0853  -23.5719   17.4633 H   0  0  0  0  0  0
  -31.8178  -17.5552   23.4768 H   0  0  0  0  0  0
  -30.0955  -17.2336   23.6446 H   0  0  0  0  0  0
  -32.3780  -20.9199   19.4586 H   0  0  0  0  0  0
  -30.9817  -21.2738   20.4514 H   0  0  0  0  0  0
  -28.5837  -20.1625   19.5861 H   0  0  0  0  0  0
  -28.7482  -19.1658   18.1168 H   0  0  0  0  0  0
  -30.9501  -15.0022   23.9784 H   0  0  0  0  0  0
  -32.2657  -15.2769   22.8378 H   0  0  0  0  0  0
  -29.3265  -15.9212   20.3789 H   0  0  0  0  0  0
  -28.7637  -16.2417   21.9888 H   0  0  0  0  0  0
  -32.2215  -19.4775   21.4943 H   0  0  0  0  0  0
  -32.2708  -18.5787   20.0042 H   0  0  0  0  0  0
  -30.0157  -17.5838   19.1388 H   0  0  0  0  0  0
  -28.5689  -17.9425   20.0966 H   0  0  0  0  0  0
  -30.9889  -19.8773   17.7359 H   0  0  0  0  0  0
  -31.6521  -16.8834   21.0672 H   0  0  0  0  0  0
  -26.7604  -21.5566   16.6031 H   0  0  0  0  0  0
  -27.0561  -20.5129   17.9484 H   0  0  0  0  0  0
  -27.9786  -20.3235   16.4286 H   0  0  0  0  0  0
  -32.3511  -21.9041   16.9501 H   0  0  0  0  0  0
  -33.0062  -22.8766   18.3019 H   0  0  0  0  0  0
  -32.3698  -23.6252   16.8279 H   0  0  0  0  0  0
  -31.1423  -25.3749   19.9595 H   0  0  0  0  0  0
  -30.7712  -26.3304   18.5269 H   0  0  0  0  0  0
  -32.1897  -25.2899   18.5383 H   0  0  0  0  0  0
  -27.2708  -25.0340   19.1115 H   0  0  0  0  0  0
  -27.6789  -26.1217   17.7648 H   0  0  0  0  0  0
  -29.8973  -19.0590   21.6866 H   0  0  0  0  0  0
  1 25  1  0  0  0
  1 30  2  0  0  0
  1 90  1  0  0  0
  2  3  1  0  0  0
  2 25  1  0  0  0
  2 92  1  0  0  0
  2 93  1  0  0  0
  3  4  1  0  0  0
  3 94  1  0  0  0
  3 95  1  0  0  0
  4  5  1  0  0  0
  4 96  1  0  0  0
  4 97  1  0  0  0
  5  6  1  0  0  0
  5 26  1  0  0  0
  5 98  1  0  0  0
  6 25  1  0  0  0
  6 99  1  0  0  0
  6100  1  0  0  0
  7  8  2  0  0  0
  7 26  1  0  0  0
  7 29  1  0  0  0
  8  9  1  0  0  0
  8 22  1  0  0  0
  9 10  1  0  0  0
  9 27  2  0  0  0
 10 11  2  0  0  0
 10 15  1  0  0  0
 11 12  1  0  0  0
 11101  1  0  0  0
 12 13  2  0  0  0
 12102  1  0  0  0
 13 14  1  0  0  0
 13 31  1  0  0  0
 14 15  2  0  0  0
 14103  1  0  0  0
 15104  1  0  0  0
 16 17  2  0  0  0
 16 21  1  0  0  0
 16 31  1  0  0  0
 17 18  1  0  0  0
 17105  1  0  0  0
 18 19  2  0  0  0
 18106  1  0  0  0
 19 20  1  0  0  0
 19 24  1  0  0  0
 20 21  2  0  0  0
 20107  1  0  0  0
 21 23  1  0  0  0
 22 28  1  0  0  0
 22 32  2  0  0  0
 26 27  1  0  0  0
 28108  1  0  0  0
 28109  1  0  0  0
 29110  1  0  0  0
 29111  1  0  0  0
 33 34  1  0  0  0
 33 66  1  0  0  0
 33 70  2  0  0  0
 34 36  1  0  0  0
 34 59  1  0  0  0
 34112  1  0  0  0
 35 44  2  0  0  0
 35 45  1  0  0  0
 35 68  1  0  0  0
 36 56  1  0  0  0
 36113  1  0  0  0
 37 39  1  0  0  0
 37 47  1  0  0  0
 37 66  1  0  0  0
 37114  1  0  0  0
 38 43  2  0  0  0
 38 46  1  0  0  0
 38 47  1  0  0  0
 39 64  1  0  0  0
 39 67  2  0  0  0
 40 52  1  0  0  0
 40 53  2  0  0  0
 40 58  1  0  0  0
 41115  1  0  0  0
 41116  1  0  0  0
 41117  1  0  0  0
 41 48  1  0  0  0
 42 43  1  0  0  0
 42 66  1  0  0  0
 42118  1  0  0  0
 42119  1  0  0  0
 43 44  1  0  0  0
 44120  1  0  0  0
 45 46  2  0  0  0
 45121  1  0  0  0
 46122  1  0  0  0
 47123  1  0  0  0
 47124  1  0  0  0
 48 56  1  0  0  0
 48 65  1  0  0  0
 48125  1  0  0  0
 49 50  1  0  0  0
 49 53  1  0  0  0
 49 64  1  0  0  0
 49126  1  0  0  0
 50 51  1  0  0  0
 50127  1  0  0  0
 50128  1  0  0  0
 51 52  1  0  0  0
 51129  1  0  0  0
 51130  1  0  0  0
 52131  1  0  0  0
 52132  1  0  0  0
 53 54  1  0  0  0
 54 55  2  0  0  0
 54133  1  0  0  0
 55 57  1  0  0  0
 55134  1  0  0  0
 56 69  2  0  0  0
 57 58  2  0  0  0
 57135  1  0  0  0
 58136  1  0  0  0
 59 60  1  0  0  0
 59 61  1  0  0  0
 59 62  1  0  0  0
 60137  1  0  0  0
 60138  1  0  0  0
 60139  1  0  0  0
 61140  1  0  0  0
 61141  1  0  0  0
 61142  1  0  0  0
 62143  1  0  0  0
 62144  1  0  0  0
 62145  1  0  0  0
 63 65  1  0  0  0
 63146  1  0  0  0
 63147  1  0  0  0
 63148  1  0  0  0
 64149  1  0  0  0
 65150  1  0  0  0
 68 89  1  0  0  0
 71 73  2  0  0  0
 71 74  1  0  0  0
 71151  1  0  0  0
 72 73  1  0  0  0
 72 75  2  0  0  0
 72 84  1  0  0  0
 73 86  1  0  0  0
 74 76  2  0  0  0
 74 89  1  0  0  0
 75 76  1  0  0  0
 75 87  1  0  0  0
 76 88  1  0  0  0
 77 80  1  0  0  0
 77152  1  0  0  0
 77153  1  0  0  0
 77 85  1  0  0  0
 78 82  1  0  0  0
 78 84  1  0  0  0
 78154  1  0  0  0
 78155  1  0  0  0
 79 83  1  0  0  0
 79 84  1  0  0  0
 79156  1  0  0  0
 79157  1  0  0  0
 80 90  1  0  0  0
 80158  1  0  0  0
 80159  1  0  0  0
 81 85  1  0  0  0
 81 90  1  0  0  0
 81160  1  0  0  0
 81161  1  0  0  0
 82162  1  0  0  0
 82163  1  0  0  0
 82 91  1  0  0  0
 83 91  1  0  0  0
 83164  1  0  0  0
 83165  1  0  0  0
 84166  1  0  0  0
 85 91  1  0  0  0
 85167  1  0  0  0
 86168  1  0  0  0
 86169  1  0  0  0
 86170  1  0  0  0
 87171  1  0  0  0
 87172  1  0  0  0
 87173  1  0  0  0
 88174  1  0  0  0
 88175  1  0  0  0
 88176  1  0  0  0
 89177  1  0  0  0
 89178  1  0  0  0
 91179  1  0  0  0
M  CHG  1  91   1
M  ISO  4   1 100  68 101  89 101  90 100
M  END
> <chiral flag>
0

> <version>
0

> <s_m_source_file>
/data/baiqing/PycharmProjects/Reinvent-master-3.2/result/LINK_invent/BTK/process_docking_weight1_custom_sum_contain_oxygen_bond_distance_aromatic_linkinvent_7_9_3/rearranged_h_0155.sdf

> <i_m_source_file_index>
1

> <r_mmod_Potential_Energy-OPLS-2005>
443.304260253906

> <r_mmod_Stretch_Energy-OPLS-2005>
58.4101295471191

> <r_mmod_Bend_Energy-OPLS-2005>
269.575225830078

> <r_mmod_Torsional_Energy-OPLS-2005>
453.840667724609

> <r_mmod_Improper_Torsional_Energy-OPLS-2005>
10.5133571624756

> <r_mmod_Van_der_Waal_Energy-OPLS-2005>
251.170425415039

> <r_mmod_Electrostatic_Energy-OPLS-2005>
-233.953811645508

> <r_mmod_Solvation_Energy-OPLS-2005>
-413.028228759766

> <b_mmod_Minimization_Converged-OPLS-2005>
0

> <r_mmod_RMS_Derivative-OPLS-2005>
11.1830167770386

$$$$
1
                    3D
 Structure written by MMmdl.
171181  0  0  1  0            999 V2000
  -30.7006  -14.4097   20.6044 C   0  0  0  0  0  0
  -30.4350  -12.2883   19.3695 C   0  0  0  0  0  0
  -29.4718  -12.4949   18.1789 C   0  0  0  0  0  0
  -27.9965  -12.3843   18.6184 C   0  0  0  0  0  0
  -27.6707  -13.1952   19.8992 C   0  0  2  0  0  0
  -28.7276  -12.8993   20.9842 C   0  0  0  0  0  0
  -25.2608  -13.8145   20.5743 C   0  0  0  0  0  0
  -24.1835  -13.0424   20.9264 C   0  0  0  0  0  0
  -24.6397  -11.6905   20.8825 C   0  0  0  0  0  0
  -23.9035  -10.4280   21.0427 C   0  0  0  0  0  0
  -24.3579   -9.4192   21.9199 C   0  0  0  0  0  0
  -23.6281   -8.2211   22.0731 C   0  0  0  0  0  0
  -22.4280   -8.0229   21.3493 C   0  0  0  0  0  0
  -21.9900   -9.0217   20.4622 C   0  0  0  0  0  0
  -22.7219  -10.2115   20.3059 C   0  0  0  0  0  0
  -21.6844   -6.0705   22.5266 C   0  0  0  0  0  0
  -21.4013   -6.5619   23.8194 C   0  0  0  0  0  0
  -21.3654   -5.6782   24.9158 C   0  0  0  0  0  0
  -21.6059   -4.3038   24.7237 C   0  0  0  0  0  0
  -21.8839   -3.8128   23.4357 C   0  0  0  0  0  0
  -21.9188   -4.6941   22.3396 C   0  0  0  0  0  0
  -22.7815  -13.5195   21.1864 C   0  0  0  0  0  0
  -22.1650   -4.2129   21.0986 F   0  0  0  0  0  0
  -21.5622   -3.4537   25.7747 F   0  0  0  0  0  0
  -30.0539  -13.2285   20.4290 N   0  0  0  0  0  0
  -26.3092  -12.9290   20.3597 N   0  0  0  0  0  0
  -25.9325  -11.6476   20.5898 N   0  0  0  0  0  0
  -22.0436  -12.8222   22.0449 N   0  0  0  0  0  0
  -25.4289  -15.1849   20.4025 N   0  0  0  0  0  0
  -31.7831  -14.6893   20.0794 O   0  0  0  0  0  0
  -21.6630   -6.8835   21.4211 O   0  0  0  0  0  0
  -22.3478  -14.5432   20.6620 O   0  0  0  0  0  0
  -24.6070  -31.8805   23.2101 C   0  0  0  0  0  0
  -25.8996  -32.4859   23.8438 C   0  0  1  0  0  0
  -27.2361  -27.4776   20.0712 C   0  0  0  0  0  0
  -25.5902  -33.8656   24.2380 N   0  0  0  0  0  0
  -23.3918  -30.5062   21.5501 C   0  0  2  0  0  0
  -24.8434  -28.9783   20.1092 C   0  0  0  0  0  0
  -22.7340  -29.4789   22.4968 C   0  0  0  0  0  0
  -18.0257  -28.1290   22.8443 C   0  0  0  0  0  0
  -24.1489  -36.7321   23.2630 C   0  0  0  0  0  0
  -25.9227  -30.8505   21.3694 C   0  0  0  0  0  0
  -26.0028  -29.4914   20.7074 C   0  0  0  0  0  0
  -27.2039  -28.7472   20.6909 C   0  0  0  0  0  0
  -26.0625  -26.9918   19.4476 C   0  0  0  0  0  0
  -24.8640  -27.7233   19.4809 C   0  0  0  0  0  0
  -23.6071  -29.8452   20.1616 C   0  0  0  0  0  0
  -25.4100  -36.3138   24.0340 C   0  0  1  0  0  0
  -20.5831  -28.3678   23.1220 C   0  0  2  0  0  0
  -20.6772  -26.9471   22.5211 C   0  0  0  0  0  0
  -19.5705  -26.6470   21.5056 C   0  0  0  0  0  0
  -18.1938  -26.7839   22.1544 C   0  0  0  0  0  0
  -19.1471  -28.8796   23.2879 C   0  0  0  0  0  0
  -18.9312  -30.1334   23.9013 C   0  0  0  0  0  0
  -17.6291  -30.6406   24.0655 C   0  0  0  0  0  0
  -25.9010  -34.9485   23.5131 C   0  0  0  0  0  0
  -16.5235  -29.8930   23.6248 C   0  0  0  0  0  0
  -16.7272  -28.6374   23.0188 C   0  0  0  0  0  0
  -26.4459  -31.6624   25.0751 C   0  0  0  0  0  0
  -25.3745  -31.3692   26.1511 C   0  0  0  0  0  0
  -27.0299  -30.3069   24.6105 C   0  0  0  0  0  0
  -27.6056  -32.4350   25.7497 C   0  0  0  0  0  0
  -27.5588  -37.1826   24.8460 C   0  0  0  0  0  0
  -21.4073  -29.3111   22.3636 N   0  0  0  0  0  0
  -26.4315  -37.3807   23.9397 N   0  0  0  0  0  0
  -24.6557  -31.0959   22.0997 N   0  0  0  0  0  0
  -23.4096  -28.8399   23.3045 O   0  0  0  0  0  0
  -28.3615  -26.6846   20.1353 O   0  0  0  0  0  0
  -26.5558  -34.8903   22.4699 O   0  0  0  0  0  0
  -23.5279  -32.1554   23.7534 O   0  0  0  0  0  0
  -26.2227  -18.6359   22.3744 C   0  0  0  0  0  0
  -25.4881  -19.6411   23.0160 C   0  0  0  0  0  0
  -27.0450  -21.3502   22.1611 C   0  0  0  0  0  0
  -27.7604  -20.3099   21.4985 C   0  0  0  0  0  0
  -27.3508  -18.9636   21.6070 C   0  0  0  0  0  0
  -25.8667  -21.0017   22.9132 C   0  0  0  0  0  0
  -27.5773  -22.7816   22.0936 C   0  0  0  0  0  0
  -28.8322  -21.3456   19.3630 C   0  0  0  0  0  0
  -28.9752  -20.6440   20.6905 C   0  0  1  0  0  0
  -29.3919  -22.0718   20.5650 C   0  0  2  0  0  0
  -30.2496  -24.7432   22.0796 C   0  0  0  0  0  0
  -24.1984  -21.6391   24.5682 C   0  0  0  0  0  0
  -28.9827  -17.3650   22.0680 C   0  0  0  0  0  0
  -30.2508  -16.7209   21.4881 C   0  0  0  0  0  0
  -28.0741  -25.4976   20.8877 C   0  0  0  0  0  0
  -29.1835  -24.4227   20.9994 C   0  0  2  0  0  0
  -28.6117  -23.0693   21.2398 N   0  0  0  0  0  0
  -28.1212  -17.9386   21.0436 N   0  0  0  0  0  0
  -29.9948  -15.2997   21.3069 N   0  0  0  0  0  0
  -27.0575  -23.6523   22.7939 O   0  0  0  0  0  0
  -25.0829  -21.9891   23.4963 O   0  0  0  0  0  0
  -31.4702  -12.4249   19.0368 H   0  0  0  0  0  0
  -30.3721  -11.2641   19.7414 H   0  0  0  0  0  0
  -29.6804  -11.7572   17.4044 H   0  0  0  0  0  0
  -29.6492  -13.4696   17.7260 H   0  0  0  0  0  0
  -27.7823  -11.3300   18.7956 H   0  0  0  0  0  0
  -27.3399  -12.6858   17.8011 H   0  0  0  0  0  0
  -27.7255  -14.2548   19.6471 H   0  0  0  0  0  0
  -28.7104  -11.8366   21.2304 H   0  0  0  0  0  0
  -28.5094  -13.4043   21.9262 H   0  0  0  0  0  0
  -25.2699   -9.5693   22.4819 H   0  0  0  0  0  0
  -23.9948   -7.4618   22.7490 H   0  0  0  0  0  0
  -21.0787   -8.8792   19.8978 H   0  0  0  0  0  0
  -22.3635  -10.9660   19.6205 H   0  0  0  0  0  0
  -21.2014   -7.6141   23.9683 H   0  0  0  0  0  0
  -21.1438   -6.0520   25.9054 H   0  0  0  0  0  0
  -22.0628   -2.7606   23.2869 H   0  0  0  0  0  0
  -22.3972  -11.9893   22.4922 H   0  0  0  0  0  0
  -21.1070  -13.1273   22.2616 H   0  0  0  0  0  0
  -24.6430  -15.8244   20.4468 H   0  0  0  0  0  0
  -26.2975  -15.6438   20.1470 H   0  0  0  0  0  0
  -26.7060  -32.5563   23.1228 H   0  0  0  0  0  0
  -25.0115  -33.9830   25.0558 H   0  0  0  0  0  0
  -22.6784  -31.3209   21.4148 H   0  0  0  0  0  0
  -23.3777  -35.9642   23.3317 H   0  0  0  0  0  0
  -24.3559  -36.8901   22.2035 H   0  0  0  0  0  0
  -23.7233  -37.6521   23.6613 H   0  0  0  0  0  0
  -26.0414  -31.6322   20.6141 H   0  0  0  0  0  0
  -26.8073  -30.8886   21.9964 H   0  0  0  0  0  0
  -28.0907  -29.1332   21.1735 H   0  0  0  0  0  0
  -26.0628  -26.0364   18.9426 H   0  0  0  0  0  0
  -23.9759  -27.3236   19.0117 H   0  0  0  0  0  0
  -23.7262  -30.6237   19.4111 H   0  0  0  0  0  0
  -22.7292  -29.2720   19.8528 H   0  0  0  0  0  0
  -25.1296  -36.2007   25.0842 H   0  0  0  0  0  0
  -20.9894  -28.3234   24.1354 H   0  0  0  0  0  0
  -20.5537  -26.2334   23.3352 H   0  0  0  0  0  0
  -21.6692  -26.7426   22.1160 H   0  0  0  0  0  0
  -19.6939  -25.6474   21.0879 H   0  0  0  0  0  0
  -19.6490  -27.3357   20.6648 H   0  0  0  0  0  0
  -17.4165  -26.6663   21.3986 H   0  0  0  0  0  0
  -18.0516  -25.9847   22.8825 H   0  0  0  0  0  0
  -19.7718  -30.7189   24.2505 H   0  0  0  0  0  0
  -17.4764  -31.6067   24.5223 H   0  0  0  0  0  0
  -15.5196  -30.2788   23.7468 H   0  0  0  0  0  0
  -15.8784  -28.0665   22.6670 H   0  0  0  0  0  0
  -24.5911  -30.7068   25.7826 H   0  0  0  0  0  0
  -24.8991  -32.2829   26.5051 H   0  0  0  0  0  0
  -25.8137  -30.8788   27.0213 H   0  0  0  0  0  0
  -26.2852  -29.6832   24.1167 H   0  0  0  0  0  0
  -27.4078  -29.7286   25.4549 H   0  0  0  0  0  0
  -27.8671  -30.4398   23.9266 H   0  0  0  0  0  0
  -27.2686  -33.3619   26.2151 H   0  0  0  0  0  0
  -28.3818  -32.6987   25.0307 H   0  0  0  0  0  0
  -28.0794  -31.8461   26.5355 H   0  0  0  0  0  0
  -28.2633  -38.0105   24.7515 H   0  0  0  0  0  0
  -28.1073  -36.2642   24.6323 H   0  0  0  0  0  0
  -27.2278  -37.1504   25.8856 H   0  0  0  0  0  0
  -20.9305  -29.8602   21.6633 H   0  0  0  0  0  0
  -26.0213  -38.2892   24.1445 H   0  0  0  0  0  0
  -25.9053  -17.6062   22.4596 H   0  0  0  0  0  0
  -24.6182  -19.3228   23.5710 H   0  0  0  0  0  0
  -27.8370  -21.6215   19.0256 H   0  0  0  0  0  0
  -29.5422  -21.1141   18.5717 H   0  0  0  0  0  0
  -29.7880  -19.9368   20.8421 H   0  0  0  0  0  0
  -30.4657  -22.2582   20.5090 H   0  0  0  0  0  0
  -30.6451  -25.7517   21.9772 H   0  0  0  0  0  0
  -31.1001  -24.0642   22.0202 H   0  0  0  0  0  0
  -29.8536  -24.6542   23.0930 H   0  0  0  0  0  0
  -24.7563  -21.2952   25.4394 H   0  0  0  0  0  0
  -23.4556  -20.8842   24.3109 H   0  0  0  0  0  0
  -23.6435  -22.5236   24.8824 H   0  0  0  0  0  0
  -29.2606  -18.1490   22.7798 H   0  0  0  0  0  0
  -28.4169  -16.6240   22.6387 H   0  0  0  0  0  0
  -31.0787  -16.8228   22.1930 H   0  0  0  0  0  0
  -30.5707  -17.2028   20.5623 H   0  0  0  0  0  0
  -27.7740  -25.8226   21.8816 H   0  0  0  0  0  0
  -27.2184  -24.9952   20.4366 H   0  0  0  0  0  0
  -29.6718  -24.4115   20.0238 H   0  0  0  0  0  0
  -28.6507  -18.2344   20.2235 H   0  0  0  0  0  0
  -29.1032  -14.9750   21.6527 H   0  0  0  0  0  0
  1 25  1  0  0  0
  1 30  2  0  0  0
  1 89  1  0  0  0
  2  3  1  0  0  0
  2 25  1  0  0  0
  2 92  1  0  0  0
  2 93  1  0  0  0
  3  4  1  0  0  0
  3 94  1  0  0  0
  3 95  1  0  0  0
  4  5  1  0  0  0
  4 96  1  0  0  0
  4 97  1  0  0  0
  5  6  1  0  0  0
  5 26  1  0  0  0
  5 98  1  0  0  0
  6 25  1  0  0  0
  6 99  1  0  0  0
  6100  1  0  0  0
  7  8  2  0  0  0
  7 26  1  0  0  0
  7 29  1  0  0  0
  8  9  1  0  0  0
  8 22  1  0  0  0
  9 10  1  0  0  0
  9 27  2  0  0  0
 10 11  2  0  0  0
 10 15  1  0  0  0
 11 12  1  0  0  0
 11101  1  0  0  0
 12 13  2  0  0  0
 12102  1  0  0  0
 13 14  1  0  0  0
 13 31  1  0  0  0
 14 15  2  0  0  0
 14103  1  0  0  0
 15104  1  0  0  0
 16 17  2  0  0  0
 16 21  1  0  0  0
 16 31  1  0  0  0
 17 18  1  0  0  0
 17105  1  0  0  0
 18 19  2  0  0  0
 18106  1  0  0  0
 19 20  1  0  0  0
 19 24  1  0  0  0
 20 21  2  0  0  0
 20107  1  0  0  0
 21 23  1  0  0  0
 22 28  1  0  0  0
 22 32  2  0  0  0
 26 27  1  0  0  0
 28108  1  0  0  0
 28109  1  0  0  0
 29110  1  0  0  0
 29111  1  0  0  0
 33 34  1  0  0  0
 33 66  1  0  0  0
 33 70  2  0  0  0
 34 36  1  0  0  0
 34 59  1  0  0  0
 34112  1  0  0  0
 35 44  2  0  0  0
 35 45  1  0  0  0
 35 68  1  0  0  0
 36 56  1  0  0  0
 36113  1  0  0  0
 37 39  1  0  0  0
 37 47  1  0  0  0
 37 66  1  0  0  0
 37114  1  0  0  0
 38 43  2  0  0  0
 38 46  1  0  0  0
 38 47  1  0  0  0
 39 64  1  0  0  0
 39 67  2  0  0  0
 40 52  1  0  0  0
 40 53  2  0  0  0
 40 58  1  0  0  0
 41115  1  0  0  0
 41116  1  0  0  0
 41117  1  0  0  0
 41 48  1  0  0  0
 42 43  1  0  0  0
 42 66  1  0  0  0
 42118  1  0  0  0
 42119  1  0  0  0
 43 44  1  0  0  0
 44120  1  0  0  0
 45 46  2  0  0  0
 45121  1  0  0  0
 46122  1  0  0  0
 47123  1  0  0  0
 47124  1  0  0  0
 48 56  1  0  0  0
 48 65  1  0  0  0
 48125  1  0  0  0
 49 50  1  0  0  0
 49 53  1  0  0  0
 49 64  1  0  0  0
 49126  1  0  0  0
 50 51  1  0  0  0
 50127  1  0  0  0
 50128  1  0  0  0
 51 52  1  0  0  0
 51129  1  0  0  0
 51130  1  0  0  0
 52131  1  0  0  0
 52132  1  0  0  0
 53 54  1  0  0  0
 54 55  2  0  0  0
 54133  1  0  0  0
 55 57  1  0  0  0
 55134  1  0  0  0
 56 69  2  0  0  0
 57 58  2  0  0  0
 57135  1  0  0  0
 58136  1  0  0  0
 59 60  1  0  0  0
 59 61  1  0  0  0
 59 62  1  0  0  0
 60137  1  0  0  0
 60138  1  0  0  0
 60139  1  0  0  0
 61140  1  0  0  0
 61141  1  0  0  0
 61142  1  0  0  0
 62143  1  0  0  0
 62144  1  0  0  0
 62145  1  0  0  0
 63 65  1  0  0  0
 63146  1  0  0  0
 63147  1  0  0  0
 63148  1  0  0  0
 64149  1  0  0  0
 65150  1  0  0  0
 68 85  1  0  0  0
 71 72  2  0  0  0
 71 75  1  0  0  0
 71151  1  0  0  0
 72 76  1  0  0  0
 72152  1  0  0  0
 73 74  1  0  0  0
 73 76  2  0  0  0
 73 77  1  0  0  0
 74 75  2  0  0  0
 74 79  1  0  0  0
 75 88  1  0  0  0
 76 91  1  0  0  0
 77 87  1  0  0  0
 77 90  2  0  0  0
 78153  1  0  0  0
 78154  1  0  0  0
 78 79  1  0  0  0
 78 80  1  0  0  0
 79 80  1  0  0  0
 79155  1  0  0  0
 80 87  1  0  0  0
 80156  1  0  0  0
 81157  1  0  0  0
 81158  1  0  0  0
 81159  1  0  0  0
 81 86  1  0  0  0
 82 91  1  0  0  0
 82160  1  0  0  0
 82161  1  0  0  0
 82162  1  0  0  0
 83 84  1  0  0  0
 83 88  1  0  0  0
 83163  1  0  0  0
 83164  1  0  0  0
 84 89  1  0  0  0
 84165  1  0  0  0
 84166  1  0  0  0
 85 86  1  0  0  0
 85167  1  0  0  0
 85168  1  0  0  0
 86 87  1  0  0  0
 86169  1  0  0  0
 88170  1  0  0  0
 89171  1  0  0  0
M  ISO  4   1 100  68 101  85 101  89 100
M  END
> <chiral flag>
0

> <version>
0

> <s_m_source_file>
/data/baiqing/PycharmProjects/Reinvent-master-3.2/result/LINK_invent/BTK/process_docking_weight1_custom_sum_contain_oxygen_bond_distance_aromatic_linkinvent_7_9_3/rearranged_h_0155.sdf

> <i_m_source_file_index>
2

> <r_mmod_Potential_Energy-OPLS-2005>
56.7469825744629

> <r_mmod_Stretch_Energy-OPLS-2005>
47.1882591247559

> <r_mmod_Bend_Energy-OPLS-2005>
111.133163452148

> <r_mmod_Torsional_Energy-OPLS-2005>
357.605224609375

> <r_mmod_Improper_Torsional_Energy-OPLS-2005>
9.23955535888672

> <r_mmod_Van_der_Waal_Energy-OPLS-2005>
190.26628112793

> <r_mmod_Electrostatic_Energy-OPLS-2005>
-437.973541259766

> <r_mmod_Solvation_Energy-OPLS-2005>
-232.404434204102

> <b_mmod_Minimization_Converged-OPLS-2005>
0

> <r_mmod_RMS_Derivative-OPLS-2005>
8.71172428131104

$$$$
2
                    3D
 Structure written by MMmdl.
188198  0  0  1  0            999 V2000
  -30.7079  -14.4260   20.5781 C   0  0  0  0  0  0
  -30.4222  -12.2801   19.4065 C   0  0  0  0  0  0
  -29.4908  -12.5062   18.1982 C   0  0  0  0  0  0
  -28.0107  -12.3716   18.6121 C   0  0  0  0  0  0
  -27.6634  -13.1955   19.8818 C   0  0  2  0  0  0
  -28.7081  -12.9443   20.9934 C   0  0  0  0  0  0
  -25.2558  -13.8081   20.5708 C   0  0  0  0  0  0
  -24.1814  -13.0364   20.9205 C   0  0  0  0  0  0
  -24.6375  -11.6849   20.8761 C   0  0  0  0  0  0
  -23.9032  -10.4248   21.0419 C   0  0  0  0  0  0
  -24.3586   -9.4171   21.9201 C   0  0  0  0  0  0
  -23.6268   -8.2202   22.0752 C   0  0  0  0  0  0
  -22.4256   -8.0252   21.3534 C   0  0  0  0  0  0
  -21.9886   -9.0221   20.4642 C   0  0  0  0  0  0
  -22.7205  -10.2102   20.3060 C   0  0  0  0  0  0
  -21.6835   -6.0726   22.5279 C   0  0  0  0  0  0
  -21.3995   -6.5631   23.8212 C   0  0  0  0  0  0
  -21.3666   -5.6786   24.9180 C   0  0  0  0  0  0
  -21.6052   -4.3051   24.7224 C   0  0  0  0  0  0
  -21.8816   -3.8139   23.4345 C   0  0  0  0  0  0
  -21.9181   -4.6956   22.3402 C   0  0  0  0  0  0
  -22.7840  -13.5197   21.1840 C   0  0  0  0  0  0
  -22.1657   -4.2146   21.0979 F   0  0  0  0  0  0
  -21.5638   -3.4534   25.7735 F   0  0  0  0  0  0
  -30.0393  -13.2501   20.4411 N   0  0  0  0  0  0
  -26.3031  -12.9266   20.3425 N   0  0  0  0  0  0
  -25.9300  -11.6433   20.5781 N   0  0  0  0  0  0
  -22.0448  -12.8227   22.0411 N   0  0  0  0  0  0
  -25.4105  -15.1779   20.4095 N   0  0  0  0  0  0
  -31.8298  -14.6262   20.0989 O   0  0  0  0  0  0
  -21.6612   -6.8864   21.4240 O   0  0  0  0  0  0
  -22.3553  -14.5510   20.6689 O   0  0  0  0  0  0
  -24.6088  -31.8707   23.2108 C   0  0  0  0  0  0
  -25.8988  -32.4836   23.8399 C   0  0  1  0  0  0
  -27.2356  -27.4792   20.0929 C   0  0  0  0  0  0
  -25.5855  -33.8634   24.2325 N   0  0  0  0  0  0
  -23.3958  -30.4926   21.5515 C   0  0  2  0  0  0
  -24.8431  -28.9615   20.1145 C   0  0  0  0  0  0
  -22.7391  -29.4672   22.5016 C   0  0  0  0  0  0
  -18.0270  -28.1384   22.8500 C   0  0  0  0  0  0
  -24.1479  -36.7350   23.2638 C   0  0  0  0  0  0
  -25.9183  -30.8508   21.3566 C   0  0  0  0  0  0
  -25.9990  -29.4875   20.7062 C   0  0  0  0  0  0
  -27.1999  -28.7511   20.6967 C   0  0  0  0  0  0
  -26.0727  -26.9550   19.4958 C   0  0  0  0  0  0
  -24.8727  -27.6916   19.5098 C   0  0  0  0  0  0
  -23.6004  -29.8198   20.1675 C   0  0  0  0  0  0
  -25.4088  -36.3116   24.0336 C   0  0  1  0  0  0
  -20.5850  -28.3652   23.1337 C   0  0  2  0  0  0
  -20.6765  -26.9397   22.5419 C   0  0  0  0  0  0
  -19.5742  -26.6386   21.5222 C   0  0  0  0  0  0
  -18.1917  -26.7927   22.1625 C   0  0  0  0  0  0
  -19.1521  -28.8838   23.2908 C   0  0  0  0  0  0
  -18.9453  -30.1450   23.8901 C   0  0  0  0  0  0
  -17.6459  -30.6589   24.0574 C   0  0  0  0  0  0
  -25.9017  -34.9487   23.5132 C   0  0  0  0  0  0
  -16.5351  -29.9087   23.6332 C   0  0  0  0  0  0
  -16.7259  -28.6508   23.0340 C   0  0  0  0  0  0
  -26.4428  -31.6613   25.0714 C   0  0  0  0  0  0
  -25.3697  -31.3725   26.1475 C   0  0  0  0  0  0
  -27.0246  -30.3069   24.6053 C   0  0  0  0  0  0
  -27.6021  -32.4334   25.7463 C   0  0  0  0  0  0
  -27.5581  -37.1823   24.8457 C   0  0  0  0  0  0
  -21.4122  -29.3022   22.3747 N   0  0  0  0  0  0
  -26.4284  -37.3793   23.9404 N   0  0  0  0  0  0
  -24.6591  -31.0845   22.0998 N   0  0  0  0  0  0
  -23.4184  -28.8211   23.3042 O   0  0  0  0  0  0
  -28.3814  -26.7336   20.1244 O   0  0  0  0  0  0
  -26.5592  -34.8930   22.4703 O   0  0  0  0  0  0
  -23.5287  -32.1447   23.7515 O   0  0  0  0  0  0
  -27.5325  -22.3342   20.2805 C   0  0  0  0  0  0
  -28.8886  -21.9622   20.2917 C   0  0  0  0  0  0
  -26.9829  -20.3200   21.5345 C   0  0  0  0  0  0
  -26.5765  -21.5216   20.9174 C   0  0  0  0  0  0
  -29.3088  -20.7738   20.9308 C   0  0  0  0  0  0
  -28.3439  -19.9310   21.5375 C   0  0  0  0  0  0
  -32.0714  -20.3221   23.2542 C   0  0  0  0  0  0
  -31.9730  -21.5994   24.0900 C   0  0  0  0  0  0
  -28.3515  -17.2123   20.2933 C   0  0  0  0  0  0
  -28.5183  -16.4333   22.7216 C   0  0  0  0  0  0
  -29.7508  -16.6078   20.0756 C   0  0  0  0  0  0
  -29.9181  -15.8869   22.3754 C   0  0  0  0  0  0
  -31.5945  -21.1381   22.0388 C   0  0  2  0  0  0
  -30.9404  -22.0965   23.0676 C   0  0  2  0  0  0
  -28.0678  -17.5661   21.7746 C   0  0  0  0  0  0
  -25.1190  -21.9416   20.9552 C   0  0  0  0  0  0
  -31.4451  -20.5160   19.5649 C   0  0  0  0  0  0
  -29.8352  -24.3183   22.6759 C   0  0  0  0  0  0
  -28.4328  -25.9229   21.2960 C   0  0  0  0  0  0
  -30.7922  -20.3977   20.9534 C   0  0  2  0  0  0
  -29.8394  -25.3295   21.5015 C   0  0  1  0  0  0
  -29.9394  -15.4635   20.9741 N   0  0  0  0  0  0
  -30.7696  -26.4340   21.7330 N   0  0  0  0  0  0
  -31.0871  -23.5343   22.7307 N   0  3  0  0  0  0
  -28.7613  -18.7609   22.1364 O   0  0  0  0  0  0
  -31.4671  -12.3787   19.1043 H   0  0  0  0  0  0
  -30.3159  -11.2637   19.7862 H   0  0  0  0  0  0
  -29.7236  -11.7947   17.4044 H   0  0  0  0  0  0
  -29.6650  -13.4992   17.7805 H   0  0  0  0  0  0
  -27.8139  -11.3149   18.7934 H   0  0  0  0  0  0
  -27.3608  -12.6617   17.7857 H   0  0  0  0  0  0
  -27.7136  -14.2454   19.5998 H   0  0  0  0  0  0
  -28.6792  -11.9009   21.3105 H   0  0  0  0  0  0
  -28.4826  -13.5215   21.8892 H   0  0  0  0  0  0
  -25.2715   -9.5659   22.4796 H   0  0  0  0  0  0
  -23.9971   -7.4597   22.7472 H   0  0  0  0  0  0
  -21.0810   -8.8732   19.8962 H   0  0  0  0  0  0
  -22.3649  -10.9645   19.6181 H   0  0  0  0  0  0
  -21.1974   -7.6136   23.9720 H   0  0  0  0  0  0
  -21.1508   -6.0515   25.9090 H   0  0  0  0  0  0
  -22.0594   -2.7601   23.2836 H   0  0  0  0  0  0
  -22.4004  -11.9891   22.4849 H   0  0  0  0  0  0
  -21.1072  -13.1313   22.2570 H   0  0  0  0  0  0
  -24.6278  -15.8149   20.5033 H   0  0  0  0  0  0
  -26.2456  -15.6192   20.0524 H   0  0  0  0  0  0
  -26.7054  -32.5567   23.1173 H   0  0  0  0  0  0
  -24.9952  -33.9783   25.0438 H   0  0  0  0  0  0
  -22.6828  -31.3080   21.4118 H   0  0  0  0  0  0
  -23.3712  -35.9722   23.3300 H   0  0  0  0  0  0
  -24.3583  -36.8965   22.2057 H   0  0  0  0  0  0
  -23.7276  -37.6574   23.6660 H   0  0  0  0  0  0
  -26.0202  -31.6151   20.5849 H   0  0  0  0  0  0
  -26.8109  -30.9092   21.9664 H   0  0  0  0  0  0
  -28.0926  -29.1463   21.1600 H   0  0  0  0  0  0
  -26.0939  -25.9758   19.0403 H   0  0  0  0  0  0
  -23.9809  -27.2782   19.0602 H   0  0  0  0  0  0
  -23.6978  -30.5904   19.4030 H   0  0  0  0  0  0
  -22.7273  -29.2304   19.8803 H   0  0  0  0  0  0
  -25.1272  -36.1984   25.0833 H   0  0  0  0  0  0
  -20.9952  -28.3220   24.1456 H   0  0  0  0  0  0
  -20.5695  -26.2251   23.3601 H   0  0  0  0  0  0
  -21.6633  -26.7460   22.1206 H   0  0  0  0  0  0
  -19.6900  -25.6302   21.1238 H   0  0  0  0  0  0
  -19.6693  -27.3202   20.6769 H   0  0  0  0  0  0
  -17.4201  -26.6691   21.4019 H   0  0  0  0  0  0
  -18.0309  -26.0067   22.9019 H   0  0  0  0  0  0
  -19.7930  -30.7278   24.2254 H   0  0  0  0  0  0
  -17.5012  -31.6265   24.5182 H   0  0  0  0  0  0
  -15.5343  -30.2995   23.7664 H   0  0  0  0  0  0
  -15.8658  -28.0847   22.7028 H   0  0  0  0  0  0
  -24.5836  -30.7115   25.7823 H   0  0  0  0  0  0
  -24.8921  -32.2884   26.4973 H   0  0  0  0  0  0
  -25.8040  -30.8856   27.0206 H   0  0  0  0  0  0
  -26.2781  -29.6872   24.1080 H   0  0  0  0  0  0
  -27.4002  -29.7283   25.4496 H   0  0  0  0  0  0
  -27.8616  -30.4425   23.9197 H   0  0  0  0  0  0
  -27.2651  -33.3611   26.2108 H   0  0  0  0  0  0
  -28.3785  -32.6941   25.0257 H   0  0  0  0  0  0
  -28.0743  -31.8417   26.5316 H   0  0  0  0  0  0
  -28.2586  -38.0126   24.7487 H   0  0  0  0  0  0
  -28.1072  -36.2656   24.6282 H   0  0  0  0  0  0
  -27.2299  -37.1478   25.8857 H   0  0  0  0  0  0
  -20.9277  -29.8728   21.6966 H   0  0  0  0  0  0
  -26.0170  -38.2878   24.1391 H   0  0  0  0  0  0
  -27.2337  -23.2499   19.7876 H   0  0  0  0  0  0
  -29.6090  -22.6072   19.8096 H   0  0  0  0  0  0
  -26.2382  -19.7100   22.0255 H   0  0  0  0  0  0
  -31.3545  -19.5584   23.5654 H   0  0  0  0  0  0
  -33.0768  -19.9093   23.1602 H   0  0  0  0  0  0
  -32.9108  -22.1591   24.0943 H   0  0  0  0  0  0
  -31.5854  -21.4521   25.0994 H   0  0  0  0  0  0
  -27.6146  -16.4930   19.9514 H   0  0  0  0  0  0
  -28.2123  -18.0808   19.6491 H   0  0  0  0  0  0
  -28.4961  -16.7776   23.7554 H   0  0  0  0  0  0
  -27.7951  -15.6188   22.6662 H   0  0  0  0  0  0
  -30.5337  -17.3453   20.2450 H   0  0  0  0  0  0
  -29.8443  -16.2988   19.0325 H   0  0  0  0  0  0
  -30.1753  -15.0608   23.0411 H   0  0  0  0  0  0
  -30.6748  -16.6574   22.5351 H   0  0  0  0  0  0
  -32.4767  -21.6162   21.6066 H   0  0  0  0  0  0
  -29.9319  -21.7972   23.3627 H   0  0  0  0  0  0
  -26.9958  -17.6947   21.9172 H   0  0  0  0  0  0
  -24.9349  -22.8061   20.3154 H   0  0  0  0  0  0
  -24.8321  -22.2050   21.9736 H   0  0  0  0  0  0
  -24.4743  -21.1281   20.6201 H   0  0  0  0  0  0
  -30.9066  -19.9161   18.8301 H   0  0  0  0  0  0
  -32.4720  -20.1518   19.5925 H   0  0  0  0  0  0
  -31.4742  -21.5434   19.2028 H   0  0  0  0  0  0
  -28.9913  -23.6399   22.5439 H   0  0  0  0  0  0
  -29.6695  -24.8134   23.6338 H   0  0  0  0  0  0
  -28.1384  -26.4911   22.1812 H   0  0  0  0  0  0
  -27.7004  -25.1214   21.1908 H   0  0  0  0  0  0
  -30.8534  -19.3366   21.1824 H   0  0  0  0  0  0
  -30.1225  -24.8171   20.5805 H   0  0  0  0  0  0
  -30.5432  -26.9317   22.5882 H   0  0  0  0  0  0
  -31.7359  -26.1430   21.8266 H   0  0  0  0  0  0
  -31.5442  -23.6147   21.8382 H   0  0  0  0  0  0
  -31.6878  -23.9739   23.4093 H   0  0  0  0  0  0
  1 25  1  0  0  0
  1 30  2  0  0  0
  1 92  1  0  0  0
  2  3  1  0  0  0
  2 25  1  0  0  0
  2 96  1  0  0  0
  2 97  1  0  0  0
  3  4  1  0  0  0
  3 98  1  0  0  0
  3 99  1  0  0  0
  4  5  1  0  0  0
  4100  1  0  0  0
  4101  1  0  0  0
  5  6  1  0  0  0
  5 26  1  0  0  0
  5102  1  0  0  0
  6 25  1  0  0  0
  6103  1  0  0  0
  6104  1  0  0  0
  7  8  2  0  0  0
  7 26  1  0  0  0
  7 29  1  0  0  0
  8  9  1  0  0  0
  8 22  1  0  0  0
  9 10  1  0  0  0
  9 27  2  0  0  0
 10 11  2  0  0  0
 10 15  1  0  0  0
 11 12  1  0  0  0
 11105  1  0  0  0
 12 13  2  0  0  0
 12106  1  0  0  0
 13 14  1  0  0  0
 13 31  1  0  0  0
 14 15  2  0  0  0
 14107  1  0  0  0
 15108  1  0  0  0
 16 17  2  0  0  0
 16 21  1  0  0  0
 16 31  1  0  0  0
 17 18  1  0  0  0
 17109  1  0  0  0
 18 19  2  0  0  0
 18110  1  0  0  0
 19 20  1  0  0  0
 19 24  1  0  0  0
 20 21  2  0  0  0
 20111  1  0  0  0
 21 23  1  0  0  0
 22 28  1  0  0  0
 22 32  2  0  0  0
 26 27  1  0  0  0
 28112  1  0  0  0
 28113  1  0  0  0
 29114  1  0  0  0
 29115  1  0  0  0
 33 34  1  0  0  0
 33 66  1  0  0  0
 33 70  2  0  0  0
 34 36  1  0  0  0
 34 59  1  0  0  0
 34116  1  0  0  0
 35 44  2  0  0  0
 35 45  1  0  0  0
 35 68  1  0  0  0
 36 56  1  0  0  0
 36117  1  0  0  0
 37 39  1  0  0  0
 37 47  1  0  0  0
 37 66  1  0  0  0
 37118  1  0  0  0
 38 43  2  0  0  0
 38 46  1  0  0  0
 38 47  1  0  0  0
 39 64  1  0  0  0
 39 67  2  0  0  0
 40 52  1  0  0  0
 40 53  2  0  0  0
 40 58  1  0  0  0
 41119  1  0  0  0
 41120  1  0  0  0
 41121  1  0  0  0
 41 48  1  0  0  0
 42 43  1  0  0  0
 42 66  1  0  0  0
 42122  1  0  0  0
 42123  1  0  0  0
 43 44  1  0  0  0
 44124  1  0  0  0
 45 46  2  0  0  0
 45125  1  0  0  0
 46126  1  0  0  0
 47127  1  0  0  0
 47128  1  0  0  0
 48 56  1  0  0  0
 48 65  1  0  0  0
 48129  1  0  0  0
 49 50  1  0  0  0
 49 53  1  0  0  0
 49 64  1  0  0  0
 49130  1  0  0  0
 50 51  1  0  0  0
 50131  1  0  0  0
 50132  1  0  0  0
 51 52  1  0  0  0
 51133  1  0  0  0
 51134  1  0  0  0
 52135  1  0  0  0
 52136  1  0  0  0
 53 54  1  0  0  0
 54 55  2  0  0  0
 54137  1  0  0  0
 55 57  1  0  0  0
 55138  1  0  0  0
 56 69  2  0  0  0
 57 58  2  0  0  0
 57139  1  0  0  0
 58140  1  0  0  0
 59 60  1  0  0  0
 59 61  1  0  0  0
 59 62  1  0  0  0
 60141  1  0  0  0
 60142  1  0  0  0
 60143  1  0  0  0
 61144  1  0  0  0
 61145  1  0  0  0
 61146  1  0  0  0
 62147  1  0  0  0
 62148  1  0  0  0
 62149  1  0  0  0
 63 65  1  0  0  0
 63150  1  0  0  0
 63151  1  0  0  0
 63152  1  0  0  0
 64153  1  0  0  0
 65154  1  0  0  0
 68 89  1  0  0  0
 71 72  2  0  0  0
 71 74  1  0  0  0
 71155  1  0  0  0
 72 75  1  0  0  0
 72156  1  0  0  0
 73 74  2  0  0  0
 73 76  1  0  0  0
 73157  1  0  0  0
 74 86  1  0  0  0
 75 76  2  0  0  0
 75 90  1  0  0  0
 76 95  1  0  0  0
 77 78  1  0  0  0
 77158  1  0  0  0
 77159  1  0  0  0
 77 83  1  0  0  0
 78 84  1  0  0  0
 78160  1  0  0  0
 78161  1  0  0  0
 79 81  1  0  0  0
 79 85  1  0  0  0
 79162  1  0  0  0
 79163  1  0  0  0
 80 82  1  0  0  0
 80 85  1  0  0  0
 80164  1  0  0  0
 80165  1  0  0  0
 81 92  1  0  0  0
 81166  1  0  0  0
 81167  1  0  0  0
 82 92  1  0  0  0
 82168  1  0  0  0
 82169  1  0  0  0
 83 84  1  0  0  0
 83 90  1  0  0  0
 83170  1  0  0  0
 84 94  1  0  0  0
 84171  1  0  0  0
 85 95  1  0  0  0
 85172  1  0  0  0
 86173  1  0  0  0
 86174  1  0  0  0
 86175  1  0  0  0
 87176  1  0  0  0
 87177  1  0  0  0
 87178  1  0  0  0
 87 90  1  0  0  0
 88 91  1  0  0  0
 88 94  1  0  0  0
 88179  1  0  0  0
 88180  1  0  0  0
 89 91  1  0  0  0
 89181  1  0  0  0
 89182  1  0  0  0
 90183  1  0  0  0
 91 93  1  0  0  0
 91184  1  0  0  0
 93185  1  0  0  0
 93186  1  0  0  0
 94187  1  0  0  0
 94188  1  0  0  0
M  CHG  1  94   1
M  ISO  4   1 100  68 101  89 101  92 100
M  END
> <chiral flag>
0

> <version>
0

> <s_m_source_file>
/data/baiqing/PycharmProjects/Reinvent-master-3.2/result/LINK_invent/BTK/process_docking_weight1_custom_sum_contain_oxygen_bond_distance_aromatic_linkinvent_7_9_3/rearranged_h_0155.sdf

> <i_m_source_file_index>
3

> <r_mmod_Potential_Energy-OPLS-2005>
77.5359115600586

> <r_mmod_Stretch_Energy-OPLS-2005>
36.3988494873047

> <r_mmod_Bend_Energy-OPLS-2005>
113.69214630127

> <r_mmod_Torsional_Energy-OPLS-2005>
420.834014892578

> <r_mmod_Improper_Torsional_Energy-OPLS-2005>
11.3159112930298

> <r_mmod_Van_der_Waal_Energy-OPLS-2005>
137.795486450195

> <r_mmod_Electrostatic_Energy-OPLS-2005>
-199.181442260742

> <r_mmod_Solvation_Energy-OPLS-2005>
-452.942443847656

> <b_mmod_Minimization_Converged-OPLS-2005>
0

> <r_mmod_RMS_Derivative-OPLS-2005>
2.42543339729309

$$$$
3
                    3D
 Structure written by MMmdl.
180190  0  0  1  0            999 V2000
  -30.7184  -14.3630   20.6094 C   0  0  0  0  0  0
  -30.4278  -12.2581   19.3729 C   0  0  0  0  0  0
  -29.4853  -12.5053   18.1770 C   0  0  0  0  0  0
  -28.0082  -12.3721   18.5995 C   0  0  0  0  0  0
  -27.6726  -13.1823   19.8779 C   0  0  2  0  0  0
  -28.7163  -12.8917   20.9813 C   0  0  0  0  0  0
  -25.2689  -13.8137   20.5638 C   0  0  0  0  0  0
  -24.1880  -13.0446   20.9154 C   0  0  0  0  0  0
  -24.6396  -11.6910   20.8733 C   0  0  0  0  0  0
  -23.9039  -10.4310   21.0425 C   0  0  0  0  0  0
  -24.3604   -9.4226   21.9182 C   0  0  0  0  0  0
  -23.6290   -8.2254   22.0758 C   0  0  0  0  0  0
  -22.4266   -8.0285   21.3568 C   0  0  0  0  0  0
  -21.9914   -9.0244   20.4657 C   0  0  0  0  0  0
  -22.7231  -10.2133   20.3070 C   0  0  0  0  0  0
  -21.6856   -6.0742   22.5287 C   0  0  0  0  0  0
  -21.3995   -6.5652   23.8213 C   0  0  0  0  0  0
  -21.3648   -5.6807   24.9180 C   0  0  0  0  0  0
  -21.6046   -4.3070   24.7236 C   0  0  0  0  0  0
  -21.8825   -3.8165   23.4359 C   0  0  0  0  0  0
  -21.9202   -4.6976   22.3415 C   0  0  0  0  0  0
  -22.7905  -13.5269   21.1815 C   0  0  0  0  0  0
  -22.1679   -4.2164   21.0990 F   0  0  0  0  0  0
  -21.5642   -3.4556   25.7753 F   0  0  0  0  0  0
  -30.0509  -13.1951   20.4363 N   0  0  0  0  0  0
  -26.3085  -12.9237   20.3373 N   0  0  0  0  0  0
  -25.9316  -11.6436   20.5757 N   0  0  0  0  0  0
  -22.0523  -12.8223   22.0342 N   0  0  0  0  0  0
  -25.4511  -15.1822   20.4005 N   0  0  0  0  0  0
  -31.8301  -14.5995   20.1226 O   0  0  0  0  0  0
  -21.6645   -6.8875   21.4245 O   0  0  0  0  0  0
  -22.3595  -14.5589   20.6704 O   0  0  0  0  0  0
  -24.6135  -31.8679   23.2102 C   0  0  0  0  0  0
  -25.9050  -32.4816   23.8395 C   0  0  1  0  0  0
  -27.2973  -27.4954   20.0744 C   0  0  0  0  0  0
  -25.5911  -33.8614   24.2337 N   0  0  0  0  0  0
  -23.4045  -30.4824   21.5484 C   0  0  2  0  0  0
  -24.8708  -28.9496   20.1199 C   0  0  0  0  0  0
  -22.7419  -29.4625   22.5016 C   0  0  0  0  0  0
  -18.0257  -28.1420   22.8477 C   0  0  0  0  0  0
  -24.1486  -36.7293   23.2644 C   0  0  0  0  0  0
  -25.9283  -30.8514   21.3580 C   0  0  0  0  0  0
  -26.0233  -29.4882   20.7043 C   0  0  0  0  0  0
  -27.2381  -28.7701   20.6796 C   0  0  0  0  0  0
  -26.1228  -26.9416   19.5236 C   0  0  0  0  0  0
  -24.9123  -27.6684   19.5334 C   0  0  0  0  0  0
  -23.6200  -29.8019   20.1668 C   0  0  0  0  0  0
  -25.4106  -36.3096   24.0343 C   0  0  1  0  0  0
  -20.5846  -28.3682   23.1321 C   0  0  2  0  0  0
  -20.6745  -26.9409   22.5424 C   0  0  0  0  0  0
  -19.5728  -26.6404   21.5218 C   0  0  0  0  0  0
  -18.1895  -26.7971   22.1601 C   0  0  0  0  0  0
  -19.1508  -28.8871   23.2893 C   0  0  0  0  0  0
  -18.9452  -30.1488   23.8887 C   0  0  0  0  0  0
  -17.6451  -30.6617   24.0555 C   0  0  0  0  0  0
  -25.9044  -34.9468   23.5134 C   0  0  0  0  0  0
  -16.5341  -29.9122   23.6343 C   0  0  0  0  0  0
  -16.7241  -28.6543   23.0341 C   0  0  0  0  0  0
  -26.4532  -31.6573   25.0685 C   0  0  0  0  0  0
  -25.3842  -31.3601   26.1444 C   0  0  0  0  0  0
  -27.0353  -30.3014   24.6022 C   0  0  0  0  0  0
  -27.6115  -32.4263   25.7479 C   0  0  0  0  0  0
  -27.5570  -37.1810   24.8481 C   0  0  0  0  0  0
  -21.4147  -29.3042   22.3756 N   0  0  0  0  0  0
  -26.4283  -37.3783   23.9422 N   0  0  0  0  0  0
  -24.6654  -31.0791   22.0978 N   0  0  0  0  0  0
  -23.4180  -28.8169   23.3057 O   0  0  0  0  0  0
  -28.4773  -26.7840   20.0318 O   0  0  0  0  0  0
  -26.5592  -34.8917   22.4692 O   0  0  0  0  0  0
  -23.5333  -32.1435   23.7522 O   0  0  0  0  0  0
  -32.3032  -20.9995   20.6261 C   0  0  0  0  0  0
  -33.6481  -19.0108   20.4278 C   0  0  0  0  0  0
  -33.1585  -21.6286   19.7002 C   0  0  0  0  0  0
  -32.5236  -19.6625   20.9805 C   0  0  0  0  0  0
  -34.2256  -20.8733   19.1651 C   0  0  0  0  0  0
  -30.3581  -17.2418   22.7032 C   0  0  0  0  0  0
  -30.4851  -17.6397   20.2337 C   0  0  0  0  0  0
  -31.5044  -23.2761   18.6778 C   0  0  0  0  0  0
  -33.0388  -23.9981   20.5543 C   0  0  0  0  0  0
  -30.0186  -15.7448   22.5197 C   0  0  0  0  0  0
  -29.5351  -16.4243   20.1831 C   0  0  0  0  0  0
  -31.1190  -24.7569   18.4738 C   0  0  0  0  0  0
  -32.6753  -25.4595   20.2454 C   0  0  0  0  0  0
  -32.8952  -23.0855   19.3200 C   0  0  1  0  0  0
  -31.2566  -17.7397   21.5685 C   0  0  0  0  0  0
  -35.9157  -20.5771   17.4732 C   0  0  0  0  0  0
  -30.9118  -27.0147   19.5095 C   0  0  0  0  0  0
  -29.4421  -27.2799   19.0905 C   0  0  0  0  0  0
  -34.4763  -19.5977   19.5382 N   0  0  0  0  0  0
  -29.9538  -15.3578   21.0985 N   0  0  0  0  0  0
  -31.2936  -25.5837   19.7012 N   0  3  1  0  0  0
  -31.6242  -19.0825   21.8408 O   0  0  0  0  0  0
  -35.0523  -21.4356   18.2176 O   0  0  0  0  0  0
  -31.4691  -12.3716   19.0615 H   0  0  0  0  0  0
  -30.3346  -11.2300   19.7274 H   0  0  0  0  0  0
  -29.7044  -11.8040   17.3706 H   0  0  0  0  0  0
  -29.6581  -13.5037   17.7699 H   0  0  0  0  0  0
  -27.8003  -11.3141   18.7688 H   0  0  0  0  0  0
  -27.3558  -12.6806   17.7827 H   0  0  0  0  0  0
  -27.7401  -14.2350   19.6074 H   0  0  0  0  0  0
  -28.6793  -11.8411   21.2745 H   0  0  0  0  0  0
  -28.4897  -13.4497   21.8907 H   0  0  0  0  0  0
  -25.2774   -9.5697   22.4712 H   0  0  0  0  0  0
  -24.0039   -7.4644   22.7447 H   0  0  0  0  0  0
  -21.0879   -8.8749   19.8925 H   0  0  0  0  0  0
  -22.3719  -10.9649   19.6165 H   0  0  0  0  0  0
  -21.1957   -7.6152   23.9717 H   0  0  0  0  0  0
  -21.1466   -6.0540   25.9075 H   0  0  0  0  0  0
  -22.0613   -2.7623   23.2868 H   0  0  0  0  0  0
  -22.4141  -11.9889   22.4725 H   0  0  0  0  0  0
  -21.1113  -13.1206   22.2485 H   0  0  0  0  0  0
  -24.6995  -15.8561   20.4942 H   0  0  0  0  0  0
  -26.3272  -15.5985   20.1090 H   0  0  0  0  0  0
  -26.7128  -32.5555   23.1178 H   0  0  0  0  0  0
  -25.0143  -33.9787   25.0534 H   0  0  0  0  0  0
  -22.6895  -31.2951   21.3969 H   0  0  0  0  0  0
  -23.3737  -35.9632   23.3318 H   0  0  0  0  0  0
  -24.3601  -36.8907   22.2061 H   0  0  0  0  0  0
  -23.7244  -37.6503   23.6653 H   0  0  0  0  0  0
  -26.0409  -31.6259   20.5982 H   0  0  0  0  0  0
  -26.8142  -30.9090   21.9792 H   0  0  0  0  0  0
  -28.1350  -29.1904   21.1177 H   0  0  0  0  0  0
  -26.1511  -25.9527   19.0852 H   0  0  0  0  0  0
  -24.0228  -27.2404   19.0930 H   0  0  0  0  0  0
  -23.7223  -30.5748   19.4037 H   0  0  0  0  0  0
  -22.7505  -29.2151   19.8654 H   0  0  0  0  0  0
  -25.1274  -36.1966   25.0829 H   0  0  0  0  0  0
  -20.9912  -28.3268   24.1458 H   0  0  0  0  0  0
  -20.5688  -26.2267   23.3609 H   0  0  0  0  0  0
  -21.6605  -26.7496   22.1178 H   0  0  0  0  0  0
  -19.6896  -25.6325   21.1253 H   0  0  0  0  0  0
  -19.6699  -27.3222   20.6753 H   0  0  0  0  0  0
  -17.4162  -26.6736   21.4001 H   0  0  0  0  0  0
  -18.0271  -26.0137   22.9007 H   0  0  0  0  0  0
  -19.7928  -30.7302   24.2240 H   0  0  0  0  0  0
  -17.5010  -31.6294   24.5176 H   0  0  0  0  0  0
  -15.5345  -30.3008   23.7717 H   0  0  0  0  0  0
  -15.8628  -28.0887   22.7046 H   0  0  0  0  0  0
  -24.6045  -30.6917   25.7754 H   0  0  0  0  0  0
  -24.8997  -32.2711   26.4946 H   0  0  0  0  0  0
  -25.8266  -30.8738   27.0151 H   0  0  0  0  0  0
  -26.2820  -29.6709   24.1266 H   0  0  0  0  0  0
  -27.4322  -29.7308   25.4430 H   0  0  0  0  0  0
  -27.8592  -30.4278   23.8994 H   0  0  0  0  0  0
  -27.2756  -33.3567   26.2062 H   0  0  0  0  0  0
  -28.3981  -32.6808   25.0360 H   0  0  0  0  0  0
  -28.0716  -31.8361   26.5422 H   0  0  0  0  0  0
  -28.2588  -38.0099   24.7486 H   0  0  0  0  0  0
  -28.1058  -36.2629   24.6342 H   0  0  0  0  0  0
  -27.2283  -37.1481   25.8883 H   0  0  0  0  0  0
  -20.9347  -29.8731   21.6933 H   0  0  0  0  0  0
  -26.0170  -38.2851   24.1457 H   0  0  0  0  0  0
  -31.4581  -21.5264   21.0447 H   0  0  0  0  0  0
  -33.9007  -17.9937   20.6908 H   0  0  0  0  0  0
  -30.8391  -17.3958   23.6676 H   0  0  0  0  0  0
  -29.4413  -17.8371   22.7138 H   0  0  0  0  0  0
  -29.8800  -18.5342   20.0853 H   0  0  0  0  0  0
  -31.1876  -17.6048   19.3999 H   0  0  0  0  0  0
  -31.4764  -22.7693   17.7117 H   0  0  0  0  0  0
  -30.7315  -22.8004   19.2817 H   0  0  0  0  0  0
  -32.4092  -23.6494   21.3743 H   0  0  0  0  0  0
  -34.0641  -23.9445   20.9256 H   0  0  0  0  0  0
  -29.0674  -15.5129   23.0034 H   0  0  0  0  0  0
  -30.7784  -15.1512   23.0301 H   0  0  0  0  0  0
  -29.4547  -16.0522   19.1586 H   0  0  0  0  0  0
  -28.5264  -16.7181   20.4728 H   0  0  0  0  0  0
  -30.0761  -24.7830   18.1591 H   0  0  0  0  0  0
  -31.7018  -25.1851   17.6593 H   0  0  0  0  0  0
  -33.3969  -25.8766   19.5398 H   0  0  0  0  0  0
  -32.7719  -26.0401   21.1636 H   0  0  0  0  0  0
  -33.6343  -23.4067   18.5863 H   0  0  0  0  0  0
  -32.1380  -17.0989   21.5419 H   0  0  0  0  0  0
  -36.4081  -21.1586   16.6946 H   0  0  0  0  0  0
  -35.3518  -19.7829   16.9782 H   0  0  0  0  0  0
  -36.6922  -20.1259   18.0945 H   0  0  0  0  0  0
  -31.1234  -27.5708   20.4230 H   0  0  0  0  0  0
  -31.5690  -27.4393   18.7486 H   0  0  0  0  0  0
  -29.2285  -26.8616   18.1047 H   0  0  0  0  0  0
  -29.3411  -28.3592   18.9636 H   0  0  0  0  0  0
  -30.6723  -25.2172   20.4088 H   0  0  0  0  0  0
  1 25  1  0  0  0
  1 30  2  0  0  0
  1 90  1  0  0  0
  2  3  1  0  0  0
  2 25  1  0  0  0
  2 94  1  0  0  0
  2 95  1  0  0  0
  3  4  1  0  0  0
  3 96  1  0  0  0
  3 97  1  0  0  0
  4  5  1  0  0  0
  4 98  1  0  0  0
  4 99  1  0  0  0
  5  6  1  0  0  0
  5 26  1  0  0  0
  5100  1  0  0  0
  6 25  1  0  0  0
  6101  1  0  0  0
  6102  1  0  0  0
  7  8  2  0  0  0
  7 26  1  0  0  0
  7 29  1  0  0  0
  8  9  1  0  0  0
  8 22  1  0  0  0
  9 10  1  0  0  0
  9 27  2  0  0  0
 10 11  2  0  0  0
 10 15  1  0  0  0
 11 12  1  0  0  0
 11103  1  0  0  0
 12 13  2  0  0  0
 12104  1  0  0  0
 13 14  1  0  0  0
 13 31  1  0  0  0
 14 15  2  0  0  0
 14105  1  0  0  0
 15106  1  0  0  0
 16 17  2  0  0  0
 16 21  1  0  0  0
 16 31  1  0  0  0
 17 18  1  0  0  0
 17107  1  0  0  0
 18 19  2  0  0  0
 18108  1  0  0  0
 19 20  1  0  0  0
 19 24  1  0  0  0
 20 21  2  0  0  0
 20109  1  0  0  0
 21 23  1  0  0  0
 22 28  1  0  0  0
 22 32  2  0  0  0
 26 27  1  0  0  0
 28110  1  0  0  0
 28111  1  0  0  0
 29112  1  0  0  0
 29113  1  0  0  0
 33 34  1  0  0  0
 33 66  1  0  0  0
 33 70  2  0  0  0
 34 36  1  0  0  0
 34 59  1  0  0  0
 34114  1  0  0  0
 35 44  2  0  0  0
 35 45  1  0  0  0
 35 68  1  0  0  0
 36 56  1  0  0  0
 36115  1  0  0  0
 37 39  1  0  0  0
 37 47  1  0  0  0
 37 66  1  0  0  0
 37116  1  0  0  0
 38 43  2  0  0  0
 38 46  1  0  0  0
 38 47  1  0  0  0
 39 64  1  0  0  0
 39 67  2  0  0  0
 40 52  1  0  0  0
 40 53  2  0  0  0
 40 58  1  0  0  0
 41117  1  0  0  0
 41118  1  0  0  0
 41119  1  0  0  0
 41 48  1  0  0  0
 42 43  1  0  0  0
 42 66  1  0  0  0
 42120  1  0  0  0
 42121  1  0  0  0
 43 44  1  0  0  0
 44122  1  0  0  0
 45 46  2  0  0  0
 45123  1  0  0  0
 46124  1  0  0  0
 47125  1  0  0  0
 47126  1  0  0  0
 48 56  1  0  0  0
 48 65  1  0  0  0
 48127  1  0  0  0
 49 50  1  0  0  0
 49 53  1  0  0  0
 49 64  1  0  0  0
 49128  1  0  0  0
 50 51  1  0  0  0
 50129  1  0  0  0
 50130  1  0  0  0
 51 52  1  0  0  0
 51131  1  0  0  0
 51132  1  0  0  0
 52133  1  0  0  0
 52134  1  0  0  0
 53 54  1  0  0  0
 54 55  2  0  0  0
 54135  1  0  0  0
 55 57  1  0  0  0
 55136  1  0  0  0
 56 69  2  0  0  0
 57 58  2  0  0  0
 57137  1  0  0  0
 58138  1  0  0  0
 59 60  1  0  0  0
 59 61  1  0  0  0
 59 62  1  0  0  0
 60139  1  0  0  0
 60140  1  0  0  0
 60141  1  0  0  0
 61142  1  0  0  0
 61143  1  0  0  0
 61144  1  0  0  0
 62145  1  0  0  0
 62146  1  0  0  0
 62147  1  0  0  0
 63 65  1  0  0  0
 63148  1  0  0  0
 63149  1  0  0  0
 63150  1  0  0  0
 64151  1  0  0  0
 65152  1  0  0  0
 68 88  1  0  0  0
 71 73  2  0  0  0
 71 74  1  0  0  0
 71153  1  0  0  0
 72 74  2  0  0  0
 72 89  1  0  0  0
 72154  1  0  0  0
 73 75  1  0  0  0
 73 84  1  0  0  0
 74 92  1  0  0  0
 75 89  2  0  0  0
 75 93  1  0  0  0
 76 80  1  0  0  0
 76 85  1  0  0  0
 76155  1  0  0  0
 76156  1  0  0  0
 77 81  1  0  0  0
 77 85  1  0  0  0
 77157  1  0  0  0
 77158  1  0  0  0
 78 82  1  0  0  0
 78 84  1  0  0  0
 78159  1  0  0  0
 78160  1  0  0  0
 79 83  1  0  0  0
 79 84  1  0  0  0
 79161  1  0  0  0
 79162  1  0  0  0
 80 90  1  0  0  0
 80163  1  0  0  0
 80164  1  0  0  0
 81 90  1  0  0  0
 81165  1  0  0  0
 81166  1  0  0  0
 82 91  1  0  0  0
 82167  1  0  0  0
 82168  1  0  0  0
 83 91  1  0  0  0
 83169  1  0  0  0
 83170  1  0  0  0
 84171  1  0  0  0
 85 92  1  0  0  0
 85172  1  0  0  0
 86 93  1  0  0  0
 86173  1  0  0  0
 86174  1  0  0  0
 86175  1  0  0  0
 87 88  1  0  0  0
 87176  1  0  0  0
 87177  1  0  0  0
 87 91  1  0  0  0
 88178  1  0  0  0
 88179  1  0  0  0
 91180  1  0  0  0
M  CHG  1  91   1
M  ISO  4   1 100  68 101  88 101  90 100
M  END
> <chiral flag>
0

> <version>
0

> <s_m_source_file>
/data/baiqing/PycharmProjects/Reinvent-master-3.2/result/LINK_invent/BTK/process_docking_weight1_custom_sum_contain_oxygen_bond_distance_aromatic_linkinvent_7_9_3/rearranged_h_0155.sdf

> <i_m_source_file_index>
4

> <r_mmod_Potential_Energy-OPLS-2005>
2.20763492584229

> <r_mmod_Stretch_Energy-OPLS-2005>
38.5629081726074

> <r_mmod_Bend_Energy-OPLS-2005>
108.892478942871

> <r_mmod_Torsional_Energy-OPLS-2005>
404.610412597656

> <r_mmod_Improper_Torsional_Energy-OPLS-2005>
8.69169139862061

> <r_mmod_Van_der_Waal_Energy-OPLS-2005>
180.973373413086

> <r_mmod_Electrostatic_Energy-OPLS-2005>
-331.027160644531

> <r_mmod_Solvation_Energy-OPLS-2005>
-418.224273681641

> <b_mmod_Minimization_Converged-OPLS-2005>
0

> <r_mmod_RMS_Derivative-OPLS-2005>
4.79795598983765

$$$$
4
                    3D
 Structure written by MMmdl.
197207  0  0  1  0            999 V2000
  -30.7938  -14.3521   20.6758 C   0  0  0  0  0  0
  -30.4036  -12.2781   19.4080 C   0  0  0  0  0  0
  -29.4862  -12.5330   18.1999 C   0  0  0  0  0  0
  -28.0101  -12.3895   18.6103 C   0  0  0  0  0  0
  -27.6666  -13.2096   19.8820 C   0  0  2  0  0  0
  -28.7024  -12.9691   21.0039 C   0  0  0  0  0  0
  -25.2603  -13.8176   20.5659 C   0  0  0  0  0  0
  -24.1846  -13.0448   20.9147 C   0  0  0  0  0  0
  -24.6401  -11.6924   20.8720 C   0  0  0  0  0  0
  -23.9062  -10.4307   21.0401 C   0  0  0  0  0  0
  -24.3613   -9.4224   21.9181 C   0  0  0  0  0  0
  -23.6287   -8.2256   22.0761 C   0  0  0  0  0  0
  -22.4273   -8.0285   21.3550 C   0  0  0  0  0  0
  -21.9908   -9.0256   20.4642 C   0  0  0  0  0  0
  -22.7237  -10.2137   20.3047 C   0  0  0  0  0  0
  -21.6850   -6.0735   22.5280 C   0  0  0  0  0  0
  -21.4021   -6.5645   23.8214 C   0  0  0  0  0  0
  -21.3660   -5.6797   24.9176 C   0  0  0  0  0  0
  -21.6044   -4.3058   24.7225 C   0  0  0  0  0  0
  -21.8819   -3.8148   23.4349 C   0  0  0  0  0  0
  -21.9195   -4.6964   22.3406 C   0  0  0  0  0  0
  -22.7873  -13.5251   21.1818 C   0  0  0  0  0  0
  -22.1658   -4.2151   21.0982 F   0  0  0  0  0  0
  -21.5629   -3.4542   25.7735 F   0  0  0  0  0  0
  -30.0464  -13.2381   20.4648 N   0  0  0  0  0  0
  -26.3046  -12.9345   20.3380 N   0  0  0  0  0  0
  -25.9329  -11.6501   20.5743 N   0  0  0  0  0  0
  -22.0519  -12.8233   22.0369 N   0  0  0  0  0  0
  -25.4364  -15.1873   20.4044 N   0  0  0  0  0  0
  -31.8294  -14.5773   20.0462 O   0  0  0  0  0  0
  -21.6642   -6.8877   21.4241 O   0  0  0  0  0  0
  -22.3562  -14.5564   20.6679 O   0  0  0  0  0  0
  -24.6118  -31.8696   23.2115 C   0  0  0  0  0  0
  -25.9021  -32.4843   23.8397 C   0  0  1  0  0  0
  -27.2371  -27.4713   20.0725 C   0  0  0  0  0  0
  -25.5885  -33.8636   24.2331 N   0  0  0  0  0  0
  -23.3984  -30.4929   21.5505 C   0  0  2  0  0  0
  -24.8437  -28.9626   20.1111 C   0  0  0  0  0  0
  -22.7399  -29.4661   22.4991 C   0  0  0  0  0  0
  -18.0266  -28.1380   22.8502 C   0  0  0  0  0  0
  -24.1492  -36.7337   23.2642 C   0  0  0  0  0  0
  -25.9220  -30.8441   21.3584 C   0  0  0  0  0  0
  -25.9989  -29.4781   20.7112 C   0  0  0  0  0  0
  -27.1949  -28.7309   20.7055 C   0  0  0  0  0  0
  -26.0622  -26.9520   19.4864 C   0  0  0  0  0  0
  -24.8672  -27.6956   19.5016 C   0  0  0  0  0  0
  -23.6038  -29.8252   20.1635 C   0  0  0  0  0  0
  -25.4111  -36.3135   24.0343 C   0  0  1  0  0  0
  -20.5851  -28.3669   23.1329 C   0  0  2  0  0  0
  -20.6753  -26.9404   22.5428 C   0  0  0  0  0  0
  -19.5740  -26.6389   21.5217 C   0  0  0  0  0  0
  -18.1910  -26.7939   22.1610 C   0  0  0  0  0  0
  -19.1511  -28.8842   23.2914 C   0  0  0  0  0  0
  -18.9434  -30.1451   23.8923 C   0  0  0  0  0  0
  -17.6436  -30.6597   24.0552 C   0  0  0  0  0  0
  -25.9034  -34.9490   23.5139 C   0  0  0  0  0  0
  -16.5329  -29.9093   23.6315 C   0  0  0  0  0  0
  -16.7253  -28.6498   23.0366 C   0  0  0  0  0  0
  -26.4467  -31.6606   25.0707 C   0  0  0  0  0  0
  -25.3737  -31.3647   26.1438 C   0  0  0  0  0  0
  -27.0315  -30.3074   24.6041 C   0  0  0  0  0  0
  -27.6027  -32.4333   25.7492 C   0  0  0  0  0  0
  -27.5597  -37.1828   24.8459 C   0  0  0  0  0  0
  -21.4127  -29.3040   22.3744 N   0  0  0  0  0  0
  -26.4301  -37.3815   23.9415 N   0  0  0  0  0  0
  -24.6626  -31.0822   22.0998 N   0  0  0  0  0  0
  -23.4183  -28.8194   23.3015 O   0  0  0  0  0  0
  -28.4121  -26.7614   20.0846 O   0  0  0  0  0  0
  -26.5601  -34.8937   22.4705 O   0  0  0  0  0  0
  -23.5321  -32.1414   23.7540 O   0  0  0  0  0  0
  -31.9458  -17.5752   19.2900 C   0  0  0  0  0  0
  -29.6909  -17.8064   17.6457 C   0  0  0  0  0  0
  -30.6746  -17.7269   19.8871 C   0  0  0  0  0  0
  -32.0965  -17.5151   17.8904 C   0  0  0  0  0  0
  -29.5376  -17.8600   19.0467 C   0  0  0  0  0  0
  -30.9588  -17.6241   17.0605 C   0  0  0  0  0  0
  -31.2098  -23.5318   20.5442 C   0  0  0  0  0  0
  -29.2888  -22.3400   19.3906 C   0  0  0  0  0  0
  -30.4681  -24.8659   20.3804 C   0  0  0  0  0  0
  -28.5556  -23.6877   19.2553 C   0  0  0  0  0  0
  -31.2013  -18.1993   23.6640 C   0  0  0  0  0  0
  -31.1089  -16.6689   23.5407 C   0  0  0  0  0  0
  -30.5463  -17.6922   21.4175 C   0  0  2  0  0  0
  -30.2514  -22.3114   20.5988 C   0  0  1  0  0  0
  -29.5582  -24.8498   19.1332 C   0  0  1  0  0  0
  -31.2918  -18.7813   22.2324 C   0  0  1  0  0  0
  -31.1067  -16.3947   22.0370 C   0  0  2  0  0  0
  -33.4808  -17.3109   17.3013 C   0  0  0  0  0  0
  -28.1422  -18.0660   19.6127 C   0  0  0  0  0  0
  -31.0771  -17.5381   15.5486 C   0  0  0  0  0  0
  -32.4338  -20.9401   20.2331 C   0  0  0  0  0  0
  -31.4379  -21.1351   23.2414 C   0  0  0  0  0  0
  -29.8267  -27.2248   18.2087 C   0  0  0  0  0  0
  -30.9699  -20.9250   20.7335 C   0  0  1  0  0  0
  -30.7937  -20.2628   22.1370 C   0  0  1  0  0  0
  -28.8744  -26.2078   18.8541 C   0  0  2  0  0  0
  -30.3814  -15.1768   21.6514 N   0  0  0  0  0  0
  -31.4510  -12.3443   19.1073 H   0  0  0  0  0  0
  -30.2700  -11.2596   19.7757 H   0  0  0  0  0  0
  -29.7193  -11.8384   17.3915 H   0  0  0  0  0  0
  -29.6672  -13.5353   17.8077 H   0  0  0  0  0  0
  -27.8114  -11.3308   18.7828 H   0  0  0  0  0  0
  -27.3607  -12.6890   17.7871 H   0  0  0  0  0  0
  -27.7217  -14.2631   19.6059 H   0  0  0  0  0  0
  -28.6560  -11.9343   21.3463 H   0  0  0  0  0  0
  -28.4587  -13.5748   21.8762 H   0  0  0  0  0  0
  -25.2761   -9.5700   22.4750 H   0  0  0  0  0  0
  -23.9994   -7.4658   22.7493 H   0  0  0  0  0  0
  -21.0843   -8.8772   19.8943 H   0  0  0  0  0  0
  -22.3697  -10.9671   19.6148 H   0  0  0  0  0  0
  -21.2018   -7.6157   23.9711 H   0  0  0  0  0  0
  -21.1482   -6.0534   25.9078 H   0  0  0  0  0  0
  -22.0597   -2.7613   23.2848 H   0  0  0  0  0  0
  -22.4115  -11.9855   22.4703 H   0  0  0  0  0  0
  -21.1146  -13.1271   22.2592 H   0  0  0  0  0  0
  -24.6777  -15.8534   20.5017 H   0  0  0  0  0  0
  -26.2974  -15.6112   20.0839 H   0  0  0  0  0  0
  -26.7098  -32.5572   23.1169 H   0  0  0  0  0  0
  -25.0022  -33.9786   25.0467 H   0  0  0  0  0  0
  -22.6853  -31.3085   21.4145 H   0  0  0  0  0  0
  -23.3771  -35.9653   23.3276 H   0  0  0  0  0  0
  -24.3593  -36.8988   22.2066 H   0  0  0  0  0  0
  -23.7226  -37.6521   23.6675 H   0  0  0  0  0  0
  -26.0226  -31.6091   20.5867 H   0  0  0  0  0  0
  -26.8135  -30.9040   21.9703 H   0  0  0  0  0  0
  -28.0875  -29.1228   21.1734 H   0  0  0  0  0  0
  -26.0606  -25.9731   19.0283 H   0  0  0  0  0  0
  -23.9751  -27.2918   19.0423 H   0  0  0  0  0  0
  -23.7069  -30.5979   19.4005 H   0  0  0  0  0  0
  -22.7294  -29.2404   19.8736 H   0  0  0  0  0  0
  -25.1292  -36.2002   25.0836 H   0  0  0  0  0  0
  -20.9949  -28.3236   24.1449 H   0  0  0  0  0  0
  -20.5660  -26.2270   23.3617 H   0  0  0  0  0  0
  -21.6625  -26.7459   22.1217 H   0  0  0  0  0  0
  -19.6903  -25.6307   21.1232 H   0  0  0  0  0  0
  -19.6682  -27.3201   20.6749 H   0  0  0  0  0  0
  -17.4199  -26.6731   21.3981 H   0  0  0  0  0  0
  -18.0271  -26.0057   22.8974 H   0  0  0  0  0  0
  -19.7913  -30.7255   24.2298 H   0  0  0  0  0  0
  -17.4998  -31.6283   24.5149 H   0  0  0  0  0  0
  -15.5332  -30.3011   23.7616 H   0  0  0  0  0  0
  -15.8654  -28.0811   22.7096 H   0  0  0  0  0  0
  -24.5988  -30.6914   25.7756 H   0  0  0  0  0  0
  -24.8827  -32.2760   26.4861 H   0  0  0  0  0  0
  -25.8117  -30.8856   27.0202 H   0  0  0  0  0  0
  -26.2840  -29.6843   24.1119 H   0  0  0  0  0  0
  -27.4143  -29.7309   25.4471 H   0  0  0  0  0  0
  -27.8644  -30.4443   23.9140 H   0  0  0  0  0  0
  -27.2622  -33.3603   26.2127 H   0  0  0  0  0  0
  -28.3813  -32.6955   25.0311 H   0  0  0  0  0  0
  -28.0731  -31.8425   26.5368 H   0  0  0  0  0  0
  -28.2598  -38.0142   24.7547 H   0  0  0  0  0  0
  -28.1110  -36.2680   24.6240 H   0  0  0  0  0  0
  -27.2308  -37.1422   25.8853 H   0  0  0  0  0  0
  -20.9295  -29.8799   21.6991 H   0  0  0  0  0  0
  -26.0203  -38.2894   24.1417 H   0  0  0  0  0  0
  -32.8194  -17.4732   19.9178 H   0  0  0  0  0  0
  -28.8199  -17.8952   17.0112 H   0  0  0  0  0  0
  -31.8268  -23.5727   21.4421 H   0  0  0  0  0  0
  -31.8983  -23.4452   19.7042 H   0  0  0  0  0  0
  -29.8441  -22.1337   18.4747 H   0  0  0  0  0  0
  -28.5502  -21.5423   19.4857 H   0  0  0  0  0  0
  -31.1966  -25.6734   20.3063 H   0  0  0  0  0  0
  -29.8791  -25.0643   21.2771 H   0  0  0  0  0  0
  -27.8998  -23.8472   20.1129 H   0  0  0  0  0  0
  -27.9094  -23.6567   18.3772 H   0  0  0  0  0  0
  -32.0557  -18.4997   24.2721 H   0  0  0  0  0  0
  -30.3041  -18.5649   24.1655 H   0  0  0  0  0  0
  -30.1894  -16.3176   24.0120 H   0  0  0  0  0  0
  -31.9434  -16.1688   24.0339 H   0  0  0  0  0  0
  -29.4975  -17.7540   21.7019 H   0  0  0  0  0  0
  -29.6144  -22.4462   21.4734 H   0  0  0  0  0  0
  -30.1808  -24.6291   18.2644 H   0  0  0  0  0  0
  -32.3469  -18.7484   21.9597 H   0  0  0  0  0  0
  -32.1584  -16.3012   21.7580 H   0  0  0  0  0  0
  -34.2344  -17.2049   18.0822 H   0  0  0  0  0  0
  -33.7632  -18.1589   16.6769 H   0  0  0  0  0  0
  -33.5074  -16.4067   16.6922 H   0  0  0  0  0  0
  -27.4035  -18.2054   18.8231 H   0  0  0  0  0  0
  -28.1149  -18.9540   20.2456 H   0  0  0  0  0  0
  -27.8367  -17.2037   20.2055 H   0  0  0  0  0  0
  -30.1265  -17.7534   15.0597 H   0  0  0  0  0  0
  -31.3844  -16.5359   15.2495 H   0  0  0  0  0  0
  -31.8115  -18.2505   15.1729 H   0  0  0  0  0  0
  -32.4944  -21.3231   19.2147 H   0  0  0  0  0  0
  -32.8751  -19.9471   20.2008 H   0  0  0  0  0  0
  -33.0770  -21.5541   20.8633 H   0  0  0  0  0  0
  -31.1786  -20.7837   24.2394 H   0  0  0  0  0  0
  -31.1019  -22.1699   23.1986 H   0  0  0  0  0  0
  -32.5252  -21.1375   23.1660 H   0  0  0  0  0  0
  -30.2168  -26.8473   17.2632 H   0  0  0  0  0  0
  -30.6749  -27.4519   18.8535 H   0  0  0  0  0  0
  -29.3116  -28.1624   17.9965 H   0  0  0  0  0  0
  -30.4462  -20.2705   20.0436 H   0  0  0  0  0  0
  -29.7220  -20.2393   22.3410 H   0  0  0  0  0  0
  -28.0693  -26.0431   18.1384 H   0  0  0  0  0  0
  -29.5367  -14.9386   22.1489 H   0  0  0  0  0  0
  1 25  1  0  0  0
  1 30  2  0  0  0
  1 97  1  0  0  0
  2  3  1  0  0  0
  2 25  1  0  0  0
  2 98  1  0  0  0
  2 99  1  0  0  0
  3  4  1  0  0  0
  3100  1  0  0  0
  3101  1  0  0  0
  4  5  1  0  0  0
  4102  1  0  0  0
  4103  1  0  0  0
  5  6  1  0  0  0
  5 26  1  0  0  0
  5104  1  0  0  0
  6 25  1  0  0  0
  6105  1  0  0  0
  6106  1  0  0  0
  7  8  2  0  0  0
  7 26  1  0  0  0
  7 29  1  0  0  0
  8  9  1  0  0  0
  8 22  1  0  0  0
  9 10  1  0  0  0
  9 27  2  0  0  0
 10 11  2  0  0  0
 10 15  1  0  0  0
 11 12  1  0  0  0
 11107  1  0  0  0
 12 13  2  0  0  0
 12108  1  0  0  0
 13 14  1  0  0  0
 13 31  1  0  0  0
 14 15  2  0  0  0
 14109  1  0  0  0
 15110  1  0  0  0
 16 17  2  0  0  0
 16 21  1  0  0  0
 16 31  1  0  0  0
 17 18  1  0  0  0
 17111  1  0  0  0
 18 19  2  0  0  0
 18112  1  0  0  0
 19 20  1  0  0  0
 19 24  1  0  0  0
 20 21  2  0  0  0
 20113  1  0  0  0
 21 23  1  0  0  0
 22 28  1  0  0  0
 22 32  2  0  0  0
 26 27  1  0  0  0
 28114  1  0  0  0
 28115  1  0  0  0
 29116  1  0  0  0
 29117  1  0  0  0
 33 34  1  0  0  0
 33 66  1  0  0  0
 33 70  2  0  0  0
 34 36  1  0  0  0
 34 59  1  0  0  0
 34118  1  0  0  0
 35 44  2  0  0  0
 35 45  1  0  0  0
 35 68  1  0  0  0
 36 56  1  0  0  0
 36119  1  0  0  0
 37 39  1  0  0  0
 37 47  1  0  0  0
 37 66  1  0  0  0
 37120  1  0  0  0
 38 43  2  0  0  0
 38 46  1  0  0  0
 38 47  1  0  0  0
 39 64  1  0  0  0
 39 67  2  0  0  0
 40 52  1  0  0  0
 40 53  2  0  0  0
 40 58  1  0  0  0
 41121  1  0  0  0
 41122  1  0  0  0
 41123  1  0  0  0
 41 48  1  0  0  0
 42 43  1  0  0  0
 42 66  1  0  0  0
 42124  1  0  0  0
 42125  1  0  0  0
 43 44  1  0  0  0
 44126  1  0  0  0
 45 46  2  0  0  0
 45127  1  0  0  0
 46128  1  0  0  0
 47129  1  0  0  0
 47130  1  0  0  0
 48 56  1  0  0  0
 48 65  1  0  0  0
 48131  1  0  0  0
 49 50  1  0  0  0
 49 53  1  0  0  0
 49 64  1  0  0  0
 49132  1  0  0  0
 50 51  1  0  0  0
 50133  1  0  0  0
 50134  1  0  0  0
 51 52  1  0  0  0
 51135  1  0  0  0
 51136  1  0  0  0
 52137  1  0  0  0
 52138  1  0  0  0
 53 54  1  0  0  0
 54 55  2  0  0  0
 54139  1  0  0  0
 55 57  1  0  0  0
 55140  1  0  0  0
 56 69  2  0  0  0
 57 58  2  0  0  0
 57141  1  0  0  0
 58142  1  0  0  0
 59 60  1  0  0  0
 59 61  1  0  0  0
 59 62  1  0  0  0
 60143  1  0  0  0
 60144  1  0  0  0
 60145  1  0  0  0
 61146  1  0  0  0
 61147  1  0  0  0
 61148  1  0  0  0
 62149  1  0  0  0
 62150  1  0  0  0
 62151  1  0  0  0
 63 65  1  0  0  0
 63152  1  0  0  0
 63153  1  0  0  0
 63154  1  0  0  0
 64155  1  0  0  0
 65156  1  0  0  0
 68 96  1  0  0  0
 71 73  2  0  0  0
 71 74  1  0  0  0
 71157  1  0  0  0
 72 75  2  0  0  0
 72 76  1  0  0  0
 72158  1  0  0  0
 73 75  1  0  0  0
 73 83  1  0  0  0
 74 76  2  0  0  0
 74 88  1  0  0  0
 75 89  1  0  0  0
 76 90  1  0  0  0
 77 79  1  0  0  0
 77159  1  0  0  0
 77160  1  0  0  0
 77 84  1  0  0  0
 78 80  1  0  0  0
 78 84  1  0  0  0
 78161  1  0  0  0
 78162  1  0  0  0
 79163  1  0  0  0
 79164  1  0  0  0
 79 85  1  0  0  0
 80 85  1  0  0  0
 80165  1  0  0  0
 80166  1  0  0  0
 81 82  1  0  0  0
 81167  1  0  0  0
 81168  1  0  0  0
 81 86  1  0  0  0
 82 87  1  0  0  0
 82169  1  0  0  0
 82170  1  0  0  0
 83 86  1  0  0  0
 83 87  1  0  0  0
 83171  1  0  0  0
 84 94  1  0  0  0
 84172  1  0  0  0
 85 96  1  0  0  0
 85173  1  0  0  0
 86 95  1  0  0  0
 86174  1  0  0  0
 87 97  1  0  0  0
 87175  1  0  0  0
 88176  1  0  0  0
 88177  1  0  0  0
 88178  1  0  0  0
 89179  1  0  0  0
 89180  1  0  0  0
 89181  1  0  0  0
 90182  1  0  0  0
 90183  1  0  0  0
 90184  1  0  0  0
 91185  1  0  0  0
 91186  1  0  0  0
 91187  1  0  0  0
 91 94  1  0  0  0
 92188  1  0  0  0
 92189  1  0  0  0
 92190  1  0  0  0
 92 95  1  0  0  0
 93191  1  0  0  0
 93192  1  0  0  0
 93193  1  0  0  0
 93 96  1  0  0  0
 94 95  1  0  0  0
 94194  1  0  0  0
 95195  1  0  0  0
 96196  1  0  0  0
 97197  1  0  0  0
M  ISO  4   1 100  68 101  96 101  97 100
M  END
> <chiral flag>
0

> <version>
0

> <s_m_source_file>
/data/baiqing/PycharmProjects/Reinvent-master-3.2/result/LINK_invent/BTK/process_docking_weight1_custom_sum_contain_oxygen_bond_distance_aromatic_linkinvent_7_9_3/rearranged_h_0155.sdf

> <i_m_source_file_index>
5

> <r_mmod_Potential_Energy-OPLS-2005>
57.968318939209

> <r_mmod_Stretch_Energy-OPLS-2005>
40.7956886291504

> <r_mmod_Bend_Energy-OPLS-2005>
147.644027709961

> <r_mmod_Torsional_Energy-OPLS-2005>
313.795684814453

> <r_mmod_Improper_Torsional_Energy-OPLS-2005>
1.97631072998047

> <r_mmod_Van_der_Waal_Energy-OPLS-2005>
153.826354980469

> <r_mmod_Electrostatic_Energy-OPLS-2005>
-425.183135986328

> <r_mmod_Solvation_Energy-OPLS-2005>
-182.900527954102

> <b_mmod_Minimization_Converged-OPLS-2005>
0

> <r_mmod_RMS_Derivative-OPLS-2005>
1.68118560314178

$$$$
5
                    3D
 Structure written by MMmdl.
165174  0  0  1  0            999 V2000
  -30.7858  -14.6190   20.4502 C   0  0  0  0  0  0
  -30.3881  -12.4066   19.4275 C   0  0  0  0  0  0
  -29.4673  -12.4746   18.1990 C   0  0  0  0  0  0
  -28.0028  -12.3211   18.6384 C   0  0  0  0  0  0
  -27.6280  -13.2400   19.8315 C   0  0  2  0  0  0
  -28.6936  -13.2219   20.9482 C   0  0  0  0  0  0
  -25.2484  -13.8246   20.5757 C   0  0  0  0  0  0
  -24.1773  -13.0462   20.9250 C   0  0  0  0  0  0
  -24.6373  -11.6955   20.8793 C   0  0  0  0  0  0
  -23.9057  -10.4316   21.0424 C   0  0  0  0  0  0
  -24.3622   -9.4217   21.9180 C   0  0  0  0  0  0
  -23.6291   -8.2239   22.0742 C   0  0  0  0  0  0
  -22.4274   -8.0279   21.3533 C   0  0  0  0  0  0
  -21.9924   -9.0259   20.4637 C   0  0  0  0  0  0
  -22.7243  -10.2146   20.3045 C   0  0  0  0  0  0
  -21.6865   -6.0741   22.5279 C   0  0  0  0  0  0
  -21.4008   -6.5631   23.8208 C   0  0  0  0  0  0
  -21.3662   -5.6784   24.9171 C   0  0  0  0  0  0
  -21.6059   -4.3048   24.7237 C   0  0  0  0  0  0
  -21.8814   -3.8141   23.4347 C   0  0  0  0  0  0
  -21.9188   -4.6964   22.3402 C   0  0  0  0  0  0
  -22.7793  -13.5232   21.1904 C   0  0  0  0  0  0
  -22.1663   -4.2136   21.0990 F   0  0  0  0  0  0
  -21.5642   -3.4528   25.7756 F   0  0  0  0  0  0
  -29.9789  -13.5207   20.3118 N   0  0  0  0  0  0
  -26.2899  -12.9453   20.3343 N   0  0  0  0  0  0
  -25.9308  -11.6600   20.5813 N   0  0  0  0  0  0
  -22.0413  -12.8185   22.0448 N   0  0  0  0  0  0
  -25.4142  -15.1956   20.4161 N   0  0  0  0  0  0
  -31.9998  -14.4538   20.3300 O   0  0  0  0  0  0
  -21.6633   -6.8877   21.4242 O   0  0  0  0  0  0
  -22.3469  -14.5543   20.6785 O   0  0  0  0  0  0
  -24.6249  -31.8587   23.2042 C   0  0  0  0  0  0
  -25.9113  -32.4761   23.8357 C   0  0  1  0  0  0
  -27.2024  -27.3109   20.1150 C   0  0  0  0  0  0
  -25.5928  -33.8553   24.2261 N   0  0  0  0  0  0
  -23.4120  -30.4839   21.5492 C   0  0  2  0  0  0
  -24.8550  -28.9417   20.1122 C   0  0  0  0  0  0
  -22.7396  -29.4648   22.4996 C   0  0  0  0  0  0
  -18.0228  -28.1455   22.8424 C   0  0  0  0  0  0
  -24.1489  -36.7282   23.2643 C   0  0  0  0  0  0
  -25.9566  -30.7824   21.3789 C   0  0  0  0  0  0
  -26.0231  -29.4118   20.7201 C   0  0  0  0  0  0
  -27.1995  -28.6086   20.7117 C   0  0  0  0  0  0
  -26.0086  -26.8971   19.4794 C   0  0  0  0  0  0
  -24.8508  -27.6897   19.4841 C   0  0  0  0  0  0
  -23.6214  -29.8178   20.1665 C   0  0  0  0  0  0
  -25.4123  -36.3055   24.0317 C   0  0  1  0  0  0
  -20.5858  -28.3586   23.1269 C   0  0  2  0  0  0
  -20.6742  -26.9390   22.5190 C   0  0  0  0  0  0
  -19.5613  -26.6446   21.5032 C   0  0  0  0  0  0
  -18.1771  -26.8099   22.1361 C   0  0  0  0  0  0
  -19.1521  -28.8788   23.2916 C   0  0  0  0  0  0
  -18.9536  -30.1374   23.8990 C   0  0  0  0  0  0
  -17.6560  -30.6611   24.0589 C   0  0  0  0  0  0
  -25.9058  -34.9435   23.5098 C   0  0  0  0  0  0
  -16.5405  -29.9248   23.6237 C   0  0  0  0  0  0
  -16.7251  -28.6673   23.0241 C   0  0  0  0  0  0
  -26.4493  -31.6582   25.0737 C   0  0  0  0  0  0
  -25.3705  -31.3726   26.1441 C   0  0  0  0  0  0
  -27.0343  -30.3001   24.6229 C   0  0  0  0  0  0
  -27.6018  -32.4328   25.7538 C   0  0  0  0  0  0
  -27.5580  -37.1796   24.8465 C   0  0  0  0  0  0
  -21.4109  -29.3025   22.3729 N   0  0  0  0  0  0
  -26.4300  -37.3761   23.9402 N   0  0  0  0  0  0
  -24.6821  -31.0604   22.0990 N   0  0  0  0  0  0
  -23.4134  -28.8195   23.3074 O   0  0  0  0  0  0
  -28.3377  -26.4900   20.1572 O   0  0  0  0  0  0
  -26.5626  -34.8904   22.4668 O   0  0  0  0  0  0
  -23.5421  -32.1396   23.7385 O   0  0  0  0  0  0
  -25.9013  -21.0939   21.6605 C   0  0  0  0  0  0
  -26.6483  -20.0327   21.1350 C   0  0  0  0  0  0
  -26.4166  -22.4119   21.6152 C   0  0  0  0  0  0
  -27.7076  -22.6134   21.0529 C   0  0  0  0  0  0
  -27.8918  -20.2845   20.5461 C   0  0  0  0  0  0
  -30.7234  -18.2776   19.6915 C   0  0  0  0  0  0
  -31.3837  -16.9367   19.9675 C   0  0  0  0  0  0
  -29.0712  -16.6884   20.4463 C   0  0  0  0  0  0
  -29.4195  -18.2430   20.4663 C   0  0  2  0  0  0
  -29.7196  -24.0216   21.8008 C   0  0  0  0  0  0
  -24.3708  -23.3035   22.5462 C   0  0  0  0  0  0
  -28.2752  -25.0272   19.8917 C   0  0  0  0  0  0
  -28.3317  -24.0644   21.1464 C   0  0  1  0  0  0
  -28.4191  -21.5550   20.5077 N   0  0  0  0  0  0
  -30.3465  -15.9284   20.2854 N   0  0  0  0  0  0
  -28.4695  -19.1966   19.8430 N   0  0  0  0  0  0
  -25.7152  -23.4948   22.1111 O   0  0  0  0  0  0
  -31.4247  -12.4590   19.0921 H   0  0  0  0  0  0
  -30.2928  -11.4508   19.9419 H   0  0  0  0  0  0
  -29.7277  -11.6956   17.4812 H   0  0  0  0  0  0
  -29.6012  -13.4264   17.6835 H   0  0  0  0  0  0
  -27.8587  -11.2759   18.9119 H   0  0  0  0  0  0
  -27.3279  -12.5037   17.7995 H   0  0  0  0  0  0
  -27.6036  -14.2476   19.4200 H   0  0  0  0  0  0
  -28.7241  -12.2522   21.4454 H   0  0  0  0  0  0
  -28.4667  -13.9583   21.7165 H   0  0  0  0  0  0
  -25.2778   -9.5701   22.4728 H   0  0  0  0  0  0
  -24.0020   -7.4650   22.7463 H   0  0  0  0  0  0
  -21.0845   -8.8764   19.8949 H   0  0  0  0  0  0
  -22.3695  -10.9676   19.6121 H   0  0  0  0  0  0
  -21.1967   -7.6131   23.9705 H   0  0  0  0  0  0
  -21.1501   -6.0515   25.9079 H   0  0  0  0  0  0
  -22.0585   -2.7597   23.2854 H   0  0  0  0  0  0
  -22.4070  -11.9871   22.4869 H   0  0  0  0  0  0
  -21.1011  -13.1168   22.2615 H   0  0  0  0  0  0
  -24.6425  -15.8469   20.5074 H   0  0  0  0  0  0
  -26.2668  -15.6382   20.0992 H   0  0  0  0  0  0
  -26.7175  -32.5383   23.1090 H   0  0  0  0  0  0
  -25.0044  -33.9683   25.0379 H   0  0  0  0  0  0
  -22.7094  -31.3067   21.4031 H   0  0  0  0  0  0
  -23.3741  -35.9627   23.3311 H   0  0  0  0  0  0
  -24.3586  -36.8905   22.2064 H   0  0  0  0  0  0
  -23.7281  -37.6499   23.6671 H   0  0  0  0  0  0
  -26.0961  -31.5458   20.6124 H   0  0  0  0  0  0
  -26.8328  -30.8181   22.0173 H   0  0  0  0  0  0
  -28.0988  -28.9682   21.1944 H   0  0  0  0  0  0
  -25.9159  -25.9581   18.9575 H   0  0  0  0  0  0
  -23.9565  -27.3242   18.9997 H   0  0  0  0  0  0
  -23.7235  -30.5879   19.4024 H   0  0  0  0  0  0
  -22.7459  -29.2361   19.8768 H   0  0  0  0  0  0
  -25.1319  -36.1892   25.0813 H   0  0  0  0  0  0
  -20.9978  -28.3111   24.1376 H   0  0  0  0  0  0
  -20.5722  -26.2167   23.3258 H   0  0  0  0  0  0
  -21.6580  -26.7530   22.0883 H   0  0  0  0  0  0
  -19.6669  -25.6347   21.1068 H   0  0  0  0  0  0
  -19.6563  -27.3274   20.6575 H   0  0  0  0  0  0
  -17.4129  -26.7240   21.3616 H   0  0  0  0  0  0
  -17.9773  -26.0145   22.8554 H   0  0  0  0  0  0
  -19.8036  -30.7128   24.2402 H   0  0  0  0  0  0
  -17.5132  -31.6319   24.5132 H   0  0  0  0  0  0
  -15.5488  -30.3358   23.7393 H   0  0  0  0  0  0
  -15.8619  -28.1177   22.6770 H   0  0  0  0  0  0
  -24.5845  -30.7135   25.7753 H   0  0  0  0  0  0
  -24.8925  -32.2899   26.4891 H   0  0  0  0  0  0
  -25.7994  -30.8865   27.0214 H   0  0  0  0  0  0
  -26.2959  -29.6780   24.1170 H   0  0  0  0  0  0
  -27.3932  -29.7244   25.4776 H   0  0  0  0  0  0
  -27.8870  -30.4282   23.9556 H   0  0  0  0  0  0
  -27.2592  -33.3597   26.2168 H   0  0  0  0  0  0
  -28.3840  -32.6964   25.0392 H   0  0  0  0  0  0
  -28.0696  -31.8429   26.5443 H   0  0  0  0  0  0
  -28.2594  -38.0081   24.7502 H   0  0  0  0  0  0
  -28.1066  -36.2630   24.6295 H   0  0  0  0  0  0
  -27.2293  -37.1455   25.8856 H   0  0  0  0  0  0
  -20.9221  -29.8703   21.6947 H   0  0  0  0  0  0
  -26.0162  -38.2834   24.1363 H   0  0  0  0  0  0
  -24.9348  -20.8654   22.0797 H   0  0  0  0  0  0
  -26.2290  -19.0361   21.1641 H   0  0  0  0  0  0
  -30.5378  -18.3559   18.6173 H   0  0  0  0  0  0
  -31.3596  -19.1167   19.9726 H   0  0  0  0  0  0
  -32.0734  -17.0326   20.8100 H   0  0  0  0  0  0
  -31.9748  -16.6457   19.0951 H   0  0  0  0  0  0
  -28.4449  -16.4459   19.5867 H   0  0  0  0  0  0
  -28.5379  -16.3893   21.3497 H   0  0  0  0  0  0
  -29.6232  -18.5429   21.4984 H   0  0  0  0  0  0
  -29.6617  -23.5914   22.7996 H   0  0  0  0  0  0
  -30.1326  -25.0245   21.9019 H   0  0  0  0  0  0
  -30.4202  -23.4185   21.2234 H   0  0  0  0  0  0
  -24.2976  -22.5834   23.3637 H   0  0  0  0  0  0
  -23.7330  -22.9793   21.7226 H   0  0  0  0  0  0
  -23.9719  -24.2456   22.9212 H   0  0  0  0  0  0
  -27.4261  -24.7271   19.2903 H   0  0  0  0  0  0
  -29.1225  -24.7862   19.2491 H   0  0  0  0  0  0
  -27.7274  -24.6024   21.8747 H   0  0  0  0  0  0
  -27.7338  -18.6750   19.3816 H   0  0  0  0  0  0
  1 25  1  0  0  0
  1 30  2  0  0  0
  1 85  1  0  0  0
  2  3  1  0  0  0
  2 25  1  0  0  0
  2 88  1  0  0  0
  2 89  1  0  0  0
  3  4  1  0  0  0
  3 90  1  0  0  0
  3 91  1  0  0  0
  4  5  1  0  0  0
  4 92  1  0  0  0
  4 93  1  0  0  0
  5  6  1  0  0  0
  5 26  1  0  0  0
  5 94  1  0  0  0
  6 25  1  0  0  0
  6 95  1  0  0  0
  6 96  1  0  0  0
  7  8  2  0  0  0
  7 26  1  0  0  0
  7 29  1  0  0  0
  8  9  1  0  0  0
  8 22  1  0  0  0
  9 10  1  0  0  0
  9 27  2  0  0  0
 10 11  2  0  0  0
 10 15  1  0  0  0
 11 12  1  0  0  0
 11 97  1  0  0  0
 12 13  2  0  0  0
 12 98  1  0  0  0
 13 14  1  0  0  0
 13 31  1  0  0  0
 14 15  2  0  0  0
 14 99  1  0  0  0
 15100  1  0  0  0
 16 17  2  0  0  0
 16 21  1  0  0  0
 16 31  1  0  0  0
 17 18  1  0  0  0
 17101  1  0  0  0
 18 19  2  0  0  0
 18102  1  0  0  0
 19 20  1  0  0  0
 19 24  1  0  0  0
 20 21  2  0  0  0
 20103  1  0  0  0
 21 23  1  0  0  0
 22 28  1  0  0  0
 22 32  2  0  0  0
 26 27  1  0  0  0
 28104  1  0  0  0
 28105  1  0  0  0
 29106  1  0  0  0
 29107  1  0  0  0
 33 34  1  0  0  0
 33 66  1  0  0  0
 33 70  2  0  0  0
 34 36  1  0  0  0
 34 59  1  0  0  0
 34108  1  0  0  0
 35 44  2  0  0  0
 35 45  1  0  0  0
 35 68  1  0  0  0
 36 56  1  0  0  0
 36109  1  0  0  0
 37 39  1  0  0  0
 37 47  1  0  0  0
 37 66  1  0  0  0
 37110  1  0  0  0
 38 43  2  0  0  0
 38 46  1  0  0  0
 38 47  1  0  0  0
 39 64  1  0  0  0
 39 67  2  0  0  0
 40 52  1  0  0  0
 40 53  2  0  0  0
 40 58  1  0  0  0
 41111  1  0  0  0
 41112  1  0  0  0
 41113  1  0  0  0
 41 48  1  0  0  0
 42 43  1  0  0  0
 42 66  1  0  0  0
 42114  1  0  0  0
 42115  1  0  0  0
 43 44  1  0  0  0
 44116  1  0  0  0
 45 46  2  0  0  0
 45117  1  0  0  0
 46118  1  0  0  0
 47119  1  0  0  0
 47120  1  0  0  0
 48 56  1  0  0  0
 48 65  1  0  0  0
 48121  1  0  0  0
 49 50  1  0  0  0
 49 53  1  0  0  0
 49 64  1  0  0  0
 49122  1  0  0  0
 50 51  1  0  0  0
 50123  1  0  0  0
 50124  1  0  0  0
 51 52  1  0  0  0
 51125  1  0  0  0
 51126  1  0  0  0
 52127  1  0  0  0
 52128  1  0  0  0
 53 54  1  0  0  0
 54 55  2  0  0  0
 54129  1  0  0  0
 55 57  1  0  0  0
 55130  1  0  0  0
 56 69  2  0  0  0
 57 58  2  0  0  0
 57131  1  0  0  0
 58132  1  0  0  0
 59 60  1  0  0  0
 59 61  1  0  0  0
 59 62  1  0  0  0
 60133  1  0  0  0
 60134  1  0  0  0
 60135  1  0  0  0
 61136  1  0  0  0
 61137  1  0  0  0
 61138  1  0  0  0
 62139  1  0  0  0
 62140  1  0  0  0
 62141  1  0  0  0
 63 65  1  0  0  0
 63142  1  0  0  0
 63143  1  0  0  0
 63144  1  0  0  0
 64145  1  0  0  0
 65146  1  0  0  0
 68 82  1  0  0  0
 71 72  2  0  0  0
 71 73  1  0  0  0
 71147  1  0  0  0
 72 75  1  0  0  0
 72148  1  0  0  0
 73 74  2  0  0  0
 73 87  1  0  0  0
 74 83  1  0  0  0
 74 84  1  0  0  0
 75 84  2  0  0  0
 75 86  1  0  0  0
 76 77  1  0  0  0
 76 79  1  0  0  0
 76149  1  0  0  0
 76150  1  0  0  0
 77 85  1  0  0  0
 77151  1  0  0  0
 77152  1  0  0  0
 78 79  1  0  0  0
 78 85  1  0  0  0
 78153  1  0  0  0
 78154  1  0  0  0
 79 86  1  0  0  0
 79155  1  0  0  0
 80156  1  0  0  0
 80157  1  0  0  0
 80158  1  0  0  0
 80 83  1  0  0  0
 81 87  1  0  0  0
 81159  1  0  0  0
 81160  1  0  0  0
 81161  1  0  0  0
 82 83  1  0  0  0
 82162  1  0  0  0
 82163  1  0  0  0
 83164  1  0  0  0
 86165  1  0  0  0
M  ISO  4   1 100  68 101  82 101  85 100
M  END
> <chiral flag>
0

> <version>
0

> <s_m_source_file>
/data/baiqing/PycharmProjects/Reinvent-master-3.2/result/LINK_invent/BTK/process_docking_weight1_custom_sum_contain_oxygen_bond_distance_aromatic_linkinvent_7_9_3/rearranged_h_0155.sdf

> <i_m_source_file_index>
6

> <r_mmod_Potential_Energy-OPLS-2005>
145.479736328125

> <r_mmod_Stretch_Energy-OPLS-2005>
82.8314590454102

> <r_mmod_Bend_Energy-OPLS-2005>
219.608840942383

> <r_mmod_Torsional_Energy-OPLS-2005>
329.476348876953

> <r_mmod_Improper_Torsional_Energy-OPLS-2005>
18.7857913970947

> <r_mmod_Van_der_Waal_Energy-OPLS-2005>
154.076751708984

> <r_mmod_Electrostatic_Energy-OPLS-2005>
-500.641540527344

> <r_mmod_Solvation_Energy-OPLS-2005>
-236.727249145508

> <b_mmod_Minimization_Converged-OPLS-2005>
0

> <r_mmod_RMS_Derivative-OPLS-2005>
5.3203592300415

$$$$
6
                    3D
 Structure written by MMmdl.
180190  0  0  1  0            999 V2000
  -30.6914  -14.4416   20.5941 C   0  0  0  0  0  0
  -30.4318  -12.2992   19.3968 C   0  0  0  0  0  0
  -29.4910  -12.5124   18.1931 C   0  0  0  0  0  0
  -28.0107  -12.3800   18.6066 C   0  0  0  0  0  0
  -27.6667  -13.1871   19.8868 C   0  0  2  0  0  0
  -28.7131  -12.9294   20.9921 C   0  0  0  0  0  0
  -25.2581  -13.7796   20.5650 C   0  0  0  0  0  0
  -24.1823  -13.0217   20.9194 C   0  0  0  0  0  0
  -24.6382  -11.6690   20.8771 C   0  0  0  0  0  0
  -23.9027  -10.4157   21.0425 C   0  0  0  0  0  0
  -24.3566   -9.4084   21.9211 C   0  0  0  0  0  0
  -23.6228   -8.2141   22.0759 C   0  0  0  0  0  0
  -22.4215   -8.0215   21.3547 C   0  0  0  0  0  0
  -21.9863   -9.0175   20.4633 C   0  0  0  0  0  0
  -22.7203  -10.2035   20.3052 C   0  0  0  0  0  0
  -21.6803   -6.0692   22.5280 C   0  0  0  0  0  0
  -21.3984   -6.5605   23.8218 C   0  0  0  0  0  0
  -21.3665   -5.6765   24.9194 C   0  0  0  0  0  0
  -21.6058   -4.3030   24.7247 C   0  0  0  0  0  0
  -21.8819   -3.8112   23.4370 C   0  0  0  0  0  0
  -21.9174   -4.6926   22.3416 C   0  0  0  0  0  0
  -22.7874  -13.5106   21.1857 C   0  0  0  0  0  0
  -22.1642   -4.2111   21.0998 F   0  0  0  0  0  0
  -21.5655   -3.4514   25.7768 F   0  0  0  0  0  0
  -30.0403  -13.2588   20.4404 N   0  0  0  0  0  0
  -26.3077  -12.9048   20.3440 N   0  0  0  0  0  0
  -25.9345  -11.6241   20.5826 N   0  0  0  0  0  0
  -22.0464  -12.8144   22.0399 N   0  0  0  0  0  0
  -25.4213  -15.1362   20.3863 N   0  0  0  0  0  0
  -31.8001  -14.6758   20.1024 O   0  0  0  0  0  0
  -21.6564   -6.8820   21.4250 O   0  0  0  0  0  0
  -22.3637  -14.5482   20.6758 O   0  0  0  0  0  0
  -24.6105  -31.8727   23.2148 C   0  0  0  0  0  0
  -25.9019  -32.4857   23.8439 C   0  0  1  0  0  0
  -27.2515  -27.4627   20.1130 C   0  0  0  0  0  0
  -25.5883  -33.8652   24.2359 N   0  0  0  0  0  0
  -23.3992  -30.4951   21.5486 C   0  0  2  0  0  0
  -24.8493  -28.9580   20.1238 C   0  0  0  0  0  0
  -22.7358  -29.4740   22.4978 C   0  0  0  0  0  0
  -18.0304  -28.1339   22.8483 C   0  0  0  0  0  0
  -24.1480  -36.7326   23.2652 C   0  0  0  0  0  0
  -25.9241  -30.8484   21.3603 C   0  0  0  0  0  0
  -26.0055  -29.4808   20.7161 C   0  0  0  0  0  0
  -27.2083  -28.7434   20.7039 C   0  0  0  0  0  0
  -26.0803  -26.9455   19.5141 C   0  0  0  0  0  0
  -24.8815  -27.6874   19.5220 C   0  0  0  0  0  0
  -23.6078  -29.8212   20.1651 C   0  0  0  0  0  0
  -25.4100  -36.3140   24.0361 C   0  0  1  0  0  0
  -20.5847  -28.3820   23.1373 C   0  0  2  0  0  0
  -20.6851  -26.9538   22.5513 C   0  0  0  0  0  0
  -19.5921  -26.6553   21.5181 C   0  0  0  0  0  0
  -18.2068  -26.7931   22.1556 C   0  0  0  0  0  0
  -19.1475  -28.8916   23.2898 C   0  0  0  0  0  0
  -18.9303  -30.1510   23.8898 C   0  0  0  0  0  0
  -17.6259  -30.6513   24.0519 C   0  0  0  0  0  0
  -25.9021  -34.9511   23.5163 C   0  0  0  0  0  0
  -16.5212  -29.8947   23.6227 C   0  0  0  0  0  0
  -16.7255  -28.6356   23.0292 C   0  0  0  0  0  0
  -26.4456  -31.6612   25.0741 C   0  0  0  0  0  0
  -25.3747  -31.3686   26.1500 C   0  0  0  0  0  0
  -27.0285  -30.3068   24.6096 C   0  0  0  0  0  0
  -27.6038  -32.4339   25.7481 C   0  0  0  0  0  0
  -27.5580  -37.1829   24.8470 C   0  0  0  0  0  0
  -21.4083  -29.3179   22.3761 N   0  0  0  0  0  0
  -26.4285  -37.3818   23.9433 N   0  0  0  0  0  0
  -24.6622  -31.0867   22.1005 N   0  0  0  0  0  0
  -23.4143  -28.8248   23.2981 O   0  0  0  0  0  0
  -28.4517  -26.7882   20.0792 O   0  0  0  0  0  0
  -26.5568  -34.8936   22.4714 O   0  0  0  0  0  0
  -23.5299  -32.1486   23.7546 O   0  0  0  0  0  0
  -29.3104  -19.5614   22.0984 C   0  0  0  0  0  0
  -28.3781  -20.2778   22.8050 C   0  0  0  0  0  0
  -27.1083  -19.7653   22.3822 C   0  0  0  0  0  0
  -27.3328  -18.9442   21.3095 C   0  0  0  0  0  0
  -29.1820  -18.3468   18.3061 C   0  0  0  0  0  0
  -30.3285  -18.5275   19.3011 C   0  0  0  0  0  0
  -28.8728  -17.0834   19.1023 C   0  0  0  0  0  0
  -30.0243  -22.0861   23.5432 C   0  0  0  0  0  0
  -27.5778  -22.3817   24.1406 C   0  0  0  0  0  0
  -29.8572  -23.1542   22.4310 C   0  0  0  0  0  0
  -27.9936  -23.8431   23.9113 C   0  0  0  0  0  0
  -28.7052  -21.3403   23.8606 C   0  0  1  0  0  0
  -29.4885  -17.7661   20.3647 C   0  0  0  0  0  0
  -25.7257  -20.0490   22.9425 C   0  0  0  0  0  0
  -26.2681  -18.3806   20.4387 C   0  0  0  0  0  0
  -30.3176  -16.8279   21.3099 C   0  0  0  0  0  0
  -28.6670  -25.3499   22.0413 C   0  0  0  0  0  0
  -28.4804  -25.4244   20.5093 C   0  0  0  0  0  0
  -28.7063  -18.6946   21.2052 N   0  0  0  0  0  0
  -29.9790  -15.4003   21.2085 N   0  0  0  0  0  0
  -28.5985  -23.9524   22.5624 N   0  3  1  0  0  0
  -31.4707  -12.4221   19.0848 H   0  0  0  0  0  0
  -30.3513  -11.2773   19.7715 H   0  0  0  0  0  0
  -29.7186  -11.7922   17.4078 H   0  0  0  0  0  0
  -29.6608  -13.4989   17.7599 H   0  0  0  0  0  0
  -27.8051  -11.3216   18.7704 H   0  0  0  0  0  0
  -27.3614  -12.6917   17.7868 H   0  0  0  0  0  0
  -27.7173  -14.2429   19.6217 H   0  0  0  0  0  0
  -28.6928  -11.8776   21.2851 H   0  0  0  0  0  0
  -28.4794  -13.4830   21.9022 H   0  0  0  0  0  0
  -25.2707   -9.5569   22.4788 H   0  0  0  0  0  0
  -23.9919   -7.4529   22.7476 H   0  0  0  0  0  0
  -21.0804   -8.8724   19.8908 H   0  0  0  0  0  0
  -22.3708  -10.9601   19.6156 H   0  0  0  0  0  0
  -21.1948   -7.6100   23.9730 H   0  0  0  0  0  0
  -21.1498   -6.0481   25.9100 H   0  0  0  0  0  0
  -22.0590   -2.7574   23.2885 H   0  0  0  0  0  0
  -22.3976  -11.9741   22.4746 H   0  0  0  0  0  0
  -21.1111  -13.1266   22.2622 H   0  0  0  0  0  0
  -24.6739  -15.7966   20.5555 H   0  0  0  0  0  0
  -26.2907  -15.5675   20.1111 H   0  0  0  0  0  0
  -26.7101  -32.5569   23.1218 H   0  0  0  0  0  0
  -25.0040  -33.9800   25.0506 H   0  0  0  0  0  0
  -22.6889  -31.3121   21.4055 H   0  0  0  0  0  0
  -23.3742  -35.9655   23.3325 H   0  0  0  0  0  0
  -24.3569  -36.8916   22.2059 H   0  0  0  0  0  0
  -23.7198  -37.6532   23.6624 H   0  0  0  0  0  0
  -26.0296  -31.6133   20.5895 H   0  0  0  0  0  0
  -26.8121  -30.9049   21.9788 H   0  0  0  0  0  0
  -28.1044  -29.1520   21.1509 H   0  0  0  0  0  0
  -26.0871  -25.9814   19.0223 H   0  0  0  0  0  0
  -23.9960  -27.2785   19.0552 H   0  0  0  0  0  0
  -23.7139  -30.5955   19.4035 H   0  0  0  0  0  0
  -22.7353  -29.2341   19.8712 H   0  0  0  0  0  0
  -25.1272  -36.2045   25.0849 H   0  0  0  0  0  0
  -20.9872  -28.3484   24.1502 H   0  0  0  0  0  0
  -20.5716  -26.2443   23.3715 H   0  0  0  0  0  0
  -21.6755  -26.7632   22.1398 H   0  0  0  0  0  0
  -19.7225  -25.6540   21.1052 H   0  0  0  0  0  0
  -19.6884  -27.3474   20.6821 H   0  0  0  0  0  0
  -17.4384  -26.6681   21.3922 H   0  0  0  0  0  0
  -18.0462  -26.0036   22.8898 H   0  0  0  0  0  0
  -19.7736  -30.7394   24.2265 H   0  0  0  0  0  0
  -17.4680  -31.6152   24.5148 H   0  0  0  0  0  0
  -15.5161  -30.2733   23.7475 H   0  0  0  0  0  0
  -15.8718  -28.0587   22.6973 H   0  0  0  0  0  0
  -24.5935  -30.7023   25.7825 H   0  0  0  0  0  0
  -24.8936  -32.2821   26.5008 H   0  0  0  0  0  0
  -25.8149  -30.8821   27.0210 H   0  0  0  0  0  0
  -26.2809  -29.6841   24.1185 H   0  0  0  0  0  0
  -27.4078  -29.7315   25.4540 H   0  0  0  0  0  0
  -27.8631  -30.4386   23.9213 H   0  0  0  0  0  0
  -27.2662  -33.3628   26.2100 H   0  0  0  0  0  0
  -28.3823  -32.6939   25.0286 H   0  0  0  0  0  0
  -28.0745  -31.8450   26.5368 H   0  0  0  0  0  0
  -28.2629  -38.0104   24.7519 H   0  0  0  0  0  0
  -28.1045  -36.2639   24.6299 H   0  0  0  0  0  0
  -27.2299  -37.1497   25.8872 H   0  0  0  0  0  0
  -20.9212  -29.8998   21.7096 H   0  0  0  0  0  0
  -26.0202  -38.2907   24.1422 H   0  0  0  0  0  0
  -30.3887  -19.5787   22.1526 H   0  0  0  0  0  0
  -29.4615  -18.1855   17.2625 H   0  0  0  0  0  0
  -28.4143  -19.1149   18.3982 H   0  0  0  0  0  0
  -30.5660  -19.5695   19.5332 H   0  0  0  0  0  0
  -31.2250  -17.9885   18.9856 H   0  0  0  0  0  0
  -29.4734  -16.2553   18.7154 H   0  0  0  0  0  0
  -27.8364  -16.7653   19.1474 H   0  0  0  0  0  0
  -30.3578  -22.5841   24.4525 H   0  0  0  0  0  0
  -30.8401  -21.4015   23.3125 H   0  0  0  0  0  0
  -26.7390  -22.2362   23.4709 H   0  0  0  0  0  0
  -27.1825  -22.2574   25.1508 H   0  0  0  0  0  0
  -29.8541  -22.6724   21.4537 H   0  0  0  0  0  0
  -30.7319  -23.8055   22.4479 H   0  0  0  0  0  0
  -28.6868  -24.1906   24.6771 H   0  0  0  0  0  0
  -27.1071  -24.4748   23.9918 H   0  0  0  0  0  0
  -28.8656  -20.7830   24.7850 H   0  0  0  0  0  0
  -25.7674  -20.2946   24.0030 H   0  0  0  0  0  0
  -25.0802  -19.1712   22.8568 H   0  0  0  0  0  0
  -25.2494  -20.8657   22.3980 H   0  0  0  0  0  0
  -25.3369  -18.9406   20.5304 H   0  0  0  0  0  0
  -26.0590  -17.3798   20.7696 H   0  0  0  0  0  0
  -26.5180  -18.3936   19.3824 H   0  0  0  0  0  0
  -31.3876  -16.9666   21.1367 H   0  0  0  0  0  0
  -30.1873  -17.0857   22.3628 H   0  0  0  0  0  0
  -27.8750  -25.9446   22.4987 H   0  0  0  0  0  0
  -29.6022  -25.8241   22.3407 H   0  0  0  0  0  0
  -27.5901  -24.8770   20.2041 H   0  0  0  0  0  0
  -29.3191  -24.9331   20.0125 H   0  0  0  0  0  0
  -29.0930  -15.1204   21.5955 H   0  0  0  0  0  0
  -27.9275  -23.4763   21.9756 H   0  0  0  0  0  0
  1 25  1  0  0  0
  1 30  2  0  0  0
  1 90  1  0  0  0
  2  3  1  0  0  0
  2 25  1  0  0  0
  2 92  1  0  0  0
  2 93  1  0  0  0
  3  4  1  0  0  0
  3 94  1  0  0  0
  3 95  1  0  0  0
  4  5  1  0  0  0
  4 96  1  0  0  0
  4 97  1  0  0  0
  5  6  1  0  0  0
  5 26  1  0  0  0
  5 98  1  0  0  0
  6 25  1  0  0  0
  6 99  1  0  0  0
  6100  1  0  0  0
  7  8  2  0  0  0
  7 26  1  0  0  0
  7 29  1  0  0  0
  8  9  1  0  0  0
  8 22  1  0  0  0
  9 10  1  0  0  0
  9 27  2  0  0  0
 10 11  2  0  0  0
 10 15  1  0  0  0
 11 12  1  0  0  0
 11101  1  0  0  0
 12 13  2  0  0  0
 12102  1  0  0  0
 13 14  1  0  0  0
 13 31  1  0  0  0
 14 15  2  0  0  0
 14103  1  0  0  0
 15104  1  0  0  0
 16 17  2  0  0  0
 16 21  1  0  0  0
 16 31  1  0  0  0
 17 18  1  0  0  0
 17105  1  0  0  0
 18 19  2  0  0  0
 18106  1  0  0  0
 19 20  1  0  0  0
 19 24  1  0  0  0
 20 21  2  0  0  0
 20107  1  0  0  0
 21 23  1  0  0  0
 22 28  1  0  0  0
 22 32  2  0  0  0
 26 27  1  0  0  0
 28108  1  0  0  0
 28109  1  0  0  0
 29110  1  0  0  0
 29111  1  0  0  0
 33 34  1  0  0  0
 33 66  1  0  0  0
 33 70  2  0  0  0
 34 36  1  0  0  0
 34 59  1  0  0  0
 34112  1  0  0  0
 35 44  2  0  0  0
 35 45  1  0  0  0
 35 68  1  0  0  0
 36 56  1  0  0  0
 36113  1  0  0  0
 37 39  1  0  0  0
 37 47  1  0  0  0
 37 66  1  0  0  0
 37114  1  0  0  0
 38 43  2  0  0  0
 38 46  1  0  0  0
 38 47  1  0  0  0
 39 64  1  0  0  0
 39 67  2  0  0  0
 40 52  1  0  0  0
 40 53  2  0  0  0
 40 58  1  0  0  0
 41115  1  0  0  0
 41116  1  0  0  0
 41117  1  0  0  0
 41 48  1  0  0  0
 42 43  1  0  0  0
 42 66  1  0  0  0
 42118  1  0  0  0
 42119  1  0  0  0
 43 44  1  0  0  0
 44120  1  0  0  0
 45 46  2  0  0  0
 45121  1  0  0  0
 46122  1  0  0  0
 47123  1  0  0  0
 47124  1  0  0  0
 48 56  1  0  0  0
 48 65  1  0  0  0
 48125  1  0  0  0
 49 50  1  0  0  0
 49 53  1  0  0  0
 49 64  1  0  0  0
 49126  1  0  0  0
 50 51  1  0  0  0
 50127  1  0  0  0
 50128  1  0  0  0
 51 52  1  0  0  0
 51129  1  0  0  0
 51130  1  0  0  0
 52131  1  0  0  0
 52132  1  0  0  0
 53 54  1  0  0  0
 54 55  2  0  0  0
 54133  1  0  0  0
 55 57  1  0  0  0
 55134  1  0  0  0
 56 69  2  0  0  0
 57 58  2  0  0  0
 57135  1  0  0  0
 58136  1  0  0  0
 59 60  1  0  0  0
 59 61  1  0  0  0
 59 62  1  0  0  0
 60137  1  0  0  0
 60138  1  0  0  0
 60139  1  0  0  0
 61140  1  0  0  0
 61141  1  0  0  0
 61142  1  0  0  0
 62143  1  0  0  0
 62144  1  0  0  0
 62145  1  0  0  0
 63 65  1  0  0  0
 63146  1  0  0  0
 63147  1  0  0  0
 63148  1  0  0  0
 64149  1  0  0  0
 65150  1  0  0  0
 68 88  1  0  0  0
 71 72  2  0  0  0
 71 89  1  0  0  0
 71151  1  0  0  0
 72 73  1  0  0  0
 72 82  1  0  0  0
 73 74  2  0  0  0
 73 84  1  0  0  0
 74 85  1  0  0  0
 74 89  1  0  0  0
 75 76  1  0  0  0
 75 77  1  0  0  0
 75152  1  0  0  0
 75153  1  0  0  0
 76 83  1  0  0  0
 76154  1  0  0  0
 76155  1  0  0  0
 77 83  1  0  0  0
 77156  1  0  0  0
 77157  1  0  0  0
 78 80  1  0  0  0
 78 82  1  0  0  0
 78158  1  0  0  0
 78159  1  0  0  0
 79 81  1  0  0  0
 79 82  1  0  0  0
 79160  1  0  0  0
 79161  1  0  0  0
 80 91  1  0  0  0
 80162  1  0  0  0
 80163  1  0  0  0
 81 91  1  0  0  0
 81164  1  0  0  0
 81165  1  0  0  0
 82166  1  0  0  0
 83 86  1  0  0  0
 83 89  1  0  0  0
 84167  1  0  0  0
 84168  1  0  0  0
 84169  1  0  0  0
 85170  1  0  0  0
 85171  1  0  0  0
 85172  1  0  0  0
 86 90  1  0  0  0
 86173  1  0  0  0
 86174  1  0  0  0
 87 88  1  0  0  0
 87175  1  0  0  0
 87176  1  0  0  0
 87 91  1  0  0  0
 88177  1  0  0  0
 88178  1  0  0  0
 90179  1  0  0  0
 91180  1  0  0  0
M  CHG  1  91   1
M  ISO  4   1 100  68 101  88 101  90 100
M  END
> <chiral flag>
0

> <version>
0

> <s_m_source_file>
/data/baiqing/PycharmProjects/Reinvent-master-3.2/result/LINK_invent/BTK/process_docking_weight1_custom_sum_contain_oxygen_bond_distance_aromatic_linkinvent_7_9_3/rearranged_h_0155.sdf

> <i_m_source_file_index>
7

> <r_mmod_Potential_Energy-OPLS-2005>
-32.5306053161621

> <r_mmod_Stretch_Energy-OPLS-2005>
45.7707138061523

> <r_mmod_Bend_Energy-OPLS-2005>
158.201522827148

> <r_mmod_Torsional_Energy-OPLS-2005>
351.068603515625

> <r_mmod_Improper_Torsional_Energy-OPLS-2005>
3.39903402328491

> <r_mmod_Van_der_Waal_Energy-OPLS-2005>
161.613189697266

> <r_mmod_Electrostatic_Energy-OPLS-2005>
-362.873016357422

> <r_mmod_Solvation_Energy-OPLS-2005>
-400.235107421875

> <b_mmod_Minimization_Converged-OPLS-2005>
0

> <r_mmod_RMS_Derivative-OPLS-2005>
5.28616619110107

$$$$
7
                    3D
 Structure written by MMmdl.
162171  0  0  1  0            999 V2000
  -30.6226  -14.7949   20.4551 C   0  0  0  0  0  0
  -30.4219  -12.4927   19.4835 C   0  0  0  0  0  0
  -29.5072  -12.5131   18.2406 C   0  0  0  0  0  0
  -28.0358  -12.3299   18.6560 C   0  0  0  0  0  0
  -27.6333  -13.2413   19.8466 C   0  0  2  0  0  0
  -28.6766  -13.2088   20.9825 C   0  0  0  0  0  0
  -25.2474  -13.8200   20.5704 C   0  0  0  0  0  0
  -24.1776  -13.0437   20.9227 C   0  0  0  0  0  0
  -24.6375  -11.6916   20.8753 C   0  0  0  0  0  0
  -23.9053  -10.4291   21.0412 C   0  0  0  0  0  0
  -24.3603   -9.4208   21.9190 C   0  0  0  0  0  0
  -23.6285   -8.2233   22.0748 C   0  0  0  0  0  0
  -22.4267   -8.0274   21.3536 C   0  0  0  0  0  0
  -21.9906   -9.0246   20.4649 C   0  0  0  0  0  0
  -22.7229  -10.2125   20.3061 C   0  0  0  0  0  0
  -21.6855   -6.0734   22.5276 C   0  0  0  0  0  0
  -21.4018   -6.5634   23.8211 C   0  0  0  0  0  0
  -21.3658   -5.6776   24.9167 C   0  0  0  0  0  0
  -21.6044   -4.3043   24.7223 C   0  0  0  0  0  0
  -21.8820   -3.8144   23.4340 C   0  0  0  0  0  0
  -21.9196   -4.6963   22.3402 C   0  0  0  0  0  0
  -22.7806  -13.5232   21.1881 C   0  0  0  0  0  0
  -22.1673   -4.2142   21.0984 F   0  0  0  0  0  0
  -21.5621   -3.4533   25.7739 F   0  0  0  0  0  0
  -29.9634  -13.5797   20.3865 N   0  0  0  0  0  0
  -26.2894  -12.9430   20.3274 N   0  0  0  0  0  0
  -25.9313  -11.6564   20.5753 N   0  0  0  0  0  0
  -22.0423  -12.8240   22.0422 N   0  0  0  0  0  0
  -25.4146  -15.1916   20.4106 N   0  0  0  0  0  0
  -31.8236  -14.8058   20.1640 O   0  0  0  0  0  0
  -21.6630   -6.8876   21.4239 O   0  0  0  0  0  0
  -22.3516  -14.5554   20.6734 O   0  0  0  0  0  0
  -24.6341  -31.8517   23.1947 C   0  0  0  0  0  0
  -25.9150  -32.4736   23.8310 C   0  0  1  0  0  0
  -27.2166  -27.2348   20.1460 C   0  0  0  0  0  0
  -25.5924  -33.8536   24.2221 N   0  0  0  0  0  0
  -23.4328  -30.4733   21.5375 C   0  0  2  0  0  0
  -24.8832  -28.9121   20.1122 C   0  0  0  0  0  0
  -22.7515  -29.4593   22.4889 C   0  0  0  0  0  0
  -18.0291  -28.1390   22.8483 C   0  0  0  0  0  0
  -24.1478  -36.7273   23.2636 C   0  0  0  0  0  0
  -25.9813  -30.7570   21.3788 C   0  0  0  0  0  0
  -26.0562  -29.3758   20.7249 C   0  0  0  0  0  0
  -27.2307  -28.5501   20.7297 C   0  0  0  0  0  0
  -26.0260  -26.8442   19.5027 C   0  0  0  0  0  0
  -24.8736  -27.6542   19.4891 C   0  0  0  0  0  0
  -23.6543  -29.8014   20.1565 C   0  0  0  0  0  0
  -25.4099  -36.3054   24.0323 C   0  0  1  0  0  0
  -20.5901  -28.3703   23.1256 C   0  0  2  0  0  0
  -20.6771  -26.9415   22.5409 C   0  0  0  0  0  0
  -19.5748  -26.6381   21.5210 C   0  0  0  0  0  0
  -18.1930  -26.7931   22.1624 C   0  0  0  0  0  0
  -19.1549  -28.8858   23.2864 C   0  0  0  0  0  0
  -18.9472  -30.1457   23.8885 C   0  0  0  0  0  0
  -17.6474  -30.6589   24.0559 C   0  0  0  0  0  0
  -25.9056  -34.9434   23.5082 C   0  0  0  0  0  0
  -16.5364  -29.9088   23.6337 C   0  0  0  0  0  0
  -16.7279  -28.6507   23.0354 C   0  0  0  0  0  0
  -26.4496  -31.6575   25.0719 C   0  0  0  0  0  0
  -25.3702  -31.3770   26.1431 C   0  0  0  0  0  0
  -27.0327  -30.2968   24.6257 C   0  0  0  0  0  0
  -27.6039  -32.4325   25.7497 C   0  0  0  0  0  0
  -27.5587  -37.1756   24.8438 C   0  0  0  0  0  0
  -21.4217  -29.3041   22.3629 N   0  0  0  0  0  0
  -26.4260  -37.3773   23.9451 N   0  0  0  0  0  0
  -24.7018  -31.0465   22.0931 N   0  0  0  0  0  0
  -23.4204  -28.8137   23.3003 O   0  0  0  0  0  0
  -28.2599  -26.2742   20.1750 O   0  0  0  0  0  0
  -26.5650  -34.8926   22.4666 O   0  0  0  0  0  0
  -23.5478  -32.1344   23.7222 O   0  0  0  0  0  0
  -29.4677  -22.9911   20.0449 C   0  0  0  0  0  0
  -29.7609  -21.5741   19.9410 C   0  0  0  0  0  0
  -27.8121  -21.0702   21.1807 C   0  0  0  0  0  0
  -28.3258  -23.5167   20.7261 C   0  0  0  0  0  0
  -27.5042  -22.4741   21.2877 C   0  0  0  0  0  0
  -28.9559  -20.5368   20.5205 C   0  0  0  0  0  0
  -30.3532  -18.5354   19.6843 C   0  0  0  0  0  0
  -28.9481  -18.1781   21.5892 C   0  0  0  0  0  0
  -30.1999  -17.0101   19.2845 C   0  0  0  0  0  0
  -28.9211  -16.5975   21.3087 C   0  0  0  0  0  0
  -26.2497  -22.8305   22.0750 C   0  0  0  0  0  0
  -28.8146  -25.4416   22.3568 C   0  0  0  0  0  0
  -28.0476  -25.0827   21.0760 C   0  0  1  0  0  0
  -29.2231  -19.0890   20.4471 N   0  0  0  0  0  0
  -29.9101  -16.0072   20.3579 N   0  0  0  0  0  0
  -31.4638  -12.6070   19.1781 H   0  0  0  0  0  0
  -30.3701  -11.5276   19.9888 H   0  0  0  0  0  0
  -29.8029  -11.7295   17.5419 H   0  0  0  0  0  0
  -29.6240  -13.4605   17.7121 H   0  0  0  0  0  0
  -27.8986  -11.2842   18.9334 H   0  0  0  0  0  0
  -27.3764  -12.5047   17.8059 H   0  0  0  0  0  0
  -27.6176  -14.2568   19.4505 H   0  0  0  0  0  0
  -28.7297  -12.2192   21.4384 H   0  0  0  0  0  0
  -28.3983  -13.8971   21.7802 H   0  0  0  0  0  0
  -25.2734   -9.5708   22.4776 H   0  0  0  0  0  0
  -23.9999   -7.4635   22.7470 H   0  0  0  0  0  0
  -21.0823   -8.8770   19.8965 H   0  0  0  0  0  0
  -22.3675  -10.9666   19.6177 H   0  0  0  0  0  0
  -21.2007   -7.6135   23.9729 H   0  0  0  0  0  0
  -21.1483   -6.0490   25.9072 H   0  0  0  0  0  0
  -22.0608   -2.7611   23.2826 H   0  0  0  0  0  0
  -22.4019  -11.9893   22.4807 H   0  0  0  0  0  0
  -21.1063  -13.1328   22.2645 H   0  0  0  0  0  0
  -24.6443  -15.8425   20.5195 H   0  0  0  0  0  0
  -26.2566  -15.6294   20.0606 H   0  0  0  0  0  0
  -26.7222  -32.5379   23.1049 H   0  0  0  0  0  0
  -25.0007  -33.9654   25.0327 H   0  0  0  0  0  0
  -22.7310  -31.2957   21.3862 H   0  0  0  0  0  0
  -23.3769  -35.9572   23.3211 H   0  0  0  0  0  0
  -24.3589  -36.8991   22.2072 H   0  0  0  0  0  0
  -23.7183  -37.6425   23.6721 H   0  0  0  0  0  0
  -26.1221  -31.5142   20.6059 H   0  0  0  0  0  0
  -26.8590  -30.8097   22.0122 H   0  0  0  0  0  0
  -28.1277  -28.8955   21.2237 H   0  0  0  0  0  0
  -25.9781  -25.8699   19.0366 H   0  0  0  0  0  0
  -23.9752  -27.2903   19.0091 H   0  0  0  0  0  0
  -23.7791  -30.5726   19.3960 H   0  0  0  0  0  0
  -22.7737  -29.2318   19.8531 H   0  0  0  0  0  0
  -25.1270  -36.1870   25.0808 H   0  0  0  0  0  0
  -21.0003  -28.3292   24.1374 H   0  0  0  0  0  0
  -20.5658  -26.2320   23.3621 H   0  0  0  0  0  0
  -21.6641  -26.7413   22.1216 H   0  0  0  0  0  0
  -19.6908  -25.6285   21.1247 H   0  0  0  0  0  0
  -19.6690  -27.3182   20.6732 H   0  0  0  0  0  0
  -17.4200  -26.6673   21.4026 H   0  0  0  0  0  0
  -18.0332  -26.0077   22.9026 H   0  0  0  0  0  0
  -19.7946  -30.7267   24.2263 H   0  0  0  0  0  0
  -17.5029  -31.6267   24.5163 H   0  0  0  0  0  0
  -15.5363  -30.2985   23.7665 H   0  0  0  0  0  0
  -15.8680  -28.0822   22.7078 H   0  0  0  0  0  0
  -24.5859  -30.7137   25.7765 H   0  0  0  0  0  0
  -24.8909  -32.2959   26.4819 H   0  0  0  0  0  0
  -25.7995  -30.8965   27.0232 H   0  0  0  0  0  0
  -26.2915  -29.6718   24.1262 H   0  0  0  0  0  0
  -27.3932  -29.7243   25.4815 H   0  0  0  0  0  0
  -27.8832  -30.4186   23.9547 H   0  0  0  0  0  0
  -27.2632  -33.3625   26.2060 H   0  0  0  0  0  0
  -28.3860  -32.6893   25.0343 H   0  0  0  0  0  0
  -28.0697  -31.8464   26.5428 H   0  0  0  0  0  0
  -28.2509  -38.0151   24.7633 H   0  0  0  0  0  0
  -28.1177  -36.2691   24.6052 H   0  0  0  0  0  0
  -27.2345  -37.1149   25.8845 H   0  0  0  0  0  0
  -20.9413  -29.8747   21.6810 H   0  0  0  0  0  0
  -26.0119  -38.2821   24.1557 H   0  0  0  0  0  0
  -30.1672  -23.6913   19.6116 H   0  0  0  0  0  0
  -30.6622  -21.2969   19.4143 H   0  0  0  0  0  0
  -27.1225  -20.3730   21.6323 H   0  0  0  0  0  0
  -30.4852  -19.1169   18.7701 H   0  0  0  0  0  0
  -31.2661  -18.6684   20.2664 H   0  0  0  0  0  0
  -29.7194  -18.3723   22.3367 H   0  0  0  0  0  0
  -28.0097  -18.4537   22.0700 H   0  0  0  0  0  0
  -31.0883  -16.7173   18.7245 H   0  0  0  0  0  0
  -29.3824  -16.9286   18.5664 H   0  0  0  0  0  0
  -27.9390  -16.3489   20.9102 H   0  0  0  0  0  0
  -28.9869  -16.0776   22.2656 H   0  0  0  0  0  0
  -25.7479  -21.9454   22.4673 H   0  0  0  0  0  0
  -25.5330  -23.3516   21.4402 H   0  0  0  0  0  0
  -26.4880  -23.4664   22.9277 H   0  0  0  0  0  0
  -28.5577  -24.7683   23.1748 H   0  0  0  0  0  0
  -28.5855  -26.4551   22.6875 H   0  0  0  0  0  0
  -29.8916  -25.3778   22.2000 H   0  0  0  0  0  0
  -26.9938  -25.1316   21.3439 H   0  0  0  0  0  0
  1 25  1  0  0  0
  1 30  2  0  0  0
  1 85  1  0  0  0
  2  3  1  0  0  0
  2 25  1  0  0  0
  2 86  1  0  0  0
  2 87  1  0  0  0
  3  4  1  0  0  0
  3 88  1  0  0  0
  3 89  1  0  0  0
  4  5  1  0  0  0
  4 90  1  0  0  0
  4 91  1  0  0  0
  5  6  1  0  0  0
  5 26  1  0  0  0
  5 92  1  0  0  0
  6 25  1  0  0  0
  6 93  1  0  0  0
  6 94  1  0  0  0
  7  8  2  0  0  0
  7 26  1  0  0  0
  7 29  1  0  0  0
  8  9  1  0  0  0
  8 22  1  0  0  0
  9 10  1  0  0  0
  9 27  2  0  0  0
 10 11  2  0  0  0
 10 15  1  0  0  0
 11 12  1  0  0  0
 11 95  1  0  0  0
 12 13  2  0  0  0
 12 96  1  0  0  0
 13 14  1  0  0  0
 13 31  1  0  0  0
 14 15  2  0  0  0
 14 97  1  0  0  0
 15 98  1  0  0  0
 16 17  2  0  0  0
 16 21  1  0  0  0
 16 31  1  0  0  0
 17 18  1  0  0  0
 17 99  1  0  0  0
 18 19  2  0  0  0
 18100  1  0  0  0
 19 20  1  0  0  0
 19 24  1  0  0  0
 20 21  2  0  0  0
 20101  1  0  0  0
 21 23  1  0  0  0
 22 28  1  0  0  0
 22 32  2  0  0  0
 26 27  1  0  0  0
 28102  1  0  0  0
 28103  1  0  0  0
 29104  1  0  0  0
 29105  1  0  0  0
 33 34  1  0  0  0
 33 66  1  0  0  0
 33 70  2  0  0  0
 34 36  1  0  0  0
 34 59  1  0  0  0
 34106  1  0  0  0
 35 44  2  0  0  0
 35 45  1  0  0  0
 35 68  1  0  0  0
 36 56  1  0  0  0
 36107  1  0  0  0
 37 39  1  0  0  0
 37 47  1  0  0  0
 37 66  1  0  0  0
 37108  1  0  0  0
 38 43  2  0  0  0
 38 46  1  0  0  0
 38 47  1  0  0  0
 39 64  1  0  0  0
 39 67  2  0  0  0
 40 52  1  0  0  0
 40 53  2  0  0  0
 40 58  1  0  0  0
 41109  1  0  0  0
 41110  1  0  0  0
 41111  1  0  0  0
 41 48  1  0  0  0
 42 43  1  0  0  0
 42 66  1  0  0  0
 42112  1  0  0  0
 42113  1  0  0  0
 43 44  1  0  0  0
 44114  1  0  0  0
 45 46  2  0  0  0
 45115  1  0  0  0
 46116  1  0  0  0
 47117  1  0  0  0
 47118  1  0  0  0
 48 56  1  0  0  0
 48 65  1  0  0  0
 48119  1  0  0  0
 49 50  1  0  0  0
 49 53  1  0  0  0
 49 64  1  0  0  0
 49120  1  0  0  0
 50 51  1  0  0  0
 50121  1  0  0  0
 50122  1  0  0  0
 51 52  1  0  0  0
 51123  1  0  0  0
 51124  1  0  0  0
 52125  1  0  0  0
 52126  1  0  0  0
 53 54  1  0  0  0
 54 55  2  0  0  0
 54127  1  0  0  0
 55 57  1  0  0  0
 55128  1  0  0  0
 56 69  2  0  0  0
 57 58  2  0  0  0
 57129  1  0  0  0
 58130  1  0  0  0
 59 60  1  0  0  0
 59 61  1  0  0  0
 59 62  1  0  0  0
 60131  1  0  0  0
 60132  1  0  0  0
 60133  1  0  0  0
 61134  1  0  0  0
 61135  1  0  0  0
 61136  1  0  0  0
 62137  1  0  0  0
 62138  1  0  0  0
 62139  1  0  0  0
 63 65  1  0  0  0
 63140  1  0  0  0
 63141  1  0  0  0
 63142  1  0  0  0
 64143  1  0  0  0
 65144  1  0  0  0
 68 83  1  0  0  0
 71 72  2  0  0  0
 71 74  1  0  0  0
 71145  1  0  0  0
 72 76  1  0  0  0
 72146  1  0  0  0
 73 75  1  0  0  0
 73 76  2  0  0  0
 73147  1  0  0  0
 74 75  2  0  0  0
 74 83  1  0  0  0
 75 81  1  0  0  0
 76 84  1  0  0  0
 77 79  1  0  0  0
 77 84  1  0  0  0
 77148  1  0  0  0
 77149  1  0  0  0
 78 80  1  0  0  0
 78 84  1  0  0  0
 78150  1  0  0  0
 78151  1  0  0  0
 79 85  1  0  0  0
 79152  1  0  0  0
 79153  1  0  0  0
 80 85  1  0  0  0
 80154  1  0  0  0
 80155  1  0  0  0
 81156  1  0  0  0
 81157  1  0  0  0
 81158  1  0  0  0
 82159  1  0  0  0
 82160  1  0  0  0
 82161  1  0  0  0
 82 83  1  0  0  0
 83162  1  0  0  0
M  ISO  4   1 100  68 101  83 101  85 100
M  END
> <chiral flag>
0

> <version>
0

> <s_m_source_file>
/data/baiqing/PycharmProjects/Reinvent-master-3.2/result/LINK_invent/BTK/process_docking_weight1_custom_sum_contain_oxygen_bond_distance_aromatic_linkinvent_7_9_3/rearranged_h_0155.sdf

> <i_m_source_file_index>
8

> <r_mmod_Potential_Energy-OPLS-2005>
449.439514160156

> <r_mmod_Stretch_Energy-OPLS-2005>
139.027938842773

> <r_mmod_Bend_Energy-OPLS-2005>
217.041458129883

> <r_mmod_Torsional_Energy-OPLS-2005>
370.351776123047

> <r_mmod_Improper_Torsional_Energy-OPLS-2005>
19.3373222351074

> <r_mmod_Van_der_Waal_Energy-OPLS-2005>
141.240432739258

> <r_mmod_Electrostatic_Energy-OPLS-2005>
-337.381378173828

> <r_mmod_Solvation_Energy-OPLS-2005>
-210.90380859375

> <b_mmod_Minimization_Converged-OPLS-2005>
0

> <r_mmod_RMS_Derivative-OPLS-2005>
1.89467203617096

$$$$
8
                    3D
 Structure written by MMmdl.
175186  0  0  1  0            999 V2000
  -30.7007  -14.4775   20.5890 C   0  0  0  0  0  0
  -30.4230  -12.3122   19.4292 C   0  0  0  0  0  0
  -29.4977  -12.5080   18.2105 C   0  0  0  0  0  0
  -28.0182  -12.3669   18.6199 C   0  0  0  0  0  0
  -27.6616  -13.2070   19.8759 C   0  0  2  0  0  0
  -28.7004  -12.9886   20.9977 C   0  0  0  0  0  0
  -25.2600  -13.8166   20.5683 C   0  0  0  0  0  0
  -24.1840  -13.0443   20.9163 C   0  0  0  0  0  0
  -24.6395  -11.6907   20.8723 C   0  0  0  0  0  0
  -23.9068  -10.4290   21.0401 C   0  0  0  0  0  0
  -24.3618   -9.4205   21.9179 C   0  0  0  0  0  0
  -23.6296   -8.2234   22.0757 C   0  0  0  0  0  0
  -22.4275   -8.0273   21.3546 C   0  0  0  0  0  0
  -21.9908   -9.0245   20.4641 C   0  0  0  0  0  0
  -22.7236  -10.2123   20.3051 C   0  0  0  0  0  0
  -21.6857   -6.0734   22.5282 C   0  0  0  0  0  0
  -21.4005   -6.5640   23.8217 C   0  0  0  0  0  0
  -21.3657   -5.6789   24.9174 C   0  0  0  0  0  0
  -21.6052   -4.3054   24.7222 C   0  0  0  0  0  0
  -21.8820   -3.8146   23.4346 C   0  0  0  0  0  0
  -21.9188   -4.6963   22.3400 C   0  0  0  0  0  0
  -22.7859  -13.5243   21.1841 C   0  0  0  0  0  0
  -22.1658   -4.2154   21.0981 F   0  0  0  0  0  0
  -21.5635   -3.4542   25.7730 F   0  0  0  0  0  0
  -30.0301  -13.3002   20.4486 N   0  0  0  0  0  0
  -26.3031  -12.9331   20.3367 N   0  0  0  0  0  0
  -25.9327  -11.6490   20.5763 N   0  0  0  0  0  0
  -22.0505  -12.8216   22.0380 N   0  0  0  0  0  0
  -25.4329  -15.1885   20.4101 N   0  0  0  0  0  0
  -31.8282  -14.6506   20.1118 O   0  0  0  0  0  0
  -21.6642   -6.8869   21.4242 O   0  0  0  0  0  0
  -22.3524  -14.5545   20.6691 O   0  0  0  0  0  0
  -24.6149  -31.8672   23.2122 C   0  0  0  0  0  0
  -25.9035  -32.4826   23.8410 C   0  0  1  0  0  0
  -27.2261  -27.4286   20.0995 C   0  0  0  0  0  0
  -25.5910  -33.8627   24.2343 N   0  0  0  0  0  0
  -23.4030  -30.4907   21.5534 C   0  0  2  0  0  0
  -24.8493  -28.9556   20.1172 C   0  0  0  0  0  0
  -22.7420  -29.4636   22.5002 C   0  0  0  0  0  0
  -18.0270  -28.1405   22.8456 C   0  0  0  0  0  0
  -24.1492  -36.7297   23.2639 C   0  0  0  0  0  0
  -25.9327  -30.8268   21.3712 C   0  0  0  0  0  0
  -26.0070  -29.4579   20.7243 C   0  0  0  0  0  0
  -27.2000  -28.6979   20.7202 C   0  0  0  0  0  0
  -26.0585  -26.9431   19.4777 C   0  0  0  0  0  0
  -24.8681  -27.6962   19.4932 C   0  0  0  0  0  0
  -23.6119  -29.8250   20.1671 C   0  0  0  0  0  0
  -25.4107  -36.3115   24.0352 C   0  0  1  0  0  0
  -20.5850  -28.3645   23.1344 C   0  0  2  0  0  0
  -20.6775  -26.9380   22.5440 C   0  0  0  0  0  0
  -19.5777  -26.6371   21.5227 C   0  0  0  0  0  0
  -18.1928  -26.7946   22.1584 C   0  0  0  0  0  0
  -19.1521  -28.8836   23.2901 C   0  0  0  0  0  0
  -18.9455  -30.1439   23.8915 C   0  0  0  0  0  0
  -17.6458  -30.6587   24.0558 C   0  0  0  0  0  0
  -25.9023  -34.9477   23.5132 C   0  0  0  0  0  0
  -16.5351  -29.9086   23.6343 C   0  0  0  0  0  0
  -16.7259  -28.6528   23.0309 C   0  0  0  0  0  0
  -26.4452  -31.6592   25.0725 C   0  0  0  0  0  0
  -25.3700  -31.3718   26.1454 C   0  0  0  0  0  0
  -27.0250  -30.3039   24.6065 C   0  0  0  0  0  0
  -27.6038  -32.4273   25.7480 C   0  0  0  0  0  0
  -27.5591  -37.1795   24.8453 C   0  0  0  0  0  0
  -21.4140  -29.3018   22.3765 N   0  0  0  0  0  0
  -26.4298  -37.3792   23.9415 N   0  0  0  0  0  0
  -24.6687  -31.0742   22.1053 N   0  0  0  0  0  0
  -23.4210  -28.8174   23.3021 O   0  0  0  0  0  0
  -28.3887  -26.6950   20.0147 O   0  0  0  0  0  0
  -26.5563  -34.8924   22.4680 O   0  0  0  0  0  0
  -23.5337  -32.1430   23.7512 O   0  0  0  0  0  0
  -28.6580  -22.4414   19.7381 C   0  0  0  0  0  0
  -29.1281  -20.8774   22.0007 C   0  0  0  0  0  0
  -28.3663  -23.0022   21.0035 C   0  0  0  0  0  0
  -29.1801  -21.1350   19.5856 C   0  0  0  0  0  0
  -28.5952  -22.1841   22.1476 C   0  0  0  0  0  0
  -29.4391  -20.3450   20.7315 C   0  0  0  0  0  0
  -31.9514  -20.9569   17.5324 C   0  0  0  0  0  0
  -31.1936  -20.7439   16.2443 C   0  0  0  0  0  0
  -29.9284  -17.4805   22.4405 C   0  0  0  0  0  0
  -27.7355  -25.4212   22.1444 C   0  0  0  0  0  0
  -29.8596  -15.9427   22.3952 C   0  0  0  0  0  0
  -29.8944  -16.7660   20.1684 C   0  0  0  0  0  0
  -27.7739  -24.4132   20.9964 C   0  0  1  0  0  0
  -30.4976  -21.3609   17.4392 C   0  0  0  0  0  0
  -29.4517  -17.9344   21.0660 C   0  0  2  0  0  0
  -28.6668  -25.6519   20.9762 C   0  0  1  0  0  0
  -28.3006  -22.6641   23.5567 C   0  0  0  0  0  0
  -28.1210  -20.5025   17.3717 C   0  0  0  0  0  0
  -29.4250  -20.5783   18.1808 C   0  0  2  0  0  0
  -29.9529  -15.5421   20.9864 N   0  0  0  0  0  0
  -30.0795  -19.1288   20.5865 O   0  0  0  0  0  0
  -31.4690  -12.4080   19.1309 H   0  0  0  0  0  0
  -30.3203  -11.3014   19.8261 H   0  0  0  0  0  0
  -29.7399  -11.7838   17.4316 H   0  0  0  0  0  0
  -29.6637  -13.4939   17.7749 H   0  0  0  0  0  0
  -27.8293  -11.3103   18.8156 H   0  0  0  0  0  0
  -27.3684  -12.6398   17.7877 H   0  0  0  0  0  0
  -27.7058  -14.2549   19.5797 H   0  0  0  0  0  0
  -28.6788  -11.9558   21.3457 H   0  0  0  0  0  0
  -28.4565  -13.5900   21.8714 H   0  0  0  0  0  0
  -25.2775   -9.5683   22.4743 H   0  0  0  0  0  0
  -24.0018   -7.4631   22.7472 H   0  0  0  0  0  0
  -21.0852   -8.8756   19.8942 H   0  0  0  0  0  0
  -22.3709  -10.9656   19.6151 H   0  0  0  0  0  0
  -21.1988   -7.6142   23.9722 H   0  0  0  0  0  0
  -21.1482   -6.0515   25.9078 H   0  0  0  0  0  0
  -22.0599   -2.7610   23.2846 H   0  0  0  0  0  0
  -22.4122  -11.9869   22.4760 H   0  0  0  0  0  0
  -21.1117  -13.1218   22.2593 H   0  0  0  0  0  0
  -24.6711  -15.8484   20.5283 H   0  0  0  0  0  0
  -26.2961  -15.6277   20.1177 H   0  0  0  0  0  0
  -26.7101  -32.5518   23.1156 H   0  0  0  0  0  0
  -25.0143  -33.9799   25.0544 H   0  0  0  0  0  0
  -22.6915  -31.3077   21.4163 H   0  0  0  0  0  0
  -23.3787  -35.9598   23.3285 H   0  0  0  0  0  0
  -24.3603  -36.8914   22.2059 H   0  0  0  0  0  0
  -23.7206  -37.6489   23.6638 H   0  0  0  0  0  0
  -26.0384  -31.5909   20.6018 H   0  0  0  0  0  0
  -26.8247  -30.8823   21.9829 H   0  0  0  0  0  0
  -28.0973  -29.0824   21.1814 H   0  0  0  0  0  0
  -26.0697  -25.9923   18.9670 H   0  0  0  0  0  0
  -23.9815  -27.3101   19.0109 H   0  0  0  0  0  0
  -23.7234  -30.6039   19.4123 H   0  0  0  0  0  0
  -22.7336  -29.2501   19.8682 H   0  0  0  0  0  0
  -25.1297  -36.1983   25.0855 H   0  0  0  0  0  0
  -20.9919  -28.3190   24.1478 H   0  0  0  0  0  0
  -20.5669  -26.2247   23.3616 H   0  0  0  0  0  0
  -21.6651  -26.7425   22.1241 H   0  0  0  0  0  0
  -19.6955  -25.6290   21.1236 H   0  0  0  0  0  0
  -19.6779  -27.3207   20.6786 H   0  0  0  0  0  0
  -17.4230  -26.6726   21.3947 H   0  0  0  0  0  0
  -18.0266  -26.0094   22.8968 H   0  0  0  0  0  0
  -19.7940  -30.7240   24.2311 H   0  0  0  0  0  0
  -17.5023  -31.6281   24.5130 H   0  0  0  0  0  0
  -15.5354  -30.2976   23.7709 H   0  0  0  0  0  0
  -15.8657  -28.0880   22.6980 H   0  0  0  0  0  0
  -24.6010  -30.6871   25.7860 H   0  0  0  0  0  0
  -24.8696  -32.2854   26.4686 H   0  0  0  0  0  0
  -25.8048  -30.9134   27.0339 H   0  0  0  0  0  0
  -26.2797  -29.6857   24.1050 H   0  0  0  0  0  0
  -27.3987  -29.7207   25.4487 H   0  0  0  0  0  0
  -27.8638  -30.4397   23.9232 H   0  0  0  0  0  0
  -27.2706  -33.3594   26.2060 H   0  0  0  0  0  0
  -28.3855  -32.6788   25.0293 H   0  0  0  0  0  0
  -28.0688  -31.8378   26.5391 H   0  0  0  0  0  0
  -28.2590  -38.0110   24.7511 H   0  0  0  0  0  0
  -28.1112  -36.2637   24.6256 H   0  0  0  0  0  0
  -27.2317  -37.1414   25.8862 H   0  0  0  0  0  0
  -20.9303  -29.8733   21.6984 H   0  0  0  0  0  0
  -26.0202  -38.2873   24.1454 H   0  0  0  0  0  0
  -28.4629  -23.0337   18.8544 H   0  0  0  0  0  0
  -29.3376  -20.2886   22.8830 H   0  0  0  0  0  0
  -32.6930  -21.7535   17.5592 H   0  0  0  0  0  0
  -32.1959  -20.0741   18.1236 H   0  0  0  0  0  0
  -30.9354  -19.7202   15.9774 H   0  0  0  0  0  0
  -31.4234  -21.3992   15.4038 H   0  0  0  0  0  0
  -30.9629  -17.7929   22.5897 H   0  0  0  0  0  0
  -29.3353  -17.9040   23.2522 H   0  0  0  0  0  0
  -28.2448  -25.2367   23.0837 H   0  0  0  0  0  0
  -26.8363  -26.0257   22.2385 H   0  0  0  0  0  0
  -28.9033  -15.6067   22.7938 H   0  0  0  0  0  0
  -30.6477  -15.4937   23.0052 H   0  0  0  0  0  0
  -30.8856  -16.9852   19.7655 H   0  0  0  0  0  0
  -29.2258  -16.6393   19.3165 H   0  0  0  0  0  0
  -26.9065  -24.4093   20.3429 H   0  0  0  0  0  0
  -30.2949  -22.4270   17.3526 H   0  0  0  0  0  0
  -28.3627  -18.0144   21.0520 H   0  0  0  0  0  0
  -29.7342  -25.5133   21.1371 H   0  0  0  0  0  0
  -28.2665  -21.8335   24.2615 H   0  0  0  0  0  0
  -27.3353  -23.1681   23.6122 H   0  0  0  0  0  0
  -29.0833  -23.3422   23.8968 H   0  0  0  0  0  0
  -27.3794  -19.8902   17.8870 H   0  0  0  0  0  0
  -28.2944  -20.0481   16.3960 H   0  0  0  0  0  0
  -27.6796  -21.4848   17.2035 H   0  0  0  0  0  0
  -29.7826  -19.5530   18.2664 H   0  0  0  0  0  0
  1 25  1  0  0  0
  1 30  2  0  0  0
  1 90  1  0  0  0
  2  3  1  0  0  0
  2 25  1  0  0  0
  2 92  1  0  0  0
  2 93  1  0  0  0
  3  4  1  0  0  0
  3 94  1  0  0  0
  3 95  1  0  0  0
  4  5  1  0  0  0
  4 96  1  0  0  0
  4 97  1  0  0  0
  5  6  1  0  0  0
  5 26  1  0  0  0
  5 98  1  0  0  0
  6 25  1  0  0  0
  6 99  1  0  0  0
  6100  1  0  0  0
  7  8  2  0  0  0
  7 26  1  0  0  0
  7 29  1  0  0  0
  8  9  1  0  0  0
  8 22  1  0  0  0
  9 10  1  0  0  0
  9 27  2  0  0  0
 10 11  2  0  0  0
 10 15  1  0  0  0
 11 12  1  0  0  0
 11101  1  0  0  0
 12 13  2  0  0  0
 12102  1  0  0  0
 13 14  1  0  0  0
 13 31  1  0  0  0
 14 15  2  0  0  0
 14103  1  0  0  0
 15104  1  0  0  0
 16 17  2  0  0  0
 16 21  1  0  0  0
 16 31  1  0  0  0
 17 18  1  0  0  0
 17105  1  0  0  0
 18 19  2  0  0  0
 18106  1  0  0  0
 19 20  1  0  0  0
 19 24  1  0  0  0
 20 21  2  0  0  0
 20107  1  0  0  0
 21 23  1  0  0  0
 22 28  1  0  0  0
 22 32  2  0  0  0
 26 27  1  0  0  0
 28108  1  0  0  0
 28109  1  0  0  0
 29110  1  0  0  0
 29111  1  0  0  0
 33 34  1  0  0  0
 33 66  1  0  0  0
 33 70  2  0  0  0
 34 36  1  0  0  0
 34 59  1  0  0  0
 34112  1  0  0  0
 35 44  2  0  0  0
 35 45  1  0  0  0
 35 68  1  0  0  0
 36 56  1  0  0  0
 36113  1  0  0  0
 37 39  1  0  0  0
 37 47  1  0  0  0
 37 66  1  0  0  0
 37114  1  0  0  0
 38 43  2  0  0  0
 38 46  1  0  0  0
 38 47  1  0  0  0
 39 64  1  0  0  0
 39 67  2  0  0  0
 40 52  1  0  0  0
 40 53  2  0  0  0
 40 58  1  0  0  0
 41115  1  0  0  0
 41116  1  0  0  0
 41117  1  0  0  0
 41 48  1  0  0  0
 42 43  1  0  0  0
 42 66  1  0  0  0
 42118  1  0  0  0
 42119  1  0  0  0
 43 44  1  0  0  0
 44120  1  0  0  0
 45 46  2  0  0  0
 45121  1  0  0  0
 46122  1  0  0  0
 47123  1  0  0  0
 47124  1  0  0  0
 48 56  1  0  0  0
 48 65  1  0  0  0
 48125  1  0  0  0
 49 50  1  0  0  0
 49 53  1  0  0  0
 49 64  1  0  0  0
 49126  1  0  0  0
 50 51  1  0  0  0
 50127  1  0  0  0
 50128  1  0  0  0
 51 52  1  0  0  0
 51129  1  0  0  0
 51130  1  0  0  0
 52131  1  0  0  0
 52132  1  0  0  0
 53 54  1  0  0  0
 54 55  2  0  0  0
 54133  1  0  0  0
 55 57  1  0  0  0
 55134  1  0  0  0
 56 69  2  0  0  0
 57 58  2  0  0  0
 57135  1  0  0  0
 58136  1  0  0  0
 59 60  1  0  0  0
 59 61  1  0  0  0
 59 62  1  0  0  0
 60137  1  0  0  0
 60138  1  0  0  0
 60139  1  0  0  0
 61140  1  0  0  0
 61141  1  0  0  0
 61142  1  0  0  0
 62143  1  0  0  0
 62144  1  0  0  0
 62145  1  0  0  0
 63 65  1  0  0  0
 63146  1  0  0  0
 63147  1  0  0  0
 63148  1  0  0  0
 64149  1  0  0  0
 65150  1  0  0  0
 68 86  1  0  0  0
 71 73  2  0  0  0
 71 74  1  0  0  0
 71151  1  0  0  0
 72 75  2  0  0  0
 72 76  1  0  0  0
 72152  1  0  0  0
 73 75  1  0  0  0
 73 83  1  0  0  0
 74 76  2  0  0  0
 74 89  1  0  0  0
 75 87  1  0  0  0
 76 91  1  0  0  0
 77 78  1  0  0  0
 77153  1  0  0  0
 77154  1  0  0  0
 77 84  1  0  0  0
 78 84  1  0  0  0
 78155  1  0  0  0
 78156  1  0  0  0
 79 81  1  0  0  0
 79 85  1  0  0  0
 79157  1  0  0  0
 79158  1  0  0  0
 80 83  1  0  0  0
 80 86  1  0  0  0
 80159  1  0  0  0
 80160  1  0  0  0
 81 90  1  0  0  0
 81161  1  0  0  0
 81162  1  0  0  0
 82 85  1  0  0  0
 82 90  1  0  0  0
 82163  1  0  0  0
 82164  1  0  0  0
 83 86  1  0  0  0
 83165  1  0  0  0
 84 89  1  0  0  0
 84166  1  0  0  0
 85 91  1  0  0  0
 85167  1  0  0  0
 86168  1  0  0  0
 87169  1  0  0  0
 87170  1  0  0  0
 87171  1  0  0  0
 88172  1  0  0  0
 88173  1  0  0  0
 88174  1  0  0  0
 88 89  1  0  0  0
 89175  1  0  0  0
M  ISO  4   1 100  68 101  86 101  90 100
M  END
> <chiral flag>
0

> <version>
0

> <s_m_source_file>
/data/baiqing/PycharmProjects/Reinvent-master-3.2/result/LINK_invent/BTK/process_docking_weight1_custom_sum_contain_oxygen_bond_distance_aromatic_linkinvent_7_9_3/rearranged_h_0155.sdf

> <i_m_source_file_index>
9

> <r_mmod_Potential_Energy-OPLS-2005>
267.501434326172

> <r_mmod_Stretch_Energy-OPLS-2005>
42.2558441162109

> <r_mmod_Bend_Energy-OPLS-2005>
148.477188110352

> <r_mmod_Torsional_Energy-OPLS-2005>
439.140319824219

> <r_mmod_Improper_Torsional_Energy-OPLS-2005>
11.4981212615967

> <r_mmod_Van_der_Waal_Energy-OPLS-2005>
138.728637695312

> <r_mmod_Electrostatic_Energy-OPLS-2005>
-333.79248046875

> <r_mmod_Solvation_Energy-OPLS-2005>
-191.238571166992

> <b_mmod_Minimization_Converged-OPLS-2005>
0

> <r_mmod_RMS_Derivative-OPLS-2005>
2.93508100509644

$$$$
9
                    3D
 Structure written by MMmdl.
164174  0  0  1  0            999 V2000
  -30.6355  -14.8592   20.4450 C   0  0  0  0  0  0
  -30.4240  -12.5413   19.4803 C   0  0  0  0  0  0
  -29.5056  -12.5147   18.2410 C   0  0  0  0  0  0
  -28.0407  -12.3118   18.6661 C   0  0  0  0  0  0
  -27.6266  -13.2434   19.8351 C   0  0  2  0  0  0
  -28.6751  -13.2787   20.9673 C   0  0  0  0  0  0
  -25.2461  -13.8202   20.5729 C   0  0  0  0  0  0
  -24.1771  -13.0432   20.9236 C   0  0  0  0  0  0
  -24.6387  -11.6919   20.8770 C   0  0  0  0  0  0
  -23.9072  -10.4290   21.0419 C   0  0  0  0  0  0
  -24.3623   -9.4204   21.9193 C   0  0  0  0  0  0
  -23.6298   -8.2240   22.0757 C   0  0  0  0  0  0
  -22.4282   -8.0279   21.3546 C   0  0  0  0  0  0
  -21.9920   -9.0250   20.4645 C   0  0  0  0  0  0
  -22.7248  -10.2129   20.3064 C   0  0  0  0  0  0
  -21.6858   -6.0740   22.5282 C   0  0  0  0  0  0
  -21.4014   -6.5642   23.8213 C   0  0  0  0  0  0
  -21.3662   -5.6794   24.9176 C   0  0  0  0  0  0
  -21.6045   -4.3054   24.7226 C   0  0  0  0  0  0
  -21.8823   -3.8151   23.4347 C   0  0  0  0  0  0
  -21.9194   -4.6967   22.3405 C   0  0  0  0  0  0
  -22.7789  -13.5200   21.1883 C   0  0  0  0  0  0
  -22.1664   -4.2155   21.0979 F   0  0  0  0  0  0
  -21.5630   -3.4538   25.7737 F   0  0  0  0  0  0
  -29.9580  -13.6499   20.3576 N   0  0  0  0  0  0
  -26.2882  -12.9428   20.3275 N   0  0  0  0  0  0
  -25.9322  -11.6563   20.5771 N   0  0  0  0  0  0
  -22.0441  -12.8187   22.0438 N   0  0  0  0  0  0
  -25.4130  -15.1927   20.4154 N   0  0  0  0  0  0
  -31.8480  -14.8461   20.2096 O   0  0  0  0  0  0
  -21.6644   -6.8881   21.4244 O   0  0  0  0  0  0
  -22.3475  -14.5503   20.6726 O   0  0  0  0  0  0
  -24.6405  -31.8491   23.1954 C   0  0  0  0  0  0
  -25.9195  -32.4722   23.8322 C   0  0  1  0  0  0
  -27.2120  -27.1747   20.1326 C   0  0  0  0  0  0
  -25.5959  -33.8528   24.2233 N   0  0  0  0  0  0
  -23.4412  -30.4738   21.5410 C   0  0  2  0  0  0
  -24.8883  -28.9160   20.1107 C   0  0  0  0  0  0
  -22.7549  -29.4575   22.4879 C   0  0  0  0  0  0
  -18.0302  -28.1392   22.8481 C   0  0  0  0  0  0
  -24.1486  -36.7254   23.2638 C   0  0  0  0  0  0
  -25.9974  -30.7331   21.3931 C   0  0  0  0  0  0
  -26.0664  -29.3501   20.7313 C   0  0  0  0  0  0
  -27.2272  -28.4927   20.7344 C   0  0  0  0  0  0
  -26.0047  -26.8484   19.4659 C   0  0  0  0  0  0
  -24.8679  -27.6754   19.4667 C   0  0  0  0  0  0
  -23.6648  -29.8130   20.1573 C   0  0  0  0  0  0
  -25.4117  -36.3044   24.0320 C   0  0  1  0  0  0
  -20.5915  -28.3717   23.1242 C   0  0  2  0  0  0
  -20.6789  -26.9424   22.5400 C   0  0  0  0  0  0
  -19.5759  -26.6381   21.5210 C   0  0  0  0  0  0
  -18.1940  -26.7933   22.1625 C   0  0  0  0  0  0
  -19.1558  -28.8872   23.2855 C   0  0  0  0  0  0
  -18.9473  -30.1470   23.8878 C   0  0  0  0  0  0
  -17.6469  -30.6592   24.0559 C   0  0  0  0  0  0
  -25.9070  -34.9419   23.5079 C   0  0  0  0  0  0
  -16.5361  -29.9084   23.6337 C   0  0  0  0  0  0
  -16.7287  -28.6501   23.0360 C   0  0  0  0  0  0
  -26.4526  -31.6576   25.0748 C   0  0  0  0  0  0
  -25.3717  -31.3759   26.1446 C   0  0  0  0  0  0
  -27.0391  -30.2972   24.6319 C   0  0  0  0  0  0
  -27.6058  -32.4342   25.7533 C   0  0  0  0  0  0
  -27.5577  -37.1775   24.8459 C   0  0  0  0  0  0
  -21.4244  -29.3053   22.3622 N   0  0  0  0  0  0
  -26.4276  -37.3759   23.9423 N   0  0  0  0  0  0
  -24.7126  -31.0383   22.0981 N   0  0  0  0  0  0
  -23.4209  -28.8107   23.3004 O   0  0  0  0  0  0
  -28.2634  -26.1910   20.2131 O   0  0  0  0  0  0
  -26.5646  -34.8902   22.4652 O   0  0  0  0  0  0
  -23.5533  -32.1356   23.7191 O   0  0  0  0  0  0
  -28.7525  -22.1223   20.4089 C   0  0  0  0  0  0
  -30.6665  -21.1701   19.2391 C   0  0  0  0  0  0
  -29.5778  -20.9290   20.1111 C   0  0  0  0  0  0
  -28.9906  -23.4558   19.8203 C   0  0  0  0  0  0
  -30.0189  -23.5044   18.8747 C   0  0  0  0  0  0
  -30.8888  -22.4212   18.6181 C   0  0  0  0  0  0
  -29.8778  -24.7176   17.9926 C   0  0  0  0  0  0
  -28.3899  -25.0824   18.1581 C   0  0  0  0  0  0
  -29.0008  -18.3020   19.5289 C   0  0  0  0  0  0
  -30.6630  -18.6702   21.2077 C   0  0  0  0  0  0
  -28.8868  -16.7485   19.9484 C   0  0  0  0  0  0
  -30.5711  -17.1326   21.6495 C   0  0  0  0  0  0
  -29.3891  -19.3825   20.6135 C   0  0  0  0  0  0
  -28.0531  -24.7763   19.6386 C   0  0  2  0  0  0
  -32.0117  -22.5537   17.6048 C   0  0  0  0  0  0
  -30.0011  -16.1006   20.7164 N   0  0  0  0  0  0
  -31.4609  -12.6668   19.1639 H   0  0  0  0  0  0
  -30.3883  -11.5902   20.0129 H   0  0  0  0  0  0
  -29.8102  -11.7203   17.5585 H   0  0  0  0  0  0
  -29.6030  -13.4515   17.6895 H   0  0  0  0  0  0
  -27.9293  -11.2702   18.9695 H   0  0  0  0  0  0
  -27.3751  -12.4528   17.8139 H   0  0  0  0  0  0
  -27.5820  -14.2401   19.4017 H   0  0  0  0  0  0
  -28.7447  -12.3151   21.4736 H   0  0  0  0  0  0
  -28.3892  -14.0099   21.7255 H   0  0  0  0  0  0
  -25.2765   -9.5683   22.4768 H   0  0  0  0  0  0
  -24.0012   -7.4632   22.7474 H   0  0  0  0  0  0
  -21.0862   -8.8770   19.8939 H   0  0  0  0  0  0
  -22.3713  -10.9674   19.6176 H   0  0  0  0  0  0
  -21.2003   -7.6149   23.9714 H   0  0  0  0  0  0
  -21.1479   -6.0527   25.9078 H   0  0  0  0  0  0
  -22.0599   -2.7615   23.2849 H   0  0  0  0  0  0
  -22.4067  -11.9860   22.4831 H   0  0  0  0  0  0
  -21.1053  -13.1203   22.2625 H   0  0  0  0  0  0
  -24.6477  -15.8476   20.5321 H   0  0  0  0  0  0
  -26.2648  -15.6317   20.0925 H   0  0  0  0  0  0
  -26.7258  -32.5337   23.1052 H   0  0  0  0  0  0
  -25.0098  -33.9659   25.0373 H   0  0  0  0  0  0
  -22.7420  -31.2995   21.3931 H   0  0  0  0  0  0
  -23.3765  -35.9567   23.3273 H   0  0  0  0  0  0
  -24.3574  -36.8914   22.2057 H   0  0  0  0  0  0
  -23.7214  -37.6431   23.6691 H   0  0  0  0  0  0
  -26.1529  -31.4914   20.6243 H   0  0  0  0  0  0
  -26.8681  -30.7778   22.0359 H   0  0  0  0  0  0
  -28.1217  -28.8175   21.2474 H   0  0  0  0  0  0
  -25.8791  -25.9174   18.9386 H   0  0  0  0  0  0
  -23.9693  -27.3391   18.9677 H   0  0  0  0  0  0
  -23.7998  -30.5917   19.4060 H   0  0  0  0  0  0
  -22.7801  -29.2549   19.8449 H   0  0  0  0  0  0
  -25.1297  -36.1874   25.0808 H   0  0  0  0  0  0
  -21.0007  -28.3301   24.1362 H   0  0  0  0  0  0
  -20.5692  -26.2324   23.3614 H   0  0  0  0  0  0
  -21.6653  -26.7435   22.1195 H   0  0  0  0  0  0
  -19.6921  -25.6286   21.1254 H   0  0  0  0  0  0
  -19.6697  -27.3180   20.6732 H   0  0  0  0  0  0
  -17.4210  -26.6680   21.4028 H   0  0  0  0  0  0
  -18.0339  -26.0077   22.9024 H   0  0  0  0  0  0
  -19.7947  -30.7293   24.2240 H   0  0  0  0  0  0
  -17.5020  -31.6270   24.5162 H   0  0  0  0  0  0
  -15.5359  -30.2978   23.7670 H   0  0  0  0  0  0
  -15.8687  -28.0809   22.7090 H   0  0  0  0  0  0
  -24.5892  -30.7116   25.7763 H   0  0  0  0  0  0
  -24.8914  -32.2940   26.4835 H   0  0  0  0  0  0
  -25.8000  -30.8949   27.0247 H   0  0  0  0  0  0
  -26.3008  -29.6698   24.1313 H   0  0  0  0  0  0
  -27.3986  -29.7272   25.4896 H   0  0  0  0  0  0
  -27.8927  -30.4209   23.9654 H   0  0  0  0  0  0
  -27.2645  -33.3648   26.2081 H   0  0  0  0  0  0
  -28.3886  -32.6894   25.0379 H   0  0  0  0  0  0
  -28.0711  -31.8492   26.5477 H   0  0  0  0  0  0
  -28.2562  -38.0105   24.7553 H   0  0  0  0  0  0
  -28.1108  -36.2635   24.6231 H   0  0  0  0  0  0
  -27.2301  -37.1355   25.8863 H   0  0  0  0  0  0
  -20.9444  -29.8781   21.6820 H   0  0  0  0  0  0
  -26.0143  -38.2816   24.1471 H   0  0  0  0  0  0
  -27.8809  -21.9943   21.0353 H   0  0  0  0  0  0
  -31.3187  -20.3494   18.9754 H   0  0  0  0  0  0
  -30.1273  -24.5123   16.9514 H   0  0  0  0  0  0
  -30.5263  -25.5145   18.3584 H   0  0  0  0  0  0
  -27.8047  -24.4085   17.5308 H   0  0  0  0  0  0
  -28.1629  -26.0934   17.8199 H   0  0  0  0  0  0
  -28.0554  -18.6026   19.0757 H   0  0  0  0  0  0
  -29.7296  -18.3638   18.7196 H   0  0  0  0  0  0
  -31.4745  -18.7352   20.4835 H   0  0  0  0  0  0
  -31.0062  -19.2523   22.0642 H   0  0  0  0  0  0
  -28.7186  -16.1709   19.0391 H   0  0  0  0  0  0
  -27.9880  -16.6240   20.5522 H   0  0  0  0  0  0
  -29.9679  -17.0817   22.5569 H   0  0  0  0  0  0
  -31.5677  -16.8143   21.9618 H   0  0  0  0  0  0
  -28.6134  -19.3941   21.3805 H   0  0  0  0  0  0
  -27.0296  -24.4385   19.7910 H   0  0  0  0  0  0
  -32.8206  -21.8553   17.8229 H   0  0  0  0  0  0
  -32.4353  -23.5584   17.6151 H   0  0  0  0  0  0
  -31.6445  -22.3459   16.5996 H   0  0  0  0  0  0
  1 25  1  0  0  0
  1 30  2  0  0  0
  1 86  1  0  0  0
  2  3  1  0  0  0
  2 25  1  0  0  0
  2 87  1  0  0  0
  2 88  1  0  0  0
  3  4  1  0  0  0
  3 89  1  0  0  0
  3 90  1  0  0  0
  4  5  1  0  0  0
  4 91  1  0  0  0
  4 92  1  0  0  0
  5  6  1  0  0  0
  5 26  1  0  0  0
  5 93  1  0  0  0
  6 25  1  0  0  0
  6 94  1  0  0  0
  6 95  1  0  0  0
  7  8  2  0  0  0
  7 26  1  0  0  0
  7 29  1  0  0  0
  8  9  1  0  0  0
  8 22  1  0  0  0
  9 10  1  0  0  0
  9 27  2  0  0  0
 10 11  2  0  0  0
 10 15  1  0  0  0
 11 12  1  0  0  0
 11 96  1  0  0  0
 12 13  2  0  0  0
 12 97  1  0  0  0
 13 14  1  0  0  0
 13 31  1  0  0  0
 14 15  2  0  0  0
 14 98  1  0  0  0
 15 99  1  0  0  0
 16 17  2  0  0  0
 16 21  1  0  0  0
 16 31  1  0  0  0
 17 18  1  0  0  0
 17100  1  0  0  0
 18 19  2  0  0  0
 18101  1  0  0  0
 19 20  1  0  0  0
 19 24  1  0  0  0
 20 21  2  0  0  0
 20102  1  0  0  0
 21 23  1  0  0  0
 22 28  1  0  0  0
 22 32  2  0  0  0
 26 27  1  0  0  0
 28103  1  0  0  0
 28104  1  0  0  0
 29105  1  0  0  0
 29106  1  0  0  0
 33 34  1  0  0  0
 33 66  1  0  0  0
 33 70  2  0  0  0
 34 36  1  0  0  0
 34 59  1  0  0  0
 34107  1  0  0  0
 35 44  2  0  0  0
 35 45  1  0  0  0
 35 68  1  0  0  0
 36 56  1  0  0  0
 36108  1  0  0  0
 37 39  1  0  0  0
 37 47  1  0  0  0
 37 66  1  0  0  0
 37109  1  0  0  0
 38 43  2  0  0  0
 38 46  1  0  0  0
 38 47  1  0  0  0
 39 64  1  0  0  0
 39 67  2  0  0  0
 40 52  1  0  0  0
 40 53  2  0  0  0
 40 58  1  0  0  0
 41110  1  0  0  0
 41111  1  0  0  0
 41112  1  0  0  0
 41 48  1  0  0  0
 42 43  1  0  0  0
 42 66  1  0  0  0
 42113  1  0  0  0
 42114  1  0  0  0
 43 44  1  0  0  0
 44115  1  0  0  0
 45 46  2  0  0  0
 45116  1  0  0  0
 46117  1  0  0  0
 47118  1  0  0  0
 47119  1  0  0  0
 48 56  1  0  0  0
 48 65  1  0  0  0
 48120  1  0  0  0
 49 50  1  0  0  0
 49 53  1  0  0  0
 49 64  1  0  0  0
 49121  1  0  0  0
 50 51  1  0  0  0
 50122  1  0  0  0
 50123  1  0  0  0
 51 52  1  0  0  0
 51124  1  0  0  0
 51125  1  0  0  0
 52126  1  0  0  0
 52127  1  0  0  0
 53 54  1  0  0  0
 54 55  2  0  0  0
 54128  1  0  0  0
 55 57  1  0  0  0
 55129  1  0  0  0
 56 69  2  0  0  0
 57 58  2  0  0  0
 57130  1  0  0  0
 58131  1  0  0  0
 59 60  1  0  0  0
 59 61  1  0  0  0
 59 62  1  0  0  0
 60132  1  0  0  0
 60133  1  0  0  0
 60134  1  0  0  0
 61135  1  0  0  0
 61136  1  0  0  0
 61137  1  0  0  0
 62138  1  0  0  0
 62139  1  0  0  0
 62140  1  0  0  0
 63 65  1  0  0  0
 63141  1  0  0  0
 63142  1  0  0  0
 63143  1  0  0  0
 64144  1  0  0  0
 65145  1  0  0  0
 68 84  1  0  0  0
 71 73  2  0  0  0
 71 74  1  0  0  0
 71146  1  0  0  0
 72 73  1  0  0  0
 72 76  2  0  0  0
 72147  1  0  0  0
 73 83  1  0  0  0
 74 75  2  0  0  0
 74 84  1  0  0  0
 75 76  1  0  0  0
 75 77  1  0  0  0
 76 85  1  0  0  0
 77 78  1  0  0  0
 77148  1  0  0  0
 77149  1  0  0  0
 78 84  1  0  0  0
 78150  1  0  0  0
 78151  1  0  0  0
 79 81  1  0  0  0
 79 83  1  0  0  0
 79152  1  0  0  0
 79153  1  0  0  0
 80 82  1  0  0  0
 80 83  1  0  0  0
 80154  1  0  0  0
 80155  1  0  0  0
 81 86  1  0  0  0
 81156  1  0  0  0
 81157  1  0  0  0
 82 86  1  0  0  0
 82158  1  0  0  0
 82159  1  0  0  0
 83160  1  0  0  0
 84161  1  0  0  0
 85162  1  0  0  0
 85163  1  0  0  0
 85164  1  0  0  0
M  ISO  4   1 100  68 101  84 101  86 100
M  END
> <chiral flag>
0

> <version>
0

> <s_m_source_file>
/data/baiqing/PycharmProjects/Reinvent-master-3.2/result/LINK_invent/BTK/process_docking_weight1_custom_sum_contain_oxygen_bond_distance_aromatic_linkinvent_7_9_3/rearranged_h_0155.sdf

> <i_m_source_file_index>
10

> <r_mmod_Potential_Energy-OPLS-2005>
658.340026855469

> <r_mmod_Stretch_Energy-OPLS-2005>
189.166809082031

> <r_mmod_Bend_Energy-OPLS-2005>
304.011291503906

> <r_mmod_Torsional_Energy-OPLS-2005>
352.361328125

> <r_mmod_Improper_Torsional_Energy-OPLS-2005>
9.16525268554688

> <r_mmod_Van_der_Waal_Energy-OPLS-2005>
139.074249267578

> <r_mmod_Electrostatic_Energy-OPLS-2005>
-290.192352294922

> <r_mmod_Solvation_Energy-OPLS-2005>
-197.507888793945

> <b_mmod_Minimization_Converged-OPLS-2005>
0

> <r_mmod_RMS_Derivative-OPLS-2005>
0.921165943145752

$$$$
10
                    3D
 Structure written by MMmdl.
172181  0  0  1  0            999 V2000
  -30.7042  -14.4261   20.6496 C   0  0  0  0  0  0
  -30.4289  -12.3113   19.4003 C   0  0  0  0  0  0
  -29.4854  -12.5068   18.1957 C   0  0  0  0  0  0
  -28.0097  -12.3528   18.6168 C   0  0  0  0  0  0
  -27.6600  -13.1932   19.8728 C   0  0  2  0  0  0
  -28.6976  -12.9421   20.9867 C   0  0  0  0  0  0
  -25.2590  -13.8138   20.5670 C   0  0  0  0  0  0
  -24.1833  -13.0443   20.9181 C   0  0  0  0  0  0
  -24.6364  -11.6902   20.8729 C   0  0  0  0  0  0
  -23.9025  -10.4305   21.0408 C   0  0  0  0  0  0
  -24.3592   -9.4225   21.9187 C   0  0  0  0  0  0
  -23.6287   -8.2252   22.0756 C   0  0  0  0  0  0
  -22.4272   -8.0281   21.3548 C   0  0  0  0  0  0
  -21.9895   -9.0252   20.4652 C   0  0  0  0  0  0
  -22.7198  -10.2139   20.3058 C   0  0  0  0  0  0
  -21.6854   -6.0727   22.5276 C   0  0  0  0  0  0
  -21.4015   -6.5638   23.8201 C   0  0  0  0  0  0
  -21.3660   -5.6803   24.9167 C   0  0  0  0  0  0
  -21.6037   -4.3060   24.7230 C   0  0  0  0  0  0
  -21.8823   -3.8145   23.4350 C   0  0  0  0  0  0
  -21.9200   -4.6957   22.3400 C   0  0  0  0  0  0
  -22.7865  -13.5252   21.1854 C   0  0  0  0  0  0
  -22.1668   -4.2142   21.0982 F   0  0  0  0  0  0
  -21.5625   -3.4544   25.7741 F   0  0  0  0  0  0
  -30.0328  -13.2635   20.4461 N   0  0  0  0  0  0
  -26.2999  -12.9279   20.3342 N   0  0  0  0  0  0
  -25.9275  -11.6461   20.5756 N   0  0  0  0  0  0
  -22.0506  -12.8249   22.0409 N   0  0  0  0  0  0
  -25.4353  -15.1860   20.4056 N   0  0  0  0  0  0
  -31.7940  -14.6863   20.1293 O   0  0  0  0  0  0
  -21.6650   -6.8867   21.4238 O   0  0  0  0  0  0
  -22.3578  -14.5574   20.6709 O   0  0  0  0  0  0
  -24.6146  -31.8681   23.2148 C   0  0  0  0  0  0
  -25.9046  -32.4827   23.8428 C   0  0  1  0  0  0
  -27.2221  -27.4373   20.0742 C   0  0  0  0  0  0
  -25.5896  -33.8626   24.2354 N   0  0  0  0  0  0
  -23.4007  -30.4962   21.5569 C   0  0  2  0  0  0
  -24.8393  -28.9663   20.1161 C   0  0  0  0  0  0
  -22.7404  -29.4662   22.5016 C   0  0  0  0  0  0
  -18.0271  -28.1352   22.8491 C   0  0  0  0  0  0
  -24.1495  -36.7335   23.2642 C   0  0  0  0  0  0
  -25.9303  -30.8344   21.3662 C   0  0  0  0  0  0
  -26.0028  -29.4715   20.7081 C   0  0  0  0  0  0
  -27.1964  -28.7138   20.6839 C   0  0  0  0  0  0
  -26.0284  -26.9414   19.4950 C   0  0  0  0  0  0
  -24.8463  -27.7008   19.5101 C   0  0  0  0  0  0
  -23.6050  -29.8356   20.1687 C   0  0  0  0  0  0
  -25.4114  -36.3125   24.0349 C   0  0  1  0  0  0
  -20.5854  -28.3643   23.1334 C   0  0  2  0  0  0
  -20.6759  -26.9384   22.5418 C   0  0  0  0  0  0
  -19.5743  -26.6377   21.5202 C   0  0  0  0  0  0
  -18.1920  -26.7900   22.1613 C   0  0  0  0  0  0
  -19.1514  -28.8817   23.2905 C   0  0  0  0  0  0
  -18.9433  -30.1420   23.8919 C   0  0  0  0  0  0
  -17.6433  -30.6561   24.0562 C   0  0  0  0  0  0
  -25.9036  -34.9482   23.5148 C   0  0  0  0  0  0
  -16.5330  -29.9059   23.6316 C   0  0  0  0  0  0
  -16.7258  -28.6471   23.0349 C   0  0  0  0  0  0
  -26.4491  -31.6596   25.0747 C   0  0  0  0  0  0
  -25.3769  -31.3678   26.1504 C   0  0  0  0  0  0
  -27.0328  -30.3048   24.6097 C   0  0  0  0  0  0
  -27.6077  -32.4299   25.7501 C   0  0  0  0  0  0
  -27.5595  -37.1830   24.8467 C   0  0  0  0  0  0
  -21.4134  -29.3025   22.3760 N   0  0  0  0  0  0
  -26.4315  -37.3796   23.9401 N   0  0  0  0  0  0
  -24.6678  -31.0792   22.1048 N   0  0  0  0  0  0
  -23.4174  -28.8192   23.3052 O   0  0  0  0  0  0
  -28.4086  -26.7274   20.0619 O   0  0  0  0  0  0
  -26.5596  -34.8925   22.4705 O   0  0  0  0  0  0
  -23.5346  -32.1430   23.7553 O   0  0  0  0  0  0
  -30.2999  -16.7159   23.4457 C   0  0  0  0  0  0
  -30.6210  -20.9202   22.1200 C   0  0  0  0  0  0
  -28.1164  -20.6704   21.3972 C   0  0  0  0  0  0
  -30.0870  -18.2098   23.6756 C   0  0  0  0  0  0
  -30.8432  -21.5988   20.7554 C   0  0  0  0  0  0
  -28.5384  -21.3349   20.0689 C   0  0  0  0  0  0
  -29.7083  -17.8087   21.3383 C   0  0  0  0  0  0
  -30.4947  -16.6067   21.9310 C   0  0  1  0  0  0
  -29.2737  -20.1684   22.3049 C   0  0  1  0  0  0
  -29.2312  -22.9850   17.8128 C   0  0  0  0  0  0
  -29.7946  -24.7665   19.6161 C   0  0  0  0  0  0
  -28.3796  -25.3729   19.5938 C   0  0  0  0  0  0
  -29.9266  -23.2845   19.1614 C   0  0  1  0  0  0
  -30.0505  -15.3023   21.4268 N   0  0  0  0  0  0
  -29.3468  -18.6828   22.4839 N   0  3  2  0  0  0
  -29.6348  -22.3206   20.2797 N   0  3  2  0  0  0
  -31.4666  -12.4431   19.0898 H   0  0  0  0  0  0
  -30.3589  -11.2918   19.7853 H   0  0  0  0  0  0
  -29.7275  -11.7845   17.4147 H   0  0  0  0  0  0
  -29.6386  -13.4951   17.7598 H   0  0  0  0  0  0
  -27.8329  -11.2956   18.8236 H   0  0  0  0  0  0
  -27.3502  -12.6142   17.7884 H   0  0  0  0  0  0
  -27.7170  -14.2432   19.5872 H   0  0  0  0  0  0
  -28.6751  -11.8942   21.2888 H   0  0  0  0  0  0
  -28.4364  -13.4953   21.8899 H   0  0  0  0  0  0
  -25.2732   -9.5717   22.4778 H   0  0  0  0  0  0
  -24.0000   -7.4649   22.7474 H   0  0  0  0  0  0
  -21.0827   -8.8762   19.8971 H   0  0  0  0  0  0
  -22.3642  -10.9683   19.6187 H   0  0  0  0  0  0
  -21.2006   -7.6151   23.9698 H   0  0  0  0  0  0
  -21.1477   -6.0536   25.9070 H   0  0  0  0  0  0
  -22.0605   -2.7613   23.2855 H   0  0  0  0  0  0
  -22.4110  -11.9874   22.4746 H   0  0  0  0  0  0
  -21.1129  -13.1287   22.2624 H   0  0  0  0  0  0
  -24.6643  -15.8383   20.4928 H   0  0  0  0  0  0
  -26.2778  -15.6149   20.0451 H   0  0  0  0  0  0
  -26.7124  -32.5537   23.1201 H   0  0  0  0  0  0
  -25.0043  -33.9794   25.0499 H   0  0  0  0  0  0
  -22.6918  -31.3154   21.4247 H   0  0  0  0  0  0
  -23.3746  -35.9674   23.3300 H   0  0  0  0  0  0
  -24.3611  -36.8940   22.2058 H   0  0  0  0  0  0
  -23.7252  -37.6554   23.6638 H   0  0  0  0  0  0
  -26.0431  -31.6048   20.6024 H   0  0  0  0  0  0
  -26.8188  -30.8840   21.9824 H   0  0  0  0  0  0
  -28.0986  -29.1026   21.1348 H   0  0  0  0  0  0
  -25.9758  -25.9722   19.0215 H   0  0  0  0  0  0
  -23.9489  -27.3059   19.0548 H   0  0  0  0  0  0
  -23.7162  -30.6144   19.4131 H   0  0  0  0  0  0
  -22.7277  -29.2595   19.8721 H   0  0  0  0  0  0
  -25.1287  -36.2019   25.0847 H   0  0  0  0  0  0
  -20.9930  -28.3175   24.1459 H   0  0  0  0  0  0
  -20.5635  -26.2245   23.3596 H   0  0  0  0  0  0
  -21.6638  -26.7425   22.1225 H   0  0  0  0  0  0
  -19.6905  -25.6294   21.1217 H   0  0  0  0  0  0
  -19.6675  -27.3206   20.6744 H   0  0  0  0  0  0
  -17.4192  -26.6658   21.4011 H   0  0  0  0  0  0
  -18.0315  -26.0028   22.8996 H   0  0  0  0  0  0
  -19.7908  -30.7230   24.2298 H   0  0  0  0  0  0
  -17.4987  -31.6245   24.5149 H   0  0  0  0  0  0
  -15.5324  -30.2962   23.7628 H   0  0  0  0  0  0
  -15.8663  -28.0794   22.7055 H   0  0  0  0  0  0
  -24.5948  -30.7019   25.7851 H   0  0  0  0  0  0
  -24.8951  -32.2818   26.4988 H   0  0  0  0  0  0
  -25.8141  -30.8836   27.0244 H   0  0  0  0  0  0
  -26.2844  -29.6772   24.1241 H   0  0  0  0  0  0
  -27.4236  -29.7335   25.4532 H   0  0  0  0  0  0
  -27.8625  -30.4419   23.9149 H   0  0  0  0  0  0
  -27.2712  -33.3580   26.2142 H   0  0  0  0  0  0
  -28.3853  -32.6877   25.0294 H   0  0  0  0  0  0
  -28.0779  -31.8370   26.5366 H   0  0  0  0  0  0
  -28.2623  -38.0119   24.7498 H   0  0  0  0  0  0
  -28.1076  -36.2650   24.6294 H   0  0  0  0  0  0
  -27.2317  -37.1489   25.8874 H   0  0  0  0  0  0
  -20.9289  -29.8771   21.7016 H   0  0  0  0  0  0
  -26.0215  -38.2887   24.1357 H   0  0  0  0  0  0
  -29.4093  -16.1735   23.7695 H   0  0  0  0  0  0
  -31.1520  -16.3264   24.0032 H   0  0  0  0  0  0
  -30.6714  -21.7014   22.8806 H   0  0  0  0  0  0
  -31.4764  -20.2792   22.3248 H   0  0  0  0  0  0
  -27.3982  -19.8740   21.2024 H   0  0  0  0  0  0
  -27.5502  -21.4181   21.9554 H   0  0  0  0  0  0
  -31.0563  -18.7011   23.7617 H   0  0  0  0  0  0
  -29.5420  -18.4090   24.5984 H   0  0  0  0  0  0
  -31.1437  -20.8592   20.0103 H   0  0  0  0  0  0
  -31.6844  -22.2882   20.8533 H   0  0  0  0  0  0
  -28.8524  -20.5747   19.3516 H   0  0  0  0  0  0
  -27.6587  -21.8206   19.6465 H   0  0  0  0  0  0
  -28.7982  -17.4931   20.8253 H   0  0  0  0  0  0
  -30.3267  -18.3467   20.6179 H   0  0  0  0  0  0
  -31.5549  -16.7504   21.7149 H   0  0  0  0  0  0
  -28.9462  -20.4695   23.3026 H   0  0  0  0  0  0
  -29.5539  -23.6960   17.0520 H   0  0  0  0  0  0
  -28.1452  -23.0581   17.8617 H   0  0  0  0  0  0
  -29.4928  -21.9941   17.4398 H   0  0  0  0  0  0
  -30.2262  -24.8933   20.6087 H   0  0  0  0  0  0
  -30.4127  -25.3771   18.9565 H   0  0  0  0  0  0
  -28.0084  -25.3428   18.5701 H   0  0  0  0  0  0
  -27.7092  -24.7819   20.2192 H   0  0  0  0  0  0
  -30.9869  -23.1742   18.9308 H   0  0  0  0  0  0
  -29.1489  -14.9804   21.7454 H   0  0  0  0  0  0
  -28.3960  -18.4133   22.6935 H   0  0  0  0  0  0
  -29.3414  -22.9126   21.0431 H   0  0  0  0  0  0
  1 25  1  0  0  0
  1 30  2  0  0  0
  1 84  1  0  0  0
  2  3  1  0  0  0
  2 25  1  0  0  0
  2 87  1  0  0  0
  2 88  1  0  0  0
  3  4  1  0  0  0
  3 89  1  0  0  0
  3 90  1  0  0  0
  4  5  1  0  0  0
  4 91  1  0  0  0
  4 92  1  0  0  0
  5  6  1  0  0  0
  5 26  1  0  0  0
  5 93  1  0  0  0
  6 25  1  0  0  0
  6 94  1  0  0  0
  6 95  1  0  0  0
  7  8  2  0  0  0
  7 26  1  0  0  0
  7 29  1  0  0  0
  8  9  1  0  0  0
  8 22  1  0  0  0
  9 10  1  0  0  0
  9 27  2  0  0  0
 10 11  2  0  0  0
 10 15  1  0  0  0
 11 12  1  0  0  0
 11 96  1  0  0  0
 12 13  2  0  0  0
 12 97  1  0  0  0
 13 14  1  0  0  0
 13 31  1  0  0  0
 14 15  2  0  0  0
 14 98  1  0  0  0
 15 99  1  0  0  0
 16 17  2  0  0  0
 16 21  1  0  0  0
 16 31  1  0  0  0
 17 18  1  0  0  0
 17100  1  0  0  0
 18 19  2  0  0  0
 18101  1  0  0  0
 19 20  1  0  0  0
 19 24  1  0  0  0
 20 21  2  0  0  0
 20102  1  0  0  0
 21 23  1  0  0  0
 22 28  1  0  0  0
 22 32  2  0  0  0
 26 27  1  0  0  0
 28103  1  0  0  0
 28104  1  0  0  0
 29105  1  0  0  0
 29106  1  0  0  0
 33 34  1  0  0  0
 33 66  1  0  0  0
 33 70  2  0  0  0
 34 36  1  0  0  0
 34 59  1  0  0  0
 34107  1  0  0  0
 35 44  2  0  0  0
 35 45  1  0  0  0
 35 68  1  0  0  0
 36 56  1  0  0  0
 36108  1  0  0  0
 37 39  1  0  0  0
 37 47  1  0  0  0
 37 66  1  0  0  0
 37109  1  0  0  0
 38 43  2  0  0  0
 38 46  1  0  0  0
 38 47  1  0  0  0
 39 64  1  0  0  0
 39 67  2  0  0  0
 40 52  1  0  0  0
 40 53  2  0  0  0
 40 58  1  0  0  0
 41110  1  0  0  0
 41111  1  0  0  0
 41112  1  0  0  0
 41 48  1  0  0  0
 42 43  1  0  0  0
 42 66  1  0  0  0
 42113  1  0  0  0
 42114  1  0  0  0
 43 44  1  0  0  0
 44115  1  0  0  0
 45 46  2  0  0  0
 45116  1  0  0  0
 46117  1  0  0  0
 47118  1  0  0  0
 47119  1  0  0  0
 48 56  1  0  0  0
 48 65  1  0  0  0
 48120  1  0  0  0
 49 50  1  0  0  0
 49 53  1  0  0  0
 49 64  1  0  0  0
 49121  1  0  0  0
 50 51  1  0  0  0
 50122  1  0  0  0
 50123  1  0  0  0
 51 52  1  0  0  0
 51124  1  0  0  0
 51125  1  0  0  0
 52126  1  0  0  0
 52127  1  0  0  0
 53 54  1  0  0  0
 54 55  2  0  0  0
 54128  1  0  0  0
 55 57  1  0  0  0
 55129  1  0  0  0
 56 69  2  0  0  0
 57 58  2  0  0  0
 57130  1  0  0  0
 58131  1  0  0  0
 59 60  1  0  0  0
 59 61  1  0  0  0
 59 62  1  0  0  0
 60132  1  0  0  0
 60133  1  0  0  0
 60134  1  0  0  0
 61135  1  0  0  0
 61136  1  0  0  0
 61137  1  0  0  0
 62138  1  0  0  0
 62139  1  0  0  0
 62140  1  0  0  0
 63 65  1  0  0  0
 63141  1  0  0  0
 63142  1  0  0  0
 63143  1  0  0  0
 64144  1  0  0  0
 65145  1  0  0  0
 68 82  1  0  0  0
 71 74  1  0  0  0
 71 78  1  0  0  0
 71146  1  0  0  0
 71147  1  0  0  0
 72 75  1  0  0  0
 72148  1  0  0  0
 72149  1  0  0  0
 72 79  1  0  0  0
 73 76  1  0  0  0
 73 79  1  0  0  0
 73150  1  0  0  0
 73151  1  0  0  0
 74152  1  0  0  0
 74153  1  0  0  0
 74 85  1  0  0  0
 75154  1  0  0  0
 75155  1  0  0  0
 75 86  1  0  0  0
 76 86  1  0  0  0
 76156  1  0  0  0
 76157  1  0  0  0
 77 78  1  0  0  0
 77 85  1  0  0  0
 77158  1  0  0  0
 77159  1  0  0  0
 78 84  1  0  0  0
 78160  1  0  0  0
 79 85  1  0  0  0
 79161  1  0  0  0
 80162  1  0  0  0
 80163  1  0  0  0
 80164  1  0  0  0
 80 83  1  0  0  0
 81 82  1  0  0  0
 81 83  1  0  0  0
 81165  1  0  0  0
 81166  1  0  0  0
 82167  1  0  0  0
 82168  1  0  0  0
 83 86  1  0  0  0
 83169  1  0  0  0
 84170  1  0  0  0
 85171  1  0  0  0
 86172  1  0  0  0
M  CHG  2  85   1  86   1
M  ISO  4   1 100  68 101  82 101  84 100
M  END
> <chiral flag>
0

> <version>
0

> <s_m_source_file>
/data/baiqing/PycharmProjects/Reinvent-master-3.2/result/LINK_invent/BTK/process_docking_weight1_custom_sum_contain_oxygen_bond_distance_aromatic_linkinvent_7_9_3/rearranged_h_0155.sdf

> <i_m_source_file_index>
11

> <r_mmod_Potential_Energy-OPLS-2005>
-129.141036987305

> <r_mmod_Stretch_Energy-OPLS-2005>
38.7221794128418

> <r_mmod_Bend_Energy-OPLS-2005>
155.857788085938

> <r_mmod_Torsional_Energy-OPLS-2005>
355.485107421875

> <r_mmod_Improper_Torsional_Energy-OPLS-2005>
2.14057087898254

> <r_mmod_Van_der_Waal_Energy-OPLS-2005>
142.944320678711

> <r_mmod_Electrostatic_Energy-OPLS-2005>
136.255523681641

> <r_mmod_Solvation_Energy-OPLS-2005>
-970.888488769531

> <b_mmod_Minimization_Converged-OPLS-2005>
0

> <r_mmod_RMS_Derivative-OPLS-2005>
2.35752558708191

$$$$
11
                    3D
 Structure written by MMmdl.
174183  0  0  1  0            999 V2000
  -30.7527  -14.5549   20.4629 C   0  0  0  0  0  0
  -30.4122  -12.3268   19.4504 C   0  0  0  0  0  0
  -29.4959  -12.4389   18.2188 C   0  0  0  0  0  0
  -28.0196  -12.2938   18.6434 C   0  0  0  0  0  0
  -27.6481  -13.1703   19.8732 C   0  0  2  0  0  0
  -28.7125  -13.1264   20.9909 C   0  0  0  0  0  0
  -25.2616  -13.8022   20.5848 C   0  0  0  0  0  0
  -24.1803  -13.0359   20.9222 C   0  0  0  0  0  0
  -24.6323  -11.6808   20.8813 C   0  0  0  0  0  0
  -23.8995  -10.4241   21.0464 C   0  0  0  0  0  0
  -24.3561   -9.4147   21.9220 C   0  0  0  0  0  0
  -23.6241   -8.2184   22.0764 C   0  0  0  0  0  0
  -22.4223   -8.0246   21.3551 C   0  0  0  0  0  0
  -21.9862   -9.0228   20.4645 C   0  0  0  0  0  0
  -22.7188  -10.2106   20.3074 C   0  0  0  0  0  0
  -21.6843   -6.0693   22.5275 C   0  0  0  0  0  0
  -21.3995   -6.5604   23.8203 C   0  0  0  0  0  0
  -21.3657   -5.6772   24.9179 C   0  0  0  0  0  0
  -21.6058   -4.3032   24.7248 C   0  0  0  0  0  0
  -21.8810   -3.8109   23.4374 C   0  0  0  0  0  0
  -21.9181   -4.6918   22.3419 C   0  0  0  0  0  0
  -22.7827  -13.5214   21.1851 C   0  0  0  0  0  0
  -22.1645   -4.2097   21.1001 F   0  0  0  0  0  0
  -21.5654   -3.4527   25.7772 F   0  0  0  0  0  0
  -30.0259  -13.3951   20.3919 N   0  0  0  0  0  0
  -26.2993  -12.9106   20.3522 N   0  0  0  0  0  0
  -25.9256  -11.6308   20.5908 N   0  0  0  0  0  0
  -22.0436  -12.8264   22.0405 N   0  0  0  0  0  0
  -25.4401  -15.1745   20.4377 N   0  0  0  0  0  0
  -31.9125  -14.6094   20.0542 O   0  0  0  0  0  0
  -21.6597   -6.8838   21.4238 O   0  0  0  0  0  0
  -22.3576  -14.5548   20.6700 O   0  0  0  0  0  0
  -24.6128  -31.8714   23.2093 C   0  0  0  0  0  0
  -25.9017  -32.4845   23.8393 C   0  0  1  0  0  0
  -27.2452  -27.4523   20.1120 C   0  0  0  0  0  0
  -25.5891  -33.8626   24.2345 N   0  0  0  0  0  0
  -23.4015  -30.4947   21.5496 C   0  0  2  0  0  0
  -24.8494  -28.9558   20.1225 C   0  0  0  0  0  0
  -22.7432  -29.4683   22.5008 C   0  0  0  0  0  0
  -18.0250  -28.1383   22.8499 C   0  0  0  0  0  0
  -24.1462  -36.7307   23.2637 C   0  0  0  0  0  0
  -25.9243  -30.8474   21.3546 C   0  0  0  0  0  0
  -26.0067  -29.4794   20.7114 C   0  0  0  0  0  0
  -27.2084  -28.7368   20.6926 C   0  0  0  0  0  0
  -26.0724  -26.9341   19.5242 C   0  0  0  0  0  0
  -24.8785  -27.6815   19.5275 C   0  0  0  0  0  0
  -23.6086  -29.8204   20.1639 C   0  0  0  0  0  0
  -25.4093  -36.3129   24.0353 C   0  0  1  0  0  0
  -20.5851  -28.3693   23.1310 C   0  0  2  0  0  0
  -20.6770  -26.9435   22.5399 C   0  0  0  0  0  0
  -19.5760  -26.6392   21.5208 C   0  0  0  0  0  0
  -18.1931  -26.7918   22.1625 C   0  0  0  0  0  0
  -19.1501  -28.8854   23.2889 C   0  0  0  0  0  0
  -18.9440  -30.1459   23.8906 C   0  0  0  0  0  0
  -17.6455  -30.6595   24.0564 C   0  0  0  0  0  0
  -25.9043  -34.9487   23.5160 C   0  0  0  0  0  0
  -16.5332  -29.9124   23.6302 C   0  0  0  0  0  0
  -16.7246  -28.6532   23.0330 C   0  0  0  0  0  0
  -26.4413  -31.6622   25.0727 C   0  0  0  0  0  0
  -25.3708  -31.3721   26.1502 C   0  0  0  0  0  0
  -27.0227  -30.3095   24.6041 C   0  0  0  0  0  0
  -27.6006  -32.4326   25.7462 C   0  0  0  0  0  0
  -27.5566  -37.1831   24.8467 C   0  0  0  0  0  0
  -21.4150  -29.3072   22.3739 N   0  0  0  0  0  0
  -26.4276  -37.3833   23.9414 N   0  0  0  0  0  0
  -24.6658  -31.0814   22.0991 N   0  0  0  0  0  0
  -23.4203  -28.8214   23.3043 O   0  0  0  0  0  0
  -28.4295  -26.7495   20.1135 O   0  0  0  0  0  0
  -26.5602  -34.8925   22.4702 O   0  0  0  0  0  0
  -23.5323  -32.1382   23.7529 O   0  0  0  0  0  0
  -30.8903  -16.6504   21.8728 C   0  0  0  0  0  0
  -30.1596  -15.8847   20.9303 C   0  0  0  0  0  0
  -30.4319  -17.9015   22.3496 C   0  0  0  0  0  0
  -29.0765  -16.5676   20.2890 C   0  0  0  0  0  0
  -29.1138  -18.2972   22.0309 C   0  0  0  0  0  0
  -28.4893  -17.7062   20.9092 C   0  0  0  0  0  0
  -30.5954  -21.2225   20.4387 C   0  0  0  0  0  0
  -31.6158  -22.6351   22.2900 C   0  0  0  0  0  0
  -31.6421  -20.1856   20.9155 C   0  0  0  0  0  0
  -31.3067  -21.3572   23.1013 C   0  0  0  0  0  0
  -30.9011  -22.6614   20.9185 C   0  0  2  0  0  0
  -28.6641  -16.2634   18.8546 C   0  0  0  0  0  0
  -28.3769  -19.3647   22.8302 C   0  0  0  0  0  0
  -27.2404  -18.3856   20.3414 C   0  0  0  0  0  0
  -31.3924  -18.8340   23.1098 C   0  0  0  0  0  0
  -28.3556  -25.4249   20.6507 C   0  0  0  0  0  0
  -29.7640  -24.8018   20.7886 C   0  0  0  0  0  0
  -31.7580  -20.1129   22.4063 N   0  3  2  0  0  0
  -29.6634  -23.3840   20.9629 O   0  0  0  0  0  0
  -30.2871  -11.3550   19.9296 H   0  0  0  0  0  0
  -31.4592  -12.3764   19.1489 H   0  0  0  0  0  0
  -29.7504  -11.6594   17.5008 H   0  0  0  0  0  0
  -29.6582  -13.3833   17.7003 H   0  0  0  0  0  0
  -27.8556  -11.2421   18.8814 H   0  0  0  0  0  0
  -27.3603  -12.5142   17.8026 H   0  0  0  0  0  0
  -27.6187  -14.1737   19.5061 H   0  0  0  0  0  0
  -28.4784  -13.8568   21.7679 H   0  0  0  0  0  0
  -28.7221  -12.1500   21.4789 H   0  0  0  0  0  0
  -25.2709   -9.5608   22.4785 H   0  0  0  0  0  0
  -23.9937   -7.4575   22.7474 H   0  0  0  0  0  0
  -21.0800   -8.8756   19.8960 H   0  0  0  0  0  0
  -22.3673  -10.9648   19.6175 H   0  0  0  0  0  0
  -21.1960   -7.6108   23.9701 H   0  0  0  0  0  0
  -21.1503   -6.0507   25.9095 H   0  0  0  0  0  0
  -22.0595   -2.7568   23.2901 H   0  0  0  0  0  0
  -22.4022  -11.9917   22.4811 H   0  0  0  0  0  0
  -21.1065  -13.1308   22.2607 H   0  0  0  0  0  0
  -24.6909  -15.8339   20.6067 H   0  0  0  0  0  0
  -26.3380  -15.6172   20.2858 H   0  0  0  0  0  0
  -26.7123  -32.5576   23.1201 H   0  0  0  0  0  0
  -25.0038  -33.9734   25.0499 H   0  0  0  0  0  0
  -22.6891  -31.3113   21.4122 H   0  0  0  0  0  0
  -23.3724  -35.9644   23.3353 H   0  0  0  0  0  0
  -24.3562  -36.8862   22.2045 H   0  0  0  0  0  0
  -23.7184  -37.6527   23.6599 H   0  0  0  0  0  0
  -26.0199  -31.6119   20.5833 H   0  0  0  0  0  0
  -26.8193  -30.9152   21.9637 H   0  0  0  0  0  0
  -28.1052  -29.1403   21.1358 H   0  0  0  0  0  0
  -26.0714  -25.9631   19.0470 H   0  0  0  0  0  0
  -23.9886  -27.2729   19.0699 H   0  0  0  0  0  0
  -22.7310  -29.2416   19.8676 H   0  0  0  0  0  0
  -23.7163  -30.5921   19.3990 H   0  0  0  0  0  0
  -25.1253  -36.2052   25.0858 H   0  0  0  0  0  0
  -20.9896  -28.3241   24.1462 H   0  0  0  0  0  0
  -20.5712  -26.2293   23.3576 H   0  0  0  0  0  0
  -21.6637  -26.7539   22.1168 H   0  0  0  0  0  0
  -19.6942  -25.6310   21.1254 H   0  0  0  0  0  0
  -19.6664  -27.3199   20.6730 H   0  0  0  0  0  0
  -17.4174  -26.6606   21.4035 H   0  0  0  0  0  0
  -18.0380  -26.0052   22.9033 H   0  0  0  0  0  0
  -19.7906  -30.7260   24.2278 H   0  0  0  0  0  0
  -17.5003  -31.6279   24.5174 H   0  0  0  0  0  0
  -15.5343  -30.3055   23.7598 H   0  0  0  0  0  0
  -15.8618  -28.0872   22.7030 H   0  0  0  0  0  0
  -24.5868  -30.7058   25.7890 H   0  0  0  0  0  0
  -24.8864  -32.2858   26.4960 H   0  0  0  0  0  0
  -25.8081  -30.8923   27.0261 H   0  0  0  0  0  0
  -26.2766  -29.6926   24.1014 H   0  0  0  0  0  0
  -27.3955  -29.7251   25.4448 H   0  0  0  0  0  0
  -27.8609  -30.4451   23.9202 H   0  0  0  0  0  0
  -27.2648  -33.3602   26.2061 H   0  0  0  0  0  0
  -28.3771  -32.6915   25.0278 H   0  0  0  0  0  0
  -28.0689  -31.8446   26.5354 H   0  0  0  0  0  0
  -28.2637  -38.0080   24.7513 H   0  0  0  0  0  0
  -28.1001  -36.2628   24.6307 H   0  0  0  0  0  0
  -27.2279  -37.1514   25.8866 H   0  0  0  0  0  0
  -20.9328  -29.8756   21.6913 H   0  0  0  0  0  0
  -26.0183  -38.2919   24.1441 H   0  0  0  0  0  0
  -31.8658  -16.2920   22.1831 H   0  0  0  0  0  0
  -29.6147  -20.9121   20.7870 H   0  0  0  0  0  0
  -30.5208  -21.2073   19.3539 H   0  0  0  0  0  0
  -32.6911  -22.6896   22.1207 H   0  0  0  0  0  0
  -31.3700  -23.5182   22.8804 H   0  0  0  0  0  0
  -32.6167  -20.4819   20.5332 H   0  0  0  0  0  0
  -31.4600  -19.2160   20.4550 H   0  0  0  0  0  0
  -30.2377  -21.3316   23.2999 H   0  0  0  0  0  0
  -31.7950  -21.4078   24.0746 H   0  0  0  0  0  0
  -31.5691  -23.1355   20.1933 H   0  0  0  0  0  0
  -28.8848  -17.1296   18.2281 H   0  0  0  0  0  0
  -27.5948  -16.0868   18.7644 H   0  0  0  0  0  0
  -29.1975  -15.4230   18.4244 H   0  0  0  0  0  0
  -28.1970  -20.2772   22.2652 H   0  0  0  0  0  0
  -28.8832  -19.6305   23.7551 H   0  0  0  0  0  0
  -27.4068  -18.9708   23.1324 H   0  0  0  0  0  0
  -26.3933  -18.2283   21.0103 H   0  0  0  0  0  0
  -27.4108  -19.4596   20.2570 H   0  0  0  0  0  0
  -26.9418  -18.0737   19.3442 H   0  0  0  0  0  0
  -32.3346  -18.3085   23.2646 H   0  0  0  0  0  0
  -31.0287  -19.0284   24.1189 H   0  0  0  0  0  0
  -27.8600  -25.4383   21.6218 H   0  0  0  0  0  0
  -27.7541  -24.7943   19.9938 H   0  0  0  0  0  0
  -30.3157  -25.2535   21.6131 H   0  0  0  0  0  0
  -30.3210  -25.0205   19.8809 H   0  0  0  0  0  0
  -32.7569  -20.1122   22.5488 H   0  0  0  0  0  0
  1 25  1  0  0  0
  1 30  2  0  0  0
  1 72  1  0  0  0
  2  3  1  0  0  0
  2 25  1  0  0  0
  2 90  1  0  0  0
  2 91  1  0  0  0
  3  4  1  0  0  0
  3 92  1  0  0  0
  3 93  1  0  0  0
  4  5  1  0  0  0
  4 94  1  0  0  0
  4 95  1  0  0  0
  5  6  1  0  0  0
  5 26  1  0  0  0
  5 96  1  0  0  0
  6 25  1  0  0  0
  6 97  1  0  0  0
  6 98  1  0  0  0
  7  8  2  0  0  0
  7 26  1  0  0  0
  7 29  1  0  0  0
  8  9  1  0  0  0
  8 22  1  0  0  0
  9 10  1  0  0  0
  9 27  2  0  0  0
 10 11  2  0  0  0
 10 15  1  0  0  0
 11 12  1  0  0  0
 11 99  1  0  0  0
 12 13  2  0  0  0
 12100  1  0  0  0
 13 14  1  0  0  0
 13 31  1  0  0  0
 14 15  2  0  0  0
 14101  1  0  0  0
 15102  1  0  0  0
 16 17  2  0  0  0
 16 21  1  0  0  0
 16 31  1  0  0  0
 17 18  1  0  0  0
 17103  1  0  0  0
 18 19  2  0  0  0
 18104  1  0  0  0
 19 20  1  0  0  0
 19 24  1  0  0  0
 20 21  2  0  0  0
 20105  1  0  0  0
 21 23  1  0  0  0
 22 28  1  0  0  0
 22 32  2  0  0  0
 26 27  1  0  0  0
 28106  1  0  0  0
 28107  1  0  0  0
 29108  1  0  0  0
 29109  1  0  0  0
 33 34  1  0  0  0
 33 66  1  0  0  0
 33 70  2  0  0  0
 34 36  1  0  0  0
 34 59  1  0  0  0
 34110  1  0  0  0
 35 44  2  0  0  0
 35 45  1  0  0  0
 35 68  1  0  0  0
 36 56  1  0  0  0
 36111  1  0  0  0
 37 39  1  0  0  0
 37 47  1  0  0  0
 37 66  1  0  0  0
 37112  1  0  0  0
 38 43  2  0  0  0
 38 46  1  0  0  0
 38 47  1  0  0  0
 39 64  1  0  0  0
 39 67  2  0  0  0
 40 52  1  0  0  0
 40 53  2  0  0  0
 40 58  1  0  0  0
 41113  1  0  0  0
 41114  1  0  0  0
 41115  1  0  0  0
 41 48  1  0  0  0
 42 43  1  0  0  0
 42 66  1  0  0  0
 42116  1  0  0  0
 42117  1  0  0  0
 43 44  1  0  0  0
 44118  1  0  0  0
 45 46  2  0  0  0
 45119  1  0  0  0
 46120  1  0  0  0
 47121  1  0  0  0
 47122  1  0  0  0
 48 56  1  0  0  0
 48 65  1  0  0  0
 48123  1  0  0  0
 49 50  1  0  0  0
 49 53  1  0  0  0
 49 64  1  0  0  0
 49124  1  0  0  0
 50 51  1  0  0  0
 50125  1  0  0  0
 50126  1  0  0  0
 51 52  1  0  0  0
 51127  1  0  0  0
 51128  1  0  0  0
 52129  1  0  0  0
 52130  1  0  0  0
 53 54  1  0  0  0
 54 55  2  0  0  0
 54131  1  0  0  0
 55 57  1  0  0  0
 55132  1  0  0  0
 56 69  2  0  0  0
 57 58  2  0  0  0
 57133  1  0  0  0
 58134  1  0  0  0
 59 60  1  0  0  0
 59 61  1  0  0  0
 59 62  1  0  0  0
 60135  1  0  0  0
 60136  1  0  0  0
 60137  1  0  0  0
 61138  1  0  0  0
 61139  1  0  0  0
 61140  1  0  0  0
 62141  1  0  0  0
 62142  1  0  0  0
 62143  1  0  0  0
 63 65  1  0  0  0
 63144  1  0  0  0
 63145  1  0  0  0
 63146  1  0  0  0
 64147  1  0  0  0
 65148  1  0  0  0
 68 86  1  0  0  0
 71 72  2  0  0  0
 71 73  1  0  0  0
 71149  1  0  0  0
 72 74  1  0  0  0
 73 75  2  0  0  0
 73 85  1  0  0  0
 74 76  2  0  0  0
 74 82  1  0  0  0
 75 76  1  0  0  0
 75 83  1  0  0  0
 76 84  1  0  0  0
 77 79  1  0  0  0
 77 81  1  0  0  0
 77150  1  0  0  0
 77151  1  0  0  0
 78 80  1  0  0  0
 78 81  1  0  0  0
 78152  1  0  0  0
 78153  1  0  0  0
 79 88  1  0  0  0
 79154  1  0  0  0
 79155  1  0  0  0
 80 88  1  0  0  0
 80156  1  0  0  0
 80157  1  0  0  0
 81 89  1  0  0  0
 81158  1  0  0  0
 82159  1  0  0  0
 82160  1  0  0  0
 82161  1  0  0  0
 83162  1  0  0  0
 83163  1  0  0  0
 83164  1  0  0  0
 84165  1  0  0  0
 84166  1  0  0  0
 84167  1  0  0  0
 85168  1  0  0  0
 85169  1  0  0  0
 85 88  1  0  0  0
 86 87  1  0  0  0
 86170  1  0  0  0
 86171  1  0  0  0
 87 89  1  0  0  0
 87172  1  0  0  0
 87173  1  0  0  0
 88174  1  0  0  0
M  CHG  1  88   1
M  ISO  4   1 100  68 101  72 100  86 101
M  END
> <chiral flag>
0

> <version>
0

> <s_m_source_file>
/data/baiqing/PycharmProjects/Reinvent-master-3.2/result/LINK_invent/BTK/process_docking_weight1_custom_sum_contain_oxygen_bond_distance_aromatic_linkinvent_7_9_3/rearranged_h_0155.sdf

> <i_m_source_file_index>
12

> <r_mmod_Potential_Energy-OPLS-2005>
54.2758865356445

> <r_mmod_Stretch_Energy-OPLS-2005>
47.8238143920898

> <r_mmod_Bend_Energy-OPLS-2005>
128.51399230957

> <r_mmod_Torsional_Energy-OPLS-2005>
324.091400146484

> <r_mmod_Improper_Torsional_Energy-OPLS-2005>
5.81335306167603

> <r_mmod_Van_der_Waal_Energy-OPLS-2005>
169.034652709961

> <r_mmod_Electrostatic_Energy-OPLS-2005>
-239.947708129883

> <r_mmod_Solvation_Energy-OPLS-2005>
-409.279418945312

> <b_mmod_Minimization_Converged-OPLS-2005>
0

> <r_mmod_RMS_Derivative-OPLS-2005>
5.51411151885986

$$$$
12
                    3D
 Structure written by MMmdl.
168178  0  0  1  0            999 V2000
  -30.7040  -14.5008   20.5094 C   0  0  0  0  0  0
  -30.4165  -12.3104   19.4257 C   0  0  0  0  0  0
  -29.4903  -12.4797   18.2046 C   0  0  0  0  0  0
  -28.0128  -12.3508   18.6245 C   0  0  0  0  0  0
  -27.6547  -13.2089   19.8693 C   0  0  2  0  0  0
  -28.7039  -13.0407   20.9907 C   0  0  0  0  0  0
  -25.2573  -13.8147   20.5712 C   0  0  0  0  0  0
  -24.1822  -13.0419   20.9187 C   0  0  0  0  0  0
  -24.6387  -11.6893   20.8758 C   0  0  0  0  0  0
  -23.9057  -10.4280   21.0418 C   0  0  0  0  0  0
  -24.3604   -9.4193   21.9192 C   0  0  0  0  0  0
  -23.6278   -8.2229   22.0758 C   0  0  0  0  0  0
  -22.4262   -8.0271   21.3550 C   0  0  0  0  0  0
  -21.9908   -9.0244   20.4651 C   0  0  0  0  0  0
  -22.7233  -10.2124   20.3061 C   0  0  0  0  0  0
  -21.6849   -6.0731   22.5289 C   0  0  0  0  0  0
  -21.4004   -6.5633   23.8217 C   0  0  0  0  0  0
  -21.3651   -5.6791   24.9182 C   0  0  0  0  0  0
  -21.6040   -4.3055   24.7245 C   0  0  0  0  0  0
  -21.8818   -3.8140   23.4363 C   0  0  0  0  0  0
  -21.9186   -4.6954   22.3413 C   0  0  0  0  0  0
  -22.7850  -13.5226   21.1839 C   0  0  0  0  0  0
  -22.1654   -4.2137   21.0996 F   0  0  0  0  0  0
  -21.5635   -3.4541   25.7758 F   0  0  0  0  0  0
  -30.0223  -13.3270   20.4127 N   0  0  0  0  0  0
  -26.3001  -12.9319   20.3389 N   0  0  0  0  0  0
  -25.9318  -11.6478   20.5807 N   0  0  0  0  0  0
  -22.0478  -12.8227   22.0398 N   0  0  0  0  0  0
  -25.4303  -15.1861   20.4145 N   0  0  0  0  0  0
  -31.8874  -14.6048   20.1710 O   0  0  0  0  0  0
  -21.6623   -6.8868   21.4248 O   0  0  0  0  0  0
  -22.3546  -14.5542   20.6700 O   0  0  0  0  0  0
  -24.6152  -31.8656   23.2087 C   0  0  0  0  0  0
  -25.9041  -32.4804   23.8392 C   0  0  1  0  0  0
  -27.2340  -27.4133   20.0989 C   0  0  0  0  0  0
  -25.5893  -33.8602   24.2329 N   0  0  0  0  0  0
  -23.4045  -30.4868   21.5493 C   0  0  2  0  0  0
  -24.8504  -28.9496   20.1139 C   0  0  0  0  0  0
  -22.7418  -29.4636   22.5000 C   0  0  0  0  0  0
  -18.0255  -28.1380   22.8483 C   0  0  0  0  0  0
  -24.1474  -36.7288   23.2650 C   0  0  0  0  0  0
  -25.9340  -30.8256   21.3627 C   0  0  0  0  0  0
  -26.0101  -29.4572   20.7117 C   0  0  0  0  0  0
  -27.2011  -28.6949   20.7015 C   0  0  0  0  0  0
  -26.0551  -26.9246   19.4907 C   0  0  0  0  0  0
  -24.8689  -27.6846   19.5010 C   0  0  0  0  0  0
  -23.6120  -29.8166   20.1644 C   0  0  0  0  0  0
  -25.4101  -36.3099   24.0348 C   0  0  1  0  0  0
  -20.5849  -28.3654   23.1308 C   0  0  2  0  0  0
  -20.6739  -26.9391   22.5406 C   0  0  0  0  0  0
  -19.5730  -26.6384   21.5194 C   0  0  0  0  0  0
  -18.1903  -26.7925   22.1605 C   0  0  0  0  0  0
  -19.1504  -28.8836   23.2887 C   0  0  0  0  0  0
  -18.9449  -30.1437   23.8905 C   0  0  0  0  0  0
  -17.6456  -30.6590   24.0552 C   0  0  0  0  0  0
  -25.9041  -34.9464   23.5147 C   0  0  0  0  0  0
  -16.5341  -29.9094   23.6333 C   0  0  0  0  0  0
  -16.7245  -28.6506   23.0364 C   0  0  0  0  0  0
  -26.4489  -31.6584   25.0720 C   0  0  0  0  0  0
  -25.3754  -31.3605   26.1446 C   0  0  0  0  0  0
  -27.0367  -30.3060   24.6067 C   0  0  0  0  0  0
  -27.6077  -32.4301   25.7472 C   0  0  0  0  0  0
  -27.5569  -37.1795   24.8480 C   0  0  0  0  0  0
  -21.4147  -29.3015   22.3728 N   0  0  0  0  0  0
  -26.4281  -37.3785   23.9424 N   0  0  0  0  0  0
  -24.6695  -31.0741   22.0992 N   0  0  0  0  0  0
  -23.4178  -28.8191   23.3059 O   0  0  0  0  0  0
  -28.4208  -26.7038   20.1356 O   0  0  0  0  0  0
  -26.5605  -34.8915   22.4707 O   0  0  0  0  0  0
  -23.5342  -32.1427   23.7465 O   0  0  0  0  0  0
  -28.7815  -20.8066   21.7334 C   0  0  0  0  0  0
  -28.8491  -20.7544   19.3005 C   0  0  0  0  0  0
  -29.0190  -20.0746   20.5406 C   0  0  0  0  0  0
  -28.4030  -22.1658   21.6511 C   0  0  0  0  0  0
  -28.2313  -22.8203   20.4320 C   0  0  0  0  0  0
  -28.4442  -22.1120   19.2299 C   0  0  0  0  0  0
  -28.1712  -23.1017   22.8080 C   0  0  0  0  0  0
  -28.1071  -24.4986   22.1454 C   0  0  0  0  0  0
  -29.6030  -17.8748   21.9025 C   0  0  0  0  0  0
  -28.8704  -17.6565   19.5776 C   0  0  0  0  0  0
  -30.3685  -16.5227   21.7988 C   0  0  0  0  0  0
  -29.6988  -16.3625   19.4269 C   0  0  0  0  0  0
  -29.5652  -18.6231   20.5519 C   0  0  0  0  0  0
  -27.8232  -24.2819   20.6361 C   0  0  1  0  0  0
  -26.9951  -22.7632   17.5198 C   0  0  0  0  0  0
  -28.4991  -25.3308   19.7012 C   0  0  0  0  0  0
  -29.9601  -15.6298   20.6883 N   0  0  0  0  0  0
  -28.3265  -22.7185   18.0084 O   0  0  0  0  0  0
  -31.4621  -12.3974   19.1226 H   0  0  0  0  0  0
  -30.3102  -11.3116   19.8512 H   0  0  0  0  0  0
  -29.7250  -11.7303   17.4463 H   0  0  0  0  0  0
  -29.6612  -13.4493   17.7352 H   0  0  0  0  0  0
  -27.8258  -11.2983   18.8381 H   0  0  0  0  0  0
  -27.3606  -12.6088   17.7902 H   0  0  0  0  0  0
  -27.6756  -14.2484   19.5481 H   0  0  0  0  0  0
  -28.6874  -12.0233   21.3855 H   0  0  0  0  0  0
  -28.4858  -13.6993   21.8331 H   0  0  0  0  0  0
  -25.2750   -9.5657   22.4772 H   0  0  0  0  0  0
  -23.9977   -7.4619   22.7481 H   0  0  0  0  0  0
  -21.0837   -8.8766   19.8963 H   0  0  0  0  0  0
  -22.3693  -10.9664   19.6171 H   0  0  0  0  0  0
  -21.1990   -7.6143   23.9719 H   0  0  0  0  0  0
  -21.1473   -6.0527   25.9085 H   0  0  0  0  0  0
  -22.0604   -2.7605   23.2880 H   0  0  0  0  0  0
  -22.4084  -11.9890   22.4790 H   0  0  0  0  0  0
  -21.1103  -13.1275   22.2608 H   0  0  0  0  0  0
  -24.6698  -15.8464   20.5334 H   0  0  0  0  0  0
  -26.3007  -15.6265   20.1449 H   0  0  0  0  0  0
  -26.7107  -32.5530   23.1151 H   0  0  0  0  0  0
  -25.0043  -33.9757   25.0474 H   0  0  0  0  0  0
  -22.6940  -31.3039   21.4081 H   0  0  0  0  0  0
  -23.3756  -35.9608   23.3322 H   0  0  0  0  0  0
  -24.3563  -36.8901   22.2066 H   0  0  0  0  0  0
  -23.7204  -37.6484   23.6666 H   0  0  0  0  0  0
  -26.0454  -31.5892   20.5915 H   0  0  0  0  0  0
  -26.8235  -30.8835   21.9788 H   0  0  0  0  0  0
  -28.0975  -29.0823   21.1660 H   0  0  0  0  0  0
  -26.0306  -25.9611   19.0035 H   0  0  0  0  0  0
  -23.9763  -27.2916   19.0340 H   0  0  0  0  0  0
  -23.7144  -30.5898   19.4019 H   0  0  0  0  0  0
  -22.7372  -29.2320   19.8743 H   0  0  0  0  0  0
  -25.1263  -36.1972   25.0842 H   0  0  0  0  0  0
  -20.9915  -28.3211   24.1441 H   0  0  0  0  0  0
  -20.5637  -26.2257   23.3585 H   0  0  0  0  0  0
  -21.6610  -26.7434   22.1205 H   0  0  0  0  0  0
  -19.6900  -25.6302   21.1212 H   0  0  0  0  0  0
  -19.6681  -27.3202   20.6735 H   0  0  0  0  0  0
  -17.4166  -26.6667   21.4009 H   0  0  0  0  0  0
  -18.0310  -26.0066   22.9006 H   0  0  0  0  0  0
  -19.7934  -30.7226   24.2302 H   0  0  0  0  0  0
  -17.5024  -31.6280   24.5143 H   0  0  0  0  0  0
  -15.5348  -30.3001   23.7671 H   0  0  0  0  0  0
  -15.8631  -28.0820   22.7109 H   0  0  0  0  0  0
  -24.5980  -30.6907   25.7740 H   0  0  0  0  0  0
  -24.8862  -32.2697   26.4949 H   0  0  0  0  0  0
  -25.8106  -30.8737   27.0181 H   0  0  0  0  0  0
  -26.2940  -29.6773   24.1139 H   0  0  0  0  0  0
  -27.4219  -29.7310   25.4499 H   0  0  0  0  0  0
  -27.8712  -30.4443   23.9190 H   0  0  0  0  0  0
  -27.2769  -33.3656   26.1997 H   0  0  0  0  0  0
  -28.3907  -32.6759   25.0283 H   0  0  0  0  0  0
  -28.0721  -31.8434   26.5411 H   0  0  0  0  0  0
  -28.2583  -38.0093   24.7538 H   0  0  0  0  0  0
  -28.1057  -36.2619   24.6301 H   0  0  0  0  0  0
  -27.2269  -37.1438   25.8875 H   0  0  0  0  0  0
  -20.9333  -29.8722   21.6921 H   0  0  0  0  0  0
  -26.0170  -38.2865   24.1437 H   0  0  0  0  0  0
  -28.9179  -20.3559   22.7052 H   0  0  0  0  0  0
  -29.0543  -20.2433   18.3720 H   0  0  0  0  0  0
  -28.9678  -23.0335   23.5501 H   0  0  0  0  0  0
  -27.2261  -22.8495   23.2897 H   0  0  0  0  0  0
  -29.0910  -24.9584   22.2466 H   0  0  0  0  0  0
  -27.3949  -25.1720   22.6241 H   0  0  0  0  0  0
  -30.1004  -18.4789   22.6626 H   0  0  0  0  0  0
  -28.5873  -17.7027   22.2635 H   0  0  0  0  0  0
  -27.8584  -17.4320   19.9166 H   0  0  0  0  0  0
  -28.7675  -18.0959   18.5872 H   0  0  0  0  0  0
  -30.2683  -15.9807   22.7410 H   0  0  0  0  0  0
  -31.4328  -16.7453   21.6973 H   0  0  0  0  0  0
  -30.6551  -16.6219   18.9653 H   0  0  0  0  0  0
  -29.2015  -15.7068   18.7116 H   0  0  0  0  0  0
  -30.5997  -18.7364   20.2244 H   0  0  0  0  0  0
  -26.7436  -24.3203   20.4922 H   0  0  0  0  0  0
  -26.3458  -23.3417   18.1785 H   0  0  0  0  0  0
  -26.5799  -21.7597   17.4091 H   0  0  0  0  0  0
  -26.9859  -23.2399   16.5386 H   0  0  0  0  0  0
  -28.1442  -25.2388   18.6745 H   0  0  0  0  0  0
  -29.5653  -25.1033   19.6591 H   0  0  0  0  0  0
  1 25  1  0  0  0
  1 30  2  0  0  0
  1 87  1  0  0  0
  2  3  1  0  0  0
  2 25  1  0  0  0
  2 89  1  0  0  0
  2 90  1  0  0  0
  3  4  1  0  0  0
  3 91  1  0  0  0
  3 92  1  0  0  0
  4  5  1  0  0  0
  4 93  1  0  0  0
  4 94  1  0  0  0
  5  6  1  0  0  0
  5 26  1  0  0  0
  5 95  1  0  0  0
  6 25  1  0  0  0
  6 96  1  0  0  0
  6 97  1  0  0  0
  7  8  2  0  0  0
  7 26  1  0  0  0
  7 29  1  0  0  0
  8  9  1  0  0  0
  8 22  1  0  0  0
  9 10  1  0  0  0
  9 27  2  0  0  0
 10 11  2  0  0  0
 10 15  1  0  0  0
 11 12  1  0  0  0
 11 98  1  0  0  0
 12 13  2  0  0  0
 12 99  1  0  0  0
 13 14  1  0  0  0
 13 31  1  0  0  0
 14 15  2  0  0  0
 14100  1  0  0  0
 15101  1  0  0  0
 16 17  2  0  0  0
 16 21  1  0  0  0
 16 31  1  0  0  0
 17 18  1  0  0  0
 17102  1  0  0  0
 18 19  2  0  0  0
 18103  1  0  0  0
 19 20  1  0  0  0
 19 24  1  0  0  0
 20 21  2  0  0  0
 20104  1  0  0  0
 21 23  1  0  0  0
 22 28  1  0  0  0
 22 32  2  0  0  0
 26 27  1  0  0  0
 28105  1  0  0  0
 28106  1  0  0  0
 29107  1  0  0  0
 29108  1  0  0  0
 33 34  1  0  0  0
 33 66  1  0  0  0
 33 70  2  0  0  0
 34 36  1  0  0  0
 34 59  1  0  0  0
 34109  1  0  0  0
 35 44  2  0  0  0
 35 45  1  0  0  0
 35 68  1  0  0  0
 36 56  1  0  0  0
 36110  1  0  0  0
 37 39  1  0  0  0
 37 47  1  0  0  0
 37 66  1  0  0  0
 37111  1  0  0  0
 38 43  2  0  0  0
 38 46  1  0  0  0
 38 47  1  0  0  0
 39 64  1  0  0  0
 39 67  2  0  0  0
 40 52  1  0  0  0
 40 53  2  0  0  0
 40 58  1  0  0  0
 41112  1  0  0  0
 41113  1  0  0  0
 41114  1  0  0  0
 41 48  1  0  0  0
 42 43  1  0  0  0
 42 66  1  0  0  0
 42115  1  0  0  0
 42116  1  0  0  0
 43 44  1  0  0  0
 44117  1  0  0  0
 45 46  2  0  0  0
 45118  1  0  0  0
 46119  1  0  0  0
 47120  1  0  0  0
 47121  1  0  0  0
 48 56  1  0  0  0
 48 65  1  0  0  0
 48122  1  0  0  0
 49 50  1  0  0  0
 49 53  1  0  0  0
 49 64  1  0  0  0
 49123  1  0  0  0
 50 51  1  0  0  0
 50124  1  0  0  0
 50125  1  0  0  0
 51 52  1  0  0  0
 51126  1  0  0  0
 51127  1  0  0  0
 52128  1  0  0  0
 52129  1  0  0  0
 53 54  1  0  0  0
 54 55  2  0  0  0
 54130  1  0  0  0
 55 57  1  0  0  0
 55131  1  0  0  0
 56 69  2  0  0  0
 57 58  2  0  0  0
 57132  1  0  0  0
 58133  1  0  0  0
 59 60  1  0  0  0
 59 61  1  0  0  0
 59 62  1  0  0  0
 60134  1  0  0  0
 60135  1  0  0  0
 60136  1  0  0  0
 61137  1  0  0  0
 61138  1  0  0  0
 61139  1  0  0  0
 62140  1  0  0  0
 62141  1  0  0  0
 62142  1  0  0  0
 63 65  1  0  0  0
 63143  1  0  0  0
 63144  1  0  0  0
 63145  1  0  0  0
 64146  1  0  0  0
 65147  1  0  0  0
 68 86  1  0  0  0
 71 73  2  0  0  0
 71 74  1  0  0  0
 71148  1  0  0  0
 72 73  1  0  0  0
 72 76  2  0  0  0
 72149  1  0  0  0
 73 83  1  0  0  0
 74 75  2  0  0  0
 74 77  1  0  0  0
 75 76  1  0  0  0
 75 84  1  0  0  0
 76 88  1  0  0  0
 77 78  1  0  0  0
 77150  1  0  0  0
 77151  1  0  0  0
 78 84  1  0  0  0
 78152  1  0  0  0
 78153  1  0  0  0
 79 81  1  0  0  0
 79 83  1  0  0  0
 79154  1  0  0  0
 79155  1  0  0  0
 80 82  1  0  0  0
 80 83  1  0  0  0
 80156  1  0  0  0
 80157  1  0  0  0
 81 87  1  0  0  0
 81158  1  0  0  0
 81159  1  0  0  0
 82 87  1  0  0  0
 82160  1  0  0  0
 82161  1  0  0  0
 83162  1  0  0  0
 84 86  1  0  0  0
 84163  1  0  0  0
 85 88  1  0  0  0
 85164  1  0  0  0
 85165  1  0  0  0
 85166  1  0  0  0
 86167  1  0  0  0
 86168  1  0  0  0
M  ISO  4   1 100  68 101  86 101  87 100
M  END
> <chiral flag>
0

> <version>
0

> <s_m_source_file>
/data/baiqing/PycharmProjects/Reinvent-master-3.2/result/LINK_invent/BTK/process_docking_weight1_custom_sum_contain_oxygen_bond_distance_aromatic_linkinvent_7_9_3/rearranged_h_0155.sdf

> <i_m_source_file_index>
13

> <r_mmod_Potential_Energy-OPLS-2005>
264.760375976562

> <r_mmod_Stretch_Energy-OPLS-2005>
45.9785385131836

> <r_mmod_Bend_Energy-OPLS-2005>
172.209838867188

> <r_mmod_Torsional_Energy-OPLS-2005>
363.975860595703

> <r_mmod_Improper_Torsional_Energy-OPLS-2005>
12.2664442062378

> <r_mmod_Van_der_Waal_Energy-OPLS-2005>
143.128128051758

> <r_mmod_Electrostatic_Energy-OPLS-2005>
-301.424560546875

> <r_mmod_Solvation_Energy-OPLS-2005>
-191.980880737305

> <b_mmod_Minimization_Converged-OPLS-2005>
0

> <r_mmod_RMS_Derivative-OPLS-2005>
1.82933413982391

$$$$
13
                    3D
 Structure written by MMmdl.
183192  0  0  1  0            999 V2000
  -30.8167  -14.3071   20.7409 C   0  0  0  0  0  0
  -30.4141  -12.2936   19.3793 C   0  0  0  0  0  0
  -29.4783  -12.5449   18.1851 C   0  0  0  0  0  0
  -28.0052  -12.3937   18.6054 C   0  0  0  0  0  0
  -27.6676  -13.2070   19.8812 C   0  0  2  0  0  0
  -28.7054  -12.9480   20.9948 C   0  0  0  0  0  0
  -25.2603  -13.8166   20.5685 C   0  0  0  0  0  0
  -24.1849  -13.0440   20.9166 C   0  0  0  0  0  0
  -24.6405  -11.6913   20.8723 C   0  0  0  0  0  0
  -23.9072  -10.4295   21.0397 C   0  0  0  0  0  0
  -24.3619   -9.4207   21.9179 C   0  0  0  0  0  0
  -23.6292   -8.2248   22.0752 C   0  0  0  0  0  0
  -22.4278   -8.0283   21.3543 C   0  0  0  0  0  0
  -21.9913   -9.0256   20.4646 C   0  0  0  0  0  0
  -22.7241  -10.2135   20.3048 C   0  0  0  0  0  0
  -21.6852   -6.0735   22.5272 C   0  0  0  0  0  0
  -21.4019   -6.5639   23.8206 C   0  0  0  0  0  0
  -21.3663   -5.6793   24.9174 C   0  0  0  0  0  0
  -21.6045   -4.3053   24.7225 C   0  0  0  0  0  0
  -21.8819   -3.8144   23.4343 C   0  0  0  0  0  0
  -21.9194   -4.6962   22.3397 C   0  0  0  0  0  0
  -22.7868  -13.5238   21.1839 C   0  0  0  0  0  0
  -22.1660   -4.2147   21.0975 F   0  0  0  0  0  0
  -21.5631   -3.4535   25.7740 F   0  0  0  0  0  0
  -30.0545  -13.2204   20.4619 N   0  0  0  0  0  0
  -26.3051  -12.9350   20.3392 N   0  0  0  0  0  0
  -25.9329  -11.6498   20.5748 N   0  0  0  0  0  0
  -22.0513  -12.8225   22.0395 N   0  0  0  0  0  0
  -25.4299  -15.1890   20.4099 N   0  0  0  0  0  0
  -31.7908  -14.6427   20.0607 O   0  0  0  0  0  0
  -21.6641   -6.8879   21.4239 O   0  0  0  0  0  0
  -22.3545  -14.5543   20.6690 O   0  0  0  0  0  0
  -24.6075  -31.8729   23.2174 C   0  0  0  0  0  0
  -25.9011  -32.4844   23.8427 C   0  0  1  0  0  0
  -27.2346  -27.4838   20.0666 C   0  0  0  0  0  0
  -25.5938  -33.8645   24.2369 N   0  0  0  0  0  0
  -23.3925  -30.4978   21.5588 C   0  0  2  0  0  0
  -24.8340  -28.9638   20.1258 C   0  0  0  0  0  0
  -22.7371  -29.4684   22.5055 C   0  0  0  0  0  0
  -18.0276  -28.1351   22.8485 C   0  0  0  0  0  0
  -24.1508  -36.7335   23.2625 C   0  0  0  0  0  0
  -25.9152  -30.8501   21.3603 C   0  0  0  0  0  0
  -25.9918  -29.4819   20.7199 C   0  0  0  0  0  0
  -27.1916  -28.7418   20.7003 C   0  0  0  0  0  0
  -26.0494  -26.9536   19.5060 C   0  0  0  0  0  0
  -24.8509  -27.6911   19.5311 C   0  0  0  0  0  0
  -23.5955  -29.8296   20.1720 C   0  0  0  0  0  0
  -25.4113  -36.3116   24.0322 C   0  0  1  0  0  0
  -20.5853  -28.3642   23.1326 C   0  0  2  0  0  0
  -20.6767  -26.9392   22.5397 C   0  0  0  0  0  0
  -19.5749  -26.6372   21.5196 C   0  0  0  0  0  0
  -18.1930  -26.7914   22.1590 C   0  0  0  0  0  0
  -19.1516  -28.8810   23.2912 C   0  0  0  0  0  0
  -18.9442  -30.1426   23.8900 C   0  0  0  0  0  0
  -17.6458  -30.6568   24.0542 C   0  0  0  0  0  0
  -25.9026  -34.9477   23.5121 C   0  0  0  0  0  0
  -16.5343  -29.9073   23.6319 C   0  0  0  0  0  0
  -16.7263  -28.6468   23.0348 C   0  0  0  0  0  0
  -26.4490  -31.6594   25.0712 C   0  0  0  0  0  0
  -25.3766  -31.3681   26.1466 C   0  0  0  0  0  0
  -27.0322  -30.3047   24.6025 C   0  0  0  0  0  0
  -27.6076  -32.4324   25.7467 C   0  0  0  0  0  0
  -27.5601  -37.1808   24.8455 C   0  0  0  0  0  0
  -21.4100  -29.3033   22.3756 N   0  0  0  0  0  0
  -26.4311  -37.3785   23.9404 N   0  0  0  0  0  0
  -24.6570  -31.0882   22.1061 N   0  0  0  0  0  0
  -23.4148  -28.8197   23.3066 O   0  0  0  0  0  0
  -28.4390  -26.8230   20.0087 O   0  0  0  0  0  0
  -26.5543  -34.8908   22.4653 O   0  0  0  0  0  0
  -23.5283  -32.1492   23.7594 O   0  0  0  0  0  0
  -30.3959  -19.2756   20.8712 C   0  0  0  0  0  0
  -32.5923  -17.5841   21.1406 C   0  0  0  0  0  0
  -31.6300  -19.6779   20.3006 C   0  0  0  0  0  0
  -30.2643  -18.0856   21.6152 C   0  0  0  0  0  0
  -32.7178  -18.7557   20.3666 C   0  0  0  0  0  0
  -31.3854  -17.2447   21.7763 C   0  0  0  0  0  0
  -31.0014  -22.1806   20.4712 C   0  0  0  0  0  0
  -31.1214  -21.0444   18.2040 C   0  0  0  0  0  0
  -30.2396  -23.2076   19.6140 C   0  0  0  0  0  0
  -31.2543  -22.4190   17.4993 C   0  0  0  0  0  0
  -31.7028  -21.0691   19.6316 C   0  0  2  0  0  0
  -28.9214  -17.7368   22.2382 C   0  0  0  0  0  0
  -30.5157  -27.3201   17.8070 C   0  0  0  0  0  0
  -36.1164  -19.9220   19.4465 C   0  0  0  0  0  0
  -31.3172  -15.9389   22.5593 C   0  0  0  0  0  0
  -34.0074  -18.9039   19.5748 C   0  0  0  0  0  0
  -30.5477  -24.7803   17.6540 C   0  0  0  0  0  0
  -28.6566  -25.9952   18.8710 C   0  0  0  0  0  0
  -30.1618  -26.0057   18.5222 C   0  0  2  0  0  0
  -30.5230  -14.9078   21.8999 N   0  0  0  0  0  0
  -31.0213  -23.5827   18.4061 N   0  3  1  0  0  0
  -33.0208  -21.5696   19.4957 O   0  0  0  0  0  0
  -34.9012  -19.8271   20.1763 O   0  0  0  0  0  0
  -31.4542  -12.4026   19.0656 H   0  0  0  0  0  0
  -30.3184  -11.2655   19.7319 H   0  0  0  0  0  0
  -29.7087  -11.8533   17.3732 H   0  0  0  0  0  0
  -29.6471  -13.5483   17.7902 H   0  0  0  0  0  0
  -27.8100  -11.3345   18.7742 H   0  0  0  0  0  0
  -27.3511  -12.6962   17.7874 H   0  0  0  0  0  0
  -27.7276  -14.2630   19.6161 H   0  0  0  0  0  0
  -28.6588  -11.9085   21.3217 H   0  0  0  0  0  0
  -28.4499  -13.5400   21.8729 H   0  0  0  0  0  0
  -25.2765   -9.5689   22.4746 H   0  0  0  0  0  0
  -24.0003   -7.4644   22.7471 H   0  0  0  0  0  0
  -21.0840   -8.8778   19.8946 H   0  0  0  0  0  0
  -22.3700  -10.9678   19.6153 H   0  0  0  0  0  0
  -21.2013   -7.6149   23.9714 H   0  0  0  0  0  0
  -21.1486   -6.0523   25.9079 H   0  0  0  0  0  0
  -22.0595   -2.7606   23.2846 H   0  0  0  0  0  0
  -22.4126  -11.9892   22.4793 H   0  0  0  0  0  0
  -21.1123  -13.1235   22.2585 H   0  0  0  0  0  0
  -24.6621  -15.8431   20.5180 H   0  0  0  0  0  0
  -26.2885  -15.6324   20.1065 H   0  0  0  0  0  0
  -26.7058  -32.5544   23.1182 H   0  0  0  0  0  0
  -25.0256  -33.9853   25.0627 H   0  0  0  0  0  0
  -22.6772  -31.3107   21.4251 H   0  0  0  0  0  0
  -23.3748  -35.9691   23.3289 H   0  0  0  0  0  0
  -24.3590  -36.8941   22.2040 H   0  0  0  0  0  0
  -23.7295  -37.6554   23.6632 H   0  0  0  0  0  0
  -26.0020  -31.6098   20.5802 H   0  0  0  0  0  0
  -26.8135  -30.9212   21.9599 H   0  0  0  0  0  0
  -28.0923  -29.1463   21.1430 H   0  0  0  0  0  0
  -26.0345  -25.9754   19.0497 H   0  0  0  0  0  0
  -23.9526  -27.2738   19.0971 H   0  0  0  0  0  0
  -23.6975  -30.6048   19.4113 H   0  0  0  0  0  0
  -22.7200  -29.2440   19.8810 H   0  0  0  0  0  0
  -25.1281  -36.2005   25.0813 H   0  0  0  0  0  0
  -20.9929  -28.3222   24.1455 H   0  0  0  0  0  0
  -20.5695  -26.2262   23.3585 H   0  0  0  0  0  0
  -21.6643  -26.7472   22.1185 H   0  0  0  0  0  0
  -19.6918  -25.6287   21.1234 H   0  0  0  0  0  0
  -19.6698  -27.3143   20.6701 H   0  0  0  0  0  0
  -17.4226  -26.6676   21.3977 H   0  0  0  0  0  0
  -18.0313  -26.0036   22.8958 H   0  0  0  0  0  0
  -19.7924  -30.7236   24.2278 H   0  0  0  0  0  0
  -17.5015  -31.6258   24.5129 H   0  0  0  0  0  0
  -15.5338  -30.2971   23.7651 H   0  0  0  0  0  0
  -15.8659  -28.0786   22.7083 H   0  0  0  0  0  0
  -24.6016  -30.6918   25.7858 H   0  0  0  0  0  0
  -24.8855  -32.2821   26.4817 H   0  0  0  0  0  0
  -25.8152  -30.8985   27.0280 H   0  0  0  0  0  0
  -26.2834  -29.6785   24.1153 H   0  0  0  0  0  0
  -27.4235  -29.7296   25.4435 H   0  0  0  0  0  0
  -27.8605  -30.4408   23.9050 H   0  0  0  0  0  0
  -27.2715  -33.3662   26.1980 H   0  0  0  0  0  0
  -28.3921  -32.6820   25.0310 H   0  0  0  0  0  0
  -28.0693  -31.8479   26.5431 H   0  0  0  0  0  0
  -28.2589  -38.0150   24.7548 H   0  0  0  0  0  0
  -28.1144  -36.2667   24.6239 H   0  0  0  0  0  0
  -27.2303  -37.1410   25.8857 H   0  0  0  0  0  0
  -20.9260  -29.8795   21.7000 H   0  0  0  0  0  0
  -26.0203  -38.2866   24.1408 H   0  0  0  0  0  0
  -29.5206  -19.8947   20.7436 H   0  0  0  0  0  0
  -33.4315  -16.9065   21.2147 H   0  0  0  0  0  0
  -30.2760  -21.7971   21.1860 H   0  0  0  0  0  0
  -31.7261  -22.6898   21.1087 H   0  0  0  0  0  0
  -31.5980  -20.2782   17.5910 H   0  0  0  0  0  0
  -30.0681  -20.7648   18.2566 H   0  0  0  0  0  0
  -30.0422  -24.0594   20.2589 H   0  0  0  0  0  0
  -29.2694  -22.8137   19.3097 H   0  0  0  0  0  0
  -30.5679  -22.4373   16.6531 H   0  0  0  0  0  0
  -32.2534  -22.5225   17.0723 H   0  0  0  0  0  0
  -28.1752  -18.5091   22.0488 H   0  0  0  0  0  0
  -29.0194  -17.6289   23.3192 H   0  0  0  0  0  0
  -28.5387  -16.7998   21.8313 H   0  0  0  0  0  0
  -31.5902  -27.4061   17.6417 H   0  0  0  0  0  0
  -30.2114  -28.1842   18.3992 H   0  0  0  0  0  0
  -30.0241  -27.3896   16.8347 H   0  0  0  0  0  0
  -36.7689  -20.6660   19.9028 H   0  0  0  0  0  0
  -35.9388  -20.2214   18.4121 H   0  0  0  0  0  0
  -36.6479  -18.9688   19.4430 H   0  0  0  0  0  0
  -30.8971  -16.1320   23.5472 H   0  0  0  0  0  0
  -32.3230  -15.5523   22.7372 H   0  0  0  0  0  0
  -33.7653  -19.2021   18.5527 H   0  0  0  0  0  0
  -34.4942  -17.9292   19.4929 H   0  0  0  0  0  0
  -31.3594  -25.0562   16.9779 H   0  0  0  0  0  0
  -29.7067  -24.5165   17.0094 H   0  0  0  0  0  0
  -28.2880  -24.9938   19.0946 H   0  0  0  0  0  0
  -28.0982  -26.3391   18.0001 H   0  0  0  0  0  0
  -30.7493  -25.9940   19.4407 H   0  0  0  0  0  0
  -29.7318  -14.5468   22.4104 H   0  0  0  0  0  0
  -31.9363  -23.8232   18.7683 H   0  0  0  0  0  0
  -33.6171  -20.9620   19.9384 H   0  0  0  0  0  0
  1 25  1  0  0  0
  1 30  2  0  0  0
  1 90  1  0  0  0
  2  3  1  0  0  0
  2 25  1  0  0  0
  2 94  1  0  0  0
  2 95  1  0  0  0
  3  4  1  0  0  0
  3 96  1  0  0  0
  3 97  1  0  0  0
  4  5  1  0  0  0
  4 98  1  0  0  0
  4 99  1  0  0  0
  5  6  1  0  0  0
  5 26  1  0  0  0
  5100  1  0  0  0
  6 25  1  0  0  0
  6101  1  0  0  0
  6102  1  0  0  0
  7  8  2  0  0  0
  7 26  1  0  0  0
  7 29  1  0  0  0
  8  9  1  0  0  0
  8 22  1  0  0  0
  9 10  1  0  0  0
  9 27  2  0  0  0
 10 11  2  0  0  0
 10 15  1  0  0  0
 11 12  1  0  0  0
 11103  1  0  0  0
 12 13  2  0  0  0
 12104  1  0  0  0
 13 14  1  0  0  0
 13 31  1  0  0  0
 14 15  2  0  0  0
 14105  1  0  0  0
 15106  1  0  0  0
 16 17  2  0  0  0
 16 21  1  0  0  0
 16 31  1  0  0  0
 17 18  1  0  0  0
 17107  1  0  0  0
 18 19  2  0  0  0
 18108  1  0  0  0
 19 20  1  0  0  0
 19 24  1  0  0  0
 20 21  2  0  0  0
 20109  1  0  0  0
 21 23  1  0  0  0
 22 28  1  0  0  0
 22 32  2  0  0  0
 26 27  1  0  0  0
 28110  1  0  0  0
 28111  1  0  0  0
 29112  1  0  0  0
 29113  1  0  0  0
 33 34  1  0  0  0
 33 66  1  0  0  0
 33 70  2  0  0  0
 34 36  1  0  0  0
 34 59  1  0  0  0
 34114  1  0  0  0
 35 44  2  0  0  0
 35 45  1  0  0  0
 35 68  1  0  0  0
 36 56  1  0  0  0
 36115  1  0  0  0
 37 39  1  0  0  0
 37 47  1  0  0  0
 37 66  1  0  0  0
 37116  1  0  0  0
 38 43  2  0  0  0
 38 46  1  0  0  0
 38 47  1  0  0  0
 39 64  1  0  0  0
 39 67  2  0  0  0
 40 52  1  0  0  0
 40 53  2  0  0  0
 40 58  1  0  0  0
 41117  1  0  0  0
 41118  1  0  0  0
 41119  1  0  0  0
 41 48  1  0  0  0
 42 43  1  0  0  0
 42 66  1  0  0  0
 42120  1  0  0  0
 42121  1  0  0  0
 43 44  1  0  0  0
 44122  1  0  0  0
 45 46  2  0  0  0
 45123  1  0  0  0
 46124  1  0  0  0
 47125  1  0  0  0
 47126  1  0  0  0
 48 56  1  0  0  0
 48 65  1  0  0  0
 48127  1  0  0  0
 49 50  1  0  0  0
 49 53  1  0  0  0
 49 64  1  0  0  0
 49128  1  0  0  0
 50 51  1  0  0  0
 50129  1  0  0  0
 50130  1  0  0  0
 51 52  1  0  0  0
 51131  1  0  0  0
 51132  1  0  0  0
 52133  1  0  0  0
 52134  1  0  0  0
 53 54  1  0  0  0
 54 55  2  0  0  0
 54135  1  0  0  0
 55 57  1  0  0  0
 55136  1  0  0  0
 56 69  2  0  0  0
 57 58  2  0  0  0
 57137  1  0  0  0
 58138  1  0  0  0
 59 60  1  0  0  0
 59 61  1  0  0  0
 59 62  1  0  0  0
 60139  1  0  0  0
 60140  1  0  0  0
 60141  1  0  0  0
 61142  1  0  0  0
 61143  1  0  0  0
 61144  1  0  0  0
 62145  1  0  0  0
 62146  1  0  0  0
 62147  1  0  0  0
 63 65  1  0  0  0
 63148  1  0  0  0
 63149  1  0  0  0
 63150  1  0  0  0
 64151  1  0  0  0
 65152  1  0  0  0
 68 88  1  0  0  0
 71 73  2  0  0  0
 71 74  1  0  0  0
 71153  1  0  0  0
 72 75  2  0  0  0
 72 76  1  0  0  0
 72154  1  0  0  0
 73 75  1  0  0  0
 73 81  1  0  0  0
 74 76  2  0  0  0
 74 82  1  0  0  0
 75 86  1  0  0  0
 76 85  1  0  0  0
 77 79  1  0  0  0
 77 81  1  0  0  0
 77155  1  0  0  0
 77156  1  0  0  0
 78 80  1  0  0  0
 78 81  1  0  0  0
 78157  1  0  0  0
 78158  1  0  0  0
 79 91  1  0  0  0
 79159  1  0  0  0
 79160  1  0  0  0
 80 91  1  0  0  0
 80161  1  0  0  0
 80162  1  0  0  0
 81 92  1  0  0  0
 82163  1  0  0  0
 82164  1  0  0  0
 82165  1  0  0  0
 83166  1  0  0  0
 83167  1  0  0  0
 83168  1  0  0  0
 83 89  1  0  0  0
 84 93  1  0  0  0
 84169  1  0  0  0
 84170  1  0  0  0
 84171  1  0  0  0
 85 90  1  0  0  0
 85172  1  0  0  0
 85173  1  0  0  0
 86 93  1  0  0  0
 86174  1  0  0  0
 86175  1  0  0  0
 87 89  1  0  0  0
 87176  1  0  0  0
 87177  1  0  0  0
 87 91  1  0  0  0
 88 89  1  0  0  0
 88178  1  0  0  0
 88179  1  0  0  0
 89180  1  0  0  0
 90181  1  0  0  0
 91182  1  0  0  0
 92183  1  0  0  0
M  CHG  1  91   1
M  ISO  4   1 100  68 101  88 101  90 100
M  END
> <chiral flag>
0

> <version>
0

> <s_m_source_file>
/data/baiqing/PycharmProjects/Reinvent-master-3.2/result/LINK_invent/BTK/process_docking_weight1_custom_sum_contain_oxygen_bond_distance_aromatic_linkinvent_7_9_3/rearranged_h_0155.sdf

> <i_m_source_file_index>
14

> <r_mmod_Potential_Energy-OPLS-2005>
-174.258728027344

> <r_mmod_Stretch_Energy-OPLS-2005>
39.058048248291

> <r_mmod_Bend_Energy-OPLS-2005>
109.136611938477

> <r_mmod_Torsional_Energy-OPLS-2005>
302.791320800781

> <r_mmod_Improper_Torsional_Energy-OPLS-2005>
3.18871736526489

> <r_mmod_Van_der_Waal_Energy-OPLS-2005>
196.943649291992

> <r_mmod_Electrostatic_Energy-OPLS-2005>
-422.448608398438

> <r_mmod_Solvation_Energy-OPLS-2005>
-411.302001953125

> <b_mmod_Minimization_Converged-OPLS-2005>
0

> <r_mmod_RMS_Derivative-OPLS-2005>
3.28127574920654

$$$$
14
                    3D
 Structure written by MMmdl.
177187  0  0  1  0            999 V2000
  -30.6099  -14.8588   20.4368 C   0  0  0  0  0  0
  -30.4194  -12.5326   19.4836 C   0  0  0  0  0  0
  -29.5093  -12.5278   18.2378 C   0  0  0  0  0  0
  -28.0352  -12.3475   18.6493 C   0  0  0  0  0  0
  -27.6314  -13.2510   19.8472 C   0  0  2  0  0  0
  -28.6794  -13.2313   20.9794 C   0  0  0  0  0  0
  -25.2469  -13.8226   20.5720 C   0  0  0  0  0  0
  -24.1787  -13.0436   20.9218 C   0  0  0  0  0  0
  -24.6415  -11.6928   20.8759 C   0  0  0  0  0  0
  -23.9108  -10.4295   21.0406 C   0  0  0  0  0  0
  -24.3657   -9.4212   21.9193 C   0  0  0  0  0  0
  -23.6331   -8.2244   22.0759 C   0  0  0  0  0  0
  -22.4315   -8.0289   21.3549 C   0  0  0  0  0  0
  -21.9947   -9.0261   20.4646 C   0  0  0  0  0  0
  -22.7278  -10.2138   20.3053 C   0  0  0  0  0  0
  -21.6854   -6.0755   22.5290 C   0  0  0  0  0  0
  -21.4013   -6.5653   23.8228 C   0  0  0  0  0  0
  -21.3663   -5.6798   24.9183 C   0  0  0  0  0  0
  -21.6041   -4.3063   24.7220 C   0  0  0  0  0  0
  -21.8824   -3.8163   23.4340 C   0  0  0  0  0  0
  -21.9192   -4.6983   22.3398 C   0  0  0  0  0  0
  -22.7808  -13.5211   21.1875 C   0  0  0  0  0  0
  -22.1665   -4.2174   21.0972 F   0  0  0  0  0  0
  -21.5630   -3.4541   25.7727 F   0  0  0  0  0  0
  -29.9507  -13.6358   20.3699 N   0  0  0  0  0  0
  -26.2905  -12.9469   20.3299 N   0  0  0  0  0  0
  -25.9355  -11.6586   20.5772 N   0  0  0  0  0  0
  -22.0450  -12.8201   22.0415 N   0  0  0  0  0  0
  -25.4116  -15.1958   20.4168 N   0  0  0  0  0  0
  -31.8143  -14.8444   20.1538 O   0  0  0  0  0  0
  -21.6657   -6.8904   21.4258 O   0  0  0  0  0  0
  -22.3494  -14.5517   20.6718 O   0  0  0  0  0  0
  -24.6379  -31.8518   23.1925 C   0  0  0  0  0  0
  -25.9168  -32.4724   23.8316 C   0  0  1  0  0  0
  -27.2120  -27.1847   20.1266 C   0  0  0  0  0  0
  -25.5951  -33.8537   24.2249 N   0  0  0  0  0  0
  -23.4383  -30.4715   21.5389 C   0  0  2  0  0  0
  -24.8843  -28.9093   20.1060 C   0  0  0  0  0  0
  -22.7546  -29.4582   22.4905 C   0  0  0  0  0  0
  -18.0315  -28.1401   22.8492 C   0  0  0  0  0  0
  -24.1481  -36.7253   23.2646 C   0  0  0  0  0  0
  -25.9918  -30.7333   21.3905 C   0  0  0  0  0  0
  -26.0582  -29.3503   20.7298 C   0  0  0  0  0  0
  -27.2200  -28.4994   20.7315 C   0  0  0  0  0  0
  -26.0191  -26.8465   19.4477 C   0  0  0  0  0  0
  -24.8757  -27.6689   19.4521 C   0  0  0  0  0  0
  -23.6591  -29.8076   20.1544 C   0  0  0  0  0  0
  -25.4125  -36.3060   24.0323 C   0  0  1  0  0  0
  -20.5921  -28.3722   23.1267 C   0  0  2  0  0  0
  -20.6808  -26.9430   22.5412 C   0  0  0  0  0  0
  -19.5769  -26.6396   21.5224 C   0  0  0  0  0  0
  -18.1952  -26.7959   22.1627 C   0  0  0  0  0  0
  -19.1568  -28.8886   23.2873 C   0  0  0  0  0  0
  -18.9484  -30.1490   23.8880 C   0  0  0  0  0  0
  -17.6476  -30.6599   24.0574 C   0  0  0  0  0  0
  -25.9071  -34.9420   23.5096 C   0  0  0  0  0  0
  -16.5374  -29.9083   23.6329 C   0  0  0  0  0  0
  -16.7303  -28.6501   23.0357 C   0  0  0  0  0  0
  -26.4511  -31.6568   25.0734 C   0  0  0  0  0  0
  -25.3688  -31.3729   26.1422 C   0  0  0  0  0  0
  -27.0380  -30.2977   24.6267 C   0  0  0  0  0  0
  -27.6060  -32.4318   25.7509 C   0  0  0  0  0  0
  -27.5584  -37.1796   24.8476 C   0  0  0  0  0  0
  -21.4243  -29.3052   22.3633 N   0  0  0  0  0  0
  -26.4295  -37.3768   23.9411 N   0  0  0  0  0  0
  -24.7082  -31.0403   22.0942 N   0  0  0  0  0  0
  -23.4218  -28.8152   23.3051 O   0  0  0  0  0  0
  -28.2810  -26.2363   20.2161 O   0  0  0  0  0  0
  -26.5650  -34.8910   22.4666 O   0  0  0  0  0  0
  -23.5500  -32.1388   23.7148 O   0  0  0  0  0  0
  -29.2183  -22.6506   23.0383 C   0  0  0  0  0  0
  -28.9278  -23.7232   22.1592 C   0  0  0  0  0  0
  -29.2374  -20.9458   21.1984 C   0  0  0  0  0  0
  -29.4188  -21.3168   22.5748 C   0  0  0  0  0  0
  -28.6885  -23.4918   20.7838 C   0  0  0  0  0  0
  -28.8399  -22.0829   20.3289 C   0  0  0  0  0  0
  -29.2959  -22.9561   24.5405 C   0  0  0  0  0  0
  -28.8149  -25.1407   22.7281 C   0  0  0  0  0  0
  -28.6327  -18.2240   21.4732 C   0  0  0  0  0  0
  -29.8243  -18.7004   19.4697 C   0  0  0  0  0  0
  -29.2151  -16.7266   21.5654 C   0  0  0  0  0  0
  -30.5003  -17.2369   19.5431 C   0  0  0  0  0  0
  -29.5490  -19.3511   20.8592 C   0  0  0  0  0  0
  -28.6324  -24.2814   24.9558 C   0  0  0  0  0  0
  -29.8350  -20.2963   23.6491 C   0  0  0  0  0  0
  -28.5503  -21.8025   18.8639 C   0  0  0  0  0  0
  -27.0893  -24.2160   24.9031 C   0  0  0  0  0  0
  -29.0744  -24.6932   26.3670 C   0  0  0  0  0  0
  -28.1220  -24.7372   19.8880 C   0  0  0  0  0  0
  -29.9289  -16.1144   20.3950 N   0  0  0  0  0  0
  -29.1565  -25.2806   24.1002 O   0  0  0  0  0  0
  -31.4621  -12.6472   19.1808 H   0  0  0  0  0  0
  -30.3705  -11.5716   19.9978 H   0  0  0  0  0  0
  -29.8082  -11.7336   17.5527 H   0  0  0  0  0  0
  -29.6322  -13.4645   17.6915 H   0  0  0  0  0  0
  -27.8978  -11.2990   18.9140 H   0  0  0  0  0  0
  -27.3806  -12.5345   17.7971 H   0  0  0  0  0  0
  -27.6102  -14.2704   19.4612 H   0  0  0  0  0  0
  -28.7574  -12.2368   21.4233 H   0  0  0  0  0  0
  -28.3992  -13.8970   21.7932 H   0  0  0  0  0  0
  -25.2795   -9.5694   22.4785 H   0  0  0  0  0  0
  -24.0039   -7.4631   22.7478 H   0  0  0  0  0  0
  -21.0875   -8.8779   19.8950 H   0  0  0  0  0  0
  -22.3738  -10.9684   19.6168 H   0  0  0  0  0  0
  -21.2012   -7.6163   23.9743 H   0  0  0  0  0  0
  -21.1477   -6.0522   25.9091 H   0  0  0  0  0  0
  -22.0599   -2.7628   23.2821 H   0  0  0  0  0  0
  -22.4076  -11.9868   22.4808 H   0  0  0  0  0  0
  -21.1057  -13.1219   22.2591 H   0  0  0  0  0  0
  -24.6426  -15.8450   20.5423 H   0  0  0  0  0  0
  -26.2650  -15.6466   20.1140 H   0  0  0  0  0  0
  -26.7234  -32.5331   23.1049 H   0  0  0  0  0  0
  -25.0071  -33.9684   25.0382 H   0  0  0  0  0  0
  -22.7374  -31.2963   21.3916 H   0  0  0  0  0  0
  -23.3761  -35.9560   23.3300 H   0  0  0  0  0  0
  -24.3580  -36.8885   22.2064 H   0  0  0  0  0  0
  -23.7204  -37.6438   23.6677 H   0  0  0  0  0  0
  -26.1497  -31.4909   20.6224 H   0  0  0  0  0  0
  -26.8641  -30.7805   22.0309 H   0  0  0  0  0  0
  -28.1121  -28.8264   21.2462 H   0  0  0  0  0  0
  -25.9301  -25.9209   18.9021 H   0  0  0  0  0  0
  -23.9842  -27.3367   18.9360 H   0  0  0  0  0  0
  -23.7908  -30.5890   19.4039 H   0  0  0  0  0  0
  -22.7737  -29.2510   19.8430 H   0  0  0  0  0  0
  -25.1305  -36.1902   25.0813 H   0  0  0  0  0  0
  -21.0036  -28.3298   24.1383 H   0  0  0  0  0  0
  -20.5741  -26.2325   23.3622 H   0  0  0  0  0  0
  -21.6669  -26.7462   22.1178 H   0  0  0  0  0  0
  -19.6907  -25.6306   21.1248 H   0  0  0  0  0  0
  -19.6692  -27.3218   20.6759 H   0  0  0  0  0  0
  -17.4230  -26.6734   21.4019 H   0  0  0  0  0  0
  -18.0315  -26.0117   22.9029 H   0  0  0  0  0  0
  -19.7960  -30.7321   24.2234 H   0  0  0  0  0  0
  -17.5025  -31.6275   24.5188 H   0  0  0  0  0  0
  -15.5374  -30.2978   23.7668 H   0  0  0  0  0  0
  -15.8712  -28.0811   22.7080 H   0  0  0  0  0  0
  -24.5883  -30.7068   25.7724 H   0  0  0  0  0  0
  -24.8836  -32.2891   26.4796 H   0  0  0  0  0  0
  -25.7957  -30.8929   27.0234 H   0  0  0  0  0  0
  -26.2993  -29.6712   24.1251 H   0  0  0  0  0  0
  -27.4027  -29.7253   25.4806 H   0  0  0  0  0  0
  -27.8880  -30.4272   23.9568 H   0  0  0  0  0  0
  -27.2691  -33.3659   26.2026 H   0  0  0  0  0  0
  -28.3892  -32.6818   25.0336 H   0  0  0  0  0  0
  -28.0700  -31.8472   26.5465 H   0  0  0  0  0  0
  -28.2598  -38.0098   24.7546 H   0  0  0  0  0  0
  -28.1090  -36.2635   24.6280 H   0  0  0  0  0  0
  -27.2316  -37.1417   25.8885 H   0  0  0  0  0  0
  -20.9451  -29.8732   21.6792 H   0  0  0  0  0  0
  -26.0159  -38.2837   24.1402 H   0  0  0  0  0  0
  -30.3519  -22.9751   24.8167 H   0  0  0  0  0  0
  -28.8315  -22.1613   25.1253 H   0  0  0  0  0  0
  -27.8045  -25.5243   22.5792 H   0  0  0  0  0  0
  -29.5037  -25.7938   22.1927 H   0  0  0  0  0  0
  -28.3144  -18.5064   22.4755 H   0  0  0  0  0  0
  -27.7010  -18.2008   20.9063 H   0  0  0  0  0  0
  -28.9003  -18.6352   18.8941 H   0  0  0  0  0  0
  -30.4850  -19.3505   18.8940 H   0  0  0  0  0  0
  -28.3869  -16.0752   21.8403 H   0  0  0  0  0  0
  -29.9071  -16.6883   22.4084 H   0  0  0  0  0  0
  -31.5263  -17.3942   19.8798 H   0  0  0  0  0  0
  -30.5937  -16.8585   18.5242 H   0  0  0  0  0  0
  -30.5380  -19.2361   21.2976 H   0  0  0  0  0  0
  -30.5999  -20.7123   24.3037 H   0  0  0  0  0  0
  -30.2667  -19.3616   23.3109 H   0  0  0  0  0  0
  -28.9738  -20.0361   24.2653 H   0  0  0  0  0  0
  -28.2496  -20.7697   18.7017 H   0  0  0  0  0  0
  -29.4294  -22.0110   18.2527 H   0  0  0  0  0  0
  -27.7290  -22.4217   18.5009 H   0  0  0  0  0  0
  -26.7056  -23.5315   25.6604 H   0  0  0  0  0  0
  -26.7176  -23.8585   23.9421 H   0  0  0  0  0  0
  -26.6437  -25.1932   25.0887 H   0  0  0  0  0  0
  -28.7343  -23.9710   27.1104 H   0  0  0  0  0  0
  -28.6603  -25.6643   26.6396 H   0  0  0  0  0  0
  -30.1600  -24.7663   26.4426 H   0  0  0  0  0  0
  -27.0643  -24.4935   19.8282 H   0  0  0  0  0  0
  -28.5166  -24.6141   18.8796 H   0  0  0  0  0  0
  1 25  1  0  0  0
  1 30  2  0  0  0
  1 90  1  0  0  0
  2  3  1  0  0  0
  2 25  1  0  0  0
  2 92  1  0  0  0
  2 93  1  0  0  0
  3  4  1  0  0  0
  3 94  1  0  0  0
  3 95  1  0  0  0
  4  5  1  0  0  0
  4 96  1  0  0  0
  4 97  1  0  0  0
  5  6  1  0  0  0
  5 26  1  0  0  0
  5 98  1  0  0  0
  6 25  1  0  0  0
  6 99  1  0  0  0
  6100  1  0  0  0
  7  8  2  0  0  0
  7 26  1  0  0  0
  7 29  1  0  0  0
  8  9  1  0  0  0
  8 22  1  0  0  0
  9 10  1  0  0  0
  9 27  2  0  0  0
 10 11  2  0  0  0
 10 15  1  0  0  0
 11 12  1  0  0  0
 11101  1  0  0  0
 12 13  2  0  0  0
 12102  1  0  0  0
 13 14  1  0  0  0
 13 31  1  0  0  0
 14 15  2  0  0  0
 14103  1  0  0  0
 15104  1  0  0  0
 16 17  2  0  0  0
 16 21  1  0  0  0
 16 31  1  0  0  0
 17 18  1  0  0  0
 17105  1  0  0  0
 18 19  2  0  0  0
 18106  1  0  0  0
 19 20  1  0  0  0
 19 24  1  0  0  0
 20 21  2  0  0  0
 20107  1  0  0  0
 21 23  1  0  0  0
 22 28  1  0  0  0
 22 32  2  0  0  0
 26 27  1  0  0  0
 28108  1  0  0  0
 28109  1  0  0  0
 29110  1  0  0  0
 29111  1  0  0  0
 33 34  1  0  0  0
 33 66  1  0  0  0
 33 70  2  0  0  0
 34 36  1  0  0  0
 34 59  1  0  0  0
 34112  1  0  0  0
 35 44  2  0  0  0
 35 45  1  0  0  0
 35 68  1  0  0  0
 36 56  1  0  0  0
 36113  1  0  0  0
 37 39  1  0  0  0
 37 47  1  0  0  0
 37 66  1  0  0  0
 37114  1  0  0  0
 38 43  2  0  0  0
 38 46  1  0  0  0
 38 47  1  0  0  0
 39 64  1  0  0  0
 39 67  2  0  0  0
 40 52  1  0  0  0
 40 53  2  0  0  0
 40 58  1  0  0  0
 41115  1  0  0  0
 41116  1  0  0  0
 41117  1  0  0  0
 41 48  1  0  0  0
 42 43  1  0  0  0
 42 66  1  0  0  0
 42118  1  0  0  0
 42119  1  0  0  0
 43 44  1  0  0  0
 44120  1  0  0  0
 45 46  2  0  0  0
 45121  1  0  0  0
 46122  1  0  0  0
 47123  1  0  0  0
 47124  1  0  0  0
 48 56  1  0  0  0
 48 65  1  0  0  0
 48125  1  0  0  0
 49 50  1  0  0  0
 49 53  1  0  0  0
 49 64  1  0  0  0
 49126  1  0  0  0
 50 51  1  0  0  0
 50127  1  0  0  0
 50128  1  0  0  0
 51 52  1  0  0  0
 51129  1  0  0  0
 51130  1  0  0  0
 52131  1  0  0  0
 52132  1  0  0  0
 53 54  1  0  0  0
 54 55  2  0  0  0
 54133  1  0  0  0
 55 57  1  0  0  0
 55134  1  0  0  0
 56 69  2  0  0  0
 57 58  2  0  0  0
 57135  1  0  0  0
 58136  1  0  0  0
 59 60  1  0  0  0
 59 61  1  0  0  0
 59 62  1  0  0  0
 60137  1  0  0  0
 60138  1  0  0  0
 60139  1  0  0  0
 61140  1  0  0  0
 61141  1  0  0  0
 61142  1  0  0  0
 62143  1  0  0  0
 62144  1  0  0  0
 62145  1  0  0  0
 63 65  1  0  0  0
 63146  1  0  0  0
 63147  1  0  0  0
 63148  1  0  0  0
 64149  1  0  0  0
 65150  1  0  0  0
 68 89  1  0  0  0
 71 72  1  0  0  0
 71 74  2  0  0  0
 71 77  1  0  0  0
 72 75  2  0  0  0
 72 78  1  0  0  0
 73 74  1  0  0  0
 73 76  2  0  0  0
 73 83  1  0  0  0
 74 85  1  0  0  0
 75 76  1  0  0  0
 75 89  1  0  0  0
 76 86  1  0  0  0
 77 84  1  0  0  0
 77151  1  0  0  0
 77152  1  0  0  0
 78 91  1  0  0  0
 78153  1  0  0  0
 78154  1  0  0  0
 79 81  1  0  0  0
 79 83  1  0  0  0
 79155  1  0  0  0
 79156  1  0  0  0
 80 82  1  0  0  0
 80 83  1  0  0  0
 80157  1  0  0  0
 80158  1  0  0  0
 81 90  1  0  0  0
 81159  1  0  0  0
 81160  1  0  0  0
 82 90  1  0  0  0
 82161  1  0  0  0
 82162  1  0  0  0
 83163  1  0  0  0
 84 87  1  0  0  0
 84 88  1  0  0  0
 84 91  1  0  0  0
 85164  1  0  0  0
 85165  1  0  0  0
 85166  1  0  0  0
 86167  1  0  0  0
 86168  1  0  0  0
 86169  1  0  0  0
 87170  1  0  0  0
 87171  1  0  0  0
 87172  1  0  0  0
 88173  1  0  0  0
 88174  1  0  0  0
 88175  1  0  0  0
 89176  1  0  0  0
 89177  1  0  0  0
M  ISO  4   1 100  68 101  89 101  90 100
M  END
> <chiral flag>
0

> <version>
0

> <s_m_source_file>
/data/baiqing/PycharmProjects/Reinvent-master-3.2/result/LINK_invent/BTK/process_docking_weight1_custom_sum_contain_oxygen_bond_distance_aromatic_linkinvent_7_9_3/rearranged_h_0155.sdf

> <i_m_source_file_index>
15

> <r_mmod_Potential_Energy-OPLS-2005>
662.035461425781

> <r_mmod_Stretch_Energy-OPLS-2005>
214.979019165039

> <r_mmod_Bend_Energy-OPLS-2005>
285.709594726562

> <r_mmod_Torsional_Energy-OPLS-2005>
333.118713378906

> <r_mmod_Improper_Torsional_Energy-OPLS-2005>
15.365532875061

> <r_mmod_Van_der_Waal_Energy-OPLS-2005>
173.108474731445

> <r_mmod_Electrostatic_Energy-OPLS-2005>
-301.639373779297

> <r_mmod_Solvation_Energy-OPLS-2005>
-198.265899658203

> <b_mmod_Minimization_Converged-OPLS-2005>
0

> <r_mmod_RMS_Derivative-OPLS-2005>
2.49835324287415

$$$$
15
                    3D
 Structure written by MMmdl.
166176  0  0  1  0            999 V2000
  -30.7008  -14.4550   20.6144 C   0  0  0  0  0  0
  -30.4267  -12.3117   19.4156 C   0  0  0  0  0  0
  -29.4938  -12.5151   18.2039 C   0  0  0  0  0  0
  -28.0152  -12.3693   18.6162 C   0  0  0  0  0  0
  -27.6626  -13.2019   19.8778 C   0  0  2  0  0  0
  -28.7020  -12.9648   20.9953 C   0  0  0  0  0  0
  -25.2593  -13.8151   20.5684 C   0  0  0  0  0  0
  -24.1838  -13.0434   20.9169 C   0  0  0  0  0  0
  -24.6391  -11.6901   20.8735 C   0  0  0  0  0  0
  -23.9061  -10.4292   21.0410 C   0  0  0  0  0  0
  -24.3615   -9.4206   21.9186 C   0  0  0  0  0  0
  -23.6290   -8.2241   22.0754 C   0  0  0  0  0  0
  -22.4271   -8.0283   21.3547 C   0  0  0  0  0  0
  -21.9907   -9.0258   20.4645 C   0  0  0  0  0  0
  -22.7238  -10.2137   20.3056 C   0  0  0  0  0  0
  -21.6849   -6.0739   22.5284 C   0  0  0  0  0  0
  -21.4012   -6.5642   23.8217 C   0  0  0  0  0  0
  -21.3659   -5.6792   24.9178 C   0  0  0  0  0  0
  -21.6045   -4.3055   24.7226 C   0  0  0  0  0  0
  -21.8818   -3.8151   23.4344 C   0  0  0  0  0  0
  -21.9190   -4.6969   22.3405 C   0  0  0  0  0  0
  -22.7863  -13.5241   21.1837 C   0  0  0  0  0  0
  -22.1658   -4.2154   21.0980 F   0  0  0  0  0  0
  -21.5630   -3.4539   25.7737 F   0  0  0  0  0  0
  -30.0346  -13.2797   20.4505 N   0  0  0  0  0  0
  -26.3027  -12.9310   20.3373 N   0  0  0  0  0  0
  -25.9313  -11.6475   20.5760 N   0  0  0  0  0  0
  -22.0501  -12.8237   22.0392 N   0  0  0  0  0  0
  -25.4312  -15.1871   20.4112 N   0  0  0  0  0  0
  -31.8045  -14.6801   20.1066 O   0  0  0  0  0  0
  -21.6634   -6.8884   21.4245 O   0  0  0  0  0  0
  -22.3549  -14.5550   20.6688 O   0  0  0  0  0  0
  -24.6121  -31.8701   23.2115 C   0  0  0  0  0  0
  -25.9016  -32.4838   23.8408 C   0  0  1  0  0  0
  -27.2373  -27.4508   20.0899 C   0  0  0  0  0  0
  -25.5881  -33.8641   24.2344 N   0  0  0  0  0  0
  -23.4015  -30.4920   21.5518 C   0  0  2  0  0  0
  -24.8515  -28.9607   20.1137 C   0  0  0  0  0  0
  -22.7417  -29.4652   22.4997 C   0  0  0  0  0  0
  -18.0278  -28.1381   22.8504 C   0  0  0  0  0  0
  -24.1487  -36.7320   23.2638 C   0  0  0  0  0  0
  -25.9288  -30.8374   21.3665 C   0  0  0  0  0  0
  -26.0080  -29.4715   20.7171 C   0  0  0  0  0  0
  -27.2053  -28.7211   20.7112 C   0  0  0  0  0  0
  -26.0716  -26.9552   19.4753 C   0  0  0  0  0  0
  -24.8764  -27.6997   19.4922 C   0  0  0  0  0  0
  -23.6121  -29.8253   20.1653 C   0  0  0  0  0  0
  -25.4107  -36.3134   24.0345 C   0  0  1  0  0  0
  -20.5868  -28.3661   23.1333 C   0  0  2  0  0  0
  -20.6772  -26.9403   22.5426 C   0  0  0  0  0  0
  -19.5749  -26.6395   21.5222 C   0  0  0  0  0  0
  -18.1924  -26.7927   22.1633 C   0  0  0  0  0  0
  -19.1526  -28.8837   23.2918 C   0  0  0  0  0  0
  -18.9453  -30.1445   23.8925 C   0  0  0  0  0  0
  -17.6454  -30.6585   24.0564 C   0  0  0  0  0  0
  -25.9035  -34.9491   23.5144 C   0  0  0  0  0  0
  -16.5348  -29.9091   23.6319 C   0  0  0  0  0  0
  -16.7267  -28.6507   23.0346 C   0  0  0  0  0  0
  -26.4450  -31.6608   25.0727 C   0  0  0  0  0  0
  -25.3711  -31.3712   26.1473 C   0  0  0  0  0  0
  -27.0266  -30.3049   24.6072 C   0  0  0  0  0  0
  -27.6043  -32.4313   25.7475 C   0  0  0  0  0  0
  -27.5588  -37.1818   24.8470 C   0  0  0  0  0  0
  -21.4146  -29.3028   22.3742 N   0  0  0  0  0  0
  -26.4305  -37.3810   23.9412 N   0  0  0  0  0  0
  -24.6655  -31.0804   22.1019 N   0  0  0  0  0  0
  -23.4196  -28.8192   23.3030 O   0  0  0  0  0  0
  -28.3677  -26.6671   20.0595 O   0  0  0  0  0  0
  -26.5603  -34.8936   22.4709 O   0  0  0  0  0  0
  -23.5317  -32.1454   23.7511 O   0  0  0  0  0  0
  -28.5460  -21.0058   21.7627 C   0  0  0  0  0  0
  -28.7104  -19.6363   21.4456 C   0  0  0  0  0  0
  -30.0718  -20.7326   23.6205 C   0  0  0  0  0  0
  -29.1916  -21.5609   22.8894 C   0  0  0  0  0  0
  -29.5206  -18.7919   22.2421 C   0  0  0  0  0  0
  -30.2352  -19.3545   23.3266 C   0  0  0  0  0  0
  -27.6309  -23.7012   23.1706 C   0  0  0  0  0  0
  -29.4687  -16.5927   20.6458 C   0  0  0  0  0  0
  -30.6996  -16.3323   22.2448 C   0  0  0  0  0  0
  -28.8897  -22.9275   23.4809 C   0  0  2  0  0  0
  -29.5145  -17.2719   22.0116 C   0  0  0  0  0  0
  -28.9812  -24.3238   22.8728 C   0  0  2  0  0  0
  -31.7172  -19.0560   25.2033 C   0  0  0  0  0  0
  -28.8890  -26.3165   21.3422 C   0  0  0  0  0  0
  -29.2438  -24.8030   21.4501 C   0  0  1  0  0  0
  -30.0372  -15.4023   21.3117 N   0  0  0  0  0  0
  -30.6164  -24.6157   21.1462 O   0  0  0  0  0  0
  -31.0205  -18.5150   24.0881 O   0  0  0  0  0  0
  -31.4699  -12.4242   19.1140 H   0  0  0  0  0  0
  -30.3381  -11.2960   19.8044 H   0  0  0  0  0  0
  -29.7363  -11.7988   17.4176 H   0  0  0  0  0  0
  -29.6575  -13.5058   17.7767 H   0  0  0  0  0  0
  -27.8250  -11.3120   18.8044 H   0  0  0  0  0  0
  -27.3649  -12.6512   17.7870 H   0  0  0  0  0  0
  -27.7115  -14.2515   19.5905 H   0  0  0  0  0  0
  -28.6779  -11.9232   21.3185 H   0  0  0  0  0  0
  -28.4567  -13.5488   21.8833 H   0  0  0  0  0  0
  -25.2764   -9.5677   22.4754 H   0  0  0  0  0  0
  -24.0004   -7.4628   22.7467 H   0  0  0  0  0  0
  -21.0841   -8.8784   19.8946 H   0  0  0  0  0  0
  -22.3712  -10.9677   19.6160 H   0  0  0  0  0  0
  -21.2003   -7.6149   23.9724 H   0  0  0  0  0  0
  -21.1483   -6.0520   25.9081 H   0  0  0  0  0  0
  -22.0596   -2.7614   23.2844 H   0  0  0  0  0  0
  -22.4114  -11.9905   22.4792 H   0  0  0  0  0  0
  -21.1117  -13.1266   22.2591 H   0  0  0  0  0  0
  -24.6695  -15.8458   20.5316 H   0  0  0  0  0  0
  -26.2936  -15.6278   20.1188 H   0  0  0  0  0  0
  -26.7083  -32.5559   23.1179 H   0  0  0  0  0  0
  -25.0022  -33.9807   25.0480 H   0  0  0  0  0  0
  -22.6889  -31.3080   21.4135 H   0  0  0  0  0  0
  -23.3761  -35.9644   23.3322 H   0  0  0  0  0  0
  -24.3578  -36.8910   22.2049 H   0  0  0  0  0  0
  -23.7231  -37.6528   23.6633 H   0  0  0  0  0  0
  -26.0392  -31.6015   20.5963 H   0  0  0  0  0  0
  -26.8176  -30.8931   21.9837 H   0  0  0  0  0  0
  -28.0979  -29.1157   21.1758 H   0  0  0  0  0  0
  -26.0867  -25.9865   18.9957 H   0  0  0  0  0  0
  -23.9872  -27.3027   19.0218 H   0  0  0  0  0  0
  -23.7194  -30.6019   19.4073 H   0  0  0  0  0  0
  -22.7373  -29.2442   19.8676 H   0  0  0  0  0  0
  -25.1287  -36.2012   25.0840 H   0  0  0  0  0  0
  -20.9956  -28.3215   24.1456 H   0  0  0  0  0  0
  -20.5694  -26.2259   23.3603 H   0  0  0  0  0  0
  -21.6639  -26.7461   22.1201 H   0  0  0  0  0  0
  -19.6909  -25.6316   21.1230 H   0  0  0  0  0  0
  -19.6683  -27.3225   20.6769 H   0  0  0  0  0  0
  -17.4200  -26.6694   21.4025 H   0  0  0  0  0  0
  -18.0316  -26.0060   22.9019 H   0  0  0  0  0  0
  -19.7925  -30.7258   24.2310 H   0  0  0  0  0  0
  -17.5005  -31.6268   24.5168 H   0  0  0  0  0  0
  -15.5346  -30.3001   23.7625 H   0  0  0  0  0  0
  -15.8669  -28.0830   22.7047 H   0  0  0  0  0  0
  -24.5882  -30.7067   25.7798 H   0  0  0  0  0  0
  -24.8898  -32.2866   26.4922 H   0  0  0  0  0  0
  -25.8049  -30.8869   27.0229 H   0  0  0  0  0  0
  -26.2793  -29.6846   24.1106 H   0  0  0  0  0  0
  -27.4028  -29.7250   25.4511 H   0  0  0  0  0  0
  -27.8637  -30.4389   23.9219 H   0  0  0  0  0  0
  -27.2690  -33.3622   26.2060 H   0  0  0  0  0  0
  -28.3838  -32.6855   25.0280 H   0  0  0  0  0  0
  -28.0721  -31.8424   26.5377 H   0  0  0  0  0  0
  -28.2627  -38.0098   24.7519 H   0  0  0  0  0  0
  -28.1070  -36.2635   24.6305 H   0  0  0  0  0  0
  -27.2305  -37.1477   25.8874 H   0  0  0  0  0  0
  -20.9316  -29.8744   21.6954 H   0  0  0  0  0  0
  -26.0209  -38.2899   24.1398 H   0  0  0  0  0  0
  -27.8681  -21.6048   21.1712 H   0  0  0  0  0  0
  -28.1532  -19.2199   20.6175 H   0  0  0  0  0  0
  -30.5670  -21.1691   24.4747 H   0  0  0  0  0  0
  -27.0732  -24.1215   24.0047 H   0  0  0  0  0  0
  -27.0259  -23.3974   22.3198 H   0  0  0  0  0  0
  -30.1275  -17.0485   19.9022 H   0  0  0  0  0  0
  -28.4588  -16.4712   20.2552 H   0  0  0  0  0  0
  -30.7786  -15.9759   23.2726 H   0  0  0  0  0  0
  -31.6551  -16.7296   21.8908 H   0  0  0  0  0  0
  -29.1253  -22.8860   24.5435 H   0  0  0  0  0  0
  -28.6701  -16.9149   22.6077 H   0  0  0  0  0  0
  -29.3220  -25.0585   23.6018 H   0  0  0  0  0  0
  -32.3014  -18.2690   25.6803 H   0  0  0  0  0  0
  -31.0272  -19.4528   25.9503 H   0  0  0  0  0  0
  -32.4107  -19.8414   24.9000 H   0  0  0  0  0  0
  -28.1418  -26.5415   22.1086 H   0  0  0  0  0  0
  -29.7451  -26.9504   21.5780 H   0  0  0  0  0  0
  -28.6334  -24.2194   20.7585 H   0  0  0  0  0  0
  -31.1261  -25.1533   21.7460 H   0  0  0  0  0  0
  1 25  1  0  0  0
  1 30  2  0  0  0
  1 86  1  0  0  0
  2  3  1  0  0  0
  2 25  1  0  0  0
  2 89  1  0  0  0
  2 90  1  0  0  0
  3  4  1  0  0  0
  3 91  1  0  0  0
  3 92  1  0  0  0
  4  5  1  0  0  0
  4 93  1  0  0  0
  4 94  1  0  0  0
  5  6  1  0  0  0
  5 26  1  0  0  0
  5 95  1  0  0  0
  6 25  1  0  0  0
  6 96  1  0  0  0
  6 97  1  0  0  0
  7  8  2  0  0  0
  7 26  1  0  0  0
  7 29  1  0  0  0
  8  9  1  0  0  0
  8 22  1  0  0  0
  9 10  1  0  0  0
  9 27  2  0  0  0
 10 11  2  0  0  0
 10 15  1  0  0  0
 11 12  1  0  0  0
 11 98  1  0  0  0
 12 13  2  0  0  0
 12 99  1  0  0  0
 13 14  1  0  0  0
 13 31  1  0  0  0
 14 15  2  0  0  0
 14100  1  0  0  0
 15101  1  0  0  0
 16 17  2  0  0  0
 16 21  1  0  0  0
 16 31  1  0  0  0
 17 18  1  0  0  0
 17102  1  0  0  0
 18 19  2  0  0  0
 18103  1  0  0  0
 19 20  1  0  0  0
 19 24  1  0  0  0
 20 21  2  0  0  0
 20104  1  0  0  0
 21 23  1  0  0  0
 22 28  1  0  0  0
 22 32  2  0  0  0
 26 27  1  0  0  0
 28105  1  0  0  0
 28106  1  0  0  0
 29107  1  0  0  0
 29108  1  0  0  0
 33 34  1  0  0  0
 33 66  1  0  0  0
 33 70  2  0  0  0
 34 36  1  0  0  0
 34 59  1  0  0  0
 34109  1  0  0  0
 35 44  2  0  0  0
 35 45  1  0  0  0
 35 68  1  0  0  0
 36 56  1  0  0  0
 36110  1  0  0  0
 37 39  1  0  0  0
 37 47  1  0  0  0
 37 66  1  0  0  0
 37111  1  0  0  0
 38 43  2  0  0  0
 38 46  1  0  0  0
 38 47  1  0  0  0
 39 64  1  0  0  0
 39 67  2  0  0  0
 40 52  1  0  0  0
 40 53  2  0  0  0
 40 58  1  0  0  0
 41112  1  0  0  0
 41113  1  0  0  0
 41114  1  0  0  0
 41 48  1  0  0  0
 42 43  1  0  0  0
 42 66  1  0  0  0
 42115  1  0  0  0
 42116  1  0  0  0
 43 44  1  0  0  0
 44117  1  0  0  0
 45 46  2  0  0  0
 45118  1  0  0  0
 46119  1  0  0  0
 47120  1  0  0  0
 47121  1  0  0  0
 48 56  1  0  0  0
 48 65  1  0  0  0
 48122  1  0  0  0
 49 50  1  0  0  0
 49 53  1  0  0  0
 49 64  1  0  0  0
 49123  1  0  0  0
 50 51  1  0  0  0
 50124  1  0  0  0
 50125  1  0  0  0
 51 52  1  0  0  0
 51126  1  0  0  0
 51127  1  0  0  0
 52128  1  0  0  0
 52129  1  0  0  0
 53 54  1  0  0  0
 54 55  2  0  0  0
 54130  1  0  0  0
 55 57  1  0  0  0
 55131  1  0  0  0
 56 69  2  0  0  0
 57 58  2  0  0  0
 57132  1  0  0  0
 58133  1  0  0  0
 59 60  1  0  0  0
 59 61  1  0  0  0
 59 62  1  0  0  0
 60134  1  0  0  0
 60135  1  0  0  0
 60136  1  0  0  0
 61137  1  0  0  0
 61138  1  0  0  0
 61139  1  0  0  0
 62140  1  0  0  0
 62141  1  0  0  0
 62142  1  0  0  0
 63 65  1  0  0  0
 63143  1  0  0  0
 63144  1  0  0  0
 63145  1  0  0  0
 64146  1  0  0  0
 65147  1  0  0  0
 68 84  1  0  0  0
 71 72  2  0  0  0
 71 74  1  0  0  0
 71148  1  0  0  0
 72 75  1  0  0  0
 72149  1  0  0  0
 73 74  2  0  0  0
 73 76  1  0  0  0
 73150  1  0  0  0
 74 80  1  0  0  0
 75 76  2  0  0  0
 75 81  1  0  0  0
 76 88  1  0  0  0
 77 80  1  0  0  0
 77151  1  0  0  0
 77152  1  0  0  0
 77 82  1  0  0  0
 78 81  1  0  0  0
 78 86  1  0  0  0
 78153  1  0  0  0
 78154  1  0  0  0
 79 81  1  0  0  0
 79 86  1  0  0  0
 79155  1  0  0  0
 79156  1  0  0  0
 80 82  1  0  0  0
 80157  1  0  0  0
 81158  1  0  0  0
 82 85  1  0  0  0
 82159  1  0  0  0
 83 88  1  0  0  0
 83160  1  0  0  0
 83161  1  0  0  0
 83162  1  0  0  0
 84 85  1  0  0  0
 84163  1  0  0  0
 84164  1  0  0  0
 85 87  1  0  0  0
 85165  1  0  0  0
 87166  1  0  0  0
M  ISO  4   1 100  68 101  84 101  86 100
M  END
> <chiral flag>
0

> <version>
0

> <s_m_source_file>
/data/baiqing/PycharmProjects/Reinvent-master-3.2/result/LINK_invent/BTK/process_docking_weight1_custom_sum_contain_oxygen_bond_distance_aromatic_linkinvent_7_9_3/rearranged_h_0155.sdf

> <i_m_source_file_index>
16

> <r_mmod_Potential_Energy-OPLS-2005>
107.399574279785

> <r_mmod_Stretch_Energy-OPLS-2005>
39.2038612365723

> <r_mmod_Bend_Energy-OPLS-2005>
135.128875732422

> <r_mmod_Torsional_Energy-OPLS-2005>
320.491027832031

> <r_mmod_Improper_Torsional_Energy-OPLS-2005>
10.7486333847046

> <r_mmod_Van_der_Waal_Energy-OPLS-2005>
154.633071899414

> <r_mmod_Electrostatic_Energy-OPLS-2005>
-333.904052734375

> <r_mmod_Solvation_Energy-OPLS-2005>
-229.189102172852

> <b_mmod_Minimization_Converged-OPLS-2005>
0

> <r_mmod_RMS_Derivative-OPLS-2005>
1.21035623550415

$$$$
16
                    3D
 Structure written by MMmdl.
175184  0  0  1  0            999 V2000
  -30.7325  -14.4216   20.6509 C   0  0  0  0  0  0
  -30.4283  -12.3077   19.4000 C   0  0  0  0  0  0
  -29.4903  -12.5261   18.1959 C   0  0  0  0  0  0
  -28.0145  -12.3768   18.6133 C   0  0  0  0  0  0
  -27.6686  -13.2008   19.8809 C   0  0  2  0  0  0
  -28.7096  -12.9430   20.9930 C   0  0  0  0  0  0
  -25.2613  -13.8133   20.5658 C   0  0  0  0  0  0
  -24.1851  -13.0424   20.9142 C   0  0  0  0  0  0
  -24.6396  -11.6888   20.8706 C   0  0  0  0  0  0
  -23.9056  -10.4283   21.0392 C   0  0  0  0  0  0
  -24.3607   -9.4205   21.9176 C   0  0  0  0  0  0
  -23.6282   -8.2246   22.0757 C   0  0  0  0  0  0
  -22.4268   -8.0280   21.3546 C   0  0  0  0  0  0
  -21.9897   -9.0254   20.4648 C   0  0  0  0  0  0
  -22.7226  -10.2130   20.3049 C   0  0  0  0  0  0
  -21.6856   -6.0729   22.5281 C   0  0  0  0  0  0
  -21.4020   -6.5636   23.8212 C   0  0  0  0  0  0
  -21.3662   -5.6794   24.9180 C   0  0  0  0  0  0
  -21.6042   -4.3056   24.7234 C   0  0  0  0  0  0
  -21.8821   -3.8144   23.4357 C   0  0  0  0  0  0
  -21.9189   -4.6954   22.3409 C   0  0  0  0  0  0
  -22.7879  -13.5232   21.1822 C   0  0  0  0  0  0
  -22.1662   -4.2135   21.0987 F   0  0  0  0  0  0
  -21.5620   -3.4542   25.7749 F   0  0  0  0  0  0
  -30.0493  -13.2588   20.4571 N   0  0  0  0  0  0
  -26.3059  -12.9301   20.3381 N   0  0  0  0  0  0
  -25.9325  -11.6460   20.5747 N   0  0  0  0  0  0
  -22.0521  -12.8237   22.0384 N   0  0  0  0  0  0
  -25.4346  -15.1851   20.4065 N   0  0  0  0  0  0
  -31.7820  -14.6883   20.0596 O   0  0  0  0  0  0
  -21.6636   -6.8878   21.4245 O   0  0  0  0  0  0
  -22.3568  -14.5543   20.6675 O   0  0  0  0  0  0
  -24.6186  -31.8696   23.2146 C   0  0  0  0  0  0
  -25.9075  -32.4828   23.8429 C   0  0  1  0  0  0
  -27.2221  -27.4127   20.0722 C   0  0  0  0  0  0
  -25.5928  -33.8628   24.2347 N   0  0  0  0  0  0
  -23.4054  -30.4997   21.5579 C   0  0  2  0  0  0
  -24.8462  -28.9779   20.1138 C   0  0  0  0  0  0
  -22.7431  -29.4675   22.4999 C   0  0  0  0  0  0
  -18.0277  -28.1385   22.8496 C   0  0  0  0  0  0
  -24.1489  -36.7320   23.2632 C   0  0  0  0  0  0
  -25.9424  -30.8231   21.3779 C   0  0  0  0  0  0
  -26.0138  -29.4604   20.7177 C   0  0  0  0  0  0
  -27.2016  -28.6834   20.7029 C   0  0  0  0  0  0
  -26.0247  -26.9758   19.4429 C   0  0  0  0  0  0
  -24.8478  -27.7337   19.4762 C   0  0  0  0  0  0
  -23.6125  -29.8474   20.1687 C   0  0  0  0  0  0
  -25.4109  -36.3116   24.0333 C   0  0  1  0  0  0
  -20.5871  -28.3678   23.1312 C   0  0  2  0  0  0
  -20.6769  -26.9412   22.5418 C   0  0  0  0  0  0
  -19.5747  -26.6390   21.5214 C   0  0  0  0  0  0
  -18.1923  -26.7934   22.1619 C   0  0  0  0  0  0
  -19.1528  -28.8848   23.2900 C   0  0  0  0  0  0
  -18.9452  -30.1450   23.8915 C   0  0  0  0  0  0
  -17.6454  -30.6589   24.0568 C   0  0  0  0  0  0
  -25.9043  -34.9479   23.5133 C   0  0  0  0  0  0
  -16.5345  -29.9091   23.6325 C   0  0  0  0  0  0
  -16.7264  -28.6506   23.0351 C   0  0  0  0  0  0
  -26.4483  -31.6607   25.0762 C   0  0  0  0  0  0
  -25.3730  -31.3720   26.1497 C   0  0  0  0  0  0
  -27.0311  -30.3043   24.6161 C   0  0  0  0  0  0
  -27.6063  -32.4326   25.7517 C   0  0  0  0  0  0
  -27.5593  -37.1808   24.8455 C   0  0  0  0  0  0
  -21.4157  -29.3047   22.3727 N   0  0  0  0  0  0
  -26.4293  -37.3804   23.9415 N   0  0  0  0  0  0
  -24.6740  -31.0780   22.1072 N   0  0  0  0  0  0
  -23.4195  -28.8196   23.3030 O   0  0  0  0  0  0
  -28.3734  -26.6258   20.0959 O   0  0  0  0  0  0
  -26.5599  -34.8925   22.4690 O   0  0  0  0  0  0
  -23.5372  -32.1464   23.7521 O   0  0  0  0  0  0
  -30.9006  -22.9485   21.1443 C   0  0  0  0  0  0
  -29.7428  -21.7735   19.3264 C   0  0  0  0  0  0
  -30.1652  -24.1384   20.8519 C   0  0  0  0  0  0
  -29.0488  -22.9723   19.0078 C   0  0  0  0  0  0
  -30.6881  -21.7525   20.3900 C   0  0  0  0  0  0
  -29.2229  -24.1511   19.7892 C   0  0  0  0  0  0
  -32.0112  -18.5710   22.4029 C   0  0  0  0  0  0
  -29.5563  -19.0521   21.8054 C   0  0  0  0  0  0
  -31.8693  -17.1893   21.7239 C   0  0  0  0  0  0
  -29.4838  -17.6520   21.1577 C   0  0  0  0  0  0
  -30.9892  -19.6401   21.9222 C   0  0  2  0  0  0
  -30.4248  -16.6732   21.8765 C   0  0  1  0  0  0
  -31.9027  -22.9787   22.3014 C   0  0  0  0  0  0
  -29.4242  -20.5110   18.5199 C   0  0  0  0  0  0
  -30.3632  -25.4075   21.6810 C   0  0  0  0  0  0
  -28.0712  -23.0033   17.8227 C   0  0  0  0  0  0
  -31.4900  -20.4622   20.6973 C   0  0  0  0  0  0
  -28.2303  -25.3081   19.5205 C   0  0  0  0  0  0
  -30.1484  -15.2723   21.5119 N   0  0  0  0  0  0
  -31.4693  -12.4196   19.0911 H   0  0  0  0  0  0
  -30.3400  -11.2855   19.7708 H   0  0  0  0  0  0
  -29.7252  -11.8166   17.4015 H   0  0  0  0  0  0
  -29.6545  -13.5208   17.7775 H   0  0  0  0  0  0
  -27.8274  -11.3185   18.7977 H   0  0  0  0  0  0
  -27.3594  -12.6618   17.7891 H   0  0  0  0  0  0
  -27.7256  -14.2544   19.6057 H   0  0  0  0  0  0
  -28.6828  -11.8941   21.2920 H   0  0  0  0  0  0
  -28.4526  -13.4974   21.8949 H   0  0  0  0  0  0
  -25.2760   -9.5675   22.4744 H   0  0  0  0  0  0
  -23.9984   -7.4646   22.7489 H   0  0  0  0  0  0
  -21.0822   -8.8780   19.8962 H   0  0  0  0  0  0
  -22.3692  -10.9667   19.6153 H   0  0  0  0  0  0
  -21.2028   -7.6147   23.9715 H   0  0  0  0  0  0
  -21.1479   -6.0527   25.9078 H   0  0  0  0  0  0
  -22.0596   -2.7601   23.2873 H   0  0  0  0  0  0
  -22.4117  -11.9879   22.4759 H   0  0  0  0  0  0
  -21.1150  -13.1292   22.2613 H   0  0  0  0  0  0
  -24.6680  -15.8422   20.5033 H   0  0  0  0  0  0
  -26.2962  -15.6206   20.1021 H   0  0  0  0  0  0
  -26.7149  -32.5526   23.1193 H   0  0  0  0  0  0
  -25.0088  -33.9790   25.0499 H   0  0  0  0  0  0
  -22.6947  -31.3183   21.4264 H   0  0  0  0  0  0
  -23.3756  -35.9648   23.3275 H   0  0  0  0  0  0
  -24.3594  -36.8958   22.2053 H   0  0  0  0  0  0
  -23.7230  -37.6512   23.6661 H   0  0  0  0  0  0
  -26.0661  -31.5908   20.6127 H   0  0  0  0  0  0
  -26.8272  -30.8673   22.0011 H   0  0  0  0  0  0
  -28.0984  -29.0497   21.1829 H   0  0  0  0  0  0
  -25.9439  -26.0467   18.9008 H   0  0  0  0  0  0
  -23.9549  -27.3623   18.9922 H   0  0  0  0  0  0
  -23.7252  -30.6295   19.4169 H   0  0  0  0  0  0
  -22.7335  -29.2744   19.8666 H   0  0  0  0  0  0
  -25.1281  -36.1982   25.0826 H   0  0  0  0  0  0
  -20.9956  -28.3243   24.1433 H   0  0  0  0  0  0
  -20.5680  -26.2283   23.3604 H   0  0  0  0  0  0
  -21.6640  -26.7458   22.1210 H   0  0  0  0  0  0
  -19.6906  -25.6303   21.1237 H   0  0  0  0  0  0
  -19.6687  -27.3204   20.6748 H   0  0  0  0  0  0
  -17.4199  -26.6701   21.4010 H   0  0  0  0  0  0
  -18.0310  -26.0065   22.9002 H   0  0  0  0  0  0
  -19.7924  -30.7264   24.2295 H   0  0  0  0  0  0
  -17.5005  -31.6268   24.5176 H   0  0  0  0  0  0
  -15.5346  -30.3001   23.7633 H   0  0  0  0  0  0
  -15.8664  -28.0826   22.7062 H   0  0  0  0  0  0
  -24.5940  -30.7018   25.7841 H   0  0  0  0  0  0
  -24.8867  -32.2869   26.4897 H   0  0  0  0  0  0
  -25.8075  -30.8944   27.0288 H   0  0  0  0  0  0
  -26.2868  -29.6819   24.1183 H   0  0  0  0  0  0
  -27.4031  -29.7273   25.4636 H   0  0  0  0  0  0
  -27.8730  -30.4353   23.9359 H   0  0  0  0  0  0
  -27.2698  -33.3633   26.2099 H   0  0  0  0  0  0
  -28.3863  -32.6874   25.0329 H   0  0  0  0  0  0
  -28.0738  -31.8444   26.5423 H   0  0  0  0  0  0
  -28.2584  -38.0133   24.7555 H   0  0  0  0  0  0
  -28.1116  -36.2670   24.6213 H   0  0  0  0  0  0
  -27.2322  -37.1382   25.8858 H   0  0  0  0  0  0
  -20.9320  -29.8795   21.6972 H   0  0  0  0  0  0
  -26.0181  -38.2877   24.1443 H   0  0  0  0  0  0
  -33.0308  -18.9384   22.2814 H   0  0  0  0  0  0
  -31.8838  -18.4323   23.4775 H   0  0  0  0  0  0
  -29.1415  -18.9694   22.8114 H   0  0  0  0  0  0
  -28.8955  -19.7460   21.2859 H   0  0  0  0  0  0
  -32.5734  -16.4889   22.1750 H   0  0  0  0  0  0
  -32.1392  -17.2684   20.6698 H   0  0  0  0  0  0
  -29.7395  -17.6984   20.0999 H   0  0  0  0  0  0
  -28.4548  -17.2922   21.2069 H   0  0  0  0  0  0
  -30.9320  -20.3647   22.7349 H   0  0  0  0  0  0
  -30.1855  -16.7065   22.9407 H   0  0  0  0  0  0
  -32.6755  -23.7240   22.1106 H   0  0  0  0  0  0
  -32.4229  -22.0476   22.5022 H   0  0  0  0  0  0
  -31.3931  -23.2399   23.2296 H   0  0  0  0  0  0
  -28.3455  -20.3625   18.4628 H   0  0  0  0  0  0
  -29.7871  -19.5823   18.9397 H   0  0  0  0  0  0
  -29.8218  -20.5920   17.5079 H   0  0  0  0  0  0
  -31.1303  -25.3505   22.4480 H   0  0  0  0  0  0
  -29.4355  -25.6734   22.1876 H   0  0  0  0  0  0
  -30.6512  -26.2333   21.0306 H   0  0  0  0  0  0
  -28.0220  -22.0979   17.2250 H   0  0  0  0  0  0
  -28.3625  -23.7791   17.1151 H   0  0  0  0  0  0
  -27.0557  -23.2077   18.1624 H   0  0  0  0  0  0
  -32.5274  -20.7534   20.8540 H   0  0  0  0  0  0
  -31.5975  -19.8173   19.8300 H   0  0  0  0  0  0
  -27.3089  -24.8596   19.8936 H   0  0  0  0  0  0
  -28.1389  -25.4731   18.4483 H   0  0  0  0  0  0
  -29.3196  -14.8875   21.9410 H   0  0  0  0  0  0
  1 25  1  0  0  0
  1 30  2  0  0  0
  1 89  1  0  0  0
  2  3  1  0  0  0
  2 25  1  0  0  0
  2 90  1  0  0  0
  2 91  1  0  0  0
  3  4  1  0  0  0
  3 92  1  0  0  0
  3 93  1  0  0  0
  4  5  1  0  0  0
  4 94  1  0  0  0
  4 95  1  0  0  0
  5  6  1  0  0  0
  5 26  1  0  0  0
  5 96  1  0  0  0
  6 25  1  0  0  0
  6 97  1  0  0  0
  6 98  1  0  0  0
  7  8  2  0  0  0
  7 26  1  0  0  0
  7 29  1  0  0  0
  8  9  1  0  0  0
  8 22  1  0  0  0
  9 10  1  0  0  0
  9 27  2  0  0  0
 10 11  2  0  0  0
 10 15  1  0  0  0
 11 12  1  0  0  0
 11 99  1  0  0  0
 12 13  2  0  0  0
 12100  1  0  0  0
 13 14  1  0  0  0
 13 31  1  0  0  0
 14 15  2  0  0  0
 14101  1  0  0  0
 15102  1  0  0  0
 16 17  2  0  0  0
 16 21  1  0  0  0
 16 31  1  0  0  0
 17 18  1  0  0  0
 17103  1  0  0  0
 18 19  2  0  0  0
 18104  1  0  0  0
 19 20  1  0  0  0
 19 24  1  0  0  0
 20 21  2  0  0  0
 20105  1  0  0  0
 21 23  1  0  0  0
 22 28  1  0  0  0
 22 32  2  0  0  0
 26 27  1  0  0  0
 28106  1  0  0  0
 28107  1  0  0  0
 29108  1  0  0  0
 29109  1  0  0  0
 33 34  1  0  0  0
 33 66  1  0  0  0
 33 70  2  0  0  0
 34 36  1  0  0  0
 34 59  1  0  0  0
 34110  1  0  0  0
 35 44  2  0  0  0
 35 45  1  0  0  0
 35 68  1  0  0  0
 36 56  1  0  0  0
 36111  1  0  0  0
 37 39  1  0  0  0
 37 47  1  0  0  0
 37 66  1  0  0  0
 37112  1  0  0  0
 38 43  2  0  0  0
 38 46  1  0  0  0
 38 47  1  0  0  0
 39 64  1  0  0  0
 39 67  2  0  0  0
 40 52  1  0  0  0
 40 53  2  0  0  0
 40 58  1  0  0  0
 41113  1  0  0  0
 41114  1  0  0  0
 41115  1  0  0  0
 41 48  1  0  0  0
 42 43  1  0  0  0
 42 66  1  0  0  0
 42116  1  0  0  0
 42117  1  0  0  0
 43 44  1  0  0  0
 44118  1  0  0  0
 45 46  2  0  0  0
 45119  1  0  0  0
 46120  1  0  0  0
 47121  1  0  0  0
 47122  1  0  0  0
 48 56  1  0  0  0
 48 65  1  0  0  0
 48123  1  0  0  0
 49 50  1  0  0  0
 49 53  1  0  0  0
 49 64  1  0  0  0
 49124  1  0  0  0
 50 51  1  0  0  0
 50125  1  0  0  0
 50126  1  0  0  0
 51 52  1  0  0  0
 51127  1  0  0  0
 51128  1  0  0  0
 52129  1  0  0  0
 52130  1  0  0  0
 53 54  1  0  0  0
 54 55  2  0  0  0
 54131  1  0  0  0
 55 57  1  0  0  0
 55132  1  0  0  0
 56 69  2  0  0  0
 57 58  2  0  0  0
 57133  1  0  0  0
 58134  1  0  0  0
 59 60  1  0  0  0
 59 61  1  0  0  0
 59 62  1  0  0  0
 60135  1  0  0  0
 60136  1  0  0  0
 60137  1  0  0  0
 61138  1  0  0  0
 61139  1  0  0  0
 61140  1  0  0  0
 62141  1  0  0  0
 62142  1  0  0  0
 62143  1  0  0  0
 63 65  1  0  0  0
 63144  1  0  0  0
 63145  1  0  0  0
 63146  1  0  0  0
 64147  1  0  0  0
 65148  1  0  0  0
 68 88  1  0  0  0
 71 73  2  0  0  0
 71 75  1  0  0  0
 71 83  1  0  0  0
 72 74  1  0  0  0
 72 75  2  0  0  0
 72 84  1  0  0  0
 73 76  1  0  0  0
 73 85  1  0  0  0
 74 76  2  0  0  0
 74 86  1  0  0  0
 75 87  1  0  0  0
 76 88  1  0  0  0
 77 79  1  0  0  0
 77 81  1  0  0  0
 77149  1  0  0  0
 77150  1  0  0  0
 78 80  1  0  0  0
 78 81  1  0  0  0
 78151  1  0  0  0
 78152  1  0  0  0
 79 82  1  0  0  0
 79153  1  0  0  0
 79154  1  0  0  0
 80 82  1  0  0  0
 80155  1  0  0  0
 80156  1  0  0  0
 81 87  1  0  0  0
 81157  1  0  0  0
 82 89  1  0  0  0
 82158  1  0  0  0
 83159  1  0  0  0
 83160  1  0  0  0
 83161  1  0  0  0
 84162  1  0  0  0
 84163  1  0  0  0
 84164  1  0  0  0
 85165  1  0  0  0
 85166  1  0  0  0
 85167  1  0  0  0
 86168  1  0  0  0
 86169  1  0  0  0
 86170  1  0  0  0
 87171  1  0  0  0
 87172  1  0  0  0
 88173  1  0  0  0
 88174  1  0  0  0
 89175  1  0  0  0
M  ISO  4   1 100  68 101  88 101  89 100
M  END
> <chiral flag>
0

> <version>
0

> <s_m_source_file>
/data/baiqing/PycharmProjects/Reinvent-master-3.2/result/LINK_invent/BTK/process_docking_weight1_custom_sum_contain_oxygen_bond_distance_aromatic_linkinvent_7_9_3/rearranged_h_0155.sdf

> <i_m_source_file_index>
17

> <r_mmod_Potential_Energy-OPLS-2005>
42.8576431274414

> <r_mmod_Stretch_Energy-OPLS-2005>
52.3125686645508

> <r_mmod_Bend_Energy-OPLS-2005>
145.270980834961

> <r_mmod_Torsional_Energy-OPLS-2005>
224.020584106445

> <r_mmod_Improper_Torsional_Energy-OPLS-2005>
2.61610174179077

> <r_mmod_Van_der_Waal_Energy-OPLS-2005>
200.680679321289

> <r_mmod_Electrostatic_Energy-OPLS-2005>
-393.472320556641

> <r_mmod_Solvation_Energy-OPLS-2005>
-201.647262573242

> <b_mmod_Minimization_Converged-OPLS-2005>
0

> <r_mmod_RMS_Derivative-OPLS-2005>
0.998052358627319

$$$$
17
                    3D
 Structure written by MMmdl.
190200  0  0  1  0            999 V2000
  -30.8083  -14.2551   20.7490 C   0  0  0  0  0  0
  -30.4060  -12.2587   19.3705 C   0  0  0  0  0  0
  -29.4737  -12.5391   18.1817 C   0  0  0  0  0  0
  -28.0013  -12.3886   18.6033 C   0  0  0  0  0  0
  -27.6681  -13.1978   19.8821 C   0  0  2  0  0  0
  -28.6999  -12.9136   20.9947 C   0  0  0  0  0  0
  -25.2588  -13.8156   20.5663 C   0  0  0  0  0  0
  -24.1838  -13.0443   20.9169 C   0  0  0  0  0  0
  -24.6383  -11.6903   20.8732 C   0  0  0  0  0  0
  -23.9051  -10.4302   21.0407 C   0  0  0  0  0  0
  -24.3596   -9.4224   21.9196 C   0  0  0  0  0  0
  -23.6274   -8.2258   22.0765 C   0  0  0  0  0  0
  -22.4272   -8.0286   21.3541 C   0  0  0  0  0  0
  -21.9909   -9.0261   20.4639 C   0  0  0  0  0  0
  -22.7233  -10.2143   20.3050 C   0  0  0  0  0  0
  -21.6857   -6.0732   22.5281 C   0  0  0  0  0  0
  -21.4015   -6.5638   23.8218 C   0  0  0  0  0  0
  -21.3660   -5.6791   24.9181 C   0  0  0  0  0  0
  -21.6051   -4.3055   24.7236 C   0  0  0  0  0  0
  -21.8816   -3.8138   23.4361 C   0  0  0  0  0  0
  -21.9193   -4.6952   22.3411 C   0  0  0  0  0  0
  -22.7863  -13.5244   21.1844 C   0  0  0  0  0  0
  -22.1657   -4.2133   21.0991 F   0  0  0  0  0  0
  -21.5640   -3.4538   25.7749 F   0  0  0  0  0  0
  -30.0574  -13.1667   20.4692 N   0  0  0  0  0  0
  -26.3038  -12.9309   20.3378 N   0  0  0  0  0  0
  -25.9295  -11.6475   20.5736 N   0  0  0  0  0  0
  -22.0492  -12.8207   22.0374 N   0  0  0  0  0  0
  -25.4329  -15.1872   20.4066 N   0  0  0  0  0  0
  -31.7327  -14.6600   20.0370 O   0  0  0  0  0  0
  -21.6634   -6.8881   21.4241 O   0  0  0  0  0  0
  -22.3550  -14.5559   20.6716 O   0  0  0  0  0  0
  -24.6036  -31.8741   23.2150 C   0  0  0  0  0  0
  -25.8979  -32.4851   23.8419 C   0  0  1  0  0  0
  -27.2731  -27.5303   20.0717 C   0  0  0  0  0  0
  -25.5877  -33.8643   24.2367 N   0  0  0  0  0  0
  -23.3853  -30.4929   21.5527 C   0  0  2  0  0  0
  -24.8356  -28.9528   20.1280 C   0  0  0  0  0  0
  -22.7329  -29.4688   22.5049 C   0  0  0  0  0  0
  -18.0244  -28.1395   22.8512 C   0  0  0  0  0  0
  -24.1479  -36.7328   23.2628 C   0  0  0  0  0  0
  -25.8966  -30.8654   21.3487 C   0  0  0  0  0  0
  -25.9780  -29.4925   20.7262 C   0  0  0  0  0  0
  -27.1813  -28.7773   20.7298 C   0  0  0  0  0  0
  -26.1067  -26.9645   19.5132 C   0  0  0  0  0  0
  -24.8851  -27.6742   19.5365 C   0  0  0  0  0  0
  -23.5909  -29.8097   20.1699 C   0  0  0  0  0  0
  -25.4083  -36.3124   24.0345 C   0  0  1  0  0  0
  -20.5820  -28.3661   23.1379 C   0  0  2  0  0  0
  -20.6743  -26.9406   22.5456 C   0  0  0  0  0  0
  -19.5731  -26.6404   21.5237 C   0  0  0  0  0  0
  -18.1893  -26.7960   22.1620 C   0  0  0  0  0  0
  -19.1488  -28.8836   23.2945 C   0  0  0  0  0  0
  -18.9422  -30.1458   23.8941 C   0  0  0  0  0  0
  -17.6427  -30.6613   24.0585 C   0  0  0  0  0  0
  -25.9019  -34.9487   23.5151 C   0  0  0  0  0  0
  -16.5314  -29.9133   23.6319 C   0  0  0  0  0  0
  -16.7236  -28.6537   23.0350 C   0  0  0  0  0  0
  -26.4449  -31.6591   25.0697 C   0  0  0  0  0  0
  -25.3743  -31.3598   26.1436 C   0  0  0  0  0  0
  -27.0284  -30.3068   24.5968 C   0  0  0  0  0  0
  -27.6023  -32.4272   25.7499 C   0  0  0  0  0  0
  -27.5584  -37.1800   24.8442 C   0  0  0  0  0  0
  -21.4071  -29.3040   22.3793 N   0  0  0  0  0  0
  -26.4266  -37.3823   23.9438 N   0  0  0  0  0  0
  -24.6464  -31.0914   22.1000 N   0  0  0  0  0  0
  -23.4150  -28.8244   23.3067 O   0  0  0  0  0  0
  -28.4839  -26.8989   19.8980 O   0  0  0  0  0  0
  -26.5588  -34.8929   22.4717 O   0  0  0  0  0  0
  -23.5265  -32.1457   23.7614 O   0  0  0  0  0  0
  -32.5186  -20.9510   20.9818 C   0  0  0  0  0  0
  -30.2611  -21.7883   21.3146 C   0  0  0  0  0  0
  -31.5708  -21.9731   20.8307 C   0  0  0  0  0  0
  -32.1671  -19.7360   21.5977 C   0  0  0  0  0  0
  -29.8801  -20.5908   21.9503 C   0  0  0  0  0  0
  -30.8357  -19.5446   22.0754 C   0  0  0  0  0  0
  -30.8172  -16.3626   23.8596 C   0  0  0  0  0  0
  -31.1413  -23.4724   18.8571 C   0  0  0  0  0  0
  -31.8018  -24.4476   21.1432 C   0  0  0  0  0  0
  -30.8077  -17.8933   23.9157 C   0  0  0  0  0  0
  -30.3950  -17.2079   21.6542 C   0  0  0  0  0  0
  -31.3386  -24.8735   18.2708 C   0  0  0  0  0  0
  -31.9453  -25.8049   20.4538 C   0  0  0  0  0  0
  -31.9568  -23.2723   20.1548 C   0  0  1  0  0  0
  -31.0950  -16.0605   22.3850 C   0  0  2  0  0  0
  -33.2557  -18.6757   21.6935 C   0  0  0  0  0  0
  -27.5103  -20.0219   21.2764 C   0  0  0  0  0  0
  -27.8900  -21.6963   23.1468 C   0  0  0  0  0  0
  -31.8914  -28.1386   18.6444 C   0  0  0  0  0  0
  -29.5889  -27.8121   19.7262 C   0  0  0  0  0  0
  -28.4285  -20.4387   22.4353 C   0  0  0  0  0  0
  -30.6626  -27.2164   18.8092 C   0  0  2  0  0  0
  -30.3944  -18.3160   22.5861 N   0  0  0  0  0  0
  -30.5394  -14.8004   21.9386 N   0  0  0  0  0  0
  -30.9985  -25.8683   19.3136 N   0  3  1  0  0  0
  -31.4496  -12.3576   19.0653 H   0  0  0  0  0  0
  -30.2928  -11.2257   19.7057 H   0  0  0  0  0  0
  -29.6951  -11.8614   17.3562 H   0  0  0  0  0  0
  -29.6503  -13.5484   17.8080 H   0  0  0  0  0  0
  -27.8078  -11.3289   18.7718 H   0  0  0  0  0  0
  -27.3451  -12.6920   17.7875 H   0  0  0  0  0  0
  -27.7369  -14.2560   19.6254 H   0  0  0  0  0  0
  -28.6365  -11.8737   21.3201 H   0  0  0  0  0  0
  -28.4480  -13.5074   21.8741 H   0  0  0  0  0  0
  -25.2742   -9.5708   22.4782 H   0  0  0  0  0  0
  -23.9981   -7.4658   22.7486 H   0  0  0  0  0  0
  -21.0853   -8.8781   19.8923 H   0  0  0  0  0  0
  -22.3701  -10.9683   19.6150 H   0  0  0  0  0  0
  -21.2005   -7.6144   23.9714 H   0  0  0  0  0  0
  -21.1491   -6.0523   25.9086 H   0  0  0  0  0  0
  -22.0600   -2.7598   23.2870 H   0  0  0  0  0  0
  -22.4083  -11.9819   22.4699 H   0  0  0  0  0  0
  -21.1109  -13.1231   22.2593 H   0  0  0  0  0  0
  -24.6731  -15.8485   20.5245 H   0  0  0  0  0  0
  -26.2943  -15.6236   20.1022 H   0  0  0  0  0  0
  -26.7079  -32.5626   23.1232 H   0  0  0  0  0  0
  -25.0046  -33.9816   25.0516 H   0  0  0  0  0  0
  -22.6704  -31.3056   21.4132 H   0  0  0  0  0  0
  -23.3775  -35.9621   23.3199 H   0  0  0  0  0  0
  -24.3606  -36.9038   22.2063 H   0  0  0  0  0  0
  -23.7181  -37.6474   23.6716 H   0  0  0  0  0  0
  -25.9686  -31.6156   20.5602 H   0  0  0  0  0  0
  -26.8000  -30.9543   21.9390 H   0  0  0  0  0  0
  -28.0428  -29.2238   21.2036 H   0  0  0  0  0  0
  -26.1580  -26.0032   19.0202 H   0  0  0  0  0  0
  -24.0034  -27.2424   19.0829 H   0  0  0  0  0  0
  -23.6924  -30.5782   19.4032 H   0  0  0  0  0  0
  -22.7199  -29.2181   19.8836 H   0  0  0  0  0  0
  -25.1239  -36.1977   25.0833 H   0  0  0  0  0  0
  -20.9918  -28.3223   24.1502 H   0  0  0  0  0  0
  -20.5648  -26.2246   23.3622 H   0  0  0  0  0  0
  -21.6618  -26.7486   22.1245 H   0  0  0  0  0  0
  -19.6895  -25.6324   21.1219 H   0  0  0  0  0  0
  -19.6680  -27.3233   20.6781 H   0  0  0  0  0  0
  -17.4186  -26.6767   21.3984 H   0  0  0  0  0  0
  -18.0247  -26.0076   22.8981 H   0  0  0  0  0  0
  -19.7903  -30.7276   24.2309 H   0  0  0  0  0  0
  -17.4995  -31.6282   24.5224 H   0  0  0  0  0  0
  -15.5323  -30.3064   23.7618 H   0  0  0  0  0  0
  -15.8631  -28.0881   22.7043 H   0  0  0  0  0  0
  -24.5997  -30.6861   25.7762 H   0  0  0  0  0  0
  -24.8824  -32.2700   26.4869 H   0  0  0  0  0  0
  -25.8155  -30.8809   27.0180 H   0  0  0  0  0  0
  -26.2807  -29.6841   24.1049 H   0  0  0  0  0  0
  -27.4145  -29.7273   25.4360 H   0  0  0  0  0  0
  -27.8577  -30.4439   23.9023 H   0  0  0  0  0  0
  -27.2652  -33.3566   26.2087 H   0  0  0  0  0  0
  -28.3859  -32.6808   25.0355 H   0  0  0  0  0  0
  -28.0642  -31.8354   26.5407 H   0  0  0  0  0  0
  -28.2513  -38.0187   24.7645 H   0  0  0  0  0  0
  -28.1177  -36.2734   24.6086 H   0  0  0  0  0  0
  -27.2338  -37.1220   25.8845 H   0  0  0  0  0  0
  -20.9207  -29.8746   21.7014 H   0  0  0  0  0  0
  -26.0143  -38.2866   24.1552 H   0  0  0  0  0  0
  -33.5216  -21.0972   20.6063 H   0  0  0  0  0  0
  -29.5341  -22.5749   21.1821 H   0  0  0  0  0  0
  -29.8326  -15.9893   24.1460 H   0  0  0  0  0  0
  -31.5526  -15.9195   24.5331 H   0  0  0  0  0  0
  -31.4136  -22.7165   18.1188 H   0  0  0  0  0  0
  -30.0774  -23.3313   19.0486 H   0  0  0  0  0  0
  -30.8243  -24.4186   21.6260 H   0  0  0  0  0  0
  -32.5330  -24.3571   21.9468 H   0  0  0  0  0  0
  -31.7909  -18.2881   24.1699 H   0  0  0  0  0  0
  -30.1068  -18.2527   24.6704 H   0  0  0  0  0  0
  -29.3518  -16.9608   21.4492 H   0  0  0  0  0  0
  -30.8599  -17.4396   20.6943 H   0  0  0  0  0  0
  -30.7004  -24.9863   17.3940 H   0  0  0  0  0  0
  -32.3658  -25.0204   17.9335 H   0  0  0  0  0  0
  -32.9697  -25.9553   20.1094 H   0  0  0  0  0  0
  -31.7401  -26.5906   21.1802 H   0  0  0  0  0  0
  -33.0093  -23.2245   19.8701 H   0  0  0  0  0  0
  -32.1727  -16.0845   22.2158 H   0  0  0  0  0  0
  -34.2125  -19.0526   21.3323 H   0  0  0  0  0  0
  -33.0175  -17.8106   21.0788 H   0  0  0  0  0  0
  -33.4099  -18.3546   22.7217 H   0  0  0  0  0  0
  -27.8596  -19.0946   20.8202 H   0  0  0  0  0  0
  -27.4803  -20.7846   20.4976 H   0  0  0  0  0  0
  -26.4901  -19.8520   21.6199 H   0  0  0  0  0  0
  -28.5612  -22.0116   23.9468 H   0  0  0  0  0  0
  -26.9154  -21.5021   23.5955 H   0  0  0  0  0  0
  -27.7615  -22.5378   22.4666 H   0  0  0  0  0  0
  -31.6169  -29.0687   18.1450 H   0  0  0  0  0  0
  -32.6698  -27.6700   18.0413 H   0  0  0  0  0  0
  -32.3323  -28.4131   19.6045 H   0  0  0  0  0  0
  -29.2766  -28.7526   19.2666 H   0  0  0  0  0  0
  -30.0045  -28.0601   20.7034 H   0  0  0  0  0  0
  -28.3865  -19.6481   23.1843 H   0  0  0  0  0  0
  -30.1951  -27.1123   17.8291 H   0  0  0  0  0  0
  -29.8195  -14.3669   22.4971 H   0  0  0  0  0  0
  -30.1066  -25.5615   19.6823 H   0  0  0  0  0  0
  1 25  1  0  0  0
  1 30  2  0  0  0
  1 94  1  0  0  0
  2  3  1  0  0  0
  2 25  1  0  0  0
  2 96  1  0  0  0
  2 97  1  0  0  0
  3  4  1  0  0  0
  3 98  1  0  0  0
  3 99  1  0  0  0
  4  5  1  0  0  0
  4100  1  0  0  0
  4101  1  0  0  0
  5  6  1  0  0  0
  5 26  1  0  0  0
  5102  1  0  0  0
  6 25  1  0  0  0
  6103  1  0  0  0
  6104  1  0  0  0
  7  8  2  0  0  0
  7 26  1  0  0  0
  7 29  1  0  0  0
  8  9  1  0  0  0
  8 22  1  0  0  0
  9 10  1  0  0  0
  9 27  2  0  0  0
 10 11  2  0  0  0
 10 15  1  0  0  0
 11 12  1  0  0  0
 11105  1  0  0  0
 12 13  2  0  0  0
 12106  1  0  0  0
 13 14  1  0  0  0
 13 31  1  0  0  0
 14 15  2  0  0  0
 14107  1  0  0  0
 15108  1  0  0  0
 16 17  2  0  0  0
 16 21  1  0  0  0
 16 31  1  0  0  0
 17 18  1  0  0  0
 17109  1  0  0  0
 18 19  2  0  0  0
 18110  1  0  0  0
 19 20  1  0  0  0
 19 24  1  0  0  0
 20 21  2  0  0  0
 20111  1  0  0  0
 21 23  1  0  0  0
 22 28  1  0  0  0
 22 32  2  0  0  0
 26 27  1  0  0  0
 28112  1  0  0  0
 28113  1  0  0  0
 29114  1  0  0  0
 29115  1  0  0  0
 33 34  1  0  0  0
 33 66  1  0  0  0
 33 70  2  0  0  0
 34 36  1  0  0  0
 34 59  1  0  0  0
 34116  1  0  0  0
 35 44  2  0  0  0
 35 45  1  0  0  0
 35 68  1  0  0  0
 36 56  1  0  0  0
 36117  1  0  0  0
 37 39  1  0  0  0
 37 47  1  0  0  0
 37 66  1  0  0  0
 37118  1  0  0  0
 38 43  2  0  0  0
 38 46  1  0  0  0
 38 47  1  0  0  0
 39 64  1  0  0  0
 39 67  2  0  0  0
 40 52  1  0  0  0
 40 53  2  0  0  0
 40 58  1  0  0  0
 41119  1  0  0  0
 41120  1  0  0  0
 41121  1  0  0  0
 41 48  1  0  0  0
 42 43  1  0  0  0
 42 66  1  0  0  0
 42122  1  0  0  0
 42123  1  0  0  0
 43 44  1  0  0  0
 44124  1  0  0  0
 45 46  2  0  0  0
 45125  1  0  0  0
 46126  1  0  0  0
 47127  1  0  0  0
 47128  1  0  0  0
 48 56  1  0  0  0
 48 65  1  0  0  0
 48129  1  0  0  0
 49 50  1  0  0  0
 49 53  1  0  0  0
 49 64  1  0  0  0
 49130  1  0  0  0
 50 51  1  0  0  0
 50131  1  0  0  0
 50132  1  0  0  0
 51 52  1  0  0  0
 51133  1  0  0  0
 51134  1  0  0  0
 52135  1  0  0  0
 52136  1  0  0  0
 53 54  1  0  0  0
 54 55  2  0  0  0
 54137  1  0  0  0
 55 57  1  0  0  0
 55138  1  0  0  0
 56 69  2  0  0  0
 57 58  2  0  0  0
 57139  1  0  0  0
 58140  1  0  0  0
 59 60  1  0  0  0
 59 61  1  0  0  0
 59 62  1  0  0  0
 60141  1  0  0  0
 60142  1  0  0  0
 60143  1  0  0  0
 61144  1  0  0  0
 61145  1  0  0  0
 61146  1  0  0  0
 62147  1  0  0  0
 62148  1  0  0  0
 62149  1  0  0  0
 63 65  1  0  0  0
 63150  1  0  0  0
 63151  1  0  0  0
 63152  1  0  0  0
 64153  1  0  0  0
 65154  1  0  0  0
 68 90  1  0  0  0
 71 73  2  0  0  0
 71 74  1  0  0  0
 71155  1  0  0  0
 72 73  1  0  0  0
 72 75  2  0  0  0
 72156  1  0  0  0
 73 84  1  0  0  0
 74 76  2  0  0  0
 74 86  1  0  0  0
 75 76  1  0  0  0
 75 91  1  0  0  0
 76 93  1  0  0  0
 77 80  1  0  0  0
 77 85  1  0  0  0
 77157  1  0  0  0
 77158  1  0  0  0
 78 82  1  0  0  0
 78 84  1  0  0  0
 78159  1  0  0  0
 78160  1  0  0  0
 79 83  1  0  0  0
 79 84  1  0  0  0
 79161  1  0  0  0
 79162  1  0  0  0
 80 93  1  0  0  0
 80163  1  0  0  0
 80164  1  0  0  0
 81 85  1  0  0  0
 81 93  1  0  0  0
 81165  1  0  0  0
 81166  1  0  0  0
 82167  1  0  0  0
 82168  1  0  0  0
 82 95  1  0  0  0
 83 95  1  0  0  0
 83169  1  0  0  0
 83170  1  0  0  0
 84171  1  0  0  0
 85 94  1  0  0  0
 85172  1  0  0  0
 86173  1  0  0  0
 86174  1  0  0  0
 86175  1  0  0  0
 87176  1  0  0  0
 87177  1  0  0  0
 87178  1  0  0  0
 87 91  1  0  0  0
 88 91  1  0  0  0
 88179  1  0  0  0
 88180  1  0  0  0
 88181  1  0  0  0
 89182  1  0  0  0
 89183  1  0  0  0
 89184  1  0  0  0
 89 92  1  0  0  0
 90 92  1  0  0  0
 90185  1  0  0  0
 90186  1  0  0  0
 91187  1  0  0  0
 92 95  1  0  0  0
 92188  1  0  0  0
 94189  1  0  0  0
 95190  1  0  0  0
M  CHG  1  95   1
M  ISO  4   1 100  68 101  90 101  94 100
M  END
> <chiral flag>
0

> <version>
0

> <s_m_source_file>
/data/baiqing/PycharmProjects/Reinvent-master-3.2/result/LINK_invent/BTK/process_docking_weight1_custom_sum_contain_oxygen_bond_distance_aromatic_linkinvent_7_9_3/rearranged_h_0155.sdf

> <i_m_source_file_index>
18

> <r_mmod_Potential_Energy-OPLS-2005>
-47.9166374206543

> <r_mmod_Stretch_Energy-OPLS-2005>
35.2438163757324

> <r_mmod_Bend_Energy-OPLS-2005>
132.628173828125

> <r_mmod_Torsional_Energy-OPLS-2005>
337.229919433594

> <r_mmod_Improper_Torsional_Energy-OPLS-2005>
6.76948595046997

> <r_mmod_Van_der_Waal_Energy-OPLS-2005>
175.131484985352

> <r_mmod_Electrostatic_Energy-OPLS-2005>
-347.068267822266

> <r_mmod_Solvation_Energy-OPLS-2005>
-400.338470458984

> <b_mmod_Minimization_Converged-OPLS-2005>
0

> <r_mmod_RMS_Derivative-OPLS-2005>
2.4895715713501

$$$$
18
                    3D
 Structure written by MMmdl.
168178  0  0  1  0            999 V2000
  -30.6735  -14.6414   20.5122 C   0  0  0  0  0  0
  -30.4192  -12.3965   19.4683 C   0  0  0  0  0  0
  -29.5041  -12.5143   18.2310 C   0  0  0  0  0  0
  -28.0336  -12.3423   18.6525 C   0  0  0  0  0  0
  -27.6503  -13.2293   19.8695 C   0  0  2  0  0  0
  -28.6944  -13.1345   21.0021 C   0  0  0  0  0  0
  -25.2526  -13.8195   20.5742 C   0  0  0  0  0  0
  -24.1827  -13.0431   20.9194 C   0  0  0  0  0  0
  -24.6430  -11.6922   20.8753 C   0  0  0  0  0  0
  -23.9112  -10.4293   21.0401 C   0  0  0  0  0  0
  -24.3650   -9.4186   21.9181 C   0  0  0  0  0  0
  -23.6317   -8.2220   22.0746 C   0  0  0  0  0  0
  -22.4291   -8.0272   21.3541 C   0  0  0  0  0  0
  -21.9938   -9.0249   20.4639 C   0  0  0  0  0  0
  -22.7278  -10.2116   20.3054 C   0  0  0  0  0  0
  -21.6862   -6.0721   22.5275 C   0  0  0  0  0  0
  -21.4004   -6.5624   23.8195 C   0  0  0  0  0  0
  -21.3673   -5.6780   24.9166 C   0  0  0  0  0  0
  -21.6055   -4.3040   24.7227 C   0  0  0  0  0  0
  -21.8830   -3.8135   23.4347 C   0  0  0  0  0  0
  -21.9193   -4.6952   22.3401 C   0  0  0  0  0  0
  -22.7842  -13.5163   21.1903 C   0  0  0  0  0  0
  -22.1672   -4.2118   21.0982 F   0  0  0  0  0  0
  -21.5659   -3.4547   25.7753 F   0  0  0  0  0  0
  -30.0033  -13.4485   20.4201 N   0  0  0  0  0  0
  -26.2987  -12.9425   20.3371 N   0  0  0  0  0  0
  -25.9347  -11.6559   20.5755 N   0  0  0  0  0  0
  -22.0532  -12.8101   22.0456 N   0  0  0  0  0  0
  -25.4224  -15.1929   20.4206 N   0  0  0  0  0  0
  -31.8683  -14.7024   20.2025 O   0  0  0  0  0  0
  -21.6659   -6.8857   21.4239 O   0  0  0  0  0  0
  -22.3501  -14.5498   20.6800 O   0  0  0  0  0  0
  -24.6267  -31.8645   23.2050 C   0  0  0  0  0  0
  -25.9119  -32.4794   23.8376 C   0  0  1  0  0  0
  -27.2462  -27.3396   20.0881 C   0  0  0  0  0  0
  -25.5953  -33.8583   24.2322 N   0  0  0  0  0  0
  -23.4199  -30.4842   21.5494 C   0  0  2  0  0  0
  -24.8679  -28.9370   20.1164 C   0  0  0  0  0  0
  -22.7468  -29.4646   22.4986 C   0  0  0  0  0  0
  -18.0283  -28.1381   22.8479 C   0  0  0  0  0  0
  -24.1508  -36.7277   23.2652 C   0  0  0  0  0  0
  -25.9626  -30.7948   21.3773 C   0  0  0  0  0  0
  -26.0375  -29.4235   20.7164 C   0  0  0  0  0  0
  -27.2234  -28.6301   20.7032 C   0  0  0  0  0  0
  -26.0580  -26.9192   19.4429 C   0  0  0  0  0  0
  -24.8794  -27.6866   19.4800 C   0  0  0  0  0  0
  -23.6329  -29.8151   20.1664 C   0  0  0  0  0  0
  -25.4113  -36.3064   24.0353 C   0  0  1  0  0  0
  -20.5895  -28.3689   23.1307 C   0  0  2  0  0  0
  -20.6772  -26.9424   22.5406 C   0  0  0  0  0  0
  -19.5734  -26.6380   21.5212 C   0  0  0  0  0  0
  -18.1923  -26.7922   22.1629 C   0  0  0  0  0  0
  -19.1547  -28.8845   23.2897 C   0  0  0  0  0  0
  -18.9454  -30.1435   23.8902 C   0  0  0  0  0  0
  -17.6465  -30.6586   24.0543 C   0  0  0  0  0  0
  -25.9044  -34.9453   23.5118 C   0  0  0  0  0  0
  -16.5351  -29.9066   23.6327 C   0  0  0  0  0  0
  -16.7279  -28.6490   23.0348 C   0  0  0  0  0  0
  -26.4501  -31.6592   25.0745 C   0  0  0  0  0  0
  -25.3752  -31.3711   26.1488 C   0  0  0  0  0  0
  -27.0371  -30.3027   24.6204 C   0  0  0  0  0  0
  -27.6063  -32.4317   25.7517 C   0  0  0  0  0  0
  -27.5570  -37.1802   24.8480 C   0  0  0  0  0  0
  -21.4196  -29.3058   22.3721 N   0  0  0  0  0  0
  -26.4287  -37.3739   23.9417 N   0  0  0  0  0  0
  -24.6884  -31.0617   22.1010 N   0  0  0  0  0  0
  -23.4197  -28.8230   23.3108 O   0  0  0  0  0  0
  -28.3899  -26.5250   20.1424 O   0  0  0  0  0  0
  -26.5579  -34.8903   22.4672 O   0  0  0  0  0  0
  -23.5430  -32.1473   23.7355 O   0  0  0  0  0  0
  -28.5844  -22.1164   18.7145 C   0  0  0  0  0  0
  -29.2728  -21.3545   20.6853 C   0  0  0  0  0  0
  -29.0498  -22.5464   19.9899 C   0  0  0  0  0  0
  -28.5145  -20.7519   18.6648 C   0  0  0  0  0  0
  -28.8941  -19.6431   16.3223 C   0  0  0  0  0  0
  -27.6054  -20.4155   16.2030 C   0  0  0  0  0  0
  -29.4229  -18.1540   21.5122 C   0  0  0  0  0  0
  -30.1252  -18.0631   19.2128 C   0  0  0  0  0  0
  -29.3158  -16.5650   21.5542 C   0  0  0  0  0  0
  -29.9193  -16.5305   19.1297 C   0  0  0  0  0  0
  -28.0334  -19.8700   17.5440 C   0  0  0  0  0  0
  -29.0864  -18.7448   20.1186 C   0  0  0  0  0  0
  -28.3236  -25.1146   19.7010 C   0  0  0  0  0  0
  -29.2616  -24.0427   20.4124 C   0  0  2  0  0  0
  -28.9882  -20.2345   19.8736 N   0  0  0  0  0  0
  -29.9193  -15.7964   20.4179 N   0  0  0  0  0  0
  -30.6906  -24.3797   20.2357 N   0  3  0  0  0  0
  -31.4631  -12.4925   19.1664 H   0  0  0  0  0  0
  -30.3299  -11.4109   19.9293 H   0  0  0  0  0  0
  -29.7698  -11.7678   17.4837 H   0  0  0  0  0  0
  -29.6443  -13.4874   17.7564 H   0  0  0  0  0  0
  -27.8933  -11.2931   18.9100 H   0  0  0  0  0  0
  -27.3667  -12.5388   17.8126 H   0  0  0  0  0  0
  -27.6539  -14.2591   19.5158 H   0  0  0  0  0  0
  -28.7072  -12.1437   21.4585 H   0  0  0  0  0  0
  -28.4466  -13.8316   21.8012 H   0  0  0  0  0  0
  -25.2793   -9.5650   22.4750 H   0  0  0  0  0  0
  -24.0023   -7.4612   22.7447 H   0  0  0  0  0  0
  -21.0875   -8.8794   19.8932 H   0  0  0  0  0  0
  -22.3768  -10.9674   19.6160 H   0  0  0  0  0  0
  -21.1983   -7.6128   23.9696 H   0  0  0  0  0  0
  -21.1497   -6.0510   25.9055 H   0  0  0  0  0  0
  -22.0600   -2.7600   23.2878 H   0  0  0  0  0  0
  -22.4225  -11.9721   22.4717 H   0  0  0  0  0  0
  -21.1152  -13.1063   22.2764 H   0  0  0  0  0  0
  -24.6576  -15.8469   20.5408 H   0  0  0  0  0  0
  -26.2822  -15.6306   20.1165 H   0  0  0  0  0  0
  -26.7199  -32.5450   23.1145 H   0  0  0  0  0  0
  -25.0164  -33.9747   25.0503 H   0  0  0  0  0  0
  -22.7120  -31.3031   21.4057 H   0  0  0  0  0  0
  -23.3737  -35.9643   23.3327 H   0  0  0  0  0  0
  -24.3619  -36.8854   22.2060 H   0  0  0  0  0  0
  -23.7295  -37.6512   23.6644 H   0  0  0  0  0  0
  -26.0985  -31.5624   20.6124 H   0  0  0  0  0  0
  -26.8438  -30.8397   22.0080 H   0  0  0  0  0  0
  -28.1207  -28.9930   21.1833 H   0  0  0  0  0  0
  -25.9963  -25.9889   18.8954 H   0  0  0  0  0  0
  -23.9920  -27.3098   18.9885 H   0  0  0  0  0  0
  -23.7450  -30.5903   19.4090 H   0  0  0  0  0  0
  -22.7541  -29.2423   19.8636 H   0  0  0  0  0  0
  -25.1273  -36.1931   25.0838 H   0  0  0  0  0  0
  -20.9969  -28.3215   24.1436 H   0  0  0  0  0  0
  -20.5703  -26.2279   23.3598 H   0  0  0  0  0  0
  -21.6639  -26.7472   22.1189 H   0  0  0  0  0  0
  -19.6899  -25.6288   21.1231 H   0  0  0  0  0  0
  -19.6652  -27.3179   20.6734 H   0  0  0  0  0  0
  -17.4196  -26.6676   21.4023 H   0  0  0  0  0  0
  -18.0318  -26.0078   22.9041 H   0  0  0  0  0  0
  -19.7934  -30.7248   24.2300 H   0  0  0  0  0  0
  -17.5014  -31.6272   24.5126 H   0  0  0  0  0  0
  -15.5348  -30.2973   23.7648 H   0  0  0  0  0  0
  -15.8675  -28.0789   22.7090 H   0  0  0  0  0  0
  -24.5942  -30.7031   25.7841 H   0  0  0  0  0  0
  -24.8925  -32.2860   26.4931 H   0  0  0  0  0  0
  -25.8109  -30.8908   27.0266 H   0  0  0  0  0  0
  -26.2966  -29.6761   24.1234 H   0  0  0  0  0  0
  -27.4089  -29.7283   25.4702 H   0  0  0  0  0  0
  -27.8807  -30.4309   23.9422 H   0  0  0  0  0  0
  -27.2695  -33.3617   26.2104 H   0  0  0  0  0  0
  -28.3893  -32.6881   25.0367 H   0  0  0  0  0  0
  -28.0740  -31.8450   26.5445 H   0  0  0  0  0  0
  -28.2593  -38.0084   24.7444 H   0  0  0  0  0  0
  -28.1052  -36.2597   24.6383 H   0  0  0  0  0  0
  -27.2291  -37.1528   25.8889 H   0  0  0  0  0  0
  -20.9369  -29.8756   21.6903 H   0  0  0  0  0  0
  -26.0171  -38.2840   24.1319 H   0  0  0  0  0  0
  -28.3094  -22.7535   17.8833 H   0  0  0  0  0  0
  -29.6143  -21.1978   21.7014 H   0  0  0  0  0  0
  -29.8274  -20.2005   16.2437 H   0  0  0  0  0  0
  -28.9246  -18.6286   15.9330 H   0  0  0  0  0  0
  -26.7727  -19.9149   15.7110 H   0  0  0  0  0  0
  -27.6649  -21.4887   16.0406 H   0  0  0  0  0  0
  -30.4336  -18.4459   21.7960 H   0  0  0  0  0  0
  -28.7776  -18.5967   22.2683 H   0  0  0  0  0  0
  -30.1046  -18.4623   18.2050 H   0  0  0  0  0  0
  -31.1300  -18.2889   19.5688 H   0  0  0  0  0  0
  -28.2575  -16.3015   21.5618 H   0  0  0  0  0  0
  -29.7134  -16.2030   22.5052 H   0  0  0  0  0  0
  -30.6802  -16.1279   18.4563 H   0  0  0  0  0  0
  -28.9592  -16.3378   18.6508 H   0  0  0  0  0  0
  -27.4317  -19.0406   17.9127 H   0  0  0  0  0  0
  -28.0916  -18.3614   19.8863 H   0  0  0  0  0  0
  -28.4952  -25.1175   18.6246 H   0  0  0  0  0  0
  -27.3202  -24.7173   19.8468 H   0  0  0  0  0  0
  -29.0505  -24.1062   21.4805 H   0  0  0  0  0  0
  -31.2287  -23.9248   20.9517 H   0  0  0  0  0  0
  -30.8533  -25.3714   20.3057 H   0  0  0  0  0  0
  -31.0272  -24.0647   19.3440 H   0  0  0  0  0  0
  1 25  1  0  0  0
  1 30  2  0  0  0
  1 86  1  0  0  0
  2  3  1  0  0  0
  2 25  1  0  0  0
  2 88  1  0  0  0
  2 89  1  0  0  0
  3  4  1  0  0  0
  3 90  1  0  0  0
  3 91  1  0  0  0
  4  5  1  0  0  0
  4 92  1  0  0  0
  4 93  1  0  0  0
  5  6  1  0  0  0
  5 26  1  0  0  0
  5 94  1  0  0  0
  6 25  1  0  0  0
  6 95  1  0  0  0
  6 96  1  0  0  0
  7  8  2  0  0  0
  7 26  1  0  0  0
  7 29  1  0  0  0
  8  9  1  0  0  0
  8 22  1  0  0  0
  9 10  1  0  0  0
  9 27  2  0  0  0
 10 11  2  0  0  0
 10 15  1  0  0  0
 11 12  1  0  0  0
 11 97  1  0  0  0
 12 13  2  0  0  0
 12 98  1  0  0  0
 13 14  1  0  0  0
 13 31  1  0  0  0
 14 15  2  0  0  0
 14 99  1  0  0  0
 15100  1  0  0  0
 16 17  2  0  0  0
 16 21  1  0  0  0
 16 31  1  0  0  0
 17 18  1  0  0  0
 17101  1  0  0  0
 18 19  2  0  0  0
 18102  1  0  0  0
 19 20  1  0  0  0
 19 24  1  0  0  0
 20 21  2  0  0  0
 20103  1  0  0  0
 21 23  1  0  0  0
 22 28  1  0  0  0
 22 32  2  0  0  0
 26 27  1  0  0  0
 28104  1  0  0  0
 28105  1  0  0  0
 29106  1  0  0  0
 29107  1  0  0  0
 33 34  1  0  0  0
 33 66  1  0  0  0
 33 70  2  0  0  0
 34 36  1  0  0  0
 34 59  1  0  0  0
 34108  1  0  0  0
 35 44  2  0  0  0
 35 45  1  0  0  0
 35 68  1  0  0  0
 36 56  1  0  0  0
 36109  1  0  0  0
 37 39  1  0  0  0
 37 47  1  0  0  0
 37 66  1  0  0  0
 37110  1  0  0  0
 38 43  2  0  0  0
 38 46  1  0  0  0
 38 47  1  0  0  0
 39 64  1  0  0  0
 39 67  2  0  0  0
 40 52  1  0  0  0
 40 53  2  0  0  0
 40 58  1  0  0  0
 41111  1  0  0  0
 41112  1  0  0  0
 41113  1  0  0  0
 41 48  1  0  0  0
 42 43  1  0  0  0
 42 66  1  0  0  0
 42114  1  0  0  0
 42115  1  0  0  0
 43 44  1  0  0  0
 44116  1  0  0  0
 45 46  2  0  0  0
 45117  1  0  0  0
 46118  1  0  0  0
 47119  1  0  0  0
 47120  1  0  0  0
 48 56  1  0  0  0
 48 65  1  0  0  0
 48121  1  0  0  0
 49 50  1  0  0  0
 49 53  1  0  0  0
 49 64  1  0  0  0
 49122  1  0  0  0
 50 51  1  0  0  0
 50123  1  0  0  0
 50124  1  0  0  0
 51 52  1  0  0  0
 51125  1  0  0  0
 51126  1  0  0  0
 52127  1  0  0  0
 52128  1  0  0  0
 53 54  1  0  0  0
 54 55  2  0  0  0
 54129  1  0  0  0
 55 57  1  0  0  0
 55130  1  0  0  0
 56 69  2  0  0  0
 57 58  2  0  0  0
 57131  1  0  0  0
 58132  1  0  0  0
 59 60  1  0  0  0
 59 61  1  0  0  0
 59 62  1  0  0  0
 60133  1  0  0  0
 60134  1  0  0  0
 60135  1  0  0  0
 61136  1  0  0  0
 61137  1  0  0  0
 61138  1  0  0  0
 62139  1  0  0  0
 62140  1  0  0  0
 62141  1  0  0  0
 63 65  1  0  0  0
 63142  1  0  0  0
 63143  1  0  0  0
 63144  1  0  0  0
 64145  1  0  0  0
 65146  1  0  0  0
 68 83  1  0  0  0
 71 73  1  0  0  0
 71 74  2  0  0  0
 71147  1  0  0  0
 72 73  2  0  0  0
 72 85  1  0  0  0
 72148  1  0  0  0
 73 84  1  0  0  0
 74 85  1  0  0  0
 74 81  1  0  0  0
 75 76  1  0  0  0
 75 81  1  0  0  0
 75149  1  0  0  0
 75150  1  0  0  0
 76 81  1  0  0  0
 76151  1  0  0  0
 76152  1  0  0  0
 77 79  1  0  0  0
 77 82  1  0  0  0
 77153  1  0  0  0
 77154  1  0  0  0
 78 80  1  0  0  0
 78 82  1  0  0  0
 78155  1  0  0  0
 78156  1  0  0  0
 79 86  1  0  0  0
 79157  1  0  0  0
 79158  1  0  0  0
 80 86  1  0  0  0
 80159  1  0  0  0
 80160  1  0  0  0
 81161  1  0  0  0
 82 85  1  0  0  0
 82162  1  0  0  0
 83 84  1  0  0  0
 83163  1  0  0  0
 83164  1  0  0  0
 84 87  1  0  0  0
 84165  1  0  0  0
 87166  1  0  0  0
 87167  1  0  0  0
 87168  1  0  0  0
M  CHG  1  87   1
M  ISO  4   1 100  68 101  83 101  86 100
M  END
> <chiral flag>
0

> <version>
0

> <s_m_source_file>
/data/baiqing/PycharmProjects/Reinvent-master-3.2/result/LINK_invent/BTK/process_docking_weight1_custom_sum_contain_oxygen_bond_distance_aromatic_linkinvent_7_9_3/rearranged_h_0155.sdf

> <i_m_source_file_index>
19

> <r_mmod_Potential_Energy-OPLS-2005>
80.7469787597656

> <r_mmod_Stretch_Energy-OPLS-2005>
80.791145324707

> <r_mmod_Bend_Energy-OPLS-2005>
158.244155883789

> <r_mmod_Torsional_Energy-OPLS-2005>
380.92333984375

> <r_mmod_Improper_Torsional_Energy-OPLS-2005>
17.8221225738525

> <r_mmod_Van_der_Waal_Energy-OPLS-2005>
124.819549560547

> <r_mmod_Electrostatic_Energy-OPLS-2005>
-284.672058105469

> <r_mmod_Solvation_Energy-OPLS-2005>
-444.542327880859

> <b_mmod_Minimization_Converged-OPLS-2005>
0

> <r_mmod_RMS_Derivative-OPLS-2005>
6.1688232421875

$$$$
19
                    3D
 Structure written by MMmdl.
176185  0  0  1  0            999 V2000
  -30.6917  -14.4974   20.3997 C   0  0  0  0  0  0
  -30.4130  -12.2782   19.4327 C   0  0  0  0  0  0
  -29.4896  -12.4327   18.2066 C   0  0  0  0  0  0
  -28.0112  -12.3158   18.6244 C   0  0  0  0  0  0
  -27.6481  -13.2001   19.8475 C   0  0  2  0  0  0
  -28.6994  -13.0787   20.9751 C   0  0  0  0  0  0
  -25.2585  -13.8152   20.5681 C   0  0  0  0  0  0
  -24.1843  -13.0444   20.9203 C   0  0  0  0  0  0
  -24.6383  -11.6905   20.8770 C   0  0  0  0  0  0
  -23.9045  -10.4297   21.0417 C   0  0  0  0  0  0
  -24.3607   -9.4215   21.9185 C   0  0  0  0  0  0
  -23.6290   -8.2247   22.0755 C   0  0  0  0  0  0
  -22.4274   -8.0275   21.3542 C   0  0  0  0  0  0
  -21.9904   -9.0250   20.4654 C   0  0  0  0  0  0
  -22.7222  -10.2134   20.3064 C   0  0  0  0  0  0
  -21.6862   -6.0730   22.5272 C   0  0  0  0  0  0
  -21.4022   -6.5636   23.8201 C   0  0  0  0  0  0
  -21.3658   -5.6790   24.9161 C   0  0  0  0  0  0
  -21.6038   -4.3049   24.7219 C   0  0  0  0  0  0
  -21.8822   -3.8142   23.4341 C   0  0  0  0  0  0
  -21.9201   -4.6960   22.3398 C   0  0  0  0  0  0
  -22.7871  -13.5259   21.1841 C   0  0  0  0  0  0
  -22.1668   -4.2150   21.0973 F   0  0  0  0  0  0
  -21.5626   -3.4528   25.7727 F   0  0  0  0  0  0
  -30.0210  -13.3196   20.3884 N   0  0  0  0  0  0
  -26.2979  -12.9295   20.3291 N   0  0  0  0  0  0
  -25.9303  -11.6471   20.5788 N   0  0  0  0  0  0
  -22.0498  -12.8263   22.0391 N   0  0  0  0  0  0
  -25.4316  -15.1853   20.4057 N   0  0  0  0  0  0
  -31.9238  -14.5470   20.3191 O   0  0  0  0  0  0
  -21.6638   -6.8875   21.4234 O   0  0  0  0  0  0
  -22.3565  -14.5553   20.6666 O   0  0  0  0  0  0
  -24.6128  -31.8700   23.2113 C   0  0  0  0  0  0
  -25.9026  -32.4832   23.8410 C   0  0  1  0  0  0
  -27.2316  -27.4436   20.0896 C   0  0  0  0  0  0
  -25.5908  -33.8635   24.2349 N   0  0  0  0  0  0
  -23.3974  -30.4960   21.5523 C   0  0  2  0  0  0
  -24.8409  -28.9654   20.1114 C   0  0  0  0  0  0
  -22.7384  -29.4678   22.4996 C   0  0  0  0  0  0
  -18.0271  -28.1374   22.8506 C   0  0  0  0  0  0
  -24.1474  -36.7306   23.2636 C   0  0  0  0  0  0
  -25.9244  -30.8369   21.3632 C   0  0  0  0  0  0
  -25.9985  -29.4724   20.7113 C   0  0  0  0  0  0
  -27.1903  -28.7169   20.7017 C   0  0  0  0  0  0
  -26.0526  -26.9536   19.4802 C   0  0  0  0  0  0
  -24.8626  -27.7048   19.4945 C   0  0  0  0  0  0
  -23.6025  -29.8303   20.1659 C   0  0  0  0  0  0
  -25.4099  -36.3116   24.0332 C   0  0  1  0  0  0
  -20.5857  -28.3648   23.1327 C   0  0  2  0  0  0
  -20.6755  -26.9386   22.5422 C   0  0  0  0  0  0
  -19.5743  -26.6382   21.5210 C   0  0  0  0  0  0
  -18.1922  -26.7926   22.1622 C   0  0  0  0  0  0
  -19.1520  -28.8831   23.2916 C   0  0  0  0  0  0
  -18.9447  -30.1438   23.8921 C   0  0  0  0  0  0
  -17.6449  -30.6583   24.0575 C   0  0  0  0  0  0
  -25.9031  -34.9477   23.5138 C   0  0  0  0  0  0
  -16.5344  -29.9089   23.6318 C   0  0  0  0  0  0
  -16.7263  -28.6503   23.0352 C   0  0  0  0  0  0
  -26.4469  -31.6606   25.0734 C   0  0  0  0  0  0
  -25.3746  -31.3699   26.1491 C   0  0  0  0  0  0
  -27.0295  -30.3058   24.6087 C   0  0  0  0  0  0
  -27.6067  -32.4313   25.7482 C   0  0  0  0  0  0
  -27.5570  -37.1811   24.8467 C   0  0  0  0  0  0
  -21.4111  -29.3033   22.3735 N   0  0  0  0  0  0
  -26.4279  -37.3810   23.9416 N   0  0  0  0  0  0
  -24.6628  -31.0822   22.1007 N   0  0  0  0  0  0
  -23.4169  -28.8214   23.3017 O   0  0  0  0  0  0
  -28.4366  -26.7664   20.1275 O   0  0  0  0  0  0
  -26.5589  -34.8916   22.4692 O   0  0  0  0  0  0
  -23.5324  -32.1454   23.7524 O   0  0  0  0  0  0
  -27.7905  -18.4227   20.5106 C   0  0  0  0  0  0
  -28.3938  -18.9245   21.6808 C   0  0  0  0  0  0
  -28.2082  -17.1820   19.9703 C   0  0  0  0  0  0
  -29.2795  -16.5000   20.6114 C   0  0  0  0  0  0
  -29.3056  -18.0772   22.3417 C   0  0  0  0  0  0
  -29.3702  -21.2404   22.0258 C   0  0  0  0  0  0
  -26.8594  -21.0631   21.6557 C   0  0  0  0  0  0
  -29.0294  -22.7388   21.9115 C   0  0  0  0  0  0
  -27.1589  -21.9680   20.4382 C   0  0  0  0  0  0
  -28.1192  -20.3442   22.2122 C   0  0  1  0  0  0
  -28.5750  -25.1094   18.3061 C   0  0  0  0  0  0
  -30.5554  -16.0388   18.5845 C   0  0  0  0  0  0
  -26.7616  -17.4266   18.0503 C   0  0  0  0  0  0
  -30.5648  -17.5012   24.3036 C   0  0  0  0  0  0
  -27.6712  -24.4291   20.6697 C   0  0  0  0  0  0
  -28.5783  -25.3680   19.8252 C   0  0  2  0  0  0
  -29.7395  -16.9109   21.8145 N   0  0  0  0  0  0
  -29.9830  -15.5162   19.8463 N   0  0  0  0  0  0
  -28.1837  -23.0241   20.7155 N   0  3  1  0  0  0
  -27.6490  -16.6334   18.8317 O   0  0  0  0  0  0
  -29.8298  -18.4658   23.5560 O   0  0  0  0  0  0
  -31.4584  -12.3601   19.1288 H   0  0  0  0  0  0
  -30.3004  -11.2911   19.8835 H   0  0  0  0  0  0
  -29.7240  -11.6698   17.4631 H   0  0  0  0  0  0
  -29.6616  -13.3928   17.7201 H   0  0  0  0  0  0
  -27.8254  -11.2670   18.8606 H   0  0  0  0  0  0
  -27.3627  -12.5517   17.7808 H   0  0  0  0  0  0
  -27.6569  -14.2244   19.4870 H   0  0  0  0  0  0
  -28.6731  -12.0884   21.4302 H   0  0  0  0  0  0
  -28.4925  -13.7972   21.7705 H   0  0  0  0  0  0
  -25.2759   -9.5690   22.4747 H   0  0  0  0  0  0
  -24.0008   -7.4640   22.7471 H   0  0  0  0  0  0
  -21.0837   -8.8761   19.8966 H   0  0  0  0  0  0
  -22.3680  -10.9666   19.6172 H   0  0  0  0  0  0
  -21.2010   -7.6143   23.9707 H   0  0  0  0  0  0
  -21.1480   -6.0515   25.9066 H   0  0  0  0  0  0
  -22.0609   -2.7609   23.2833 H   0  0  0  0  0  0
  -22.4114  -11.9941   22.4804 H   0  0  0  0  0  0
  -21.1112  -13.1286   22.2560 H   0  0  0  0  0  0
  -24.6541  -15.8293   20.4889 H   0  0  0  0  0  0
  -26.2614  -15.6106   20.0034 H   0  0  0  0  0  0
  -26.7098  -32.5557   23.1175 H   0  0  0  0  0  0
  -25.0106  -33.9801   25.0531 H   0  0  0  0  0  0
  -22.6853  -31.3123   21.4166 H   0  0  0  0  0  0
  -23.3736  -35.9647   23.3325 H   0  0  0  0  0  0
  -24.3576  -36.8898   22.2050 H   0  0  0  0  0  0
  -23.7204  -37.6506   23.6634 H   0  0  0  0  0  0
  -26.0339  -31.5998   20.5913 H   0  0  0  0  0  0
  -26.8116  -30.8913   21.9814 H   0  0  0  0  0  0
  -28.0817  -29.1079   21.1729 H   0  0  0  0  0  0
  -26.0109  -26.0023   18.9807 H   0  0  0  0  0  0
  -23.9745  -27.3131   19.0186 H   0  0  0  0  0  0
  -23.7071  -30.6064   19.4066 H   0  0  0  0  0  0
  -22.7259  -29.2492   19.8724 H   0  0  0  0  0  0
  -25.1274  -36.1991   25.0826 H   0  0  0  0  0  0
  -20.9970  -28.3217   24.1440 H   0  0  0  0  0  0
  -20.5632  -26.2270   23.3609 H   0  0  0  0  0  0
  -21.6631  -26.7427   22.1235 H   0  0  0  0  0  0
  -19.6888  -25.6292   21.1233 H   0  0  0  0  0  0
  -19.6674  -27.3200   20.6747 H   0  0  0  0  0  0
  -17.4190  -26.6701   21.4017 H   0  0  0  0  0  0
  -18.0315  -26.0046   22.8996 H   0  0  0  0  0  0
  -19.7924  -30.7256   24.2303 H   0  0  0  0  0  0
  -17.5005  -31.6261   24.5171 H   0  0  0  0  0  0
  -15.5347  -30.3003   23.7607 H   0  0  0  0  0  0
  -15.8672  -28.0820   22.7060 H   0  0  0  0  0  0
  -24.5923  -30.7035   25.7828 H   0  0  0  0  0  0
  -24.8919  -32.2849   26.4942 H   0  0  0  0  0  0
  -25.8105  -30.8871   27.0247 H   0  0  0  0  0  0
  -26.2830  -29.6830   24.1141 H   0  0  0  0  0  0
  -27.4079  -29.7279   25.4527 H   0  0  0  0  0  0
  -27.8661  -30.4388   23.9224 H   0  0  0  0  0  0
  -27.2722  -33.3625   26.2068 H   0  0  0  0  0  0
  -28.3872  -32.6857   25.0296 H   0  0  0  0  0  0
  -28.0741  -31.8426   26.5386 H   0  0  0  0  0  0
  -28.2616  -38.0084   24.7527 H   0  0  0  0  0  0
  -28.1034  -36.2626   24.6285 H   0  0  0  0  0  0
  -27.2297  -37.1455   25.8871 H   0  0  0  0  0  0
  -20.9238  -29.8785   21.7002 H   0  0  0  0  0  0
  -26.0169  -38.2887   24.1441 H   0  0  0  0  0  0
  -27.0404  -19.0065   20.0046 H   0  0  0  0  0  0
  -30.0680  -21.0784   22.8486 H   0  0  0  0  0  0
  -29.9054  -20.9474   21.1210 H   0  0  0  0  0  0
  -26.0466  -20.3650   21.4527 H   0  0  0  0  0  0
  -26.4620  -21.7098   22.4399 H   0  0  0  0  0  0
  -29.9481  -23.3250   21.8580 H   0  0  0  0  0  0
  -28.5140  -23.0533   22.8208 H   0  0  0  0  0  0
  -26.2266  -22.3879   20.0608 H   0  0  0  0  0  0
  -27.5390  -21.3527   19.6224 H   0  0  0  0  0  0
  -27.9428  -20.2325   23.2838 H   0  0  0  0  0  0
  -28.8870  -24.0919   18.0727 H   0  0  0  0  0  0
  -29.2750  -25.7798   17.8066 H   0  0  0  0  0  0
  -27.6043  -25.2592   17.8440 H   0  0  0  0  0  0
  -29.8061  -16.4353   17.9044 H   0  0  0  0  0  0
  -31.0947  -15.2788   18.0161 H   0  0  0  0  0  0
  -31.2592  -16.8443   18.8008 H   0  0  0  0  0  0
  -26.5130  -16.8845   17.1380 H   0  0  0  0  0  0
  -27.2217  -18.3690   17.7507 H   0  0  0  0  0  0
  -25.8280  -17.6341   18.5761 H   0  0  0  0  0  0
  -30.8778  -17.9320   25.2537 H   0  0  0  0  0  0
  -31.4638  -17.1800   23.7772 H   0  0  0  0  0  0
  -29.9538  -16.6245   24.5253 H   0  0  0  0  0  0
  -26.6549  -24.4501   20.2878 H   0  0  0  0  0  0
  -27.5938  -24.8214   21.6842 H   0  0  0  0  0  0
  -29.6007  -25.1704   20.1539 H   0  0  0  0  0  0
  -28.8074  -22.9509   19.9235 H   0  0  0  0  0  0
  1 25  1  0  0  0
  1 30  2  0  0  0
  1 88  1  0  0  0
  2  3  1  0  0  0
  2 25  1  0  0  0
  2 92  1  0  0  0
  2 93  1  0  0  0
  3  4  1  0  0  0
  3 94  1  0  0  0
  3 95  1  0  0  0
  4  5  1  0  0  0
  4 96  1  0  0  0
  4 97  1  0  0  0
  5  6  1  0  0  0
  5 26  1  0  0  0
  5 98  1  0  0  0
  6 25  1  0  0  0
  6 99  1  0  0  0
  6100  1  0  0  0
  7  8  2  0  0  0
  7 26  1  0  0  0
  7 29  1  0  0  0
  8  9  1  0  0  0
  8 22  1  0  0  0
  9 10  1  0  0  0
  9 27  2  0  0  0
 10 11  2  0  0  0
 10 15  1  0  0  0
 11 12  1  0  0  0
 11101  1  0  0  0
 12 13  2  0  0  0
 12102  1  0  0  0
 13 14  1  0  0  0
 13 31  1  0  0  0
 14 15  2  0  0  0
 14103  1  0  0  0
 15104  1  0  0  0
 16 17  2  0  0  0
 16 21  1  0  0  0
 16 31  1  0  0  0
 17 18  1  0  0  0
 17105  1  0  0  0
 18 19  2  0  0  0
 18106  1  0  0  0
 19 20  1  0  0  0
 19 24  1  0  0  0
 20 21  2  0  0  0
 20107  1  0  0  0
 21 23  1  0  0  0
 22 28  1  0  0  0
 22 32  2  0  0  0
 26 27  1  0  0  0
 28108  1  0  0  0
 28109  1  0  0  0
 29110  1  0  0  0
 29111  1  0  0  0
 33 34  1  0  0  0
 33 66  1  0  0  0
 33 70  2  0  0  0
 34 36  1  0  0  0
 34 59  1  0  0  0
 34112  1  0  0  0
 35 44  2  0  0  0
 35 45  1  0  0  0
 35 68  1  0  0  0
 36 56  1  0  0  0
 36113  1  0  0  0
 37 39  1  0  0  0
 37 47  1  0  0  0
 37 66  1  0  0  0
 37114  1  0  0  0
 38 43  2  0  0  0
 38 46  1  0  0  0
 38 47  1  0  0  0
 39 64  1  0  0  0
 39 67  2  0  0  0
 40 52  1  0  0  0
 40 53  2  0  0  0
 40 58  1  0  0  0
 41115  1  0  0  0
 41116  1  0  0  0
 41117  1  0  0  0
 41 48  1  0  0  0
 42 43  1  0  0  0
 42 66  1  0  0  0
 42118  1  0  0  0
 42119  1  0  0  0
 43 44  1  0  0  0
 44120  1  0  0  0
 45 46  2  0  0  0
 45121  1  0  0  0
 46122  1  0  0  0
 47123  1  0  0  0
 47124  1  0  0  0
 48 56  1  0  0  0
 48 65  1  0  0  0
 48125  1  0  0  0
 49 50  1  0  0  0
 49 53  1  0  0  0
 49 64  1  0  0  0
 49126  1  0  0  0
 50 51  1  0  0  0
 50127  1  0  0  0
 50128  1  0  0  0
 51 52  1  0  0  0
 51129  1  0  0  0
 51130  1  0  0  0
 52131  1  0  0  0
 52132  1  0  0  0
 53 54  1  0  0  0
 54 55  2  0  0  0
 54133  1  0  0  0
 55 57  1  0  0  0
 55134  1  0  0  0
 56 69  2  0  0  0
 57 58  2  0  0  0
 57135  1  0  0  0
 58136  1  0  0  0
 59 60  1  0  0  0
 59 61  1  0  0  0
 59 62  1  0  0  0
 60137  1  0  0  0
 60138  1  0  0  0
 60139  1  0  0  0
 61140  1  0  0  0
 61141  1  0  0  0
 61142  1  0  0  0
 62143  1  0  0  0
 62144  1  0  0  0
 62145  1  0  0  0
 63 65  1  0  0  0
 63146  1  0  0  0
 63147  1  0  0  0
 63148  1  0  0  0
 64149  1  0  0  0
 65150  1  0  0  0
 68 86  1  0  0  0
 71 72  2  0  0  0
 71 73  1  0  0  0
 71151  1  0  0  0
 72 75  1  0  0  0
 72 80  1  0  0  0
 73 74  2  0  0  0
 73 90  1  0  0  0
 74 87  1  0  0  0
 74 88  1  0  0  0
 75 87  2  0  0  0
 75 91  1  0  0  0
 76 78  1  0  0  0
 76 80  1  0  0  0
 76152  1  0  0  0
 76153  1  0  0  0
 77 79  1  0  0  0
 77 80  1  0  0  0
 77154  1  0  0  0
 77155  1  0  0  0
 78 89  1  0  0  0
 78156  1  0  0  0
 78157  1  0  0  0
 79 89  1  0  0  0
 79158  1  0  0  0
 79159  1  0  0  0
 80160  1  0  0  0
 81161  1  0  0  0
 81162  1  0  0  0
 81163  1  0  0  0
 81 86  1  0  0  0
 82 88  1  0  0  0
 82164  1  0  0  0
 82165  1  0  0  0
 82166  1  0  0  0
 83 90  1  0  0  0
 83167  1  0  0  0
 83168  1  0  0  0
 83169  1  0  0  0
 84 91  1  0  0  0
 84170  1  0  0  0
 84171  1  0  0  0
 84172  1  0  0  0
 85 86  1  0  0  0
 85173  1  0  0  0
 85174  1  0  0  0
 85 89  1  0  0  0
 86175  1  0  0  0
 89176  1  0  0  0
M  CHG  1  89   1
M  ISO  4   1 100  68 101  86 101  88 100
M  END
> <chiral flag>
0

> <version>
0

> <s_m_source_file>
/data/baiqing/PycharmProjects/Reinvent-master-3.2/result/LINK_invent/BTK/process_docking_weight1_custom_sum_contain_oxygen_bond_distance_aromatic_linkinvent_7_9_3/rearranged_h_0155.sdf

> <i_m_source_file_index>
20

> <r_mmod_Potential_Energy-OPLS-2005>
34.2257423400879

> <r_mmod_Stretch_Energy-OPLS-2005>
43.6713943481445

> <r_mmod_Bend_Energy-OPLS-2005>
145.289505004883

> <r_mmod_Torsional_Energy-OPLS-2005>
349.018920898438

> <r_mmod_Improper_Torsional_Energy-OPLS-2005>
27.8108749389648

> <r_mmod_Van_der_Waal_Energy-OPLS-2005>
182.632476806641

> <r_mmod_Electrostatic_Energy-OPLS-2005>
-330.532409667969

> <r_mmod_Solvation_Energy-OPLS-2005>
-417.674377441406

> <b_mmod_Minimization_Converged-OPLS-2005>
0

> <r_mmod_RMS_Derivative-OPLS-2005>
2.12569427490234

$$$$
20
                    3D
 Structure written by MMmdl.
173183  0  0  1  0            999 V2000
  -30.6966  -14.5569   20.4863 C   0  0  0  0  0  0
  -30.4143  -12.3417   19.4403 C   0  0  0  0  0  0
  -29.4949  -12.4918   18.2116 C   0  0  0  0  0  0
  -28.0165  -12.3505   18.6255 C   0  0  0  0  0  0
  -27.6481  -13.2234   19.8567 C   0  0  2  0  0  0
  -28.6947  -13.0863   20.9832 C   0  0  0  0  0  0
  -25.2539  -13.8188   20.5696 C   0  0  0  0  0  0
  -24.1814  -13.0446   20.9202 C   0  0  0  0  0  0
  -24.6400  -11.6922   20.8746 C   0  0  0  0  0  0
  -23.9073  -10.4298   21.0407 C   0  0  0  0  0  0
  -24.3619   -9.4209   21.9189 C   0  0  0  0  0  0
  -23.6292   -8.2239   22.0753 C   0  0  0  0  0  0
  -22.4275   -8.0280   21.3541 C   0  0  0  0  0  0
  -21.9914   -9.0258   20.4647 C   0  0  0  0  0  0
  -22.7243  -10.2138   20.3059 C   0  0  0  0  0  0
  -21.6850   -6.0740   22.5278 C   0  0  0  0  0  0
  -21.4011   -6.5641   23.8212 C   0  0  0  0  0  0
  -21.3663   -5.6794   24.9173 C   0  0  0  0  0  0
  -21.6045   -4.3054   24.7224 C   0  0  0  0  0  0
  -21.8816   -3.8148   23.4342 C   0  0  0  0  0  0
  -21.9187   -4.6968   22.3398 C   0  0  0  0  0  0
  -22.7834  -13.5231   21.1859 C   0  0  0  0  0  0
  -22.1654   -4.2155   21.0975 F   0  0  0  0  0  0
  -21.5634   -3.4535   25.7733 F   0  0  0  0  0  0
  -30.0079  -13.3828   20.4006 N   0  0  0  0  0  0
  -26.2969  -12.9390   20.3318 N   0  0  0  0  0  0
  -25.9326  -11.6537   20.5758 N   0  0  0  0  0  0
  -22.0485  -12.8222   22.0421 N   0  0  0  0  0  0
  -25.4259  -15.1903   20.4113 N   0  0  0  0  0  0
  -31.9031  -14.5988   20.2232 O   0  0  0  0  0  0
  -21.6633   -6.8886   21.4240 O   0  0  0  0  0  0
  -22.3517  -14.5543   20.6721 O   0  0  0  0  0  0
  -24.6183  -31.8641   23.2056 C   0  0  0  0  0  0
  -25.9063  -32.4799   23.8367 C   0  0  1  0  0  0
  -27.2275  -27.3950   20.1117 C   0  0  0  0  0  0
  -25.5916  -33.8599   24.2303 N   0  0  0  0  0  0
  -23.4089  -30.4856   21.5454 C   0  0  2  0  0  0
  -24.8563  -28.9433   20.1142 C   0  0  0  0  0  0
  -22.7427  -29.4642   22.4962 C   0  0  0  0  0  0
  -18.0278  -28.1391   22.8488 C   0  0  0  0  0  0
  -24.1496  -36.7312   23.2640 C   0  0  0  0  0  0
  -25.9401  -30.8170   21.3637 C   0  0  0  0  0  0
  -26.0178  -29.4469   20.7160 C   0  0  0  0  0  0
  -27.2093  -28.6791   20.7121 C   0  0  0  0  0  0
  -26.0539  -26.9122   19.5028 C   0  0  0  0  0  0
  -24.8708  -27.6767   19.5034 C   0  0  0  0  0  0
  -23.6195  -29.8130   20.1619 C   0  0  0  0  0  0
  -25.4111  -36.3096   24.0337 C   0  0  1  0  0  0
  -20.5867  -28.3679   23.1309 C   0  0  2  0  0  0
  -20.6768  -26.9411   22.5418 C   0  0  0  0  0  0
  -19.5743  -26.6386   21.5223 C   0  0  0  0  0  0
  -18.1920  -26.7939   22.1621 C   0  0  0  0  0  0
  -19.1524  -28.8854   23.2897 C   0  0  0  0  0  0
  -18.9455  -30.1461   23.8899 C   0  0  0  0  0  0
  -17.6450  -30.6598   24.0563 C   0  0  0  0  0  0
  -25.9034  -34.9465   23.5113 C   0  0  0  0  0  0
  -16.5346  -29.9097   23.6329 C   0  0  0  0  0  0
  -16.7260  -28.6521   23.0341 C   0  0  0  0  0  0
  -26.4485  -31.6584   25.0702 C   0  0  0  0  0  0
  -25.3744  -31.3695   26.1448 C   0  0  0  0  0  0
  -27.0317  -30.3029   24.6085 C   0  0  0  0  0  0
  -27.6052  -32.4316   25.7462 C   0  0  0  0  0  0
  -27.5580  -37.1807   24.8465 C   0  0  0  0  0  0
  -21.4149  -29.3051   22.3718 N   0  0  0  0  0  0
  -26.4292  -37.3781   23.9406 N   0  0  0  0  0  0
  -24.6737  -31.0716   22.0963 N   0  0  0  0  0  0
  -23.4186  -28.8182   23.3014 O   0  0  0  0  0  0
  -28.3596  -26.6026   20.0907 O   0  0  0  0  0  0
  -26.5595  -34.8925   22.4671 O   0  0  0  0  0  0
  -23.5364  -32.1400   23.7436 O   0  0  0  0  0  0
  -29.3411  -23.4320   20.0579 C   0  0  0  0  0  0
  -27.1978  -23.3561   21.1396 C   0  0  0  0  0  0
  -29.2812  -22.0350   19.7656 C   0  0  0  0  0  0
  -28.3055  -24.1174   20.7280 C   0  0  0  0  0  0
  -27.1129  -21.9637   20.8905 C   0  0  0  0  0  0
  -28.1454  -21.2628   20.1860 C   0  0  0  0  0  0
  -31.8538  -21.5590   19.5205 C   0  0  0  0  0  0
  -31.4549  -22.1989   18.2095 C   0  0  0  0  0  0
  -29.3919  -17.7288   18.9383 C   0  0  0  0  0  0
  -28.5367  -17.6447   21.2366 C   0  0  0  0  0  0
  -30.4274  -16.6492   19.3112 C   0  0  0  0  0  0
  -29.5505  -16.4917   21.5497 C   0  0  0  0  0  0
  -30.4381  -21.4129   19.0131 C   0  0  0  0  0  0
  -28.9956  -18.6417   20.1300 C   0  0  0  0  0  0
  -25.8578  -21.2633   21.3940 C   0  0  0  0  0  0
  -27.4067  -19.7318   18.3143 C   0  0  0  0  0  0
  -28.4324  -25.6057   21.1363 C   0  0  0  0  0  0
  -27.9122  -19.7597   19.7743 C   0  0  2  0  0  0
  -29.9655  -15.7138   20.3617 N   0  0  0  0  0  0
  -31.4605  -12.4242   19.1411 H   0  0  0  0  0  0
  -30.3080  -11.3515   19.8859 H   0  0  0  0  0  0
  -29.7455  -11.7439   17.4586 H   0  0  0  0  0  0
  -29.6557  -13.4648   17.7440 H   0  0  0  0  0  0
  -27.8404  -11.2983   18.8529 H   0  0  0  0  0  0
  -27.3634  -12.5921   17.7857 H   0  0  0  0  0  0
  -27.6655  -14.2597   19.5166 H   0  0  0  0  0  0
  -28.6885  -12.0767   21.3969 H   0  0  0  0  0  0
  -28.4614  -13.7546   21.8114 H   0  0  0  0  0  0
  -25.2766   -9.5670   22.4766 H   0  0  0  0  0  0
  -23.9998   -7.4625   22.7465 H   0  0  0  0  0  0
  -21.0846   -8.8778   19.8947 H   0  0  0  0  0  0
  -22.3709  -10.9677   19.6163 H   0  0  0  0  0  0
  -21.1997   -7.6147   23.9721 H   0  0  0  0  0  0
  -21.1494   -6.0521   25.9082 H   0  0  0  0  0  0
  -22.0593   -2.7610   23.2835 H   0  0  0  0  0  0
  -22.4091  -11.9868   22.4785 H   0  0  0  0  0  0
  -21.1104  -13.1244   22.2649 H   0  0  0  0  0  0
  -24.6638  -15.8494   20.5258 H   0  0  0  0  0  0
  -26.2884  -15.6250   20.1090 H   0  0  0  0  0  0
  -26.7125  -32.5492   23.1118 H   0  0  0  0  0  0
  -25.0123  -33.9761   25.0487 H   0  0  0  0  0  0
  -22.6993  -31.3026   21.3994 H   0  0  0  0  0  0
  -23.3761  -35.9643   23.3301 H   0  0  0  0  0  0
  -24.3585  -36.8926   22.2053 H   0  0  0  0  0  0
  -23.7259  -37.6518   23.6657 H   0  0  0  0  0  0
  -26.0551  -31.5770   20.5899 H   0  0  0  0  0  0
  -26.8280  -30.8748   21.9811 H   0  0  0  0  0  0
  -28.1070  -29.0615   21.1771 H   0  0  0  0  0  0
  -26.0565  -25.9377   19.0351 H   0  0  0  0  0  0
  -23.9791  -27.2809   19.0363 H   0  0  0  0  0  0
  -23.7278  -30.5838   19.3978 H   0  0  0  0  0  0
  -22.7437  -29.2312   19.8675 H   0  0  0  0  0  0
  -25.1293  -36.1948   25.0831 H   0  0  0  0  0  0
  -20.9946  -28.3242   24.1431 H   0  0  0  0  0  0
  -20.5692  -26.2289   23.3615 H   0  0  0  0  0  0
  -21.6633  -26.7461   22.1190 H   0  0  0  0  0  0
  -19.6912  -25.6300   21.1250 H   0  0  0  0  0  0
  -19.6689  -27.3197   20.6755 H   0  0  0  0  0  0
  -17.4193  -26.6702   21.4020 H   0  0  0  0  0  0
  -18.0304  -26.0082   22.9013 H   0  0  0  0  0  0
  -19.7929  -30.7285   24.2270 H   0  0  0  0  0  0
  -17.5004  -31.6276   24.5170 H   0  0  0  0  0  0
  -15.5347  -30.2996   23.7676 H   0  0  0  0  0  0
  -15.8656  -28.0851   22.7042 H   0  0  0  0  0  0
  -24.5938  -30.7011   25.7800 H   0  0  0  0  0  0
  -24.8914  -32.2847   26.4877 H   0  0  0  0  0  0
  -25.8101  -30.8889   27.0217 H   0  0  0  0  0  0
  -26.2857  -29.6779   24.1159 H   0  0  0  0  0  0
  -27.4119  -29.7270   25.4535 H   0  0  0  0  0  0
  -27.8683  -30.4353   23.9213 H   0  0  0  0  0  0
  -27.2676  -33.3630   26.2012 H   0  0  0  0  0  0
  -28.3879  -32.6849   25.0299 H   0  0  0  0  0  0
  -28.0701  -31.8449   26.5392 H   0  0  0  0  0  0
  -28.2600  -38.0106   24.7502 H   0  0  0  0  0  0
  -28.1076  -36.2632   24.6300 H   0  0  0  0  0  0
  -27.2284  -37.1448   25.8865 H   0  0  0  0  0  0
  -20.9320  -29.8791   21.6949 H   0  0  0  0  0  0
  -26.0187  -38.2862   24.1386 H   0  0  0  0  0  0
  -30.2101  -24.0122   19.7854 H   0  0  0  0  0  0
  -26.4020  -23.8548   21.6758 H   0  0  0  0  0  0
  -32.0352  -22.2276   20.3599 H   0  0  0  0  0  0
  -32.5061  -20.6889   19.4684 H   0  0  0  0  0  0
  -31.8514  -21.7356   17.3080 H   0  0  0  0  0  0
  -31.3946  -23.2834   18.1714 H   0  0  0  0  0  0
  -28.5134  -17.2158   18.5464 H   0  0  0  0  0  0
  -29.7917  -18.3215   18.1163 H   0  0  0  0  0  0
  -28.3267  -18.1960   22.1543 H   0  0  0  0  0  0
  -27.5885  -17.1953   20.9395 H   0  0  0  0  0  0
  -31.3551  -17.1297   19.6277 H   0  0  0  0  0  0
  -30.6697  -16.0885   18.4051 H   0  0  0  0  0  0
  -29.1191  -15.8298   22.3005 H   0  0  0  0  0  0
  -30.4443  -16.9167   22.0098 H   0  0  0  0  0  0
  -30.1647  -20.4703   18.5604 H   0  0  0  0  0  0
  -29.8973  -19.1402   20.4881 H   0  0  0  0  0  0
  -25.2001  -21.9444   21.9351 H   0  0  0  0  0  0
  -26.1153  -20.4570   22.0821 H   0  0  0  0  0  0
  -25.2805  -20.8525   20.5647 H   0  0  0  0  0  0
  -26.5790  -20.4286   18.1798 H   0  0  0  0  0  0
  -27.0257  -18.7521   18.0271 H   0  0  0  0  0  0
  -28.1784  -20.0152   17.6004 H   0  0  0  0  0  0
  -29.4038  -25.7255   21.6168 H   0  0  0  0  0  0
  -27.7029  -25.8207   21.9210 H   0  0  0  0  0  0
  -27.0417  -19.4115   20.3194 H   0  0  0  0  0  0
  1 25  1  0  0  0
  1 30  2  0  0  0
  1 89  1  0  0  0
  2  3  1  0  0  0
  2 25  1  0  0  0
  2 90  1  0  0  0
  2 91  1  0  0  0
  3  4  1  0  0  0
  3 92  1  0  0  0
  3 93  1  0  0  0
  4  5  1  0  0  0
  4 94  1  0  0  0
  4 95  1  0  0  0
  5  6  1  0  0  0
  5 26  1  0  0  0
  5 96  1  0  0  0
  6 25  1  0  0  0
  6 97  1  0  0  0
  6 98  1  0  0  0
  7  8  2  0  0  0
  7 26  1  0  0  0
  7 29  1  0  0  0
  8  9  1  0  0  0
  8 22  1  0  0  0
  9 10  1  0  0  0
  9 27  2  0  0  0
 10 11  2  0  0  0
 10 15  1  0  0  0
 11 12  1  0  0  0
 11 99  1  0  0  0
 12 13  2  0  0  0
 12100  1  0  0  0
 13 14  1  0  0  0
 13 31  1  0  0  0
 14 15  2  0  0  0
 14101  1  0  0  0
 15102  1  0  0  0
 16 17  2  0  0  0
 16 21  1  0  0  0
 16 31  1  0  0  0
 17 18  1  0  0  0
 17103  1  0  0  0
 18 19  2  0  0  0
 18104  1  0  0  0
 19 20  1  0  0  0
 19 24  1  0  0  0
 20 21  2  0  0  0
 20105  1  0  0  0
 21 23  1  0  0  0
 22 28  1  0  0  0
 22 32  2  0  0  0
 26 27  1  0  0  0
 28106  1  0  0  0
 28107  1  0  0  0
 29108  1  0  0  0
 29109  1  0  0  0
 33 34  1  0  0  0
 33 66  1  0  0  0
 33 70  2  0  0  0
 34 36  1  0  0  0
 34 59  1  0  0  0
 34110  1  0  0  0
 35 44  2  0  0  0
 35 45  1  0  0  0
 35 68  1  0  0  0
 36 56  1  0  0  0
 36111  1  0  0  0
 37 39  1  0  0  0
 37 47  1  0  0  0
 37 66  1  0  0  0
 37112  1  0  0  0
 38 43  2  0  0  0
 38 46  1  0  0  0
 38 47  1  0  0  0
 39 64  1  0  0  0
 39 67  2  0  0  0
 40 52  1  0  0  0
 40 53  2  0  0  0
 40 58  1  0  0  0
 41113  1  0  0  0
 41114  1  0  0  0
 41115  1  0  0  0
 41 48  1  0  0  0
 42 43  1  0  0  0
 42 66  1  0  0  0
 42116  1  0  0  0
 42117  1  0  0  0
 43 44  1  0  0  0
 44118  1  0  0  0
 45 46  2  0  0  0
 45119  1  0  0  0
 46120  1  0  0  0
 47121  1  0  0  0
 47122  1  0  0  0
 48 56  1  0  0  0
 48 65  1  0  0  0
 48123  1  0  0  0
 49 50  1  0  0  0
 49 53  1  0  0  0
 49 64  1  0  0  0
 49124  1  0  0  0
 50 51  1  0  0  0
 50125  1  0  0  0
 50126  1  0  0  0
 51 52  1  0  0  0
 51127  1  0  0  0
 51128  1  0  0  0
 52129  1  0  0  0
 52130  1  0  0  0
 53 54  1  0  0  0
 54 55  2  0  0  0
 54131  1  0  0  0
 55 57  1  0  0  0
 55132  1  0  0  0
 56 69  2  0  0  0
 57 58  2  0  0  0
 57133  1  0  0  0
 58134  1  0  0  0
 59 60  1  0  0  0
 59 61  1  0  0  0
 59 62  1  0  0  0
 60135  1  0  0  0
 60136  1  0  0  0
 60137  1  0  0  0
 61138  1  0  0  0
 61139  1  0  0  0
 61140  1  0  0  0
 62141  1  0  0  0
 62142  1  0  0  0
 62143  1  0  0  0
 63 65  1  0  0  0
 63144  1  0  0  0
 63145  1  0  0  0
 63146  1  0  0  0
 64147  1  0  0  0
 65148  1  0  0  0
 68 87  1  0  0  0
 71 73  2  0  0  0
 71 74  1  0  0  0
 71149  1  0  0  0
 72 74  2  0  0  0
 72 75  1  0  0  0
 72150  1  0  0  0
 73 76  1  0  0  0
 73 83  1  0  0  0
 74 87  1  0  0  0
 75 76  2  0  0  0
 75 85  1  0  0  0
 76 88  1  0  0  0
 77 78  1  0  0  0
 77 83  1  0  0  0
 77151  1  0  0  0
 77152  1  0  0  0
 78 83  1  0  0  0
 78153  1  0  0  0
 78154  1  0  0  0
 79 81  1  0  0  0
 79155  1  0  0  0
 79156  1  0  0  0
 79 84  1  0  0  0
 80 82  1  0  0  0
 80 84  1  0  0  0
 80157  1  0  0  0
 80158  1  0  0  0
 81 89  1  0  0  0
 81159  1  0  0  0
 81160  1  0  0  0
 82 89  1  0  0  0
 82161  1  0  0  0
 82162  1  0  0  0
 83163  1  0  0  0
 84 88  1  0  0  0
 84164  1  0  0  0
 85165  1  0  0  0
 85166  1  0  0  0
 85167  1  0  0  0
 86168  1  0  0  0
 86169  1  0  0  0
 86170  1  0  0  0
 86 88  1  0  0  0
 87171  1  0  0  0
 87172  1  0  0  0
 88173  1  0  0  0
M  ISO  4   1 100  68 101  87 101  89 100
M  END
> <chiral flag>
0

> <version>
0

> <s_m_source_file>
/data/baiqing/PycharmProjects/Reinvent-master-3.2/result/LINK_invent/BTK/process_docking_weight1_custom_sum_contain_oxygen_bond_distance_aromatic_linkinvent_7_9_3/rearranged_h_0155.sdf

> <i_m_source_file_index>
21

> <r_mmod_Potential_Energy-OPLS-2005>
322.09521484375

> <r_mmod_Stretch_Energy-OPLS-2005>
63.186206817627

> <r_mmod_Bend_Energy-OPLS-2005>
135.518463134766

> <r_mmod_Torsional_Energy-OPLS-2005>
399.360565185547

> <r_mmod_Improper_Torsional_Energy-OPLS-2005>
20.8570041656494

> <r_mmod_Van_der_Waal_Energy-OPLS-2005>
154.638000488281

> <r_mmod_Electrostatic_Energy-OPLS-2005>
-300.376342773438

> <r_mmod_Solvation_Energy-OPLS-2005>
-181.984954833984

> <b_mmod_Minimization_Converged-OPLS-2005>
0

> <r_mmod_RMS_Derivative-OPLS-2005>
1.80461633205414

$$$$
21
                    3D
 Structure written by MMmdl.
174184  0  0  1  0            999 V2000
  -30.7643  -14.3452   20.5391 C   0  0  0  0  0  0
  -30.4105  -12.1949   19.4464 C   0  0  0  0  0  0
  -29.5073  -12.4126   18.2201 C   0  0  0  0  0  0
  -28.0176  -12.3451   18.6257 C   0  0  0  0  0  0
  -27.6699  -13.1947   19.8823 C   0  0  2  0  0  0
  -28.7069  -12.9723   21.0073 C   0  0  0  0  0  0
  -25.2633  -13.8151   20.5663 C   0  0  0  0  0  0
  -24.1861  -13.0447   20.9171 C   0  0  0  0  0  0
  -24.6395  -11.6909   20.8756 C   0  0  0  0  0  0
  -23.9058  -10.4298   21.0423 C   0  0  0  0  0  0
  -24.3611   -9.4210   21.9195 C   0  0  0  0  0  0
  -23.6286   -8.2243   22.0758 C   0  0  0  0  0  0
  -22.4267   -8.0282   21.3546 C   0  0  0  0  0  0
  -21.9907   -9.0261   20.4650 C   0  0  0  0  0  0
  -22.7236  -10.2143   20.3065 C   0  0  0  0  0  0
  -21.6847   -6.0737   22.5278 C   0  0  0  0  0  0
  -21.4009   -6.5644   23.8211 C   0  0  0  0  0  0
  -21.3658   -5.6797   24.9175 C   0  0  0  0  0  0
  -21.6042   -4.3057   24.7224 C   0  0  0  0  0  0
  -21.8819   -3.8150   23.4344 C   0  0  0  0  0  0
  -21.9189   -4.6966   22.3401 C   0  0  0  0  0  0
  -22.7887  -13.5263   21.1830 C   0  0  0  0  0  0
  -22.1660   -4.2152   21.0979 F   0  0  0  0  0  0
  -21.5631   -3.4541   25.7739 F   0  0  0  0  0  0
  -30.0482  -13.2034   20.4474 N   0  0  0  0  0  0
  -26.3069  -12.9299   20.3399 N   0  0  0  0  0  0
  -25.9324  -11.6478   20.5824 N   0  0  0  0  0  0
  -22.0515  -12.8249   22.0381 N   0  0  0  0  0  0
  -25.4363  -15.1858   20.4035 N   0  0  0  0  0  0
  -31.9225  -14.4662   20.1353 O   0  0  0  0  0  0
  -21.6628   -6.8878   21.4241 O   0  0  0  0  0  0
  -22.3577  -14.5568   20.6679 O   0  0  0  0  0  0
  -24.6088  -31.8790   23.2282 C   0  0  0  0  0  0
  -25.9018  -32.4882   23.8521 C   0  0  1  0  0  0
  -27.2061  -27.4795   20.0695 C   0  0  0  0  0  0
  -25.5915  -33.8685   24.2430 N   0  0  0  0  0  0
  -23.3902  -30.5161   21.5704 C   0  0  2  0  0  0
  -24.8260  -29.0101   20.1270 C   0  0  0  0  0  0
  -22.7374  -29.4726   22.5043 C   0  0  0  0  0  0
  -18.0269  -28.1376   22.8496 C   0  0  0  0  0  0
  -24.1489  -36.7341   23.2629 C   0  0  0  0  0  0
  -25.9238  -30.8484   21.3891 C   0  0  0  0  0  0
  -25.9892  -29.4890   20.7404 C   0  0  0  0  0  0
  -27.1760  -28.7225   20.7353 C   0  0  0  0  0  0
  -26.0376  -27.0851   19.3694 C   0  0  0  0  0  0
  -24.8404  -27.7953   19.4466 C   0  0  0  0  0  0
  -23.5937  -29.8741   20.1790 C   0  0  0  0  0  0
  -25.4102  -36.3148   24.0351 C   0  0  1  0  0  0
  -20.5853  -28.3667   23.1324 C   0  0  2  0  0  0
  -20.6762  -26.9412   22.5411 C   0  0  0  0  0  0
  -19.5738  -26.6388   21.5215 C   0  0  0  0  0  0
  -18.1918  -26.7920   22.1629 C   0  0  0  0  0  0
  -19.1517  -28.8835   23.2910 C   0  0  0  0  0  0
  -18.9445  -30.1441   23.8920 C   0  0  0  0  0  0
  -17.6449  -30.6581   24.0574 C   0  0  0  0  0  0
  -25.9025  -34.9507   23.5174 C   0  0  0  0  0  0
  -16.5341  -29.9083   23.6333 C   0  0  0  0  0  0
  -16.7259  -28.6505   23.0343 C   0  0  0  0  0  0
  -26.4463  -31.6616   25.0807 C   0  0  0  0  0  0
  -25.3737  -31.3705   26.1560 C   0  0  0  0  0  0
  -27.0295  -30.3065   24.6149 C   0  0  0  0  0  0
  -27.6062  -32.4316   25.7547 C   0  0  0  0  0  0
  -27.5585  -37.1825   24.8469 C   0  0  0  0  0  0
  -21.4114  -29.3056   22.3755 N   0  0  0  0  0  0
  -26.4299  -37.3818   23.9407 N   0  0  0  0  0  0
  -24.6589  -31.0935   22.1191 N   0  0  0  0  0  0
  -23.4186  -28.8210   23.3001 O   0  0  0  0  0  0
  -28.3863  -26.7592   20.0467 O   0  0  0  0  0  0
  -26.5567  -34.8931   22.4723 O   0  0  0  0  0  0
  -23.5293  -32.1537   23.7695 O   0  0  0  0  0  0
  -26.9542  -17.9164   17.6494 C   0  0  0  0  0  0
  -28.7729  -18.6666   18.6991 C   0  0  0  0  0  0
  -27.5154  -19.0240   18.3361 C   0  0  0  0  0  0
  -27.8927  -16.9219   17.6091 C   0  0  0  0  0  0
  -28.0188  -15.4665   15.4447 C   0  0  0  0  0  0
  -26.6669  -15.1938   16.0645 C   0  0  0  0  0  0
  -27.2553  -20.8478   20.0086 C   0  0  0  0  0  0
  -27.6154  -21.2889   17.5234 C   0  0  0  0  0  0
  -27.0185  -22.3435   20.1964 C   0  0  0  0  0  0
  -27.3226  -22.7492   17.7955 C   0  0  0  0  0  0
  -26.9532  -20.3800   18.5647 C   0  0  1  0  0  0
  -27.8344  -15.5931   16.9363 C   0  0  0  0  0  0
  -30.2430  -16.7241   18.6705 C   0  0  0  0  0  0
  -30.4437  -16.7123   20.2165 C   0  0  0  0  0  0
  -27.5102  -24.5770   19.3278 C   0  0  0  0  0  0
  -28.3466  -25.3527   20.3537 C   0  0  0  0  0  0
  -28.9960  -17.3712   18.3305 N   0  0  0  0  0  0
  -30.0400  -15.4333   20.7844 N   0  0  0  0  0  0
  -27.7454  -23.1364   19.1674 N   0  3  1  0  0  0
  -31.4628  -12.2355   19.1584 H   0  0  0  0  0  0
  -30.2565  -11.1961   19.8578 H   0  0  0  0  0  0
  -29.7141  -11.6466   17.4718 H   0  0  0  0  0  0
  -29.7613  -13.3579   17.7464 H   0  0  0  0  0  0
  -27.7937  -11.2973   18.8270 H   0  0  0  0  0  0
  -27.3791  -12.6230   17.7874 H   0  0  0  0  0  0
  -27.7181  -14.2440   19.5996 H   0  0  0  0  0  0
  -28.6435  -11.9518   21.3884 H   0  0  0  0  0  0
  -28.5033  -13.6195   21.8622 H   0  0  0  0  0  0
  -25.2761   -9.5671   22.4770 H   0  0  0  0  0  0
  -23.9988   -7.4629   22.7481 H   0  0  0  0  0  0
  -21.0841   -8.8787   19.8955 H   0  0  0  0  0  0
  -22.3706  -10.9684   19.6175 H   0  0  0  0  0  0
  -21.1999   -7.6151   23.9715 H   0  0  0  0  0  0
  -21.1484   -6.0529   25.9080 H   0  0  0  0  0  0
  -22.0598   -2.7611   23.2845 H   0  0  0  0  0  0
  -22.4125  -11.9910   22.4769 H   0  0  0  0  0  0
  -21.1137  -13.1294   22.2587 H   0  0  0  0  0  0
  -24.6643  -15.8366   20.4923 H   0  0  0  0  0  0
  -26.2741  -15.6208   20.0371 H   0  0  0  0  0  0
  -26.7082  -32.5610   23.1282 H   0  0  0  0  0  0
  -25.0091  -33.9887   25.0587 H   0  0  0  0  0  0
  -22.6763  -31.3332   21.4488 H   0  0  0  0  0  0
  -23.3746  -35.9683   23.3316 H   0  0  0  0  0  0
  -24.3576  -36.8925   22.2035 H   0  0  0  0  0  0
  -23.7256  -37.6565   23.6621 H   0  0  0  0  0  0
  -26.0407  -31.6117   20.6180 H   0  0  0  0  0  0
  -26.8119  -30.8936   22.0068 H   0  0  0  0  0  0
  -28.0658  -29.0883   21.2293 H   0  0  0  0  0  0
  -25.9915  -26.2930   18.6500 H   0  0  0  0  0  0
  -23.9669  -27.4522   18.9098 H   0  0  0  0  0  0
  -23.7064  -30.6595   19.4312 H   0  0  0  0  0  0
  -22.7155  -29.2998   19.8767 H   0  0  0  0  0  0
  -25.1264  -36.2037   25.0847 H   0  0  0  0  0  0
  -20.9962  -28.3230   24.1435 H   0  0  0  0  0  0
  -20.5702  -26.2279   23.3596 H   0  0  0  0  0  0
  -21.6630  -26.7486   22.1180 H   0  0  0  0  0  0
  -19.6919  -25.6311   21.1214 H   0  0  0  0  0  0
  -19.6656  -27.3225   20.6764 H   0  0  0  0  0  0
  -17.4192  -26.6680   21.4027 H   0  0  0  0  0  0
  -18.0319  -26.0060   22.9021 H   0  0  0  0  0  0
  -19.7921  -30.7253   24.2301 H   0  0  0  0  0  0
  -17.5003  -31.6267   24.5165 H   0  0  0  0  0  0
  -15.5343  -30.2987   23.7647 H   0  0  0  0  0  0
  -15.8658  -28.0836   22.7029 H   0  0  0  0  0  0
  -24.5923  -30.7029   25.7909 H   0  0  0  0  0  0
  -24.8902  -32.2849   26.5008 H   0  0  0  0  0  0
  -25.8091  -30.8887   27.0322 H   0  0  0  0  0  0
  -26.2852  -29.6831   24.1180 H   0  0  0  0  0  0
  -27.4062  -29.7285   25.4596 H   0  0  0  0  0  0
  -27.8691  -30.4408   23.9327 H   0  0  0  0  0  0
  -27.2710  -33.3609   26.2167 H   0  0  0  0  0  0
  -28.3839  -32.6872   25.0341 H   0  0  0  0  0  0
  -28.0763  -31.8409   26.5419 H   0  0  0  0  0  0
  -28.2614  -38.0111   24.7511 H   0  0  0  0  0  0
  -28.1073  -36.2643   24.6303 H   0  0  0  0  0  0
  -27.2304  -37.1495   25.8874 H   0  0  0  0  0  0
  -20.9271  -29.8822   21.7018 H   0  0  0  0  0  0
  -26.0200  -38.2911   24.1384 H   0  0  0  0  0  0
  -25.9745  -17.8710   17.1932 H   0  0  0  0  0  0
  -29.5458  -19.2261   19.2098 H   0  0  0  0  0  0
  -28.1329  -16.3841   14.8698 H   0  0  0  0  0  0
  -28.5827  -14.6108   15.0783 H   0  0  0  0  0  0
  -26.3357  -14.1584   16.1120 H   0  0  0  0  0  0
  -25.8800  -15.9237   15.8855 H   0  0  0  0  0  0
  -26.6544  -20.2765   20.7175 H   0  0  0  0  0  0
  -28.2930  -20.6648   20.2830 H   0  0  0  0  0  0
  -28.6982  -21.1554   17.5255 H   0  0  0  0  0  0
  -27.2791  -21.0194   16.5210 H   0  0  0  0  0  0
  -27.3392  -22.6417   21.1955 H   0  0  0  0  0  0
  -25.9457  -22.5393   20.1423 H   0  0  0  0  0  0
  -26.2565  -22.9451   17.6613 H   0  0  0  0  0  0
  -27.8479  -23.3440   17.0462 H   0  0  0  0  0  0
  -25.8736  -20.3601   18.4038 H   0  0  0  0  0  0
  -28.2615  -14.8261   17.5597 H   0  0  0  0  0  0
  -30.2939  -15.7377   18.2121 H   0  0  0  0  0  0
  -31.0435  -17.3039   18.2091 H   0  0  0  0  0  0
  -29.8876  -17.4984   20.7261 H   0  0  0  0  0  0
  -31.4901  -16.9146   20.4540 H   0  0  0  0  0  0
  -27.6789  -25.0656   18.3671 H   0  0  0  0  0  0
  -26.4585  -24.6373   19.5982 H   0  0  0  0  0  0
  -29.3771  -24.9971   20.3365 H   0  0  0  0  0  0
  -27.9748  -25.1945   21.3668 H   0  0  0  0  0  0
  -29.0799  -15.3164   21.0706 H   0  0  0  0  0  0
  -28.7373  -22.9581   19.2486 H   0  0  0  0  0  0
  1 25  1  0  0  0
  1 30  2  0  0  0
  1 88  1  0  0  0
  2  3  1  0  0  0
  2 25  1  0  0  0
  2 90  1  0  0  0
  2 91  1  0  0  0
  3  4  1  0  0  0
  3 92  1  0  0  0
  3 93  1  0  0  0
  4  5  1  0  0  0
  4 94  1  0  0  0
  4 95  1  0  0  0
  5  6  1  0  0  0
  5 26  1  0  0  0
  5 96  1  0  0  0
  6 25  1  0  0  0
  6 97  1  0  0  0
  6 98  1  0  0  0
  7  8  2  0  0  0
  7 26  1  0  0  0
  7 29  1  0  0  0
  8  9  1  0  0  0
  8 22  1  0  0  0
  9 10  1  0  0  0
  9 27  2  0  0  0
 10 11  2  0  0  0
 10 15  1  0  0  0
 11 12  1  0  0  0
 11 99  1  0  0  0
 12 13  2  0  0  0
 12100  1  0  0  0
 13 14  1  0  0  0
 13 31  1  0  0  0
 14 15  2  0  0  0
 14101  1  0  0  0
 15102  1  0  0  0
 16 17  2  0  0  0
 16 21  1  0  0  0
 16 31  1  0  0  0
 17 18  1  0  0  0
 17103  1  0  0  0
 18 19  2  0  0  0
 18104  1  0  0  0
 19 20  1  0  0  0
 19 24  1  0  0  0
 20 21  2  0  0  0
 20105  1  0  0  0
 21 23  1  0  0  0
 22 28  1  0  0  0
 22 32  2  0  0  0
 26 27  1  0  0  0
 28106  1  0  0  0
 28107  1  0  0  0
 29108  1  0  0  0
 29109  1  0  0  0
 33 34  1  0  0  0
 33 66  1  0  0  0
 33 70  2  0  0  0
 34 36  1  0  0  0
 34 59  1  0  0  0
 34110  1  0  0  0
 35 44  2  0  0  0
 35 45  1  0  0  0
 35 68  1  0  0  0
 36 56  1  0  0  0
 36111  1  0  0  0
 37 39  1  0  0  0
 37 47  1  0  0  0
 37 66  1  0  0  0
 37112  1  0  0  0
 38 43  2  0  0  0
 38 46  1  0  0  0
 38 47  1  0  0  0
 39 64  1  0  0  0
 39 67  2  0  0  0
 40 52  1  0  0  0
 40 53  2  0  0  0
 40 58  1  0  0  0
 41113  1  0  0  0
 41114  1  0  0  0
 41115  1  0  0  0
 41 48  1  0  0  0
 42 43  1  0  0  0
 42 66  1  0  0  0
 42116  1  0  0  0
 42117  1  0  0  0
 43 44  1  0  0  0
 44118  1  0  0  0
 45 46  2  0  0  0
 45119  1  0  0  0
 46120  1  0  0  0
 47121  1  0  0  0
 47122  1  0  0  0
 48 56  1  0  0  0
 48 65  1  0  0  0
 48123  1  0  0  0
 49 50  1  0  0  0
 49 53  1  0  0  0
 49 64  1  0  0  0
 49124  1  0  0  0
 50 51  1  0  0  0
 50125  1  0  0  0
 50126  1  0  0  0
 51 52  1  0  0  0
 51127  1  0  0  0
 51128  1  0  0  0
 52129  1  0  0  0
 52130  1  0  0  0
 53 54  1  0  0  0
 54 55  2  0  0  0
 54131  1  0  0  0
 55 57  1  0  0  0
 55132  1  0  0  0
 56 69  2  0  0  0
 57 58  2  0  0  0
 57133  1  0  0  0
 58134  1  0  0  0
 59 60  1  0  0  0
 59 61  1  0  0  0
 59 62  1  0  0  0
 60135  1  0  0  0
 60136  1  0  0  0
 60137  1  0  0  0
 61138  1  0  0  0
 61139  1  0  0  0
 61140  1  0  0  0
 62141  1  0  0  0
 62142  1  0  0  0
 62143  1  0  0  0
 63 65  1  0  0  0
 63144  1  0  0  0
 63145  1  0  0  0
 63146  1  0  0  0
 64147  1  0  0  0
 65148  1  0  0  0
 68 86  1  0  0  0
 71 73  1  0  0  0
 71 74  2  0  0  0
 71149  1  0  0  0
 72 73  2  0  0  0
 72 87  1  0  0  0
 72150  1  0  0  0
 73 81  1  0  0  0
 74 87  1  0  0  0
 74 82  1  0  0  0
 75 76  1  0  0  0
 75 82  1  0  0  0
 75151  1  0  0  0
 75152  1  0  0  0
 76 82  1  0  0  0
 76153  1  0  0  0
 76154  1  0  0  0
 77 79  1  0  0  0
 77 81  1  0  0  0
 77155  1  0  0  0
 77156  1  0  0  0
 78 80  1  0  0  0
 78 81  1  0  0  0
 78157  1  0  0  0
 78158  1  0  0  0
 79 89  1  0  0  0
 79159  1  0  0  0
 79160  1  0  0  0
 80 89  1  0  0  0
 80161  1  0  0  0
 80162  1  0  0  0
 81163  1  0  0  0
 82164  1  0  0  0
 83 84  1  0  0  0
 83 87  1  0  0  0
 83165  1  0  0  0
 83166  1  0  0  0
 84 88  1  0  0  0
 84167  1  0  0  0
 84168  1  0  0  0
 85 86  1  0  0  0
 85169  1  0  0  0
 85170  1  0  0  0
 85 89  1  0  0  0
 86171  1  0  0  0
 86172  1  0  0  0
 88173  1  0  0  0
 89174  1  0  0  0
M  CHG  1  89   1
M  ISO  4   1 100  68 101  86 101  88 100
M  END
> <chiral flag>
0

> <version>
0

> <s_m_source_file>
/data/baiqing/PycharmProjects/Reinvent-master-3.2/result/LINK_invent/BTK/process_docking_weight1_custom_sum_contain_oxygen_bond_distance_aromatic_linkinvent_7_9_3/rearranged_h_0155.sdf

> <i_m_source_file_index>
22

> <r_mmod_Potential_Energy-OPLS-2005>
-63.292652130127

> <r_mmod_Stretch_Energy-OPLS-2005>
33.2784042358398

> <r_mmod_Bend_Energy-OPLS-2005>
120.426597595215

> <r_mmod_Torsional_Energy-OPLS-2005>
306.072052001953

> <r_mmod_Improper_Torsional_Energy-OPLS-2005>
10.3438453674316

> <r_mmod_Van_der_Waal_Energy-OPLS-2005>
169.650726318359

> <r_mmod_Electrostatic_Energy-OPLS-2005>
-305.914886474609

> <r_mmod_Solvation_Energy-OPLS-2005>
-420.91552734375

> <b_mmod_Minimization_Converged-OPLS-2005>
0

> <r_mmod_RMS_Derivative-OPLS-2005>
1.29379785060883

$$$$
22
                    3D
 Structure written by MMmdl.
167177  0  0  1  0            999 V2000
  -30.6577  -14.6743   20.4180 C   0  0  0  0  0  0
  -30.4181  -12.3997   19.4561 C   0  0  0  0  0  0
  -29.4956  -12.4667   18.2211 C   0  0  0  0  0  0
  -28.0167  -12.3311   18.6388 C   0  0  0  0  0  0
  -27.6348  -13.2199   19.8552 C   0  0  2  0  0  0
  -28.6928  -13.1628   20.9782 C   0  0  0  0  0  0
  -25.2503  -13.8145   20.5772 C   0  0  0  0  0  0
  -24.1773  -13.0407   20.9229 C   0  0  0  0  0  0
  -24.6365  -11.6887   20.8791 C   0  0  0  0  0  0
  -23.9044  -10.4271   21.0438 C   0  0  0  0  0  0
  -24.3598   -9.4181   21.9204 C   0  0  0  0  0  0
  -23.6275   -8.2223   22.0760 C   0  0  0  0  0  0
  -22.4256   -8.0272   21.3557 C   0  0  0  0  0  0
  -21.9903   -9.0237   20.4648 C   0  0  0  0  0  0
  -22.7234  -10.2115   20.3073 C   0  0  0  0  0  0
  -21.6843   -6.0727   22.5275 C   0  0  0  0  0  0
  -21.4007   -6.5631   23.8207 C   0  0  0  0  0  0
  -21.3668   -5.6790   24.9175 C   0  0  0  0  0  0
  -21.6049   -4.3050   24.7232 C   0  0  0  0  0  0
  -21.8819   -3.8142   23.4349 C   0  0  0  0  0  0
  -21.9192   -4.6957   22.3402 C   0  0  0  0  0  0
  -22.7795  -13.5200   21.1872 C   0  0  0  0  0  0
  -22.1656   -4.2139   21.0978 F   0  0  0  0  0  0
  -21.5639   -3.4542   25.7752 F   0  0  0  0  0  0
  -29.9910  -13.4760   20.3706 N   0  0  0  0  0  0
  -26.2917  -12.9327   20.3397 N   0  0  0  0  0  0
  -25.9303  -11.6487   20.5853 N   0  0  0  0  0  0
  -22.0448  -12.8188   22.0431 N   0  0  0  0  0  0
  -25.4235  -15.1867   20.4217 N   0  0  0  0  0  0
  -31.8747  -14.7219   20.2206 O   0  0  0  0  0  0
  -21.6630   -6.8868   21.4237 O   0  0  0  0  0  0
  -22.3495  -14.5519   20.6734 O   0  0  0  0  0  0
  -24.6248  -31.8591   23.2034 C   0  0  0  0  0  0
  -25.9096  -32.4771   23.8365 C   0  0  1  0  0  0
  -27.2215  -27.3290   20.1273 C   0  0  0  0  0  0
  -25.5914  -33.8576   24.2284 N   0  0  0  0  0  0
  -23.4175  -30.4807   21.5468 C   0  0  2  0  0  0
  -24.8641  -28.9333   20.1155 C   0  0  0  0  0  0
  -22.7455  -29.4609   22.4961 C   0  0  0  0  0  0
  -18.0276  -28.1375   22.8495 C   0  0  0  0  0  0
  -24.1484  -36.7289   23.2644 C   0  0  0  0  0  0
  -25.9577  -30.7919   21.3742 C   0  0  0  0  0  0
  -26.0316  -29.4204   20.7179 C   0  0  0  0  0  0
  -27.2165  -28.6300   20.7115 C   0  0  0  0  0  0
  -26.0382  -26.8888   19.4976 C   0  0  0  0  0  0
  -24.8686  -27.6726   19.4965 C   0  0  0  0  0  0
  -23.6308  -29.8111   20.1638 C   0  0  0  0  0  0
  -25.4113  -36.3083   24.0333 C   0  0  1  0  0  0
  -20.5871  -28.3667   23.1295 C   0  0  2  0  0  0
  -20.6760  -26.9390   22.5415 C   0  0  0  0  0  0
  -19.5734  -26.6378   21.5211 C   0  0  0  0  0  0
  -18.1915  -26.7928   22.1622 C   0  0  0  0  0  0
  -19.1529  -28.8842   23.2890 C   0  0  0  0  0  0
  -18.9457  -30.1453   23.8888 C   0  0  0  0  0  0
  -17.6457  -30.6582   24.0558 C   0  0  0  0  0  0
  -25.9052  -34.9446   23.5110 C   0  0  0  0  0  0
  -16.5347  -29.9076   23.6336 C   0  0  0  0  0  0
  -16.7269  -28.6495   23.0361 C   0  0  0  0  0  0
  -26.4500  -31.6591   25.0739 C   0  0  0  0  0  0
  -25.3736  -31.3698   26.1461 C   0  0  0  0  0  0
  -27.0373  -30.3026   24.6200 C   0  0  0  0  0  0
  -27.6047  -32.4346   25.7502 C   0  0  0  0  0  0
  -27.5584  -37.1794   24.8464 C   0  0  0  0  0  0
  -21.4174  -29.3021   22.3699 N   0  0  0  0  0  0
  -26.4291  -37.3777   23.9414 N   0  0  0  0  0  0
  -24.6851  -31.0605   22.0982 N   0  0  0  0  0  0
  -23.4185  -28.8152   23.3040 O   0  0  0  0  0  0
  -28.3462  -26.5006   20.1317 O   0  0  0  0  0  0
  -26.5612  -34.8911   22.4676 O   0  0  0  0  0  0
  -23.5411  -32.1395   23.7358 O   0  0  0  0  0  0
  -30.5903  -23.1814   18.1716 C   0  0  0  0  0  0
  -28.5840  -22.5529   20.0363 C   0  0  0  0  0  0
  -30.0818  -21.8785   18.2810 C   0  0  0  0  0  0
  -29.1710  -21.4895   19.2638 C   0  0  0  0  0  0
  -30.0522  -24.2148   18.9666 C   0  0  0  0  0  0
  -28.9693  -23.9410   19.8541 C   0  0  0  0  0  0
  -30.1503  -20.8700   17.1791 C   0  0  0  0  0  0
  -28.8408  -20.0927   17.4093 C   0  0  0  0  0  0
  -29.5135  -16.2575   19.0018 C   0  0  0  0  0  0
  -30.3918  -17.0821   21.0937 C   0  0  0  0  0  0
  -28.5948  -17.5047   18.9573 C   0  0  0  0  0  0
  -29.6344  -18.4740   20.8548 C   0  0  0  0  0  0
  -28.6258  -20.0399   18.9573 C   0  0  1  0  0  0
  -30.6108  -25.6126   18.7569 C   0  0  0  0  0  0
  -28.1917  -25.0988   20.5846 C   0  0  0  0  0  0
  -29.9240  -15.8505   20.3630 N   0  0  0  0  0  0
  -29.3050  -18.7372   19.4236 N   0  3  0  0  0  0
  -31.4617  -12.5001   19.1514 H   0  0  0  0  0  0
  -30.3384  -11.4295   19.9473 H   0  0  0  0  0  0
  -29.7523  -11.6766   17.5148 H   0  0  0  0  0  0
  -29.6521  -13.4038   17.6878 H   0  0  0  0  0  0
  -27.8424  -11.2818   18.8812 H   0  0  0  0  0  0
  -27.3650  -12.5561   17.7933 H   0  0  0  0  0  0
  -27.6034  -14.2396   19.4889 H   0  0  0  0  0  0
  -28.7193  -12.1778   21.4455 H   0  0  0  0  0  0
  -28.4534  -13.8757   21.7700 H   0  0  0  0  0  0
  -25.2743   -9.5645   22.4774 H   0  0  0  0  0  0
  -23.9985   -7.4600   22.7467 H   0  0  0  0  0  0
  -21.0850   -8.8755   19.8926 H   0  0  0  0  0  0
  -22.3712  -10.9654   19.6177 H   0  0  0  0  0  0
  -21.1988   -7.6137   23.9705 H   0  0  0  0  0  0
  -21.1494   -6.0526   25.9076 H   0  0  0  0  0  0
  -22.0594   -2.7601   23.2859 H   0  0  0  0  0  0
  -22.4071  -11.9826   22.4769 H   0  0  0  0  0  0
  -21.1060  -13.1191   22.2657 H   0  0  0  0  0  0
  -24.6657  -15.8491   20.5475 H   0  0  0  0  0  0
  -26.2935  -15.6210   20.1477 H   0  0  0  0  0  0
  -26.7160  -32.5445   23.1109 H   0  0  0  0  0  0
  -25.0063  -33.9725   25.0427 H   0  0  0  0  0  0
  -22.7109  -31.3011   21.4029 H   0  0  0  0  0  0
  -23.3754  -35.9611   23.3296 H   0  0  0  0  0  0
  -24.3575  -36.8927   22.2062 H   0  0  0  0  0  0
  -23.7229  -37.6483   23.6678 H   0  0  0  0  0  0
  -26.0900  -31.5550   20.6063 H   0  0  0  0  0  0
  -26.8371  -30.8377   22.0057 H   0  0  0  0  0  0
  -28.1165  -28.9993   21.1830 H   0  0  0  0  0  0
  -26.0119  -25.9253   19.0078 H   0  0  0  0  0  0
  -23.9743  -27.2942   19.0201 H   0  0  0  0  0  0
  -23.7462  -30.5846   19.4041 H   0  0  0  0  0  0
  -22.7521  -29.2372   19.8652 H   0  0  0  0  0  0
  -25.1291  -36.1942   25.0826 H   0  0  0  0  0  0
  -20.9964  -28.3239   24.1415 H   0  0  0  0  0  0
  -20.5654  -26.2269   23.3610 H   0  0  0  0  0  0
  -21.6632  -26.7418   22.1213 H   0  0  0  0  0  0
  -19.6891  -25.6291   21.1230 H   0  0  0  0  0  0
  -19.6678  -27.3193   20.6747 H   0  0  0  0  0  0
  -17.4191  -26.6690   21.4018 H   0  0  0  0  0  0
  -18.0301  -26.0061   22.9006 H   0  0  0  0  0  0
  -19.7930  -30.7278   24.2244 H   0  0  0  0  0  0
  -17.5006  -31.6257   24.5160 H   0  0  0  0  0  0
  -15.5343  -30.2968   23.7674 H   0  0  0  0  0  0
  -15.8672  -28.0810   22.7080 H   0  0  0  0  0  0
  -24.5907  -30.7062   25.7778 H   0  0  0  0  0  0
  -24.8926  -32.2845   26.4930 H   0  0  0  0  0  0
  -25.8067  -30.8845   27.0215 H   0  0  0  0  0  0
  -26.2967  -29.6743   24.1242 H   0  0  0  0  0  0
  -27.4103  -29.7318   25.4715 H   0  0  0  0  0  0
  -27.8806  -30.4335   23.9412 H   0  0  0  0  0  0
  -27.2648  -33.3633   26.2095 H   0  0  0  0  0  0
  -28.3836  -32.6945   25.0319 H   0  0  0  0  0  0
  -28.0744  -31.8477   26.5406 H   0  0  0  0  0  0
  -28.2587  -38.0107   24.7538 H   0  0  0  0  0  0
  -28.1100  -36.2640   24.6263 H   0  0  0  0  0  0
  -27.2297  -37.1411   25.8864 H   0  0  0  0  0  0
  -20.9353  -29.8752   21.6915 H   0  0  0  0  0  0
  -26.0174  -38.2849   24.1435 H   0  0  0  0  0  0
  -31.3065  -23.4136   17.3944 H   0  0  0  0  0  0
  -27.7520  -22.3276   20.6887 H   0  0  0  0  0  0
  -31.0337  -20.2399   17.2860 H   0  0  0  0  0  0
  -30.1725  -21.3431   16.1956 H   0  0  0  0  0  0
  -28.8323  -19.1641   16.8461 H   0  0  0  0  0  0
  -28.0261  -20.6868   16.9891 H   0  0  0  0  0  0
  -30.4061  -16.4443   18.4004 H   0  0  0  0  0  0
  -29.0071  -15.4434   18.4900 H   0  0  0  0  0  0
  -30.3939  -16.8651   22.1639 H   0  0  0  0  0  0
  -31.4415  -17.2386   20.8362 H   0  0  0  0  0  0
  -27.7118  -17.3410   19.5778 H   0  0  0  0  0  0
  -28.1969  -17.5823   17.9497 H   0  0  0  0  0  0
  -30.2380  -19.2937   21.2443 H   0  0  0  0  0  0
  -28.7071  -18.4854   21.4296 H   0  0  0  0  0  0
  -27.5640  -19.9962   19.2061 H   0  0  0  0  0  0
  -31.5583  -25.5858   18.2171 H   0  0  0  0  0  0
  -30.7998  -26.1094   19.7087 H   0  0  0  0  0  0
  -29.9171  -26.2173   18.1720 H   0  0  0  0  0  0
  -28.5141  -25.0784   21.6261 H   0  0  0  0  0  0
  -27.1431  -24.8071   20.6162 H   0  0  0  0  0  0
  -30.1954  -18.7518   18.9527 H   0  0  0  0  0  0
  1 25  1  0  0  0
  1 30  2  0  0  0
  1 86  1  0  0  0
  2  3  1  0  0  0
  2 25  1  0  0  0
  2 88  1  0  0  0
  2 89  1  0  0  0
  3  4  1  0  0  0
  3 90  1  0  0  0
  3 91  1  0  0  0
  4  5  1  0  0  0
  4 92  1  0  0  0
  4 93  1  0  0  0
  5  6  1  0  0  0
  5 26  1  0  0  0
  5 94  1  0  0  0
  6 25  1  0  0  0
  6 95  1  0  0  0
  6 96  1  0  0  0
  7  8  2  0  0  0
  7 26  1  0  0  0
  7 29  1  0  0  0
  8  9  1  0  0  0
  8 22  1  0  0  0
  9 10  1  0  0  0
  9 27  2  0  0  0
 10 11  2  0  0  0
 10 15  1  0  0  0
 11 12  1  0  0  0
 11 97  1  0  0  0
 12 13  2  0  0  0
 12 98  1  0  0  0
 13 14  1  0  0  0
 13 31  1  0  0  0
 14 15  2  0  0  0
 14 99  1  0  0  0
 15100  1  0  0  0
 16 17  2  0  0  0
 16 21  1  0  0  0
 16 31  1  0  0  0
 17 18  1  0  0  0
 17101  1  0  0  0
 18 19  2  0  0  0
 18102  1  0  0  0
 19 20  1  0  0  0
 19 24  1  0  0  0
 20 21  2  0  0  0
 20103  1  0  0  0
 21 23  1  0  0  0
 22 28  1  0  0  0
 22 32  2  0  0  0
 26 27  1  0  0  0
 28104  1  0  0  0
 28105  1  0  0  0
 29106  1  0  0  0
 29107  1  0  0  0
 33 34  1  0  0  0
 33 66  1  0  0  0
 33 70  2  0  0  0
 34 36  1  0  0  0
 34 59  1  0  0  0
 34108  1  0  0  0
 35 44  2  0  0  0
 35 45  1  0  0  0
 35 68  1  0  0  0
 36 56  1  0  0  0
 36109  1  0  0  0
 37 39  1  0  0  0
 37 47  1  0  0  0
 37 66  1  0  0  0
 37110  1  0  0  0
 38 43  2  0  0  0
 38 46  1  0  0  0
 38 47  1  0  0  0
 39 64  1  0  0  0
 39 67  2  0  0  0
 40 52  1  0  0  0
 40 53  2  0  0  0
 40 58  1  0  0  0
 41111  1  0  0  0
 41112  1  0  0  0
 41113  1  0  0  0
 41 48  1  0  0  0
 42 43  1  0  0  0
 42 66  1  0  0  0
 42114  1  0  0  0
 42115  1  0  0  0
 43 44  1  0  0  0
 44116  1  0  0  0
 45 46  2  0  0  0
 45117  1  0  0  0
 46118  1  0  0  0
 47119  1  0  0  0
 47120  1  0  0  0
 48 56  1  0  0  0
 48 65  1  0  0  0
 48121  1  0  0  0
 49 50  1  0  0  0
 49 53  1  0  0  0
 49 64  1  0  0  0
 49122  1  0  0  0
 50 51  1  0  0  0
 50123  1  0  0  0
 50124  1  0  0  0
 51 52  1  0  0  0
 51125  1  0  0  0
 51126  1  0  0  0
 52127  1  0  0  0
 52128  1  0  0  0
 53 54  1  0  0  0
 54 55  2  0  0  0
 54129  1  0  0  0
 55 57  1  0  0  0
 55130  1  0  0  0
 56 69  2  0  0  0
 57 58  2  0  0  0
 57131  1  0  0  0
 58132  1  0  0  0
 59 60  1  0  0  0
 59 61  1  0  0  0
 59 62  1  0  0  0
 60133  1  0  0  0
 60134  1  0  0  0
 60135  1  0  0  0
 61136  1  0  0  0
 61137  1  0  0  0
 61138  1  0  0  0
 62139  1  0  0  0
 62140  1  0  0  0
 62141  1  0  0  0
 63 65  1  0  0  0
 63142  1  0  0  0
 63143  1  0  0  0
 63144  1  0  0  0
 64145  1  0  0  0
 65146  1  0  0  0
 68 85  1  0  0  0
 71 73  2  0  0  0
 71 75  1  0  0  0
 71147  1  0  0  0
 72 74  2  0  0  0
 72 76  1  0  0  0
 72148  1  0  0  0
 73 74  1  0  0  0
 73 77  1  0  0  0
 74 83  1  0  0  0
 75 76  2  0  0  0
 75 84  1  0  0  0
 76 85  1  0  0  0
 77 78  1  0  0  0
 77149  1  0  0  0
 77150  1  0  0  0
 78151  1  0  0  0
 78152  1  0  0  0
 78 83  1  0  0  0
 79 81  1  0  0  0
 79 86  1  0  0  0
 79153  1  0  0  0
 79154  1  0  0  0
 80 82  1  0  0  0
 80 86  1  0  0  0
 80155  1  0  0  0
 80156  1  0  0  0
 81157  1  0  0  0
 81158  1  0  0  0
 81 87  1  0  0  0
 82 87  1  0  0  0
 82159  1  0  0  0
 82160  1  0  0  0
 83 87  1  0  0  0
 83161  1  0  0  0
 84162  1  0  0  0
 84163  1  0  0  0
 84164  1  0  0  0
 85165  1  0  0  0
 85166  1  0  0  0
 87167  1  0  0  0
M  CHG  1  87   1
M  ISO  4   1 100  68 101  85 101  86 100
M  END
> <chiral flag>
0

> <version>
0

> <s_m_source_file>
/data/baiqing/PycharmProjects/Reinvent-master-3.2/result/LINK_invent/BTK/process_docking_weight1_custom_sum_contain_oxygen_bond_distance_aromatic_linkinvent_7_9_3/rearranged_h_0155.sdf

> <i_m_source_file_index>
23

> <r_mmod_Potential_Energy-OPLS-2005>
341.855285644531

> <r_mmod_Stretch_Energy-OPLS-2005>
93.1077728271484

> <r_mmod_Bend_Energy-OPLS-2005>
233.467819213867

> <r_mmod_Torsional_Energy-OPLS-2005>
445.209991455078

> <r_mmod_Improper_Torsional_Energy-OPLS-2005>
20.5337371826172

> <r_mmod_Van_der_Waal_Energy-OPLS-2005>
151.312652587891

> <r_mmod_Electrostatic_Energy-OPLS-2005>
-225.873229980469

> <r_mmod_Solvation_Energy-OPLS-2005>
-435.065856933594

> <b_mmod_Minimization_Converged-OPLS-2005>
0

> <r_mmod_RMS_Derivative-OPLS-2005>
1.54498970508575

$$$$
23
                    3D
 Structure written by MMmdl.
171181  0  0  1  0            999 V2000
  -30.7288  -14.4746   20.6020 C   0  0  0  0  0  0
  -30.4283  -12.3243   19.4154 C   0  0  0  0  0  0
  -29.4977  -12.4935   18.1986 C   0  0  0  0  0  0
  -28.0202  -12.3486   18.6155 C   0  0  0  0  0  0
  -27.6637  -13.2033   19.8611 C   0  0  2  0  0  0
  -28.7072  -13.0007   20.9833 C   0  0  0  0  0  0
  -25.2630  -13.8127   20.5660 C   0  0  0  0  0  0
  -24.1892  -13.0434   20.9175 C   0  0  0  0  0  0
  -24.6422  -11.6884   20.8744 C   0  0  0  0  0  0
  -23.9069  -10.4284   21.0410 C   0  0  0  0  0  0
  -24.3611   -9.4191   21.9189 C   0  0  0  0  0  0
  -23.6276   -8.2234   22.0773 C   0  0  0  0  0  0
  -22.4255   -8.0280   21.3553 C   0  0  0  0  0  0
  -21.9881   -9.0265   20.4660 C   0  0  0  0  0  0
  -22.7231  -10.2135   20.3064 C   0  0  0  0  0  0
  -21.6832   -6.0719   22.5271 C   0  0  0  0  0  0
  -21.4014   -6.5628   23.8204 C   0  0  0  0  0  0
  -21.3666   -5.6790   24.9172 C   0  0  0  0  0  0
  -21.6044   -4.3051   24.7219 C   0  0  0  0  0  0
  -21.8823   -3.8135   23.4340 C   0  0  0  0  0  0
  -21.9189   -4.6953   22.3394 C   0  0  0  0  0  0
  -22.7896  -13.5244   21.1789 C   0  0  0  0  0  0
  -22.1655   -4.2138   21.0970 F   0  0  0  0  0  0
  -21.5630   -3.4536   25.7733 F   0  0  0  0  0  0
  -30.0332  -13.3159   20.4298 N   0  0  0  0  0  0
  -26.3061  -12.9311   20.3302 N   0  0  0  0  0  0
  -25.9355  -11.6478   20.5745 N   0  0  0  0  0  0
  -22.0494  -12.8319   22.0351 N   0  0  0  0  0  0
  -25.4298  -15.1859   20.4074 N   0  0  0  0  0  0
  -31.8345  -14.6591   20.0825 O   0  0  0  0  0  0
  -21.6631   -6.8865   21.4230 O   0  0  0  0  0  0
  -22.3595  -14.5530   20.6572 O   0  0  0  0  0  0
  -24.6188  -31.8692   23.2117 C   0  0  0  0  0  0
  -25.9075  -32.4850   23.8402 C   0  0  1  0  0  0
  -27.2305  -27.4053   20.0893 C   0  0  0  0  0  0
  -25.5917  -33.8633   24.2351 N   0  0  0  0  0  0
  -23.4044  -30.4968   21.5564 C   0  0  2  0  0  0
  -24.8471  -28.9582   20.1246 C   0  0  0  0  0  0
  -22.7419  -29.4688   22.5026 C   0  0  0  0  0  0
  -18.0281  -28.1395   22.8524 C   0  0  0  0  0  0
  -24.1486  -36.7290   23.2635 C   0  0  0  0  0  0
  -25.9389  -30.8295   21.3640 C   0  0  0  0  0  0
  -26.0151  -29.4600   20.7112 C   0  0  0  0  0  0
  -27.2104  -28.6948   20.6859 C   0  0  0  0  0  0
  -26.0328  -26.9284   19.5071 C   0  0  0  0  0  0
  -24.8526  -27.6904   19.5238 C   0  0  0  0  0  0
  -23.6122  -29.8320   20.1722 C   0  0  0  0  0  0
  -25.4117  -36.3125   24.0342 C   0  0  1  0  0  0
  -20.5867  -28.3682   23.1332 C   0  0  2  0  0  0
  -20.6777  -26.9427   22.5426 C   0  0  0  0  0  0
  -19.5740  -26.6407   21.5241 C   0  0  0  0  0  0
  -18.1920  -26.7948   22.1648 C   0  0  0  0  0  0
  -19.1526  -28.8855   23.2929 C   0  0  0  0  0  0
  -18.9453  -30.1460   23.8943 C   0  0  0  0  0  0
  -17.6452  -30.6598   24.0581 C   0  0  0  0  0  0
  -25.9042  -34.9483   23.5143 C   0  0  0  0  0  0
  -16.5346  -29.9105   23.6330 C   0  0  0  0  0  0
  -16.7265  -28.6512   23.0372 C   0  0  0  0  0  0
  -26.4471  -31.6622   25.0726 C   0  0  0  0  0  0
  -25.3713  -31.3729   26.1457 C   0  0  0  0  0  0
  -27.0285  -30.3079   24.6075 C   0  0  0  0  0  0
  -27.6070  -32.4309   25.7460 C   0  0  0  0  0  0
  -27.5591  -37.1815   24.8475 C   0  0  0  0  0  0
  -21.4151  -29.3038   22.3729 N   0  0  0  0  0  0
  -26.4310  -37.3814   23.9407 N   0  0  0  0  0  0
  -24.6735  -31.0786   22.1025 N   0  0  0  0  0  0
  -23.4181  -28.8230   23.3078 O   0  0  0  0  0  0
  -28.3993  -26.6519   20.0756 O   0  0  0  0  0  0
  -26.5596  -34.8920   22.4700 O   0  0  0  0  0  0
  -23.5383  -32.1418   23.7527 O   0  0  0  0  0  0
  -30.3047  -20.6667   20.6504 C   0  0  0  0  0  0
  -30.7362  -21.9765   20.2858 C   0  0  0  0  0  0
  -31.1402  -19.6538   21.2365 C   0  0  0  0  0  0
  -32.1118  -22.2334   20.4819 C   0  0  0  0  0  0
  -32.4923  -20.1191   21.4270 C   0  0  0  0  0  0
  -30.0155  -23.9027   18.5503 C   0  0  0  0  0  0
  -31.6267  -17.3177   22.0924 C   0  0  0  0  0  0
  -31.0434  -15.9463   22.5020 C   0  0  0  0  0  0
  -29.1683  -16.3536   21.0081 C   0  0  0  0  0  0
  -29.7029  -22.9485   19.6734 C   0  0  2  0  0  0
  -29.6125  -24.4689   19.9047 C   0  0  2  0  0  0
  -29.2795  -17.7758   21.6580 C   0  0  2  0  0  0
  -32.8661  -23.4653   20.0105 C   0  0  0  0  0  0
  -33.6657  -19.3645   22.0461 C   0  0  0  0  0  0
  -28.0792  -18.6282   21.2350 C   0  0  0  0  0  0
  -28.2731  -25.2079   20.0130 C   0  0  0  0  0  0
  -32.9246  -21.3388   21.0534 N   0  0  0  0  0  0
  -30.6689  -18.3106   21.5605 N   0  0  0  0  0  0
  -30.1998  -15.3921   21.4501 N   0  0  0  0  0  0
  -31.4715  -12.4223   19.1084 H   0  0  0  0  0  0
  -30.3420  -11.3200   19.8312 H   0  0  0  0  0  0
  -29.7467  -11.7575   17.4340 H   0  0  0  0  0  0
  -29.6584  -13.4681   17.7368 H   0  0  0  0  0  0
  -27.8351  -11.2932   18.8232 H   0  0  0  0  0  0
  -27.3690  -12.6096   17.7799 H   0  0  0  0  0  0
  -27.6995  -14.2444   19.5411 H   0  0  0  0  0  0
  -28.7054  -11.9675   21.3308 H   0  0  0  0  0  0
  -28.4601  -13.5989   21.8604 H   0  0  0  0  0  0
  -25.2751   -9.5660   22.4775 H   0  0  0  0  0  0
  -23.9966   -7.4621   22.7513 H   0  0  0  0  0  0
  -21.0787   -8.8802   19.8978 H   0  0  0  0  0  0
  -22.3686  -10.9690   19.6187 H   0  0  0  0  0  0
  -21.2014   -7.6140   23.9695 H   0  0  0  0  0  0
  -21.1479   -6.0524   25.9072 H   0  0  0  0  0  0
  -22.0593   -2.7593   23.2839 H   0  0  0  0  0  0
  -22.4074  -12.0032   22.4866 H   0  0  0  0  0  0
  -21.1106  -13.1421   22.2442 H   0  0  0  0  0  0
  -24.6514  -15.8282   20.5136 H   0  0  0  0  0  0
  -26.2677  -15.6294   20.0561 H   0  0  0  0  0  0
  -26.7148  -32.5569   23.1169 H   0  0  0  0  0  0
  -25.0118  -33.9794   25.0535 H   0  0  0  0  0  0
  -22.6936  -31.3161   21.4253 H   0  0  0  0  0  0
  -23.3766  -35.9609   23.3319 H   0  0  0  0  0  0
  -24.3597  -36.8871   22.2049 H   0  0  0  0  0  0
  -23.7196  -37.6485   23.6620 H   0  0  0  0  0  0
  -26.0520  -31.5937   20.5933 H   0  0  0  0  0  0
  -26.8275  -30.8877   21.9807 H   0  0  0  0  0  0
  -28.1131  -29.0898   21.1324 H   0  0  0  0  0  0
  -25.9703  -25.9715   19.0174 H   0  0  0  0  0  0
  -23.9554  -27.2892   19.0745 H   0  0  0  0  0  0
  -23.7251  -30.6093   19.4154 H   0  0  0  0  0  0
  -22.7313  -29.2614   19.8737 H   0  0  0  0  0  0
  -25.1300  -36.2005   25.0840 H   0  0  0  0  0  0
  -21.0002  -28.3281   24.1435 H   0  0  0  0  0  0
  -20.5729  -26.2311   23.3631 H   0  0  0  0  0  0
  -21.6648  -26.7499   22.1191 H   0  0  0  0  0  0
  -19.6888  -25.6324   21.1253 H   0  0  0  0  0  0
  -19.6653  -27.3238   20.6785 H   0  0  0  0  0  0
  -17.4206  -26.6744   21.4028 H   0  0  0  0  0  0
  -18.0272  -26.0082   22.9023 H   0  0  0  0  0  0
  -19.7925  -30.7276   24.2343 H   0  0  0  0  0  0
  -17.4999  -31.6289   24.5170 H   0  0  0  0  0  0
  -15.5348  -30.3021   23.7606 H   0  0  0  0  0  0
  -15.8676  -28.0826   22.7083 H   0  0  0  0  0  0
  -24.5920  -30.7038   25.7778 H   0  0  0  0  0  0
  -24.8840  -32.2878   26.4836 H   0  0  0  0  0  0
  -25.8041  -30.8941   27.0245 H   0  0  0  0  0  0
  -26.2816  -29.6873   24.1113 H   0  0  0  0  0  0
  -27.4059  -29.7284   25.4499 H   0  0  0  0  0  0
  -27.8647  -30.4417   23.9211 H   0  0  0  0  0  0
  -27.2751  -33.3628   26.2042 H   0  0  0  0  0  0
  -28.3869  -32.6835   25.0265 H   0  0  0  0  0  0
  -28.0747  -31.8412   26.5358 H   0  0  0  0  0  0
  -28.2648  -38.0080   24.7553 H   0  0  0  0  0  0
  -28.1049  -36.2623   24.6288 H   0  0  0  0  0  0
  -27.2313  -37.1469   25.8879 H   0  0  0  0  0  0
  -20.9331  -29.8748   21.6928 H   0  0  0  0  0  0
  -26.0197  -38.2889   24.1416 H   0  0  0  0  0  0
  -29.2871  -20.4807   20.3963 H   0  0  0  0  0  0
  -29.2823  -23.9745   17.7469 H   0  0  0  0  0  0
  -31.0371  -24.0473   18.2249 H   0  0  0  0  0  0
  -32.3661  -17.1058   21.3198 H   0  0  0  0  0  0
  -32.1021  -17.6998   22.9916 H   0  0  0  0  0  0
  -30.4503  -16.0218   23.4136 H   0  0  0  0  0  0
  -31.8543  -15.2586   22.7529 H   0  0  0  0  0  0
  -29.1911  -16.4433   19.9194 H   0  0  0  0  0  0
  -28.1992  -15.9249   21.2558 H   0  0  0  0  0  0
  -28.7447  -22.4411   19.5697 H   0  0  0  0  0  0
  -30.3749  -24.8894   20.5540 H   0  0  0  0  0  0
  -29.1134  -17.6577   22.7297 H   0  0  0  0  0  0
  -32.9647  -23.4504   18.9258 H   0  0  0  0  0  0
  -33.8868  -23.4759   20.3958 H   0  0  0  0  0  0
  -32.4108  -24.3981   20.3267 H   0  0  0  0  0  0
  -33.5156  -19.2024   23.1131 H   0  0  0  0  0  0
  -34.5935  -19.9323   21.9595 H   0  0  0  0  0  0
  -33.8806  -18.4317   21.5337 H   0  0  0  0  0  0
  -27.1537  -18.1136   21.4948 H   0  0  0  0  0  0
  -28.0415  -18.7956   20.1577 H   0  0  0  0  0  0
  -28.0321  -19.5684   21.7830 H   0  0  0  0  0  0
  -27.7509  -24.8538   20.9040 H   0  0  0  0  0  0
  -27.6842  -24.8861   19.1559 H   0  0  0  0  0  0
  1 25  1  0  0  0
  1 30  2  0  0  0
  1 89  1  0  0  0
  2  3  1  0  0  0
  2 25  1  0  0  0
  2 90  1  0  0  0
  2 91  1  0  0  0
  3  4  1  0  0  0
  3 92  1  0  0  0
  3 93  1  0  0  0
  4  5  1  0  0  0
  4 94  1  0  0  0
  4 95  1  0  0  0
  5  6  1  0  0  0
  5 26  1  0  0  0
  5 96  1  0  0  0
  6 25  1  0  0  0
  6 97  1  0  0  0
  6 98  1  0  0  0
  7  8  2  0  0  0
  7 26  1  0  0  0
  7 29  1  0  0  0
  8  9  1  0  0  0
  8 22  1  0  0  0
  9 10  1  0  0  0
  9 27  2  0  0  0
 10 11  2  0  0  0
 10 15  1  0  0  0
 11 12  1  0  0  0
 11 99  1  0  0  0
 12 13  2  0  0  0
 12100  1  0  0  0
 13 14  1  0  0  0
 13 31  1  0  0  0
 14 15  2  0  0  0
 14101  1  0  0  0
 15102  1  0  0  0
 16 17  2  0  0  0
 16 21  1  0  0  0
 16 31  1  0  0  0
 17 18  1  0  0  0
 17103  1  0  0  0
 18 19  2  0  0  0
 18104  1  0  0  0
 19 20  1  0  0  0
 19 24  1  0  0  0
 20 21  2  0  0  0
 20105  1  0  0  0
 21 23  1  0  0  0
 22 28  1  0  0  0
 22 32  2  0  0  0
 26 27  1  0  0  0
 28106  1  0  0  0
 28107  1  0  0  0
 29108  1  0  0  0
 29109  1  0  0  0
 33 34  1  0  0  0
 33 66  1  0  0  0
 33 70  2  0  0  0
 34 36  1  0  0  0
 34 59  1  0  0  0
 34110  1  0  0  0
 35 44  2  0  0  0
 35 45  1  0  0  0
 35 68  1  0  0  0
 36 56  1  0  0  0
 36111  1  0  0  0
 37 39  1  0  0  0
 37 47  1  0  0  0
 37 66  1  0  0  0
 37112  1  0  0  0
 38 43  2  0  0  0
 38 46  1  0  0  0
 38 47  1  0  0  0
 39 64  1  0  0  0
 39 67  2  0  0  0
 40 52  1  0  0  0
 40 53  2  0  0  0
 40 58  1  0  0  0
 41113  1  0  0  0
 41114  1  0  0  0
 41115  1  0  0  0
 41 48  1  0  0  0
 42 43  1  0  0  0
 42 66  1  0  0  0
 42116  1  0  0  0
 42117  1  0  0  0
 43 44  1  0  0  0
 44118  1  0  0  0
 45 46  2  0  0  0
 45119  1  0  0  0
 46120  1  0  0  0
 47121  1  0  0  0
 47122  1  0  0  0
 48 56  1  0  0  0
 48 65  1  0  0  0
 48123  1  0  0  0
 49 50  1  0  0  0
 49 53  1  0  0  0
 49 64  1  0  0  0
 49124  1  0  0  0
 50 51  1  0  0  0
 50125  1  0  0  0
 50126  1  0  0  0
 51 52  1  0  0  0
 51127  1  0  0  0
 51128  1  0  0  0
 52129  1  0  0  0
 52130  1  0  0  0
 53 54  1  0  0  0
 54 55  2  0  0  0
 54131  1  0  0  0
 55 57  1  0  0  0
 55132  1  0  0  0
 56 69  2  0  0  0
 57 58  2  0  0  0
 57133  1  0  0  0
 58134  1  0  0  0
 59 60  1  0  0  0
 59 61  1  0  0  0
 59 62  1  0  0  0
 60135  1  0  0  0
 60136  1  0  0  0
 60137  1  0  0  0
 61138  1  0  0  0
 61139  1  0  0  0
 61140  1  0  0  0
 62141  1  0  0  0
 62142  1  0  0  0
 62143  1  0  0  0
 63 65  1  0  0  0
 63144  1  0  0  0
 63145  1  0  0  0
 63146  1  0  0  0
 64147  1  0  0  0
 65148  1  0  0  0
 68 86  1  0  0  0
 71 72  2  0  0  0
 71 73  1  0  0  0
 71149  1  0  0  0
 72 74  1  0  0  0
 72 80  1  0  0  0
 73 75  2  0  0  0
 73 88  1  0  0  0
 74 83  1  0  0  0
 74 87  2  0  0  0
 75 84  1  0  0  0
 75 87  1  0  0  0
 76 80  1  0  0  0
 76 81  1  0  0  0
 76150  1  0  0  0
 76151  1  0  0  0
 77 78  1  0  0  0
 77 88  1  0  0  0
 77152  1  0  0  0
 77153  1  0  0  0
 78 89  1  0  0  0
 78154  1  0  0  0
 78155  1  0  0  0
 79 82  1  0  0  0
 79 89  1  0  0  0
 79156  1  0  0  0
 79157  1  0  0  0
 80 81  1  0  0  0
 80158  1  0  0  0
 81 86  1  0  0  0
 81159  1  0  0  0
 82 85  1  0  0  0
 82 88  1  0  0  0
 82160  1  0  0  0
 83161  1  0  0  0
 83162  1  0  0  0
 83163  1  0  0  0
 84164  1  0  0  0
 84165  1  0  0  0
 84166  1  0  0  0
 85167  1  0  0  0
 85168  1  0  0  0
 85169  1  0  0  0
 86170  1  0  0  0
 86171  1  0  0  0
M  ISO  4   1 100  68 101  86 101  89 100
M  END
> <chiral flag>
0

> <version>
0

> <s_m_source_file>
/data/baiqing/PycharmProjects/Reinvent-master-3.2/result/LINK_invent/BTK/process_docking_weight1_custom_sum_contain_oxygen_bond_distance_aromatic_linkinvent_7_9_3/rearranged_h_0155.sdf

> <i_m_source_file_index>
24

> <r_mmod_Potential_Energy-OPLS-2005>
168.634902954102

> <r_mmod_Stretch_Energy-OPLS-2005>
66.5432510375977

> <r_mmod_Bend_Energy-OPLS-2005>
193.348922729492

> <r_mmod_Torsional_Energy-OPLS-2005>
369.547882080078

> <r_mmod_Improper_Torsional_Energy-OPLS-2005>
5.32946491241455

> <r_mmod_Van_der_Waal_Energy-OPLS-2005>
208.333236694336

> <r_mmod_Electrostatic_Energy-OPLS-2005>
-464.660858154297

> <r_mmod_Solvation_Energy-OPLS-2005>
-224.441909790039

> <b_mmod_Minimization_Converged-OPLS-2005>
0

> <r_mmod_RMS_Derivative-OPLS-2005>
3.79155373573303

$$$$
24
                    3D
 Structure written by MMmdl.
178188  0  0  1  0            999 V2000
  -30.7638  -14.4013   20.6861 C   0  0  0  0  0  0
  -30.4262  -12.3067   19.4165 C   0  0  0  0  0  0
  -29.4918  -12.5453   18.2110 C   0  0  0  0  0  0
  -28.0138  -12.3959   18.6171 C   0  0  0  0  0  0
  -27.6751  -13.1858   19.9055 C   0  0  2  0  0  0
  -28.7174  -12.8510   20.9998 C   0  0  0  0  0  0
  -25.2657  -13.8105   20.5722 C   0  0  0  0  0  0
  -24.1864  -13.0405   20.9158 C   0  0  0  0  0  0
  -24.6387  -11.6873   20.8708 C   0  0  0  0  0  0
  -23.9032  -10.4275   21.0393 C   0  0  0  0  0  0
  -24.3608   -9.4177   21.9153 C   0  0  0  0  0  0
  -23.6285   -8.2216   22.0715 C   0  0  0  0  0  0
  -22.4247   -8.0264   21.3533 C   0  0  0  0  0  0
  -21.9850   -9.0255   20.4680 C   0  0  0  0  0  0
  -22.7178  -10.2135   20.3093 C   0  0  0  0  0  0
  -21.6837   -6.0727   22.5278 C   0  0  0  0  0  0
  -21.3997   -6.5637   23.8211 C   0  0  0  0  0  0
  -21.3663   -5.6784   24.9181 C   0  0  0  0  0  0
  -21.6053   -4.3056   24.7221 C   0  0  0  0  0  0
  -21.8811   -3.8147   23.4340 C   0  0  0  0  0  0
  -21.9180   -4.6961   22.3394 C   0  0  0  0  0  0
  -22.7890  -13.5219   21.1839 C   0  0  0  0  0  0
  -22.1652   -4.2151   21.0972 F   0  0  0  0  0  0
  -21.5634   -3.4538   25.7728 F   0  0  0  0  0  0
  -30.0521  -13.2397   20.5034 N   0  0  0  0  0  0
  -26.3093  -12.9238   20.3510 N   0  0  0  0  0  0
  -25.9315  -11.6408   20.5805 N   0  0  0  0  0  0
  -22.0517  -12.8218   22.0411 N   0  0  0  0  0  0
  -25.4422  -15.1824   20.4121 N   0  0  0  0  0  0
  -31.7627  -14.6219   19.9890 O   0  0  0  0  0  0
  -21.6626   -6.8870   21.4240 O   0  0  0  0  0  0
  -22.3581  -14.5537   20.6720 O   0  0  0  0  0  0
  -24.6102  -31.8720   23.2122 C   0  0  0  0  0  0
  -25.9027  -32.4843   23.8407 C   0  0  1  0  0  0
  -27.2391  -27.4812   20.0926 C   0  0  0  0  0  0
  -25.5896  -33.8636   24.2355 N   0  0  0  0  0  0
  -23.3952  -30.4966   21.5505 C   0  0  2  0  0  0
  -24.8428  -28.9655   20.1143 C   0  0  0  0  0  0
  -22.7392  -29.4695   22.4986 C   0  0  0  0  0  0
  -18.0281  -28.1376   22.8500 C   0  0  0  0  0  0
  -24.1481  -36.7323   23.2635 C   0  0  0  0  0  0
  -25.9193  -30.8519   21.3566 C   0  0  0  0  0  0
  -25.9996  -29.4914   20.7021 C   0  0  0  0  0  0
  -27.2034  -28.7590   20.6830 C   0  0  0  0  0  0
  -26.0672  -26.9530   19.5080 C   0  0  0  0  0  0
  -24.8693  -27.6933   19.5147 C   0  0  0  0  0  0
  -23.6014  -29.8267   20.1649 C   0  0  0  0  0  0
  -25.4096  -36.3130   24.0349 C   0  0  1  0  0  0
  -20.5873  -28.3679   23.1319 C   0  0  2  0  0  0
  -20.6765  -26.9418   22.5412 C   0  0  0  0  0  0
  -19.5738  -26.6393   21.5210 C   0  0  0  0  0  0
  -18.1924  -26.7926   22.1629 C   0  0  0  0  0  0
  -19.1529  -28.8837   23.2918 C   0  0  0  0  0  0
  -18.9452  -30.1441   23.8925 C   0  0  0  0  0  0
  -17.6457  -30.6583   24.0576 C   0  0  0  0  0  0
  -25.9019  -34.9492   23.5150 C   0  0  0  0  0  0
  -16.5353  -29.9087   23.6330 C   0  0  0  0  0  0
  -16.7273  -28.6508   23.0350 C   0  0  0  0  0  0
  -26.4463  -31.6606   25.0716 C   0  0  0  0  0  0
  -25.3743  -31.3706   26.1482 C   0  0  0  0  0  0
  -27.0283  -30.3049   24.6061 C   0  0  0  0  0  0
  -27.6056  -32.4304   25.7470 C   0  0  0  0  0  0
  -27.5585  -37.1813   24.8467 C   0  0  0  0  0  0
  -21.4121  -29.3055   22.3726 N   0  0  0  0  0  0
  -26.4293  -37.3806   23.9419 N   0  0  0  0  0  0
  -24.6599  -31.0862   22.0999 N   0  0  0  0  0  0
  -23.4186  -28.8248   23.3018 O   0  0  0  0  0  0
  -28.4088  -26.7670   20.1011 O   0  0  0  0  0  0
  -26.5579  -34.8943   22.4703 O   0  0  0  0  0  0
  -23.5320  -32.1449   23.7564 O   0  0  0  0  0  0
  -30.7886  -19.7243   22.4150 C   0  0  0  0  0  0
  -29.9330  -19.1554   23.3781 C   0  0  0  0  0  0
  -30.6349  -21.0528   21.9928 C   0  0  0  0  0  0
  -28.9405  -19.9754   23.9899 C   0  0  0  0  0  0
  -28.7428  -21.3114   23.5324 C   0  0  0  0  0  0
  -29.5882  -21.8446   22.5148 C   0  0  0  0  0  0
  -28.9320  -16.9975   22.6780 C   0  0  0  0  0  0
  -31.3625  -16.9657   23.4179 C   0  0  0  0  0  0
  -29.5148  -25.5759   21.9058 C   0  0  0  0  0  0
  -28.4528  -24.3419   19.9921 C   0  0  0  0  0  0
  -29.1814  -15.5258   22.3399 C   0  0  0  0  0  0
  -31.5554  -16.2378   22.0721 C   0  0  0  0  0  0
  -29.4810  -24.2962   22.7625 C   0  0  0  0  0  0
  -28.3821  -23.0721   20.8481 C   0  0  0  0  0  0
  -29.9832  -17.6357   23.5966 C   0  0  0  0  0  0
  -28.3559  -25.5807   20.8918 C   0  0  0  0  0  0
  -31.5817  -21.5853   20.9276 C   0  0  0  0  0  0
  -28.0243  -19.4342   25.0905 C   0  0  0  0  0  0
  -27.5880  -22.1338   24.1164 C   0  0  0  0  0  0
  -29.3823  -23.1023   21.9190 N   0  0  0  0  0  0
  -30.5002  -15.2495   21.7322 N   0  0  0  0  0  0
  -31.4678  -12.4041   19.1088 H   0  0  0  0  0  0
  -30.3413  -11.2734   19.7593 H   0  0  0  0  0  0
  -29.7245  -11.8451   17.4077 H   0  0  0  0  0  0
  -29.6571  -13.5457   17.8101 H   0  0  0  0  0  0
  -27.8219  -11.3350   18.7780 H   0  0  0  0  0  0
  -27.3591  -12.7044   17.8009 H   0  0  0  0  0  0
  -27.7495  -14.2458   19.6665 H   0  0  0  0  0  0
  -28.7100  -11.7737   21.1728 H   0  0  0  0  0  0
  -28.4545  -13.2219   21.9827 H   0  0  0  0  0  0
  -25.2787   -9.5622   22.4677 H   0  0  0  0  0  0
  -24.0023   -7.4581   22.7387 H   0  0  0  0  0  0
  -21.0763   -8.8800   19.9014 H   0  0  0  0  0  0
  -22.3629  -10.9699   19.6229 H   0  0  0  0  0  0
  -21.1980   -7.6144   23.9737 H   0  0  0  0  0  0
  -21.1500   -6.0494   25.9086 H   0  0  0  0  0  0
  -22.0597   -2.7607   23.2825 H   0  0  0  0  0  0
  -22.4134  -11.9898   22.4818 H   0  0  0  0  0  0
  -21.1163  -13.1294   22.2645 H   0  0  0  0  0  0
  -24.6832  -15.8448   20.5259 H   0  0  0  0  0  0
  -26.3024  -15.6183   20.1040 H   0  0  0  0  0  0
  -26.7109  -32.5571   23.1192 H   0  0  0  0  0  0
  -25.0048  -33.9797   25.0500 H   0  0  0  0  0  0
  -22.6830  -31.3124   21.4136 H   0  0  0  0  0  0
  -23.3741  -35.9659   23.3305 H   0  0  0  0  0  0
  -24.3573  -36.8913   22.2045 H   0  0  0  0  0  0
  -23.7231  -37.6532   23.6633 H   0  0  0  0  0  0
  -26.0256  -31.6228   20.5922 H   0  0  0  0  0  0
  -26.8101  -30.9059   21.9720 H   0  0  0  0  0  0
  -28.0995  -29.1638   21.1301 H   0  0  0  0  0  0
  -26.0782  -25.9757   19.0482 H   0  0  0  0  0  0
  -23.9786  -27.2798   19.0642 H   0  0  0  0  0  0
  -23.7072  -30.6008   19.4040 H   0  0  0  0  0  0
  -22.7261  -29.2440   19.8714 H   0  0  0  0  0  0
  -25.1272  -36.2000   25.0843 H   0  0  0  0  0  0
  -20.9989  -28.3245   24.1428 H   0  0  0  0  0  0
  -20.5651  -26.2296   23.3600 H   0  0  0  0  0  0
  -21.6638  -26.7439   22.1220 H   0  0  0  0  0  0
  -19.6894  -25.6305   21.1224 H   0  0  0  0  0  0
  -19.6666  -27.3216   20.6748 H   0  0  0  0  0  0
  -17.4199  -26.6704   21.4031 H   0  0  0  0  0  0
  -18.0328  -26.0040   22.8995 H   0  0  0  0  0  0
  -19.7926  -30.7261   24.2298 H   0  0  0  0  0  0
  -17.5012  -31.6262   24.5180 H   0  0  0  0  0  0
  -15.5356  -30.3013   23.7604 H   0  0  0  0  0  0
  -15.8677  -28.0840   22.7036 H   0  0  0  0  0  0
  -24.5923  -30.7037   25.7837 H   0  0  0  0  0  0
  -24.8923  -32.2854   26.4939 H   0  0  0  0  0  0
  -25.8114  -30.8884   27.0232 H   0  0  0  0  0  0
  -26.2818  -29.6820   24.1113 H   0  0  0  0  0  0
  -27.4058  -29.7285   25.4518 H   0  0  0  0  0  0
  -27.8661  -30.4372   23.9208 H   0  0  0  0  0  0
  -27.2693  -33.3586   26.2101 H   0  0  0  0  0  0
  -28.3837  -32.6871   25.0274 H   0  0  0  0  0  0
  -28.0751  -31.8378   26.5333 H   0  0  0  0  0  0
  -28.2621  -38.0096   24.7515 H   0  0  0  0  0  0
  -28.1069  -36.2631   24.6296 H   0  0  0  0  0  0
  -27.2309  -37.1472   25.8872 H   0  0  0  0  0  0
  -20.9269  -29.8773   21.6952 H   0  0  0  0  0  0
  -26.0193  -38.2893   24.1402 H   0  0  0  0  0  0
  -31.5458  -19.1241   21.9381 H   0  0  0  0  0  0
  -27.9399  -17.1256   23.1116 H   0  0  0  0  0  0
  -28.9030  -17.5376   21.7302 H   0  0  0  0  0  0
  -32.1724  -17.6686   23.6128 H   0  0  0  0  0  0
  -31.4689  -16.2074   24.1951 H   0  0  0  0  0  0
  -30.4701  -25.6543   21.3847 H   0  0  0  0  0  0
  -29.4458  -26.4477   22.5566 H   0  0  0  0  0  0
  -27.6457  -24.3332   19.2597 H   0  0  0  0  0  0
  -29.3836  -24.3616   19.4234 H   0  0  0  0  0  0
  -28.3753  -15.2840   21.6492 H   0  0  0  0  0  0
  -29.0691  -14.9210   23.2405 H   0  0  0  0  0  0
  -32.5279  -15.7409   22.1095 H   0  0  0  0  0  0
  -31.6161  -16.9673   21.2617 H   0  0  0  0  0  0
  -28.6422  -24.3656   23.4507 H   0  0  0  0  0  0
  -30.3800  -24.2351   23.3776 H   0  0  0  0  0  0
  -28.5395  -22.1989   20.2116 H   0  0  0  0  0  0
  -27.3809  -22.9702   21.2645 H   0  0  0  0  0  0
  -29.7338  -17.4049   24.6279 H   0  0  0  0  0  0
  -27.4220  -25.5274   21.4583 H   0  0  0  0  0  0
  -32.4697  -20.9582   20.8357 H   0  0  0  0  0  0
  -31.9187  -22.5928   21.1729 H   0  0  0  0  0  0
  -31.0830  -21.6158   19.9588 H   0  0  0  0  0  0
  -28.3844  -18.5512   25.6071 H   0  0  0  0  0  0
  -27.0421  -19.2016   24.6785 H   0  0  0  0  0  0
  -27.8954  -20.1752   25.8800 H   0  0  0  0  0  0
  -26.7451  -21.5225   24.4334 H   0  0  0  0  0  0
  -27.1569  -22.8262   23.3995 H   0  0  0  0  0  0
  -27.9304  -22.7050   24.9790 H   0  0  0  0  0  0
  1 25  1  0  0  0
  1 30  2  0  0  0
  1 91  1  0  0  0
  2  3  1  0  0  0
  2 25  1  0  0  0
  2 92  1  0  0  0
  2 93  1  0  0  0
  3  4  1  0  0  0
  3 94  1  0  0  0
  3 95  1  0  0  0
  4  5  1  0  0  0
  4 96  1  0  0  0
  4 97  1  0  0  0
  5  6  1  0  0  0
  5 26  1  0  0  0
  5 98  1  0  0  0
  6 25  1  0  0  0
  6 99  1  0  0  0
  6100  1  0  0  0
  7  8  2  0  0  0
  7 26  1  0  0  0
  7 29  1  0  0  0
  8  9  1  0  0  0
  8 22  1  0  0  0
  9 10  1  0  0  0
  9 27  2  0  0  0
 10 11  2  0  0  0
 10 15  1  0  0  0
 11 12  1  0  0  0
 11101  1  0  0  0
 12 13  2  0  0  0
 12102  1  0  0  0
 13 14  1  0  0  0
 13 31  1  0  0  0
 14 15  2  0  0  0
 14103  1  0  0  0
 15104  1  0  0  0
 16 17  2  0  0  0
 16 21  1  0  0  0
 16 31  1  0  0  0
 17 18  1  0  0  0
 17105  1  0  0  0
 18 19  2  0  0  0
 18106  1  0  0  0
 19 20  1  0  0  0
 19 24  1  0  0  0
 20 21  2  0  0  0
 20107  1  0  0  0
 21 23  1  0  0  0
 22 28  1  0  0  0
 22 32  2  0  0  0
 26 27  1  0  0  0
 28108  1  0  0  0
 28109  1  0  0  0
 29110  1  0  0  0
 29111  1  0  0  0
 33 34  1  0  0  0
 33 66  1  0  0  0
 33 70  2  0  0  0
 34 36  1  0  0  0
 34 59  1  0  0  0
 34112  1  0  0  0
 35 44  2  0  0  0
 35 45  1  0  0  0
 35 68  1  0  0  0
 36 56  1  0  0  0
 36113  1  0  0  0
 37 39  1  0  0  0
 37 47  1  0  0  0
 37 66  1  0  0  0
 37114  1  0  0  0
 38 43  2  0  0  0
 38 46  1  0  0  0
 38 47  1  0  0  0
 39 64  1  0  0  0
 39 67  2  0  0  0
 40 52  1  0  0  0
 40 53  2  0  0  0
 40 58  1  0  0  0
 41115  1  0  0  0
 41116  1  0  0  0
 41117  1  0  0  0
 41 48  1  0  0  0
 42 43  1  0  0  0
 42 66  1  0  0  0
 42118  1  0  0  0
 42119  1  0  0  0
 43 44  1  0  0  0
 44120  1  0  0  0
 45 46  2  0  0  0
 45121  1  0  0  0
 46122  1  0  0  0
 47123  1  0  0  0
 47124  1  0  0  0
 48 56  1  0  0  0
 48 65  1  0  0  0
 48125  1  0  0  0
 49 50  1  0  0  0
 49 53  1  0  0  0
 49 64  1  0  0  0
 49126  1  0  0  0
 50 51  1  0  0  0
 50127  1  0  0  0
 50128  1  0  0  0
 51 52  1  0  0  0
 51129  1  0  0  0
 51130  1  0  0  0
 52131  1  0  0  0
 52132  1  0  0  0
 53 54  1  0  0  0
 54 55  2  0  0  0
 54133  1  0  0  0
 55 57  1  0  0  0
 55134  1  0  0  0
 56 69  2  0  0  0
 57 58  2  0  0  0
 57135  1  0  0  0
 58136  1  0  0  0
 59 60  1  0  0  0
 59 61  1  0  0  0
 59 62  1  0  0  0
 60137  1  0  0  0
 60138  1  0  0  0
 60139  1  0  0  0
 61140  1  0  0  0
 61141  1  0  0  0
 61142  1  0  0  0
 62143  1  0  0  0
 62144  1  0  0  0
 62145  1  0  0  0
 63 65  1  0  0  0
 63146  1  0  0  0
 63147  1  0  0  0
 63148  1  0  0  0
 64149  1  0  0  0
 65150  1  0  0  0
 68 86  1  0  0  0
 71 72  2  0  0  0
 71 73  1  0  0  0
 71151  1  0  0  0
 72 74  1  0  0  0
 72 85  1  0  0  0
 73 76  2  0  0  0
 73 87  1  0  0  0
 74 75  2  0  0  0
 74 88  1  0  0  0
 75 76  1  0  0  0
 75 89  1  0  0  0
 76 90  1  0  0  0
 77 81  1  0  0  0
 77 85  1  0  0  0
 77152  1  0  0  0
 77153  1  0  0  0
 78 82  1  0  0  0
 78 85  1  0  0  0
 78154  1  0  0  0
 78155  1  0  0  0
 79 83  1  0  0  0
 79 86  1  0  0  0
 79156  1  0  0  0
 79157  1  0  0  0
 80 84  1  0  0  0
 80 86  1  0  0  0
 80158  1  0  0  0
 80159  1  0  0  0
 81 91  1  0  0  0
 81160  1  0  0  0
 81161  1  0  0  0
 82 91  1  0  0  0
 82162  1  0  0  0
 82163  1  0  0  0
 83 90  1  0  0  0
 83164  1  0  0  0
 83165  1  0  0  0
 84 90  1  0  0  0
 84166  1  0  0  0
 84167  1  0  0  0
 85168  1  0  0  0
 86169  1  0  0  0
 87170  1  0  0  0
 87171  1  0  0  0
 87172  1  0  0  0
 88173  1  0  0  0
 88174  1  0  0  0
 88175  1  0  0  0
 89176  1  0  0  0
 89177  1  0  0  0
 89178  1  0  0  0
M  ISO  4   1 100  68 101  86 101  91 100
M  END
> <chiral flag>
0

> <version>
0

> <s_m_source_file>
/data/baiqing/PycharmProjects/Reinvent-master-3.2/result/LINK_invent/BTK/process_docking_weight1_custom_sum_contain_oxygen_bond_distance_aromatic_linkinvent_7_9_3/rearranged_h_0155.sdf

> <i_m_source_file_index>
25

> <r_mmod_Potential_Energy-OPLS-2005>
228.319915771484

> <r_mmod_Stretch_Energy-OPLS-2005>
46.599178314209

> <r_mmod_Bend_Energy-OPLS-2005>
138.932952880859

> <r_mmod_Torsional_Energy-OPLS-2005>
382.364715576172

> <r_mmod_Improper_Torsional_Energy-OPLS-2005>
8.06451892852783

> <r_mmod_Van_der_Waal_Energy-OPLS-2005>
203.338928222656

> <r_mmod_Electrostatic_Energy-OPLS-2005>
-362.97998046875

> <r_mmod_Solvation_Energy-OPLS-2005>
-197.961380004883

> <b_mmod_Minimization_Converged-OPLS-2005>
0

> <r_mmod_RMS_Derivative-OPLS-2005>
2.86674284934998

$$$$
25
                    3D
 Structure written by MMmdl.
177187  0  0  1  0            999 V2000
  -30.7344  -14.4411   20.6606 C   0  0  0  0  0  0
  -30.4238  -12.3254   19.4076 C   0  0  0  0  0  0
  -29.4870  -12.5231   18.1990 C   0  0  0  0  0  0
  -28.0120  -12.3564   18.6135 C   0  0  0  0  0  0
  -27.6631  -13.1826   19.8762 C   0  0  2  0  0  0
  -28.7075  -12.9213   20.9909 C   0  0  0  0  0  0
  -25.2614  -13.8106   20.5656 C   0  0  0  0  0  0
  -24.1844  -13.0420   20.9172 C   0  0  0  0  0  0
  -24.6366  -11.6877   20.8743 C   0  0  0  0  0  0
  -23.9029  -10.4279   21.0417 C   0  0  0  0  0  0
  -24.3591   -9.4197   21.9191 C   0  0  0  0  0  0
  -23.6275   -8.2231   22.0756 C   0  0  0  0  0  0
  -22.4258   -8.0271   21.3545 C   0  0  0  0  0  0
  -21.9889   -9.0243   20.4649 C   0  0  0  0  0  0
  -22.7209  -10.2123   20.3060 C   0  0  0  0  0  0
  -21.6845   -6.0729   22.5280 C   0  0  0  0  0  0
  -21.4006   -6.5636   23.8213 C   0  0  0  0  0  0
  -21.3656   -5.6789   24.9176 C   0  0  0  0  0  0
  -21.6045   -4.3053   24.7226 C   0  0  0  0  0  0
  -21.8819   -3.8143   23.4347 C   0  0  0  0  0  0
  -21.9189   -4.6959   22.3404 C   0  0  0  0  0  0
  -22.7873  -13.5245   21.1841 C   0  0  0  0  0  0
  -22.1660   -4.2146   21.0980 F   0  0  0  0  0  0
  -21.5631   -3.4536   25.7739 F   0  0  0  0  0  0
  -30.0337  -13.2820   20.4623 N   0  0  0  0  0  0
  -26.3022  -12.9222   20.3362 N   0  0  0  0  0  0
  -25.9280  -11.6411   20.5767 N   0  0  0  0  0  0
  -22.0502  -12.8249   22.0396 N   0  0  0  0  0  0
  -25.4354  -15.1819   20.4032 N   0  0  0  0  0  0
  -31.7924  -14.6543   20.0554 O   0  0  0  0  0  0
  -21.6627   -6.8867   21.4239 O   0  0  0  0  0  0
  -22.3572  -14.5559   20.6694 O   0  0  0  0  0  0
  -24.6110  -31.8697   23.2116 C   0  0  0  0  0  0
  -25.9012  -32.4834   23.8407 C   0  0  1  0  0  0
  -27.2434  -27.4607   20.0987 C   0  0  0  0  0  0
  -25.5878  -33.8632   24.2336 N   0  0  0  0  0  0
  -23.3994  -30.4909   21.5507 C   0  0  2  0  0  0
  -24.8503  -28.9546   20.1202 C   0  0  0  0  0  0
  -22.7394  -29.4661   22.5002 C   0  0  0  0  0  0
  -18.0266  -28.1376   22.8495 C   0  0  0  0  0  0
  -24.1481  -36.7321   23.2639 C   0  0  0  0  0  0
  -25.9243  -30.8412   21.3630 C   0  0  0  0  0  0
  -26.0053  -29.4736   20.7199 C   0  0  0  0  0  0
  -27.2055  -28.7312   20.7138 C   0  0  0  0  0  0
  -26.0791  -26.9502   19.4912 C   0  0  0  0  0  0
  -24.8794  -27.6887   19.5066 C   0  0  0  0  0  0
  -23.6093  -29.8177   20.1670 C   0  0  0  0  0  0
  -25.4102  -36.3120   24.0342 C   0  0  1  0  0  0
  -20.5855  -28.3656   23.1330 C   0  0  2  0  0  0
  -20.6753  -26.9395   22.5426 C   0  0  0  0  0  0
  -19.5737  -26.6386   21.5215 C   0  0  0  0  0  0
  -18.1914  -26.7927   22.1620 C   0  0  0  0  0  0
  -19.1516  -28.8831   23.2912 C   0  0  0  0  0  0
  -18.9447  -30.1439   23.8919 C   0  0  0  0  0  0
  -17.6451  -30.6585   24.0567 C   0  0  0  0  0  0
  -25.9027  -34.9484   23.5137 C   0  0  0  0  0  0
  -16.5341  -29.9089   23.6327 C   0  0  0  0  0  0
  -16.7257  -28.6505   23.0348 C   0  0  0  0  0  0
  -26.4456  -31.6605   25.0722 C   0  0  0  0  0  0
  -25.3733  -31.3710   26.1481 C   0  0  0  0  0  0
  -27.0279  -30.3049   24.6075 C   0  0  0  0  0  0
  -27.6040  -32.4320   25.7475 C   0  0  0  0  0  0
  -27.5581  -37.1811   24.8462 C   0  0  0  0  0  0
  -21.4125  -29.3026   22.3740 N   0  0  0  0  0  0
  -26.4291  -37.3801   23.9412 N   0  0  0  0  0  0
  -24.6627  -31.0813   22.1009 N   0  0  0  0  0  0
  -23.4177  -28.8207   23.3037 O   0  0  0  0  0  0
  -28.4038  -26.7291   20.0407 O   0  0  0  0  0  0
  -26.5594  -34.8932   22.4701 O   0  0  0  0  0  0
  -23.5309  -32.1437   23.7523 O   0  0  0  0  0  0
  -30.3082  -20.0829   20.5503 C   0  0  0  0  0  0
  -29.6635  -22.0147   22.4654 C   0  0  0  0  0  0
  -30.0606  -19.6748   21.8777 C   0  0  0  0  0  0
  -29.8710  -22.4243   21.1270 C   0  0  0  0  0  0
  -30.2149  -21.4374   20.1649 C   0  0  0  0  0  0
  -29.7490  -20.6526   22.8549 C   0  0  0  0  0  0
  -29.0362  -17.3907   21.4191 C   0  0  0  0  0  0
  -31.4516  -17.5013   22.0646 C   0  0  0  0  0  0
  -28.4324  -24.5918   21.2026 C   0  0  0  0  0  0
  -29.0265  -15.9052   21.8191 C   0  0  0  0  0  0
  -31.3707  -16.0054   22.4606 C   0  0  0  0  0  0
  -30.3092  -26.1375   21.4068 C   0  0  0  0  0  0
  -30.0780  -18.1794   22.2258 C   0  0  0  0  0  0
  -29.7383  -23.9156   20.7584 C   0  0  1  0  0  0
  -28.7769  -26.0858   21.2621 C   0  0  1  0  0  0
  -30.4763  -21.7849   18.7074 C   0  0  0  0  0  0
  -32.1335  -24.6016   20.6905 C   0  0  0  0  0  0
  -29.2124  -21.1870   25.1474 C   0  0  0  0  0  0
  -30.3559  -15.2751   21.6726 N   0  0  0  0  0  0
  -30.8125  -24.7427   21.3440 N   0  3  1  0  0  0
  -29.5314  -20.2256   24.1492 O   0  0  0  0  0  0
  -31.4639  -12.4378   19.0967 H   0  0  0  0  0  0
  -30.3477  -11.3038   19.7836 H   0  0  0  0  0  0
  -29.7350  -11.8126   17.4093 H   0  0  0  0  0  0
  -29.6390  -13.5170   17.7750 H   0  0  0  0  0  0
  -27.8333  -11.2971   18.8026 H   0  0  0  0  0  0
  -27.3547  -12.6322   17.7879 H   0  0  0  0  0  0
  -27.7116  -14.2244   19.5655 H   0  0  0  0  0  0
  -28.7027  -11.8623   21.2531 H   0  0  0  0  0  0
  -28.4588  -13.4163   21.9272 H   0  0  0  0  0  0
  -25.2738   -9.5676   22.4762 H   0  0  0  0  0  0
  -23.9988   -7.4620   22.7471 H   0  0  0  0  0  0
  -21.0821   -8.8756   19.8953 H   0  0  0  0  0  0
  -22.3670  -10.9662   19.6166 H   0  0  0  0  0  0
  -21.1992   -7.6143   23.9715 H   0  0  0  0  0  0
  -21.1479   -6.0519   25.9079 H   0  0  0  0  0  0
  -22.0601   -2.7605   23.2847 H   0  0  0  0  0  0
  -22.4096  -11.9901   22.4782 H   0  0  0  0  0  0
  -21.1127  -13.1296   22.2605 H   0  0  0  0  0  0
  -24.6695  -15.8377   20.5114 H   0  0  0  0  0  0
  -26.2877  -15.6197   20.0783 H   0  0  0  0  0  0
  -26.7088  -32.5564   23.1182 H   0  0  0  0  0  0
  -25.0018  -33.9799   25.0474 H   0  0  0  0  0  0
  -22.6870  -31.3063   21.4095 H   0  0  0  0  0  0
  -23.3742  -35.9655   23.3310 H   0  0  0  0  0  0
  -24.3577  -36.8926   22.2052 H   0  0  0  0  0  0
  -23.7234  -37.6529   23.6647 H   0  0  0  0  0  0
  -26.0293  -31.6031   20.5894 H   0  0  0  0  0  0
  -26.8149  -30.9020   21.9765 H   0  0  0  0  0  0
  -28.1002  -29.1351   21.1670 H   0  0  0  0  0  0
  -26.1027  -25.9838   19.0073 H   0  0  0  0  0  0
  -23.9923  -27.2841   19.0389 H   0  0  0  0  0  0
  -23.7142  -30.5894   19.4035 H   0  0  0  0  0  0
  -22.7358  -29.2324   19.8741 H   0  0  0  0  0  0
  -25.1279  -36.1987   25.0834 H   0  0  0  0  0  0
  -20.9950  -28.3217   24.1450 H   0  0  0  0  0  0
  -20.5648  -26.2264   23.3608 H   0  0  0  0  0  0
  -21.6625  -26.7435   22.1221 H   0  0  0  0  0  0
  -19.6896  -25.6302   21.1232 H   0  0  0  0  0  0
  -19.6687  -27.3208   20.6757 H   0  0  0  0  0  0
  -17.4191  -26.6688   21.4012 H   0  0  0  0  0  0
  -18.0304  -26.0060   22.9003 H   0  0  0  0  0  0
  -19.7925  -30.7243   24.2301 H   0  0  0  0  0  0
  -17.5011  -31.6268   24.5164 H   0  0  0  0  0  0
  -15.5344  -30.2998   23.7641 H   0  0  0  0  0  0
  -15.8655  -28.0834   22.7050 H   0  0  0  0  0  0
  -24.5897  -30.7064   25.7826 H   0  0  0  0  0  0
  -24.8932  -32.2866   26.4944 H   0  0  0  0  0  0
  -25.8092  -30.8871   27.0229 H   0  0  0  0  0  0
  -26.2811  -29.6823   24.1133 H   0  0  0  0  0  0
  -27.4059  -29.7272   25.4520 H   0  0  0  0  0  0
  -27.8644  -30.4377   23.9210 H   0  0  0  0  0  0
  -27.2662  -33.3603   26.2095 H   0  0  0  0  0  0
  -28.3821  -32.6909   25.0283 H   0  0  0  0  0  0
  -28.0741  -31.8420   26.5354 H   0  0  0  0  0  0
  -28.2605  -38.0103   24.7509 H   0  0  0  0  0  0
  -28.1070  -36.2637   24.6281 H   0  0  0  0  0  0
  -27.2305  -37.1452   25.8867 H   0  0  0  0  0  0
  -20.9282  -29.8747   21.6965 H   0  0  0  0  0  0
  -26.0184  -38.2881   24.1417 H   0  0  0  0  0  0
  -30.5534  -19.3356   19.8085 H   0  0  0  0  0  0
  -29.4254  -22.7698   23.1978 H   0  0  0  0  0  0
  -28.0453  -17.8172   21.5827 H   0  0  0  0  0  0
  -29.2336  -17.4750   20.3498 H   0  0  0  0  0  0
  -31.8029  -17.5911   21.0358 H   0  0  0  0  0  0
  -32.1894  -18.0076   22.6883 H   0  0  0  0  0  0
  -28.1436  -24.2744   22.2030 H   0  0  0  0  0  0
  -27.5955  -24.3658   20.5422 H   0  0  0  0  0  0
  -28.2621  -15.4423   21.2109 H   0  0  0  0  0  0
  -28.6970  -15.7957   22.8532 H   0  0  0  0  0  0
  -31.1123  -15.9181   23.5168 H   0  0  0  0  0  0
  -32.3566  -15.5450   22.3682 H   0  0  0  0  0  0
  -30.6023  -26.5920   22.3537 H   0  0  0  0  0  0
  -30.7415  -26.7464   20.6111 H   0  0  0  0  0  0
  -29.8013  -18.0661   23.2736 H   0  0  0  0  0  0
  -29.7871  -24.0476   19.6777 H   0  0  0  0  0  0
  -28.2972  -26.5553   22.1243 H   0  0  0  0  0  0
  -30.7712  -20.9058   18.1335 H   0  0  0  0  0  0
  -31.2818  -22.5136   18.6158 H   0  0  0  0  0  0
  -29.5789  -22.1912   18.2395 H   0  0  0  0  0  0
  -32.8778  -25.2172   21.1965 H   0  0  0  0  0  0
  -32.0967  -24.9070   19.6443 H   0  0  0  0  0  0
  -32.4801  -23.5685   20.7299 H   0  0  0  0  0  0
  -29.0761  -20.6812   26.1033 H   0  0  0  0  0  0
  -28.2823  -21.7091   24.9187 H   0  0  0  0  0  0
  -30.0155  -21.9142   25.2746 H   0  0  0  0  0  0
  -30.9228  -24.4263   22.2959 H   0  0  0  0  0  0
  1 25  1  0  0  0
  1 30  2  0  0  0
  1 89  1  0  0  0
  2  3  1  0  0  0
  2 25  1  0  0  0
  2 92  1  0  0  0
  2 93  1  0  0  0
  3  4  1  0  0  0
  3 94  1  0  0  0
  3 95  1  0  0  0
  4  5  1  0  0  0
  4 96  1  0  0  0
  4 97  1  0  0  0
  5  6  1  0  0  0
  5 26  1  0  0  0
  5 98  1  0  0  0
  6 25  1  0  0  0
  6 99  1  0  0  0
  6100  1  0  0  0
  7  8  2  0  0  0
  7 26  1  0  0  0
  7 29  1  0  0  0
  8  9  1  0  0  0
  8 22  1  0  0  0
  9 10  1  0  0  0
  9 27  2  0  0  0
 10 11  2  0  0  0
 10 15  1  0  0  0
 11 12  1  0  0  0
 11101  1  0  0  0
 12 13  2  0  0  0
 12102  1  0  0  0
 13 14  1  0  0  0
 13 31  1  0  0  0
 14 15  2  0  0  0
 14103  1  0  0  0
 15104  1  0  0  0
 16 17  2  0  0  0
 16 21  1  0  0  0
 16 31  1  0  0  0
 17 18  1  0  0  0
 17105  1  0  0  0
 18 19  2  0  0  0
 18106  1  0  0  0
 19 20  1  0  0  0
 19 24  1  0  0  0
 20 21  2  0  0  0
 20107  1  0  0  0
 21 23  1  0  0  0
 22 28  1  0  0  0
 22 32  2  0  0  0
 26 27  1  0  0  0
 28108  1  0  0  0
 28109  1  0  0  0
 29110  1  0  0  0
 29111  1  0  0  0
 33 34  1  0  0  0
 33 66  1  0  0  0
 33 70  2  0  0  0
 34 36  1  0  0  0
 34 59  1  0  0  0
 34112  1  0  0  0
 35 44  2  0  0  0
 35 45  1  0  0  0
 35 68  1  0  0  0
 36 56  1  0  0  0
 36113  1  0  0  0
 37 39  1  0  0  0
 37 47  1  0  0  0
 37 66  1  0  0  0
 37114  1  0  0  0
 38 43  2  0  0  0
 38 46  1  0  0  0
 38 47  1  0  0  0
 39 64  1  0  0  0
 39 67  2  0  0  0
 40 52  1  0  0  0
 40 53  2  0  0  0
 40 58  1  0  0  0
 41115  1  0  0  0
 41116  1  0  0  0
 41117  1  0  0  0
 41 48  1  0  0  0
 42 43  1  0  0  0
 42 66  1  0  0  0
 42118  1  0  0  0
 42119  1  0  0  0
 43 44  1  0  0  0
 44120  1  0  0  0
 45 46  2  0  0  0
 45121  1  0  0  0
 46122  1  0  0  0
 47123  1  0  0  0
 47124  1  0  0  0
 48 56  1  0  0  0
 48 65  1  0  0  0
 48125  1  0  0  0
 49 50  1  0  0  0
 49 53  1  0  0  0
 49 64  1  0  0  0
 49126  1  0  0  0
 50 51  1  0  0  0
 50127  1  0  0  0
 50128  1  0  0  0
 51 52  1  0  0  0
 51129  1  0  0  0
 51130  1  0  0  0
 52131  1  0  0  0
 52132  1  0  0  0
 53 54  1  0  0  0
 54 55  2  0  0  0
 54133  1  0  0  0
 55 57  1  0  0  0
 55134  1  0  0  0
 56 69  2  0  0  0
 57 58  2  0  0  0
 57135  1  0  0  0
 58136  1  0  0  0
 59 60  1  0  0  0
 59 61  1  0  0  0
 59 62  1  0  0  0
 60137  1  0  0  0
 60138  1  0  0  0
 60139  1  0  0  0
 61140  1  0  0  0
 61141  1  0  0  0
 61142  1  0  0  0
 62143  1  0  0  0
 62144  1  0  0  0
 62145  1  0  0  0
 63 65  1  0  0  0
 63146  1  0  0  0
 63147  1  0  0  0
 63148  1  0  0  0
 64149  1  0  0  0
 65150  1  0  0  0
 68 85  1  0  0  0
 71 73  2  0  0  0
 71 75  1  0  0  0
 71151  1  0  0  0
 72 74  1  0  0  0
 72 76  2  0  0  0
 72152  1  0  0  0
 73 76  1  0  0  0
 73 83  1  0  0  0
 74 75  2  0  0  0
 74 84  1  0  0  0
 75 86  1  0  0  0
 76 91  1  0  0  0
 77 80  1  0  0  0
 77 83  1  0  0  0
 77153  1  0  0  0
 77154  1  0  0  0
 78 81  1  0  0  0
 78 83  1  0  0  0
 78155  1  0  0  0
 78156  1  0  0  0
 79 84  1  0  0  0
 79 85  1  0  0  0
 79157  1  0  0  0
 79158  1  0  0  0
 80 89  1  0  0  0
 80159  1  0  0  0
 80160  1  0  0  0
 81 89  1  0  0  0
 81161  1  0  0  0
 81162  1  0  0  0
 82 85  1  0  0  0
 82 90  1  0  0  0
 82163  1  0  0  0
 82164  1  0  0  0
 83165  1  0  0  0
 84 90  1  0  0  0
 84166  1  0  0  0
 85167  1  0  0  0
 86168  1  0  0  0
 86169  1  0  0  0
 86170  1  0  0  0
 87171  1  0  0  0
 87172  1  0  0  0
 87173  1  0  0  0
 87 90  1  0  0  0
 88 91  1  0  0  0
 88174  1  0  0  0
 88175  1  0  0  0
 88176  1  0  0  0
 90177  1  0  0  0
M  CHG  1  90   1
M  ISO  4   1 100  68 101  85 101  89 100
M  END
> <chiral flag>
0

> <version>
0

> <s_m_source_file>
/data/baiqing/PycharmProjects/Reinvent-master-3.2/result/LINK_invent/BTK/process_docking_weight1_custom_sum_contain_oxygen_bond_distance_aromatic_linkinvent_7_9_3/rearranged_h_0155.sdf

> <i_m_source_file_index>
26

> <r_mmod_Potential_Energy-OPLS-2005>
92.0212936401367

> <r_mmod_Stretch_Energy-OPLS-2005>
42.4449501037598

> <r_mmod_Bend_Energy-OPLS-2005>
134.022018432617

> <r_mmod_Torsional_Energy-OPLS-2005>
376.748413085938

> <r_mmod_Improper_Torsional_Energy-OPLS-2005>
5.19701528549194

> <r_mmod_Van_der_Waal_Energy-OPLS-2005>
166.173416137695

> <r_mmod_Electrostatic_Energy-OPLS-2005>
-231.271942138672

> <r_mmod_Solvation_Energy-OPLS-2005>
-409.766082763672

> <b_mmod_Minimization_Converged-OPLS-2005>
0

> <r_mmod_RMS_Derivative-OPLS-2005>
0.294315367937088

$$$$
26
                    3D
 Structure written by MMmdl.
168179  0  0  1  0            999 V2000
  -30.6851  -14.6144   20.4749 C   0  0  0  0  0  0
  -30.4260  -12.3819   19.4386 C   0  0  0  0  0  0
  -29.4909  -12.4859   18.2153 C   0  0  0  0  0  0
  -28.0197  -12.3099   18.6404 C   0  0  0  0  0  0
  -27.6480  -13.1807   19.8678 C   0  0  2  0  0  0
  -28.7105  -13.0660   20.9896 C   0  0  0  0  0  0
  -25.2543  -13.8061   20.5688 C   0  0  0  0  0  0
  -24.1797  -13.0379   20.9219 C   0  0  0  0  0  0
  -24.6342  -11.6845   20.8801 C   0  0  0  0  0  0
  -23.9013  -10.4257   21.0454 C   0  0  0  0  0  0
  -24.3579   -9.4170   21.9214 C   0  0  0  0  0  0
  -23.6266   -8.2202   22.0761 C   0  0  0  0  0  0
  -22.4253   -8.0254   21.3544 C   0  0  0  0  0  0
  -21.9886   -9.0228   20.4651 C   0  0  0  0  0  0
  -22.7204  -10.2110   20.3082 C   0  0  0  0  0  0
  -21.6840   -6.0723   22.5277 C   0  0  0  0  0  0
  -21.4004   -6.5629   23.8212 C   0  0  0  0  0  0
  -21.3655   -5.6783   24.9175 C   0  0  0  0  0  0
  -21.6046   -4.3048   24.7227 C   0  0  0  0  0  0
  -21.8818   -3.8139   23.4347 C   0  0  0  0  0  0
  -21.9190   -4.6955   22.3402 C   0  0  0  0  0  0
  -22.7830  -13.5214   21.1857 C   0  0  0  0  0  0
  -22.1662   -4.2142   21.0978 F   0  0  0  0  0  0
  -21.5632   -3.4529   25.7739 F   0  0  0  0  0  0
  -30.0047  -13.4251   20.3963 N   0  0  0  0  0  0
  -26.2959  -12.9179   20.3409 N   0  0  0  0  0  0
  -25.9265  -11.6379   20.5869 N   0  0  0  0  0  0
  -22.0453  -12.8229   22.0416 N   0  0  0  0  0  0
  -25.4188  -15.1775   20.3985 N   0  0  0  0  0  0
  -31.8733  -14.6766   20.1536 O   0  0  0  0  0  0
  -21.6626   -6.8854   21.4233 O   0  0  0  0  0  0
  -22.3543  -14.5529   20.6698 O   0  0  0  0  0  0
  -24.6199  -31.8643   23.2075 C   0  0  0  0  0  0
  -25.9069  -32.4805   23.8386 C   0  0  1  0  0  0
  -27.2318  -27.3887   20.1099 C   0  0  0  0  0  0
  -25.5906  -33.8607   24.2313 N   0  0  0  0  0  0
  -23.4119  -30.4877   21.5485 C   0  0  2  0  0  0
  -24.8621  -28.9543   20.1085 C   0  0  0  0  0  0
  -22.7448  -29.4639   22.4964 C   0  0  0  0  0  0
  -18.0280  -28.1381   22.8495 C   0  0  0  0  0  0
  -24.1487  -36.7307   23.2638 C   0  0  0  0  0  0
  -25.9467  -30.8168   21.3694 C   0  0  0  0  0  0
  -26.0260  -29.4500   20.7118 C   0  0  0  0  0  0
  -27.2178  -28.6767   20.7075 C   0  0  0  0  0  0
  -26.0553  -26.9327   19.4767 C   0  0  0  0  0  0
  -24.8744  -27.6974   19.4827 C   0  0  0  0  0  0
  -23.6239  -29.8229   20.1624 C   0  0  0  0  0  0
  -25.4110  -36.3101   24.0334 C   0  0  1  0  0  0
  -20.5874  -28.3678   23.1303 C   0  0  2  0  0  0
  -20.6769  -26.9408   22.5415 C   0  0  0  0  0  0
  -19.5744  -26.6384   21.5217 C   0  0  0  0  0  0
  -18.1923  -26.7929   22.1627 C   0  0  0  0  0  0
  -19.1530  -28.8847   23.2892 C   0  0  0  0  0  0
  -18.9455  -30.1452   23.8904 C   0  0  0  0  0  0
  -17.6456  -30.6586   24.0566 C   0  0  0  0  0  0
  -25.9039  -34.9467   23.5121 C   0  0  0  0  0  0
  -16.5347  -29.9086   23.6330 C   0  0  0  0  0  0
  -16.7268  -28.6501   23.0355 C   0  0  0  0  0  0
  -26.4485  -31.6593   25.0731 C   0  0  0  0  0  0
  -25.3737  -31.3705   26.1466 C   0  0  0  0  0  0
  -27.0324  -30.3028   24.6136 C   0  0  0  0  0  0
  -27.6055  -32.4323   25.7495 C   0  0  0  0  0  0
  -27.5584  -37.1804   24.8465 C   0  0  0  0  0  0
  -21.4167  -29.3036   22.3702 N   0  0  0  0  0  0
  -26.4296  -37.3788   23.9410 N   0  0  0  0  0  0
  -24.6777  -31.0712   22.0994 N   0  0  0  0  0  0
  -23.4192  -28.8179   23.3026 O   0  0  0  0  0  0
  -28.3309  -26.5402   20.1634 O   0  0  0  0  0  0
  -26.5604  -34.8925   22.4685 O   0  0  0  0  0  0
  -23.5377  -32.1414   23.7435 O   0  0  0  0  0  0
  -29.4007  -21.9094   19.7005 C   0  0  0  0  0  0
  -28.7437  -23.1751   19.7393 C   0  0  0  0  0  0
  -29.8498  -23.7183   21.8355 C   0  0  0  0  0  0
  -30.2682  -21.5424   20.7556 C   0  0  0  0  0  0
  -30.4914  -22.4588   21.7840 C   0  0  0  0  0  0
  -28.9473  -24.0929   20.8085 C   0  0  0  0  0  0
  -31.5034  -21.9496   22.7722 C   0  0  0  0  0  0
  -31.9405  -20.5713   22.2203 C   0  0  0  0  0  0
  -28.8832  -17.3774   22.0133 C   0  0  0  0  0  0
  -28.5069  -16.8031   19.4414 C   0  0  0  0  0  0
  -29.2341  -18.8107   21.5363 C   0  0  0  0  0  0
  -30.7707  -18.1762   19.6146 C   0  0  0  0  0  0
  -31.1721  -20.2962   20.8960 C   0  0  1  0  0  0
  -28.6898  -16.3380   20.8953 C   0  0  1  0  0  0
  -30.0273  -16.8282   19.3598 C   0  0  1  0  0  0
  -28.0699  -25.3589   20.9758 C   0  0  0  0  0  0
  -29.9837  -15.8002   20.4337 N   0  0  0  0  0  0
  -30.5779  -18.9060   20.9109 N   0  3  1  0  0  0
  -31.4653  -12.4915   19.1231 H   0  0  0  0  0  0
  -30.3595  -11.3925   19.8939 H   0  0  0  0  0  0
  -29.7566  -11.7333   17.4718 H   0  0  0  0  0  0
  -29.6208  -13.4549   17.7308 H   0  0  0  0  0  0
  -27.8676  -11.2562   18.8775 H   0  0  0  0  0  0
  -27.3557  -12.5315   17.8042 H   0  0  0  0  0  0
  -27.6461  -14.1918   19.4932 H   0  0  0  0  0  0
  -28.7449  -12.0440   21.3691 H   0  0  0  0  0  0
  -28.4818  -13.6810   21.8586 H   0  0  0  0  0  0
  -25.2726   -9.5645   22.4786 H   0  0  0  0  0  0
  -23.9977   -7.4584   22.7467 H   0  0  0  0  0  0
  -21.0824   -8.8747   19.8943 H   0  0  0  0  0  0
  -22.3678  -10.9655   19.6195 H   0  0  0  0  0  0
  -21.1991   -7.6136   23.9715 H   0  0  0  0  0  0
  -21.1484   -6.0516   25.9080 H   0  0  0  0  0  0
  -22.0608   -2.7603   23.2848 H   0  0  0  0  0  0
  -22.4052  -11.9884   22.4803 H   0  0  0  0  0  0
  -21.1072  -13.1263   22.2604 H   0  0  0  0  0  0
  -24.6441  -15.8242   20.5008 H   0  0  0  0  0  0
  -26.2603  -15.6185   20.0526 H   0  0  0  0  0  0
  -26.7144  -32.5508   23.1151 H   0  0  0  0  0  0
  -25.0067  -33.9765   25.0466 H   0  0  0  0  0  0
  -22.7027  -31.3057   21.4078 H   0  0  0  0  0  0
  -23.3750  -35.9639   23.3305 H   0  0  0  0  0  0
  -24.3582  -36.8920   22.2052 H   0  0  0  0  0  0
  -23.7239  -37.6512   23.6654 H   0  0  0  0  0  0
  -26.0680  -31.5842   20.6037 H   0  0  0  0  0  0
  -26.8303  -30.8667   21.9940 H   0  0  0  0  0  0
  -28.1105  -29.0473   21.1916 H   0  0  0  0  0  0
  -26.0441  -25.9642   18.9963 H   0  0  0  0  0  0
  -23.9836  -27.3114   19.0070 H   0  0  0  0  0  0
  -23.7323  -30.5995   19.4042 H   0  0  0  0  0  0
  -22.7477  -29.2436   19.8658 H   0  0  0  0  0  0
  -25.1288  -36.1965   25.0827 H   0  0  0  0  0  0
  -20.9968  -28.3249   24.1421 H   0  0  0  0  0  0
  -20.5679  -26.2287   23.3605 H   0  0  0  0  0  0
  -21.6638  -26.7447   22.1204 H   0  0  0  0  0  0
  -19.6907  -25.6297   21.1241 H   0  0  0  0  0  0
  -19.6682  -27.3198   20.6748 H   0  0  0  0  0  0
  -17.4195  -26.6683   21.4024 H   0  0  0  0  0  0
  -18.0317  -26.0065   22.9015 H   0  0  0  0  0  0
  -19.7928  -30.7266   24.2275 H   0  0  0  0  0  0
  -17.5009  -31.6270   24.5162 H   0  0  0  0  0  0
  -15.5348  -30.2990   23.7649 H   0  0  0  0  0  0
  -15.8668  -28.0822   22.7071 H   0  0  0  0  0  0
  -24.5913  -30.7053   25.7796 H   0  0  0  0  0  0
  -24.8924  -32.2861   26.4916 H   0  0  0  0  0  0
  -25.8078  -30.8871   27.0225 H   0  0  0  0  0  0
  -26.2882  -29.6782   24.1182 H   0  0  0  0  0  0
  -27.4072  -29.7278   25.4614 H   0  0  0  0  0  0
  -27.8729  -30.4343   23.9315 H   0  0  0  0  0  0
  -27.2670  -33.3618   26.2086 H   0  0  0  0  0  0
  -28.3852  -32.6891   25.0311 H   0  0  0  0  0  0
  -28.0734  -31.8439   26.5394 H   0  0  0  0  0  0
  -28.2597  -38.0106   24.7524 H   0  0  0  0  0  0
  -28.1082  -36.2638   24.6277 H   0  0  0  0  0  0
  -27.2301  -37.1442   25.8867 H   0  0  0  0  0  0
  -20.9334  -29.8761   21.6922 H   0  0  0  0  0  0
  -26.0182  -38.2866   24.1412 H   0  0  0  0  0  0
  -29.2356  -21.2392   18.8682 H   0  0  0  0  0  0
  -28.0487  -23.4315   18.9516 H   0  0  0  0  0  0
  -30.0251  -24.3794   22.6733 H   0  0  0  0  0  0
  -31.0506  -21.8601   23.7606 H   0  0  0  0  0  0
  -32.3449  -22.6399   22.8428 H   0  0  0  0  0  0
  -31.7454  -19.8052   22.9710 H   0  0  0  0  0  0
  -33.0167  -20.5564   22.0420 H   0  0  0  0  0  0
  -27.9520  -17.4518   22.5760 H   0  0  0  0  0  0
  -29.6168  -17.0293   22.7422 H   0  0  0  0  0  0
  -28.0144  -17.7640   19.2987 H   0  0  0  0  0  0
  -28.0788  -16.0748   18.7550 H   0  0  0  0  0  0
  -29.2239  -19.4545   22.4171 H   0  0  0  0  0  0
  -28.4700  -19.2211   20.8770 H   0  0  0  0  0  0
  -30.4935  -18.8620   18.8127 H   0  0  0  0  0  0
  -31.8420  -18.0147   19.4896 H   0  0  0  0  0  0
  -31.9004  -20.3594   20.0849 H   0  0  0  0  0  0
  -27.9516  -15.5969   21.1735 H   0  0  0  0  0  0
  -30.3344  -16.4027   18.4019 H   0  0  0  0  0  0
  -28.1331  -25.6757   22.0179 H   0  0  0  0  0  0
  -27.0437  -25.0101   20.8587 H   0  0  0  0  0  0
  -31.1802  -18.3991   21.5407 H   0  0  0  0  0  0
  1 25  1  0  0  0
  1 30  2  0  0  0
  1 87  1  0  0  0
  2  3  1  0  0  0
  2 25  1  0  0  0
  2 89  1  0  0  0
  2 90  1  0  0  0
  3  4  1  0  0  0
  3 91  1  0  0  0
  3 92  1  0  0  0
  4  5  1  0  0  0
  4 93  1  0  0  0
  4 94  1  0  0  0
  5  6  1  0  0  0
  5 26  1  0  0  0
  5 95  1  0  0  0
  6 25  1  0  0  0
  6 96  1  0  0  0
  6 97  1  0  0  0
  7  8  2  0  0  0
  7 26  1  0  0  0
  7 29  1  0  0  0
  8  9  1  0  0  0
  8 22  1  0  0  0
  9 10  1  0  0  0
  9 27  2  0  0  0
 10 11  2  0  0  0
 10 15  1  0  0  0
 11 12  1  0  0  0
 11 98  1  0  0  0
 12 13  2  0  0  0
 12 99  1  0  0  0
 13 14  1  0  0  0
 13 31  1  0  0  0
 14 15  2  0  0  0
 14100  1  0  0  0
 15101  1  0  0  0
 16 17  2  0  0  0
 16 21  1  0  0  0
 16 31  1  0  0  0
 17 18  1  0  0  0
 17102  1  0  0  0
 18 19  2  0  0  0
 18103  1  0  0  0
 19 20  1  0  0  0
 19 24  1  0  0  0
 20 21  2  0  0  0
 20104  1  0  0  0
 21 23  1  0  0  0
 22 28  1  0  0  0
 22 32  2  0  0  0
 26 27  1  0  0  0
 28105  1  0  0  0
 28106  1  0  0  0
 29107  1  0  0  0
 29108  1  0  0  0
 33 34  1  0  0  0
 33 66  1  0  0  0
 33 70  2  0  0  0
 34 36  1  0  0  0
 34 59  1  0  0  0
 34109  1  0  0  0
 35 44  2  0  0  0
 35 45  1  0  0  0
 35 68  1  0  0  0
 36 56  1  0  0  0
 36110  1  0  0  0
 37 39  1  0  0  0
 37 47  1  0  0  0
 37 66  1  0  0  0
 37111  1  0  0  0
 38 43  2  0  0  0
 38 46  1  0  0  0
 38 47  1  0  0  0
 39 64  1  0  0  0
 39 67  2  0  0  0
 40 52  1  0  0  0
 40 53  2  0  0  0
 40 58  1  0  0  0
 41112  1  0  0  0
 41113  1  0  0  0
 41114  1  0  0  0
 41 48  1  0  0  0
 42 43  1  0  0  0
 42 66  1  0  0  0
 42115  1  0  0  0
 42116  1  0  0  0
 43 44  1  0  0  0
 44117  1  0  0  0
 45 46  2  0  0  0
 45118  1  0  0  0
 46119  1  0  0  0
 47120  1  0  0  0
 47121  1  0  0  0
 48 56  1  0  0  0
 48 65  1  0  0  0
 48122  1  0  0  0
 49 50  1  0  0  0
 49 53  1  0  0  0
 49 64  1  0  0  0
 49123  1  0  0  0
 50 51  1  0  0  0
 50124  1  0  0  0
 50125  1  0  0  0
 51 52  1  0  0  0
 51126  1  0  0  0
 51127  1  0  0  0
 52128  1  0  0  0
 52129  1  0  0  0
 53 54  1  0  0  0
 54 55  2  0  0  0
 54130  1  0  0  0
 55 57  1  0  0  0
 55131  1  0  0  0
 56 69  2  0  0  0
 57 58  2  0  0  0
 57132  1  0  0  0
 58133  1  0  0  0
 59 60  1  0  0  0
 59 61  1  0  0  0
 59 62  1  0  0  0
 60134  1  0  0  0
 60135  1  0  0  0
 60136  1  0  0  0
 61137  1  0  0  0
 61138  1  0  0  0
 61139  1  0  0  0
 62140  1  0  0  0
 62141  1  0  0  0
 62142  1  0  0  0
 63 65  1  0  0  0
 63143  1  0  0  0
 63144  1  0  0  0
 63145  1  0  0  0
 64146  1  0  0  0
 65147  1  0  0  0
 68 86  1  0  0  0
 71 72  2  0  0  0
 71 74  1  0  0  0
 71148  1  0  0  0
 72 76  1  0  0  0
 72149  1  0  0  0
 73 75  1  0  0  0
 73 76  2  0  0  0
 73150  1  0  0  0
 74 75  2  0  0  0
 74 83  1  0  0  0
 75 77  1  0  0  0
 76 86  1  0  0  0
 77 78  1  0  0  0
 77151  1  0  0  0
 77152  1  0  0  0
 78153  1  0  0  0
 78154  1  0  0  0
 78 83  1  0  0  0
 79 81  1  0  0  0
 79155  1  0  0  0
 79156  1  0  0  0
 79 84  1  0  0  0
 80 84  1  0  0  0
 80 85  1  0  0  0
 80157  1  0  0  0
 80158  1  0  0  0
 81159  1  0  0  0
 81160  1  0  0  0
 81 88  1  0  0  0
 82 88  1  0  0  0
 82161  1  0  0  0
 82162  1  0  0  0
 82 85  1  0  0  0
 83 88  1  0  0  0
 83163  1  0  0  0
 84 87  1  0  0  0
 84164  1  0  0  0
 85 87  1  0  0  0
 85165  1  0  0  0
 86166  1  0  0  0
 86167  1  0  0  0
 88168  1  0  0  0
M  CHG  1  88   1
M  ISO  4   1 100  68 101  86 101  87 100
M  END
> <chiral flag>
0

> <version>
0

> <s_m_source_file>
/data/baiqing/PycharmProjects/Reinvent-master-3.2/result/LINK_invent/BTK/process_docking_weight1_custom_sum_contain_oxygen_bond_distance_aromatic_linkinvent_7_9_3/rearranged_h_0155.sdf

> <i_m_source_file_index>
27

> <r_mmod_Potential_Energy-OPLS-2005>
216.868713378906

> <r_mmod_Stretch_Energy-OPLS-2005>
59.105224609375

> <r_mmod_Bend_Energy-OPLS-2005>
210.378356933594

> <r_mmod_Torsional_Energy-OPLS-2005>
417.697967529297

> <r_mmod_Improper_Torsional_Energy-OPLS-2005>
18.2957210540771

> <r_mmod_Van_der_Waal_Energy-OPLS-2005>
143.807922363281

> <r_mmod_Electrostatic_Energy-OPLS-2005>
-241.692047119141

> <r_mmod_Solvation_Energy-OPLS-2005>
-429.369293212891

> <b_mmod_Minimization_Converged-OPLS-2005>
0

> <r_mmod_RMS_Derivative-OPLS-2005>
0.90411251783371

$$$$
27
                    3D
 Structure written by MMmdl.
169178  0  0  1  0            999 V2000
  -30.7553  -14.4154   20.6596 C   0  0  0  0  0  0
  -30.4140  -12.3052   19.4166 C   0  0  0  0  0  0
  -29.4869  -12.5172   18.2047 C   0  0  0  0  0  0
  -28.0124  -12.3553   18.6183 C   0  0  0  0  0  0
  -27.6610  -13.1922   19.8743 C   0  0  2  0  0  0
  -28.7002  -12.9576   20.9985 C   0  0  0  0  0  0
  -25.2592  -13.8142   20.5654 C   0  0  0  0  0  0
  -24.1827  -13.0442   20.9165 C   0  0  0  0  0  0
  -24.6367  -11.6901   20.8729 C   0  0  0  0  0  0
  -23.9033  -10.4293   21.0404 C   0  0  0  0  0  0
  -24.3592   -9.4217   21.9184 C   0  0  0  0  0  0
  -23.6280   -8.2250   22.0751 C   0  0  0  0  0  0
  -22.4268   -8.0278   21.3537 C   0  0  0  0  0  0
  -21.9892   -9.0248   20.4637 C   0  0  0  0  0  0
  -22.7213  -10.2132   20.3051 C   0  0  0  0  0  0
  -21.6839   -6.0739   22.5284 C   0  0  0  0  0  0
  -21.4000   -6.5637   23.8223 C   0  0  0  0  0  0
  -21.3657   -5.6788   24.9179 C   0  0  0  0  0  0
  -21.6046   -4.3055   24.7230 C   0  0  0  0  0  0
  -21.8811   -3.8150   23.4346 C   0  0  0  0  0  0
  -21.9182   -4.6968   22.3402 C   0  0  0  0  0  0
  -22.7858  -13.5257   21.1856 C   0  0  0  0  0  0
  -22.1655   -4.2160   21.0977 F   0  0  0  0  0  0
  -21.5635   -3.4534   25.7740 F   0  0  0  0  0  0
  -30.0353  -13.2724   20.4645 N   0  0  0  0  0  0
  -26.3008  -12.9280   20.3343 N   0  0  0  0  0  0
  -25.9284  -11.6460   20.5747 N   0  0  0  0  0  0
  -22.0483  -12.8249   22.0402 N   0  0  0  0  0  0
  -25.4336  -15.1853   20.4035 N   0  0  0  0  0  0
  -31.8159  -14.6167   20.0575 O   0  0  0  0  0  0
  -21.6623   -6.8884   21.4245 O   0  0  0  0  0  0
  -22.3549  -14.5581   20.6733 O   0  0  0  0  0  0
  -24.6111  -31.8700   23.2111 C   0  0  0  0  0  0
  -25.9013  -32.4835   23.8409 C   0  0  1  0  0  0
  -27.2454  -27.4605   20.1060 C   0  0  0  0  0  0
  -25.5884  -33.8630   24.2345 N   0  0  0  0  0  0
  -23.3986  -30.4913   21.5508 C   0  0  2  0  0  0
  -24.8499  -28.9606   20.1148 C   0  0  0  0  0  0
  -22.7391  -29.4662   22.5005 C   0  0  0  0  0  0
  -18.0273  -28.1371   22.8502 C   0  0  0  0  0  0
  -24.1487  -36.7315   23.2642 C   0  0  0  0  0  0
  -25.9225  -30.8448   21.3605 C   0  0  0  0  0  0
  -26.0037  -29.4782   20.7170 C   0  0  0  0  0  0
  -27.2033  -28.7359   20.7173 C   0  0  0  0  0  0
  -26.0817  -26.9589   19.4895 C   0  0  0  0  0  0
  -24.8819  -27.6970   19.4976 C   0  0  0  0  0  0
  -23.6069  -29.8202   20.1661 C   0  0  0  0  0  0
  -25.4104  -36.3115   24.0349 C   0  0  1  0  0  0
  -20.5861  -28.3652   23.1332 C   0  0  2  0  0  0
  -20.6757  -26.9390   22.5424 C   0  0  0  0  0  0
  -19.5740  -26.6382   21.5214 C   0  0  0  0  0  0
  -18.1915  -26.7922   22.1620 C   0  0  0  0  0  0
  -19.1522  -28.8827   23.2914 C   0  0  0  0  0  0
  -18.9453  -30.1437   23.8920 C   0  0  0  0  0  0
  -17.6456  -30.6577   24.0569 C   0  0  0  0  0  0
  -25.9033  -34.9483   23.5144 C   0  0  0  0  0  0
  -16.5347  -29.9082   23.6332 C   0  0  0  0  0  0
  -16.7265  -28.6497   23.0355 C   0  0  0  0  0  0
  -26.4452  -31.6594   25.0717 C   0  0  0  0  0  0
  -25.3733  -31.3680   26.1479 C   0  0  0  0  0  0
  -27.0291  -30.3054   24.6043 C   0  0  0  0  0  0
  -27.6027  -32.4311   25.7474 C   0  0  0  0  0  0
  -27.5589  -37.1802   24.8466 C   0  0  0  0  0  0
  -21.4128  -29.3021   22.3740 N   0  0  0  0  0  0
  -26.4288  -37.3800   23.9430 N   0  0  0  0  0  0
  -24.6619  -31.0828   22.0998 N   0  0  0  0  0  0
  -23.4176  -28.8221   23.3051 O   0  0  0  0  0  0
  -28.3722  -26.6709   20.0681 O   0  0  0  0  0  0
  -26.5596  -34.8928   22.4708 O   0  0  0  0  0  0
  -23.5315  -32.1434   23.7529 O   0  0  0  0  0  0
  -29.2590  -20.7611   21.0353 C   0  0  0  0  0  0
  -30.0725  -21.2019   23.2776 C   0  0  0  0  0  0
  -28.8744  -22.1134   20.9024 C   0  0  0  0  0  0
  -29.7191  -22.5632   23.1516 C   0  0  0  0  0  0
  -29.1125  -23.0264   21.9570 C   0  0  0  0  0  0
  -29.8593  -20.2890   22.2270 C   0  0  0  0  0  0
  -31.8102  -17.2870   21.7391 C   0  0  0  0  0  0
  -29.4527  -17.3785   20.7401 C   0  0  0  0  0  0
  -31.3620  -15.9867   22.4511 C   0  0  0  0  0  0
  -29.1560  -16.1042   21.5538 C   0  0  0  0  0  0
  -30.6366  -18.1957   21.3090 C   0  0  0  0  0  0
  -28.2026  -22.5695   19.6165 C   0  0  0  0  0  0
  -29.9832  -23.4933   24.3254 C   0  0  0  0  0  0
  -29.7828  -25.2890   21.4596 C   0  0  0  0  0  0
  -29.2310  -26.7049   21.2089 C   0  0  0  0  0  0
  -30.3605  -15.2636   21.6500 N   0  0  0  0  0  0
  -28.7118  -24.3621   21.8149 N   0  0  0  0  0  0
  -30.2412  -18.9777   22.4376 O   0  0  0  0  0  0
  -31.4576  -12.3977   19.1108 H   0  0  0  0  0  0
  -30.3161  -11.2869   19.7966 H   0  0  0  0  0  0
  -29.7333  -11.8081   17.4138 H   0  0  0  0  0  0
  -29.6470  -13.5122   17.7860 H   0  0  0  0  0  0
  -27.8357  -11.2975   18.8163 H   0  0  0  0  0  0
  -27.3569  -12.6233   17.7886 H   0  0  0  0  0  0
  -27.7040  -14.2318   19.5562 H   0  0  0  0  0  0
  -28.6762  -11.9134   21.3139 H   0  0  0  0  0  0
  -28.4534  -13.5206   21.8979 H   0  0  0  0  0  0
  -25.2734   -9.5705   22.4758 H   0  0  0  0  0  0
  -23.9985   -7.4645   22.7479 H   0  0  0  0  0  0
  -21.0825   -8.8772   19.8944 H   0  0  0  0  0  0
  -22.3681  -10.9668   19.6156 H   0  0  0  0  0  0
  -21.1987   -7.6140   23.9732 H   0  0  0  0  0  0
  -21.1483   -6.0513   25.9084 H   0  0  0  0  0  0
  -22.0589   -2.7616   23.2841 H   0  0  0  0  0  0
  -22.4042  -11.9858   22.4735 H   0  0  0  0  0  0
  -21.1133  -13.1334   22.2662 H   0  0  0  0  0  0
  -24.6692  -15.8429   20.5117 H   0  0  0  0  0  0
  -26.2872  -15.6222   20.0810 H   0  0  0  0  0  0
  -26.7092  -32.5573   23.1191 H   0  0  0  0  0  0
  -25.0042  -33.9790   25.0494 H   0  0  0  0  0  0
  -22.6862  -31.3065   21.4107 H   0  0  0  0  0  0
  -23.3760  -35.9637   23.3279 H   0  0  0  0  0  0
  -24.3597  -36.8951   22.2066 H   0  0  0  0  0  0
  -23.7218  -37.6503   23.6668 H   0  0  0  0  0  0
  -26.0250  -31.6053   20.5855 H   0  0  0  0  0  0
  -26.8147  -30.9077   21.9712 H   0  0  0  0  0  0
  -28.0891  -29.1483   21.1794 H   0  0  0  0  0  0
  -26.1034  -25.9879   19.0149 H   0  0  0  0  0  0
  -23.9965  -27.2923   19.0265 H   0  0  0  0  0  0
  -23.7052  -30.5926   19.4024 H   0  0  0  0  0  0
  -22.7344  -29.2322   19.8769 H   0  0  0  0  0  0
  -25.1275  -36.1981   25.0841 H   0  0  0  0  0  0
  -20.9954  -28.3210   24.1453 H   0  0  0  0  0  0
  -20.5663  -26.2258   23.3605 H   0  0  0  0  0  0
  -21.6631  -26.7422   22.1226 H   0  0  0  0  0  0
  -19.6902  -25.6299   21.1233 H   0  0  0  0  0  0
  -19.6688  -27.3208   20.6760 H   0  0  0  0  0  0
  -17.4192  -26.6694   21.4011 H   0  0  0  0  0  0
  -18.0298  -26.0046   22.8995 H   0  0  0  0  0  0
  -19.7924  -30.7252   24.2297 H   0  0  0  0  0  0
  -17.5006  -31.6261   24.5166 H   0  0  0  0  0  0
  -15.5351  -30.2994   23.7633 H   0  0  0  0  0  0
  -15.8662  -28.0824   22.7060 H   0  0  0  0  0  0
  -24.5911  -30.7013   25.7823 H   0  0  0  0  0  0
  -24.8918  -32.2834   26.4935 H   0  0  0  0  0  0
  -25.8112  -30.8854   27.0226 H   0  0  0  0  0  0
  -26.2823  -29.6809   24.1125 H   0  0  0  0  0  0
  -27.4133  -29.7278   25.4458 H   0  0  0  0  0  0
  -27.8616  -30.4406   23.9131 H   0  0  0  0  0  0
  -27.2647  -33.3608   26.2059 H   0  0  0  0  0  0
  -28.3830  -32.6875   25.0296 H   0  0  0  0  0  0
  -28.0697  -31.8432   26.5383 H   0  0  0  0  0  0
  -28.2578  -38.0125   24.7561 H   0  0  0  0  0  0
  -28.1113  -36.2665   24.6228 H   0  0  0  0  0  0
  -27.2323  -37.1381   25.8868 H   0  0  0  0  0  0
  -20.9289  -29.8740   21.6961 H   0  0  0  0  0  0
  -26.0179  -38.2873   24.1458 H   0  0  0  0  0  0
  -29.0701  -20.0908   20.2113 H   0  0  0  0  0  0
  -30.5264  -20.8486   24.1930 H   0  0  0  0  0  0
  -32.3886  -17.0238   20.8535 H   0  0  0  0  0  0
  -32.4982  -17.8450   22.3747 H   0  0  0  0  0  0
  -28.5514  -17.9873   20.6839 H   0  0  0  0  0  0
  -29.6835  -17.0927   19.7129 H   0  0  0  0  0  0
  -30.9453  -16.2222   23.4323 H   0  0  0  0  0  0
  -32.2274  -15.3496   22.6437 H   0  0  0  0  0  0
  -28.3177  -15.5892   21.1005 H   0  0  0  0  0  0
  -28.8152  -16.3735   22.5547 H   0  0  0  0  0  0
  -31.0212  -18.8578   20.5304 H   0  0  0  0  0  0
  -28.0824  -21.7482   18.9100 H   0  0  0  0  0  0
  -28.7945  -23.3452   19.1302 H   0  0  0  0  0  0
  -27.2119  -22.9739   19.8260 H   0  0  0  0  0  0
  -30.0522  -22.9377   25.2610 H   0  0  0  0  0  0
  -29.1851  -24.2268   24.4396 H   0  0  0  0  0  0
  -30.9224  -24.0269   24.1811 H   0  0  0  0  0  0
  -30.5215  -25.3281   22.2607 H   0  0  0  0  0  0
  -30.3039  -24.9322   20.5693 H   0  0  0  0  0  0
  -30.0480  -27.4008   21.0146 H   0  0  0  0  0  0
  -28.7189  -27.0507   22.1090 H   0  0  0  0  0  0
  -27.9452  -24.4718   21.1582 H   0  0  0  0  0  0
  1 25  1  0  0  0
  1 30  2  0  0  0
  1 86  1  0  0  0
  2  3  1  0  0  0
  2 25  1  0  0  0
  2 89  1  0  0  0
  2 90  1  0  0  0
  3  4  1  0  0  0
  3 91  1  0  0  0
  3 92  1  0  0  0
  4  5  1  0  0  0
  4 93  1  0  0  0
  4 94  1  0  0  0
  5  6  1  0  0  0
  5 26  1  0  0  0
  5 95  1  0  0  0
  6 25  1  0  0  0
  6 96  1  0  0  0
  6 97  1  0  0  0
  7  8  2  0  0  0
  7 26  1  0  0  0
  7 29  1  0  0  0
  8  9  1  0  0  0
  8 22  1  0  0  0
  9 10  1  0  0  0
  9 27  2  0  0  0
 10 11  2  0  0  0
 10 15  1  0  0  0
 11 12  1  0  0  0
 11 98  1  0  0  0
 12 13  2  0  0  0
 12 99  1  0  0  0
 13 14  1  0  0  0
 13 31  1  0  0  0
 14 15  2  0  0  0
 14100  1  0  0  0
 15101  1  0  0  0
 16 17  2  0  0  0
 16 21  1  0  0  0
 16 31  1  0  0  0
 17 18  1  0  0  0
 17102  1  0  0  0
 18 19  2  0  0  0
 18103  1  0  0  0
 19 20  1  0  0  0
 19 24  1  0  0  0
 20 21  2  0  0  0
 20104  1  0  0  0
 21 23  1  0  0  0
 22 28  1  0  0  0
 22 32  2  0  0  0
 26 27  1  0  0  0
 28105  1  0  0  0
 28106  1  0  0  0
 29107  1  0  0  0
 29108  1  0  0  0
 33 34  1  0  0  0
 33 66  1  0  0  0
 33 70  2  0  0  0
 34 36  1  0  0  0
 34 59  1  0  0  0
 34109  1  0  0  0
 35 44  2  0  0  0
 35 45  1  0  0  0
 35 68  1  0  0  0
 36 56  1  0  0  0
 36110  1  0  0  0
 37 39  1  0  0  0
 37 47  1  0  0  0
 37 66  1  0  0  0
 37111  1  0  0  0
 38 43  2  0  0  0
 38 46  1  0  0  0
 38 47  1  0  0  0
 39 64  1  0  0  0
 39 67  2  0  0  0
 40 52  1  0  0  0
 40 53  2  0  0  0
 40 58  1  0  0  0
 41112  1  0  0  0
 41113  1  0  0  0
 41114  1  0  0  0
 41 48  1  0  0  0
 42 43  1  0  0  0
 42 66  1  0  0  0
 42115  1  0  0  0
 42116  1  0  0  0
 43 44  1  0  0  0
 44117  1  0  0  0
 45 46  2  0  0  0
 45118  1  0  0  0
 46119  1  0  0  0
 47120  1  0  0  0
 47121  1  0  0  0
 48 56  1  0  0  0
 48 65  1  0  0  0
 48122  1  0  0  0
 49 50  1  0  0  0
 49 53  1  0  0  0
 49 64  1  0  0  0
 49123  1  0  0  0
 50 51  1  0  0  0
 50124  1  0  0  0
 50125  1  0  0  0
 51 52  1  0  0  0
 51126  1  0  0  0
 51127  1  0  0  0
 52128  1  0  0  0
 52129  1  0  0  0
 53 54  1  0  0  0
 54 55  2  0  0  0
 54130  1  0  0  0
 55 57  1  0  0  0
 55131  1  0  0  0
 56 69  2  0  0  0
 57 58  2  0  0  0
 57132  1  0  0  0
 58133  1  0  0  0
 59 60  1  0  0  0
 59 61  1  0  0  0
 59 62  1  0  0  0
 60134  1  0  0  0
 60135  1  0  0  0
 60136  1  0  0  0
 61137  1  0  0  0
 61138  1  0  0  0
 61139  1  0  0  0
 62140  1  0  0  0
 62141  1  0  0  0
 62142  1  0  0  0
 63 65  1  0  0  0
 63143  1  0  0  0
 63144  1  0  0  0
 63145  1  0  0  0
 64146  1  0  0  0
 65147  1  0  0  0
 68 85  1  0  0  0
 71 73  2  0  0  0
 71 76  1  0  0  0
 71148  1  0  0  0
 72 74  1  0  0  0
 72 76  2  0  0  0
 72149  1  0  0  0
 73 75  1  0  0  0
 73 82  1  0  0  0
 74 75  2  0  0  0
 74 83  1  0  0  0
 75 87  1  0  0  0
 76 88  1  0  0  0
 77 79  1  0  0  0
 77 81  1  0  0  0
 77150  1  0  0  0
 77151  1  0  0  0
 78 80  1  0  0  0
 78 81  1  0  0  0
 78152  1  0  0  0
 78153  1  0  0  0
 79 86  1  0  0  0
 79154  1  0  0  0
 79155  1  0  0  0
 80 86  1  0  0  0
 80156  1  0  0  0
 80157  1  0  0  0
 81 88  1  0  0  0
 81158  1  0  0  0
 82159  1  0  0  0
 82160  1  0  0  0
 82161  1  0  0  0
 83162  1  0  0  0
 83163  1  0  0  0
 83164  1  0  0  0
 84 85  1  0  0  0
 84 87  1  0  0  0
 84165  1  0  0  0
 84166  1  0  0  0
 85167  1  0  0  0
 85168  1  0  0  0
 87169  1  0  0  0
M  ISO  4   1 100  68 101  85 101  86 100
M  END
> <chiral flag>
0

> <version>
0

> <s_m_source_file>
/data/baiqing/PycharmProjects/Reinvent-master-3.2/result/LINK_invent/BTK/process_docking_weight1_custom_sum_contain_oxygen_bond_distance_aromatic_linkinvent_7_9_3/rearranged_h_0155.sdf

> <i_m_source_file_index>
28

> <r_mmod_Potential_Energy-OPLS-2005>
105.538009643555

> <r_mmod_Stretch_Energy-OPLS-2005>
38.4089775085449

> <r_mmod_Bend_Energy-OPLS-2005>
110.350090026855

> <r_mmod_Torsional_Energy-OPLS-2005>
333.755706787109

> <r_mmod_Improper_Torsional_Energy-OPLS-2005>
11.5456418991089

> <r_mmod_Van_der_Waal_Energy-OPLS-2005>
167.319686889648

> <r_mmod_Electrostatic_Energy-OPLS-2005>
-360.681182861328

> <r_mmod_Solvation_Energy-OPLS-2005>
-203.516387939453

> <b_mmod_Minimization_Converged-OPLS-2005>
0

> <r_mmod_RMS_Derivative-OPLS-2005>
1.21094703674316

$$$$
28
                    3D
 Structure written by MMmdl.
165174  0  0  1  0            999 V2000
  -30.7044  -14.6577   20.4687 C   0  0  0  0  0  0
  -30.4044  -12.3999   19.4568 C   0  0  0  0  0  0
  -29.4903  -12.4868   18.2190 C   0  0  0  0  0  0
  -28.0172  -12.3336   18.6415 C   0  0  0  0  0  0
  -27.6412  -13.2338   19.8503 C   0  0  2  0  0  0
  -28.6952  -13.1681   20.9788 C   0  0  0  0  0  0
  -25.2522  -13.8209   20.5754 C   0  0  0  0  0  0
  -24.1810  -13.0449   20.9233 C   0  0  0  0  0  0
  -24.6397  -11.6923   20.8754 C   0  0  0  0  0  0
  -23.9086  -10.4287   21.0414 C   0  0  0  0  0  0
  -24.3628   -9.4196   21.9193 C   0  0  0  0  0  0
  -23.6299   -8.2230   22.0759 C   0  0  0  0  0  0
  -22.4276   -8.0273   21.3557 C   0  0  0  0  0  0
  -21.9925   -9.0245   20.4653 C   0  0  0  0  0  0
  -22.7259  -10.2121   20.3066 C   0  0  0  0  0  0
  -21.6843   -6.0746   22.5280 C   0  0  0  0  0  0
  -21.4013   -6.5650   23.8213 C   0  0  0  0  0  0
  -21.3652   -5.6802   24.9171 C   0  0  0  0  0  0
  -21.6036   -4.3066   24.7223 C   0  0  0  0  0  0
  -21.8812   -3.8163   23.4342 C   0  0  0  0  0  0
  -21.9195   -4.6980   22.3404 C   0  0  0  0  0  0
  -22.7827  -13.5226   21.1874 C   0  0  0  0  0  0
  -22.1662   -4.2169   21.0981 F   0  0  0  0  0  0
  -21.5624   -3.4548   25.7738 F   0  0  0  0  0  0
  -29.9947  -13.4829   20.3789 N   0  0  0  0  0  0
  -26.2957  -12.9423   20.3359 N   0  0  0  0  0  0
  -25.9337  -11.6562   20.5797 N   0  0  0  0  0  0
  -22.0476  -12.8196   22.0400 N   0  0  0  0  0  0
  -25.4249  -15.1934   20.4186 N   0  0  0  0  0  0
  -31.8769  -14.6704   20.0761 O   0  0  0  0  0  0
  -21.6626   -6.8883   21.4244 O   0  0  0  0  0  0
  -22.3511  -14.5532   20.6722 O   0  0  0  0  0  0
  -24.6306  -31.8554   23.2039 C   0  0  0  0  0  0
  -25.9119  -32.4770   23.8353 C   0  0  1  0  0  0
  -27.2069  -27.2721   20.0990 C   0  0  0  0  0  0
  -25.5916  -33.8583   24.2260 N   0  0  0  0  0  0
  -23.4262  -30.4812   21.5507 C   0  0  2  0  0  0
  -24.8664  -28.9260   20.1136 C   0  0  0  0  0  0
  -22.7474  -29.4620   22.4969 C   0  0  0  0  0  0
  -18.0272  -28.1423   22.8458 C   0  0  0  0  0  0
  -24.1489  -36.7304   23.2648 C   0  0  0  0  0  0
  -25.9732  -30.7691   21.3771 C   0  0  0  0  0  0
  -26.0420  -29.3965   20.7095 C   0  0  0  0  0  0
  -27.2191  -28.5803   20.6892 C   0  0  0  0  0  0
  -26.0039  -26.8567   19.4979 C   0  0  0  0  0  0
  -24.8495  -27.6619   19.5055 C   0  0  0  0  0  0
  -23.6379  -29.8147   20.1674 C   0  0  0  0  0  0
  -25.4126  -36.3074   24.0308 C   0  0  1  0  0  0
  -20.5886  -28.3711   23.1304 C   0  0  2  0  0  0
  -20.6800  -26.9438   22.5445 C   0  0  0  0  0  0
  -19.5777  -26.6386   21.5257 C   0  0  0  0  0  0
  -18.1928  -26.7976   22.1614 C   0  0  0  0  0  0
  -19.1537  -28.8869   23.2896 C   0  0  0  0  0  0
  -18.9472  -30.1480   23.8893 C   0  0  0  0  0  0
  -17.6489  -30.6635   24.0546 C   0  0  0  0  0  0
  -25.9057  -34.9432   23.5089 C   0  0  0  0  0  0
  -16.5367  -29.9101   23.6399 C   0  0  0  0  0  0
  -16.7272  -28.6543   23.0367 C   0  0  0  0  0  0
  -26.4495  -31.6615   25.0762 C   0  0  0  0  0  0
  -25.3705  -31.3700   26.1495 C   0  0  0  0  0  0
  -27.0402  -30.3038   24.6275 C   0  0  0  0  0  0
  -27.6068  -32.4372   25.7507 C   0  0  0  0  0  0
  -27.5590  -37.1800   24.8485 C   0  0  0  0  0  0
  -21.4191  -29.3051   22.3688 N   0  0  0  0  0  0
  -26.4306  -37.3754   23.9408 N   0  0  0  0  0  0
  -24.6973  -31.0485   22.1018 N   0  0  0  0  0  0
  -23.4191  -28.8118   23.3029 O   0  0  0  0  0  0
  -28.3181  -26.4074   20.0761 O   0  0  0  0  0  0
  -26.5665  -34.8860   22.4680 O   0  0  0  0  0  0
  -23.5449  -32.1403   23.7319 O   0  0  0  0  0  0
  -31.6005  -19.3298   21.4958 C   0  0  0  0  0  0
  -32.6286  -17.5403   22.6993 C   0  0  0  0  0  0
  -30.6031  -18.4480   21.0027 C   0  0  0  0  0  0
  -32.6457  -18.8766   22.3119 C   0  0  0  0  0  0
  -30.7839  -17.0174   21.3151 C   0  0  0  0  0  0
  -28.5917  -20.1597   21.0963 C   0  0  0  0  0  0
  -29.9372  -20.0795   18.9839 C   0  0  0  0  0  0
  -28.0386  -21.4862   20.4313 C   0  0  0  0  0  0
  -30.1265  -21.6526   19.1440 C   0  0  0  0  0  0
  -29.4670  -19.2037   20.2067 C   0  0  1  0  0  0
  -33.7770  -19.7794   22.7679 C   0  0  0  0  0  0
  -28.7040  -23.7977   19.3962 C   0  0  0  0  0  0
  -28.1417  -24.9452   20.3757 C   0  0  0  0  0  0
  -31.7268  -16.6734   22.2286 N   0  0  0  0  0  0
  -30.0785  -15.8547   20.7740 N   0  0  0  0  0  0
  -29.1177  -22.4199   19.9688 N   0  3  1  0  0  0
  -31.4544  -12.4534   19.1627 H   0  0  0  0  0  0
  -30.2901  -11.4285   19.9405 H   0  0  0  0  0  0
  -29.7507  -11.7143   17.4936 H   0  0  0  0  0  0
  -29.6339  -13.4424   17.7133 H   0  0  0  0  0  0
  -27.8608  -11.2870   18.9055 H   0  0  0  0  0  0
  -27.3542  -12.5321   17.7986 H   0  0  0  0  0  0
  -27.6365  -14.2552   19.4709 H   0  0  0  0  0  0
  -28.7178  -12.1733   21.4246 H   0  0  0  0  0  0
  -28.4581  -13.8588   21.7882 H   0  0  0  0  0  0
  -25.2768   -9.5664   22.4768 H   0  0  0  0  0  0
  -24.0013   -7.4620   22.7469 H   0  0  0  0  0  0
  -21.0864   -8.8747   19.8948 H   0  0  0  0  0  0
  -22.3718  -10.9654   19.6164 H   0  0  0  0  0  0
  -21.1993   -7.6154   23.9727 H   0  0  0  0  0  0
  -21.1487   -6.0531   25.9079 H   0  0  0  0  0  0
  -22.0600   -2.7630   23.2836 H   0  0  0  0  0  0
  -22.4115  -11.9847   22.4761 H   0  0  0  0  0  0
  -21.1090  -13.1189   22.2609 H   0  0  0  0  0  0
  -24.6686  -15.8559   20.5463 H   0  0  0  0  0  0
  -26.2768  -15.6259   20.0855 H   0  0  0  0  0  0
  -26.7165  -32.5409   23.1057 H   0  0  0  0  0  0
  -25.0046  -33.9776   25.0394 H   0  0  0  0  0  0
  -22.7256  -31.3055   21.4022 H   0  0  0  0  0  0
  -23.3725  -35.9666   23.3342 H   0  0  0  0  0  0
  -24.3587  -36.8918   22.2065 H   0  0  0  0  0  0
  -23.7222  -37.6473   23.6710 H   0  0  0  0  0  0
  -26.1102  -31.5293   20.6073 H   0  0  0  0  0  0
  -26.8498  -30.8147   22.0123 H   0  0  0  0  0  0
  -28.1266  -28.9303   21.1558 H   0  0  0  0  0  0
  -25.9361  -25.8876   19.0247 H   0  0  0  0  0  0
  -23.9383  -27.2880   19.0596 H   0  0  0  0  0  0
  -23.7544  -30.5916   19.4142 H   0  0  0  0  0  0
  -22.7504  -29.2468   19.8720 H   0  0  0  0  0  0
  -25.1273  -36.1952   25.0789 H   0  0  0  0  0  0
  -20.9967  -28.3279   24.1428 H   0  0  0  0  0  0
  -20.5815  -26.2267   23.3628 H   0  0  0  0  0  0
  -21.6656  -26.7576   22.1148 H   0  0  0  0  0  0
  -19.6995  -25.6300   21.1276 H   0  0  0  0  0  0
  -19.6745  -27.3201   20.6813 H   0  0  0  0  0  0
  -17.4240  -26.6744   21.3965 H   0  0  0  0  0  0
  -18.0267  -26.0150   22.9036 H   0  0  0  0  0  0
  -19.7961  -30.7291   24.2227 H   0  0  0  0  0  0
  -17.5064  -31.6330   24.5126 H   0  0  0  0  0  0
  -15.5371  -30.2992   23.7792 H   0  0  0  0  0  0
  -15.8670  -28.0878   22.7089 H   0  0  0  0  0  0
  -24.5949  -30.6984   25.7799 H   0  0  0  0  0  0
  -24.8822  -32.2805   26.4983 H   0  0  0  0  0  0
  -25.8013  -30.8854   27.0278 H   0  0  0  0  0  0
  -26.3027  -29.6701   24.1336 H   0  0  0  0  0  0
  -27.4112  -29.7382   25.4842 H   0  0  0  0  0  0
  -27.8857  -30.4315   23.9506 H   0  0  0  0  0  0
  -27.2772  -33.3760   26.1974 H   0  0  0  0  0  0
  -28.3903  -32.6799   25.0322 H   0  0  0  0  0  0
  -28.0705  -31.8566   26.5489 H   0  0  0  0  0  0
  -28.2584  -38.0124   24.7586 H   0  0  0  0  0  0
  -28.1071  -36.2647   24.6240 H   0  0  0  0  0  0
  -27.2357  -37.1417   25.8898 H   0  0  0  0  0  0
  -20.9415  -29.8728   21.6826 H   0  0  0  0  0  0
  -26.0183  -38.2814   24.1395 H   0  0  0  0  0  0
  -31.5694  -20.3775   21.2380 H   0  0  0  0  0  0
  -33.3792  -17.1391   23.3643 H   0  0  0  0  0  0
  -27.7496  -19.5848   21.4819 H   0  0  0  0  0  0
  -29.1555  -20.4485   21.9823 H   0  0  0  0  0  0
  -30.8259  -19.6398   18.5267 H   0  0  0  0  0  0
  -29.1702  -19.9615   18.2164 H   0  0  0  0  0  0
  -27.4170  -22.0073   21.1546 H   0  0  0  0  0  0
  -27.3828  -21.2378   19.5935 H   0  0  0  0  0  0
  -30.1562  -22.0732   18.1361 H   0  0  0  0  0  0
  -31.1143  -21.8698   19.5505 H   0  0  0  0  0  0
  -28.8202  -18.4175   19.8115 H   0  0  0  0  0  0
  -33.5338  -20.8359   22.6609 H   0  0  0  0  0  0
  -34.6691  -19.5730   22.1732 H   0  0  0  0  0  0
  -34.0296  -19.5890   23.8124 H   0  0  0  0  0  0
  -29.5903  -24.2237   18.9212 H   0  0  0  0  0  0
  -27.9952  -23.6334   18.5809 H   0  0  0  0  0  0
  -28.6343  -24.8025   21.3353 H   0  0  0  0  0  0
  -27.0964  -24.7147   20.5931 H   0  0  0  0  0  0
  -29.0735  -15.8646   20.8366 H   0  0  0  0  0  0
  -29.6358  -22.6547   20.8036 H   0  0  0  0  0  0
  1 25  1  0  0  0
  1 30  2  0  0  0
  1 85  1  0  0  0
  2  3  1  0  0  0
  2 25  1  0  0  0
  2 87  1  0  0  0
  2 88  1  0  0  0
  3  4  1  0  0  0
  3 89  1  0  0  0
  3 90  1  0  0  0
  4  5  1  0  0  0
  4 91  1  0  0  0
  4 92  1  0  0  0
  5  6  1  0  0  0
  5 26  1  0  0  0
  5 93  1  0  0  0
  6 25  1  0  0  0
  6 94  1  0  0  0
  6 95  1  0  0  0
  7  8  2  0  0  0
  7 26  1  0  0  0
  7 29  1  0  0  0
  8  9  1  0  0  0
  8 22  1  0  0  0
  9 10  1  0  0  0
  9 27  2  0  0  0
 10 11  2  0  0  0
 10 15  1  0  0  0
 11 12  1  0  0  0
 11 96  1  0  0  0
 12 13  2  0  0  0
 12 97  1  0  0  0
 13 14  1  0  0  0
 13 31  1  0  0  0
 14 15  2  0  0  0
 14 98  1  0  0  0
 15 99  1  0  0  0
 16 17  2  0  0  0
 16 21  1  0  0  0
 16 31  1  0  0  0
 17 18  1  0  0  0
 17100  1  0  0  0
 18 19  2  0  0  0
 18101  1  0  0  0
 19 20  1  0  0  0
 19 24  1  0  0  0
 20 21  2  0  0  0
 20102  1  0  0  0
 21 23  1  0  0  0
 22 28  1  0  0  0
 22 32  2  0  0  0
 26 27  1  0  0  0
 28103  1  0  0  0
 28104  1  0  0  0
 29105  1  0  0  0
 29106  1  0  0  0
 33 34  1  0  0  0
 33 66  1  0  0  0
 33 70  2  0  0  0
 34 36  1  0  0  0
 34 59  1  0  0  0
 34107  1  0  0  0
 35 44  2  0  0  0
 35 45  1  0  0  0
 35 68  1  0  0  0
 36 56  1  0  0  0
 36108  1  0  0  0
 37 39  1  0  0  0
 37 47  1  0  0  0
 37 66  1  0  0  0
 37109  1  0  0  0
 38 43  2  0  0  0
 38 46  1  0  0  0
 38 47  1  0  0  0
 39 64  1  0  0  0
 39 67  2  0  0  0
 40 52  1  0  0  0
 40 53  2  0  0  0
 40 58  1  0  0  0
 41110  1  0  0  0
 41111  1  0  0  0
 41112  1  0  0  0
 41 48  1  0  0  0
 42 43  1  0  0  0
 42 66  1  0  0  0
 42113  1  0  0  0
 42114  1  0  0  0
 43 44  1  0  0  0
 44115  1  0  0  0
 45 46  2  0  0  0
 45116  1  0  0  0
 46117  1  0  0  0
 47118  1  0  0  0
 47119  1  0  0  0
 48 56  1  0  0  0
 48 65  1  0  0  0
 48120  1  0  0  0
 49 50  1  0  0  0
 49 53  1  0  0  0
 49 64  1  0  0  0
 49121  1  0  0  0
 50 51  1  0  0  0
 50122  1  0  0  0
 50123  1  0  0  0
 51 52  1  0  0  0
 51124  1  0  0  0
 51125  1  0  0  0
 52126  1  0  0  0
 52127  1  0  0  0
 53 54  1  0  0  0
 54 55  2  0  0  0
 54128  1  0  0  0
 55 57  1  0  0  0
 55129  1  0  0  0
 56 69  2  0  0  0
 57 58  2  0  0  0
 57130  1  0  0  0
 58131  1  0  0  0
 59 60  1  0  0  0
 59 61  1  0  0  0
 59 62  1  0  0  0
 60132  1  0  0  0
 60133  1  0  0  0
 60134  1  0  0  0
 61135  1  0  0  0
 61136  1  0  0  0
 61137  1  0  0  0
 62138  1  0  0  0
 62139  1  0  0  0
 62140  1  0  0  0
 63 65  1  0  0  0
 63141  1  0  0  0
 63142  1  0  0  0
 63143  1  0  0  0
 64144  1  0  0  0
 65145  1  0  0  0
 68 83  1  0  0  0
 71 73  2  0  0  0
 71 74  1  0  0  0
 71146  1  0  0  0
 72 74  2  0  0  0
 72 84  1  0  0  0
 72147  1  0  0  0
 73 75  1  0  0  0
 73 80  1  0  0  0
 74 81  1  0  0  0
 75 84  2  0  0  0
 75 85  1  0  0  0
 76 78  1  0  0  0
 76 80  1  0  0  0
 76148  1  0  0  0
 76149  1  0  0  0
 77 79  1  0  0  0
 77 80  1  0  0  0
 77150  1  0  0  0
 77151  1  0  0  0
 78 86  1  0  0  0
 78152  1  0  0  0
 78153  1  0  0  0
 79 86  1  0  0  0
 79154  1  0  0  0
 79155  1  0  0  0
 80156  1  0  0  0
 81157  1  0  0  0
 81158  1  0  0  0
 81159  1  0  0  0
 82 83  1  0  0  0
 82160  1  0  0  0
 82161  1  0  0  0
 82 86  1  0  0  0
 83162  1  0  0  0
 83163  1  0  0  0
 85164  1  0  0  0
 86165  1  0  0  0
M  CHG  1  86   1
M  ISO  4   1 100  68 101  83 101  85 100
M  END
> <chiral flag>
0

> <version>
0

> <s_m_source_file>
/data/baiqing/PycharmProjects/Reinvent-master-3.2/result/LINK_invent/BTK/process_docking_weight1_custom_sum_contain_oxygen_bond_distance_aromatic_linkinvent_7_9_3/rearranged_h_0155.sdf

> <i_m_source_file_index>
29

> <r_mmod_Potential_Energy-OPLS-2005>
44.442741394043

> <r_mmod_Stretch_Energy-OPLS-2005>
115.056190490723

> <r_mmod_Bend_Energy-OPLS-2005>
206.906890869141

> <r_mmod_Torsional_Energy-OPLS-2005>
306.052154541016

> <r_mmod_Improper_Torsional_Energy-OPLS-2005>
5.16544961929321

> <r_mmod_Van_der_Waal_Energy-OPLS-2005>
154.127487182617

> <r_mmod_Electrostatic_Energy-OPLS-2005>
-335.219329833984

> <r_mmod_Solvation_Energy-OPLS-2005>
-471.94775390625

> <b_mmod_Minimization_Converged-OPLS-2005>
0

> <r_mmod_RMS_Derivative-OPLS-2005>
5.66164588928223

$$$$
29
                    3D
 Structure written by MMmdl.
191201  0  0  1  0            999 V2000
  -31.1656  -14.9398   21.0136 C   0  0  0  0  0  0
  -30.8632  -12.7069   19.2069 C   0  0  0  0  0  0
  -29.4616  -12.4838   17.9911 C   0  0  0  0  0  0
  -27.6464  -12.9867   18.1710 C   0  0  0  0  0  0
  -27.0422  -13.9045   19.7631 C   0  0  2  0  0  0
  -29.8282  -13.6785   21.5110 C   0  0  0  0  0  0
  -24.8585  -13.9670   20.6287 C   0  0  0  0  0  0
  -23.9253  -13.0696   20.9680 C   0  0  0  0  0  0
  -24.4707  -11.7557   20.8086 C   0  0  0  0  0  0
  -23.8437  -10.4458   20.9955 C   0  0  0  0  0  0
  -24.3399   -9.4575   21.8803 C   0  0  0  0  0  0
  -23.6339   -8.2439   22.0546 C   0  0  0  0  0  0
  -22.4293   -8.0188   21.3444 C   0  0  0  0  0  0
  -21.9641   -8.9934   20.4500 C   0  0  0  0  0  0
  -22.6642  -10.1919   20.2735 C   0  0  0  0  0  0
  -21.6962   -6.0634   22.5277 C   0  0  0  0  0  0
  -21.4078   -6.5574   23.8179 C   0  0  0  0  0  0
  -21.3706   -5.6750   24.9174 C   0  0  0  0  0  0
  -21.6072   -4.2996   24.7248 C   0  0  0  0  0  0
  -21.8845   -3.8061   23.4379 C   0  0  0  0  0  0
  -21.9230   -4.6866   22.3432 C   0  0  0  0  0  0
  -22.5497  -13.4822   21.2766 C   0  0  0  0  0  0
  -22.1681   -4.2026   21.1018 F   0  0  0  0  0  0
  -21.5642   -3.4509   25.7776 F   0  0  0  0  0  0
  -30.9472  -13.5759   20.6782 N   0  0  0  0  0  0
  -25.8342  -13.2228   20.1368 N   0  0  0  0  0  0
  -25.6655  -11.8570   20.2602 N   0  0  0  0  0  0
  -21.8847  -12.7471   22.1420 N   0  0  0  0  0  0
  -24.9633  -15.3573   20.6478 N   0  0  0  0  0  0
  -32.1540  -15.3316   20.4344 O   0  0  0  0  0  0
  -21.6814   -6.8679   21.4180 O   0  0  0  0  0  0
  -22.0929  -14.5054   20.7692 O   0  0  0  0  0  0
  -24.6850  -31.8005   23.1538 C   0  0  0  0  0  0
  -25.9441  -32.4489   23.8081 C   0  0  1  0  0  0
  -27.1165  -26.6757   20.1604 C   0  0  0  0  0  0
  -25.6023  -33.8313   24.1956 N   0  0  0  0  0  0
  -23.5042  -30.4150   21.5102 C   0  0  2  0  0  0
  -24.9340  -28.7619   20.1096 C   0  0  0  0  0  0
  -22.7760  -29.4355   22.4701 C   0  0  0  0  0  0
  -18.0338  -28.1441   22.8464 C   0  0  0  0  0  0
  -24.1490  -36.7178   23.2646 C   0  0  0  0  0  0
  -26.0890  -30.5195   21.4174 C   0  0  0  0  0  0
  -26.1307  -29.0880   20.7551 C   0  0  0  0  0  0
  -27.2223  -28.0713   20.7448 C   0  0  0  0  0  0
  -25.8976  -26.5725   19.4630 C   0  0  0  0  0  0
  -24.8561  -27.5332   19.4381 C   0  0  0  0  0  0
  -23.7488  -29.7325   20.1381 C   0  0  0  0  0  0
  -25.4143  -36.2924   24.0277 C   0  0  1  0  0  0
  -20.5980  -28.3807   23.1151 C   0  0  2  0  0  0
  -20.6827  -26.9469   22.5419 C   0  0  0  0  0  0
  -19.5794  -26.6370   21.5243 C   0  0  0  0  0  0
  -18.1963  -26.7972   22.1626 C   0  0  0  0  0  0
  -19.1608  -28.8938   23.2789 C   0  0  0  0  0  0
  -18.9510  -30.1524   23.8828 C   0  0  0  0  0  0
  -17.6496  -30.6616   24.0558 C   0  0  0  0  0  0
  -25.9120  -34.9312   23.4954 C   0  0  0  0  0  0
  -16.5385  -29.9101   23.6351 C   0  0  0  0  0  0
  -16.7318  -28.6536   23.0349 C   0  0  0  0  0  0
  -26.4585  -31.6542   25.0725 C   0  0  0  0  0  0
  -25.3627  -31.3928   26.1334 C   0  0  0  0  0  0
  -27.0501  -30.2869   24.6671 C   0  0  0  0  0  0
  -27.6046  -32.4389   25.7547 C   0  0  0  0  0  0
  -27.5577  -37.1749   24.8449 C   0  0  0  0  0  0
  -21.4397  -29.3061   22.3468 N   0  0  0  0  0  0
  -26.4273  -37.3683   23.9406 N   0  0  0  0  0  0
  -24.7862  -30.9467   22.0803 N   0  0  0  0  0  0
  -23.4213  -28.7878   23.2993 O   0  0  0  0  0  0
  -28.0317  -25.4379   20.1197 O   0  0  0  0  0  0
  -26.5741  -34.8870   22.4551 O   0  0  0  0  0  0
  -23.5877  -32.1099   23.6494 O   0  0  0  0  0  0
  -27.6566  -14.3941   22.1830 C   0  0  0  0  0  0
  -27.7329  -12.8059   21.7521 C   0  0  0  0  0  0
  -29.1039  -14.5413   19.4773 C   0  0  0  0  0  0
  -28.6347  -15.9589   20.2047 C   0  0  0  0  0  0
  -28.4897  -15.6784   21.6050 C   0  0  0  0  0  0
  -28.5673  -12.4724   20.2906 C   0  0  0  0  0  0
  -29.6545  -15.2637   18.1589 C   0  0  0  0  0  0
  -29.2503  -20.9388   20.5902 C   0  0  0  0  0  0
  -29.1865  -22.6453   20.2993 C   0  0  0  0  0  0
  -27.1413  -20.6776   19.8013 C   0  0  0  0  0  0
  -28.9787  -17.7519   19.8550 C   0  0  2  0  0  0
  -28.4828  -19.6601   19.7907 C   0  0  2  0  0  0
  -27.1178  -22.3994   19.4109 C   0  0  2  0  0  0
  -27.8661  -23.6829   20.2693 C   0  0  2  0  0  0
  -30.2984  -17.6399   19.0432 C   0  0  1  0  0  0
  -25.6520  -22.7676   19.1325 C   0  0  0  0  0  0
  -28.9508   -8.7746   20.5498 C   0  0  0  0  0  0
  -31.6402  -18.4881   21.2934 C   0  0  0  0  0  0
  -30.5258  -17.1722   15.7449 C   0  0  0  0  0  0
  -32.3385  -15.6102   16.6580 C   0  0  0  0  0  0
  -28.5594  -10.1791   21.0097 C   0  0  0  0  0  0
  -31.5690  -18.2969   19.7494 C   0  0  1  0  0  0
  -31.3211  -16.7133   16.9915 C   0  0  0  0  0  0
  -30.4950  -16.3787   18.2055 N   0  0  0  0  0  0
  -30.1078  -15.8765   21.6360 N   0  0  0  0  0  0
  -29.2187  -14.9704   17.0471 O   0  0  0  0  0  0
  -32.7957  -17.6776   19.4203 O   0  0  0  0  0  0
  -28.7858  -11.1287   19.9724 O   0  0  0  0  0  0
  -31.6815  -13.1171   18.6109 H   0  0  0  0  0  0
  -31.2247  -11.7043   19.4441 H   0  0  0  0  0  0
  -29.4353  -11.4130   17.7859 H   0  0  0  0  0  0
  -29.8458  -12.7606   17.0110 H   0  0  0  0  0  0
  -27.0868  -12.0588   18.0813 H   0  0  0  0  0  0
  -27.2950  -13.5274   17.2946 H   0  0  0  0  0  0
  -26.7642  -14.8554   19.3017 H   0  0  0  0  0  0
  -30.1080  -12.6742   21.8949 H   0  0  0  0  0  0
  -29.8990  -13.8506   22.6207 H   0  0  0  0  0  0
  -25.2448   -9.6445   22.4397 H   0  0  0  0  0  0
  -24.0201   -7.4963   22.7316 H   0  0  0  0  0  0
  -21.0545   -8.8197   19.8926 H   0  0  0  0  0  0
  -22.2718  -10.9356   19.5941 H   0  0  0  0  0  0
  -21.2079   -7.6096   23.9621 H   0  0  0  0  0  0
  -21.1512   -6.0508   25.9052 H   0  0  0  0  0  0
  -22.0584   -2.7520   23.2938 H   0  0  0  0  0  0
  -22.2965  -11.9305   22.5637 H   0  0  0  0  0  0
  -20.9404  -13.0086   22.3923 H   0  0  0  0  0  0
  -24.1895  -15.9551   20.9158 H   0  0  0  0  0  0
  -25.8132  -15.8635   20.4389 H   0  0  0  0  0  0
  -26.7522  -32.4924   23.0772 H   0  0  0  0  0  0
  -25.0142  -33.9365   25.0107 H   0  0  0  0  0  0
  -22.8327  -31.2584   21.3317 H   0  0  0  0  0  0
  -23.3781  -35.9479   23.3245 H   0  0  0  0  0  0
  -24.3563  -36.8912   22.2076 H   0  0  0  0  0  0
  -23.7216  -37.6321   23.6770 H   0  0  0  0  0  0
  -26.3022  -31.2474   20.6335 H   0  0  0  0  0  0
  -26.9399  -30.5708   22.0864 H   0  0  0  0  0  0
  -28.1392  -28.3196   21.2561 H   0  0  0  0  0  0
  -25.7099  -25.6553   18.9334 H   0  0  0  0  0  0
  -23.9545  -27.2921   18.8930 H   0  0  0  0  0  0
  -23.9436  -30.5012   19.3880 H   0  0  0  0  0  0
  -22.8453  -29.2217   19.8008 H   0  0  0  0  0  0
  -25.1348  -36.1691   25.0774 H   0  0  0  0  0  0
  -21.0077  -28.3444   24.1270 H   0  0  0  0  0  0
  -20.5731  -26.2427   23.3670 H   0  0  0  0  0  0
  -21.6674  -26.7431   22.1198 H   0  0  0  0  0  0
  -19.6941  -25.6248   21.1333 H   0  0  0  0  0  0
  -19.6736  -27.3130   20.6731 H   0  0  0  0  0  0
  -17.4243  -26.6737   21.4013 H   0  0  0  0  0  0
  -18.0328  -26.0136   22.9041 H   0  0  0  0  0  0
  -19.7976  -30.7381   24.2167 H   0  0  0  0  0  0
  -17.5031  -31.6287   24.5178 H   0  0  0  0  0  0
  -15.5382  -30.2968   23.7713 H   0  0  0  0  0  0
  -15.8727  -28.0826   22.7085 H   0  0  0  0  0  0
  -24.5814  -30.7265   25.7656 H   0  0  0  0  0  0
  -24.8800  -32.3181   26.4496 H   0  0  0  0  0  0
  -25.7755  -30.9266   27.0284 H   0  0  0  0  0  0
  -26.3204  -29.6458   24.1704 H   0  0  0  0  0  0
  -27.3943  -29.7370   25.5439 H   0  0  0  0  0  0
  -27.9192  -30.3987   24.0188 H   0  0  0  0  0  0
  -27.2608  -33.3764   26.1920 H   0  0  0  0  0  0
  -28.3965  -32.6809   25.0456 H   0  0  0  0  0  0
  -28.0580  -31.8641   26.5627 H   0  0  0  0  0  0
  -28.2523  -38.0106   24.7528 H   0  0  0  0  0  0
  -28.1132  -36.2626   24.6222 H   0  0  0  0  0  0
  -27.2298  -37.1338   25.8848 H   0  0  0  0  0  0
  -20.9689  -29.8792   21.6599 H   0  0  0  0  0  0
  -26.0099  -38.2729   24.1425 H   0  0  0  0  0  0
  -27.1320  -14.5660   23.1129 H   0  0  0  0  0  0
  -27.2770  -12.0414   22.3656 H   0  0  0  0  0  0
  -29.0038  -20.8180   21.6470 H   0  0  0  0  0  0
  -30.3149  -20.7231   20.5481 H   0  0  0  0  0  0
  -29.6989  -22.7852   19.3466 H   0  0  0  0  0  0
  -29.8823  -23.0855   21.0116 H   0  0  0  0  0  0
  -26.6610  -20.5794   20.7766 H   0  0  0  0  0  0
  -26.4425  -20.1965   19.1156 H   0  0  0  0  0  0
  -29.1723  -17.9333   20.9007 H   0  0  0  0  0  0
  -28.7602  -19.8370   18.7536 H   0  0  0  0  0  0
  -27.5779  -22.4237   18.4202 H   0  0  0  0  0  0
  -27.4331  -23.6257   21.2681 H   0  0  0  0  0  0
  -30.1048  -18.3502   18.2439 H   0  0  0  0  0  0
  -25.1201  -23.0340   20.0456 H   0  0  0  0  0  0
  -25.1114  -21.9396   18.6699 H   0  0  0  0  0  0
  -25.5813  -23.5978   18.4318 H   0  0  0  0  0  0
  -28.8825   -8.0759   21.3847 H   0  0  0  0  0  0
  -29.9708   -8.7338   20.1677 H   0  0  0  0  0  0
  -28.2730   -8.4330   19.7670 H   0  0  0  0  0  0
  -30.7498  -18.9110   21.7560 H   0  0  0  0  0  0
  -32.4276  -19.1984   21.5330 H   0  0  0  0  0  0
  -31.9099  -17.5897   21.8445 H   0  0  0  0  0  0
  -31.1923  -17.6540   15.0328 H   0  0  0  0  0  0
  -29.7501  -17.8959   15.9959 H   0  0  0  0  0  0
  -30.0589  -16.3412   15.2145 H   0  0  0  0  0  0
  -33.1613  -16.0122   16.0641 H   0  0  0  0  0  0
  -31.8796  -14.8009   16.0898 H   0  0  0  0  0  0
  -32.7720  -15.1906   17.5665 H   0  0  0  0  0  0
  -29.1321  -10.4382   21.9006 H   0  0  0  0  0  0
  -27.5080  -10.1608   21.2908 H   0  0  0  0  0  0
  -31.6384  -19.3092   19.3416 H   0  0  0  0  0  0
  -31.9380  -17.5837   17.2012 H   0  0  0  0  0  0
  -30.4278  -16.8192   21.7867 H   0  0  0  0  0  0
  -32.7162  -16.7615   19.7031 H   0  0  0  0  0  0
  1 25  1  0  0  0
  1 30  2  0  0  0
  1 95  1  0  0  0
  2  3  1  0  0  0
  2 25  1  0  0  0
  2 99  1  0  0  0
  2100  1  0  0  0
  3  4  1  0  0  0
  3101  1  0  0  0
  3102  1  0  0  0
  4  5  1  0  0  0
  4103  1  0  0  0
  4104  1  0  0  0
  5  6  1  0  0  0
  5 26  1  0  0  0
  5105  1  0  0  0
  6 25  1  0  0  0
  6106  1  0  0  0
  6107  1  0  0  0
  7  8  2  0  0  0
  7 26  1  0  0  0
  7 29  1  0  0  0
  8  9  1  0  0  0
  8 22  1  0  0  0
  9 10  1  0  0  0
  9 27  2  0  0  0
 10 11  2  0  0  0
 10 15  1  0  0  0
 11 12  1  0  0  0
 11108  1  0  0  0
 12 13  2  0  0  0
 12109  1  0  0  0
 13 14  1  0  0  0
 13 31  1  0  0  0
 14 15  2  0  0  0
 14110  1  0  0  0
 15111  1  0  0  0
 16 17  2  0  0  0
 16 21  1  0  0  0
 16 31  1  0  0  0
 17 18  1  0  0  0
 17112  1  0  0  0
 18 19  2  0  0  0
 18113  1  0  0  0
 19 20  1  0  0  0
 19 24  1  0  0  0
 20 21  2  0  0  0
 20114  1  0  0  0
 21 23  1  0  0  0
 22 28  1  0  0  0
 22 32  2  0  0  0
 26 27  1  0  0  0
 28115  1  0  0  0
 28116  1  0  0  0
 29117  1  0  0  0
 29118  1  0  0  0
 33 34  1  0  0  0
 33 66  1  0  0  0
 33 70  2  0  0  0
 34 36  1  0  0  0
 34 59  1  0  0  0
 34119  1  0  0  0
 35 44  2  0  0  0
 35 45  1  0  0  0
 35 68  1  0  0  0
 36 56  1  0  0  0
 36120  1  0  0  0
 37 39  1  0  0  0
 37 47  1  0  0  0
 37 66  1  0  0  0
 37121  1  0  0  0
 38 43  2  0  0  0
 38 46  1  0  0  0
 38 47  1  0  0  0
 39 64  1  0  0  0
 39 67  2  0  0  0
 40 52  1  0  0  0
 40 53  2  0  0  0
 40 58  1  0  0  0
 41122  1  0  0  0
 41123  1  0  0  0
 41124  1  0  0  0
 41 48  1  0  0  0
 42 43  1  0  0  0
 42 66  1  0  0  0
 42125  1  0  0  0
 42126  1  0  0  0
 43 44  1  0  0  0
 44127  1  0  0  0
 45 46  2  0  0  0
 45128  1  0  0  0
 46129  1  0  0  0
 47130  1  0  0  0
 47131  1  0  0  0
 48 56  1  0  0  0
 48 65  1  0  0  0
 48132  1  0  0  0
 49 50  1  0  0  0
 49 53  1  0  0  0
 49 64  1  0  0  0
 49133  1  0  0  0
 50 51  1  0  0  0
 50134  1  0  0  0
 50135  1  0  0  0
 51 52  1  0  0  0
 51136  1  0  0  0
 51137  1  0  0  0
 52138  1  0  0  0
 52139  1  0  0  0
 53 54  1  0  0  0
 54 55  2  0  0  0
 54140  1  0  0  0
 55 57  1  0  0  0
 55141  1  0  0  0
 56 69  2  0  0  0
 57 58  2  0  0  0
 57142  1  0  0  0
 58143  1  0  0  0
 59 60  1  0  0  0
 59 61  1  0  0  0
 59 62  1  0  0  0
 60144  1  0  0  0
 60145  1  0  0  0
 60146  1  0  0  0
 61147  1  0  0  0
 61148  1  0  0  0
 61149  1  0  0  0
 62150  1  0  0  0
 62151  1  0  0  0
 62152  1  0  0  0
 63 65  1  0  0  0
 63153  1  0  0  0
 63154  1  0  0  0
 63155  1  0  0  0
 64156  1  0  0  0
 65157  1  0  0  0
 68 84  1  0  0  0
 71 72  2  0  0  0
 71 75  1  0  0  0
 71158  1  0  0  0
 72 76  1  0  0  0
 72159  1  0  0  0
 73 74  1  0  0  0
 73 76  2  0  0  0
 73 77  1  0  0  0
 74 75  2  0  0  0
 74 81  1  0  0  0
 75 95  1  0  0  0
 76 98  1  0  0  0
 77 94  1  0  0  0
 77 96  2  0  0  0
 78 79  1  0  0  0
 78160  1  0  0  0
 78161  1  0  0  0
 78 82  1  0  0  0
 79 84  1  0  0  0
 79162  1  0  0  0
 79163  1  0  0  0
 80 82  1  0  0  0
 80 83  1  0  0  0
 80164  1  0  0  0
 80165  1  0  0  0
 81 82  1  0  0  0
 81 85  1  0  0  0
 81166  1  0  0  0
 82167  1  0  0  0
 83 84  1  0  0  0
 83 86  1  0  0  0
 83168  1  0  0  0
 84169  1  0  0  0
 85 92  1  0  0  0
 85 94  1  0  0  0
 85170  1  0  0  0
 86171  1  0  0  0
 86172  1  0  0  0
 86173  1  0  0  0
 87 91  1  0  0  0
 87174  1  0  0  0
 87175  1  0  0  0
 87176  1  0  0  0
 88177  1  0  0  0
 88178  1  0  0  0
 88179  1  0  0  0
 88 92  1  0  0  0
 89180  1  0  0  0
 89181  1  0  0  0
 89182  1  0  0  0
 89 93  1  0  0  0
 90 93  1  0  0  0
 90183  1  0  0  0
 90184  1  0  0  0
 90185  1  0  0  0
 91 98  1  0  0  0
 91186  1  0  0  0
 91187  1  0  0  0
 92 97  1  0  0  0
 92188  1  0  0  0
 93 94  1  0  0  0
 93189  1  0  0  0
 95190  1  0  0  0
 97191  1  0  0  0
M  ISO  4   1 100  68 101  84 101  95 100
M  END
> <chiral flag>
0

> <version>
0

> <s_m_source_file>
/data/baiqing/PycharmProjects/Reinvent-master-3.2/result/LINK_invent/BTK/process_docking_weight1_custom_sum_contain_oxygen_bond_distance_aromatic_linkinvent_7_9_3/rearranged_h_0155.sdf

> <i_m_source_file_index>
30

> <r_mmod_Potential_Energy-OPLS-2005>
13374.14453125

> <r_mmod_Stretch_Energy-OPLS-2005>
7346.55078125

> <r_mmod_Bend_Energy-OPLS-2005>
1582.46911621094

> <r_mmod_Torsional_Energy-OPLS-2005>
665.789794921875

> <r_mmod_Improper_Torsional_Energy-OPLS-2005>
57.6526298522949

> <r_mmod_Van_der_Waal_Energy-OPLS-2005>
3159.22094726562

> <r_mmod_Electrostatic_Energy-OPLS-2005>
-390.500213623047

> <r_mmod_Solvation_Energy-OPLS-2005>
-213.403884887695

> <b_mmod_Minimization_Converged-OPLS-2005>
0

> <r_mmod_RMS_Derivative-OPLS-2005>
14.919939994812

$$$$
30
                    3D
 Structure written by MMmdl.
166175  0  0  1  0            999 V2000
  -31.6668  -14.1943   18.5514 C   0  0  0  0  0  0
  -30.5484  -13.3270   20.4301 C   0  0  0  0  0  0
  -29.0739  -12.6099   20.7187 C   0  0  0  0  0  0
  -27.7246  -13.4362   20.7902 C   0  0  0  0  0  0
  -26.9480  -14.0904   19.5883 C   0  0  2  0  0  0
  -29.9967  -15.5837   18.4758 C   0  0  0  0  0  0
  -24.7645  -13.9840   20.2541 C   0  0  0  0  0  0
  -23.9137  -13.1140   20.7640 C   0  0  0  0  0  0
  -24.4059  -11.8054   20.5171 C   0  0  0  0  0  0
  -23.8107  -10.5459   20.8512 C   0  0  0  0  0  0
  -24.3467   -9.6153   21.7858 C   0  0  0  0  0  0
  -23.6728   -8.4241   21.9805 C   0  0  0  0  0  0
  -22.4666   -8.0960   21.3301 C   0  0  0  0  0  0
  -21.9507   -9.0412   20.4602 C   0  0  0  0  0  0
  -22.5699  -10.2711   20.2406 C   0  0  0  0  0  0
  -21.7422   -6.1242   22.5484 C   0  0  0  0  0  0
  -21.4452   -6.6111   23.8359 C   0  0  0  0  0  0
  -21.3726   -5.6906   24.9354 C   0  0  0  0  0  0
  -21.6195   -4.3122   24.7088 C   0  0  0  0  0  0
  -21.9219   -3.8613   23.3856 C   0  0  0  0  0  0
  -21.9616   -4.7622   22.3458 C   0  0  0  0  0  0
  -22.6111  -13.5017   21.2829 C   0  0  0  0  0  0
  -22.1982   -4.2947   21.0824 F   0  0  0  0  0  0
  -21.5367   -3.4423   25.7386 F   0  0  0  0  0  0
  -30.7884  -14.5296   19.4412 N   0  0  0  0  0  0
  -25.7534  -13.3033   19.7290 N   0  0  0  0  0  0
  -25.5759  -11.8475   19.8819 N   0  0  0  0  0  0
  -22.1425  -12.7103   22.1811 N   0  0  0  0  0  0
  -24.7699  -15.3938   20.0459 N   0  0  0  0  0  0
  -32.6843  -14.4405   19.1168 O   0  0  0  0  0  0
  -21.7282   -6.9471   21.4261 O   0  0  0  0  0  0
  -22.0685  -14.5191   20.8757 O   0  0  0  0  0  0
  -24.6992  -31.7901   23.1980 C   0  0  0  0  0  0
  -25.9487  -32.4630   23.8426 C   0  0  1  0  0  0
  -27.0310  -26.7119   19.9586 C   0  0  0  0  0  0
  -25.5973  -33.8548   24.2113 N   0  0  0  0  0  0
  -23.5143  -30.4052   21.5261 C   0  0  2  0  0  0
  -24.8761  -28.8008   20.1105 C   0  0  0  0  0  0
  -22.7830  -29.4075   22.4709 C   0  0  0  0  0  0
  -18.0357  -28.1574   22.8413 C   0  0  0  0  0  0
  -24.1377  -36.7168   23.2673 C   0  0  0  0  0  0
  -26.1029  -30.4764   21.4488 C   0  0  0  0  0  0
  -26.1207  -29.0825   20.6984 C   0  0  0  0  0  0
  -27.2055  -28.0815   20.5710 C   0  0  0  0  0  0
  -25.7738  -26.6192   19.3243 C   0  0  0  0  0  0
  -24.7485  -27.6042   19.3791 C   0  0  0  0  0  0
  -23.7303  -29.8195   20.1444 C   0  0  0  0  0  0
  -25.4118  -36.3170   24.0340 C   0  0  1  0  0  0
  -20.5968  -28.3728   23.1273 C   0  0  2  0  0  0
  -20.6787  -26.9400   22.5497 C   0  0  0  0  0  0
  -19.5743  -26.6334   21.5338 C   0  0  0  0  0  0
  -18.1911  -26.8083   22.1647 C   0  0  0  0  0  0
  -19.1657  -28.8986   23.2752 C   0  0  0  0  0  0
  -18.9488  -30.1565   23.8753 C   0  0  0  0  0  0
  -17.6482  -30.6650   24.0546 C   0  0  0  0  0  0
  -25.9129  -34.9510   23.5106 C   0  0  0  0  0  0
  -16.5347  -29.9107   23.6449 C   0  0  0  0  0  0
  -16.7300  -28.6643   23.0233 C   0  0  0  0  0  0
  -26.4637  -31.7012   25.1232 C   0  0  0  0  0  0
  -25.3731  -31.4501   26.1927 C   0  0  0  0  0  0
  -27.0843  -30.3405   24.7555 C   0  0  0  0  0  0
  -27.5964  -32.5217   25.7938 C   0  0  0  0  0  0
  -27.5589  -37.1823   24.8441 C   0  0  0  0  0  0
  -21.4444  -29.3104   22.3743 N   0  0  0  0  0  0
  -26.4215  -37.3824   23.9604 N   0  0  0  0  0  0
  -24.7955  -30.9298   22.1115 N   0  0  0  0  0  0
  -23.4274  -28.7880   23.3205 O   0  0  0  0  0  0
  -27.9346  -25.4824   19.7724 O   0  0  0  0  0  0
  -26.5626  -34.8894   22.4674 O   0  0  0  0  0  0
  -23.5915  -32.1050   23.6723 O   0  0  0  0  0  0
  -28.7160  -13.8202   18.4415 C   0  0  0  0  0  0
  -27.7760  -15.0528   16.7864 C   0  0  0  0  0  0
  -28.5455  -13.9326   17.0800 C   0  0  0  0  0  0
  -28.3184  -15.8019   19.7248 C   0  0  0  0  0  0
  -27.3561  -16.3990   17.5116 C   0  0  0  0  0  0
  -27.6637  -16.9970   18.8417 C   0  0  0  0  0  0
  -25.8800  -22.1077   18.8070 C   0  0  0  0  0  0
  -25.8501  -20.6620   18.5056 C   0  0  0  0  0  0
  -27.3736  -22.2090   18.8868 C   0  0  1  0  0  0
  -29.0479  -16.3934   21.2784 C   0  0  0  0  0  0
  -26.5973  -17.0938   16.3552 C   0  0  0  0  0  0
  -29.9392  -13.3836   16.4437 C   0  0  0  0  0  0
  -27.8378  -18.9030   18.6927 C   0  0  0  0  0  0
  -27.7320  -23.7800   19.8920 C   0  0  0  0  0  0
  -31.3244  -13.6667   17.1804 N   0  0  0  0  0  0
  -27.1608  -20.4196   19.2158 N   0  3  2  0  0  0
  -31.2332  -12.4318   20.4686 H   0  0  0  0  0  0
  -31.0474  -13.7778   21.3616 H   0  0  0  0  0  0
  -29.0024  -12.4967   21.8469 H   0  0  0  0  0  0
  -28.7616  -11.6273   20.2373 H   0  0  0  0  0  0
  -27.9218  -14.1753   21.5958 H   0  0  0  0  0  0
  -27.0910  -12.7673   21.3840 H   0  0  0  0  0  0
  -27.0471  -13.0483   19.3018 H   0  0  0  0  0  0
  -30.1585  -16.7408   18.6284 H   0  0  0  0  0  0
  -30.1225  -15.6433   17.2055 H   0  0  0  0  0  0
  -25.2940   -9.9920   22.1582 H   0  0  0  0  0  0
  -24.2330   -7.7084   22.5993 H   0  0  0  0  0  0
  -21.0690   -8.7844   19.8464 H   0  0  0  0  0  0
  -22.1002  -10.9779   19.5841 H   0  0  0  0  0  0
  -21.2308   -7.6572   24.0002 H   0  0  0  0  0  0
  -21.0661   -6.0442   25.9087 H   0  0  0  0  0  0
  -22.0518   -2.8180   23.1993 H   0  0  0  0  0  0
  -22.6501  -11.9065   22.5429 H   0  0  0  0  0  0
  -21.1618  -12.7590   22.4494 H   0  0  0  0  0  0
  -23.9798  -15.9559   20.3598 H   0  0  0  0  0  0
  -25.0241  -15.8239   19.0920 H   0  0  0  0  0  0
  -26.7628  -32.4909   23.1096 H   0  0  0  0  0  0
  -25.0383  -33.9687   25.0447 H   0  0  0  0  0  0
  -22.8380  -31.2517   21.3893 H   0  0  0  0  0  0
  -23.3904  -35.9193   23.3142 H   0  0  0  0  0  0
  -24.3455  -36.8993   22.2129 H   0  0  0  0  0  0
  -23.6715  -37.6081   23.6841 H   0  0  0  0  0  0
  -26.4119  -31.2662   20.7448 H   0  0  0  0  0  0
  -26.9297  -30.3987   22.1746 H   0  0  0  0  0  0
  -28.1627  -28.3365   20.9602 H   0  0  0  0  0  0
  -25.5583  -25.7559   18.7712 H   0  0  0  0  0  0
  -23.8394  -27.4479   18.8268 H   0  0  0  0  0  0
  -24.0427  -30.6077   19.4454 H   0  0  0  0  0  0
  -22.8241  -29.3824   19.7259 H   0  0  0  0  0  0
  -25.1262  -36.1955   25.0758 H   0  0  0  0  0  0
  -20.9871  -28.3343   24.1407 H   0  0  0  0  0  0
  -20.5855  -26.2350   23.3722 H   0  0  0  0  0  0
  -21.6655  -26.7496   22.1279 H   0  0  0  0  0  0
  -19.6933  -25.6191   21.1529 H   0  0  0  0  0  0
  -19.6893  -27.3024   20.6821 H   0  0  0  0  0  0
  -17.4261  -26.6841   21.3907 H   0  0  0  0  0  0
  -18.0175  -26.0212   22.9043 H   0  0  0  0  0  0
  -19.7824  -30.7496   24.2094 H   0  0  0  0  0  0
  -17.4887  -31.6304   24.5197 H   0  0  0  0  0  0
  -15.5264  -30.2915   23.7872 H   0  0  0  0  0  0
  -15.8676  -28.0945   22.6909 H   0  0  0  0  0  0
  -24.5723  -30.7934   25.8391 H   0  0  0  0  0  0
  -24.9118  -32.3811   26.5167 H   0  0  0  0  0  0
  -25.7935  -30.9859   27.0811 H   0  0  0  0  0  0
  -26.3599  -29.6493   24.3074 H   0  0  0  0  0  0
  -27.4539  -29.8639   25.6630 H   0  0  0  0  0  0
  -27.9405  -30.4621   24.0968 H   0  0  0  0  0  0
  -27.2303  -33.4628   26.1890 H   0  0  0  0  0  0
  -28.3889  -32.7608   25.0950 H   0  0  0  0  0  0
  -28.0389  -31.9936   26.6249 H   0  0  0  0  0  0
  -28.2417  -38.0235   24.7853 H   0  0  0  0  0  0
  -28.1237  -36.2940   24.5806 H   0  0  0  0  0  0
  -27.2460  -37.0840   25.8759 H   0  0  0  0  0  0
  -20.9827  -29.8934   21.6909 H   0  0  0  0  0  0
  -26.0155  -38.2855   24.1631 H   0  0  0  0  0  0
  -29.2264  -12.8155   18.5634 H   0  0  0  0  0  0
  -27.5870  -15.1955   15.7484 H   0  0  0  0  0  0
  -25.4514  -22.2908   19.8064 H   0  0  0  0  0  0
  -25.4283  -22.7885   18.0787 H   0  0  0  0  0  0
  -25.8414  -20.4817   17.4199 H   0  0  0  0  0  0
  -24.9851  -20.2686   19.0530 H   0  0  0  0  0  0
  -27.6390  -22.4288   17.8418 H   0  0  0  0  0  0
  -28.2217  -16.9163   21.8247 H   0  0  0  0  0  0
  -29.6916  -17.2339   20.9110 H   0  0  0  0  0  0
  -29.7449  -15.9882   22.2423 H   0  0  0  0  0  0
  -25.6985  -17.7290   16.5385 H   0  0  0  0  0  0
  -26.1812  -16.3907   15.6467 H   0  0  0  0  0  0
  -27.3509  -17.5135   15.6870 H   0  0  0  0  0  0
  -29.8081  -12.3005   16.2861 H   0  0  0  0  0  0
  -29.8720  -13.7026   15.3800 H   0  0  0  0  0  0
  -27.5355  -18.8725   17.6330 H   0  0  0  0  0  0
  -28.9350  -19.1084   18.6375 H   0  0  0  0  0  0
  -28.6706  -23.5403   20.4000 H   0  0  0  0  0  0
  -26.9772  -23.7699   20.7059 H   0  0  0  0  0  0
  -32.0426  -13.7092   16.3593 H   0  0  0  0  0  0
  -27.0537  -20.3519   20.1906 H   0  0  0  0  0  0
  1 25  1  0  0  0
  1 30  2  0  0  0
  1 85  1  0  0  0
  2  3  1  0  0  0
  2 25  1  0  0  0
  2 87  1  0  0  0
  2 88  1  0  0  0
  3  4  1  0  0  0
  3 89  1  0  0  0
  3 90  1  0  0  0
  4  5  1  0  0  0
  4 91  1  0  0  0
  4 92  1  0  0  0
  5  6  1  0  0  0
  5 26  1  0  0  0
  5 93  1  0  0  0
  6 25  1  0  0  0
  6 94  1  0  0  0
  6 95  1  0  0  0
  7  8  2  0  0  0
  7 26  1  0  0  0
  7 29  1  0  0  0
  8  9  1  0  0  0
  8 22  1  0  0  0
  9 10  1  0  0  0
  9 27  2  0  0  0
 10 11  2  0  0  0
 10 15  1  0  0  0
 11 12  1  0  0  0
 11 96  1  0  0  0
 12 13  2  0  0  0
 12 97  1  0  0  0
 13 14  1  0  0  0
 13 31  1  0  0  0
 14 15  2  0  0  0
 14 98  1  0  0  0
 15 99  1  0  0  0
 16 17  2  0  0  0
 16 21  1  0  0  0
 16 31  1  0  0  0
 17 18  1  0  0  0
 17100  1  0  0  0
 18 19  2  0  0  0
 18101  1  0  0  0
 19 20  1  0  0  0
 19 24  1  0  0  0
 20 21  2  0  0  0
 20102  1  0  0  0
 21 23  1  0  0  0
 22 28  1  0  0  0
 22 32  2  0  0  0
 26 27  1  0  0  0
 28103  1  0  0  0
 28104  1  0  0  0
 29105  1  0  0  0
 29106  1  0  0  0
 33 34  1  0  0  0
 33 66  1  0  0  0
 33 70  2  0  0  0
 34 36  1  0  0  0
 34 59  1  0  0  0
 34107  1  0  0  0
 35 44  2  0  0  0
 35 45  1  0  0  0
 35 68  1  0  0  0
 36 56  1  0  0  0
 36108  1  0  0  0
 37 39  1  0  0  0
 37 47  1  0  0  0
 37 66  1  0  0  0
 37109  1  0  0  0
 38 43  2  0  0  0
 38 46  1  0  0  0
 38 47  1  0  0  0
 39 64  1  0  0  0
 39 67  2  0  0  0
 40 52  1  0  0  0
 40 53  2  0  0  0
 40 58  1  0  0  0
 41110  1  0  0  0
 41111  1  0  0  0
 41112  1  0  0  0
 41 48  1  0  0  0
 42 43  1  0  0  0
 42 66  1  0  0  0
 42113  1  0  0  0
 42114  1  0  0  0
 43 44  1  0  0  0
 44115  1  0  0  0
 45 46  2  0  0  0
 45116  1  0  0  0
 46117  1  0  0  0
 47118  1  0  0  0
 47119  1  0  0  0
 48 56  1  0  0  0
 48 65  1  0  0  0
 48120  1  0  0  0
 49 50  1  0  0  0
 49 53  1  0  0  0
 49 64  1  0  0  0
 49121  1  0  0  0
 50 51  1  0  0  0
 50122  1  0  0  0
 50123  1  0  0  0
 51 52  1  0  0  0
 51124  1  0  0  0
 51125  1  0  0  0
 52126  1  0  0  0
 52127  1  0  0  0
 53 54  1  0  0  0
 54 55  2  0  0  0
 54128  1  0  0  0
 55 57  1  0  0  0
 55129  1  0  0  0
 56 69  2  0  0  0
 57 58  2  0  0  0
 57130  1  0  0  0
 58131  1  0  0  0
 59 60  1  0  0  0
 59 61  1  0  0  0
 59 62  1  0  0  0
 60132  1  0  0  0
 60133  1  0  0  0
 60134  1  0  0  0
 61135  1  0  0  0
 61136  1  0  0  0
 61137  1  0  0  0
 62138  1  0  0  0
 62139  1  0  0  0
 62140  1  0  0  0
 63 65  1  0  0  0
 63141  1  0  0  0
 63142  1  0  0  0
 63143  1  0  0  0
 64144  1  0  0  0
 65145  1  0  0  0
 68 84  1  0  0  0
 71 73  2  0  0  0
 71 74  1  0  0  0
 71146  1  0  0  0
 72 73  1  0  0  0
 72 75  2  0  0  0
 72147  1  0  0  0
 73 82  1  0  0  0
 74 76  2  0  0  0
 74 80  1  0  0  0
 75 76  1  0  0  0
 75 81  1  0  0  0
 76 83  1  0  0  0
 77 78  1  0  0  0
 77 79  1  0  0  0
 77148  1  0  0  0
 77149  1  0  0  0
 78 86  1  0  0  0
 78150  1  0  0  0
 78151  1  0  0  0
 79 84  1  0  0  0
 79 86  1  0  0  0
 79152  1  0  0  0
 80153  1  0  0  0
 80154  1  0  0  0
 80155  1  0  0  0
 81156  1  0  0  0
 81157  1  0  0  0
 81158  1  0  0  0
 82 85  1  0  0  0
 82159  1  0  0  0
 82160  1  0  0  0
 83161  1  0  0  0
 83162  1  0  0  0
 83 86  1  0  0  0
 84163  1  0  0  0
 84164  1  0  0  0
 85165  1  0  0  0
 86166  1  0  0  0
M  CHG  1  86   1
M  ISO  4   1 100  68 101  84 101  85 100
M  END
> <chiral flag>
0

> <version>
0

> <s_m_source_file>
/data/baiqing/PycharmProjects/Reinvent-master-3.2/result/LINK_invent/BTK/process_docking_weight1_custom_sum_contain_oxygen_bond_distance_aromatic_linkinvent_7_9_3/rearranged_h_0155.sdf

> <i_m_source_file_index>
31

> <r_mmod_Potential_Energy-OPLS-2005>
17220.28125

> <r_mmod_Stretch_Energy-OPLS-2005>
8320.421875

> <r_mmod_Bend_Energy-OPLS-2005>
1867.98889160156

> <r_mmod_Torsional_Energy-OPLS-2005>
514.741638183594

> <r_mmod_Improper_Torsional_Energy-OPLS-2005>
51.8385772705078

> <r_mmod_Van_der_Waal_Energy-OPLS-2005>
2379.77197265625

> <r_mmod_Electrostatic_Energy-OPLS-2005>
-324.800537109375

> <r_mmod_Solvation_Energy-OPLS-2005>
-479.650939941406

> <b_mmod_Minimization_Converged-OPLS-2005>
0

> <r_mmod_RMS_Derivative-OPLS-2005>
99.9990005493164

$$$$
31
                    3D
 Structure written by MMmdl.
177187  0  0  1  0            999 V2000
  -30.7346  -14.4370   20.5216 C   0  0  0  0  0  0
  -30.4064  -12.2732   19.4181 C   0  0  0  0  0  0
  -29.4822  -12.4765   18.2020 C   0  0  0  0  0  0
  -28.0046  -12.3489   18.6216 C   0  0  0  0  0  0
  -27.6523  -13.1988   19.8730 C   0  0  2  0  0  0
  -28.7033  -13.0203   20.9929 C   0  0  0  0  0  0
  -25.2567  -13.8135   20.5716 C   0  0  0  0  0  0
  -24.1808  -13.0421   20.9193 C   0  0  0  0  0  0
  -24.6354  -11.6889   20.8763 C   0  0  0  0  0  0
  -23.9024  -10.4279   21.0418 C   0  0  0  0  0  0
  -24.3585   -9.4200   21.9194 C   0  0  0  0  0  0
  -23.6273   -8.2231   22.0756 C   0  0  0  0  0  0
  -22.4259   -8.0267   21.3541 C   0  0  0  0  0  0
  -21.9886   -9.0238   20.4643 C   0  0  0  0  0  0
  -22.7202  -10.2124   20.3061 C   0  0  0  0  0  0
  -21.6847   -6.0724   22.5277 C   0  0  0  0  0  0
  -21.4009   -6.5630   23.8209 C   0  0  0  0  0  0
  -21.3658   -5.6787   24.9172 C   0  0  0  0  0  0
  -21.6048   -4.3052   24.7226 C   0  0  0  0  0  0
  -21.8819   -3.8138   23.4349 C   0  0  0  0  0  0
  -21.9189   -4.6951   22.3402 C   0  0  0  0  0  0
  -22.7836  -13.5235   21.1847 C   0  0  0  0  0  0
  -22.1661   -4.2136   21.0982 F   0  0  0  0  0  0
  -21.5632   -3.4540   25.7741 F   0  0  0  0  0  0
  -30.0307  -13.2811   20.4171 N   0  0  0  0  0  0
  -26.2983  -12.9273   20.3422 N   0  0  0  0  0  0
  -25.9279  -11.6446   20.5822 N   0  0  0  0  0  0
  -22.0466  -12.8234   22.0399 N   0  0  0  0  0  0
  -25.4318  -15.1849   20.4131 N   0  0  0  0  0  0
  -31.9106  -14.5450   20.1589 O   0  0  0  0  0  0
  -21.6630   -6.8860   21.4235 O   0  0  0  0  0  0
  -22.3532  -14.5544   20.6693 O   0  0  0  0  0  0
  -24.6095  -31.8698   23.2115 C   0  0  0  0  0  0
  -25.9005  -32.4832   23.8399 C   0  0  1  0  0  0
  -27.2368  -27.4767   20.0935 C   0  0  0  0  0  0
  -25.5873  -33.8627   24.2340 N   0  0  0  0  0  0
  -23.3958  -30.4924   21.5502 C   0  0  2  0  0  0
  -24.8461  -28.9640   20.1093 C   0  0  0  0  0  0
  -22.7384  -29.4664   22.5000 C   0  0  0  0  0  0
  -18.0259  -28.1372   22.8487 C   0  0  0  0  0  0
  -24.1482  -36.7329   23.2635 C   0  0  0  0  0  0
  -25.9173  -30.8506   21.3559 C   0  0  0  0  0  0
  -25.9992  -29.4858   20.7099 C   0  0  0  0  0  0
  -27.1987  -28.7456   20.7086 C   0  0  0  0  0  0
  -26.0795  -26.9630   19.4789 C   0  0  0  0  0  0
  -24.8787  -27.6997   19.4913 C   0  0  0  0  0  0
  -23.6015  -29.8210   20.1643 C   0  0  0  0  0  0
  -25.4097  -36.3115   24.0337 C   0  0  1  0  0  0
  -20.5847  -28.3654   23.1329 C   0  0  2  0  0  0
  -20.6753  -26.9398   22.5415 C   0  0  0  0  0  0
  -19.5738  -26.6387   21.5203 C   0  0  0  0  0  0
  -18.1914  -26.7919   22.1614 C   0  0  0  0  0  0
  -19.1508  -28.8828   23.2908 C   0  0  0  0  0  0
  -18.9442  -30.1431   23.8925 C   0  0  0  0  0  0
  -17.6450  -30.6584   24.0561 C   0  0  0  0  0  0
  -25.9018  -34.9480   23.5139 C   0  0  0  0  0  0
  -16.5338  -29.9090   23.6320 C   0  0  0  0  0  0
  -16.7251  -28.6501   23.0346 C   0  0  0  0  0  0
  -26.4461  -31.6584   25.0701 C   0  0  0  0  0  0
  -25.3751  -31.3650   26.1463 C   0  0  0  0  0  0
  -27.0284  -30.3040   24.6006 C   0  0  0  0  0  0
  -27.6041  -32.4290   25.7474 C   0  0  0  0  0  0
  -27.5579  -37.1817   24.8463 C   0  0  0  0  0  0
  -21.4116  -29.3029   22.3745 N   0  0  0  0  0  0
  -26.4290  -37.3790   23.9405 N   0  0  0  0  0  0
  -24.6591  -31.0839   22.0992 N   0  0  0  0  0  0
  -23.4184  -28.8207   23.3023 O   0  0  0  0  0  0
  -28.3718  -26.7114   20.1162 O   0  0  0  0  0  0
  -26.5587  -34.8928   22.4703 O   0  0  0  0  0  0
  -23.5302  -32.1428   23.7543 O   0  0  0  0  0  0
  -28.4042  -20.4186   21.6925 C   0  0  0  0  0  0
  -29.2170  -19.9385   20.6430 C   0  0  0  0  0  0
  -29.5953  -20.8241   19.5915 C   0  0  0  0  0  0
  -29.1698  -22.1807   19.6267 C   0  0  0  0  0  0
  -28.0170  -21.7704   21.7459 C   0  0  0  0  0  0
  -28.4286  -22.6597   20.7330 C   0  0  0  0  0  0
  -30.5035  -20.3314   18.4543 C   0  0  0  0  0  0
  -29.4483  -23.1152   18.4485 C   0  0  0  0  0  0
  -30.6308  -21.2735   17.2476 C   0  0  0  0  0  0
  -29.7884  -17.7758   22.0099 C   0  0  0  0  0  0
  -28.8558  -17.5629   19.7553 C   0  0  0  0  0  0
  -30.5078  -16.4136   21.8657 C   0  0  0  0  0  0
  -29.6581  -16.2784   19.5180 C   0  0  0  0  0  0
  -29.6928  -18.4806   20.6474 C   0  0  0  0  0  0
  -30.7059  -22.7517   17.6478 C   0  0  2  0  0  0
  -27.1625  -22.2663   22.8987 C   0  0  0  0  0  0
  -28.6845  -26.2493   21.4313 C   0  0  0  0  0  0
  -29.1365  -24.7874   21.3821 C   0  0  0  0  0  0
  -30.0134  -15.5558   20.7619 N   0  0  0  0  0  0
  -31.9442  -23.0556   18.3933 N   0  3  0  0  0  0
  -28.0929  -23.9850   20.8308 O   0  0  0  0  0  0
  -31.4525  -12.3449   19.1155 H   0  0  0  0  0  0
  -30.2830  -11.2718   19.8328 H   0  0  0  0  0  0
  -29.7129  -11.7423   17.4288 H   0  0  0  0  0  0
  -29.6591  -13.4557   17.7549 H   0  0  0  0  0  0
  -27.8145  -11.2951   18.8285 H   0  0  0  0  0  0
  -27.3512  -12.6151   17.7900 H   0  0  0  0  0  0
  -27.6679  -14.2378   19.5597 H   0  0  0  0  0  0
  -28.6706  -12.0065   21.3941 H   0  0  0  0  0  0
  -28.4910  -13.6855   21.8319 H   0  0  0  0  0  0
  -25.2726   -9.5686   22.4774 H   0  0  0  0  0  0
  -23.9984   -7.4622   22.7479 H   0  0  0  0  0  0
  -21.0817   -8.8749   19.8950 H   0  0  0  0  0  0
  -22.3655  -10.9662   19.6174 H   0  0  0  0  0  0
  -21.1998   -7.6140   23.9704 H   0  0  0  0  0  0
  -21.1485   -6.0522   25.9074 H   0  0  0  0  0  0
  -22.0602   -2.7601   23.2854 H   0  0  0  0  0  0
  -22.4065  -11.9881   22.4777 H   0  0  0  0  0  0
  -21.1093  -13.1273   22.2613 H   0  0  0  0  0  0
  -24.6741  -15.8481   20.5310 H   0  0  0  0  0  0
  -26.3017  -15.6203   20.1332 H   0  0  0  0  0  0
  -26.7080  -32.5580   23.1178 H   0  0  0  0  0  0
  -25.0023  -33.9776   25.0485 H   0  0  0  0  0  0
  -22.6829  -31.3084   21.4129 H   0  0  0  0  0  0
  -23.3728  -35.9682   23.3301 H   0  0  0  0  0  0
  -24.3582  -36.8932   22.2050 H   0  0  0  0  0  0
  -23.7260  -37.6545   23.6648 H   0  0  0  0  0  0
  -26.0118  -31.6139   20.5823 H   0  0  0  0  0  0
  -26.8113  -30.9166   21.9629 H   0  0  0  0  0  0
  -28.0878  -29.1406   21.1807 H   0  0  0  0  0  0
  -26.1061  -25.9891   19.0105 H   0  0  0  0  0  0
  -23.9921  -27.2931   19.0244 H   0  0  0  0  0  0
  -23.6988  -30.5950   19.4025 H   0  0  0  0  0  0
  -22.7288  -29.2310   19.8758 H   0  0  0  0  0  0
  -25.1275  -36.1984   25.0832 H   0  0  0  0  0  0
  -20.9926  -28.3225   24.1453 H   0  0  0  0  0  0
  -20.5647  -26.2265   23.3595 H   0  0  0  0  0  0
  -21.6631  -26.7454   22.1216 H   0  0  0  0  0  0
  -19.6906  -25.6303   21.1221 H   0  0  0  0  0  0
  -19.6680  -27.3208   20.6745 H   0  0  0  0  0  0
  -17.4181  -26.6651   21.4019 H   0  0  0  0  0  0
  -18.0326  -26.0061   22.9012 H   0  0  0  0  0  0
  -19.7925  -30.7220   24.2323 H   0  0  0  0  0  0
  -17.5017  -31.6269   24.5157 H   0  0  0  0  0  0
  -15.5343  -30.3006   23.7631 H   0  0  0  0  0  0
  -15.8643  -28.0831   22.7056 H   0  0  0  0  0  0
  -24.5942  -30.6972   25.7809 H   0  0  0  0  0  0
  -24.8923  -32.2784   26.4948 H   0  0  0  0  0  0
  -25.8140  -30.8815   27.0200 H   0  0  0  0  0  0
  -26.2800  -29.6806   24.1097 H   0  0  0  0  0  0
  -27.4123  -29.7261   25.4425 H   0  0  0  0  0  0
  -27.8606  -30.4375   23.9087 H   0  0  0  0  0  0
  -27.2660  -33.3575   26.2088 H   0  0  0  0  0  0
  -28.3851  -32.6858   25.0306 H   0  0  0  0  0  0
  -28.0706  -31.8383   26.5363 H   0  0  0  0  0  0
  -28.2595  -38.0114   24.7510 H   0  0  0  0  0  0
  -28.1072  -36.2645   24.6291 H   0  0  0  0  0  0
  -27.2295  -37.1472   25.8865 H   0  0  0  0  0  0
  -20.9268  -29.8769   21.6987 H   0  0  0  0  0  0
  -26.0180  -38.2872   24.1398 H   0  0  0  0  0  0
  -28.0865  -19.7561   22.4841 H   0  0  0  0  0  0
  -30.1784  -19.3623   18.0822 H   0  0  0  0  0  0
  -31.4971  -20.1713   18.8753 H   0  0  0  0  0  0
  -29.4907  -24.1596   18.7475 H   0  0  0  0  0  0
  -28.5815  -23.0480   17.7900 H   0  0  0  0  0  0
  -29.7493  -21.1438   16.6178 H   0  0  0  0  0  0
  -31.4798  -20.9843   16.6268 H   0  0  0  0  0  0
  -30.3388  -18.3973   22.7173 H   0  0  0  0  0  0
  -28.7967  -17.6210   22.4369 H   0  0  0  0  0  0
  -27.8886  -17.3487   20.2125 H   0  0  0  0  0  0
  -28.6325  -18.0287   18.7967 H   0  0  0  0  0  0
  -30.4294  -15.8645   22.8055 H   0  0  0  0  0  0
  -31.5725  -16.6098   21.7196 H   0  0  0  0  0  0
  -30.5733  -16.5389   18.9809 H   0  0  0  0  0  0
  -29.1085  -15.6356   18.8322 H   0  0  0  0  0  0
  -30.7149  -18.5054   20.2689 H   0  0  0  0  0  0
  -30.7254  -23.3599   16.7416 H   0  0  0  0  0  0
  -26.7237  -21.4382   23.4564 H   0  0  0  0  0  0
  -26.3462  -22.8889   22.5301 H   0  0  0  0  0  0
  -27.7617  -22.8611   23.5878 H   0  0  0  0  0  0
  -29.4769  -26.8720   21.8477 H   0  0  0  0  0  0
  -27.8341  -26.3244   22.1134 H   0  0  0  0  0  0
  -29.3670  -24.4454   22.3923 H   0  0  0  0  0  0
  -30.0589  -24.7034   20.8085 H   0  0  0  0  0  0
  -31.9707  -22.5665   19.2701 H   0  0  0  0  0  0
  -32.0078  -24.0412   18.5775 H   0  0  0  0  0  0
  -32.7510  -22.7962   17.8532 H   0  0  0  0  0  0
  1 25  1  0  0  0
  1 30  2  0  0  0
  1 89  1  0  0  0
  2  3  1  0  0  0
  2 25  1  0  0  0
  2 92  1  0  0  0
  2 93  1  0  0  0
  3  4  1  0  0  0
  3 94  1  0  0  0
  3 95  1  0  0  0
  4  5  1  0  0  0
  4 96  1  0  0  0
  4 97  1  0  0  0
  5  6  1  0  0  0
  5 26  1  0  0  0
  5 98  1  0  0  0
  6 25  1  0  0  0
  6 99  1  0  0  0
  6100  1  0  0  0
  7  8  2  0  0  0
  7 26  1  0  0  0
  7 29  1  0  0  0
  8  9  1  0  0  0
  8 22  1  0  0  0
  9 10  1  0  0  0
  9 27  2  0  0  0
 10 11  2  0  0  0
 10 15  1  0  0  0
 11 12  1  0  0  0
 11101  1  0  0  0
 12 13  2  0  0  0
 12102  1  0  0  0
 13 14  1  0  0  0
 13 31  1  0  0  0
 14 15  2  0  0  0
 14103  1  0  0  0
 15104  1  0  0  0
 16 17  2  0  0  0
 16 21  1  0  0  0
 16 31  1  0  0  0
 17 18  1  0  0  0
 17105  1  0  0  0
 18 19  2  0  0  0
 18106  1  0  0  0
 19 20  1  0  0  0
 19 24  1  0  0  0
 20 21  2  0  0  0
 20107  1  0  0  0
 21 23  1  0  0  0
 22 28  1  0  0  0
 22 32  2  0  0  0
 26 27  1  0  0  0
 28108  1  0  0  0
 28109  1  0  0  0
 29110  1  0  0  0
 29111  1  0  0  0
 33 34  1  0  0  0
 33 66  1  0  0  0
 33 70  2  0  0  0
 34 36  1  0  0  0
 34 59  1  0  0  0
 34112  1  0  0  0
 35 44  2  0  0  0
 35 45  1  0  0  0
 35 68  1  0  0  0
 36 56  1  0  0  0
 36113  1  0  0  0
 37 39  1  0  0  0
 37 47  1  0  0  0
 37 66  1  0  0  0
 37114  1  0  0  0
 38 43  2  0  0  0
 38 46  1  0  0  0
 38 47  1  0  0  0
 39 64  1  0  0  0
 39 67  2  0  0  0
 40 52  1  0  0  0
 40 53  2  0  0  0
 40 58  1  0  0  0
 41115  1  0  0  0
 41116  1  0  0  0
 41117  1  0  0  0
 41 48  1  0  0  0
 42 43  1  0  0  0
 42 66  1  0  0  0
 42118  1  0  0  0
 42119  1  0  0  0
 43 44  1  0  0  0
 44120  1  0  0  0
 45 46  2  0  0  0
 45121  1  0  0  0
 46122  1  0  0  0
 47123  1  0  0  0
 47124  1  0  0  0
 48 56  1  0  0  0
 48 65  1  0  0  0
 48125  1  0  0  0
 49 50  1  0  0  0
 49 53  1  0  0  0
 49 64  1  0  0  0
 49126  1  0  0  0
 50 51  1  0  0  0
 50127  1  0  0  0
 50128  1  0  0  0
 51 52  1  0  0  0
 51129  1  0  0  0
 51130  1  0  0  0
 52131  1  0  0  0
 52132  1  0  0  0
 53 54  1  0  0  0
 54 55  2  0  0  0
 54133  1  0  0  0
 55 57  1  0  0  0
 55134  1  0  0  0
 56 69  2  0  0  0
 57 58  2  0  0  0
 57135  1  0  0  0
 58136  1  0  0  0
 59 60  1  0  0  0
 59 61  1  0  0  0
 59 62  1  0  0  0
 60137  1  0  0  0
 60138  1  0  0  0
 60139  1  0  0  0
 61140  1  0  0  0
 61141  1  0  0  0
 61142  1  0  0  0
 62143  1  0  0  0
 62144  1  0  0  0
 62145  1  0  0  0
 63 65  1  0  0  0
 63146  1  0  0  0
 63147  1  0  0  0
 63148  1  0  0  0
 64149  1  0  0  0
 65150  1  0  0  0
 68 87  1  0  0  0
 71 72  2  0  0  0
 71 75  1  0  0  0
 71151  1  0  0  0
 72 73  1  0  0  0
 72 84  1  0  0  0
 73 74  2  0  0  0
 73 77  1  0  0  0
 74 76  1  0  0  0
 74 78  1  0  0  0
 75 76  2  0  0  0
 75 86  1  0  0  0
 76 91  1  0  0  0
 77 79  1  0  0  0
 77152  1  0  0  0
 77153  1  0  0  0
 78 85  1  0  0  0
 78154  1  0  0  0
 78155  1  0  0  0
 79 85  1  0  0  0
 79156  1  0  0  0
 79157  1  0  0  0
 80 82  1  0  0  0
 80 84  1  0  0  0
 80158  1  0  0  0
 80159  1  0  0  0
 81 83  1  0  0  0
 81 84  1  0  0  0
 81160  1  0  0  0
 81161  1  0  0  0
 82 89  1  0  0  0
 82162  1  0  0  0
 82163  1  0  0  0
 83 89  1  0  0  0
 83164  1  0  0  0
 83165  1  0  0  0
 84166  1  0  0  0
 85 90  1  0  0  0
 85167  1  0  0  0
 86168  1  0  0  0
 86169  1  0  0  0
 86170  1  0  0  0
 87 88  1  0  0  0
 87171  1  0  0  0
 87172  1  0  0  0
 88 91  1  0  0  0
 88173  1  0  0  0
 88174  1  0  0  0
 90175  1  0  0  0
 90176  1  0  0  0
 90177  1  0  0  0
M  CHG  1  90   1
M  ISO  4   1 100  68 101  87 101  89 100
M  END
> <chiral flag>
0

> <version>
0

> <s_m_source_file>
/data/baiqing/PycharmProjects/Reinvent-master-3.2/result/LINK_invent/BTK/process_docking_weight1_custom_sum_contain_oxygen_bond_distance_aromatic_linkinvent_7_9_3/rearranged_h_0155.sdf

> <i_m_source_file_index>
32

> <r_mmod_Potential_Energy-OPLS-2005>
-30.9379787445068

> <r_mmod_Stretch_Energy-OPLS-2005>
38.6130752563477

> <r_mmod_Bend_Energy-OPLS-2005>
111.200752258301

> <r_mmod_Torsional_Energy-OPLS-2005>
409.917602539062

> <r_mmod_Improper_Torsional_Energy-OPLS-2005>
11.1069612503052

> <r_mmod_Van_der_Waal_Energy-OPLS-2005>
163.782623291016

> <r_mmod_Electrostatic_Energy-OPLS-2005>
-315.313140869141

> <r_mmod_Solvation_Energy-OPLS-2005>
-465.923889160156

> <b_mmod_Minimization_Converged-OPLS-2005>
0

> <r_mmod_RMS_Derivative-OPLS-2005>
1.00129115581512

$$$$
32
                    3D
 Structure written by MMmdl.
173182  0  0  1  0            999 V2000
  -30.6843  -14.5994   20.5129 C   0  0  0  0  0  0
  -30.4073  -12.3754   19.4511 C   0  0  0  0  0  0
  -29.4935  -12.5065   18.2165 C   0  0  0  0  0  0
  -28.0146  -12.3538   18.6216 C   0  0  0  0  0  0
  -27.6405  -13.2266   19.8506 C   0  0  2  0  0  0
  -28.6806  -13.0955   20.9802 C   0  0  0  0  0  0
  -25.2501  -13.8215   20.5671 C   0  0  0  0  0  0
  -24.1796  -13.0446   20.9199 C   0  0  0  0  0  0
  -24.6396  -11.6922   20.8736 C   0  0  0  0  0  0
  -23.9093  -10.4284   21.0410 C   0  0  0  0  0  0
  -24.3641   -9.4198   21.9184 C   0  0  0  0  0  0
  -23.6314   -8.2235   22.0741 C   0  0  0  0  0  0
  -22.4300   -8.0280   21.3530 C   0  0  0  0  0  0
  -21.9935   -9.0264   20.4632 C   0  0  0  0  0  0
  -22.7267  -10.2136   20.3055 C   0  0  0  0  0  0
  -21.6860   -6.0748   22.5285 C   0  0  0  0  0  0
  -21.4015   -6.5642   23.8219 C   0  0  0  0  0  0
  -21.3667   -5.6786   24.9170 C   0  0  0  0  0  0
  -21.6040   -4.3054   24.7229 C   0  0  0  0  0  0
  -21.8822   -3.8158   23.4347 C   0  0  0  0  0  0
  -21.9194   -4.6975   22.3403 C   0  0  0  0  0  0
  -22.7814  -13.5213   21.1885 C   0  0  0  0  0  0
  -22.1648   -4.2156   21.0978 F   0  0  0  0  0  0
  -21.5644   -3.4545   25.7745 F   0  0  0  0  0  0
  -29.9928  -13.4205   20.4109 N   0  0  0  0  0  0
  -26.2920  -12.9399   20.3265 N   0  0  0  0  0  0
  -25.9310  -11.6543   20.5748 N   0  0  0  0  0  0
  -22.0485  -12.8171   22.0438 N   0  0  0  0  0  0
  -25.4228  -15.1929   20.4087 N   0  0  0  0  0  0
  -31.8659  -14.6486   20.1571 O   0  0  0  0  0  0
  -21.6642   -6.8889   21.4248 O   0  0  0  0  0  0
  -22.3469  -14.5514   20.6748 O   0  0  0  0  0  0
  -24.6191  -31.8653   23.2070 C   0  0  0  0  0  0
  -25.9074  -32.4818   23.8381 C   0  0  1  0  0  0
  -27.2378  -27.3835   20.1350 C   0  0  0  0  0  0
  -25.5910  -33.8616   24.2321 N   0  0  0  0  0  0
  -23.4096  -30.4845   21.5498 C   0  0  2  0  0  0
  -24.8593  -28.9418   20.1187 C   0  0  0  0  0  0
  -22.7442  -29.4632   22.4996 C   0  0  0  0  0  0
  -18.0266  -28.1353   22.8508 C   0  0  0  0  0  0
  -24.1467  -36.7305   23.2637 C   0  0  0  0  0  0
  -25.9407  -30.8205   21.3627 C   0  0  0  0  0  0
  -26.0212  -29.4487   20.7146 C   0  0  0  0  0  0
  -27.2157  -28.6836   20.7066 C   0  0  0  0  0  0
  -26.0556  -26.8983   19.5379 C   0  0  0  0  0  0
  -24.8745  -27.6701   19.5197 C   0  0  0  0  0  0
  -23.6203  -29.8127   20.1662 C   0  0  0  0  0  0
  -25.4088  -36.3099   24.0341 C   0  0  1  0  0  0
  -20.5866  -28.3638   23.1320 C   0  0  2  0  0  0
  -20.6755  -26.9369   22.5421 C   0  0  0  0  0  0
  -19.5725  -26.6368   21.5220 C   0  0  0  0  0  0
  -18.1902  -26.7905   22.1630 C   0  0  0  0  0  0
  -19.1521  -28.8823   23.2909 C   0  0  0  0  0  0
  -18.9444  -30.1433   23.8911 C   0  0  0  0  0  0
  -17.6445  -30.6580   24.0547 C   0  0  0  0  0  0
  -25.9035  -34.9464   23.5127 C   0  0  0  0  0  0
  -16.5336  -29.9069   23.6311 C   0  0  0  0  0  0
  -16.7262  -28.6473   23.0367 C   0  0  0  0  0  0
  -26.4491  -31.6591   25.0712 C   0  0  0  0  0  0
  -25.3749  -31.3694   26.1459 C   0  0  0  0  0  0
  -27.0332  -30.3021   24.6107 C   0  0  0  0  0  0
  -27.6066  -32.4327   25.7460 C   0  0  0  0  0  0
  -27.5565  -37.1793   24.8464 C   0  0  0  0  0  0
  -21.4167  -29.3013   22.3750 N   0  0  0  0  0  0
  -26.4255  -37.3797   23.9437 N   0  0  0  0  0  0
  -24.6749  -31.0713   22.0995 N   0  0  0  0  0  0
  -23.4196  -28.8178   23.3050 O   0  0  0  0  0  0
  -28.3937  -26.6129   20.1123 O   0  0  0  0  0  0
  -26.5608  -34.8931   22.4690 O   0  0  0  0  0  0
  -23.5379  -32.1414   23.7450 O   0  0  0  0  0  0
  -28.5983  -22.8098   20.9885 C   0  0  0  0  0  0
  -28.4716  -22.5216   18.2493 C   0  0  0  0  0  0
  -28.5448  -23.9949   20.1840 C   0  0  0  0  0  0
  -28.5520  -21.4617   20.4721 C   0  0  0  0  0  0
  -28.5910  -23.8240   18.7779 C   0  0  0  0  0  0
  -28.3509  -21.3788   19.0732 C   0  0  0  0  0  0
  -29.5141  -18.2016   19.7477 C   0  0  0  0  0  0
  -28.7336  -17.5898   21.9493 C   0  0  0  0  0  0
  -30.4059  -16.9120   19.7426 C   0  0  0  0  0  0
  -29.6342  -16.3147   21.9594 C   0  0  0  0  0  0
  -29.3178  -18.8065   21.1571 C   0  0  0  0  0  0
  -28.7507  -24.9795   17.7993 C   0  0  0  0  0  0
  -27.4927  -21.0512   23.6489 C   0  0  0  0  0  0
  -26.6111  -20.2407   18.0297 C   0  0  0  0  0  0
  -28.4034  -25.3809   20.8937 C   0  0  0  0  0  0
  -28.7502  -20.5808   22.9006 C   0  0  0  0  0  0
  -28.4945  -20.1784   21.4144 C   0  0  1  0  0  0
  -29.9753  -15.7833   20.6223 N   0  0  0  0  0  0
  -27.9576  -20.2082   18.4914 O   0  0  0  0  0  0
  -31.4533  -12.4600   19.1540 H   0  0  0  0  0  0
  -30.3087  -11.3851   19.8972 H   0  0  0  0  0  0
  -29.7547  -11.7595   17.4656 H   0  0  0  0  0  0
  -29.6493  -13.4796   17.7456 H   0  0  0  0  0  0
  -27.8375  -11.3018   18.8467 H   0  0  0  0  0  0
  -27.3642  -12.5919   17.7783 H   0  0  0  0  0  0
  -27.6529  -14.2625   19.5084 H   0  0  0  0  0  0
  -28.6827  -12.0806   21.3812 H   0  0  0  0  0  0
  -28.4122  -13.7411   21.8121 H   0  0  0  0  0  0
  -25.2790   -9.5676   22.4757 H   0  0  0  0  0  0
  -24.0041   -7.4618   22.7454 H   0  0  0  0  0  0
  -21.0874   -8.8781   19.8928 H   0  0  0  0  0  0
  -22.3743  -10.9677   19.6161 H   0  0  0  0  0  0
  -21.1988   -7.6142   23.9734 H   0  0  0  0  0  0
  -21.1491   -6.0506   25.9073 H   0  0  0  0  0  0
  -22.0601   -2.7628   23.2849 H   0  0  0  0  0  0
  -22.4108  -11.9818   22.4785 H   0  0  0  0  0  0
  -21.1100  -13.1162   22.2677 H   0  0  0  0  0  0
  -24.6650  -15.8570   20.5250 H   0  0  0  0  0  0
  -26.2922  -15.6286   20.1254 H   0  0  0  0  0  0
  -26.7141  -32.5524   23.1138 H   0  0  0  0  0  0
  -25.0092  -33.9756   25.0496 H   0  0  0  0  0  0
  -22.6984  -31.3021   21.4108 H   0  0  0  0  0  0
  -23.3741  -35.9627   23.3295 H   0  0  0  0  0  0
  -24.3554  -36.8930   22.2050 H   0  0  0  0  0  0
  -23.7197  -37.6494   23.6669 H   0  0  0  0  0  0
  -26.0556  -31.5810   20.5898 H   0  0  0  0  0  0
  -26.8284  -30.8809   21.9804 H   0  0  0  0  0  0
  -28.1153  -29.0771   21.1562 H   0  0  0  0  0  0
  -26.0447  -25.9195   19.0827 H   0  0  0  0  0  0
  -23.9840  -27.2722   19.0535 H   0  0  0  0  0  0
  -23.7280  -30.5905   19.4082 H   0  0  0  0  0  0
  -22.7438  -29.2316   19.8711 H   0  0  0  0  0  0
  -25.1249  -36.1940   25.0829 H   0  0  0  0  0  0
  -20.9947  -28.3189   24.1438 H   0  0  0  0  0  0
  -20.5627  -26.2247   23.3609 H   0  0  0  0  0  0
  -21.6622  -26.7386   22.1216 H   0  0  0  0  0  0
  -19.6869  -25.6285   21.1223 H   0  0  0  0  0  0
  -19.6658  -27.3202   20.6768 H   0  0  0  0  0  0
  -17.4171  -26.6687   21.4019 H   0  0  0  0  0  0
  -18.0277  -26.0019   22.8995 H   0  0  0  0  0  0
  -19.7915  -30.7249   24.2282 H   0  0  0  0  0  0
  -17.4985  -31.6250   24.5148 H   0  0  0  0  0  0
  -15.5332  -30.2968   23.7626 H   0  0  0  0  0  0
  -15.8660  -28.0782   22.7103 H   0  0  0  0  0  0
  -24.5963  -30.6988   25.7792 H   0  0  0  0  0  0
  -24.8901  -32.2849   26.4858 H   0  0  0  0  0  0
  -25.8092  -30.8901   27.0242 H   0  0  0  0  0  0
  -26.2877  -29.6771   24.1164 H   0  0  0  0  0  0
  -27.4098  -29.7255   25.4571 H   0  0  0  0  0  0
  -27.8717  -30.4344   23.9267 H   0  0  0  0  0  0
  -27.2694  -33.3644   26.2021 H   0  0  0  0  0  0
  -28.3865  -32.6864   25.0266 H   0  0  0  0  0  0
  -28.0763  -31.8472   26.5373 H   0  0  0  0  0  0
  -28.2565  -38.0112   24.7547 H   0  0  0  0  0  0
  -28.1074  -36.2637   24.6229 H   0  0  0  0  0  0
  -27.2299  -37.1378   25.8873 H   0  0  0  0  0  0
  -20.9337  -29.8750   21.6986 H   0  0  0  0  0  0
  -26.0137  -38.2857   24.1502 H   0  0  0  0  0  0
  -28.6155  -22.9839   22.0522 H   0  0  0  0  0  0
  -28.4154  -22.3977   17.1766 H   0  0  0  0  0  0
  -28.5448  -17.9564   19.3098 H   0  0  0  0  0  0
  -29.9862  -18.9373   19.0955 H   0  0  0  0  0  0
  -28.5315  -17.8411   22.9889 H   0  0  0  0  0  0
  -27.7547  -17.3314   21.5422 H   0  0  0  0  0  0
  -31.4191  -17.2050   20.0243 H   0  0  0  0  0  0
  -30.4793  -16.5513   18.7144 H   0  0  0  0  0  0
  -29.1386  -15.5568   22.5613 H   0  0  0  0  0  0
  -30.5621  -16.5387   22.4885 H   0  0  0  0  0  0
  -30.3285  -19.0004   21.5208 H   0  0  0  0  0  0
  -28.7443  -24.6266   16.7681 H   0  0  0  0  0  0
  -29.6989  -25.4930   17.9632 H   0  0  0  0  0  0
  -27.9481  -25.7065   17.8767 H   0  0  0  0  0  0
  -27.7443  -21.3875   24.6546 H   0  0  0  0  0  0
  -26.7727  -20.2399   23.7489 H   0  0  0  0  0  0
  -26.9905  -21.8714   23.1375 H   0  0  0  0  0  0
  -26.3302  -19.2673   17.6283 H   0  0  0  0  0  0
  -26.4576  -20.9828   17.2441 H   0  0  0  0  0  0
  -25.9276  -20.4663   18.8497 H   0  0  0  0  0  0
  -29.2369  -25.4667   21.5922 H   0  0  0  0  0  0
  -27.5104  -25.3351   21.5210 H   0  0  0  0  0  0
  -29.1557  -19.7546   23.4809 H   0  0  0  0  0  0
  -29.5575  -21.3099   22.9723 H   0  0  0  0  0  0
  -27.4475  -19.8790   21.3360 H   0  0  0  0  0  0
  1 25  1  0  0  0
  1 30  2  0  0  0
  1 88  1  0  0  0
  2  3  1  0  0  0
  2 25  1  0  0  0
  2 90  1  0  0  0
  2 91  1  0  0  0
  3  4  1  0  0  0
  3 92  1  0  0  0
  3 93  1  0  0  0
  4  5  1  0  0  0
  4 94  1  0  0  0
  4 95  1  0  0  0
  5  6  1  0  0  0
  5 26  1  0  0  0
  5 96  1  0  0  0
  6 25  1  0  0  0
  6 97  1  0  0  0
  6 98  1  0  0  0
  7  8  2  0  0  0
  7 26  1  0  0  0
  7 29  1  0  0  0
  8  9  1  0  0  0
  8 22  1  0  0  0
  9 10  1  0  0  0
  9 27  2  0  0  0
 10 11  2  0  0  0
 10 15  1  0  0  0
 11 12  1  0  0  0
 11 99  1  0  0  0
 12 13  2  0  0  0
 12100  1  0  0  0
 13 14  1  0  0  0
 13 31  1  0  0  0
 14 15  2  0  0  0
 14101  1  0  0  0
 15102  1  0  0  0
 16 17  2  0  0  0
 16 21  1  0  0  0
 16 31  1  0  0  0
 17 18  1  0  0  0
 17103  1  0  0  0
 18 19  2  0  0  0
 18104  1  0  0  0
 19 20  1  0  0  0
 19 24  1  0  0  0
 20 21  2  0  0  0
 20105  1  0  0  0
 21 23  1  0  0  0
 22 28  1  0  0  0
 22 32  2  0  0  0
 26 27  1  0  0  0
 28106  1  0  0  0
 28107  1  0  0  0
 29108  1  0  0  0
 29109  1  0  0  0
 33 34  1  0  0  0
 33 66  1  0  0  0
 33 70  2  0  0  0
 34 36  1  0  0  0
 34 59  1  0  0  0
 34110  1  0  0  0
 35 44  2  0  0  0
 35 45  1  0  0  0
 35 68  1  0  0  0
 36 56  1  0  0  0
 36111  1  0  0  0
 37 39  1  0  0  0
 37 47  1  0  0  0
 37 66  1  0  0  0
 37112  1  0  0  0
 38 43  2  0  0  0
 38 46  1  0  0  0
 38 47  1  0  0  0
 39 64  1  0  0  0
 39 67  2  0  0  0
 40 52  1  0  0  0
 40 53  2  0  0  0
 40 58  1  0  0  0
 41113  1  0  0  0
 41114  1  0  0  0
 41115  1  0  0  0
 41 48  1  0  0  0
 42 43  1  0  0  0
 42 66  1  0  0  0
 42116  1  0  0  0
 42117  1  0  0  0
 43 44  1  0  0  0
 44118  1  0  0  0
 45 46  2  0  0  0
 45119  1  0  0  0
 46120  1  0  0  0
 47121  1  0  0  0
 47122  1  0  0  0
 48 56  1  0  0  0
 48 65  1  0  0  0
 48123  1  0  0  0
 49 50  1  0  0  0
 49 53  1  0  0  0
 49 64  1  0  0  0
 49124  1  0  0  0
 50 51  1  0  0  0
 50125  1  0  0  0
 50126  1  0  0  0
 51 52  1  0  0  0
 51127  1  0  0  0
 51128  1  0  0  0
 52129  1  0  0  0
 52130  1  0  0  0
 53 54  1  0  0  0
 54 55  2  0  0  0
 54131  1  0  0  0
 55 57  1  0  0  0
 55132  1  0  0  0
 56 69  2  0  0  0
 57 58  2  0  0  0
 57133  1  0  0  0
 58134  1  0  0  0
 59 60  1  0  0  0
 59 61  1  0  0  0
 59 62  1  0  0  0
 60135  1  0  0  0
 60136  1  0  0  0
 60137  1  0  0  0
 61138  1  0  0  0
 61139  1  0  0  0
 61140  1  0  0  0
 62141  1  0  0  0
 62142  1  0  0  0
 62143  1  0  0  0
 63 65  1  0  0  0
 63144  1  0  0  0
 63145  1  0  0  0
 63146  1  0  0  0
 64147  1  0  0  0
 65148  1  0  0  0
 68 85  1  0  0  0
 71 73  2  0  0  0
 71 74  1  0  0  0
 71149  1  0  0  0
 72 75  2  0  0  0
 72 76  1  0  0  0
 72150  1  0  0  0
 73 75  1  0  0  0
 73 85  1  0  0  0
 74 76  2  0  0  0
 74 87  1  0  0  0
 75 82  1  0  0  0
 76 89  1  0  0  0
 77 79  1  0  0  0
 77151  1  0  0  0
 77152  1  0  0  0
 77 81  1  0  0  0
 78 80  1  0  0  0
 78 81  1  0  0  0
 78153  1  0  0  0
 78154  1  0  0  0
 79 88  1  0  0  0
 79155  1  0  0  0
 79156  1  0  0  0
 80 88  1  0  0  0
 80157  1  0  0  0
 80158  1  0  0  0
 81 87  1  0  0  0
 81159  1  0  0  0
 82160  1  0  0  0
 82161  1  0  0  0
 82162  1  0  0  0
 83 86  1  0  0  0
 83163  1  0  0  0
 83164  1  0  0  0
 83165  1  0  0  0
 84 89  1  0  0  0
 84166  1  0  0  0
 84167  1  0  0  0
 84168  1  0  0  0
 85169  1  0  0  0
 85170  1  0  0  0
 86171  1  0  0  0
 86172  1  0  0  0
 86 87  1  0  0  0
 87173  1  0  0  0
M  ISO  4   1 100  68 101  85 101  88 100
M  END
> <chiral flag>
0

> <version>
0

> <s_m_source_file>
/data/baiqing/PycharmProjects/Reinvent-master-3.2/result/LINK_invent/BTK/process_docking_weight1_custom_sum_contain_oxygen_bond_distance_aromatic_linkinvent_7_9_3/rearranged_h_0155.sdf

> <i_m_source_file_index>
33

> <r_mmod_Potential_Energy-OPLS-2005>
403.905609130859

> <r_mmod_Stretch_Energy-OPLS-2005>
81.8422622680664

> <r_mmod_Bend_Energy-OPLS-2005>
174.514755249023

> <r_mmod_Torsional_Energy-OPLS-2005>
397.480041503906

> <r_mmod_Improper_Torsional_Energy-OPLS-2005>
16.223258972168

> <r_mmod_Van_der_Waal_Energy-OPLS-2005>
163.674896240234

> <r_mmod_Electrostatic_Energy-OPLS-2005>
-281.065368652344

> <r_mmod_Solvation_Energy-OPLS-2005>
-180.920547485352

> <b_mmod_Minimization_Converged-OPLS-2005>
0

> <r_mmod_RMS_Derivative-OPLS-2005>
3.08985257148743

$$$$
33
                    3D
 Structure written by MMmdl.
164173  0  0  1  0            999 V2000
  -30.6632  -14.5846   20.4970 C   0  0  0  0  0  0
  -30.4267  -12.3573   19.4438 C   0  0  0  0  0  0
  -29.4995  -12.4941   18.2169 C   0  0  0  0  0  0
  -28.0235  -12.3392   18.6326 C   0  0  0  0  0  0
  -27.6513  -13.2129   19.8608 C   0  0  2  0  0  0
  -28.6975  -13.0754   20.9906 C   0  0  0  0  0  0
  -25.2560  -13.8167   20.5684 C   0  0  0  0  0  0
  -24.1824  -13.0439   20.9195 C   0  0  0  0  0  0
  -24.6387  -11.6906   20.8743 C   0  0  0  0  0  0
  -23.9061  -10.4287   21.0393 C   0  0  0  0  0  0
  -24.3617   -9.4205   21.9168 C   0  0  0  0  0  0
  -23.6296   -8.2236   22.0743 C   0  0  0  0  0  0
  -22.4279   -8.0271   21.3532 C   0  0  0  0  0  0
  -21.9910   -9.0242   20.4631 C   0  0  0  0  0  0
  -22.7237  -10.2124   20.3037 C   0  0  0  0  0  0
  -21.6851   -6.0727   22.5277 C   0  0  0  0  0  0
  -21.4006   -6.5633   23.8208 C   0  0  0  0  0  0
  -21.3664   -5.6791   24.9171 C   0  0  0  0  0  0
  -21.6050   -4.3052   24.7222 C   0  0  0  0  0  0
  -21.8821   -3.8140   23.4343 C   0  0  0  0  0  0
  -21.9190   -4.6956   22.3398 C   0  0  0  0  0  0
  -22.7846  -13.5231   21.1852 C   0  0  0  0  0  0
  -22.1660   -4.2140   21.0976 F   0  0  0  0  0  0
  -21.5640   -3.4539   25.7733 F   0  0  0  0  0  0
  -30.0153  -13.3836   20.4184 N   0  0  0  0  0  0
  -26.2978  -12.9344   20.3320 N   0  0  0  0  0  0
  -25.9308  -11.6504   20.5751 N   0  0  0  0  0  0
  -22.0492  -12.8218   22.0404 N   0  0  0  0  0  0
  -25.4303  -15.1885   20.4113 N   0  0  0  0  0  0
  -31.8366  -14.7139   20.1367 O   0  0  0  0  0  0
  -21.6644   -6.8869   21.4234 O   0  0  0  0  0  0
  -22.3533  -14.5536   20.6700 O   0  0  0  0  0  0
  -24.6199  -31.8651   23.2060 C   0  0  0  0  0  0
  -25.9072  -32.4808   23.8379 C   0  0  1  0  0  0
  -27.2271  -27.3834   20.1127 C   0  0  0  0  0  0
  -25.5916  -33.8609   24.2313 N   0  0  0  0  0  0
  -23.4117  -30.4869   21.5471 C   0  0  2  0  0  0
  -24.8621  -28.9509   20.1085 C   0  0  0  0  0  0
  -22.7446  -29.4638   22.4961 C   0  0  0  0  0  0
  -18.0277  -28.1373   22.8487 C   0  0  0  0  0  0
  -24.1488  -36.7303   23.2634 C   0  0  0  0  0  0
  -25.9461  -30.8157   21.3669 C   0  0  0  0  0  0
  -26.0260  -29.4475   20.7118 C   0  0  0  0  0  0
  -27.2163  -28.6716   20.7110 C   0  0  0  0  0  0
  -26.0526  -26.9240   19.4833 C   0  0  0  0  0  0
  -24.8733  -27.6912   19.4864 C   0  0  0  0  0  0
  -23.6243  -29.8210   20.1613 C   0  0  0  0  0  0
  -25.4107  -36.3107   24.0341 C   0  0  1  0  0  0
  -20.5872  -28.3670   23.1304 C   0  0  2  0  0  0
  -20.6766  -26.9402   22.5414 C   0  0  0  0  0  0
  -19.5751  -26.6380   21.5208 C   0  0  0  0  0  0
  -18.1927  -26.7921   22.1610 C   0  0  0  0  0  0
  -19.1529  -28.8835   23.2892 C   0  0  0  0  0  0
  -18.9453  -30.1440   23.8905 C   0  0  0  0  0  0
  -17.6456  -30.6582   24.0552 C   0  0  0  0  0  0
  -25.9041  -34.9473   23.5123 C   0  0  0  0  0  0
  -16.5347  -29.9078   23.6328 C   0  0  0  0  0  0
  -16.7263  -28.6491   23.0356 C   0  0  0  0  0  0
  -26.4476  -31.6596   25.0723 C   0  0  0  0  0  0
  -25.3730  -31.3708   26.1459 C   0  0  0  0  0  0
  -27.0299  -30.3033   24.6107 C   0  0  0  0  0  0
  -27.6067  -32.4295   25.7479 C   0  0  0  0  0  0
  -27.5590  -37.1795   24.8457 C   0  0  0  0  0  0
  -21.4167  -29.3036   22.3710 N   0  0  0  0  0  0
  -26.4286  -37.3804   23.9424 N   0  0  0  0  0  0
  -24.6779  -31.0707   22.0981 N   0  0  0  0  0  0
  -23.4196  -28.8179   23.3020 O   0  0  0  0  0  0
  -28.3113  -26.5192   20.1731 O   0  0  0  0  0  0
  -26.5600  -34.8934   22.4684 O   0  0  0  0  0  0
  -23.5378  -32.1417   23.7423 O   0  0  0  0  0  0
  -28.7722  -23.1713   22.0503 C   0  0  0  0  0  0
  -29.3097  -21.8669   21.9455 C   0  0  0  0  0  0
  -29.1981  -23.5602   19.7067 C   0  0  0  0  0  0
  -28.7279  -24.0540   20.9455 C   0  0  0  0  0  0
  -29.8283  -21.3836   20.7231 C   0  0  0  0  0  0
  -29.7531  -22.2425   19.5861 C   0  0  0  0  0  0
  -29.5342  -16.4264   21.7867 C   0  0  0  0  0  0
  -29.6198  -16.5280   19.3567 C   0  0  0  0  0  0
  -30.1479  -17.8665   21.8569 C   0  0  0  0  0  0
  -30.2633  -17.9440   19.4204 C   0  0  0  0  0  0
  -30.2842  -22.6081   17.2668 C   0  0  0  0  0  0
  -30.6368  -20.0507   20.7060 C   0  0  0  0  0  0
  -28.1023  -25.4604   21.1529 C   0  0  0  0  0  0
  -29.8566  -15.6913   20.5507 N   0  0  0  0  0  0
  -29.9175  -18.7197   20.6468 N   0  3  0  0  0  0
  -30.2647  -21.7511   18.4030 O   0  0  0  0  0  0
  -31.4709  -12.4631   19.1425 H   0  0  0  0  0  0
  -30.3397  -11.3623   19.8833 H   0  0  0  0  0  0
  -29.7565  -11.7466   17.4648 H   0  0  0  0  0  0
  -29.6483  -13.4669   17.7439 H   0  0  0  0  0  0
  -27.8577  -11.2867   18.8672 H   0  0  0  0  0  0
  -27.3667  -12.5674   17.7919 H   0  0  0  0  0  0
  -27.6665  -14.2462   19.5161 H   0  0  0  0  0  0
  -28.6950  -12.0645   21.4001 H   0  0  0  0  0  0
  -28.4568  -13.7428   21.8205 H   0  0  0  0  0  0
  -25.2759   -9.5688   22.4747 H   0  0  0  0  0  0
  -24.0010   -7.4624   22.7459 H   0  0  0  0  0  0
  -21.0841   -8.8747   19.8935 H   0  0  0  0  0  0
  -22.3685  -10.9657   19.6141 H   0  0  0  0  0  0
  -21.1993   -7.6140   23.9710 H   0  0  0  0  0  0
  -21.1494   -6.0517   25.9080 H   0  0  0  0  0  0
  -22.0602   -2.7601   23.2840 H   0  0  0  0  0  0
  -22.4111  -11.9875   22.4779 H   0  0  0  0  0  0
  -21.1100  -13.1216   22.2594 H   0  0  0  0  0  0
  -24.6670  -15.8483   20.5186 H   0  0  0  0  0  0
  -26.2895  -15.6226   20.1017 H   0  0  0  0  0  0
  -26.7137  -32.5514   23.1137 H   0  0  0  0  0  0
  -25.0091  -33.9762   25.0476 H   0  0  0  0  0  0
  -22.7029  -31.3056   21.4057 H   0  0  0  0  0  0
  -23.3774  -35.9608   23.3268 H   0  0  0  0  0  0
  -24.3603  -36.8942   22.2055 H   0  0  0  0  0  0
  -23.7200  -37.6485   23.6662 H   0  0  0  0  0  0
  -26.0650  -31.5805   20.5979 H   0  0  0  0  0  0
  -26.8311  -30.8687   21.9892 H   0  0  0  0  0  0
  -28.1089  -29.0398   21.1975 H   0  0  0  0  0  0
  -26.0439  -25.9493   19.0160 H   0  0  0  0  0  0
  -23.9812  -27.3040   19.0136 H   0  0  0  0  0  0
  -23.7330  -30.5973   19.4025 H   0  0  0  0  0  0
  -22.7476  -29.2417   19.8639 H   0  0  0  0  0  0
  -25.1279  -36.1965   25.0832 H   0  0  0  0  0  0
  -20.9958  -28.3227   24.1425 H   0  0  0  0  0  0
  -20.5656  -26.2276   23.3602 H   0  0  0  0  0  0
  -21.6639  -26.7437   22.1213 H   0  0  0  0  0  0
  -19.6915  -25.6292   21.1235 H   0  0  0  0  0  0
  -19.6702  -27.3184   20.6737 H   0  0  0  0  0  0
  -17.4207  -26.6679   21.4005 H   0  0  0  0  0  0
  -18.0325  -26.0050   22.8992 H   0  0  0  0  0  0
  -19.7936  -30.7247   24.2282 H   0  0  0  0  0  0
  -17.5018  -31.6267   24.5142 H   0  0  0  0  0  0
  -15.5350  -30.2979   23.7659 H   0  0  0  0  0  0
  -15.8662  -28.0806   22.7080 H   0  0  0  0  0  0
  -24.5926  -30.7021   25.7805 H   0  0  0  0  0  0
  -24.8878  -32.2855   26.4885 H   0  0  0  0  0  0
  -25.8073  -30.8912   27.0238 H   0  0  0  0  0  0
  -26.2838  -29.6808   24.1148 H   0  0  0  0  0  0
  -27.4050  -29.7266   25.4573 H   0  0  0  0  0  0
  -27.8691  -30.4358   23.9274 H   0  0  0  0  0  0
  -27.2713  -33.3603   26.2071 H   0  0  0  0  0  0
  -28.3870  -32.6829   25.0292 H   0  0  0  0  0  0
  -28.0731  -31.8394   26.5376 H   0  0  0  0  0  0
  -28.2578  -38.0126   24.7575 H   0  0  0  0  0  0
  -28.1119  -36.2667   24.6190 H   0  0  0  0  0  0
  -27.2329  -37.1325   25.8863 H   0  0  0  0  0  0
  -20.9330  -29.8773   21.6945 H   0  0  0  0  0  0
  -26.0178  -38.2877   24.1462 H   0  0  0  0  0  0
  -28.3995  -23.5049   23.0095 H   0  0  0  0  0  0
  -29.3670  -21.2532   22.8343 H   0  0  0  0  0  0
  -29.1334  -24.2257   18.8591 H   0  0  0  0  0  0
  -28.4474  -16.4910   21.8628 H   0  0  0  0  0  0
  -29.8570  -15.8548   22.6587 H   0  0  0  0  0  0
  -29.9747  -16.0189   18.4586 H   0  0  0  0  0  0
  -28.5421  -16.6294   19.2253 H   0  0  0  0  0  0
  -31.2231  -17.7687   22.0156 H   0  0  0  0  0  0
  -29.7604  -18.3835   22.7359 H   0  0  0  0  0  0
  -29.9687  -18.5211   18.5417 H   0  0  0  0  0  0
  -31.3471  -17.8321   19.3620 H   0  0  0  0  0  0
  -30.7595  -22.0917   16.4332 H   0  0  0  0  0  0
  -30.8570  -23.5171   17.4575 H   0  0  0  0  0  0
  -29.2749  -22.8787   16.9534 H   0  0  0  0  0  0
  -31.2697  -20.0713   21.5939 H   0  0  0  0  0  0
  -31.3582  -20.1103   19.8911 H   0  0  0  0  0  0
  -28.4823  -25.8446   22.1004 H   0  0  0  0  0  0
  -27.0387  -25.2859   21.3279 H   0  0  0  0  0  0
  -28.9321  -18.9310   20.6052 H   0  0  0  0  0  0
  1 25  1  0  0  0
  1 30  2  0  0  0
  1 84  1  0  0  0
  2  3  1  0  0  0
  2 25  1  0  0  0
  2 87  1  0  0  0
  2 88  1  0  0  0
  3  4  1  0  0  0
  3 89  1  0  0  0
  3 90  1  0  0  0
  4  5  1  0  0  0
  4 91  1  0  0  0
  4 92  1  0  0  0
  5  6  1  0  0  0
  5 26  1  0  0  0
  5 93  1  0  0  0
  6 25  1  0  0  0
  6 94  1  0  0  0
  6 95  1  0  0  0
  7  8  2  0  0  0
  7 26  1  0  0  0
  7 29  1  0  0  0
  8  9  1  0  0  0
  8 22  1  0  0  0
  9 10  1  0  0  0
  9 27  2  0  0  0
 10 11  2  0  0  0
 10 15  1  0  0  0
 11 12  1  0  0  0
 11 96  1  0  0  0
 12 13  2  0  0  0
 12 97  1  0  0  0
 13 14  1  0  0  0
 13 31  1  0  0  0
 14 15  2  0  0  0
 14 98  1  0  0  0
 15 99  1  0  0  0
 16 17  2  0  0  0
 16 21  1  0  0  0
 16 31  1  0  0  0
 17 18  1  0  0  0
 17100  1  0  0  0
 18 19  2  0  0  0
 18101  1  0  0  0
 19 20  1  0  0  0
 19 24  1  0  0  0
 20 21  2  0  0  0
 20102  1  0  0  0
 21 23  1  0  0  0
 22 28  1  0  0  0
 22 32  2  0  0  0
 26 27  1  0  0  0
 28103  1  0  0  0
 28104  1  0  0  0
 29105  1  0  0  0
 29106  1  0  0  0
 33 34  1  0  0  0
 33 66  1  0  0  0
 33 70  2  0  0  0
 34 36  1  0  0  0
 34 59  1  0  0  0
 34107  1  0  0  0
 35 44  2  0  0  0
 35 45  1  0  0  0
 35 68  1  0  0  0
 36 56  1  0  0  0
 36108  1  0  0  0
 37 39  1  0  0  0
 37 47  1  0  0  0
 37 66  1  0  0  0
 37109  1  0  0  0
 38 43  2  0  0  0
 38 46  1  0  0  0
 38 47  1  0  0  0
 39 64  1  0  0  0
 39 67  2  0  0  0
 40 52  1  0  0  0
 40 53  2  0  0  0
 40 58  1  0  0  0
 41110  1  0  0  0
 41111  1  0  0  0
 41112  1  0  0  0
 41 48  1  0  0  0
 42 43  1  0  0  0
 42 66  1  0  0  0
 42113  1  0  0  0
 42114  1  0  0  0
 43 44  1  0  0  0
 44115  1  0  0  0
 45 46  2  0  0  0
 45116  1  0  0  0
 46117  1  0  0  0
 47118  1  0  0  0
 47119  1  0  0  0
 48 56  1  0  0  0
 48 65  1  0  0  0
 48120  1  0  0  0
 49 50  1  0  0  0
 49 53  1  0  0  0
 49 64  1  0  0  0
 49121  1  0  0  0
 50 51  1  0  0  0
 50122  1  0  0  0
 50123  1  0  0  0
 51 52  1  0  0  0
 51124  1  0  0  0
 51125  1  0  0  0
 52126  1  0  0  0
 52127  1  0  0  0
 53 54  1  0  0  0
 54 55  2  0  0  0
 54128  1  0  0  0
 55 57  1  0  0  0
 55129  1  0  0  0
 56 69  2  0  0  0
 57 58  2  0  0  0
 57130  1  0  0  0
 58131  1  0  0  0
 59 60  1  0  0  0
 59 61  1  0  0  0
 59 62  1  0  0  0
 60132  1  0  0  0
 60133  1  0  0  0
 60134  1  0  0  0
 61135  1  0  0  0
 61136  1  0  0  0
 61137  1  0  0  0
 62138  1  0  0  0
 62139  1  0  0  0
 62140  1  0  0  0
 63 65  1  0  0  0
 63141  1  0  0  0
 63142  1  0  0  0
 63143  1  0  0  0
 64144  1  0  0  0
 65145  1  0  0  0
 68 83  1  0  0  0
 71 72  2  0  0  0
 71 74  1  0  0  0
 71146  1  0  0  0
 72 75  1  0  0  0
 72147  1  0  0  0
 73 74  2  0  0  0
 73 76  1  0  0  0
 73148  1  0  0  0
 74 83  1  0  0  0
 75 76  2  0  0  0
 75 82  1  0  0  0
 76 86  1  0  0  0
 77 79  1  0  0  0
 77 84  1  0  0  0
 77149  1  0  0  0
 77150  1  0  0  0
 78 80  1  0  0  0
 78 84  1  0  0  0
 78151  1  0  0  0
 78152  1  0  0  0
 79 85  1  0  0  0
 79153  1  0  0  0
 79154  1  0  0  0
 80 85  1  0  0  0
 80155  1  0  0  0
 80156  1  0  0  0
 81 86  1  0  0  0
 81157  1  0  0  0
 81158  1  0  0  0
 81159  1  0  0  0
 82160  1  0  0  0
 82161  1  0  0  0
 82 85  1  0  0  0
 83162  1  0  0  0
 83163  1  0  0  0
 85164  1  0  0  0
M  CHG  1  85   1
M  ISO  4   1 100  68 101  83 101  84 100
M  END
> <chiral flag>
0

> <version>
0

> <s_m_source_file>
/data/baiqing/PycharmProjects/Reinvent-master-3.2/result/LINK_invent/BTK/process_docking_weight1_custom_sum_contain_oxygen_bond_distance_aromatic_linkinvent_7_9_3/rearranged_h_0155.sdf

> <i_m_source_file_index>
34

> <r_mmod_Potential_Energy-OPLS-2005>
125.42928314209

> <r_mmod_Stretch_Energy-OPLS-2005>
58.8875961303711

> <r_mmod_Bend_Energy-OPLS-2005>
125.126800537109

> <r_mmod_Torsional_Energy-OPLS-2005>
424.346038818359

> <r_mmod_Improper_Torsional_Energy-OPLS-2005>
15.2630701065063

> <r_mmod_Van_der_Waal_Energy-OPLS-2005>
147.543090820312

> <r_mmod_Electrostatic_Energy-OPLS-2005>
-257.504547119141

> <r_mmod_Solvation_Energy-OPLS-2005>
-423.116638183594

> <b_mmod_Minimization_Converged-OPLS-2005>
0

> <r_mmod_RMS_Derivative-OPLS-2005>
1.50625360012054

$$$$
34
                    3D
 Structure written by MMmdl.
168178  0  0  1  0            999 V2000
  -30.7316  -14.5609   20.5579 C   0  0  0  0  0  0
  -30.4203  -12.3684   19.4387 C   0  0  0  0  0  0
  -29.4926  -12.4985   18.2147 C   0  0  0  0  0  0
  -28.0164  -12.3433   18.6265 C   0  0  0  0  0  0
  -27.6491  -13.2131   19.8546 C   0  0  2  0  0  0
  -28.6969  -13.0890   20.9863 C   0  0  0  0  0  0
  -25.2552  -13.8168   20.5688 C   0  0  0  0  0  0
  -24.1822  -13.0436   20.9208 C   0  0  0  0  0  0
  -24.6382  -11.6912   20.8757 C   0  0  0  0  0  0
  -23.9059  -10.4291   21.0414 C   0  0  0  0  0  0
  -24.3624   -9.4203   21.9177 C   0  0  0  0  0  0
  -23.6297   -8.2241   22.0737 C   0  0  0  0  0  0
  -22.4280   -8.0286   21.3531 C   0  0  0  0  0  0
  -21.9917   -9.0264   20.4632 C   0  0  0  0  0  0
  -22.7243  -10.2142   20.3048 C   0  0  0  0  0  0
  -21.6853   -6.0749   22.5279 C   0  0  0  0  0  0
  -21.4020   -6.5649   23.8217 C   0  0  0  0  0  0
  -21.3653   -5.6791   24.9168 C   0  0  0  0  0  0
  -21.6037   -4.3057   24.7216 C   0  0  0  0  0  0
  -21.8824   -3.8159   23.4335 C   0  0  0  0  0  0
  -21.9200   -4.6975   22.3395 C   0  0  0  0  0  0
  -22.7841  -13.5228   21.1874 C   0  0  0  0  0  0
  -22.1666   -4.2163   21.0972 F   0  0  0  0  0  0
  -21.5621   -3.4543   25.7730 F   0  0  0  0  0  0
  -30.0200  -13.3972   20.4199 N   0  0  0  0  0  0
  -26.2969  -12.9337   20.3312 N   0  0  0  0  0  0
  -25.9308  -11.6501   20.5769 N   0  0  0  0  0  0
  -22.0476  -12.8221   22.0423 N   0  0  0  0  0  0
  -25.4283  -15.1879   20.4094 N   0  0  0  0  0  0
  -31.8783  -14.6584   20.1132 O   0  0  0  0  0  0
  -21.6642   -6.8893   21.4237 O   0  0  0  0  0  0
  -22.3522  -14.5531   20.6706 O   0  0  0  0  0  0
  -24.6183  -31.8640   23.1993 C   0  0  0  0  0  0
  -25.9068  -32.4824   23.8297 C   0  0  1  0  0  0
  -27.2564  -27.3764   20.0961 C   0  0  0  0  0  0
  -25.5960  -33.8631   24.2274 N   0  0  0  0  0  0
  -23.4139  -30.4803   21.5399 C   0  0  2  0  0  0
  -24.8679  -28.9373   20.1079 C   0  0  0  0  0  0
  -22.7475  -29.4621   22.4929 C   0  0  0  0  0  0
  -18.0317  -28.1393   22.8495 C   0  0  0  0  0  0
  -24.1512  -36.7274   23.2631 C   0  0  0  0  0  0
  -25.9478  -30.8057   21.3678 C   0  0  0  0  0  0
  -26.0275  -29.4353   20.7137 C   0  0  0  0  0  0
  -27.2168  -28.6603   20.7094 C   0  0  0  0  0  0
  -26.0735  -26.9143   19.4736 C   0  0  0  0  0  0
  -24.8893  -27.6805   19.4818 C   0  0  0  0  0  0
  -23.6288  -29.8059   20.1575 C   0  0  0  0  0  0
  -25.4147  -36.3121   24.0330 C   0  0  1  0  0  0
  -20.5901  -28.3675   23.1320 C   0  0  2  0  0  0
  -20.6811  -26.9408   22.5428 C   0  0  0  0  0  0
  -19.5782  -26.6382   21.5246 C   0  0  0  0  0  0
  -18.1957  -26.7945   22.1631 C   0  0  0  0  0  0
  -19.1558  -28.8848   23.2903 C   0  0  0  0  0  0
  -18.9475  -30.1468   23.8898 C   0  0  0  0  0  0
  -17.6479  -30.6592   24.0570 C   0  0  0  0  0  0
  -25.9065  -34.9496   23.5087 C   0  0  0  0  0  0
  -16.5372  -29.9085   23.6333 C   0  0  0  0  0  0
  -16.7301  -28.6517   23.0338 C   0  0  0  0  0  0
  -26.4468  -31.6631   25.0660 C   0  0  0  0  0  0
  -25.3693  -31.3786   26.1383 C   0  0  0  0  0  0
  -27.0263  -30.3068   24.6058 C   0  0  0  0  0  0
  -27.6070  -32.4317   25.7425 C   0  0  0  0  0  0
  -27.5597  -37.1793   24.8460 C   0  0  0  0  0  0
  -21.4186  -29.3034   22.3707 N   0  0  0  0  0  0
  -26.4325  -37.3803   23.9401 N   0  0  0  0  0  0
  -24.6779  -31.0675   22.0931 N   0  0  0  0  0  0
  -23.4235  -28.8163   23.2990 O   0  0  0  0  0  0
  -28.4242  -26.6126   20.1389 O   0  0  0  0  0  0
  -26.5608  -34.8944   22.4632 O   0  0  0  0  0  0
  -23.5366  -32.1433   23.7328 O   0  0  0  0  0  0
  -31.1260  -18.3033   18.5792 C   0  0  0  0  0  0
  -31.5707  -18.6534   17.2981 C   0  0  0  0  0  0
  -30.9997  -20.9637   17.7704 C   0  0  0  0  0  0
  -30.6379  -19.2641   19.4985 C   0  0  0  0  0  0
  -31.5244  -19.9916   16.8945 C   0  0  0  0  0  0
  -30.5303  -20.6462   19.0814 C   0  0  0  0  0  0
  -28.9623  -17.9119   20.9596 C   0  0  0  0  0  0
  -31.4211  -17.8351   21.5322 C   0  0  0  0  0  0
  -27.7611  -24.2226   20.3730 C   0  0  0  0  0  0
  -29.0686  -16.4094   20.5380 C   0  0  0  0  0  0
  -30.9582  -16.4639   22.1197 C   0  0  0  0  0  0
  -30.2877  -18.7141   20.9039 C   0  0  0  0  0  0
  -29.2590  -24.1358   20.1938 C   0  0  2  0  0  0
  -28.4421  -25.2848   19.5380 C   0  0  2  0  0  0
  -32.0286  -20.3738   15.5157 C   0  0  0  0  0  0
  -29.8867  -23.0043   19.3431 C   0  0  0  0  0  0
  -30.1602  -15.6366   21.1849 N   0  0  0  0  0  0
  -29.9989  -21.6559   19.9019 O   0  0  0  0  0  0
  -31.4594  -12.4682   19.1201 H   0  0  0  0  0  0
  -30.3444  -11.3746   19.8823 H   0  0  0  0  0  0
  -29.7505  -11.7520   17.4627 H   0  0  0  0  0  0
  -29.6398  -13.4722   17.7436 H   0  0  0  0  0  0
  -27.8395  -11.2910   18.8488 H   0  0  0  0  0  0
  -27.3661  -12.5909   17.7864 H   0  0  0  0  0  0
  -27.6571  -14.2370   19.4873 H   0  0  0  0  0  0
  -28.6962  -12.0793   21.4007 H   0  0  0  0  0  0
  -28.4483  -13.7532   21.8148 H   0  0  0  0  0  0
  -25.2768   -9.5687   22.4753 H   0  0  0  0  0  0
  -24.0012   -7.4634   22.7453 H   0  0  0  0  0  0
  -21.0846   -8.8785   19.8941 H   0  0  0  0  0  0
  -22.3697  -10.9689   19.6167 H   0  0  0  0  0  0
  -21.2012   -7.6157   23.9717 H   0  0  0  0  0  0
  -21.1464   -6.0522   25.9071 H   0  0  0  0  0  0
  -22.0612   -2.7623   23.2825 H   0  0  0  0  0  0
  -22.4099  -11.9887   22.4818 H   0  0  0  0  0  0
  -21.1089  -13.1249   22.2634 H   0  0  0  0  0  0
  -24.6726  -15.8536   20.5288 H   0  0  0  0  0  0
  -26.2876  -15.6189   20.0944 H   0  0  0  0  0  0
  -26.7144  -32.5521   23.1041 H   0  0  0  0  0  0
  -25.0256  -33.9796   25.0518 H   0  0  0  0  0  0
  -22.7048  -31.2978   21.3907 H   0  0  0  0  0  0
  -23.3814  -35.9565   23.3331 H   0  0  0  0  0  0
  -24.3592  -36.8842   22.2036 H   0  0  0  0  0  0
  -23.7209  -37.6467   23.6610 H   0  0  0  0  0  0
  -26.0765  -31.5687   20.5982 H   0  0  0  0  0  0
  -26.8307  -30.8545   21.9928 H   0  0  0  0  0  0
  -28.1094  -29.0361   21.1903 H   0  0  0  0  0  0
  -26.0376  -25.9534   18.9810 H   0  0  0  0  0  0
  -24.0005  -27.2972   18.9993 H   0  0  0  0  0  0
  -23.7386  -30.5771   19.3947 H   0  0  0  0  0  0
  -22.7537  -29.2254   19.8562 H   0  0  0  0  0  0
  -25.1328  -36.1975   25.0824 H   0  0  0  0  0  0
  -21.0007  -28.3256   24.1433 H   0  0  0  0  0  0
  -20.5810  -26.2262   23.3609 H   0  0  0  0  0  0
  -21.6671  -26.7506   22.1158 H   0  0  0  0  0  0
  -19.6960  -25.6300   21.1261 H   0  0  0  0  0  0
  -19.6736  -27.3206   20.6793 H   0  0  0  0  0  0
  -17.4247  -26.6738   21.4016 H   0  0  0  0  0  0
  -18.0329  -26.0082   22.9012 H   0  0  0  0  0  0
  -19.7953  -30.7295   24.2242 H   0  0  0  0  0  0
  -17.5029  -31.6267   24.5175 H   0  0  0  0  0  0
  -15.5370  -30.2981   23.7646 H   0  0  0  0  0  0
  -15.8715  -28.0835   22.7009 H   0  0  0  0  0  0
  -24.5796  -30.7273   25.7633 H   0  0  0  0  0  0
  -24.8978  -32.2976   26.4857 H   0  0  0  0  0  0
  -25.7953  -30.8833   27.0111 H   0  0  0  0  0  0
  -26.2765  -29.6893   24.1091 H   0  0  0  0  0  0
  -27.3994  -29.7273   25.4509 H   0  0  0  0  0  0
  -27.8654  -30.4386   23.9228 H   0  0  0  0  0  0
  -27.2733  -33.3609   26.2041 H   0  0  0  0  0  0
  -28.3848  -32.6870   25.0230 H   0  0  0  0  0  0
  -28.0771  -31.8397   26.5284 H   0  0  0  0  0  0
  -28.2621  -38.0088   24.7533 H   0  0  0  0  0  0
  -28.1094  -36.2615   24.6272 H   0  0  0  0  0  0
  -27.2294  -37.1405   25.8858 H   0  0  0  0  0  0
  -20.9363  -29.8709   21.6869 H   0  0  0  0  0  0
  -26.0236  -38.2894   24.1378 H   0  0  0  0  0  0
  -31.1946  -17.2649   18.8656 H   0  0  0  0  0  0
  -31.9598  -17.8918   16.6354 H   0  0  0  0  0  0
  -30.9817  -21.9691   17.3819 H   0  0  0  0  0  0
  -28.6172  -17.9296   21.9953 H   0  0  0  0  0  0
  -28.1783  -18.4315   20.4087 H   0  0  0  0  0  0
  -32.2214  -17.6400   20.8172 H   0  0  0  0  0  0
  -31.9142  -18.4093   22.3157 H   0  0  0  0  0  0
  -27.3906  -24.5080   21.3558 H   0  0  0  0  0  0
  -27.1584  -23.4830   19.8509 H   0  0  0  0  0  0
  -29.1668  -16.3500   19.4535 H   0  0  0  0  0  0
  -28.1244  -15.9308   20.7853 H   0  0  0  0  0  0
  -30.3505  -16.6389   23.0104 H   0  0  0  0  0  0
  -31.8270  -15.9059   22.4773 H   0  0  0  0  0  0
  -30.1595  -19.5887   21.5434 H   0  0  0  0  0  0
  -29.8575  -24.4090   21.0610 H   0  0  0  0  0  0
  -28.3176  -25.2835   18.4578 H   0  0  0  0  0  0
  -32.8792  -19.7506   15.2337 H   0  0  0  0  0  0
  -32.3485  -21.4147   15.4721 H   0  0  0  0  0  0
  -31.2441  -20.2293   14.7733 H   0  0  0  0  0  0
  -30.8882  -23.3490   19.0770 H   0  0  0  0  0  0
  -29.3106  -22.9537   18.4184 H   0  0  0  0  0  0
  1 25  1  0  0  0
  1 30  2  0  0  0
  1 87  1  0  0  0
  2  3  1  0  0  0
  2 25  1  0  0  0
  2 89  1  0  0  0
  2 90  1  0  0  0
  3  4  1  0  0  0
  3 91  1  0  0  0
  3 92  1  0  0  0
  4  5  1  0  0  0
  4 93  1  0  0  0
  4 94  1  0  0  0
  5  6  1  0  0  0
  5 26  1  0  0  0
  5 95  1  0  0  0
  6 25  1  0  0  0
  6 96  1  0  0  0
  6 97  1  0  0  0
  7  8  2  0  0  0
  7 26  1  0  0  0
  7 29  1  0  0  0
  8  9  1  0  0  0
  8 22  1  0  0  0
  9 10  1  0  0  0
  9 27  2  0  0  0
 10 11  2  0  0  0
 10 15  1  0  0  0
 11 12  1  0  0  0
 11 98  1  0  0  0
 12 13  2  0  0  0
 12 99  1  0  0  0
 13 14  1  0  0  0
 13 31  1  0  0  0
 14 15  2  0  0  0
 14100  1  0  0  0
 15101  1  0  0  0
 16 17  2  0  0  0
 16 21  1  0  0  0
 16 31  1  0  0  0
 17 18  1  0  0  0
 17102  1  0  0  0
 18 19  2  0  0  0
 18103  1  0  0  0
 19 20  1  0  0  0
 19 24  1  0  0  0
 20 21  2  0  0  0
 20104  1  0  0  0
 21 23  1  0  0  0
 22 28  1  0  0  0
 22 32  2  0  0  0
 26 27  1  0  0  0
 28105  1  0  0  0
 28106  1  0  0  0
 29107  1  0  0  0
 29108  1  0  0  0
 33 34  1  0  0  0
 33 66  1  0  0  0
 33 70  2  0  0  0
 34 36  1  0  0  0
 34 59  1  0  0  0
 34109  1  0  0  0
 35 44  2  0  0  0
 35 45  1  0  0  0
 35 68  1  0  0  0
 36 56  1  0  0  0
 36110  1  0  0  0
 37 39  1  0  0  0
 37 47  1  0  0  0
 37 66  1  0  0  0
 37111  1  0  0  0
 38 43  2  0  0  0
 38 46  1  0  0  0
 38 47  1  0  0  0
 39 64  1  0  0  0
 39 67  2  0  0  0
 40 52  1  0  0  0
 40 53  2  0  0  0
 40 58  1  0  0  0
 41112  1  0  0  0
 41113  1  0  0  0
 41114  1  0  0  0
 41 48  1  0  0  0
 42 43  1  0  0  0
 42 66  1  0  0  0
 42115  1  0  0  0
 42116  1  0  0  0
 43 44  1  0  0  0
 44117  1  0  0  0
 45 46  2  0  0  0
 45118  1  0  0  0
 46119  1  0  0  0
 47120  1  0  0  0
 47121  1  0  0  0
 48 56  1  0  0  0
 48 65  1  0  0  0
 48122  1  0  0  0
 49 50  1  0  0  0
 49 53  1  0  0  0
 49 64  1  0  0  0
 49123  1  0  0  0
 50 51  1  0  0  0
 50124  1  0  0  0
 50125  1  0  0  0
 51 52  1  0  0  0
 51126  1  0  0  0
 51127  1  0  0  0
 52128  1  0  0  0
 52129  1  0  0  0
 53 54  1  0  0  0
 54 55  2  0  0  0
 54130  1  0  0  0
 55 57  1  0  0  0
 55131  1  0  0  0
 56 69  2  0  0  0
 57 58  2  0  0  0
 57132  1  0  0  0
 58133  1  0  0  0
 59 60  1  0  0  0
 59 61  1  0  0  0
 59 62  1  0  0  0
 60134  1  0  0  0
 60135  1  0  0  0
 60136  1  0  0  0
 61137  1  0  0  0
 61138  1  0  0  0
 61139  1  0  0  0
 62140  1  0  0  0
 62141  1  0  0  0
 62142  1  0  0  0
 63 65  1  0  0  0
 63143  1  0  0  0
 63144  1  0  0  0
 63145  1  0  0  0
 64146  1  0  0  0
 65147  1  0  0  0
 68 84  1  0  0  0
 71 72  2  0  0  0
 71 74  1  0  0  0
 71148  1  0  0  0
 72 75  1  0  0  0
 72149  1  0  0  0
 73 75  2  0  0  0
 73 76  1  0  0  0
 73150  1  0  0  0
 74 76  2  0  0  0
 74 82  1  0  0  0
 75 85  1  0  0  0
 76 88  1  0  0  0
 77 80  1  0  0  0
 77 82  1  0  0  0
 77151  1  0  0  0
 77152  1  0  0  0
 78 81  1  0  0  0
 78 82  1  0  0  0
 78153  1  0  0  0
 78154  1  0  0  0
 79 83  1  0  0  0
 79 84  1  0  0  0
 79155  1  0  0  0
 79156  1  0  0  0
 80 87  1  0  0  0
 80157  1  0  0  0
 80158  1  0  0  0
 81 87  1  0  0  0
 81159  1  0  0  0
 81160  1  0  0  0
 82161  1  0  0  0
 83 84  1  0  0  0
 83 86  1  0  0  0
 83162  1  0  0  0
 84163  1  0  0  0
 85164  1  0  0  0
 85165  1  0  0  0
 85166  1  0  0  0
 86 88  1  0  0  0
 86167  1  0  0  0
 86168  1  0  0  0
M  ISO  4   1 100  68 101  84 101  87 100
M  END
> <chiral flag>
0

> <version>
0

> <s_m_source_file>
/data/baiqing/PycharmProjects/Reinvent-master-3.2/result/LINK_invent/BTK/process_docking_weight1_custom_sum_contain_oxygen_bond_distance_aromatic_linkinvent_7_9_3/rearranged_h_0155.sdf

> <i_m_source_file_index>
35

> <r_mmod_Potential_Energy-OPLS-2005>
276.379699707031

> <r_mmod_Stretch_Energy-OPLS-2005>
67.9966659545898

> <r_mmod_Bend_Energy-OPLS-2005>
140.362777709961

> <r_mmod_Torsional_Energy-OPLS-2005>
358.873413085938

> <r_mmod_Improper_Torsional_Energy-OPLS-2005>
3.65693759918213

> <r_mmod_Van_der_Waal_Energy-OPLS-2005>
164.258087158203

> <r_mmod_Electrostatic_Energy-OPLS-2005>
-286.441070556641

> <r_mmod_Solvation_Energy-OPLS-2005>
-201.026916503906

> <b_mmod_Minimization_Converged-OPLS-2005>
0

> <r_mmod_RMS_Derivative-OPLS-2005>
3.90174245834351

$$$$
35
                    3D
 Structure written by MMmdl.
175184  0  0  1  0            999 V2000
  -30.6704  -14.5421   20.5356 C   0  0  0  0  0  0
  -30.4154  -12.3358   19.4532 C   0  0  0  0  0  0
  -29.4975  -12.5026   18.2224 C   0  0  0  0  0  0
  -28.0132  -12.3824   18.6125 C   0  0  0  0  0  0
  -27.6554  -13.2219   19.8699 C   0  0  2  0  0  0
  -28.6935  -13.0383   21.0032 C   0  0  0  0  0  0
  -25.2536  -13.8218   20.5649 C   0  0  0  0  0  0
  -24.1814  -13.0467   20.9145 C   0  0  0  0  0  0
  -24.6405  -11.6928   20.8712 C   0  0  0  0  0  0
  -23.9095  -10.4300   21.0386 C   0  0  0  0  0  0
  -24.3679   -9.4221   21.9162 C   0  0  0  0  0  0
  -23.6334   -8.2260   22.0750 C   0  0  0  0  0  0
  -22.4306   -8.0305   21.3556 C   0  0  0  0  0  0
  -21.9947   -9.0267   20.4646 C   0  0  0  0  0  0
  -22.7278  -10.2134   20.3022 C   0  0  0  0  0  0
  -21.6866   -6.0758   22.5238 C   0  0  0  0  0  0
  -21.4043   -6.5649   23.8176 C   0  0  0  0  0  0
  -21.3684   -5.6796   24.9136 C   0  0  0  0  0  0
  -21.6044   -4.3055   24.7173 C   0  0  0  0  0  0
  -21.8840   -3.8160   23.4295 C   0  0  0  0  0  0
  -21.9189   -4.6983   22.3356 C   0  0  0  0  0  0
  -22.7848  -13.5239   21.1796 C   0  0  0  0  0  0
  -22.1658   -4.2176   21.0928 F   0  0  0  0  0  0
  -21.5644   -3.4532   25.7691 F   0  0  0  0  0  0
  -30.0183  -13.3469   20.4506 N   0  0  0  0  0  0
  -26.2981  -12.9414   20.3332 N   0  0  0  0  0  0
  -25.9331  -11.6569   20.5759 N   0  0  0  0  0  0
  -22.0538  -12.8217   22.0374 N   0  0  0  0  0  0
  -25.4239  -15.1926   20.4035 N   0  0  0  0  0  0
  -31.8220  -14.6832   20.1104 O   0  0  0  0  0  0
  -21.6672   -6.8889   21.4217 O   0  0  0  0  0  0
  -22.3512  -14.5540   20.6634 O   0  0  0  0  0  0
  -24.6219  -31.8608   23.2043 C   0  0  0  0  0  0
  -25.9067  -32.4794   23.8378 C   0  0  1  0  0  0
  -27.2369  -27.3472   20.1453 C   0  0  0  0  0  0
  -25.5865  -33.8588   24.2288 N   0  0  0  0  0  0
  -23.4197  -30.4824   21.5409 C   0  0  2  0  0  0
  -24.8708  -28.9287   20.1288 C   0  0  0  0  0  0
  -22.7467  -29.4634   22.4907 C   0  0  0  0  0  0
  -18.0285  -28.1439   22.8475 C   0  0  0  0  0  0
  -24.1465  -36.7301   23.2645 C   0  0  0  0  0  0
  -25.9565  -30.8000   21.3735 C   0  0  0  0  0  0
  -26.0333  -29.4206   20.7381 C   0  0  0  0  0  0
  -27.2228  -28.6386   20.7454 C   0  0  0  0  0  0
  -26.0620  -26.8990   19.5113 C   0  0  0  0  0  0
  -24.8810  -27.6655   19.5148 C   0  0  0  0  0  0
  -23.6405  -29.8097   20.1600 C   0  0  0  0  0  0
  -25.4091  -36.3094   24.0337 C   0  0  1  0  0  0
  -20.5890  -28.3726   23.1262 C   0  0  2  0  0  0
  -20.6767  -26.9438   22.5405 C   0  0  0  0  0  0
  -19.5741  -26.6415   21.5209 C   0  0  0  0  0  0
  -18.1929  -26.7972   22.1638 C   0  0  0  0  0  0
  -19.1545  -28.8891   23.2884 C   0  0  0  0  0  0
  -18.9476  -30.1486   23.8919 C   0  0  0  0  0  0
  -17.6479  -30.6614   24.0601 C   0  0  0  0  0  0
  -25.9029  -34.9464   23.5125 C   0  0  0  0  0  0
  -16.5366  -29.9140   23.6329 C   0  0  0  0  0  0
  -16.7280  -28.6575   23.0320 C   0  0  0  0  0  0
  -26.4455  -31.6604   25.0746 C   0  0  0  0  0  0
  -25.3708  -31.3735   26.1497 C   0  0  0  0  0  0
  -27.0276  -30.3025   24.6170 C   0  0  0  0  0  0
  -27.6018  -32.4339   25.7505 C   0  0  0  0  0  0
  -27.5567  -37.1801   24.8464 C   0  0  0  0  0  0
  -21.4184  -29.3082   22.3656 N   0  0  0  0  0  0
  -26.4266  -37.3791   23.9429 N   0  0  0  0  0  0
  -24.6845  -31.0644   22.0972 N   0  0  0  0  0  0
  -23.4204  -28.8173   23.2989 O   0  0  0  0  0  0
  -28.3770  -26.5637   20.0156 O   0  0  0  0  0  0
  -26.5621  -34.8927   22.4709 O   0  0  0  0  0  0
  -23.5384  -32.1372   23.7375 O   0  0  0  0  0  0
  -29.6784  -19.4861   20.4360 C   0  0  0  0  0  0
  -30.7911  -19.7110   22.9518 C   0  0  0  0  0  0
  -29.9097  -20.8172   20.9300 C   0  0  0  0  0  0
  -30.0801  -18.2943   21.1081 C   0  0  0  0  0  0
  -30.5147  -20.8878   22.2173 C   0  0  0  0  0  0
  -30.5948  -18.4186   22.4182 C   0  0  0  0  0  0
  -29.7728  -21.7329   18.5074 C   0  0  0  0  0  0
  -28.4143  -23.6801   18.6793 C   0  0  0  0  0  0
  -29.7133  -22.1015   20.0200 C   0  0  1  0  0  0
  -28.4258  -23.0315   20.0793 C   0  0  1  0  0  0
  -30.9774  -22.1920   22.8417 C   0  0  0  0  0  0
  -31.0096  -17.2152   23.2514 C   0  0  0  0  0  0
  -26.6448  -24.2617   21.4907 C   0  0  0  0  0  0
  -29.7196  -23.3040   16.5871 C   0  0  0  0  0  0
  -30.1175  -16.9758   20.2794 C   0  0  0  0  0  0
  -28.7814  -25.6099   21.0430 C   0  0  0  0  0  0
  -28.1462  -24.1569   21.1730 C   0  0  2  0  0  0
  -29.9252  -15.6253   20.8776 N   0  0  0  0  0  0
  -29.0011  -22.7179   17.7376 N   0  3  1  0  0  0
  -31.4616  -12.4351   19.1571 H   0  0  0  0  0  0
  -30.3160  -11.3343   19.8730 H   0  0  0  0  0  0
  -29.7396  -11.7506   17.4685 H   0  0  0  0  0  0
  -29.6773  -13.4746   17.7574 H   0  0  0  0  0  0
  -27.7995  -11.3296   18.7953 H   0  0  0  0  0  0
  -27.3782  -12.6762   17.7741 H   0  0  0  0  0  0
  -27.6872  -14.2678   19.5681 H   0  0  0  0  0  0
  -28.6749  -12.0127   21.3745 H   0  0  0  0  0  0
  -28.4535  -13.6748   21.8563 H   0  0  0  0  0  0
  -25.2826   -9.5714   22.4733 H   0  0  0  0  0  0
  -24.0038   -7.4683   22.7493 H   0  0  0  0  0  0
  -21.0875   -8.8795   19.8968 H   0  0  0  0  0  0
  -22.3740  -10.9684   19.6145 H   0  0  0  0  0  0
  -21.2044   -7.6165   23.9685 H   0  0  0  0  0  0
  -21.1507   -6.0526   25.9050 H   0  0  0  0  0  0
  -22.0595   -2.7614   23.2753 H   0  0  0  0  0  0
  -22.4197  -11.9885   22.4743 H   0  0  0  0  0  0
  -21.1164  -13.1217   22.2628 H   0  0  0  0  0  0
  -24.6584  -15.8490   20.5092 H   0  0  0  0  0  0
  -26.2813  -15.6327   20.0958 H   0  0  0  0  0  0
  -26.7148  -32.5482   23.1153 H   0  0  0  0  0  0
  -24.9951  -33.9728   25.0392 H   0  0  0  0  0  0
  -22.7149  -31.3028   21.3891 H   0  0  0  0  0  0
  -23.3724  -35.9633   23.3310 H   0  0  0  0  0  0
  -24.3551  -36.8922   22.2055 H   0  0  0  0  0  0
  -23.7211  -37.6505   23.6663 H   0  0  0  0  0  0
  -26.0766  -31.5494   20.5899 H   0  0  0  0  0  0
  -26.8434  -30.8643   21.9938 H   0  0  0  0  0  0
  -28.1300  -29.0217   21.1937 H   0  0  0  0  0  0
  -26.0597  -25.9439   19.0069 H   0  0  0  0  0  0
  -23.9922  -27.2790   19.0361 H   0  0  0  0  0  0
  -23.7744  -30.5794   19.3996 H   0  0  0  0  0  0
  -22.7643  -29.2372   19.8518 H   0  0  0  0  0  0
  -25.1262  -36.1949   25.0822 H   0  0  0  0  0  0
  -21.0007  -28.3316   24.1382 H   0  0  0  0  0  0
  -20.5636  -26.2351   23.3628 H   0  0  0  0  0  0
  -21.6638  -26.7447   22.1228 H   0  0  0  0  0  0
  -19.6894  -25.6325   21.1254 H   0  0  0  0  0  0
  -19.6683  -27.3220   20.6733 H   0  0  0  0  0  0
  -17.4184  -26.6696   21.4063 H   0  0  0  0  0  0
  -18.0356  -26.0144   22.9061 H   0  0  0  0  0  0
  -19.7952  -30.7287   24.2322 H   0  0  0  0  0  0
  -17.5040  -31.6286   24.5227 H   0  0  0  0  0  0
  -15.5379  -30.3068   23.7632 H   0  0  0  0  0  0
  -15.8683  -28.0924   22.6994 H   0  0  0  0  0  0
  -24.5877  -30.7075   25.7854 H   0  0  0  0  0  0
  -24.8908  -32.2898   26.4935 H   0  0  0  0  0  0
  -25.8058  -30.8923   27.0269 H   0  0  0  0  0  0
  -26.2828  -29.6811   24.1179 H   0  0  0  0  0  0
  -27.3959  -29.7237   25.4653 H   0  0  0  0  0  0
  -27.8708  -30.4312   23.9383 H   0  0  0  0  0  0
  -27.2627  -33.3655   26.2043 H   0  0  0  0  0  0
  -28.3837  -32.6872   25.0338 H   0  0  0  0  0  0
  -28.0668  -31.8495   26.5454 H   0  0  0  0  0  0
  -28.2580  -38.0104   24.7525 H   0  0  0  0  0  0
  -28.1065  -36.2636   24.6259 H   0  0  0  0  0  0
  -27.2300  -37.1427   25.8872 H   0  0  0  0  0  0
  -20.9362  -29.8831   21.6883 H   0  0  0  0  0  0
  -26.0148  -38.2855   24.1475 H   0  0  0  0  0  0
  -29.2629  -19.3108   19.4600 H   0  0  0  0  0  0
  -31.2364  -19.8045   23.9325 H   0  0  0  0  0  0
  -29.2212  -20.8383   18.2442 H   0  0  0  0  0  0
  -30.7945  -21.5930   18.1516 H   0  0  0  0  0  0
  -29.0395  -24.5718   18.6590 H   0  0  0  0  0  0
  -27.4103  -23.9712   18.3725 H   0  0  0  0  0  0
  -30.5794  -22.7449   20.1891 H   0  0  0  0  0  0
  -27.5948  -22.3269   20.1254 H   0  0  0  0  0  0
  -30.8754  -22.1490   23.9266 H   0  0  0  0  0  0
  -30.4280  -23.0566   22.4964 H   0  0  0  0  0  0
  -32.0307  -22.3617   22.6135 H   0  0  0  0  0  0
  -30.1857  -16.5091   23.3583 H   0  0  0  0  0  0
  -31.3008  -17.5040   24.2610 H   0  0  0  0  0  0
  -31.8541  -16.7002   22.7901 H   0  0  0  0  0  0
  -26.2676  -23.3348   21.9228 H   0  0  0  0  0  0
  -26.0464  -24.4617   20.6053 H   0  0  0  0  0  0
  -26.4521  -25.0566   22.2131 H   0  0  0  0  0  0
  -30.0399  -22.5094   15.9100 H   0  0  0  0  0  0
  -30.6023  -23.8579   16.9067 H   0  0  0  0  0  0
  -29.0701  -23.9780   16.0263 H   0  0  0  0  0  0
  -31.0807  -17.0098   19.7649 H   0  0  0  0  0  0
  -29.3828  -17.0600   19.4783 H   0  0  0  0  0  0
  -29.8507  -25.4639   20.8869 H   0  0  0  0  0  0
  -28.7119  -26.1131   22.0085 H   0  0  0  0  0  0
  -28.5367  -23.7621   22.1061 H   0  0  0  0  0  0
  -29.0064  -15.4342   21.2482 H   0  0  0  0  0  0
  -28.2257  -22.1970   17.3520 H   0  0  0  0  0  0
  1 25  1  0  0  0
  1 30  2  0  0  0
  1 88  1  0  0  0
  2  3  1  0  0  0
  2 25  1  0  0  0
  2 90  1  0  0  0
  2 91  1  0  0  0
  3  4  1  0  0  0
  3 92  1  0  0  0
  3 93  1  0  0  0
  4  5  1  0  0  0
  4 94  1  0  0  0
  4 95  1  0  0  0
  5  6  1  0  0  0
  5 26  1  0  0  0
  5 96  1  0  0  0
  6 25  1  0  0  0
  6 97  1  0  0  0
  6 98  1  0  0  0
  7  8  2  0  0  0
  7 26  1  0  0  0
  7 29  1  0  0  0
  8  9  1  0  0  0
  8 22  1  0  0  0
  9 10  1  0  0  0
  9 27  2  0  0  0
 10 11  2  0  0  0
 10 15  1  0  0  0
 11 12  1  0  0  0
 11 99  1  0  0  0
 12 13  2  0  0  0
 12100  1  0  0  0
 13 14  1  0  0  0
 13 31  1  0  0  0
 14 15  2  0  0  0
 14101  1  0  0  0
 15102  1  0  0  0
 16 17  2  0  0  0
 16 21  1  0  0  0
 16 31  1  0  0  0
 17 18  1  0  0  0
 17103  1  0  0  0
 18 19  2  0  0  0
 18104  1  0  0  0
 19 20  1  0  0  0
 19 24  1  0  0  0
 20 21  2  0  0  0
 20105  1  0  0  0
 21 23  1  0  0  0
 22 28  1  0  0  0
 22 32  2  0  0  0
 26 27  1  0  0  0
 28106  1  0  0  0
 28107  1  0  0  0
 29108  1  0  0  0
 29109  1  0  0  0
 33 34  1  0  0  0
 33 66  1  0  0  0
 33 70  2  0  0  0
 34 36  1  0  0  0
 34 59  1  0  0  0
 34110  1  0  0  0
 35 44  2  0  0  0
 35 45  1  0  0  0
 35 68  1  0  0  0
 36 56  1  0  0  0
 36111  1  0  0  0
 37 39  1  0  0  0
 37 47  1  0  0  0
 37 66  1  0  0  0
 37112  1  0  0  0
 38 43  2  0  0  0
 38 46  1  0  0  0
 38 47  1  0  0  0
 39 64  1  0  0  0
 39 67  2  0  0  0
 40 52  1  0  0  0
 40 53  2  0  0  0
 40 58  1  0  0  0
 41113  1  0  0  0
 41114  1  0  0  0
 41115  1  0  0  0
 41 48  1  0  0  0
 42 43  1  0  0  0
 42 66  1  0  0  0
 42116  1  0  0  0
 42117  1  0  0  0
 43 44  1  0  0  0
 44118  1  0  0  0
 45 46  2  0  0  0
 45119  1  0  0  0
 46120  1  0  0  0
 47121  1  0  0  0
 47122  1  0  0  0
 48 56  1  0  0  0
 48 65  1  0  0  0
 48123  1  0  0  0
 49 50  1  0  0  0
 49 53  1  0  0  0
 49 64  1  0  0  0
 49124  1  0  0  0
 50 51  1  0  0  0
 50125  1  0  0  0
 50126  1  0  0  0
 51 52  1  0  0  0
 51127  1  0  0  0
 51128  1  0  0  0
 52129  1  0  0  0
 52130  1  0  0  0
 53 54  1  0  0  0
 54 55  2  0  0  0
 54131  1  0  0  0
 55 57  1  0  0  0
 55132  1  0  0  0
 56 69  2  0  0  0
 57 58  2  0  0  0
 57133  1  0  0  0
 58134  1  0  0  0
 59 60  1  0  0  0
 59 61  1  0  0  0
 59 62  1  0  0  0
 60135  1  0  0  0
 60136  1  0  0  0
 60137  1  0  0  0
 61138  1  0  0  0
 61139  1  0  0  0
 61140  1  0  0  0
 62141  1  0  0  0
 62142  1  0  0  0
 62143  1  0  0  0
 63 65  1  0  0  0
 63144  1  0  0  0
 63145  1  0  0  0
 63146  1  0  0  0
 64147  1  0  0  0
 65148  1  0  0  0
 68 86  1  0  0  0
 71 73  2  0  0  0
 71 74  1  0  0  0
 71149  1  0  0  0
 72 75  2  0  0  0
 72 76  1  0  0  0
 72150  1  0  0  0
 73 75  1  0  0  0
 73 79  1  0  0  0
 74 76  2  0  0  0
 74 85  1  0  0  0
 75 81  1  0  0  0
 76 82  1  0  0  0
 77 79  1  0  0  0
 77 89  1  0  0  0
 77151  1  0  0  0
 77152  1  0  0  0
 78 89  1  0  0  0
 78153  1  0  0  0
 78154  1  0  0  0
 78 80  1  0  0  0
 79 80  1  0  0  0
 79155  1  0  0  0
 80 87  1  0  0  0
 80156  1  0  0  0
 81157  1  0  0  0
 81158  1  0  0  0
 81159  1  0  0  0
 82160  1  0  0  0
 82161  1  0  0  0
 82162  1  0  0  0
 83163  1  0  0  0
 83164  1  0  0  0
 83165  1  0  0  0
 83 87  1  0  0  0
 84166  1  0  0  0
 84167  1  0  0  0
 84168  1  0  0  0
 84 89  1  0  0  0
 85 88  1  0  0  0
 85169  1  0  0  0
 85170  1  0  0  0
 86 87  1  0  0  0
 86171  1  0  0  0
 86172  1  0  0  0
 87173  1  0  0  0
 88174  1  0  0  0
 89175  1  0  0  0
M  CHG  1  89   1
M  ISO  4   1 100  68 101  86 101  88 100
M  END
> <chiral flag>
0

> <version>
0

> <s_m_source_file>
/data/baiqing/PycharmProjects/Reinvent-master-3.2/result/LINK_invent/BTK/process_docking_weight1_custom_sum_contain_oxygen_bond_distance_aromatic_linkinvent_7_9_3/rearranged_h_0155.sdf

> <i_m_source_file_index>
36

> <r_mmod_Potential_Energy-OPLS-2005>
28.2357711791992

> <r_mmod_Stretch_Energy-OPLS-2005>
71.9771957397461

> <r_mmod_Bend_Energy-OPLS-2005>
209.718688964844

> <r_mmod_Torsional_Energy-OPLS-2005>
325.939697265625

> <r_mmod_Improper_Torsional_Energy-OPLS-2005>
9.74053573608398

> <r_mmod_Van_der_Waal_Energy-OPLS-2005>
149.022766113281

> <r_mmod_Electrostatic_Energy-OPLS-2005>
-329.827728271484

> <r_mmod_Solvation_Energy-OPLS-2005>
-434.57763671875

> <b_mmod_Minimization_Converged-OPLS-2005>
0

> <r_mmod_RMS_Derivative-OPLS-2005>
4.98894309997559

$$$$
36
                    3D
 Structure written by MMmdl.
169178  0  0  1  0            999 V2000
  -30.7490  -14.3991   20.6586 C   0  0  0  0  0  0
  -30.4155  -12.2975   19.4016 C   0  0  0  0  0  0
  -29.4851  -12.5225   18.1952 C   0  0  0  0  0  0
  -28.0090  -12.3742   18.6114 C   0  0  0  0  0  0
  -27.6634  -13.2002   19.8780 C   0  0  2  0  0  0
  -28.7027  -12.9521   20.9943 C   0  0  0  0  0  0
  -25.2590  -13.8148   20.5663 C   0  0  0  0  0  0
  -24.1838  -13.0433   20.9173 C   0  0  0  0  0  0
  -24.6387  -11.6900   20.8733 C   0  0  0  0  0  0
  -23.9052  -10.4287   21.0403 C   0  0  0  0  0  0
  -24.3609   -9.4206   21.9186 C   0  0  0  0  0  0
  -23.6288   -8.2240   22.0760 C   0  0  0  0  0  0
  -22.4269   -8.0278   21.3553 C   0  0  0  0  0  0
  -21.9898   -9.0246   20.4654 C   0  0  0  0  0  0
  -22.7224  -10.2126   20.3055 C   0  0  0  0  0  0
  -21.6848   -6.0732   22.5285 C   0  0  0  0  0  0
  -21.4009   -6.5637   23.8218 C   0  0  0  0  0  0
  -21.3659   -5.6792   24.9183 C   0  0  0  0  0  0
  -21.6045   -4.3055   24.7235 C   0  0  0  0  0  0
  -21.8817   -3.8143   23.4355 C   0  0  0  0  0  0
  -21.9188   -4.6957   22.3409 C   0  0  0  0  0  0
  -22.7862  -13.5236   21.1836 C   0  0  0  0  0  0
  -22.1658   -4.2140   21.0987 F   0  0  0  0  0  0
  -21.5631   -3.4543   25.7753 F   0  0  0  0  0  0
  -30.0389  -13.2558   20.4530 N   0  0  0  0  0  0
  -26.3028  -12.9311   20.3374 N   0  0  0  0  0  0
  -25.9309  -11.6474   20.5766 N   0  0  0  0  0  0
  -22.0491  -12.8237   22.0391 N   0  0  0  0  0  0
  -25.4285  -15.1860   20.4026 N   0  0  0  0  0  0
  -31.8194  -14.6300   20.0844 O   0  0  0  0  0  0
  -21.6635   -6.8874   21.4248 O   0  0  0  0  0  0
  -22.3555  -14.5546   20.6686 O   0  0  0  0  0  0
  -24.6133  -31.8682   23.2106 C   0  0  0  0  0  0
  -25.9034  -32.4822   23.8393 C   0  0  1  0  0  0
  -27.2366  -27.4421   20.0838 C   0  0  0  0  0  0
  -25.5897  -33.8621   24.2327 N   0  0  0  0  0  0
  -23.3995  -30.4924   21.5514 C   0  0  2  0  0  0
  -24.8428  -28.9559   20.1183 C   0  0  0  0  0  0
  -22.7397  -29.4661   22.5000 C   0  0  0  0  0  0
  -18.0266  -28.1376   22.8494 C   0  0  0  0  0  0
  -24.1487  -36.7317   23.2636 C   0  0  0  0  0  0
  -25.9270  -30.8352   21.3611 C   0  0  0  0  0  0
  -26.0013  -29.4684   20.7124 C   0  0  0  0  0  0
  -27.1965  -28.7167   20.6947 C   0  0  0  0  0  0
  -26.0524  -26.9370   19.4952 C   0  0  0  0  0  0
  -24.8622  -27.6887   19.5119 C   0  0  0  0  0  0
  -23.6061  -29.8238   20.1657 C   0  0  0  0  0  0
  -25.4104  -36.3112   24.0338 C   0  0  1  0  0  0
  -20.5858  -28.3659   23.1326 C   0  0  2  0  0  0
  -20.6759  -26.9400   22.5418 C   0  0  0  0  0  0
  -19.5739  -26.6390   21.5211 C   0  0  0  0  0  0
  -18.1918  -26.7925   22.1624 C   0  0  0  0  0  0
  -19.1517  -28.8833   23.2908 C   0  0  0  0  0  0
  -18.9447  -30.1441   23.8916 C   0  0  0  0  0  0
  -17.6450  -30.6584   24.0569 C   0  0  0  0  0  0
  -25.9032  -34.9475   23.5129 C   0  0  0  0  0  0
  -16.5341  -29.9091   23.6323 C   0  0  0  0  0  0
  -16.7257  -28.6507   23.0344 C   0  0  0  0  0  0
  -26.4466  -31.6598   25.0716 C   0  0  0  0  0  0
  -25.3743  -31.3697   26.1472 C   0  0  0  0  0  0
  -27.0286  -30.3044   24.6069 C   0  0  0  0  0  0
  -27.6047  -32.4307   25.7478 C   0  0  0  0  0  0
  -27.5584  -37.1803   24.8458 C   0  0  0  0  0  0
  -21.4129  -29.3030   22.3740 N   0  0  0  0  0  0
  -26.4286  -37.3801   23.9418 N   0  0  0  0  0  0
  -24.6651  -31.0796   22.1000 N   0  0  0  0  0  0
  -23.4183  -28.8199   23.3028 O   0  0  0  0  0  0
  -28.4465  -26.7760   20.0774 O   0  0  0  0  0  0
  -26.5596  -34.8931   22.4692 O   0  0  0  0  0  0
  -23.5328  -32.1427   23.7512 O   0  0  0  0  0  0
  -29.6530  -19.5157   20.6380 C   0  0  0  0  0  0
  -29.1629  -20.7008   20.0538 C   0  0  0  0  0  0
  -27.0622  -20.4037   21.2334 C   0  0  0  0  0  0
  -28.8584  -18.7551   21.5278 C   0  0  0  0  0  0
  -27.8581  -21.1527   20.3391 C   0  0  0  0  0  0
  -27.5450  -19.2117   21.8189 C   0  0  0  0  0  0
  -30.8689  -17.3942   22.5101 C   0  0  0  0  0  0
  -31.1502  -15.8904   22.5704 C   0  0  0  0  0  0
  -29.2363  -16.2312   21.1961 C   0  0  0  0  0  0
  -29.3959  -17.4425   22.1204 C   0  0  2  0  0  0
  -26.6142  -18.4317   22.7338 C   0  0  0  0  0  0
  -25.9720  -22.1192   18.9373 C   0  0  0  0  0  0
  -28.3431  -24.4091   20.7732 C   0  0  0  0  0  0
  -28.5525  -25.4223   19.6204 C   0  0  0  0  0  0
  -27.3057  -22.4037   19.6500 C   0  0  1  0  0  0
  -30.2607  -15.2501   21.5898 N   0  0  0  0  0  0
  -27.1605  -23.5244   20.6086 N   0  3  0  0  0  0
  -31.4586  -12.3952   19.0968 H   0  0  0  0  0  0
  -30.3141  -11.2774   19.7742 H   0  0  0  0  0  0
  -29.7231  -11.8155   17.3995 H   0  0  0  0  0  0
  -29.6517  -13.5179   17.7799 H   0  0  0  0  0  0
  -27.8193  -11.3161   18.7952 H   0  0  0  0  0  0
  -27.3563  -12.6606   17.7854 H   0  0  0  0  0  0
  -27.7158  -14.2502   19.5925 H   0  0  0  0  0  0
  -28.6723  -11.9090   21.3120 H   0  0  0  0  0  0
  -28.4588  -13.5282   21.8873 H   0  0  0  0  0  0
  -25.2753   -9.5682   22.4763 H   0  0  0  0  0  0
  -23.9998   -7.4624   22.7472 H   0  0  0  0  0  0
  -21.0830   -8.8754   19.8956 H   0  0  0  0  0  0
  -22.3677  -10.9663   19.6161 H   0  0  0  0  0  0
  -21.1999   -7.6143   23.9725 H   0  0  0  0  0  0
  -21.1486   -6.0521   25.9088 H   0  0  0  0  0  0
  -22.0594   -2.7604   23.2861 H   0  0  0  0  0  0
  -22.4098  -11.9898   22.4785 H   0  0  0  0  0  0
  -21.1113  -13.1276   22.2591 H   0  0  0  0  0  0
  -24.6547  -15.8341   20.4982 H   0  0  0  0  0  0
  -26.2738  -15.6257   20.0624 H   0  0  0  0  0  0
  -26.7108  -32.5534   23.1158 H   0  0  0  0  0  0
  -25.0059  -33.9786   25.0479 H   0  0  0  0  0  0
  -22.6881  -31.3089   21.4131 H   0  0  0  0  0  0
  -23.3747  -35.9651   23.3292 H   0  0  0  0  0  0
  -24.3594  -36.8933   22.2052 H   0  0  0  0  0  0
  -23.7236  -37.6520   23.6649 H   0  0  0  0  0  0
  -26.0358  -31.5992   20.5897 H   0  0  0  0  0  0
  -26.8169  -30.8907   21.9760 H   0  0  0  0  0  0
  -28.0943  -29.1162   21.1458 H   0  0  0  0  0  0
  -26.0141  -25.9792   19.0014 H   0  0  0  0  0  0
  -23.9700  -27.2897   19.0491 H   0  0  0  0  0  0
  -23.7165  -30.5978   19.4054 H   0  0  0  0  0  0
  -22.7295  -29.2445   19.8697 H   0  0  0  0  0  0
  -25.1276  -36.1975   25.0828 H   0  0  0  0  0  0
  -20.9948  -28.3219   24.1446 H   0  0  0  0  0  0
  -20.5664  -26.2264   23.3600 H   0  0  0  0  0  0
  -21.6629  -26.7450   22.1207 H   0  0  0  0  0  0
  -19.6903  -25.6308   21.1219 H   0  0  0  0  0  0
  -19.6679  -27.3218   20.6757 H   0  0  0  0  0  0
  -17.4190  -26.6674   21.4025 H   0  0  0  0  0  0
  -18.0322  -26.0061   22.9016 H   0  0  0  0  0  0
  -19.7924  -30.7248   24.2297 H   0  0  0  0  0  0
  -17.5008  -31.6266   24.5169 H   0  0  0  0  0  0
  -15.5342  -30.3001   23.7634 H   0  0  0  0  0  0
  -15.8658  -28.0835   22.7045 H   0  0  0  0  0  0
  -24.5918  -30.7038   25.7818 H   0  0  0  0  0  0
  -24.8932  -32.2847   26.4933 H   0  0  0  0  0  0
  -25.8106  -30.8864   27.0222 H   0  0  0  0  0  0
  -26.2817  -29.6823   24.1123 H   0  0  0  0  0  0
  -27.4067  -29.7262   25.4508 H   0  0  0  0  0  0
  -27.8649  -30.4374   23.9202 H   0  0  0  0  0  0
  -27.2671  -33.3593   26.2094 H   0  0  0  0  0  0
  -28.3839  -32.6885   25.0294 H   0  0  0  0  0  0
  -28.0736  -31.8406   26.5362 H   0  0  0  0  0  0
  -28.2575  -38.0128   24.7547 H   0  0  0  0  0  0
  -28.1102  -36.2660   24.6218 H   0  0  0  0  0  0
  -27.2313  -37.1378   25.8862 H   0  0  0  0  0  0
  -20.9285  -29.8769   21.6981 H   0  0  0  0  0  0
  -26.0170  -38.2870   24.1450 H   0  0  0  0  0  0
  -30.6472  -19.1922   20.3687 H   0  0  0  0  0  0
  -29.7933  -21.2468   19.3654 H   0  0  0  0  0  0
  -26.0560  -20.7304   21.4575 H   0  0  0  0  0  0
  -31.5126  -17.8265   21.7458 H   0  0  0  0  0  0
  -31.0782  -17.9091   23.4489 H   0  0  0  0  0  0
  -30.8938  -15.5032   23.5575 H   0  0  0  0  0  0
  -32.2091  -15.6771   22.4100 H   0  0  0  0  0  0
  -29.3958  -16.5293   20.1571 H   0  0  0  0  0  0
  -28.2294  -15.8227   21.2706 H   0  0  0  0  0  0
  -28.8571  -17.2240   23.0421 H   0  0  0  0  0  0
  -25.6251  -18.8882   22.7854 H   0  0  0  0  0  0
  -27.0092  -18.3942   23.7489 H   0  0  0  0  0  0
  -26.4841  -17.4112   22.3721 H   0  0  0  0  0  0
  -26.0811  -21.2963   18.2306 H   0  0  0  0  0  0
  -25.6338  -22.9866   18.3704 H   0  0  0  0  0  0
  -25.1764  -21.8504   19.6321 H   0  0  0  0  0  0
  -28.2345  -24.9540   21.7113 H   0  0  0  0  0  0
  -29.2351  -23.7927   20.8943 H   0  0  0  0  0  0
  -27.9570  -25.2078   18.7346 H   0  0  0  0  0  0
  -29.5813  -25.3181   19.2738 H   0  0  0  0  0  0
  -28.0098  -22.7001   18.8702 H   0  0  0  0  0  0
  -26.3640  -24.0801   20.3442 H   0  0  0  0  0  0
  -26.9463  -23.1157   21.5046 H   0  0  0  0  0  0
  1 25  1  0  0  0
  1 30  2  0  0  0
  1 86  1  0  0  0
  2  3  1  0  0  0
  2 25  1  0  0  0
  2 88  1  0  0  0
  2 89  1  0  0  0
  3  4  1  0  0  0
  3 90  1  0  0  0
  3 91  1  0  0  0
  4  5  1  0  0  0
  4 92  1  0  0  0
  4 93  1  0  0  0
  5  6  1  0  0  0
  5 26  1  0  0  0
  5 94  1  0  0  0
  6 25  1  0  0  0
  6 95  1  0  0  0
  6 96  1  0  0  0
  7  8  2  0  0  0
  7 26  1  0  0  0
  7 29  1  0  0  0
  8  9  1  0  0  0
  8 22  1  0  0  0
  9 10  1  0  0  0
  9 27  2  0  0  0
 10 11  2  0  0  0
 10 15  1  0  0  0
 11 12  1  0  0  0
 11 97  1  0  0  0
 12 13  2  0  0  0
 12 98  1  0  0  0
 13 14  1  0  0  0
 13 31  1  0  0  0
 14 15  2  0  0  0
 14 99  1  0  0  0
 15100  1  0  0  0
 16 17  2  0  0  0
 16 21  1  0  0  0
 16 31  1  0  0  0
 17 18  1  0  0  0
 17101  1  0  0  0
 18 19  2  0  0  0
 18102  1  0  0  0
 19 20  1  0  0  0
 19 24  1  0  0  0
 20 21  2  0  0  0
 20103  1  0  0  0
 21 23  1  0  0  0
 22 28  1  0  0  0
 22 32  2  0  0  0
 26 27  1  0  0  0
 28104  1  0  0  0
 28105  1  0  0  0
 29106  1  0  0  0
 29107  1  0  0  0
 33 34  1  0  0  0
 33 66  1  0  0  0
 33 70  2  0  0  0
 34 36  1  0  0  0
 34 59  1  0  0  0
 34108  1  0  0  0
 35 44  2  0  0  0
 35 45  1  0  0  0
 35 68  1  0  0  0
 36 56  1  0  0  0
 36109  1  0  0  0
 37 39  1  0  0  0
 37 47  1  0  0  0
 37 66  1  0  0  0
 37110  1  0  0  0
 38 43  2  0  0  0
 38 46  1  0  0  0
 38 47  1  0  0  0
 39 64  1  0  0  0
 39 67  2  0  0  0
 40 52  1  0  0  0
 40 53  2  0  0  0
 40 58  1  0  0  0
 41111  1  0  0  0
 41112  1  0  0  0
 41113  1  0  0  0
 41 48  1  0  0  0
 42 43  1  0  0  0
 42 66  1  0  0  0
 42114  1  0  0  0
 42115  1  0  0  0
 43 44  1  0  0  0
 44116  1  0  0  0
 45 46  2  0  0  0
 45117  1  0  0  0
 46118  1  0  0  0
 47119  1  0  0  0
 47120  1  0  0  0
 48 56  1  0  0  0
 48 65  1  0  0  0
 48121  1  0  0  0
 49 50  1  0  0  0
 49 53  1  0  0  0
 49 64  1  0  0  0
 49122  1  0  0  0
 50 51  1  0  0  0
 50123  1  0  0  0
 50124  1  0  0  0
 51 52  1  0  0  0
 51125  1  0  0  0
 51126  1  0  0  0
 52127  1  0  0  0
 52128  1  0  0  0
 53 54  1  0  0  0
 54 55  2  0  0  0
 54129  1  0  0  0
 55 57  1  0  0  0
 55130  1  0  0  0
 56 69  2  0  0  0
 57 58  2  0  0  0
 57131  1  0  0  0
 58132  1  0  0  0
 59 60  1  0  0  0
 59 61  1  0  0  0
 59 62  1  0  0  0
 60133  1  0  0  0
 60134  1  0  0  0
 60135  1  0  0  0
 61136  1  0  0  0
 61137  1  0  0  0
 61138  1  0  0  0
 62139  1  0  0  0
 62140  1  0  0  0
 62141  1  0  0  0
 63 65  1  0  0  0
 63142  1  0  0  0
 63143  1  0  0  0
 63144  1  0  0  0
 64145  1  0  0  0
 65146  1  0  0  0
 68 84  1  0  0  0
 71 72  2  0  0  0
 71 74  1  0  0  0
 71147  1  0  0  0
 72 75  1  0  0  0
 72148  1  0  0  0
 73 75  2  0  0  0
 73 76  1  0  0  0
 73149  1  0  0  0
 74 76  2  0  0  0
 74 80  1  0  0  0
 75 85  1  0  0  0
 76 81  1  0  0  0
 77 78  1  0  0  0
 77 80  1  0  0  0
 77150  1  0  0  0
 77151  1  0  0  0
 78 86  1  0  0  0
 78152  1  0  0  0
 78153  1  0  0  0
 79 80  1  0  0  0
 79 86  1  0  0  0
 79154  1  0  0  0
 79155  1  0  0  0
 80156  1  0  0  0
 81157  1  0  0  0
 81158  1  0  0  0
 81159  1  0  0  0
 82160  1  0  0  0
 82161  1  0  0  0
 82162  1  0  0  0
 82 85  1  0  0  0
 83 84  1  0  0  0
 83 87  1  0  0  0
 83163  1  0  0  0
 83164  1  0  0  0
 84165  1  0  0  0
 84166  1  0  0  0
 85 87  1  0  0  0
 85167  1  0  0  0
 87168  1  0  0  0
 87169  1  0  0  0
M  CHG  1  87   1
M  ISO  4   1 100  68 101  84 101  86 100
M  END
> <chiral flag>
0

> <version>
0

> <s_m_source_file>
/data/baiqing/PycharmProjects/Reinvent-master-3.2/result/LINK_invent/BTK/process_docking_weight1_custom_sum_contain_oxygen_bond_distance_aromatic_linkinvent_7_9_3/rearranged_h_0155.sdf

> <i_m_source_file_index>
37

> <r_mmod_Potential_Energy-OPLS-2005>
-16.9027118682861

> <r_mmod_Stretch_Energy-OPLS-2005>
37.6032104492188

> <r_mmod_Bend_Energy-OPLS-2005>
131.626174926758

> <r_mmod_Torsional_Energy-OPLS-2005>
322.644927978516

> <r_mmod_Improper_Torsional_Energy-OPLS-2005>
5.96156549453735

> <r_mmod_Van_der_Waal_Energy-OPLS-2005>
146.399826049805

> <r_mmod_Electrostatic_Energy-OPLS-2005>
-247.091445922852

> <r_mmod_Solvation_Energy-OPLS-2005>
-422.828674316406

> <b_mmod_Minimization_Converged-OPLS-2005>
0

> <r_mmod_RMS_Derivative-OPLS-2005>
1.01302993297577

$$$$
37
                    3D
 Structure written by MMmdl.
168178  0  0  1  0            999 V2000
  -30.6946  -14.6089   20.5420 C   0  0  0  0  0  0
  -30.4197  -12.3907   19.4510 C   0  0  0  0  0  0
  -29.4956  -12.4988   18.2209 C   0  0  0  0  0  0
  -28.0231  -12.3205   18.6368 C   0  0  0  0  0  0
  -27.6430  -13.2021   19.8532 C   0  0  2  0  0  0
  -28.6909  -13.0903   20.9876 C   0  0  0  0  0  0
  -25.2505  -13.8122   20.5650 C   0  0  0  0  0  0
  -24.1790  -13.0401   20.9200 C   0  0  0  0  0  0
  -24.6365  -11.6875   20.8772 C   0  0  0  0  0  0
  -23.9048  -10.4262   21.0421 C   0  0  0  0  0  0
  -24.3608   -9.4179   21.9192 C   0  0  0  0  0  0
  -23.6285   -8.2216   22.0757 C   0  0  0  0  0  0
  -22.4270   -8.0262   21.3540 C   0  0  0  0  0  0
  -21.9899   -9.0234   20.4642 C   0  0  0  0  0  0
  -22.7226  -10.2114   20.3060 C   0  0  0  0  0  0
  -21.6842   -6.0731   22.5281 C   0  0  0  0  0  0
  -21.4011   -6.5639   23.8216 C   0  0  0  0  0  0
  -21.3655   -5.6791   24.9178 C   0  0  0  0  0  0
  -21.6046   -4.3055   24.7229 C   0  0  0  0  0  0
  -21.8818   -3.8145   23.4351 C   0  0  0  0  0  0
  -21.9193   -4.6960   22.3406 C   0  0  0  0  0  0
  -22.7818  -13.5207   21.1856 C   0  0  0  0  0  0
  -22.1658   -4.2148   21.0982 F   0  0  0  0  0  0
  -21.5629   -3.4537   25.7741 F   0  0  0  0  0  0
  -30.0012  -13.4291   20.4175 N   0  0  0  0  0  0
  -26.2924  -12.9281   20.3289 N   0  0  0  0  0  0
  -25.9283  -11.6456   20.5784 N   0  0  0  0  0  0
  -22.0465  -12.8208   22.0418 N   0  0  0  0  0  0
  -25.4124  -15.1841   20.3988 N   0  0  0  0  0  0
  -31.8609  -14.6803   20.1415 O   0  0  0  0  0  0
  -21.6631   -6.8868   21.4240 O   0  0  0  0  0  0
  -22.3500  -14.5504   20.6692 O   0  0  0  0  0  0
  -24.6217  -31.8629   23.2039 C   0  0  0  0  0  0
  -25.9085  -32.4790   23.8359 C   0  0  1  0  0  0
  -27.2342  -27.3664   20.0994 C   0  0  0  0  0  0
  -25.5913  -33.8589   24.2293 N   0  0  0  0  0  0
  -23.4122  -30.4851   21.5461 C   0  0  2  0  0  0
  -24.8572  -28.9404   20.1124 C   0  0  0  0  0  0
  -22.7449  -29.4642   22.4963 C   0  0  0  0  0  0
  -18.0281  -28.1396   22.8488 C   0  0  0  0  0  0
  -24.1490  -36.7302   23.2639 C   0  0  0  0  0  0
  -25.9477  -30.8047   21.3682 C   0  0  0  0  0  0
  -26.0203  -29.4347   20.7134 C   0  0  0  0  0  0
  -27.2067  -28.6539   20.7042 C   0  0  0  0  0  0
  -26.0401  -26.8966   19.5046 C   0  0  0  0  0  0
  -24.8649  -27.6735   19.5061 C   0  0  0  0  0  0
  -23.6233  -29.8156   20.1618 C   0  0  0  0  0  0
  -25.4114  -36.3093   24.0331 C   0  0  1  0  0  0
  -20.5877  -28.3696   23.1299 C   0  0  2  0  0  0
  -20.6779  -26.9427   22.5421 C   0  0  0  0  0  0
  -19.5752  -26.6397   21.5228 C   0  0  0  0  0  0
  -18.1928  -26.7942   22.1629 C   0  0  0  0  0  0
  -19.1533  -28.8864   23.2887 C   0  0  0  0  0  0
  -18.9459  -30.1467   23.8900 C   0  0  0  0  0  0
  -17.6458  -30.6596   24.0577 C   0  0  0  0  0  0
  -25.9045  -34.9459   23.5119 C   0  0  0  0  0  0
  -16.5350  -29.9099   23.6332 C   0  0  0  0  0  0
  -16.7269  -28.6522   23.0343 C   0  0  0  0  0  0
  -26.4485  -31.6579   25.0714 C   0  0  0  0  0  0
  -25.3729  -31.3714   26.1449 C   0  0  0  0  0  0
  -27.0320  -30.3005   24.6143 C   0  0  0  0  0  0
  -27.6043  -32.4313   25.7478 C   0  0  0  0  0  0
  -27.5586  -37.1809   24.8466 C   0  0  0  0  0  0
  -21.4172  -29.3048   22.3700 N   0  0  0  0  0  0
  -26.4300  -37.3781   23.9407 N   0  0  0  0  0  0
  -24.6790  -31.0672   22.0968 N   0  0  0  0  0  0
  -23.4191  -28.8199   23.3043 O   0  0  0  0  0  0
  -28.4005  -26.6028   20.1510 O   0  0  0  0  0  0
  -26.5623  -34.8921   22.4689 O   0  0  0  0  0  0
  -23.5395  -32.1408   23.7406 O   0  0  0  0  0  0
  -28.7695  -21.5228   19.5982 C   0  0  0  0  0  0
  -29.4239  -22.4299   21.7210 C   0  0  0  0  0  0
  -28.5138  -22.8393   19.1109 C   0  0  0  0  0  0
  -29.1955  -23.7558   21.2545 C   0  0  0  0  0  0
  -28.7291  -23.9952   19.9295 C   0  0  0  0  0  0
  -29.2408  -21.2853   20.9101 C   0  0  0  0  0  0
  -26.6600  -23.4021   17.3264 C   0  0  0  0  0  0
  -27.1114  -21.9918   17.0394 C   0  0  0  0  0  0
  -31.0351  -18.1114   21.1044 C   0  0  0  0  0  0
  -28.5469  -17.8086   21.0182 C   0  0  0  0  0  0
  -30.9145  -16.7302   21.8287 C   0  0  0  0  0  0
  -28.8307  -16.3222   20.6054 C   0  0  0  0  0  0
  -28.0680  -22.9761   17.6794 C   0  0  0  0  0  0
  -29.6947  -18.8006   20.7204 C   0  0  0  0  0  0
  -29.5041  -24.9039   22.2009 C   0  0  0  0  0  0
  -28.6042  -25.4331   19.3035 C   0  0  0  0  0  0
  -30.1005  -15.7254   21.0998 N   0  0  0  0  0  0
  -29.5294  -20.0347   21.4762 O   0  0  0  0  0  0
  -31.4609  -12.4954   19.1423 H   0  0  0  0  0  0
  -30.3473  -11.4007   19.9047 H   0  0  0  0  0  0
  -29.7683  -11.7493   17.4770 H   0  0  0  0  0  0
  -29.6294  -13.4701   17.7409 H   0  0  0  0  0  0
  -27.8735  -11.2683   18.8820 H   0  0  0  0  0  0
  -27.3634  -12.5333   17.7942 H   0  0  0  0  0  0
  -27.6417  -14.2169   19.4660 H   0  0  0  0  0  0
  -28.7112  -12.0765   21.3888 H   0  0  0  0  0  0
  -28.4405  -13.7331   21.8318 H   0  0  0  0  0  0
  -25.2754   -9.5659   22.4765 H   0  0  0  0  0  0
  -23.9992   -7.4615   22.7488 H   0  0  0  0  0  0
  -21.0826   -8.8753   19.8950 H   0  0  0  0  0  0
  -22.3688  -10.9657   19.6169 H   0  0  0  0  0  0
  -21.1999   -7.6147   23.9722 H   0  0  0  0  0  0
  -21.1474   -6.0518   25.9082 H   0  0  0  0  0  0
  -22.0603   -2.7608   23.2853 H   0  0  0  0  0  0
  -22.4105  -11.9888   22.4821 H   0  0  0  0  0  0
  -21.1074  -13.1214   22.2615 H   0  0  0  0  0  0
  -24.6378  -15.8290   20.5087 H   0  0  0  0  0  0
  -26.2517  -15.6288   20.0525 H   0  0  0  0  0  0
  -26.7156  -32.5473   23.1110 H   0  0  0  0  0  0
  -25.0040  -33.9730   25.0427 H   0  0  0  0  0  0
  -22.7039  -31.3043   21.4033 H   0  0  0  0  0  0
  -23.3750  -35.9640   23.3309 H   0  0  0  0  0  0
  -24.3585  -36.8913   22.2055 H   0  0  0  0  0  0
  -23.7249  -37.6508   23.6652 H   0  0  0  0  0  0
  -26.0732  -31.5674   20.5986 H   0  0  0  0  0  0
  -26.8311  -30.8540   21.9934 H   0  0  0  0  0  0
  -28.1029  -29.0308   21.1764 H   0  0  0  0  0  0
  -25.9787  -25.9138   19.0627 H   0  0  0  0  0  0
  -23.9660  -27.2806   19.0512 H   0  0  0  0  0  0
  -23.7398  -30.5899   19.4032 H   0  0  0  0  0  0
  -22.7443  -29.2411   19.8628 H   0  0  0  0  0  0
  -25.1301  -36.1948   25.0825 H   0  0  0  0  0  0
  -20.9958  -28.3280   24.1424 H   0  0  0  0  0  0
  -20.5715  -26.2312   23.3623 H   0  0  0  0  0  0
  -21.6645  -26.7487   22.1190 H   0  0  0  0  0  0
  -19.6920  -25.6310   21.1253 H   0  0  0  0  0  0
  -19.6689  -27.3222   20.6772 H   0  0  0  0  0  0
  -17.4205  -26.6699   21.4019 H   0  0  0  0  0  0
  -18.0314  -26.0084   22.9023 H   0  0  0  0  0  0
  -19.7934  -30.7290   24.2258 H   0  0  0  0  0  0
  -17.5012  -31.6269   24.5192 H   0  0  0  0  0  0
  -15.5354  -30.3006   23.7648 H   0  0  0  0  0  0
  -15.8668  -28.0852   22.7040 H   0  0  0  0  0  0
  -24.5884  -30.7090   25.7773 H   0  0  0  0  0  0
  -24.8952  -32.2886   26.4899 H   0  0  0  0  0  0
  -25.8056  -30.8861   27.0205 H   0  0  0  0  0  0
  -26.2883  -29.6756   24.1184 H   0  0  0  0  0  0
  -27.4042  -29.7254   25.4631 H   0  0  0  0  0  0
  -27.8737  -30.4295   23.9337 H   0  0  0  0  0  0
  -27.2643  -33.3602   26.2066 H   0  0  0  0  0  0
  -28.3837  -32.6893   25.0297 H   0  0  0  0  0  0
  -28.0724  -31.8439   26.5385 H   0  0  0  0  0  0
  -28.2603  -38.0108   24.7508 H   0  0  0  0  0  0
  -28.1086  -36.2637   24.6294 H   0  0  0  0  0  0
  -27.2307  -37.1456   25.8871 H   0  0  0  0  0  0
  -20.9364  -29.8735   21.6869 H   0  0  0  0  0  0
  -26.0186  -38.2862   24.1397 H   0  0  0  0  0  0
  -28.6010  -20.6893   18.9338 H   0  0  0  0  0  0
  -29.7834  -22.2820   22.7301 H   0  0  0  0  0  0
  -25.9494  -23.5406   18.1385 H   0  0  0  0  0  0
  -26.5300  -24.0655   16.4727 H   0  0  0  0  0  0
  -27.2806  -21.7295   15.9966 H   0  0  0  0  0  0
  -26.6758  -21.2066   17.6539 H   0  0  0  0  0  0
  -31.6250  -17.9722   20.1974 H   0  0  0  0  0  0
  -31.6237  -18.7869   21.7266 H   0  0  0  0  0  0
  -28.3388  -17.8319   22.0892 H   0  0  0  0  0  0
  -27.6304  -18.1593   20.5418 H   0  0  0  0  0  0
  -30.4651  -16.8743   22.8123 H   0  0  0  0  0  0
  -31.9160  -16.3499   22.0374 H   0  0  0  0  0  0
  -28.8084  -16.2478   19.5165 H   0  0  0  0  0  0
  -28.0006  -15.7395   20.9929 H   0  0  0  0  0  0
  -28.8819  -23.3487   17.0595 H   0  0  0  0  0  0
  -29.7266  -18.9991   19.6502 H   0  0  0  0  0  0
  -29.9880  -24.5546   23.1134 H   0  0  0  0  0  0
  -28.5883  -25.4217   22.4880 H   0  0  0  0  0  0
  -30.1800  -25.6205   21.7336 H   0  0  0  0  0  0
  -27.9277  -25.4435   18.4545 H   0  0  0  0  0  0
  -29.5742  -25.6083   18.8385 H   0  0  0  0  0  0
  1 25  1  0  0  0
  1 30  2  0  0  0
  1 87  1  0  0  0
  2  3  1  0  0  0
  2 25  1  0  0  0
  2 89  1  0  0  0
  2 90  1  0  0  0
  3  4  1  0  0  0
  3 91  1  0  0  0
  3 92  1  0  0  0
  4  5  1  0  0  0
  4 93  1  0  0  0
  4 94  1  0  0  0
  5  6  1  0  0  0
  5 26  1  0  0  0
  5 95  1  0  0  0
  6 25  1  0  0  0
  6 96  1  0  0  0
  6 97  1  0  0  0
  7  8  2  0  0  0
  7 26  1  0  0  0
  7 29  1  0  0  0
  8  9  1  0  0  0
  8 22  1  0  0  0
  9 10  1  0  0  0
  9 27  2  0  0  0
 10 11  2  0  0  0
 10 15  1  0  0  0
 11 12  1  0  0  0
 11 98  1  0  0  0
 12 13  2  0  0  0
 12 99  1  0  0  0
 13 14  1  0  0  0
 13 31  1  0  0  0
 14 15  2  0  0  0
 14100  1  0  0  0
 15101  1  0  0  0
 16 17  2  0  0  0
 16 21  1  0  0  0
 16 31  1  0  0  0
 17 18  1  0  0  0
 17102  1  0  0  0
 18 19  2  0  0  0
 18103  1  0  0  0
 19 20  1  0  0  0
 19 24  1  0  0  0
 20 21  2  0  0  0
 20104  1  0  0  0
 21 23  1  0  0  0
 22 28  1  0  0  0
 22 32  2  0  0  0
 26 27  1  0  0  0
 28105  1  0  0  0
 28106  1  0  0  0
 29107  1  0  0  0
 29108  1  0  0  0
 33 34  1  0  0  0
 33 66  1  0  0  0
 33 70  2  0  0  0
 34 36  1  0  0  0
 34 59  1  0  0  0
 34109  1  0  0  0
 35 44  2  0  0  0
 35 45  1  0  0  0
 35 68  1  0  0  0
 36 56  1  0  0  0
 36110  1  0  0  0
 37 39  1  0  0  0
 37 47  1  0  0  0
 37 66  1  0  0  0
 37111  1  0  0  0
 38 43  2  0  0  0
 38 46  1  0  0  0
 38 47  1  0  0  0
 39 64  1  0  0  0
 39 67  2  0  0  0
 40 52  1  0  0  0
 40 53  2  0  0  0
 40 58  1  0  0  0
 41112  1  0  0  0
 41113  1  0  0  0
 41114  1  0  0  0
 41 48  1  0  0  0
 42 43  1  0  0  0
 42 66  1  0  0  0
 42115  1  0  0  0
 42116  1  0  0  0
 43 44  1  0  0  0
 44117  1  0  0  0
 45 46  2  0  0  0
 45118  1  0  0  0
 46119  1  0  0  0
 47120  1  0  0  0
 47121  1  0  0  0
 48 56  1  0  0  0
 48 65  1  0  0  0
 48122  1  0  0  0
 49 50  1  0  0  0
 49 53  1  0  0  0
 49 64  1  0  0  0
 49123  1  0  0  0
 50 51  1  0  0  0
 50124  1  0  0  0
 50125  1  0  0  0
 51 52  1  0  0  0
 51126  1  0  0  0
 51127  1  0  0  0
 52128  1  0  0  0
 52129  1  0  0  0
 53 54  1  0  0  0
 54 55  2  0  0  0
 54130  1  0  0  0
 55 57  1  0  0  0
 55131  1  0  0  0
 56 69  2  0  0  0
 57 58  2  0  0  0
 57132  1  0  0  0
 58133  1  0  0  0
 59 60  1  0  0  0
 59 61  1  0  0  0
 59 62  1  0  0  0
 60134  1  0  0  0
 60135  1  0  0  0
 60136  1  0  0  0
 61137  1  0  0  0
 61138  1  0  0  0
 61139  1  0  0  0
 62140  1  0  0  0
 62141  1  0  0  0
 62142  1  0  0  0
 63 65  1  0  0  0
 63143  1  0  0  0
 63144  1  0  0  0
 63145  1  0  0  0
 64146  1  0  0  0
 65147  1  0  0  0
 68 86  1  0  0  0
 71 73  2  0  0  0
 71 76  1  0  0  0
 71148  1  0  0  0
 72 74  1  0  0  0
 72 76  2  0  0  0
 72149  1  0  0  0
 73 75  1  0  0  0
 73 83  1  0  0  0
 74 75  2  0  0  0
 74 85  1  0  0  0
 75 86  1  0  0  0
 76 88  1  0  0  0
 77 78  1  0  0  0
 77 83  1  0  0  0
 77150  1  0  0  0
 77151  1  0  0  0
 78 83  1  0  0  0
 78152  1  0  0  0
 78153  1  0  0  0
 79 81  1  0  0  0
 79 84  1  0  0  0
 79154  1  0  0  0
 79155  1  0  0  0
 80 82  1  0  0  0
 80 84  1  0  0  0
 80156  1  0  0  0
 80157  1  0  0  0
 81 87  1  0  0  0
 81158  1  0  0  0
 81159  1  0  0  0
 82 87  1  0  0  0
 82160  1  0  0  0
 82161  1  0  0  0
 83162  1  0  0  0
 84 88  1  0  0  0
 84163  1  0  0  0
 85164  1  0  0  0
 85165  1  0  0  0
 85166  1  0  0  0
 86167  1  0  0  0
 86168  1  0  0  0
M  ISO  4   1 100  68 101  86 101  87 100
M  END
> <chiral flag>
0

> <version>
0

> <s_m_source_file>
/data/baiqing/PycharmProjects/Reinvent-master-3.2/result/LINK_invent/BTK/process_docking_weight1_custom_sum_contain_oxygen_bond_distance_aromatic_linkinvent_7_9_3/rearranged_h_0155.sdf

> <i_m_source_file_index>
38

> <r_mmod_Potential_Energy-OPLS-2005>
313.171539306641

> <r_mmod_Stretch_Energy-OPLS-2005>
68.6962661743164

> <r_mmod_Bend_Energy-OPLS-2005>
161.373657226562

> <r_mmod_Torsional_Energy-OPLS-2005>
360.842529296875

> <r_mmod_Improper_Torsional_Energy-OPLS-2005>
3.89200496673584

> <r_mmod_Van_der_Waal_Energy-OPLS-2005>
160.373199462891

> <r_mmod_Electrostatic_Energy-OPLS-2005>
-278.89208984375

> <r_mmod_Solvation_Energy-OPLS-2005>
-198.444030761719

> <b_mmod_Minimization_Converged-OPLS-2005>
0

> <r_mmod_RMS_Derivative-OPLS-2005>
1.31826615333557

$$$$
38
                    3D
 Structure written by MMmdl.
177186  0  0  1  0            999 V2000
  -30.7181  -14.4874   20.4326 C   0  0  0  0  0  0
  -30.3970  -12.2663   19.4448 C   0  0  0  0  0  0
  -29.5026  -12.4913   18.2099 C   0  0  0  0  0  0
  -28.0133  -12.3712   18.6037 C   0  0  0  0  0  0
  -27.6501  -13.2173   19.8586 C   0  0  2  0  0  0
  -28.6983  -13.0637   20.9888 C   0  0  0  0  0  0
  -25.2517  -13.8095   20.5618 C   0  0  0  0  0  0
  -24.1796  -13.0328   20.9164 C   0  0  0  0  0  0
  -24.6429  -11.6818   20.8765 C   0  0  0  0  0  0
  -23.9156  -10.4209   21.0445 C   0  0  0  0  0  0
  -24.3677   -9.4133   21.9245 C   0  0  0  0  0  0
  -23.6303   -8.2190   22.0801 C   0  0  0  0  0  0
  -22.4315   -8.0237   21.3557 C   0  0  0  0  0  0
  -21.9969   -9.0253   20.4703 C   0  0  0  0  0  0
  -22.7316  -10.2111   20.3150 C   0  0  0  0  0  0
  -21.6839   -6.0714   22.5290 C   0  0  0  0  0  0
  -21.3999   -6.5651   23.8210 C   0  0  0  0  0  0
  -21.3660   -5.6824   24.9175 C   0  0  0  0  0  0
  -21.6039   -4.3074   24.7264 C   0  0  0  0  0  0
  -21.8799   -3.8156   23.4412 C   0  0  0  0  0  0
  -21.9171   -4.6943   22.3455 C   0  0  0  0  0  0
  -22.7845  -13.5181   21.1816 C   0  0  0  0  0  0
  -22.1622   -4.2099   21.1028 F   0  0  0  0  0  0
  -21.5677   -3.4579   25.7805 F   0  0  0  0  0  0
  -30.0316  -13.3129   20.4147 N   0  0  0  0  0  0
  -26.2960  -12.9308   20.3262 N   0  0  0  0  0  0
  -25.9352  -11.6473   20.5759 N   0  0  0  0  0  0
  -22.0487  -12.8167   22.0406 N   0  0  0  0  0  0
  -25.4102  -15.1797   20.3948 N   0  0  0  0  0  0
  -31.8923  -14.5603   20.0737 O   0  0  0  0  0  0
  -21.6659   -6.8857   21.4254 O   0  0  0  0  0  0
  -22.3559  -14.5507   20.6727 O   0  0  0  0  0  0
  -24.6176  -31.8683   23.2086 C   0  0  0  0  0  0
  -25.9047  -32.4864   23.8382 C   0  0  1  0  0  0
  -27.2577  -27.4209   20.0816 C   0  0  0  0  0  0
  -25.5903  -33.8649   24.2348 N   0  0  0  0  0  0
  -23.4115  -30.4822   21.5478 C   0  0  2  0  0  0
  -24.8634  -28.9480   20.1140 C   0  0  0  0  0  0
  -22.7488  -29.4603   22.4982 C   0  0  0  0  0  0
  -18.0296  -28.1392   22.8549 C   0  0  0  0  0  0
  -24.1477  -36.7273   23.2634 C   0  0  0  0  0  0
  -25.9417  -30.8228   21.3702 C   0  0  0  0  0  0
  -26.0188  -29.4496   20.7261 C   0  0  0  0  0  0
  -27.2108  -28.6859   20.7207 C   0  0  0  0  0  0
  -26.0814  -26.9364   19.4692 C   0  0  0  0  0  0
  -24.8957  -27.6961   19.4729 C   0  0  0  0  0  0
  -23.6262  -29.8159   20.1605 C   0  0  0  0  0  0
  -25.4093  -36.3113   24.0364 C   0  0  1  0  0  0
  -20.5888  -28.3661   23.1353 C   0  0  2  0  0  0
  -20.6733  -26.9385   22.5450 C   0  0  0  0  0  0
  -19.5690  -26.6402   21.5254 C   0  0  0  0  0  0
  -18.1896  -26.7944   22.1677 C   0  0  0  0  0  0
  -19.1553  -28.8857   23.2941 C   0  0  0  0  0  0
  -18.9433  -30.1448   23.8962 C   0  0  0  0  0  0
  -17.6425  -30.6578   24.0560 C   0  0  0  0  0  0
  -25.9039  -34.9508   23.5147 C   0  0  0  0  0  0
  -16.5327  -29.9088   23.6290 C   0  0  0  0  0  0
  -16.7290  -28.6506   23.0355 C   0  0  0  0  0  0
  -26.4511  -31.6614   25.0675 C   0  0  0  0  0  0
  -25.3783  -31.3680   26.1412 C   0  0  0  0  0  0
  -27.0283  -30.3057   24.5991 C   0  0  0  0  0  0
  -27.6122  -32.4320   25.7397 C   0  0  0  0  0  0
  -27.5591  -37.1800   24.8488 C   0  0  0  0  0  0
  -21.4204  -29.2995   22.3776 N   0  0  0  0  0  0
  -26.4285  -37.3776   23.9451 N   0  0  0  0  0  0
  -24.6730  -31.0748   22.0985 N   0  0  0  0  0  0
  -23.4244  -28.8154   23.3046 O   0  0  0  0  0  0
  -28.4376  -26.6971   20.0844 O   0  0  0  0  0  0
  -26.5590  -34.8949   22.4696 O   0  0  0  0  0  0
  -23.5358  -32.1469   23.7430 O   0  0  0  0  0  0
  -28.8742  -23.5193   17.9864 C   0  0  0  0  0  0
  -27.9190  -22.2281   20.2759 C   0  0  0  0  0  0
  -28.7209  -22.1179   17.9869 C   0  0  0  0  0  0
  -28.2207  -21.4595   19.1277 C   0  0  0  0  0  0
  -28.5362  -24.3051   19.1117 C   0  0  0  0  0  0
  -28.0574  -23.6511   20.2784 C   0  0  0  0  0  0
  -29.0705  -21.2994   16.7574 C   0  0  0  0  0  0
  -27.9906  -20.2451   16.4291 C   0  0  0  0  0  0
  -27.9500  -19.9421   19.0418 C   0  0  1  0  0  0
  -27.2622  -19.6311   17.6614 C   0  0  2  0  0  0
  -25.6986  -18.1397   16.2728 C   0  0  0  0  0  0
  -31.6222  -17.5585   20.2719 C   0  0  0  0  0  0
  -27.0844  -23.8371   22.4660 C   0  0  0  0  0  0
  -28.7298  -25.8303   18.9689 C   0  0  0  0  0  0
  -29.0689  -17.9129   20.0623 C   0  0  0  0  0  0
  -26.7159  -18.1902   17.4346 C   0  0  1  0  0  0
  -30.2587  -16.9144   19.8854 C   0  0  2  0  0  0
  -29.9776  -15.6119   20.5626 N   0  0  0  0  0  0
  -29.2016  -19.1719   19.2638 N   0  3  0  0  0  0
  -27.7940  -17.2912   17.2030 O   0  0  0  0  0  0
  -27.7273  -24.4411   21.3583 O   0  0  0  0  0  0
  -31.4546  -12.2813   19.1661 H   0  0  0  0  0  0
  -30.2078  -11.2765   19.8634 H   0  0  0  0  0  0
  -29.7462  -11.7675   17.4338 H   0  0  0  0  0  0
  -29.6973  -13.4770   17.7758 H   0  0  0  0  0  0
  -27.8041  -11.3186   18.7969 H   0  0  0  0  0  0
  -27.3785  -12.6484   17.7626 H   0  0  0  0  0  0
  -27.6647  -14.2583   19.5416 H   0  0  0  0  0  0
  -28.6632  -12.0603   21.4144 H   0  0  0  0  0  0
  -28.4820  -13.7467   21.8136 H   0  0  0  0  0  0
  -25.2821   -9.5596   22.4799 H   0  0  0  0  0  0
  -24.0008   -7.4597   22.7522 H   0  0  0  0  0  0
  -21.0937   -8.8840   19.8996 H   0  0  0  0  0  0
  -22.3799  -10.9704   19.6327 H   0  0  0  0  0  0
  -21.1992   -7.6161   23.9680 H   0  0  0  0  0  0
  -21.1542   -6.0587   25.9071 H   0  0  0  0  0  0
  -22.0616   -2.7617   23.2965 H   0  0  0  0  0  0
  -22.4058  -11.9834   22.4819 H   0  0  0  0  0  0
  -21.1161  -13.1285   22.2696 H   0  0  0  0  0  0
  -24.6185  -15.8064   20.4907 H   0  0  0  0  0  0
  -26.2382  -15.6324   20.0319 H   0  0  0  0  0  0
  -26.7109  -32.5638   23.1132 H   0  0  0  0  0  0
  -25.0041  -33.9780   25.0494 H   0  0  0  0  0  0
  -22.7046  -31.2997   21.4116 H   0  0  0  0  0  0
  -23.3745  -35.9586   23.3326 H   0  0  0  0  0  0
  -24.3575  -36.8829   22.2037 H   0  0  0  0  0  0
  -23.7191  -37.6483   23.6610 H   0  0  0  0  0  0
  -26.0440  -31.5794   20.5893 H   0  0  0  0  0  0
  -26.8359  -30.8998   21.9798 H   0  0  0  0  0  0
  -28.1033  -29.0646   21.1959 H   0  0  0  0  0  0
  -26.0788  -25.9685   18.9818 H   0  0  0  0  0  0
  -24.0204  -27.3212   18.9635 H   0  0  0  0  0  0
  -23.7354  -30.5938   19.4060 H   0  0  0  0  0  0
  -22.7595  -29.2340   19.8495 H   0  0  0  0  0  0
  -25.1236  -36.1979   25.0847 H   0  0  0  0  0  0
  -21.0009  -28.3200   24.1455 H   0  0  0  0  0  0
  -20.5646  -26.2244   23.3642 H   0  0  0  0  0  0
  -21.6587  -26.7405   22.1206 H   0  0  0  0  0  0
  -19.6774  -25.6331   21.1240 H   0  0  0  0  0  0
  -19.6560  -27.3252   20.6828 H   0  0  0  0  0  0
  -17.4145  -26.6800   21.4080 H   0  0  0  0  0  0
  -18.0217  -26.0064   22.9044 H   0  0  0  0  0  0
  -19.7894  -30.7260   24.2403 H   0  0  0  0  0  0
  -17.4950  -31.6266   24.5128 H   0  0  0  0  0  0
  -15.5323  -30.2967   23.7560 H   0  0  0  0  0  0
  -15.8716  -28.0803   22.7033 H   0  0  0  0  0  0
  -24.6000  -30.6995   25.7707 H   0  0  0  0  0  0
  -24.8915  -32.2805   26.4883 H   0  0  0  0  0  0
  -25.8138  -30.8831   27.0159 H   0  0  0  0  0  0
  -26.2772  -29.6888   24.1048 H   0  0  0  0  0  0
  -27.4066  -29.7226   25.4391 H   0  0  0  0  0  0
  -27.8618  -30.4354   23.9069 H   0  0  0  0  0  0
  -27.2809  -33.3642   26.1977 H   0  0  0  0  0  0
  -28.3888  -32.6872   25.0168 H   0  0  0  0  0  0
  -28.0843  -31.8447   26.5280 H   0  0  0  0  0  0
  -28.2622  -38.0093   24.7516 H   0  0  0  0  0  0
  -28.1097  -36.2635   24.6322 H   0  0  0  0  0  0
  -27.2358  -37.1430   25.8907 H   0  0  0  0  0  0
  -20.9461  -29.8764   21.6983 H   0  0  0  0  0  0
  -26.0205  -38.2868   24.1418 H   0  0  0  0  0  0
  -29.2418  -24.0123   17.0951 H   0  0  0  0  0  0
  -27.5574  -21.7053   21.1481 H   0  0  0  0  0  0
  -30.0237  -20.8049   16.9486 H   0  0  0  0  0  0
  -29.2431  -21.9436   15.8950 H   0  0  0  0  0  0
  -28.4063  -19.4873   15.7694 H   0  0  0  0  0  0
  -27.2295  -20.7363   15.8230 H   0  0  0  0  0  0
  -27.2522  -19.6860   19.8364 H   0  0  0  0  0  0
  -26.3446  -20.2202   17.7344 H   0  0  0  0  0  0
  -24.8499  -18.7878   16.4987 H   0  0  0  0  0  0
  -25.2899  -17.1436   16.0991 H   0  0  0  0  0  0
  -26.1140  -18.4915   15.3286 H   0  0  0  0  0  0
  -31.8014  -18.4772   19.7084 H   0  0  0  0  0  0
  -32.4777  -16.9289   20.0242 H   0  0  0  0  0  0
  -31.6924  -17.8006   21.3339 H   0  0  0  0  0  0
  -26.7879  -24.6179   23.1641 H   0  0  0  0  0  0
  -27.7619  -23.1649   22.9928 H   0  0  0  0  0  0
  -26.1837  -23.3007   22.1706 H   0  0  0  0  0  0
  -28.1973  -26.1575   18.0736 H   0  0  0  0  0  0
  -29.7848  -25.9803   18.7395 H   0  0  0  0  0  0
  -28.9462  -18.1734   21.1146 H   0  0  0  0  0  0
  -28.1492  -17.4160   19.7624 H   0  0  0  0  0  0
  -26.1916  -17.8648   18.3370 H   0  0  0  0  0  0
  -30.3244  -16.6699   18.8225 H   0  0  0  0  0  0
  -29.0271  -15.4504   20.8612 H   0  0  0  0  0  0
  -29.8462  -19.7873   19.7340 H   0  0  0  0  0  0
  -29.5794  -18.9616   18.3545 H   0  0  0  0  0  0
  -27.4827  -16.3959   17.3241 H   0  0  0  0  0  0
  1 25  1  0  0  0
  1 30  2  0  0  0
  1 88  1  0  0  0
  2  3  1  0  0  0
  2 25  1  0  0  0
  2 92  1  0  0  0
  2 93  1  0  0  0
  3  4  1  0  0  0
  3 94  1  0  0  0
  3 95  1  0  0  0
  4  5  1  0  0  0
  4 96  1  0  0  0
  4 97  1  0  0  0
  5  6  1  0  0  0
  5 26  1  0  0  0
  5 98  1  0  0  0
  6 25  1  0  0  0
  6 99  1  0  0  0
  6100  1  0  0  0
  7  8  2  0  0  0
  7 26  1  0  0  0
  7 29  1  0  0  0
  8  9  1  0  0  0
  8 22  1  0  0  0
  9 10  1  0  0  0
  9 27  2  0  0  0
 10 11  2  0  0  0
 10 15  1  0  0  0
 11 12  1  0  0  0
 11101  1  0  0  0
 12 13  2  0  0  0
 12102  1  0  0  0
 13 14  1  0  0  0
 13 31  1  0  0  0
 14 15  2  0  0  0
 14103  1  0  0  0
 15104  1  0  0  0
 16 17  2  0  0  0
 16 21  1  0  0  0
 16 31  1  0  0  0
 17 18  1  0  0  0
 17105  1  0  0  0
 18 19  2  0  0  0
 18106  1  0  0  0
 19 20  1  0  0  0
 19 24  1  0  0  0
 20 21  2  0  0  0
 20107  1  0  0  0
 21 23  1  0  0  0
 22 28  1  0  0  0
 22 32  2  0  0  0
 26 27  1  0  0  0
 28108  1  0  0  0
 28109  1  0  0  0
 29110  1  0  0  0
 29111  1  0  0  0
 33 34  1  0  0  0
 33 66  1  0  0  0
 33 70  2  0  0  0
 34 36  1  0  0  0
 34 59  1  0  0  0
 34112  1  0  0  0
 35 44  2  0  0  0
 35 45  1  0  0  0
 35 68  1  0  0  0
 36 56  1  0  0  0
 36113  1  0  0  0
 37 39  1  0  0  0
 37 47  1  0  0  0
 37 66  1  0  0  0
 37114  1  0  0  0
 38 43  2  0  0  0
 38 46  1  0  0  0
 38 47  1  0  0  0
 39 64  1  0  0  0
 39 67  2  0  0  0
 40 52  1  0  0  0
 40 53  2  0  0  0
 40 58  1  0  0  0
 41115  1  0  0  0
 41116  1  0  0  0
 41117  1  0  0  0
 41 48  1  0  0  0
 42 43  1  0  0  0
 42 66  1  0  0  0
 42118  1  0  0  0
 42119  1  0  0  0
 43 44  1  0  0  0
 44120  1  0  0  0
 45 46  2  0  0  0
 45121  1  0  0  0
 46122  1  0  0  0
 47123  1  0  0  0
 47124  1  0  0  0
 48 56  1  0  0  0
 48 65  1  0  0  0
 48125  1  0  0  0
 49 50  1  0  0  0
 49 53  1  0  0  0
 49 64  1  0  0  0
 49126  1  0  0  0
 50 51  1  0  0  0
 50127  1  0  0  0
 50128  1  0  0  0
 51 52  1  0  0  0
 51129  1  0  0  0
 51130  1  0  0  0
 52131  1  0  0  0
 52132  1  0  0  0
 53 54  1  0  0  0
 54 55  2  0  0  0
 54133  1  0  0  0
 55 57  1  0  0  0
 55134  1  0  0  0
 56 69  2  0  0  0
 57 58  2  0  0  0
 57135  1  0  0  0
 58136  1  0  0  0
 59 60  1  0  0  0
 59 61  1  0  0  0
 59 62  1  0  0  0
 60137  1  0  0  0
 60138  1  0  0  0
 60139  1  0  0  0
 61140  1  0  0  0
 61141  1  0  0  0
 61142  1  0  0  0
 62143  1  0  0  0
 62144  1  0  0  0
 62145  1  0  0  0
 63 65  1  0  0  0
 63146  1  0  0  0
 63147  1  0  0  0
 63148  1  0  0  0
 64149  1  0  0  0
 65150  1  0  0  0
 68 84  1  0  0  0
 71 73  2  0  0  0
 71 75  1  0  0  0
 71151  1  0  0  0
 72 74  2  0  0  0
 72 76  1  0  0  0
 72152  1  0  0  0
 73 74  1  0  0  0
 73 77  1  0  0  0
 74 79  1  0  0  0
 75 76  2  0  0  0
 75 84  1  0  0  0
 76 91  1  0  0  0
 77 78  1  0  0  0
 77153  1  0  0  0
 77154  1  0  0  0
 78155  1  0  0  0
 78156  1  0  0  0
 78 80  1  0  0  0
 79 80  1  0  0  0
 79 89  1  0  0  0
 79157  1  0  0  0
 80 86  1  0  0  0
 80158  1  0  0  0
 81159  1  0  0  0
 81160  1  0  0  0
 81161  1  0  0  0
 81 86  1  0  0  0
 82162  1  0  0  0
 82163  1  0  0  0
 82164  1  0  0  0
 82 87  1  0  0  0
 83 91  1  0  0  0
 83165  1  0  0  0
 83166  1  0  0  0
 83167  1  0  0  0
 84168  1  0  0  0
 84169  1  0  0  0
 85 87  1  0  0  0
 85 89  1  0  0  0
 85170  1  0  0  0
 85171  1  0  0  0
 86 90  1  0  0  0
 86172  1  0  0  0
 87 88  1  0  0  0
 87173  1  0  0  0
 88174  1  0  0  0
 89175  1  0  0  0
 89176  1  0  0  0
 90177  1  0  0  0
M  CHG  1  89   1
M  ISO  4   1 100  68 101  84 101  88 100
M  END
> <chiral flag>
0

> <version>
0

> <s_m_source_file>
/data/baiqing/PycharmProjects/Reinvent-master-3.2/result/LINK_invent/BTK/process_docking_weight1_custom_sum_contain_oxygen_bond_distance_aromatic_linkinvent_7_9_3/rearranged_h_0155.sdf

> <i_m_source_file_index>
39

> <r_mmod_Potential_Energy-OPLS-2005>
-165.643447875977

> <r_mmod_Stretch_Energy-OPLS-2005>
51.3963012695312

> <r_mmod_Bend_Energy-OPLS-2005>
136.668975830078

> <r_mmod_Torsional_Energy-OPLS-2005>
273.572540283203

> <r_mmod_Improper_Torsional_Energy-OPLS-2005>
9.22311496734619

> <r_mmod_Van_der_Waal_Energy-OPLS-2005>
153.801651000977

> <r_mmod_Electrostatic_Energy-OPLS-2005>
-337.946807861328

> <r_mmod_Solvation_Energy-OPLS-2005>
-474.724395751953

> <b_mmod_Minimization_Converged-OPLS-2005>
0

> <r_mmod_RMS_Derivative-OPLS-2005>
7.85996532440186

$$$$
39
                    3D
 Structure written by MMmdl.
182192  0  0  1  0            999 V2000
  -30.7158  -14.3987   20.5752 C   0  0  0  0  0  0
  -30.4256  -12.2663   19.3824 C   0  0  0  0  0  0
  -29.4727  -12.4712   18.1875 C   0  0  0  0  0  0
  -27.9993  -12.3397   18.6220 C   0  0  0  0  0  0
  -27.6627  -13.1765   19.8830 C   0  0  2  0  0  0
  -28.7155  -12.9217   20.9855 C   0  0  0  0  0  0
  -25.2608  -13.8086   20.5696 C   0  0  0  0  0  0
  -24.1812  -13.0385   20.9197 C   0  0  0  0  0  0
  -24.6337  -11.6855   20.8799 C   0  0  0  0  0  0
  -23.8980  -10.4271   21.0437 C   0  0  0  0  0  0
  -24.3533   -9.4197   21.9218 C   0  0  0  0  0  0
  -23.6225   -8.2223   22.0759 C   0  0  0  0  0  0
  -22.4213   -8.0262   21.3554 C   0  0  0  0  0  0
  -21.9837   -9.0229   20.4660 C   0  0  0  0  0  0
  -22.7164  -10.2112   20.3068 C   0  0  0  0  0  0
  -21.6833   -6.0747   22.5303 C   0  0  0  0  0  0
  -21.4000   -6.5668   23.8236 C   0  0  0  0  0  0
  -21.3628   -5.6818   24.9202 C   0  0  0  0  0  0
  -21.6037   -4.3080   24.7241 C   0  0  0  0  0  0
  -21.8818   -3.8168   23.4365 C   0  0  0  0  0  0
  -21.9165   -4.6974   22.3418 C   0  0  0  0  0  0
  -22.7842  -13.5208   21.1849 C   0  0  0  0  0  0
  -22.1595   -4.2155   21.0989 F   0  0  0  0  0  0
  -21.5634   -3.4551   25.7741 F   0  0  0  0  0  0
  -30.0445  -13.2276   20.4250 N   0  0  0  0  0  0
  -26.3031  -12.9188   20.3490 N   0  0  0  0  0  0
  -25.9273  -11.6376   20.5906 N   0  0  0  0  0  0
  -22.0458  -12.8229   22.0419 N   0  0  0  0  0  0
  -25.4364  -15.1798   20.4098 N   0  0  0  0  0  0
  -31.8384  -14.6046   20.1028 O   0  0  0  0  0  0
  -21.6585   -6.8865   21.4262 O   0  0  0  0  0  0
  -22.3537  -14.5510   20.6705 O   0  0  0  0  0  0
  -24.6082  -31.8712   23.2128 C   0  0  0  0  0  0
  -25.8999  -32.4840   23.8409 C   0  0  1  0  0  0
  -27.2643  -27.5027   20.0783 C   0  0  0  0  0  0
  -25.5874  -33.8633   24.2351 N   0  0  0  0  0  0
  -23.3937  -30.4918   21.5516 C   0  0  2  0  0  0
  -24.8449  -28.9571   20.1220 C   0  0  0  0  0  0
  -22.7381  -29.4666   22.5027 C   0  0  0  0  0  0
  -18.0264  -28.1394   22.8481 C   0  0  0  0  0  0
  -24.1458  -36.7293   23.2649 C   0  0  0  0  0  0
  -25.9141  -30.8534   21.3580 C   0  0  0  0  0  0
  -25.9957  -29.4889   20.7158 C   0  0  0  0  0  0
  -27.2024  -28.7663   20.7032 C   0  0  0  0  0  0
  -26.0909  -26.9532   19.5204 C   0  0  0  0  0  0
  -24.8824  -27.6808   19.5293 C   0  0  0  0  0  0
  -23.6003  -29.8152   20.1683 C   0  0  0  0  0  0
  -25.4084  -36.3120   24.0357 C   0  0  1  0  0  0
  -20.5852  -28.3651   23.1334 C   0  0  2  0  0  0
  -20.6746  -26.9387   22.5446 C   0  0  0  0  0  0
  -19.5753  -26.6380   21.5219 C   0  0  0  0  0  0
  -18.1904  -26.7959   22.1570 C   0  0  0  0  0  0
  -19.1513  -28.8837   23.2908 C   0  0  0  0  0  0
  -18.9455  -30.1444   23.8910 C   0  0  0  0  0  0
  -17.6462  -30.6586   24.0584 C   0  0  0  0  0  0
  -25.9015  -34.9487   23.5149 C   0  0  0  0  0  0
  -16.5342  -29.9096   23.6358 C   0  0  0  0  0  0
  -16.7248  -28.6523   23.0343 C   0  0  0  0  0  0
  -26.4446  -31.6615   25.0724 C   0  0  0  0  0  0
  -25.3729  -31.3715   26.1491 C   0  0  0  0  0  0
  -27.0274  -30.3069   24.6073 C   0  0  0  0  0  0
  -27.6029  -32.4335   25.7481 C   0  0  0  0  0  0
  -27.5573  -37.1805   24.8471 C   0  0  0  0  0  0
  -21.4117  -29.3015   22.3739 N   0  0  0  0  0  0
  -26.4276  -37.3804   23.9425 N   0  0  0  0  0  0
  -24.6559  -31.0854   22.1000 N   0  0  0  0  0  0
  -23.4172  -28.8234   23.3069 O   0  0  0  0  0  0
  -28.4431  -26.8034   19.9789 O   0  0  0  0  0  0
  -26.5577  -34.8941   22.4711 O   0  0  0  0  0  0
  -23.5291  -32.1444   23.7569 O   0  0  0  0  0  0
  -32.7556  -21.0845   21.6980 C   0  0  0  0  0  0
  -30.4549  -21.8074   21.9720 C   0  0  0  0  0  0
  -31.8159  -22.1286   21.7873 C   0  0  0  0  0  0
  -32.3383  -19.7359   21.6921 C   0  0  0  0  0  0
  -30.9545  -19.4157   21.7954 C   0  0  0  0  0  0
  -30.0081  -20.4646   21.9847 C   0  0  0  0  0  0
  -31.7854  -23.9593   20.1034 C   0  0  0  0  0  0
  -31.7137  -24.5745   22.6098 C   0  0  0  0  0  0
  -30.6908  -17.1232   22.7056 C   0  0  0  0  0  0
  -29.4279  -17.8468   20.6836 C   0  0  0  0  0  0
  -29.9606  -15.7867   22.4304 C   0  0  0  0  0  0
  -29.5994  -16.4737   20.0339 C   0  0  0  0  0  0
  -31.8731  -25.4604   19.8114 C   0  0  0  0  0  0
  -31.7691  -26.0498   22.1614 C   0  0  0  0  0  0
  -32.2359  -23.5781   21.5346 C   0  0  1  0  0  0
  -33.4002  -18.6597   21.5005 C   0  0  0  0  0  0
  -27.6949  -21.1651   22.0880 C   0  0  0  0  0  0
  -30.7066  -27.5735   20.4820 C   0  0  0  0  0  0
  -29.5544  -27.5522   19.4605 C   0  0  0  0  0  0
  -30.5267  -18.0814   21.6134 N   0  0  0  0  0  0
  -29.9506  -15.4172   21.0029 N   0  0  0  0  0  0
  -31.1018  -26.1916   20.8460 N   0  3  1  0  0  0
  -28.6743  -20.1349   22.1557 O   0  0  0  0  0  0
  -31.4594  -12.3830   19.0522 H   0  0  0  0  0  0
  -30.3487  -11.2482   19.7666 H   0  0  0  0  0  0
  -29.6864  -11.7426   17.4039 H   0  0  0  0  0  0
  -29.6343  -13.4542   17.7468 H   0  0  0  0  0  0
  -27.8126  -11.2853   18.8275 H   0  0  0  0  0  0
  -27.3306  -12.6061   17.8027 H   0  0  0  0  0  0
  -27.7114  -14.2224   19.5955 H   0  0  0  0  0  0
  -28.6896  -11.8782   21.3020 H   0  0  0  0  0  0
  -28.4897  -13.5021   21.8779 H   0  0  0  0  0  0
  -25.2677   -9.5663   22.4803 H   0  0  0  0  0  0
  -23.9940   -7.4594   22.7454 H   0  0  0  0  0  0
  -21.0757   -8.8733   19.8967 H   0  0  0  0  0  0
  -22.3631  -10.9618   19.6135 H   0  0  0  0  0  0
  -21.2009   -7.6185   23.9727 H   0  0  0  0  0  0
  -21.1398   -6.0571   25.9089 H   0  0  0  0  0  0
  -22.0603   -2.7627   23.2885 H   0  0  0  0  0  0
  -22.3981  -11.9845   22.4795 H   0  0  0  0  0  0
  -21.1121  -13.1379   22.2633 H   0  0  0  0  0  0
  -24.6807  -15.8469   20.5271 H   0  0  0  0  0  0
  -26.3166  -15.6200   20.1723 H   0  0  0  0  0  0
  -26.7069  -32.5568   23.1174 H   0  0  0  0  0  0
  -25.0096  -33.9799   25.0542 H   0  0  0  0  0  0
  -22.6796  -31.3055   21.4106 H   0  0  0  0  0  0
  -23.3744  -35.9604   23.3332 H   0  0  0  0  0  0
  -24.3561  -36.8881   22.2058 H   0  0  0  0  0  0
  -23.7176  -37.6489   23.6641 H   0  0  0  0  0  0
  -26.0159  -31.6161   20.5852 H   0  0  0  0  0  0
  -26.8037  -30.9126   21.9720 H   0  0  0  0  0  0
  -28.0858  -29.1913   21.1570 H   0  0  0  0  0  0
  -26.1203  -25.9782   19.0543 H   0  0  0  0  0  0
  -23.9949  -27.2597   19.0765 H   0  0  0  0  0  0
  -23.6982  -30.5853   19.4023 H   0  0  0  0  0  0
  -22.7277  -29.2252   19.8792 H   0  0  0  0  0  0
  -25.1272  -36.1982   25.0854 H   0  0  0  0  0  0
  -20.9929  -28.3223   24.1460 H   0  0  0  0  0  0
  -20.5610  -26.2267   23.3642 H   0  0  0  0  0  0
  -21.6626  -26.7413   22.1259 H   0  0  0  0  0  0
  -19.6901  -25.6290   21.1254 H   0  0  0  0  0  0
  -19.6748  -27.3198   20.6765 H   0  0  0  0  0  0
  -17.4218  -26.6778   21.3920 H   0  0  0  0  0  0
  -18.0226  -26.0067   22.8912 H   0  0  0  0  0  0
  -19.7940  -30.7260   24.2267 H   0  0  0  0  0  0
  -17.5026  -31.6274   24.5182 H   0  0  0  0  0  0
  -15.5350  -30.3000   23.7699 H   0  0  0  0  0  0
  -15.8645  -28.0860   22.7052 H   0  0  0  0  0  0
  -24.6006  -30.6897   25.7901 H   0  0  0  0  0  0
  -24.8777  -32.2842   26.4814 H   0  0  0  0  0  0
  -25.8129  -30.9064   27.0322 H   0  0  0  0  0  0
  -26.2807  -29.6824   24.1144 H   0  0  0  0  0  0
  -27.4083  -29.7300   25.4510 H   0  0  0  0  0  0
  -27.8622  -30.4400   23.9187 H   0  0  0  0  0  0
  -27.2647  -33.3615   26.2097 H   0  0  0  0  0  0
  -28.3822  -32.6920   25.0297 H   0  0  0  0  0  0
  -28.0716  -31.8439   26.5368 H   0  0  0  0  0  0
  -28.2629  -38.0064   24.7487 H   0  0  0  0  0  0
  -28.1027  -36.2608   24.6317 H   0  0  0  0  0  0
  -27.2314  -37.1474   25.8883 H   0  0  0  0  0  0
  -20.9277  -29.8701   21.6932 H   0  0  0  0  0  0
  -26.0175  -38.2881   24.1462 H   0  0  0  0  0  0
  -33.8026  -21.3197   21.5663 H   0  0  0  0  0  0
  -29.7447  -22.6148   22.0485 H   0  0  0  0  0  0
  -32.3721  -23.4041   19.3703 H   0  0  0  0  0  0
  -30.7505  -23.6538   19.9444 H   0  0  0  0  0  0
  -30.6786  -24.3635   22.8689 H   0  0  0  0  0  0
  -32.2799  -24.4525   23.5345 H   0  0  0  0  0  0
  -31.7528  -16.9082   22.8192 H   0  0  0  0  0  0
  -30.3577  -17.5484   23.6512 H   0  0  0  0  0  0
  -28.4748  -17.8734   21.2162 H   0  0  0  0  0  0
  -29.3806  -18.6228   19.9173 H   0  0  0  0  0  0
  -28.9225  -15.8645   22.7544 H   0  0  0  0  0  0
  -30.4023  -14.9952   23.0420 H   0  0  0  0  0  0
  -30.3784  -16.5568   19.2740 H   0  0  0  0  0  0
  -28.6950  -16.2058   19.4915 H   0  0  0  0  0  0
  -31.4873  -25.6400   18.8092 H   0  0  0  0  0  0
  -32.9112  -25.7976   19.7976 H   0  0  0  0  0  0
  -32.8004  -26.4012   22.0996 H   0  0  0  0  0  0
  -31.2781  -26.6717   22.9110 H   0  0  0  0  0  0
  -33.3268  -23.6366   21.5555 H   0  0  0  0  0  0
  -33.5290  -18.0841   22.4148 H   0  0  0  0  0  0
  -34.3693  -19.0922   21.2544 H   0  0  0  0  0  0
  -33.1326  -17.9805   20.6905 H   0  0  0  0  0  0
  -26.6965  -20.7263   22.1219 H   0  0  0  0  0  0
  -27.7762  -21.7302   21.1574 H   0  0  0  0  0  0
  -27.7778  -21.8554   22.9292 H   0  0  0  0  0  0
  -30.3645  -28.1075   21.3699 H   0  0  0  0  0  0
  -31.5601  -28.1332   20.0975 H   0  0  0  0  0  0
  -29.8661  -27.0775   18.5319 H   0  0  0  0  0  0
  -29.2941  -28.5714   19.1707 H   0  0  0  0  0  0
  -30.2121  -25.7201   20.9359 H   0  0  0  0  0  0
  1 25  1  0  0  0
  1 30  2  0  0  0
  1 91  1  0  0  0
  2  3  1  0  0  0
  2 25  1  0  0  0
  2 94  1  0  0  0
  2 95  1  0  0  0
  3  4  1  0  0  0
  3 96  1  0  0  0
  3 97  1  0  0  0
  4  5  1  0  0  0
  4 98  1  0  0  0
  4 99  1  0  0  0
  5  6  1  0  0  0
  5 26  1  0  0  0
  5100  1  0  0  0
  6 25  1  0  0  0
  6101  1  0  0  0
  6102  1  0  0  0
  7  8  2  0  0  0
  7 26  1  0  0  0
  7 29  1  0  0  0
  8  9  1  0  0  0
  8 22  1  0  0  0
  9 10  1  0  0  0
  9 27  2  0  0  0
 10 11  2  0  0  0
 10 15  1  0  0  0
 11 12  1  0  0  0
 11103  1  0  0  0
 12 13  2  0  0  0
 12104  1  0  0  0
 13 14  1  0  0  0
 13 31  1  0  0  0
 14 15  2  0  0  0
 14105  1  0  0  0
 15106  1  0  0  0
 16 17  2  0  0  0
 16 21  1  0  0  0
 16 31  1  0  0  0
 17 18  1  0  0  0
 17107  1  0  0  0
 18 19  2  0  0  0
 18108  1  0  0  0
 19 20  1  0  0  0
 19 24  1  0  0  0
 20 21  2  0  0  0
 20109  1  0  0  0
 21 23  1  0  0  0
 22 28  1  0  0  0
 22 32  2  0  0  0
 26 27  1  0  0  0
 28110  1  0  0  0
 28111  1  0  0  0
 29112  1  0  0  0
 29113  1  0  0  0
 33 34  1  0  0  0
 33 66  1  0  0  0
 33 70  2  0  0  0
 34 36  1  0  0  0
 34 59  1  0  0  0
 34114  1  0  0  0
 35 44  2  0  0  0
 35 45  1  0  0  0
 35 68  1  0  0  0
 36 56  1  0  0  0
 36115  1  0  0  0
 37 39  1  0  0  0
 37 47  1  0  0  0
 37 66  1  0  0  0
 37116  1  0  0  0
 38 43  2  0  0  0
 38 46  1  0  0  0
 38 47  1  0  0  0
 39 64  1  0  0  0
 39 67  2  0  0  0
 40 52  1  0  0  0
 40 53  2  0  0  0
 40 58  1  0  0  0
 41117  1  0  0  0
 41118  1  0  0  0
 41119  1  0  0  0
 41 48  1  0  0  0
 42 43  1  0  0  0
 42 66  1  0  0  0
 42120  1  0  0  0
 42121  1  0  0  0
 43 44  1  0  0  0
 44122  1  0  0  0
 45 46  2  0  0  0
 45123  1  0  0  0
 46124  1  0  0  0
 47125  1  0  0  0
 47126  1  0  0  0
 48 56  1  0  0  0
 48 65  1  0  0  0
 48127  1  0  0  0
 49 50  1  0  0  0
 49 53  1  0  0  0
 49 64  1  0  0  0
 49128  1  0  0  0
 50 51  1  0  0  0
 50129  1  0  0  0
 50130  1  0  0  0
 51 52  1  0  0  0
 51131  1  0  0  0
 51132  1  0  0  0
 52133  1  0  0  0
 52134  1  0  0  0
 53 54  1  0  0  0
 54 55  2  0  0  0
 54135  1  0  0  0
 55 57  1  0  0  0
 55136  1  0  0  0
 56 69  2  0  0  0
 57 58  2  0  0  0
 57137  1  0  0  0
 58138  1  0  0  0
 59 60  1  0  0  0
 59 61  1  0  0  0
 59 62  1  0  0  0
 60139  1  0  0  0
 60140  1  0  0  0
 60141  1  0  0  0
 61142  1  0  0  0
 61143  1  0  0  0
 61144  1  0  0  0
 62145  1  0  0  0
 62146  1  0  0  0
 62147  1  0  0  0
 63 65  1  0  0  0
 63148  1  0  0  0
 63149  1  0  0  0
 63150  1  0  0  0
 64151  1  0  0  0
 65152  1  0  0  0
 68 89  1  0  0  0
 71 73  2  0  0  0
 71 74  1  0  0  0
 71153  1  0  0  0
 72 73  1  0  0  0
 72 76  2  0  0  0
 72154  1  0  0  0
 73 85  1  0  0  0
 74 75  2  0  0  0
 74 86  1  0  0  0
 75 76  1  0  0  0
 75 90  1  0  0  0
 76 93  1  0  0  0
 77 83  1  0  0  0
 77 85  1  0  0  0
 77155  1  0  0  0
 77156  1  0  0  0
 78 84  1  0  0  0
 78 85  1  0  0  0
 78157  1  0  0  0
 78158  1  0  0  0
 79 81  1  0  0  0
 79 90  1  0  0  0
 79159  1  0  0  0
 79160  1  0  0  0
 80 82  1  0  0  0
 80 90  1  0  0  0
 80161  1  0  0  0
 80162  1  0  0  0
 81 91  1  0  0  0
 81163  1  0  0  0
 81164  1  0  0  0
 82 91  1  0  0  0
 82165  1  0  0  0
 82166  1  0  0  0
 83 92  1  0  0  0
 83167  1  0  0  0
 83168  1  0  0  0
 84 92  1  0  0  0
 84169  1  0  0  0
 84170  1  0  0  0
 85171  1  0  0  0
 86172  1  0  0  0
 86173  1  0  0  0
 86174  1  0  0  0
 87 93  1  0  0  0
 87175  1  0  0  0
 87176  1  0  0  0
 87177  1  0  0  0
 88 89  1  0  0  0
 88178  1  0  0  0
 88179  1  0  0  0
 88 92  1  0  0  0
 89180  1  0  0  0
 89181  1  0  0  0
 92182  1  0  0  0
M  CHG  1  92   1
M  ISO  4   1 100  68 101  89 101  91 100
M  END
> <chiral flag>
0

> <version>
0

> <s_m_source_file>
/data/baiqing/PycharmProjects/Reinvent-master-3.2/result/LINK_invent/BTK/process_docking_weight1_custom_sum_contain_oxygen_bond_distance_aromatic_linkinvent_7_9_3/rearranged_h_0155.sdf

> <i_m_source_file_index>
40

> <r_mmod_Potential_Energy-OPLS-2005>
129.467056274414

> <r_mmod_Stretch_Energy-OPLS-2005>
40.3236541748047

> <r_mmod_Bend_Energy-OPLS-2005>
114.658164978027

> <r_mmod_Torsional_Energy-OPLS-2005>
443.753875732422

> <r_mmod_Improper_Torsional_Energy-OPLS-2005>
11.5844964981079

> <r_mmod_Van_der_Waal_Energy-OPLS-2005>
183.38444519043

> <r_mmod_Electrostatic_Energy-OPLS-2005>
-250.499465942383

> <r_mmod_Solvation_Energy-OPLS-2005>
-423.382171630859

> <b_mmod_Minimization_Converged-OPLS-2005>
0

> <r_mmod_RMS_Derivative-OPLS-2005>
3.54420638084412

$$$$
40
                    3D
 Structure written by MMmdl.
180190  0  0  1  0            999 V2000
  -30.6375  -14.6304   20.4982 C   0  0  0  0  0  0
  -30.4272  -12.3908   19.4470 C   0  0  0  0  0  0
  -29.4981  -12.5013   18.2191 C   0  0  0  0  0  0
  -28.0216  -12.3413   18.6345 C   0  0  0  0  0  0
  -27.6444  -13.2141   19.8618 C   0  0  2  0  0  0
  -28.6916  -13.0954   20.9906 C   0  0  0  0  0  0
  -25.2543  -13.8153   20.5727 C   0  0  0  0  0  0
  -24.1810  -13.0422   20.9189 C   0  0  0  0  0  0
  -24.6373  -11.6899   20.8754 C   0  0  0  0  0  0
  -23.9053  -10.4284   21.0417 C   0  0  0  0  0  0
  -24.3615   -9.4203   21.9184 C   0  0  0  0  0  0
  -23.6289   -8.2242   22.0760 C   0  0  0  0  0  0
  -22.4272   -8.0280   21.3555 C   0  0  0  0  0  0
  -21.9903   -9.0250   20.4658 C   0  0  0  0  0  0
  -22.7233  -10.2123   20.3072 C   0  0  0  0  0  0
  -21.6857   -6.0741   22.5290 C   0  0  0  0  0  0
  -21.4014   -6.5648   23.8221 C   0  0  0  0  0  0
  -21.3661   -5.6805   24.9186 C   0  0  0  0  0  0
  -21.6040   -4.3065   24.7237 C   0  0  0  0  0  0
  -21.8825   -3.8158   23.4363 C   0  0  0  0  0  0
  -21.9197   -4.6965   22.3410 C   0  0  0  0  0  0
  -22.7843  -13.5223   21.1859 C   0  0  0  0  0  0
  -22.1667   -4.2156   21.0988 F   0  0  0  0  0  0
  -21.5622   -3.4553   25.7755 F   0  0  0  0  0  0
  -30.0010  -13.4221   20.4116 N   0  0  0  0  0  0
  -26.2949  -12.9325   20.3343 N   0  0  0  0  0  0
  -25.9303  -11.6488   20.5792 N   0  0  0  0  0  0
  -22.0497  -12.8199   22.0412 N   0  0  0  0  0  0
  -25.4279  -15.1879   20.4213 N   0  0  0  0  0  0
  -31.8191  -14.7577   20.1598 O   0  0  0  0  0  0
  -21.6648   -6.8873   21.4244 O   0  0  0  0  0  0
  -22.3529  -14.5550   20.6742 O   0  0  0  0  0  0
  -24.6239  -31.8611   23.2033 C   0  0  0  0  0  0
  -25.9091  -32.4784   23.8361 C   0  0  1  0  0  0
  -27.2274  -27.3400   20.1068 C   0  0  0  0  0  0
  -25.5914  -33.8587   24.2285 N   0  0  0  0  0  0
  -23.4159  -30.4847   21.5453 C   0  0  2  0  0  0
  -24.8605  -28.9418   20.1101 C   0  0  0  0  0  0
  -22.7451  -29.4639   22.4946 C   0  0  0  0  0  0
  -18.0279  -28.1385   22.8494 C   0  0  0  0  0  0
  -24.1480  -36.7296   23.2638 C   0  0  0  0  0  0
  -25.9541  -30.7983   21.3695 C   0  0  0  0  0  0
  -26.0276  -29.4263   20.7131 C   0  0  0  0  0  0
  -27.2082  -28.6334   20.7084 C   0  0  0  0  0  0
  -26.0274  -26.8899   19.5064 C   0  0  0  0  0  0
  -24.8615  -27.6771   19.5022 C   0  0  0  0  0  0
  -23.6285  -29.8194   20.1597 C   0  0  0  0  0  0
  -25.4102  -36.3089   24.0331 C   0  0  1  0  0  0
  -20.5875  -28.3689   23.1287 C   0  0  2  0  0  0
  -20.6768  -26.9406   22.5415 C   0  0  0  0  0  0
  -19.5743  -26.6380   21.5217 C   0  0  0  0  0  0
  -18.1922  -26.7927   22.1633 C   0  0  0  0  0  0
  -19.1534  -28.8851   23.2888 C   0  0  0  0  0  0
  -18.9461  -30.1453   23.8909 C   0  0  0  0  0  0
  -17.6463  -30.6591   24.0565 C   0  0  0  0  0  0
  -25.9047  -34.9461   23.5112 C   0  0  0  0  0  0
  -16.5353  -29.9095   23.6326 C   0  0  0  0  0  0
  -16.7270  -28.6506   23.0360 C   0  0  0  0  0  0
  -26.4483  -31.6591   25.0728 C   0  0  0  0  0  0
  -25.3733  -31.3725   26.1473 C   0  0  0  0  0  0
  -27.0315  -30.3019   24.6167 C   0  0  0  0  0  0
  -27.6053  -32.4321   25.7489 C   0  0  0  0  0  0
  -27.5591  -37.1786   24.8450 C   0  0  0  0  0  0
  -21.4164  -29.3048   22.3686 N   0  0  0  0  0  0
  -26.4279  -37.3794   23.9427 N   0  0  0  0  0  0
  -24.6838  -31.0640   22.0970 N   0  0  0  0  0  0
  -23.4184  -28.8181   23.3026 O   0  0  0  0  0  0
  -28.3688  -26.5324   20.1841 O   0  0  0  0  0  0
  -26.5626  -34.8919   22.4687 O   0  0  0  0  0  0
  -23.5405  -32.1389   23.7382 O   0  0  0  0  0  0
  -29.8095  -23.3209   20.3593 C   0  0  0  0  0  0
  -29.8774  -21.9263   20.6458 C   0  0  0  0  0  0
  -27.5025  -23.0812   19.7496 C   0  0  0  0  0  0
  -27.5493  -21.6842   20.0529 C   0  0  0  0  0  0
  -28.6274  -23.9342   19.8650 C   0  0  0  0  0  0
  -28.7642  -21.0589   20.4658 C   0  0  0  0  0  0
  -30.4233  -18.0169   21.7485 C   0  0  0  0  0  0
  -29.8673  -17.8839   19.2970 C   0  0  0  0  0  0
  -25.8437  -20.6893   18.4006 C   0  0  0  0  0  0
  -29.8298  -16.5749   21.9156 C   0  0  0  0  0  0
  -29.2244  -16.4920   19.5790 C   0  0  0  0  0  0
  -24.3982  -20.2022   18.5403 C   0  0  0  0  0  0
  -25.0143  -21.3642   20.5493 C   0  0  0  0  0  0
  -26.2834  -20.8451   19.8526 C   0  0  2  0  0  0
  -29.9773  -18.8480   20.5079 C   0  0  0  0  0  0
  -30.1145  -24.9132   17.2597 C   0  0  0  0  0  0
  -23.0083  -19.8819   20.5778 C   0  0  0  0  0  0
  -29.8769  -25.7653   18.5151 C   0  0  0  0  0  0
  -28.5896  -25.3990   19.2809 C   0  0  2  0  0  0
  -29.8458  -15.7426   20.6935 N   0  0  0  0  0  0
  -23.8720  -20.7936   19.7952 N   0  3  2  0  0  0
  -28.7838  -19.6674   20.7058 O   0  0  0  0  0  0
  -31.4683  -12.5133   19.1416 H   0  0  0  0  0  0
  -30.3570  -11.4009   19.8993 H   0  0  0  0  0  0
  -29.7598  -11.7472   17.4749 H   0  0  0  0  0  0
  -29.6390  -13.4703   17.7369 H   0  0  0  0  0  0
  -27.8581  -11.2872   18.8660 H   0  0  0  0  0  0
  -27.3656  -12.5714   17.7936 H   0  0  0  0  0  0
  -27.6491  -14.2431   19.5102 H   0  0  0  0  0  0
  -28.7048  -12.0870   21.4082 H   0  0  0  0  0  0
  -28.4455  -13.7626   21.8166 H   0  0  0  0  0  0
  -25.2766   -9.5692   22.4740 H   0  0  0  0  0  0
  -24.0017   -7.4644   22.7467 H   0  0  0  0  0  0
  -21.0846   -8.8781   19.8948 H   0  0  0  0  0  0
  -22.3706  -10.9670   19.6189 H   0  0  0  0  0  0
  -21.2015   -7.6158   23.9728 H   0  0  0  0  0  0
  -21.1463   -6.0531   25.9076 H   0  0  0  0  0  0
  -22.0600   -2.7618   23.2876 H   0  0  0  0  0  0
  -22.4097  -11.9834   22.4756 H   0  0  0  0  0  0
  -21.1117  -13.1216   22.2645 H   0  0  0  0  0  0
  -24.6707  -15.8493   20.5523 H   0  0  0  0  0  0
  -26.2963  -15.6266   20.1482 H   0  0  0  0  0  0
  -26.7164  -32.5456   23.1118 H   0  0  0  0  0  0
  -25.0034  -33.9728   25.0413 H   0  0  0  0  0  0
  -22.7100  -31.3054   21.4034 H   0  0  0  0  0  0
  -23.3762  -35.9614   23.3256 H   0  0  0  0  0  0
  -24.3586  -36.8967   22.2066 H   0  0  0  0  0  0
  -23.7199  -37.6470   23.6683 H   0  0  0  0  0  0
  -26.0809  -31.5634   20.6019 H   0  0  0  0  0  0
  -26.8366  -30.8495   21.9960 H   0  0  0  0  0  0
  -28.1039  -29.0015   21.1896 H   0  0  0  0  0  0
  -25.9415  -25.9072   19.0707 H   0  0  0  0  0  0
  -23.9607  -27.2909   19.0442 H   0  0  0  0  0  0
  -23.7435  -30.5953   19.4024 H   0  0  0  0  0  0
  -22.7490  -29.2472   19.8596 H   0  0  0  0  0  0
  -25.1280  -36.1951   25.0823 H   0  0  0  0  0  0
  -20.9974  -28.3261   24.1409 H   0  0  0  0  0  0
  -20.5671  -26.2294   23.3613 H   0  0  0  0  0  0
  -21.6637  -26.7434   22.1215 H   0  0  0  0  0  0
  -19.6900  -25.6294   21.1244 H   0  0  0  0  0  0
  -19.6681  -27.3194   20.6745 H   0  0  0  0  0  0
  -17.4187  -26.6680   21.4033 H   0  0  0  0  0  0
  -18.0320  -26.0072   22.9026 H   0  0  0  0  0  0
  -19.7934  -30.7262   24.2296 H   0  0  0  0  0  0
  -17.5013  -31.6268   24.5168 H   0  0  0  0  0  0
  -15.5356  -30.3006   23.7630 H   0  0  0  0  0  0
  -15.8666  -28.0822   22.7081 H   0  0  0  0  0  0
  -24.5875  -30.7116   25.7793 H   0  0  0  0  0  0
  -24.8976  -32.2896   26.4957 H   0  0  0  0  0  0
  -25.8075  -30.8844   27.0206 H   0  0  0  0  0  0
  -26.2875  -29.6779   24.1205 H   0  0  0  0  0  0
  -27.4021  -29.7276   25.4665 H   0  0  0  0  0  0
  -27.8741  -30.4307   23.9373 H   0  0  0  0  0  0
  -27.2671  -33.3608   26.2099 H   0  0  0  0  0  0
  -28.3846  -32.6905   25.0306 H   0  0  0  0  0  0
  -28.0741  -31.8427   26.5379 H   0  0  0  0  0  0
  -28.2555  -38.0136   24.7588 H   0  0  0  0  0  0
  -28.1137  -36.2678   24.6155 H   0  0  0  0  0  0
  -27.2323  -37.1297   25.8851 H   0  0  0  0  0  0
  -20.9333  -29.8780   21.6912 H   0  0  0  0  0  0
  -26.0157  -38.2855   24.1503 H   0  0  0  0  0  0
  -30.7084  -23.9070   20.4766 H   0  0  0  0  0  0
  -30.8179  -21.5366   21.0050 H   0  0  0  0  0  0
  -26.5879  -23.5064   19.3627 H   0  0  0  0  0  0
  -31.5058  -17.9028   21.6835 H   0  0  0  0  0  0
  -30.2517  -18.5974   22.6553 H   0  0  0  0  0  0
  -29.3402  -18.3839   18.4840 H   0  0  0  0  0  0
  -30.8770  -17.7019   18.9251 H   0  0  0  0  0  0
  -25.8586  -21.6502   17.8873 H   0  0  0  0  0  0
  -26.4735  -19.9988   17.8393 H   0  0  0  0  0  0
  -28.7936  -16.6546   22.2475 H   0  0  0  0  0  0
  -30.3579  -16.0587   22.7202 H   0  0  0  0  0  0
  -29.2566  -15.8946   18.6667 H   0  0  0  0  0  0
  -28.1672  -16.6289   19.8076 H   0  0  0  0  0  0
  -24.3880  -19.1125   18.6051 H   0  0  0  0  0  0
  -23.7872  -20.4833   17.6815 H   0  0  0  0  0  0
  -24.9311  -22.4485   20.4794 H   0  0  0  0  0  0
  -25.0007  -21.1130   21.6108 H   0  0  0  0  0  0
  -26.4532  -19.8420   20.2471 H   0  0  0  0  0  0
  -30.7993  -19.5195   20.2693 H   0  0  0  0  0  0
  -31.0130  -25.2382   16.7346 H   0  0  0  0  0  0
  -29.2787  -25.0026   16.5646 H   0  0  0  0  0  0
  -30.2351  -23.8577   17.5040 H   0  0  0  0  0  0
  -22.1898  -19.5047   19.9644 H   0  0  0  0  0  0
  -22.5664  -20.4026   21.4280 H   0  0  0  0  0  0
  -23.5716  -19.0271   20.9549 H   0  0  0  0  0  0
  -29.8134  -26.8078   18.2034 H   0  0  0  0  0  0
  -30.7429  -25.7134   19.1750 H   0  0  0  0  0  0
  -27.8327  -25.3845   18.5011 H   0  0  0  0  0  0
  -23.2889  -21.5739   19.5287 H   0  0  0  0  0  0
  1 25  1  0  0  0
  1 30  2  0  0  0
  1 90  1  0  0  0
  2  3  1  0  0  0
  2 25  1  0  0  0
  2 93  1  0  0  0
  2 94  1  0  0  0
  3  4  1  0  0  0
  3 95  1  0  0  0
  3 96  1  0  0  0
  4  5  1  0  0  0
  4 97  1  0  0  0
  4 98  1  0  0  0
  5  6  1  0  0  0
  5 26  1  0  0  0
  5 99  1  0  0  0
  6 25  1  0  0  0
  6100  1  0  0  0
  6101  1  0  0  0
  7  8  2  0  0  0
  7 26  1  0  0  0
  7 29  1  0  0  0
  8  9  1  0  0  0
  8 22  1  0  0  0
  9 10  1  0  0  0
  9 27  2  0  0  0
 10 11  2  0  0  0
 10 15  1  0  0  0
 11 12  1  0  0  0
 11102  1  0  0  0
 12 13  2  0  0  0
 12103  1  0  0  0
 13 14  1  0  0  0
 13 31  1  0  0  0
 14 15  2  0  0  0
 14104  1  0  0  0
 15105  1  0  0  0
 16 17  2  0  0  0
 16 21  1  0  0  0
 16 31  1  0  0  0
 17 18  1  0  0  0
 17106  1  0  0  0
 18 19  2  0  0  0
 18107  1  0  0  0
 19 20  1  0  0  0
 19 24  1  0  0  0
 20 21  2  0  0  0
 20108  1  0  0  0
 21 23  1  0  0  0
 22 28  1  0  0  0
 22 32  2  0  0  0
 26 27  1  0  0  0
 28109  1  0  0  0
 28110  1  0  0  0
 29111  1  0  0  0
 29112  1  0  0  0
 33 34  1  0  0  0
 33 66  1  0  0  0
 33 70  2  0  0  0
 34 36  1  0  0  0
 34 59  1  0  0  0
 34113  1  0  0  0
 35 44  2  0  0  0
 35 45  1  0  0  0
 35 68  1  0  0  0
 36 56  1  0  0  0
 36114  1  0  0  0
 37 39  1  0  0  0
 37 47  1  0  0  0
 37 66  1  0  0  0
 37115  1  0  0  0
 38 43  2  0  0  0
 38 46  1  0  0  0
 38 47  1  0  0  0
 39 64  1  0  0  0
 39 67  2  0  0  0
 40 52  1  0  0  0
 40 53  2  0  0  0
 40 58  1  0  0  0
 41116  1  0  0  0
 41117  1  0  0  0
 41118  1  0  0  0
 41 48  1  0  0  0
 42 43  1  0  0  0
 42 66  1  0  0  0
 42119  1  0  0  0
 42120  1  0  0  0
 43 44  1  0  0  0
 44121  1  0  0  0
 45 46  2  0  0  0
 45122  1  0  0  0
 46123  1  0  0  0
 47124  1  0  0  0
 47125  1  0  0  0
 48 56  1  0  0  0
 48 65  1  0  0  0
 48126  1  0  0  0
 49 50  1  0  0  0
 49 53  1  0  0  0
 49 64  1  0  0  0
 49127  1  0  0  0
 50 51  1  0  0  0
 50128  1  0  0  0
 50129  1  0  0  0
 51 52  1  0  0  0
 51130  1  0  0  0
 51131  1  0  0  0
 52132  1  0  0  0
 52133  1  0  0  0
 53 54  1  0  0  0
 54 55  2  0  0  0
 54134  1  0  0  0
 55 57  1  0  0  0
 55135  1  0  0  0
 56 69  2  0  0  0
 57 58  2  0  0  0
 57136  1  0  0  0
 58137  1  0  0  0
 59 60  1  0  0  0
 59 61  1  0  0  0
 59 62  1  0  0  0
 60138  1  0  0  0
 60139  1  0  0  0
 60140  1  0  0  0
 61141  1  0  0  0
 61142  1  0  0  0
 61143  1  0  0  0
 62144  1  0  0  0
 62145  1  0  0  0
 62146  1  0  0  0
 63 65  1  0  0  0
 63147  1  0  0  0
 63148  1  0  0  0
 63149  1  0  0  0
 64150  1  0  0  0
 65151  1  0  0  0
 68 89  1  0  0  0
 71 72  2  0  0  0
 71 75  1  0  0  0
 71152  1  0  0  0
 72 76  1  0  0  0
 72153  1  0  0  0
 73 74  1  0  0  0
 73 75  2  0  0  0
 73154  1  0  0  0
 74 76  2  0  0  0
 74 84  1  0  0  0
 75 89  1  0  0  0
 76 92  1  0  0  0
 77 80  1  0  0  0
 77 85  1  0  0  0
 77155  1  0  0  0
 77156  1  0  0  0
 78 81  1  0  0  0
 78 85  1  0  0  0
 78157  1  0  0  0
 78158  1  0  0  0
 79 82  1  0  0  0
 79 84  1  0  0  0
 79159  1  0  0  0
 79160  1  0  0  0
 80 90  1  0  0  0
 80161  1  0  0  0
 80162  1  0  0  0
 81 90  1  0  0  0
 81163  1  0  0  0
 81164  1  0  0  0
 82 91  1  0  0  0
 82165  1  0  0  0
 82166  1  0  0  0
 83 84  1  0  0  0
 83 91  1  0  0  0
 83167  1  0  0  0
 83168  1  0  0  0
 84169  1  0  0  0
 85 92  1  0  0  0
 85170  1  0  0  0
 86 88  1  0  0  0
 86171  1  0  0  0
 86172  1  0  0  0
 86173  1  0  0  0
 87174  1  0  0  0
 87175  1  0  0  0
 87176  1  0  0  0
 87 91  1  0  0  0
 88177  1  0  0  0
 88178  1  0  0  0
 88 89  1  0  0  0
 89179  1  0  0  0
 91180  1  0  0  0
M  CHG  1  91   1
M  ISO  4   1 100  68 101  89 101  90 100
M  END
> <chiral flag>
0

> <version>
0

> <s_m_source_file>
/data/baiqing/PycharmProjects/Reinvent-master-3.2/result/LINK_invent/BTK/process_docking_weight1_custom_sum_contain_oxygen_bond_distance_aromatic_linkinvent_7_9_3/rearranged_h_0155.sdf

> <i_m_source_file_index>
41

> <r_mmod_Potential_Energy-OPLS-2005>
250.474075317383

> <r_mmod_Stretch_Energy-OPLS-2005>
72.558464050293

> <r_mmod_Bend_Energy-OPLS-2005>
178.976333618164

> <r_mmod_Torsional_Energy-OPLS-2005>
436.328704833984

> <r_mmod_Improper_Torsional_Energy-OPLS-2005>
8.65170955657959

> <r_mmod_Van_der_Waal_Energy-OPLS-2005>
137.198928833008

> <r_mmod_Electrostatic_Energy-OPLS-2005>
-194.77702331543

> <r_mmod_Solvation_Energy-OPLS-2005>
-432.837951660156

> <b_mmod_Minimization_Converged-OPLS-2005>
0

> <r_mmod_RMS_Derivative-OPLS-2005>
2.14417052268982

$$$$
41
                    3D
 Structure written by MMmdl.
181191  0  0  1  0            999 V2000
  -30.7490  -14.4094   20.7176 C   0  0  0  0  0  0
  -30.4324  -12.3273   19.4051 C   0  0  0  0  0  0
  -29.4889  -12.5372   18.2046 C   0  0  0  0  0  0
  -28.0182  -12.3527   18.6249 C   0  0  0  0  0  0
  -27.6589  -13.1909   19.8745 C   0  0  2  0  0  0
  -28.6998  -12.9504   20.9935 C   0  0  0  0  0  0
  -25.2551  -13.8177   20.5696 C   0  0  0  0  0  0
  -24.1777  -13.0447   20.9202 C   0  0  0  0  0  0
  -24.6340  -11.6928   20.8753 C   0  0  0  0  0  0
  -23.9067  -10.4295   21.0402 C   0  0  0  0  0  0
  -24.3636   -9.4214   21.9168 C   0  0  0  0  0  0
  -23.6296   -8.2252   22.0743 C   0  0  0  0  0  0
  -22.4275   -8.0278   21.3536 C   0  0  0  0  0  0
  -21.9916   -9.0246   20.4662 C   0  0  0  0  0  0
  -22.7258  -10.2124   20.3057 C   0  0  0  0  0  0
  -21.6842   -6.0732   22.5281 C   0  0  0  0  0  0
  -21.4002   -6.5631   23.8213 C   0  0  0  0  0  0
  -21.3682   -5.6786   24.9177 C   0  0  0  0  0  0
  -21.6043   -4.3037   24.7227 C   0  0  0  0  0  0
  -21.8804   -3.8143   23.4346 C   0  0  0  0  0  0
  -21.9195   -4.6959   22.3417 C   0  0  0  0  0  0
  -22.7797  -13.5234   21.1892 C   0  0  0  0  0  0
  -22.1666   -4.2158   21.0978 F   0  0  0  0  0  0
  -21.5642   -3.4524   25.7739 F   0  0  0  0  0  0
  -30.0392  -13.2711   20.4661 N   0  0  0  0  0  0
  -26.2962  -12.9303   20.3331 N   0  0  0  0  0  0
  -25.9240  -11.6500   20.5750 N   0  0  0  0  0  0
  -22.0444  -12.8216   22.0444 N   0  0  0  0  0  0
  -25.4327  -15.1887   20.4105 N   0  0  0  0  0  0
  -31.8099  -14.6674   20.1385 O   0  0  0  0  0  0
  -21.6644   -6.8857   21.4238 O   0  0  0  0  0  0
  -22.3465  -14.5547   20.6782 O   0  0  0  0  0  0
  -24.6085  -31.8689   23.2120 C   0  0  0  0  0  0
  -25.8992  -32.4825   23.8401 C   0  0  1  0  0  0
  -27.2342  -27.4488   20.1319 C   0  0  0  0  0  0
  -25.5867  -33.8625   24.2328 N   0  0  0  0  0  0
  -23.3948  -30.4910   21.5520 C   0  0  2  0  0  0
  -24.8412  -28.9565   20.1216 C   0  0  0  0  0  0
  -22.7370  -29.4639   22.5009 C   0  0  0  0  0  0
  -18.0238  -28.1329   22.8483 C   0  0  0  0  0  0
  -24.1484  -36.7347   23.2638 C   0  0  0  0  0  0
  -25.9196  -30.8449   21.3603 C   0  0  0  0  0  0
  -25.9960  -29.4775   20.7165 C   0  0  0  0  0  0
  -27.1936  -28.7333   20.7121 C   0  0  0  0  0  0
  -26.0648  -26.9343   19.5295 C   0  0  0  0  0  0
  -24.8710  -27.6844   19.5212 C   0  0  0  0  0  0
  -23.6007  -29.8208   20.1663 C   0  0  0  0  0  0
  -25.4104  -36.3120   24.0331 C   0  0  1  0  0  0
  -20.5828  -28.3618   23.1319 C   0  0  2  0  0  0
  -20.6740  -26.9361   22.5402 C   0  0  0  0  0  0
  -19.5724  -26.6357   21.5186 C   0  0  0  0  0  0
  -18.1895  -26.7879   22.1593 C   0  0  0  0  0  0
  -19.1489  -28.8789   23.2894 C   0  0  0  0  0  0
  -18.9426  -30.1405   23.8887 C   0  0  0  0  0  0
  -17.6434  -30.6550   24.0545 C   0  0  0  0  0  0
  -25.9021  -34.9474   23.5130 C   0  0  0  0  0  0
  -16.5322  -29.9051   23.6317 C   0  0  0  0  0  0
  -16.7233  -28.6461   23.0345 C   0  0  0  0  0  0
  -26.4424  -31.6611   25.0730 C   0  0  0  0  0  0
  -25.3706  -31.3763   26.1499 C   0  0  0  0  0  0
  -27.0229  -30.3032   24.6119 C   0  0  0  0  0  0
  -27.5971  -32.4333   25.7521 C   0  0  0  0  0  0
  -27.5590  -37.1831   24.8445 C   0  0  0  0  0  0
  -21.4093  -29.3012   22.3751 N   0  0  0  0  0  0
  -26.4296  -37.3799   23.9397 N   0  0  0  0  0  0
  -24.6589  -31.0830   22.0998 N   0  0  0  0  0  0
  -23.4151  -28.8161   23.3018 O   0  0  0  0  0  0
  -28.4402  -26.7847   20.1115 O   0  0  0  0  0  0
  -26.5584  -34.8920   22.4691 O   0  0  0  0  0  0
  -23.5286  -32.1400   23.7550 O   0  0  0  0  0  0
  -28.2513  -20.9141   23.1925 C   0  0  0  0  0  0
  -30.3826  -19.3534   22.3022 C   0  0  0  0  0  0
  -29.1754  -21.4860   22.2839 C   0  0  0  0  0  0
  -28.3678  -19.5829   23.6387 C   0  0  0  0  0  0
  -30.2797  -20.6905   21.8508 C   0  0  0  0  0  0
  -29.4253  -18.7730   23.1620 C   0  0  0  0  0  0
  -28.1133  -23.8619   22.6751 C   0  0  0  0  0  0
  -28.3532  -22.9338   20.3558 C   0  0  0  0  0  0
  -27.8303  -25.2538   22.0499 C   0  0  0  0  0  0
  -28.3948  -24.3337   19.7009 C   0  0  0  0  0  0
  -28.5390  -16.6167   22.6769 C   0  0  0  0  0  0
  -30.7677  -16.7666   23.7584 C   0  0  0  0  0  0
  -29.2427  -16.1750   21.4002 C   0  0  0  0  0  0
  -31.1428  -15.5267   22.8772 C   0  0  0  0  0  0
  -28.9636  -22.9241   21.7723 C   0  0  2  0  0  0
  -28.5745  -25.4882   20.7125 C   0  0  1  0  0  0
  -27.3567  -19.0582   24.6521 C   0  0  0  0  0  0
  -31.7115  -20.2329   19.7702 C   0  0  0  0  0  0
  -32.6292  -21.6322   21.6793 C   0  0  0  0  0  0
  -31.3693  -21.2183   20.9031 C   0  0  0  0  0  0
  -29.4703  -17.3975   23.4764 N   0  0  0  0  0  0
  -30.2833  -15.1954   21.7182 N   0  0  0  0  0  0
  -31.4690  -12.4586   19.0872 H   0  0  0  0  0  0
  -30.3579  -11.3024   19.7769 H   0  0  0  0  0  0
  -29.7392  -11.8488   17.3966 H   0  0  0  0  0  0
  -29.6319  -13.5416   17.8046 H   0  0  0  0  0  0
  -27.8692  -11.2962   18.8420 H   0  0  0  0  0  0
  -27.3518  -12.6008   17.7980 H   0  0  0  0  0  0
  -27.7007  -14.2289   19.5549 H   0  0  0  0  0  0
  -28.6783  -11.9046   21.3026 H   0  0  0  0  0  0
  -28.4463  -13.5161   21.8894 H   0  0  0  0  0  0
  -25.2794   -9.5672   22.4725 H   0  0  0  0  0  0
  -23.9984   -7.4654   22.7455 H   0  0  0  0  0  0
  -21.0836   -8.8811   19.8987 H   0  0  0  0  0  0
  -22.3745  -10.9653   19.6159 H   0  0  0  0  0  0
  -21.1959   -7.6137   23.9726 H   0  0  0  0  0  0
  -21.1544   -6.0514   25.9087 H   0  0  0  0  0  0
  -22.0577   -2.7612   23.2845 H   0  0  0  0  0  0
  -22.4031  -11.9865   22.4839 H   0  0  0  0  0  0
  -21.1082  -13.1283   22.2707 H   0  0  0  0  0  0
  -24.6649  -15.8441   20.5101 H   0  0  0  0  0  0
  -26.2645  -15.6175   20.0233 H   0  0  0  0  0  0
  -26.7070  -32.5541   23.1180 H   0  0  0  0  0  0
  -25.0013  -33.9797   25.0469 H   0  0  0  0  0  0
  -22.6825  -31.3076   21.4183 H   0  0  0  0  0  0
  -23.3721  -35.9703   23.3279 H   0  0  0  0  0  0
  -24.3609  -36.8974   22.2061 H   0  0  0  0  0  0
  -23.7248  -37.6556   23.6661 H   0  0  0  0  0  0
  -26.0277  -31.6137   20.5934 H   0  0  0  0  0  0
  -26.8085  -30.8988   21.9775 H   0  0  0  0  0  0
  -28.0887  -29.1429   21.1583 H   0  0  0  0  0  0
  -26.0612  -25.9721   19.0465 H   0  0  0  0  0  0
  -23.9876  -27.2813   19.0457 H   0  0  0  0  0  0
  -23.6993  -30.5947   19.4051 H   0  0  0  0  0  0
  -22.7270  -29.2375   19.8699 H   0  0  0  0  0  0
  -25.1283  -36.2000   25.0825 H   0  0  0  0  0  0
  -20.9900  -28.3163   24.1445 H   0  0  0  0  0  0
  -20.5609  -26.2230   23.3579 H   0  0  0  0  0  0
  -21.6625  -26.7381   22.1229 H   0  0  0  0  0  0
  -19.6895  -25.6275   21.1195 H   0  0  0  0  0  0
  -19.6652  -27.3191   20.6730 H   0  0  0  0  0  0
  -17.4169  -26.6583   21.3992 H   0  0  0  0  0  0
  -18.0302  -26.0006   22.8970 H   0  0  0  0  0  0
  -19.7914  -30.7212   24.2241 H   0  0  0  0  0  0
  -17.4991  -31.6235   24.5141 H   0  0  0  0  0  0
  -15.5324  -30.2953   23.7653 H   0  0  0  0  0  0
  -15.8621  -28.0789   22.7069 H   0  0  0  0  0  0
  -24.5832  -30.7144   25.7889 H   0  0  0  0  0  0
  -24.8969  -32.2949   26.4965 H   0  0  0  0  0  0
  -25.8071  -30.8933   27.0247 H   0  0  0  0  0  0
  -26.2801  -29.6885   24.1009 H   0  0  0  0  0  0
  -27.3785  -29.7188   25.4623 H   0  0  0  0  0  0
  -27.8733  -30.4331   23.9413 H   0  0  0  0  0  0
  -27.2530  -33.3594   26.2146 H   0  0  0  0  0  0
  -28.3776  -32.6952   25.0365 H   0  0  0  0  0  0
  -28.0631  -31.8427   26.5422 H   0  0  0  0  0  0
  -28.2577  -38.0158   24.7523 H   0  0  0  0  0  0
  -28.1107  -36.2687   24.6213 H   0  0  0  0  0  0
  -27.2322  -37.1432   25.8850 H   0  0  0  0  0  0
  -20.9226  -29.8814   21.7066 H   0  0  0  0  0  0
  -26.0175  -38.2875   24.1386 H   0  0  0  0  0  0
  -27.4210  -21.4887   23.5716 H   0  0  0  0  0  0
  -31.1970  -18.7398   21.9506 H   0  0  0  0  0  0
  -27.1353  -23.4276   22.8768 H   0  0  0  0  0  0
  -28.6005  -23.9797   23.6444 H   0  0  0  0  0  0
  -28.8622  -22.2263   19.7038 H   0  0  0  0  0  0
  -27.3254  -22.5739   20.4170 H   0  0  0  0  0  0
  -28.0923  -26.0274   22.7732 H   0  0  0  0  0  0
  -26.7546  -25.3483   21.8990 H   0  0  0  0  0  0
  -27.4967  -24.4602   19.1038 H   0  0  0  0  0  0
  -29.2269  -24.3710   18.9973 H   0  0  0  0  0  0
  -28.1874  -15.7579   23.2490 H   0  0  0  0  0  0
  -27.6533  -17.1996   22.4145 H   0  0  0  0  0  0
  -31.5739  -17.4990   23.6984 H   0  0  0  0  0  0
  -30.7647  -16.4645   24.8070 H   0  0  0  0  0  0
  -29.6728  -17.0204   20.8625 H   0  0  0  0  0  0
  -28.4976  -15.7590   20.7328 H   0  0  0  0  0  0
  -31.1132  -14.6493   23.5273 H   0  0  0  0  0  0
  -32.1841  -15.6181   22.5655 H   0  0  0  0  0  0
  -29.9526  -23.3792   21.7438 H   0  0  0  0  0  0
  -29.6341  -25.4834   20.9788 H   0  0  0  0  0  0
  -26.5349  -19.7567   24.8068 H   0  0  0  0  0  0
  -27.8491  -18.9071   25.6127 H   0  0  0  0  0  0
  -26.9237  -18.1075   24.3463 H   0  0  0  0  0  0
  -30.8184  -19.9587   19.2063 H   0  0  0  0  0  0
  -32.1761  -19.3172   20.1335 H   0  0  0  0  0  0
  -32.4163  -20.6809   19.0683 H   0  0  0  0  0  0
  -32.4053  -22.4277   22.3924 H   0  0  0  0  0  0
  -33.4013  -22.0082   21.0053 H   0  0  0  0  0  0
  -33.0551  -20.7963   22.2336 H   0  0  0  0  0  0
  -31.0136  -22.1095   20.3935 H   0  0  0  0  0  0
  1 25  1  0  0  0
  1 30  2  0  0  0
  1 92  1  0  0  0
  2  3  1  0  0  0
  2 25  1  0  0  0
  2 93  1  0  0  0
  2 94  1  0  0  0
  3  4  1  0  0  0
  3 95  1  0  0  0
  3 96  1  0  0  0
  4  5  1  0  0  0
  4 97  1  0  0  0
  4 98  1  0  0  0
  5  6  1  0  0  0
  5 26  1  0  0  0
  5 99  1  0  0  0
  6 25  1  0  0  0
  6100  1  0  0  0
  6101  1  0  0  0
  7  8  2  0  0  0
  7 26  1  0  0  0
  7 29  1  0  0  0
  8  9  1  0  0  0
  8 22  1  0  0  0
  9 10  1  0  0  0
  9 27  2  0  0  0
 10 11  2  0  0  0
 10 15  1  0  0  0
 11 12  1  0  0  0
 11102  1  0  0  0
 12 13  2  0  0  0
 12103  1  0  0  0
 13 14  1  0  0  0
 13 31  1  0  0  0
 14 15  2  0  0  0
 14104  1  0  0  0
 15105  1  0  0  0
 16 17  2  0  0  0
 16 21  1  0  0  0
 16 31  1  0  0  0
 17 18  1  0  0  0
 17106  1  0  0  0
 18 19  2  0  0  0
 18107  1  0  0  0
 19 20  1  0  0  0
 19 24  1  0  0  0
 20 21  2  0  0  0
 20108  1  0  0  0
 21 23  1  0  0  0
 22 28  1  0  0  0
 22 32  2  0  0  0
 26 27  1  0  0  0
 28109  1  0  0  0
 28110  1  0  0  0
 29111  1  0  0  0
 29112  1  0  0  0
 33 34  1  0  0  0
 33 66  1  0  0  0
 33 70  2  0  0  0
 34 36  1  0  0  0
 34 59  1  0  0  0
 34113  1  0  0  0
 35 44  2  0  0  0
 35 45  1  0  0  0
 35 68  1  0  0  0
 36 56  1  0  0  0
 36114  1  0  0  0
 37 39  1  0  0  0
 37 47  1  0  0  0
 37 66  1  0  0  0
 37115  1  0  0  0
 38 43  2  0  0  0
 38 46  1  0  0  0
 38 47  1  0  0  0
 39 64  1  0  0  0
 39 67  2  0  0  0
 40 52  1  0  0  0
 40 53  2  0  0  0
 40 58  1  0  0  0
 41116  1  0  0  0
 41117  1  0  0  0
 41118  1  0  0  0
 41 48  1  0  0  0
 42 43  1  0  0  0
 42 66  1  0  0  0
 42119  1  0  0  0
 42120  1  0  0  0
 43 44  1  0  0  0
 44121  1  0  0  0
 45 46  2  0  0  0
 45122  1  0  0  0
 46123  1  0  0  0
 47124  1  0  0  0
 47125  1  0  0  0
 48 56  1  0  0  0
 48 65  1  0  0  0
 48126  1  0  0  0
 49 50  1  0  0  0
 49 53  1  0  0  0
 49 64  1  0  0  0
 49127  1  0  0  0
 50 51  1  0  0  0
 50128  1  0  0  0
 50129  1  0  0  0
 51 52  1  0  0  0
 51130  1  0  0  0
 51131  1  0  0  0
 52132  1  0  0  0
 52133  1  0  0  0
 53 54  1  0  0  0
 54 55  2  0  0  0
 54134  1  0  0  0
 55 57  1  0  0  0
 55135  1  0  0  0
 56 69  2  0  0  0
 57 58  2  0  0  0
 57136  1  0  0  0
 58137  1  0  0  0
 59 60  1  0  0  0
 59 61  1  0  0  0
 59 62  1  0  0  0
 60138  1  0  0  0
 60139  1  0  0  0
 60140  1  0  0  0
 61141  1  0  0  0
 61142  1  0  0  0
 61143  1  0  0  0
 62144  1  0  0  0
 62145  1  0  0  0
 62146  1  0  0  0
 63 65  1  0  0  0
 63147  1  0  0  0
 63148  1  0  0  0
 63149  1  0  0  0
 64150  1  0  0  0
 65151  1  0  0  0
 68 86  1  0  0  0
 71 73  2  0  0  0
 71 74  1  0  0  0
 71152  1  0  0  0
 72 75  2  0  0  0
 72 76  1  0  0  0
 72153  1  0  0  0
 73 75  1  0  0  0
 73 85  1  0  0  0
 74 76  2  0  0  0
 74 87  1  0  0  0
 75 90  1  0  0  0
 76 91  1  0  0  0
 77 79  1  0  0  0
 77 85  1  0  0  0
 77154  1  0  0  0
 77155  1  0  0  0
 78 80  1  0  0  0
 78 85  1  0  0  0
 78156  1  0  0  0
 78157  1  0  0  0
 79 86  1  0  0  0
 79158  1  0  0  0
 79159  1  0  0  0
 80 86  1  0  0  0
 80160  1  0  0  0
 80161  1  0  0  0
 81 83  1  0  0  0
 81 91  1  0  0  0
 81162  1  0  0  0
 81163  1  0  0  0
 82 84  1  0  0  0
 82 91  1  0  0  0
 82164  1  0  0  0
 82165  1  0  0  0
 83 92  1  0  0  0
 83166  1  0  0  0
 83167  1  0  0  0
 84 92  1  0  0  0
 84168  1  0  0  0
 84169  1  0  0  0
 85170  1  0  0  0
 86171  1  0  0  0
 87172  1  0  0  0
 87173  1  0  0  0
 87174  1  0  0  0
 88175  1  0  0  0
 88176  1  0  0  0
 88177  1  0  0  0
 88 90  1  0  0  0
 89 90  1  0  0  0
 89178  1  0  0  0
 89179  1  0  0  0
 89180  1  0  0  0
 90181  1  0  0  0
M  ISO  4   1 100  68 101  86 101  92 100
M  END
> <chiral flag>
0

> <version>
0

> <s_m_source_file>
/data/baiqing/PycharmProjects/Reinvent-master-3.2/result/LINK_invent/BTK/process_docking_weight1_custom_sum_contain_oxygen_bond_distance_aromatic_linkinvent_7_9_3/rearranged_h_0155.sdf

> <i_m_source_file_index>
42

> <r_mmod_Potential_Energy-OPLS-2005>
210.692260742188

> <r_mmod_Stretch_Energy-OPLS-2005>
44.8684425354004

> <r_mmod_Bend_Energy-OPLS-2005>
135.045196533203

> <r_mmod_Torsional_Energy-OPLS-2005>
428.309356689453

> <r_mmod_Improper_Torsional_Energy-OPLS-2005>
7.9894814491272

> <r_mmod_Van_der_Waal_Energy-OPLS-2005>
177.1279296875

> <r_mmod_Electrostatic_Energy-OPLS-2005>
-399.719970703125

> <r_mmod_Solvation_Energy-OPLS-2005>
-193.246032714844

> <b_mmod_Minimization_Converged-OPLS-2005>
0

> <r_mmod_RMS_Derivative-OPLS-2005>
4.17811489105225

$$$$
42
                    3D
 Structure written by MMmdl.
165174  0  0  1  0            999 V2000
  -30.6983  -14.6039   20.4753 C   0  0  0  0  0  0
  -30.4167  -12.3709   19.4527 C   0  0  0  0  0  0
  -29.4975  -12.4821   18.2208 C   0  0  0  0  0  0
  -28.0226  -12.3292   18.6374 C   0  0  0  0  0  0
  -27.6426  -13.2166   19.8539 C   0  0  2  0  0  0
  -28.6929  -13.1312   20.9838 C   0  0  0  0  0  0
  -25.2539  -13.8160   20.5716 C   0  0  0  0  0  0
  -24.1809  -13.0427   20.9208 C   0  0  0  0  0  0
  -24.6380  -11.6896   20.8758 C   0  0  0  0  0  0
  -23.9051  -10.4284   21.0411 C   0  0  0  0  0  0
  -24.3612   -9.4200   21.9184 C   0  0  0  0  0  0
  -23.6291   -8.2234   22.0748 C   0  0  0  0  0  0
  -22.4272   -8.0274   21.3537 C   0  0  0  0  0  0
  -21.9902   -9.0245   20.4639 C   0  0  0  0  0  0
  -22.7226  -10.2129   20.3052 C   0  0  0  0  0  0
  -21.6855   -6.0730   22.5278 C   0  0  0  0  0  0
  -21.4014   -6.5632   23.8212 C   0  0  0  0  0  0
  -21.3662   -5.6784   24.9174 C   0  0  0  0  0  0
  -21.6046   -4.3045   24.7223 C   0  0  0  0  0  0
  -21.8822   -3.8138   23.4345 C   0  0  0  0  0  0
  -21.9196   -4.6957   22.3402 C   0  0  0  0  0  0
  -22.7834  -13.5228   21.1855 C   0  0  0  0  0  0
  -22.1661   -4.2145   21.0977 F   0  0  0  0  0  0
  -21.5633   -3.4529   25.7733 F   0  0  0  0  0  0
  -30.0053  -13.4273   20.3965 N   0  0  0  0  0  0
  -26.2948  -12.9329   20.3329 N   0  0  0  0  0  0
  -25.9309  -11.6488   20.5782 N   0  0  0  0  0  0
  -22.0467  -12.8238   22.0415 N   0  0  0  0  0  0
  -25.4257  -15.1884   20.4162 N   0  0  0  0  0  0
  -31.8937  -14.6550   20.1706 O   0  0  0  0  0  0
  -21.6636   -6.8871   21.4236 O   0  0  0  0  0  0
  -22.3528  -14.5528   20.6686 O   0  0  0  0  0  0
  -24.6237  -31.8629   23.2062 C   0  0  0  0  0  0
  -25.9096  -32.4795   23.8376 C   0  0  1  0  0  0
  -27.2195  -27.3530   20.0885 C   0  0  0  0  0  0
  -25.5917  -33.8596   24.2303 N   0  0  0  0  0  0
  -23.4152  -30.4898   21.5479 C   0  0  2  0  0  0
  -24.8597  -28.9568   20.1049 C   0  0  0  0  0  0
  -22.7463  -29.4639   22.4935 C   0  0  0  0  0  0
  -18.0286  -28.1383   22.8488 C   0  0  0  0  0  0
  -24.1490  -36.7299   23.2638 C   0  0  0  0  0  0
  -25.9554  -30.8012   21.3761 C   0  0  0  0  0  0
  -26.0266  -29.4333   20.7146 C   0  0  0  0  0  0
  -27.2057  -28.6351   20.7125 C   0  0  0  0  0  0
  -26.0296  -26.9260   19.4710 C   0  0  0  0  0  0
  -24.8599  -27.7038   19.4778 C   0  0  0  0  0  0
  -23.6269  -29.8317   20.1600 C   0  0  0  0  0  0
  -25.4114  -36.3095   24.0333 C   0  0  1  0  0  0
  -20.5885  -28.3685   23.1284 C   0  0  2  0  0  0
  -20.6775  -26.9410   22.5405 C   0  0  0  0  0  0
  -19.5751  -26.6382   21.5208 C   0  0  0  0  0  0
  -18.1931  -26.7929   22.1621 C   0  0  0  0  0  0
  -19.1537  -28.8849   23.2886 C   0  0  0  0  0  0
  -18.9462  -30.1449   23.8906 C   0  0  0  0  0  0
  -17.6462  -30.6585   24.0564 C   0  0  0  0  0  0
  -25.9046  -34.9460   23.5117 C   0  0  0  0  0  0
  -16.5354  -29.9087   23.6325 C   0  0  0  0  0  0
  -16.7272  -28.6503   23.0351 C   0  0  0  0  0  0
  -26.4488  -31.6595   25.0732 C   0  0  0  0  0  0
  -25.3730  -31.3725   26.1465 C   0  0  0  0  0  0
  -27.0328  -30.3027   24.6162 C   0  0  0  0  0  0
  -27.6057  -32.4321   25.7497 C   0  0  0  0  0  0
  -27.5583  -37.1806   24.8464 C   0  0  0  0  0  0
  -21.4181  -29.3042   22.3678 N   0  0  0  0  0  0
  -26.4298  -37.3782   23.9406 N   0  0  0  0  0  0
  -24.6835  -31.0668   22.1005 N   0  0  0  0  0  0
  -23.4201  -28.8171   23.2994 O   0  0  0  0  0  0
  -28.3204  -26.5012   20.1881 O   0  0  0  0  0  0
  -26.5611  -34.8917   22.4679 O   0  0  0  0  0  0
  -23.5407  -32.1416   23.7404 O   0  0  0  0  0  0
  -30.2317  -21.1013   20.2967 C   0  0  0  0  0  0
  -27.6595  -21.7881   19.7368 C   0  0  0  0  0  0
  -28.6273  -22.8161   19.5785 C   0  0  0  0  0  0
  -29.9532  -22.4535   19.9251 C   0  0  0  0  0  0
  -29.2115  -20.1247   20.2814 C   0  0  0  0  0  0
  -29.8988  -18.1740   21.6920 C   0  0  0  0  0  0
  -28.7523  -17.7616   19.6138 C   0  0  0  0  0  0
  -30.6288  -16.7919   21.5606 C   0  0  0  0  0  0
  -29.5693  -16.4533   19.4088 C   0  0  0  0  0  0
  -26.9633  -24.0098   17.9744 C   0  0  0  0  0  0
  -32.2570  -23.0901   20.1626 C   0  0  0  0  0  0
  -28.7442  -25.6181   19.1033 C   0  0  0  0  0  0
  -28.2901  -24.1174   18.7549 C   0  0  1  0  0  0
  -27.9365  -20.4932   20.0461 N   0  0  0  0  0  0
  -29.5098  -18.7325   20.3991 N   0  0  0  0  0  0
  -30.0053  -15.7781   20.6587 N   0  0  0  0  0  0
  -30.9242  -23.4230   19.8002 O   0  0  0  0  0  0
  -31.4614  -12.4590   19.1491 H   0  0  0  0  0  0
  -30.3242  -11.3892   19.9191 H   0  0  0  0  0  0
  -29.7593  -11.7178   17.4873 H   0  0  0  0  0  0
  -29.6477  -13.4446   17.7291 H   0  0  0  0  0  0
  -27.8627  -11.2788   18.8849 H   0  0  0  0  0  0
  -27.3676  -12.5438   17.7924 H   0  0  0  0  0  0
  -27.6326  -14.2399   19.4901 H   0  0  0  0  0  0
  -28.6983  -12.1384   21.4355 H   0  0  0  0  0  0
  -28.4546  -13.8351   21.7827 H   0  0  0  0  0  0
  -25.2758   -9.5686   22.4761 H   0  0  0  0  0  0
  -24.0003   -7.4625   22.7467 H   0  0  0  0  0  0
  -21.0828   -8.8764   19.8950 H   0  0  0  0  0  0
  -22.3679  -10.9671   19.6164 H   0  0  0  0  0  0
  -21.1999   -7.6137   23.9718 H   0  0  0  0  0  0
  -21.1484   -6.0508   25.9079 H   0  0  0  0  0  0
  -22.0601   -2.7601   23.2844 H   0  0  0  0  0  0
  -22.4065  -11.9914   22.4839 H   0  0  0  0  0  0
  -21.1077  -13.1270   22.2578 H   0  0  0  0  0  0
  -24.6639  -15.8467   20.5385 H   0  0  0  0  0  0
  -26.2898  -15.6288   20.1305 H   0  0  0  0  0  0
  -26.7163  -32.5472   23.1128 H   0  0  0  0  0  0
  -25.0077  -33.9749   25.0456 H   0  0  0  0  0  0
  -22.7085  -31.3106   21.4098 H   0  0  0  0  0  0
  -23.3752  -35.9630   23.3303 H   0  0  0  0  0  0
  -24.3589  -36.8915   22.2052 H   0  0  0  0  0  0
  -23.7237  -37.6502   23.6656 H   0  0  0  0  0  0
  -26.0854  -31.5663   20.6093 H   0  0  0  0  0  0
  -26.8377  -30.8476   22.0027 H   0  0  0  0  0  0
  -28.0974  -28.9878   21.2115 H   0  0  0  0  0  0
  -25.9572  -25.9619   19.0228 H   0  0  0  0  0  0
  -23.9620  -27.3250   19.0092 H   0  0  0  0  0  0
  -23.7437  -30.6110   19.4064 H   0  0  0  0  0  0
  -22.7484  -29.2594   19.8566 H   0  0  0  0  0  0
  -25.1294  -36.1957   25.0826 H   0  0  0  0  0  0
  -20.9985  -28.3253   24.1402 H   0  0  0  0  0  0
  -20.5671  -26.2293   23.3603 H   0  0  0  0  0  0
  -21.6646  -26.7438   22.1198 H   0  0  0  0  0  0
  -19.6907  -25.6292   21.1238 H   0  0  0  0  0  0
  -19.6688  -27.3192   20.6739 H   0  0  0  0  0  0
  -17.4199  -26.6679   21.4022 H   0  0  0  0  0  0
  -18.0332  -26.0069   22.9015 H   0  0  0  0  0  0
  -19.7939  -30.7259   24.2284 H   0  0  0  0  0  0
  -17.5020  -31.6268   24.5162 H   0  0  0  0  0  0
  -15.5356  -30.2994   23.7641 H   0  0  0  0  0  0
  -15.8675  -28.0820   22.7069 H   0  0  0  0  0  0
  -24.5893  -30.7090   25.7790 H   0  0  0  0  0  0
  -24.8935  -32.2892   26.4908 H   0  0  0  0  0  0
  -25.8055  -30.8883   27.0229 H   0  0  0  0  0  0
  -26.2894  -29.6781   24.1193 H   0  0  0  0  0  0
  -27.4053  -29.7273   25.4647 H   0  0  0  0  0  0
  -27.8750  -30.4329   23.9363 H   0  0  0  0  0  0
  -27.2673  -33.3609   26.2100 H   0  0  0  0  0  0
  -28.3850  -32.6900   25.0314 H   0  0  0  0  0  0
  -28.0745  -31.8432   26.5391 H   0  0  0  0  0  0
  -28.2603  -38.0101   24.7515 H   0  0  0  0  0  0
  -28.1079  -36.2634   24.6292 H   0  0  0  0  0  0
  -27.2305  -37.1458   25.8869 H   0  0  0  0  0  0
  -20.9348  -29.8781   21.6912 H   0  0  0  0  0  0
  -26.0184  -38.2858   24.1408 H   0  0  0  0  0  0
  -31.2400  -20.7707   20.4984 H   0  0  0  0  0  0
  -26.6226  -21.9543   19.4917 H   0  0  0  0  0  0
  -30.5323  -18.8827   22.2270 H   0  0  0  0  0  0
  -28.9974  -18.0563   22.2953 H   0  0  0  0  0  0
  -27.8065  -17.5493   20.1145 H   0  0  0  0  0  0
  -28.5023  -18.1926   18.6430 H   0  0  0  0  0  0
  -30.7440  -16.3586   22.5552 H   0  0  0  0  0  0
  -31.6422  -16.9945   21.2083 H   0  0  0  0  0  0
  -30.4543  -16.6887   18.8128 H   0  0  0  0  0  0
  -28.9876  -15.7708   18.7910 H   0  0  0  0  0  0
  -26.9585  -23.1274   17.3329 H   0  0  0  0  0  0
  -26.8171  -24.8638   17.3126 H   0  0  0  0  0  0
  -26.0975  -23.9272   18.6305 H   0  0  0  0  0  0
  -32.8863  -23.9753   20.0708 H   0  0  0  0  0  0
  -32.6670  -22.3253   19.5023 H   0  0  0  0  0  0
  -32.3199  -22.7483   21.1967 H   0  0  0  0  0  0
  -28.6035  -26.2028   18.1928 H   0  0  0  0  0  0
  -29.8277  -25.5950   19.2106 H   0  0  0  0  0  0
  -28.9886  -23.9388   17.9352 H   0  0  0  0  0  0
  1 25  1  0  0  0
  1 30  2  0  0  0
  1 86  1  0  0  0
  2  3  1  0  0  0
  2 25  1  0  0  0
  2 88  1  0  0  0
  2 89  1  0  0  0
  3  4  1  0  0  0
  3 90  1  0  0  0
  3 91  1  0  0  0
  4  5  1  0  0  0
  4 92  1  0  0  0
  4 93  1  0  0  0
  5  6  1  0  0  0
  5 26  1  0  0  0
  5 94  1  0  0  0
  6 25  1  0  0  0
  6 95  1  0  0  0
  6 96  1  0  0  0
  7  8  2  0  0  0
  7 26  1  0  0  0
  7 29  1  0  0  0
  8  9  1  0  0  0
  8 22  1  0  0  0
  9 10  1  0  0  0
  9 27  2  0  0  0
 10 11  2  0  0  0
 10 15  1  0  0  0
 11 12  1  0  0  0
 11 97  1  0  0  0
 12 13  2  0  0  0
 12 98  1  0  0  0
 13 14  1  0  0  0
 13 31  1  0  0  0
 14 15  2  0  0  0
 14 99  1  0  0  0
 15100  1  0  0  0
 16 17  2  0  0  0
 16 21  1  0  0  0
 16 31  1  0  0  0
 17 18  1  0  0  0
 17101  1  0  0  0
 18 19  2  0  0  0
 18102  1  0  0  0
 19 20  1  0  0  0
 19 24  1  0  0  0
 20 21  2  0  0  0
 20103  1  0  0  0
 21 23  1  0  0  0
 22 28  1  0  0  0
 22 32  2  0  0  0
 26 27  1  0  0  0
 28104  1  0  0  0
 28105  1  0  0  0
 29106  1  0  0  0
 29107  1  0  0  0
 33 34  1  0  0  0
 33 66  1  0  0  0
 33 70  2  0  0  0
 34 36  1  0  0  0
 34 59  1  0  0  0
 34108  1  0  0  0
 35 44  2  0  0  0
 35 45  1  0  0  0
 35 68  1  0  0  0
 36 56  1  0  0  0
 36109  1  0  0  0
 37 39  1  0  0  0
 37 47  1  0  0  0
 37 66  1  0  0  0
 37110  1  0  0  0
 38 43  2  0  0  0
 38 46  1  0  0  0
 38 47  1  0  0  0
 39 64  1  0  0  0
 39 67  2  0  0  0
 40 52  1  0  0  0
 40 53  2  0  0  0
 40 58  1  0  0  0
 41111  1  0  0  0
 41112  1  0  0  0
 41113  1  0  0  0
 41 48  1  0  0  0
 42 43  1  0  0  0
 42 66  1  0  0  0
 42114  1  0  0  0
 42115  1  0  0  0
 43 44  1  0  0  0
 44116  1  0  0  0
 45 46  2  0  0  0
 45117  1  0  0  0
 46118  1  0  0  0
 47119  1  0  0  0
 47120  1  0  0  0
 48 56  1  0  0  0
 48 65  1  0  0  0
 48121  1  0  0  0
 49 50  1  0  0  0
 49 53  1  0  0  0
 49 64  1  0  0  0
 49122  1  0  0  0
 50 51  1  0  0  0
 50123  1  0  0  0
 50124  1  0  0  0
 51 52  1  0  0  0
 51125  1  0  0  0
 51126  1  0  0  0
 52127  1  0  0  0
 52128  1  0  0  0
 53 54  1  0  0  0
 54 55  2  0  0  0
 54129  1  0  0  0
 55 57  1  0  0  0
 55130  1  0  0  0
 56 69  2  0  0  0
 57 58  2  0  0  0
 57131  1  0  0  0
 58132  1  0  0  0
 59 60  1  0  0  0
 59 61  1  0  0  0
 59 62  1  0  0  0
 60133  1  0  0  0
 60134  1  0  0  0
 60135  1  0  0  0
 61136  1  0  0  0
 61137  1  0  0  0
 61138  1  0  0  0
 62139  1  0  0  0
 62140  1  0  0  0
 62141  1  0  0  0
 63 65  1  0  0  0
 63142  1  0  0  0
 63143  1  0  0  0
 63144  1  0  0  0
 64145  1  0  0  0
 65146  1  0  0  0
 68 82  1  0  0  0
 71 74  2  0  0  0
 71 75  1  0  0  0
 71147  1  0  0  0
 72 73  2  0  0  0
 72 84  1  0  0  0
 72148  1  0  0  0
 73 74  1  0  0  0
 73 83  1  0  0  0
 74 87  1  0  0  0
 75 84  2  0  0  0
 75 85  1  0  0  0
 76 78  1  0  0  0
 76 85  1  0  0  0
 76149  1  0  0  0
 76150  1  0  0  0
 77 79  1  0  0  0
 77 85  1  0  0  0
 77151  1  0  0  0
 77152  1  0  0  0
 78 86  1  0  0  0
 78153  1  0  0  0
 78154  1  0  0  0
 79 86  1  0  0  0
 79155  1  0  0  0
 79156  1  0  0  0
 80157  1  0  0  0
 80158  1  0  0  0
 80159  1  0  0  0
 80 83  1  0  0  0
 81 87  1  0  0  0
 81160  1  0  0  0
 81161  1  0  0  0
 81162  1  0  0  0
 82 83  1  0  0  0
 82163  1  0  0  0
 82164  1  0  0  0
 83165  1  0  0  0
M  ISO  4   1 100  68 101  82 101  86 100
M  END
> <chiral flag>
0

> <version>
0

> <s_m_source_file>
/data/baiqing/PycharmProjects/Reinvent-master-3.2/result/LINK_invent/BTK/process_docking_weight1_custom_sum_contain_oxygen_bond_distance_aromatic_linkinvent_7_9_3/rearranged_h_0155.sdf

> <i_m_source_file_index>
43

> <r_mmod_Potential_Energy-OPLS-2005>
113.08659362793

> <r_mmod_Stretch_Energy-OPLS-2005>
69.1367416381836

> <r_mmod_Bend_Energy-OPLS-2005>
216.946273803711

> <r_mmod_Torsional_Energy-OPLS-2005>
374.931182861328

> <r_mmod_Improper_Torsional_Energy-OPLS-2005>
16.3673515319824

> <r_mmod_Van_der_Waal_Energy-OPLS-2005>
167.404708862305

> <r_mmod_Electrostatic_Energy-OPLS-2005>
-550.816284179688

> <r_mmod_Solvation_Energy-OPLS-2005>
-226.929534912109

> <b_mmod_Minimization_Converged-OPLS-2005>
0

> <r_mmod_RMS_Derivative-OPLS-2005>
1.0412540435791

$$$$
43
                    3D
 Structure written by MMmdl.
170180  0  0  1  0            999 V2000
  -30.6721  -14.4382   20.5329 C   0  0  0  0  0  0
  -30.4169  -12.3090   19.3580 C   0  0  0  0  0  0
  -29.4522  -12.5238   18.1731 C   0  0  0  0  0  0
  -27.9967  -12.3074   18.6275 C   0  0  0  0  0  0
  -27.6503  -13.1522   19.8827 C   0  0  2  0  0  0
  -28.7124  -12.9357   20.9854 C   0  0  0  0  0  0
  -25.2622  -13.8017   20.5759 C   0  0  0  0  0  0
  -24.1800  -13.0368   20.9210 C   0  0  0  0  0  0
  -24.6281  -11.6826   20.8807 C   0  0  0  0  0  0
  -23.8920  -10.4251   21.0469 C   0  0  0  0  0  0
  -24.3501   -9.4167   21.9202 C   0  0  0  0  0  0
  -23.6220   -8.2182   22.0747 C   0  0  0  0  0  0
  -22.4206   -8.0237   21.3540 C   0  0  0  0  0  0
  -21.9820   -9.0196   20.4644 C   0  0  0  0  0  0
  -22.7120  -10.2097   20.3087 C   0  0  0  0  0  0
  -21.6822   -6.0716   22.5281 C   0  0  0  0  0  0
  -21.3974   -6.5618   23.8217 C   0  0  0  0  0  0
  -21.3643   -5.6772   24.9177 C   0  0  0  0  0  0
  -21.6041   -4.3037   24.7246 C   0  0  0  0  0  0
  -21.8808   -3.8141   23.4360 C   0  0  0  0  0  0
  -21.9181   -4.6948   22.3417 C   0  0  0  0  0  0
  -22.7839  -13.5269   21.1828 C   0  0  0  0  0  0
  -22.1645   -4.2132   21.0994 F   0  0  0  0  0  0
  -21.5651   -3.4523   25.7762 F   0  0  0  0  0  0
  -30.0300  -13.2533   20.4126 N   0  0  0  0  0  0
  -26.2963  -12.9021   20.3513 N   0  0  0  0  0  0
  -25.9185  -11.6245   20.5892 N   0  0  0  0  0  0
  -22.0419  -12.8304   22.0378 N   0  0  0  0  0  0
  -25.4489  -15.1717   20.4195 N   0  0  0  0  0  0
  -31.8513  -14.6088   20.2075 O   0  0  0  0  0  0
  -21.6581   -6.8838   21.4240 O   0  0  0  0  0  0
  -22.3580  -14.5577   20.6682 O   0  0  0  0  0  0
  -24.6095  -31.8704   23.2066 C   0  0  0  0  0  0
  -25.9003  -32.4795   23.8380 C   0  0  1  0  0  0
  -27.2539  -27.4858   20.0979 C   0  0  0  0  0  0
  -25.5915  -33.8585   24.2329 N   0  0  0  0  0  0
  -23.3917  -30.4933   21.5450 C   0  0  2  0  0  0
  -24.8394  -28.9485   20.1199 C   0  0  0  0  0  0
  -22.7364  -29.4707   22.4965 C   0  0  0  0  0  0
  -18.0271  -28.1394   22.8488 C   0  0  0  0  0  0
  -24.1489  -36.7333   23.2636 C   0  0  0  0  0  0
  -25.9102  -30.8524   21.3449 C   0  0  0  0  0  0
  -25.9890  -29.4842   20.7076 C   0  0  0  0  0  0
  -27.1928  -28.7583   20.6957 C   0  0  0  0  0  0
  -26.0843  -26.9376   19.5224 C   0  0  0  0  0  0
  -24.8791  -27.6699   19.5269 C   0  0  0  0  0  0
  -23.5967  -29.8081   20.1651 C   0  0  0  0  0  0
  -25.4093  -36.3088   24.0346 C   0  0  1  0  0  0
  -20.5854  -28.3665   23.1318 C   0  0  2  0  0  0
  -20.6759  -26.9403   22.5412 C   0  0  0  0  0  0
  -19.5742  -26.6389   21.5203 C   0  0  0  0  0  0
  -18.1922  -26.7936   22.1617 C   0  0  0  0  0  0
  -19.1516  -28.8838   23.2915 C   0  0  0  0  0  0
  -18.9462  -30.1458   23.8898 C   0  0  0  0  0  0
  -17.6460  -30.6586   24.0573 C   0  0  0  0  0  0
  -25.9035  -34.9456   23.5123 C   0  0  0  0  0  0
  -16.5343  -29.9098   23.6320 C   0  0  0  0  0  0
  -16.7271  -28.6533   23.0308 C   0  0  0  0  0  0
  -26.4446  -31.6561   25.0680 C   0  0  0  0  0  0
  -25.3759  -31.3690   26.1463 C   0  0  0  0  0  0
  -27.0238  -30.3015   24.6020 C   0  0  0  0  0  0
  -27.6049  -32.4240   25.7451 C   0  0  0  0  0  0
  -27.5562  -37.1816   24.8455 C   0  0  0  0  0  0
  -21.4101  -29.3029   22.3702 N   0  0  0  0  0  0
  -26.4265  -37.3780   23.9406 N   0  0  0  0  0  0
  -24.6559  -31.0867   22.0923 N   0  0  0  0  0  0
  -23.4152  -28.8252   23.3014 O   0  0  0  0  0  0
  -28.4887  -26.8831   20.0830 O   0  0  0  0  0  0
  -26.5568  -34.8934   22.4667 O   0  0  0  0  0  0
  -23.5316  -32.1341   23.7557 O   0  0  0  0  0  0
  -33.8528  -23.0292   20.0444 C   0  0  0  0  0  0
  -32.6563  -23.7847   20.0587 C   0  0  0  0  0  0
  -31.3678  -21.7463   20.4543 C   0  0  0  0  0  0
  -33.7812  -21.6318   20.2232 C   0  0  0  0  0  0
  -32.5552  -20.9934   20.3826 C   0  0  0  0  0  0
  -31.4012  -23.1424   20.2669 C   0  0  0  0  0  0
  -34.9240  -20.6450   20.2403 C   0  0  0  0  0  0
  -34.2302  -19.2684   20.1152 C   0  0  0  0  0  0
  -30.8441  -17.4831   21.6638 C   0  0  0  0  0  0
  -29.4313  -17.7344   19.5270 C   0  0  0  0  0  0
  -29.8415  -16.3290   21.8382 C   0  0  0  0  0  0
  -29.5518  -16.2159   19.3753 C   0  0  0  0  0  0
  -32.7386  -19.4825   20.4852 C   0  0  2  0  0  0
  -30.5530  -18.3581   20.4077 C   0  0  0  0  0  0
  -28.5999  -25.4895   19.8939 C   0  0  0  0  0  0
  -30.0931  -25.1483   20.0167 C   0  0  0  0  0  0
  -29.8366  -15.4916   20.6321 N   0  0  0  0  0  0
  -31.8397  -18.5836   19.7151 N   0  0  0  0  0  0
  -31.6082  -19.1451   18.3893 O   0  5  0  0  0  0
  -30.1747  -23.7613   20.2905 O   0  0  0  0  0  0
  -31.4449  -12.4430   19.0217 H   0  0  0  0  0  0
  -30.3551  -11.2887   19.7387 H   0  0  0  0  0  0
  -29.6965  -11.8606   17.3432 H   0  0  0  0  0  0
  -29.5453  -13.5432   17.7912 H   0  0  0  0  0  0
  -27.8801  -11.2495   18.8654 H   0  0  0  0  0  0
  -27.2914  -12.5032   17.8169 H   0  0  0  0  0  0
  -27.6655  -14.1861   19.5718 H   0  0  0  0  0  0
  -28.7072  -11.8898   21.3008 H   0  0  0  0  0  0
  -28.5030  -13.5200   21.8807 H   0  0  0  0  0  0
  -25.2665   -9.5646   22.4747 H   0  0  0  0  0  0
  -23.9954   -7.4565   22.7446 H   0  0  0  0  0  0
  -21.0744   -8.8698   19.8956 H   0  0  0  0  0  0
  -22.3574  -10.9614   19.6200 H   0  0  0  0  0  0
  -21.1911   -7.6122   23.9713 H   0  0  0  0  0  0
  -21.1478   -6.0507   25.9077 H   0  0  0  0  0  0
  -22.0607   -2.7607   23.2864 H   0  0  0  0  0  0
  -22.3961  -11.9966   22.4791 H   0  0  0  0  0  0
  -21.1036  -13.1405   22.2523 H   0  0  0  0  0  0
  -24.6997  -15.8493   20.5210 H   0  0  0  0  0  0
  -26.3403  -15.5952   20.1927 H   0  0  0  0  0  0
  -26.7064  -32.5525   23.1172 H   0  0  0  0  0  0
  -25.0080  -33.9735   25.0482 H   0  0  0  0  0  0
  -22.6768  -31.3086   21.4025 H   0  0  0  0  0  0
  -23.3714  -35.9700   23.3296 H   0  0  0  0  0  0
  -24.3597  -36.8932   22.2046 H   0  0  0  0  0  0
  -23.7292  -37.6580   23.6629 H   0  0  0  0  0  0
  -25.9993  -31.6133   20.5692 H   0  0  0  0  0  0
  -26.8086  -30.9232   21.9477 H   0  0  0  0  0  0
  -28.0835  -29.1781   21.1371 H   0  0  0  0  0  0
  -26.0906  -25.9615   19.0551 H   0  0  0  0  0  0
  -23.9953  -27.2484   19.0678 H   0  0  0  0  0  0
  -23.6823  -30.5692   19.3880 H   0  0  0  0  0  0
  -22.7246  -29.2157   19.8845 H   0  0  0  0  0  0
  -25.1280  -36.1937   25.0838 H   0  0  0  0  0  0
  -20.9974  -28.3256   24.1439 H   0  0  0  0  0  0
  -20.5648  -26.2303   23.3603 H   0  0  0  0  0  0
  -21.6639  -26.7437   22.1229 H   0  0  0  0  0  0
  -19.6904  -25.6308   21.1232 H   0  0  0  0  0  0
  -19.6692  -27.3204   20.6737 H   0  0  0  0  0  0
  -17.4192  -26.6660   21.4030 H   0  0  0  0  0  0
  -18.0348  -26.0093   22.9037 H   0  0  0  0  0  0
  -19.7939  -30.7293   24.2233 H   0  0  0  0  0  0
  -17.5016  -31.6258   24.5194 H   0  0  0  0  0  0
  -15.5351  -30.2998   23.7651 H   0  0  0  0  0  0
  -15.8676  -28.0881   22.6953 H   0  0  0  0  0  0
  -24.5943  -30.6990   25.7877 H   0  0  0  0  0  0
  -24.8925  -32.2842   26.4895 H   0  0  0  0  0  0
  -25.8162  -30.8920   27.0229 H   0  0  0  0  0  0
  -26.2746  -29.6835   24.1053 H   0  0  0  0  0  0
  -27.3996  -29.7198   25.4455 H   0  0  0  0  0  0
  -27.8605  -30.4351   23.9150 H   0  0  0  0  0  0
  -27.2692  -33.3529   26.2087 H   0  0  0  0  0  0
  -28.3864  -32.6794   25.0277 H   0  0  0  0  0  0
  -28.0713  -31.8295   26.5324 H   0  0  0  0  0  0
  -28.2602  -38.0099   24.7458 H   0  0  0  0  0  0
  -28.1041  -36.2625   24.6306 H   0  0  0  0  0  0
  -27.2292  -37.1511   25.8870 H   0  0  0  0  0  0
  -20.9218  -29.8761   21.6946 H   0  0  0  0  0  0
  -26.0155  -38.2867   24.1392 H   0  0  0  0  0  0
  -34.8058  -23.5128   19.8824 H   0  0  0  0  0  0
  -32.7264  -24.8546   19.9115 H   0  0  0  0  0  0
  -30.4097  -21.2844   20.6128 H   0  0  0  0  0  0
  -35.4513  -20.7257   21.1934 H   0  0  0  0  0  0
  -35.6251  -20.8278   19.4255 H   0  0  0  0  0  0
  -34.7045  -18.4665   20.6841 H   0  0  0  0  0  0
  -34.2927  -18.9653   19.0708 H   0  0  0  0  0  0
  -31.8390  -17.0297   21.5825 H   0  0  0  0  0  0
  -30.8900  -18.0904   22.5713 H   0  0  0  0  0  0
  -28.4688  -17.9483   19.9890 H   0  0  0  0  0  0
  -29.3367  -18.1791   18.5345 H   0  0  0  0  0  0
  -28.8358  -16.7180   21.9976 H   0  0  0  0  0  0
  -30.0887  -15.7495   22.7315 H   0  0  0  0  0  0
  -28.6458  -15.8465   18.9051 H   0  0  0  0  0  0
  -30.3380  -16.0232   18.6450 H   0  0  0  0  0  0
  -32.6554  -19.2516   21.5482 H   0  0  0  0  0  0
  -30.1471  -19.3016   20.7629 H   0  0  0  0  0  0
  -28.0413  -24.9716   20.6721 H   0  0  0  0  0  0
  -28.2066  -25.1649   18.9303 H   0  0  0  0  0  0
  -30.6182  -25.4261   19.1038 H   0  0  0  0  0  0
  -30.5470  -25.6894   20.8488 H   0  0  0  0  0  0
  1 25  1  0  0  0
  1 30  2  0  0  0
  1 87  1  0  0  0
  2  3  1  0  0  0
  2 25  1  0  0  0
  2 91  1  0  0  0
  2 92  1  0  0  0
  3  4  1  0  0  0
  3 93  1  0  0  0
  3 94  1  0  0  0
  4  5  1  0  0  0
  4 95  1  0  0  0
  4 96  1  0  0  0
  5  6  1  0  0  0
  5 26  1  0  0  0
  5 97  1  0  0  0
  6 25  1  0  0  0
  6 98  1  0  0  0
  6 99  1  0  0  0
  7  8  2  0  0  0
  7 26  1  0  0  0
  7 29  1  0  0  0
  8  9  1  0  0  0
  8 22  1  0  0  0
  9 10  1  0  0  0
  9 27  2  0  0  0
 10 11  2  0  0  0
 10 15  1  0  0  0
 11 12  1  0  0  0
 11100  1  0  0  0
 12 13  2  0  0  0
 12101  1  0  0  0
 13 14  1  0  0  0
 13 31  1  0  0  0
 14 15  2  0  0  0
 14102  1  0  0  0
 15103  1  0  0  0
 16 17  2  0  0  0
 16 21  1  0  0  0
 16 31  1  0  0  0
 17 18  1  0  0  0
 17104  1  0  0  0
 18 19  2  0  0  0
 18105  1  0  0  0
 19 20  1  0  0  0
 19 24  1  0  0  0
 20 21  2  0  0  0
 20106  1  0  0  0
 21 23  1  0  0  0
 22 28  1  0  0  0
 22 32  2  0  0  0
 26 27  1  0  0  0
 28107  1  0  0  0
 28108  1  0  0  0
 29109  1  0  0  0
 29110  1  0  0  0
 33 34  1  0  0  0
 33 66  1  0  0  0
 33 70  2  0  0  0
 34 36  1  0  0  0
 34 59  1  0  0  0
 34111  1  0  0  0
 35 44  2  0  0  0
 35 45  1  0  0  0
 35 68  1  0  0  0
 36 56  1  0  0  0
 36112  1  0  0  0
 37 39  1  0  0  0
 37 47  1  0  0  0
 37 66  1  0  0  0
 37113  1  0  0  0
 38 43  2  0  0  0
 38 46  1  0  0  0
 38 47  1  0  0  0
 39 64  1  0  0  0
 39 67  2  0  0  0
 40 52  1  0  0  0
 40 53  2  0  0  0
 40 58  1  0  0  0
 41114  1  0  0  0
 41115  1  0  0  0
 41116  1  0  0  0
 41 48  1  0  0  0
 42 43  1  0  0  0
 42 66  1  0  0  0
 42117  1  0  0  0
 42118  1  0  0  0
 43 44  1  0  0  0
 44119  1  0  0  0
 45 46  2  0  0  0
 45120  1  0  0  0
 46121  1  0  0  0
 47122  1  0  0  0
 47123  1  0  0  0
 48 56  1  0  0  0
 48 65  1  0  0  0
 48124  1  0  0  0
 49 50  1  0  0  0
 49 53  1  0  0  0
 49 64  1  0  0  0
 49125  1  0  0  0
 50 51  1  0  0  0
 50126  1  0  0  0
 50127  1  0  0  0
 51 52  1  0  0  0
 51128  1  0  0  0
 51129  1  0  0  0
 52130  1  0  0  0
 52131  1  0  0  0
 53 54  1  0  0  0
 54 55  2  0  0  0
 54132  1  0  0  0
 55 57  1  0  0  0
 55133  1  0  0  0
 56 69  2  0  0  0
 57 58  2  0  0  0
 57134  1  0  0  0
 58135  1  0  0  0
 59 60  1  0  0  0
 59 61  1  0  0  0
 59 62  1  0  0  0
 60136  1  0  0  0
 60137  1  0  0  0
 60138  1  0  0  0
 61139  1  0  0  0
 61140  1  0  0  0
 61141  1  0  0  0
 62142  1  0  0  0
 62143  1  0  0  0
 62144  1  0  0  0
 63 65  1  0  0  0
 63145  1  0  0  0
 63146  1  0  0  0
 63147  1  0  0  0
 64148  1  0  0  0
 65149  1  0  0  0
 68 85  1  0  0  0
 71 72  2  0  0  0
 71 74  1  0  0  0
 71150  1  0  0  0
 72 76  1  0  0  0
 72151  1  0  0  0
 73 75  1  0  0  0
 73 76  2  0  0  0
 73152  1  0  0  0
 74 75  2  0  0  0
 74 77  1  0  0  0
 75 83  1  0  0  0
 76 90  1  0  0  0
 77 78  1  0  0  0
 77153  1  0  0  0
 77154  1  0  0  0
 78 83  1  0  0  0
 78155  1  0  0  0
 78156  1  0  0  0
 79 81  1  0  0  0
 79 84  1  0  0  0
 79157  1  0  0  0
 79158  1  0  0  0
 80 82  1  0  0  0
 80 84  1  0  0  0
 80159  1  0  0  0
 80160  1  0  0  0
 81 87  1  0  0  0
 81161  1  0  0  0
 81162  1  0  0  0
 82 87  1  0  0  0
 82163  1  0  0  0
 82164  1  0  0  0
 83 88  1  0  0  0
 83165  1  0  0  0
 84 88  1  0  0  0
 84166  1  0  0  0
 85 86  1  0  0  0
 85167  1  0  0  0
 85168  1  0  0  0
 86 90  1  0  0  0
 86169  1  0  0  0
 86170  1  0  0  0
 88 89  1  0  0  0
M  CHG  1  89  -1
M  ISO  4   1 100  68 101  85 101  87 100
M  END
> <chiral flag>
0

> <version>
0

> <s_m_source_file>
/data/baiqing/PycharmProjects/Reinvent-master-3.2/result/LINK_invent/BTK/process_docking_weight1_custom_sum_contain_oxygen_bond_distance_aromatic_linkinvent_7_9_3/rearranged_h_0155.sdf

> <i_m_source_file_index>
44

> <r_mmod_Potential_Energy-OPLS-2005>
-110.869300842285

> <r_mmod_Stretch_Energy-OPLS-2005>
39.7296180725098

> <r_mmod_Bend_Energy-OPLS-2005>
179.01789855957

> <r_mmod_Torsional_Energy-OPLS-2005>
369.357971191406

> <r_mmod_Improper_Torsional_Energy-OPLS-2005>
13.9999370574951

> <r_mmod_Van_der_Waal_Energy-OPLS-2005>
176.155410766602

> <r_mmod_Electrostatic_Energy-OPLS-2005>
-316.6552734375

> <r_mmod_Solvation_Energy-OPLS-2005>
-590.713562011719

> <b_mmod_Minimization_Converged-OPLS-2005>
0

> <r_mmod_RMS_Derivative-OPLS-2005>
7.10409545898438

$$$$
44
                    3D
 Structure written by MMmdl.
167176  0  0  1  0            999 V2000
  -30.7090  -14.4461   20.5434 C   0  0  0  0  0  0
  -30.4132  -12.2786   19.4206 C   0  0  0  0  0  0
  -29.4907  -12.4993   18.2039 C   0  0  0  0  0  0
  -28.0076  -12.3793   18.6118 C   0  0  0  0  0  0
  -27.6611  -13.2090   19.8781 C   0  0  2  0  0  0
  -28.7054  -12.9818   20.9952 C   0  0  0  0  0  0
  -25.2553  -13.8166   20.5689 C   0  0  0  0  0  0
  -24.1819  -13.0428   20.9193 C   0  0  0  0  0  0
  -24.6396  -11.6899   20.8750 C   0  0  0  0  0  0
  -23.9072  -10.4297   21.0406 C   0  0  0  0  0  0
  -24.3616   -9.4210   21.9186 C   0  0  0  0  0  0
  -23.6296   -8.2245   22.0757 C   0  0  0  0  0  0
  -22.4288   -8.0285   21.3548 C   0  0  0  0  0  0
  -21.9925   -9.0249   20.4650 C   0  0  0  0  0  0
  -22.7243  -10.2126   20.3061 C   0  0  0  0  0  0
  -21.6849   -6.0751   22.5288 C   0  0  0  0  0  0
  -21.4009   -6.5649   23.8221 C   0  0  0  0  0  0
  -21.3656   -5.6795   24.9181 C   0  0  0  0  0  0
  -21.6054   -4.3065   24.7233 C   0  0  0  0  0  0
  -21.8807   -3.8159   23.4355 C   0  0  0  0  0  0
  -21.9180   -4.6977   22.3415 C   0  0  0  0  0  0
  -22.7830  -13.5213   21.1833 C   0  0  0  0  0  0
  -22.1632   -4.2154   21.0994 F   0  0  0  0  0  0
  -21.5639   -3.4566   25.7753 F   0  0  0  0  0  0
  -30.0331  -13.2711   20.4335 N   0  0  0  0  0  0
  -26.3014  -12.9342   20.3404 N   0  0  0  0  0  0
  -25.9331  -11.6491   20.5793 N   0  0  0  0  0  0
  -22.0476  -12.8211   22.0397 N   0  0  0  0  0  0
  -25.4291  -15.1875   20.4067 N   0  0  0  0  0  0
  -31.8598  -14.6004   20.1231 O   0  0  0  0  0  0
  -21.6636   -6.8893   21.4255 O   0  0  0  0  0  0
  -22.3488  -14.5508   20.6664 O   0  0  0  0  0  0
  -24.6141  -31.8694   23.2098 C   0  0  0  0  0  0
  -25.9029  -32.4852   23.8416 C   0  0  1  0  0  0
  -27.2339  -27.4315   20.0801 C   0  0  0  0  0  0
  -25.5853  -33.8651   24.2317 N   0  0  0  0  0  0
  -23.4020  -30.4939   21.5527 C   0  0  2  0  0  0
  -24.8471  -28.9576   20.1195 C   0  0  0  0  0  0
  -22.7394  -29.4690   22.5005 C   0  0  0  0  0  0
  -18.0274  -28.1358   22.8520 C   0  0  0  0  0  0
  -24.1468  -36.7323   23.2638 C   0  0  0  0  0  0
  -25.9342  -30.8327   21.3677 C   0  0  0  0  0  0
  -26.0094  -29.4666   20.7094 C   0  0  0  0  0  0
  -27.2043  -28.7108   20.6829 C   0  0  0  0  0  0
  -26.0529  -26.9458   19.4704 C   0  0  0  0  0  0
  -24.8630  -27.6970   19.4996 C   0  0  0  0  0  0
  -23.6083  -29.8221   20.1707 C   0  0  0  0  0  0
  -25.4102  -36.3139   24.0330 C   0  0  1  0  0  0
  -20.5853  -28.3644   23.1325 C   0  0  2  0  0  0
  -20.6742  -26.9382   22.5415 C   0  0  0  0  0  0
  -19.5722  -26.6371   21.5212 C   0  0  0  0  0  0
  -18.1908  -26.7912   22.1639 C   0  0  0  0  0  0
  -19.1518  -28.8827   23.2928 C   0  0  0  0  0  0
  -18.9448  -30.1426   23.8939 C   0  0  0  0  0  0
  -17.6449  -30.6580   24.0566 C   0  0  0  0  0  0
  -25.9029  -34.9489   23.5133 C   0  0  0  0  0  0
  -16.5342  -29.9081   23.6319 C   0  0  0  0  0  0
  -16.7262  -28.6486   23.0377 C   0  0  0  0  0  0
  -26.4409  -31.6656   25.0768 C   0  0  0  0  0  0
  -25.3636  -31.3802   26.1489 C   0  0  0  0  0  0
  -27.0238  -30.3085   24.6205 C   0  0  0  0  0  0
  -27.5967  -32.4387   25.7546 C   0  0  0  0  0  0
  -27.5579  -37.1824   24.8460 C   0  0  0  0  0  0
  -21.4121  -29.3030   22.3731 N   0  0  0  0  0  0
  -26.4294  -37.3822   23.9400 N   0  0  0  0  0  0
  -24.6689  -31.0788   22.1014 N   0  0  0  0  0  0
  -23.4174  -28.8212   23.3030 O   0  0  0  0  0  0
  -28.4156  -26.7155   20.0793 O   0  0  0  0  0  0
  -26.5623  -34.8938   22.4713 O   0  0  0  0  0  0
  -23.5325  -32.1438   23.7483 O   0  0  0  0  0  0
  -28.3649  -21.1001   21.4843 C   0  0  0  0  0  0
  -30.7221  -21.0935   20.9565 C   0  0  0  0  0  0
  -30.6382  -22.5039   20.7993 C   0  0  0  0  0  0
  -29.5616  -20.3636   21.3104 C   0  0  0  0  0  0
  -29.3998  -23.1419   21.0594 C   0  0  0  0  0  0
  -28.6700  -17.4987   19.9423 C   0  0  0  0  0  0
  -28.7066  -16.9793   22.4002 C   0  0  0  0  0  0
  -29.9115  -16.5948   19.7866 C   0  0  0  0  0  0
  -29.9484  -16.0903   22.1613 C   0  0  0  0  0  0
  -28.5870  -18.1042   21.3535 C   0  0  0  0  0  0
  -32.0437  -20.3611   20.7632 C   0  0  0  0  0  0
  -31.8561  -23.3305   20.3965 C   0  0  0  0  0  0
  -28.3584  -25.2728   20.0402 C   0  0  0  0  0  0
  -29.2364  -24.6713   21.1624 C   0  0  1  0  0  0
  -28.2913  -22.4443   21.3927 N   0  0  0  0  0  0
  -29.9379  -15.5284   20.8045 N   0  0  0  0  0  0
  -28.5967  -24.9570   22.3928 O   0  0  0  0  0  0
  -29.6866  -19.0032   21.5315 O   0  0  0  0  0  0
  -31.4581  -12.3572   19.1180 H   0  0  0  0  0  0
  -30.2916  -11.2680   19.8133 H   0  0  0  0  0  0
  -29.7187  -11.7780   17.4172 H   0  0  0  0  0  0
  -29.6751  -13.4855   17.7707 H   0  0  0  0  0  0
  -27.7949  -11.3240   18.7849 H   0  0  0  0  0  0
  -27.3666  -12.6825   17.7840 H   0  0  0  0  0  0
  -27.7072  -14.2609   19.5883 H   0  0  0  0  0  0
  -28.6674  -11.9460   21.3412 H   0  0  0  0  0  0
  -28.4870  -13.6024   21.8639 H   0  0  0  0  0  0
  -25.2760   -9.5659   22.4767 H   0  0  0  0  0  0
  -23.9996   -7.4634   22.7477 H   0  0  0  0  0  0
  -21.0868   -8.8772   19.8950 H   0  0  0  0  0  0
  -22.3723  -10.9666   19.6167 H   0  0  0  0  0  0
  -21.1994   -7.6149   23.9724 H   0  0  0  0  0  0
  -21.1492   -6.0536   25.9075 H   0  0  0  0  0  0
  -22.0595   -2.7626   23.2871 H   0  0  0  0  0  0
  -22.4086  -11.9876   22.4780 H   0  0  0  0  0  0
  -21.1087  -13.1210   22.2623 H   0  0  0  0  0  0
  -24.6634  -15.8470   20.5024 H   0  0  0  0  0  0
  -26.2895  -15.6199   20.0988 H   0  0  0  0  0  0
  -26.7099  -32.5547   23.1185 H   0  0  0  0  0  0
  -24.9928  -33.9828   25.0406 H   0  0  0  0  0  0
  -22.6923  -31.3123   21.4125 H   0  0  0  0  0  0
  -23.3733  -35.9655   23.3326 H   0  0  0  0  0  0
  -24.3547  -36.8927   22.2047 H   0  0  0  0  0  0
  -23.7209  -37.6525   23.6643 H   0  0  0  0  0  0
  -26.0542  -31.6063   20.6075 H   0  0  0  0  0  0
  -26.8180  -30.8788   21.9920 H   0  0  0  0  0  0
  -28.1078  -29.1019   21.1298 H   0  0  0  0  0  0
  -26.0380  -26.0003   18.9482 H   0  0  0  0  0  0
  -23.9649  -27.3125   19.0346 H   0  0  0  0  0  0
  -23.7102  -30.5939   19.4071 H   0  0  0  0  0  0
  -22.7314  -29.2387   19.8812 H   0  0  0  0  0  0
  -25.1280  -36.2021   25.0828 H   0  0  0  0  0  0
  -20.9976  -28.3202   24.1432 H   0  0  0  0  0  0
  -20.5623  -26.2252   23.3601 H   0  0  0  0  0  0
  -21.6614  -26.7401   22.1218 H   0  0  0  0  0  0
  -19.6860  -25.6280   21.1242 H   0  0  0  0  0  0
  -19.6650  -27.3178   20.6743 H   0  0  0  0  0  0
  -17.4163  -26.6686   21.4051 H   0  0  0  0  0  0
  -18.0306  -26.0038   22.9024 H   0  0  0  0  0  0
  -19.7919  -30.7237   24.2331 H   0  0  0  0  0  0
  -17.5003  -31.6276   24.5137 H   0  0  0  0  0  0
  -15.5346  -30.3005   23.7607 H   0  0  0  0  0  0
  -15.8664  -28.0811   22.7095 H   0  0  0  0  0  0
  -24.5773  -30.7209   25.7789 H   0  0  0  0  0  0
  -24.8863  -32.2984   26.4933 H   0  0  0  0  0  0
  -25.7921  -30.8934   27.0263 H   0  0  0  0  0  0
  -26.2845  -29.6926   24.1075 H   0  0  0  0  0  0
  -27.3752  -29.7261   25.4734 H   0  0  0  0  0  0
  -27.8779  -30.4377   23.9558 H   0  0  0  0  0  0
  -27.2561  -33.3657   26.2189 H   0  0  0  0  0  0
  -28.3752  -32.7035   25.0373 H   0  0  0  0  0  0
  -28.0675  -31.8495   26.5432 H   0  0  0  0  0  0
  -28.2611  -38.0109   24.7513 H   0  0  0  0  0  0
  -28.1066  -36.2645   24.6285 H   0  0  0  0  0  0
  -27.2292  -37.1475   25.8862 H   0  0  0  0  0  0
  -20.9251  -29.8771   21.6980 H   0  0  0  0  0  0
  -26.0189  -38.2907   24.1396 H   0  0  0  0  0  0
  -27.4352  -20.6313   21.7622 H   0  0  0  0  0  0
  -27.7714  -16.9118   19.7497 H   0  0  0  0  0  0
  -28.6794  -18.2897   19.1902 H   0  0  0  0  0  0
  -28.7335  -17.3978   23.4072 H   0  0  0  0  0  0
  -27.8099  -16.3572   22.3586 H   0  0  0  0  0  0
  -30.8225  -17.1909   19.8615 H   0  0  0  0  0  0
  -29.9098  -16.1613   18.7828 H   0  0  0  0  0  0
  -29.9788  -15.2933   22.9070 H   0  0  0  0  0  0
  -30.8600  -16.6759   22.3001 H   0  0  0  0  0  0
  -27.6187  -18.5836   21.4822 H   0  0  0  0  0  0
  -32.3159  -20.3539   19.7075 H   0  0  0  0  0  0
  -32.0144  -19.3254   21.0996 H   0  0  0  0  0  0
  -32.8388  -20.8462   21.3279 H   0  0  0  0  0  0
  -32.2761  -23.8414   21.2644 H   0  0  0  0  0  0
  -31.5795  -24.0863   19.6610 H   0  0  0  0  0  0
  -32.6466  -22.7394   19.9368 H   0  0  0  0  0  0
  -27.3581  -24.8526   20.1360 H   0  0  0  0  0  0
  -28.7425  -24.9492   19.0712 H   0  0  0  0  0  0
  -30.2032  -25.1735   21.1567 H   0  0  0  0  0  0
  -27.9677  -24.2412   22.4687 H   0  0  0  0  0  0
  1 25  1  0  0  0
  1 30  2  0  0  0
  1 86  1  0  0  0
  2  3  1  0  0  0
  2 25  1  0  0  0
  2 89  1  0  0  0
  2 90  1  0  0  0
  3  4  1  0  0  0
  3 91  1  0  0  0
  3 92  1  0  0  0
  4  5  1  0  0  0
  4 93  1  0  0  0
  4 94  1  0  0  0
  5  6  1  0  0  0
  5 26  1  0  0  0
  5 95  1  0  0  0
  6 25  1  0  0  0
  6 96  1  0  0  0
  6 97  1  0  0  0
  7  8  2  0  0  0
  7 26  1  0  0  0
  7 29  1  0  0  0
  8  9  1  0  0  0
  8 22  1  0  0  0
  9 10  1  0  0  0
  9 27  2  0  0  0
 10 11  2  0  0  0
 10 15  1  0  0  0
 11 12  1  0  0  0
 11 98  1  0  0  0
 12 13  2  0  0  0
 12 99  1  0  0  0
 13 14  1  0  0  0
 13 31  1  0  0  0
 14 15  2  0  0  0
 14100  1  0  0  0
 15101  1  0  0  0
 16 17  2  0  0  0
 16 21  1  0  0  0
 16 31  1  0  0  0
 17 18  1  0  0  0
 17102  1  0  0  0
 18 19  2  0  0  0
 18103  1  0  0  0
 19 20  1  0  0  0
 19 24  1  0  0  0
 20 21  2  0  0  0
 20104  1  0  0  0
 21 23  1  0  0  0
 22 28  1  0  0  0
 22 32  2  0  0  0
 26 27  1  0  0  0
 28105  1  0  0  0
 28106  1  0  0  0
 29107  1  0  0  0
 29108  1  0  0  0
 33 34  1  0  0  0
 33 66  1  0  0  0
 33 70  2  0  0  0
 34 36  1  0  0  0
 34 59  1  0  0  0
 34109  1  0  0  0
 35 44  2  0  0  0
 35 45  1  0  0  0
 35 68  1  0  0  0
 36 56  1  0  0  0
 36110  1  0  0  0
 37 39  1  0  0  0
 37 47  1  0  0  0
 37 66  1  0  0  0
 37111  1  0  0  0
 38 43  2  0  0  0
 38 46  1  0  0  0
 38 47  1  0  0  0
 39 64  1  0  0  0
 39 67  2  0  0  0
 40 52  1  0  0  0
 40 53  2  0  0  0
 40 58  1  0  0  0
 41112  1  0  0  0
 41113  1  0  0  0
 41114  1  0  0  0
 41 48  1  0  0  0
 42 43  1  0  0  0
 42 66  1  0  0  0
 42115  1  0  0  0
 42116  1  0  0  0
 43 44  1  0  0  0
 44117  1  0  0  0
 45 46  2  0  0  0
 45118  1  0  0  0
 46119  1  0  0  0
 47120  1  0  0  0
 47121  1  0  0  0
 48 56  1  0  0  0
 48 65  1  0  0  0
 48122  1  0  0  0
 49 50  1  0  0  0
 49 53  1  0  0  0
 49 64  1  0  0  0
 49123  1  0  0  0
 50 51  1  0  0  0
 50124  1  0  0  0
 50125  1  0  0  0
 51 52  1  0  0  0
 51126  1  0  0  0
 51127  1  0  0  0
 52128  1  0  0  0
 52129  1  0  0  0
 53 54  1  0  0  0
 54 55  2  0  0  0
 54130  1  0  0  0
 55 57  1  0  0  0
 55131  1  0  0  0
 56 69  2  0  0  0
 57 58  2  0  0  0
 57132  1  0  0  0
 58133  1  0  0  0
 59 60  1  0  0  0
 59 61  1  0  0  0
 59 62  1  0  0  0
 60134  1  0  0  0
 60135  1  0  0  0
 60136  1  0  0  0
 61137  1  0  0  0
 61138  1  0  0  0
 61139  1  0  0  0
 62140  1  0  0  0
 62141  1  0  0  0
 62142  1  0  0  0
 63 65  1  0  0  0
 63143  1  0  0  0
 63144  1  0  0  0
 63145  1  0  0  0
 64146  1  0  0  0
 65147  1  0  0  0
 68 83  1  0  0  0
 71 74  2  0  0  0
 71 85  1  0  0  0
 71148  1  0  0  0
 72 73  2  0  0  0
 72 74  1  0  0  0
 72 81  1  0  0  0
 73 75  1  0  0  0
 73 82  1  0  0  0
 74 88  1  0  0  0
 75 84  1  0  0  0
 75 85  2  0  0  0
 76 78  1  0  0  0
 76 80  1  0  0  0
 76149  1  0  0  0
 76150  1  0  0  0
 77 79  1  0  0  0
 77 80  1  0  0  0
 77151  1  0  0  0
 77152  1  0  0  0
 78 86  1  0  0  0
 78153  1  0  0  0
 78154  1  0  0  0
 79 86  1  0  0  0
 79155  1  0  0  0
 79156  1  0  0  0
 80 88  1  0  0  0
 80157  1  0  0  0
 81158  1  0  0  0
 81159  1  0  0  0
 81160  1  0  0  0
 82161  1  0  0  0
 82162  1  0  0  0
 82163  1  0  0  0
 83 84  1  0  0  0
 83164  1  0  0  0
 83165  1  0  0  0
 84 87  1  0  0  0
 84166  1  0  0  0
 87167  1  0  0  0
M  ISO  4   1 100  68 101  83 101  86 100
M  END
> <chiral flag>
0

> <version>
0

> <s_m_source_file>
/data/baiqing/PycharmProjects/Reinvent-master-3.2/result/LINK_invent/BTK/process_docking_weight1_custom_sum_contain_oxygen_bond_distance_aromatic_linkinvent_7_9_3/rearranged_h_0155.sdf

> <i_m_source_file_index>
45

> <r_mmod_Potential_Energy-OPLS-2005>
54.2987442016602

> <r_mmod_Stretch_Energy-OPLS-2005>
41.1731643676758

> <r_mmod_Bend_Energy-OPLS-2005>
118.753997802734

> <r_mmod_Torsional_Energy-OPLS-2005>
332.302276611328

> <r_mmod_Improper_Torsional_Energy-OPLS-2005>
13.6801652908325

> <r_mmod_Van_der_Waal_Energy-OPLS-2005>
165.627319335938

> <r_mmod_Electrostatic_Energy-OPLS-2005>
-412.587646484375

> <r_mmod_Solvation_Energy-OPLS-2005>
-217.891784667969

> <b_mmod_Minimization_Converged-OPLS-2005>
0

> <r_mmod_RMS_Derivative-OPLS-2005>
3.85637211799622

$$$$
45
                    3D
 Structure written by MMmdl.
180190  0  0  1  0            999 V2000
  -30.6810  -14.5856   20.5437 C   0  0  0  0  0  0
  -30.4310  -12.3727   19.4498 C   0  0  0  0  0  0
  -29.5061  -12.5251   18.2220 C   0  0  0  0  0  0
  -28.0266  -12.3642   18.6286 C   0  0  0  0  0  0
  -27.6584  -13.2136   19.8758 C   0  0  2  0  0  0
  -28.7055  -13.0300   20.9983 C   0  0  0  0  0  0
  -25.2596  -13.8182   20.5746 C   0  0  0  0  0  0
  -24.1827  -13.0456   20.9187 C   0  0  0  0  0  0
  -24.6375  -11.6913   20.8733 C   0  0  0  0  0  0
  -23.9044  -10.4312   21.0429 C   0  0  0  0  0  0
  -24.3599   -9.4224   21.9209 C   0  0  0  0  0  0
  -23.6291   -8.2243   22.0771 C   0  0  0  0  0  0
  -22.4273   -8.0285   21.3538 C   0  0  0  0  0  0
  -21.9895   -9.0268   20.4644 C   0  0  0  0  0  0
  -22.7220  -10.2154   20.3076 C   0  0  0  0  0  0
  -21.6857   -6.0734   22.5271 C   0  0  0  0  0  0
  -21.4018   -6.5642   23.8207 C   0  0  0  0  0  0
  -21.3656   -5.6798   24.9171 C   0  0  0  0  0  0
  -21.6043   -4.3059   24.7215 C   0  0  0  0  0  0
  -21.8820   -3.8145   23.4339 C   0  0  0  0  0  0
  -21.9201   -4.6965   22.3394 C   0  0  0  0  0  0
  -22.7851  -13.5283   21.1836 C   0  0  0  0  0  0
  -22.1668   -4.2147   21.0970 F   0  0  0  0  0  0
  -21.5625   -3.4553   25.7741 F   0  0  0  0  0  0
  -30.0163  -13.3904   20.4378 N   0  0  0  0  0  0
  -26.3024  -12.9335   20.3384 N   0  0  0  0  0  0
  -25.9300  -11.6498   20.5743 N   0  0  0  0  0  0
  -22.0444  -12.8302   22.0363 N   0  0  0  0  0  0
  -25.4385  -15.1902   20.4238 N   0  0  0  0  0  0
  -31.8376  -14.6938   20.1238 O   0  0  0  0  0  0
  -21.6623   -6.8883   21.4241 O   0  0  0  0  0  0
  -22.3563  -14.5612   20.6715 O   0  0  0  0  0  0
  -24.6221  -31.8621   23.2032 C   0  0  0  0  0  0
  -25.9077  -32.4791   23.8356 C   0  0  1  0  0  0
  -27.2387  -27.3584   20.1291 C   0  0  0  0  0  0
  -25.5902  -33.8589   24.2297 N   0  0  0  0  0  0
  -23.4141  -30.4813   21.5450 C   0  0  2  0  0  0
  -24.8640  -28.9287   20.1224 C   0  0  0  0  0  0
  -22.7451  -29.4630   22.4967 C   0  0  0  0  0  0
  -18.0275  -28.1395   22.8497 C   0  0  0  0  0  0
  -24.1471  -36.7285   23.2642 C   0  0  0  0  0  0
  -25.9485  -30.8058   21.3651 C   0  0  0  0  0  0
  -26.0268  -29.4307   20.7184 C   0  0  0  0  0  0
  -27.2183  -28.6577   20.7064 C   0  0  0  0  0  0
  -26.0553  -26.8814   19.5299 C   0  0  0  0  0  0
  -24.8759  -27.6565   19.5213 C   0  0  0  0  0  0
  -23.6289  -29.8051   20.1633 C   0  0  0  0  0  0
  -25.4098  -36.3099   24.0339 C   0  0  1  0  0  0
  -20.5878  -28.3684   23.1305 C   0  0  2  0  0  0
  -20.6761  -26.9410   22.5422 C   0  0  0  0  0  0
  -19.5735  -26.6398   21.5218 C   0  0  0  0  0  0
  -18.1916  -26.7939   22.1631 C   0  0  0  0  0  0
  -19.1530  -28.8854   23.2897 C   0  0  0  0  0  0
  -18.9457  -30.1461   23.8904 C   0  0  0  0  0  0
  -17.6461  -30.6596   24.0570 C   0  0  0  0  0  0
  -25.9036  -34.9464   23.5125 C   0  0  0  0  0  0
  -16.5350  -29.9097   23.6343 C   0  0  0  0  0  0
  -16.7267  -28.6516   23.0360 C   0  0  0  0  0  0
  -26.4487  -31.6600   25.0713 C   0  0  0  0  0  0
  -25.3734  -31.3724   26.1456 C   0  0  0  0  0  0
  -27.0330  -30.3036   24.6132 C   0  0  0  0  0  0
  -27.6063  -32.4328   25.7472 C   0  0  0  0  0  0
  -27.5575  -37.1791   24.8466 C   0  0  0  0  0  0
  -21.4172  -29.3036   22.3702 N   0  0  0  0  0  0
  -26.4280  -37.3795   23.9426 N   0  0  0  0  0  0
  -24.6803  -31.0664   22.0956 N   0  0  0  0  0  0
  -23.4191  -28.8195   23.3056 O   0  0  0  0  0  0
  -28.4088  -26.6046   20.0884 O   0  0  0  0  0  0
  -26.5611  -34.8932   22.4694 O   0  0  0  0  0  0
  -23.5392  -32.1395   23.7389 O   0  0  0  0  0  0
  -28.2131  -21.9504   17.6425 C   0  0  0  0  0  0
  -28.8930  -19.2812   17.9045 C   0  0  0  0  0  0
  -28.6502  -21.5100   18.9242 C   0  0  0  0  0  0
  -28.1208  -21.1064   16.5246 C   0  0  0  0  0  0
  -28.4839  -19.7580   16.6508 C   0  0  0  0  0  0
  -28.9747  -20.0992   19.0656 C   0  0  0  0  0  0
  -29.0667  -17.6610   21.9226 C   0  0  0  0  0  0
  -28.3272  -24.0806   19.5925 C   0  0  0  0  0  0
  -30.0621  -22.6364   20.7827 C   0  0  0  0  0  0
  -29.8335  -25.1333   21.3067 C   0  0  0  0  0  0
  -29.1845  -16.1174   21.9230 C   0  0  0  0  0  0
  -30.2308  -17.0021   20.0001 C   0  0  0  0  0  0
  -28.6969  -22.6004   20.0603 C   0  0  2  0  0  0
  -29.1618  -18.0484   20.4514 C   0  0  2  0  0  0
  -28.4491  -25.2435   20.6345 C   0  0  1  0  0  0
  -30.1916  -23.7345   21.8770 C   0  0  0  0  0  0
  -27.6200  -21.6580   15.2021 C   0  0  0  0  0  0
  -28.4473  -18.8144   15.4572 C   0  0  0  0  0  0
  -29.3094  -23.4025   23.0996 C   0  0  0  0  0  0
  -31.6591  -23.7700   22.3538 C   0  0  0  0  0  0
  -29.9395  -15.7323   20.7195 N   0  0  0  0  0  0
  -29.3755  -19.4910   20.2634 O   0  0  0  0  0  0
  -31.4763  -12.4710   19.1511 H   0  0  0  0  0  0
  -30.3413  -11.3743   19.8782 H   0  0  0  0  0  0
  -29.7668  -11.7918   17.4559 H   0  0  0  0  0  0
  -29.6552  -13.5078   17.7722 H   0  0  0  0  0  0
  -27.8533  -11.3075   18.8353 H   0  0  0  0  0  0
  -27.3761  -12.6166   17.7908 H   0  0  0  0  0  0
  -27.6911  -14.2580   19.5621 H   0  0  0  0  0  0
  -28.7151  -11.9922   21.3390 H   0  0  0  0  0  0
  -28.4587  -13.6050   21.8877 H   0  0  0  0  0  0
  -25.2742   -9.5721   22.4791 H   0  0  0  0  0  0
  -24.0006   -7.4656   22.7509 H   0  0  0  0  0  0
  -21.0814   -8.8804   19.8953 H   0  0  0  0  0  0
  -22.3691  -10.9714   19.6193 H   0  0  0  0  0  0
  -21.2003   -7.6160   23.9722 H   0  0  0  0  0  0
  -21.1484   -6.0515   25.9079 H   0  0  0  0  0  0
  -22.0599   -2.7612   23.2838 H   0  0  0  0  0  0
  -22.4008  -11.9934   22.4742 H   0  0  0  0  0  0
  -21.1085  -13.1387   22.2582 H   0  0  0  0  0  0
  -24.6868  -15.8551   20.5728 H   0  0  0  0  0  0
  -26.3028  -15.6265   20.1280 H   0  0  0  0  0  0
  -26.7147  -32.5499   23.1116 H   0  0  0  0  0  0
  -25.0040  -33.9728   25.0435 H   0  0  0  0  0  0
  -22.7066  -31.2997   21.3982 H   0  0  0  0  0  0
  -23.3751  -35.9599   23.3307 H   0  0  0  0  0  0
  -24.3562  -36.8901   22.2056 H   0  0  0  0  0  0
  -23.7197  -37.6477   23.6653 H   0  0  0  0  0  0
  -26.0665  -31.5654   20.5910 H   0  0  0  0  0  0
  -26.8344  -30.8650   21.9866 H   0  0  0  0  0  0
  -28.1202  -29.0470   21.1576 H   0  0  0  0  0  0
  -26.0399  -25.9110   19.0551 H   0  0  0  0  0  0
  -23.9836  -27.2651   19.0536 H   0  0  0  0  0  0
  -23.7450  -30.5737   19.3985 H   0  0  0  0  0  0
  -22.7517  -29.2269   19.8684 H   0  0  0  0  0  0
  -25.1276  -36.1950   25.0831 H   0  0  0  0  0  0
  -20.9964  -28.3253   24.1428 H   0  0  0  0  0  0
  -20.5663  -26.2290   23.3615 H   0  0  0  0  0  0
  -21.6633  -26.7443   22.1219 H   0  0  0  0  0  0
  -19.6888  -25.6313   21.1235 H   0  0  0  0  0  0
  -19.6669  -27.3220   20.6756 H   0  0  0  0  0  0
  -17.4187  -26.6702   21.4031 H   0  0  0  0  0  0
  -18.0302  -26.0082   22.9025 H   0  0  0  0  0  0
  -19.7934  -30.7279   24.2279 H   0  0  0  0  0  0
  -17.5014  -31.6275   24.5174 H   0  0  0  0  0  0
  -15.5351  -30.3002   23.7661 H   0  0  0  0  0  0
  -15.8665  -28.0833   22.7079 H   0  0  0  0  0  0
  -24.5885  -30.7104   25.7784 H   0  0  0  0  0  0
  -24.8951  -32.2888   26.4927 H   0  0  0  0  0  0
  -25.8069  -30.8864   27.0207 H   0  0  0  0  0  0
  -26.2890  -29.6783   24.1183 H   0  0  0  0  0  0
  -27.4086  -29.7299   25.4619 H   0  0  0  0  0  0
  -27.8732  -30.4355   23.9307 H   0  0  0  0  0  0
  -27.2689  -33.3628   26.2065 H   0  0  0  0  0  0
  -28.3857  -32.6894   25.0281 H   0  0  0  0  0  0
  -28.0749  -31.8440   26.5371 H   0  0  0  0  0  0
  -28.2600  -38.0086   24.7549 H   0  0  0  0  0  0
  -28.1068  -36.2628   24.6251 H   0  0  0  0  0  0
  -27.2304  -37.1398   25.8871 H   0  0  0  0  0  0
  -20.9351  -29.8732   21.6885 H   0  0  0  0  0  0
  -26.0166  -38.2865   24.1460 H   0  0  0  0  0  0
  -27.9197  -22.9708   17.4653 H   0  0  0  0  0  0
  -29.1483  -18.2399   17.9364 H   0  0  0  0  0  0
  -29.8995  -18.1015   22.4739 H   0  0  0  0  0  0
  -28.1427  -18.0105   22.3887 H   0  0  0  0  0  0
  -27.3098  -24.0860   19.2074 H   0  0  0  0  0  0
  -28.9880  -24.3477   18.7673 H   0  0  0  0  0  0
  -30.8430  -22.7813   20.0344 H   0  0  0  0  0  0
  -30.2658  -21.6648   21.2343 H   0  0  0  0  0  0
  -29.9108  -25.8842   22.0938 H   0  0  0  0  0  0
  -30.5873  -25.4078   20.5663 H   0  0  0  0  0  0
  -28.1797  -15.7025   21.8784 H   0  0  0  0  0  0
  -29.6653  -15.7536   22.8331 H   0  0  0  0  0  0
  -31.2299  -17.3465   20.2752 H   0  0  0  0  0  0
  -30.2458  -16.8082   18.9289 H   0  0  0  0  0  0
  -27.9462  -22.2956   20.7895 H   0  0  0  0  0  0
  -28.2020  -17.7820   20.0018 H   0  0  0  0  0  0
  -27.6702  -25.1349   21.3915 H   0  0  0  0  0  0
  -27.5155  -22.7433   15.2278 H   0  0  0  0  0  0
  -26.6419  -21.2358   14.9670 H   0  0  0  0  0  0
  -28.3064  -21.4086   14.3926 H   0  0  0  0  0  0
  -28.6280  -17.7801   15.7523 H   0  0  0  0  0  0
  -29.2150  -19.0931   14.7335 H   0  0  0  0  0  0
  -27.4789  -18.8480   14.9574 H   0  0  0  0  0  0
  -28.2476  -23.3945   22.8556 H   0  0  0  0  0  0
  -29.4489  -24.1334   23.8978 H   0  0  0  0  0  0
  -29.5525  -22.4221   23.5121 H   0  0  0  0  0  0
  -32.3414  -24.0177   21.5385 H   0  0  0  0  0  0
  -31.9778  -22.8081   22.7566 H   0  0  0  0  0  0
  -31.8140  -24.5160   23.1346 H   0  0  0  0  0  0
  1 25  1  0  0  0
  1 30  2  0  0  0
  1 91  1  0  0  0
  2  3  1  0  0  0
  2 25  1  0  0  0
  2 93  1  0  0  0
  2 94  1  0  0  0
  3  4  1  0  0  0
  3 95  1  0  0  0
  3 96  1  0  0  0
  4  5  1  0  0  0
  4 97  1  0  0  0
  4 98  1  0  0  0
  5  6  1  0  0  0
  5 26  1  0  0  0
  5 99  1  0  0  0
  6 25  1  0  0  0
  6100  1  0  0  0
  6101  1  0  0  0
  7  8  2  0  0  0
  7 26  1  0  0  0
  7 29  1  0  0  0
  8  9  1  0  0  0
  8 22  1  0  0  0
  9 10  1  0  0  0
  9 27  2  0  0  0
 10 11  2  0  0  0
 10 15  1  0  0  0
 11 12  1  0  0  0
 11102  1  0  0  0
 12 13  2  0  0  0
 12103  1  0  0  0
 13 14  1  0  0  0
 13 31  1  0  0  0
 14 15  2  0  0  0
 14104  1  0  0  0
 15105  1  0  0  0
 16 17  2  0  0  0
 16 21  1  0  0  0
 16 31  1  0  0  0
 17 18  1  0  0  0
 17106  1  0  0  0
 18 19  2  0  0  0
 18107  1  0  0  0
 19 20  1  0  0  0
 19 24  1  0  0  0
 20 21  2  0  0  0
 20108  1  0  0  0
 21 23  1  0  0  0
 22 28  1  0  0  0
 22 32  2  0  0  0
 26 27  1  0  0  0
 28109  1  0  0  0
 28110  1  0  0  0
 29111  1  0  0  0
 29112  1  0  0  0
 33 34  1  0  0  0
 33 66  1  0  0  0
 33 70  2  0  0  0
 34 36  1  0  0  0
 34 59  1  0  0  0
 34113  1  0  0  0
 35 44  2  0  0  0
 35 45  1  0  0  0
 35 68  1  0  0  0
 36 56  1  0  0  0
 36114  1  0  0  0
 37 39  1  0  0  0
 37 47  1  0  0  0
 37 66  1  0  0  0
 37115  1  0  0  0
 38 43  2  0  0  0
 38 46  1  0  0  0
 38 47  1  0  0  0
 39 64  1  0  0  0
 39 67  2  0  0  0
 40 52  1  0  0  0
 40 53  2  0  0  0
 40 58  1  0  0  0
 41116  1  0  0  0
 41117  1  0  0  0
 41118  1  0  0  0
 41 48  1  0  0  0
 42 43  1  0  0  0
 42 66  1  0  0  0
 42119  1  0  0  0
 42120  1  0  0  0
 43 44  1  0  0  0
 44121  1  0  0  0
 45 46  2  0  0  0
 45122  1  0  0  0
 46123  1  0  0  0
 47124  1  0  0  0
 47125  1  0  0  0
 48 56  1  0  0  0
 48 65  1  0  0  0
 48126  1  0  0  0
 49 50  1  0  0  0
 49 53  1  0  0  0
 49 64  1  0  0  0
 49127  1  0  0  0
 50 51  1  0  0  0
 50128  1  0  0  0
 50129  1  0  0  0
 51 52  1  0  0  0
 51130  1  0  0  0
 51131  1  0  0  0
 52132  1  0  0  0
 52133  1  0  0  0
 53 54  1  0  0  0
 54 55  2  0  0  0
 54134  1  0  0  0
 55 57  1  0  0  0
 55135  1  0  0  0
 56 69  2  0  0  0
 57 58  2  0  0  0
 57136  1  0  0  0
 58137  1  0  0  0
 59 60  1  0  0  0
 59 61  1  0  0  0
 59 62  1  0  0  0
 60138  1  0  0  0
 60139  1  0  0  0
 60140  1  0  0  0
 61141  1  0  0  0
 61142  1  0  0  0
 61143  1  0  0  0
 62144  1  0  0  0
 62145  1  0  0  0
 62146  1  0  0  0
 63 65  1  0  0  0
 63147  1  0  0  0
 63148  1  0  0  0
 63149  1  0  0  0
 64150  1  0  0  0
 65151  1  0  0  0
 68 85  1  0  0  0
 71 73  2  0  0  0
 71 74  1  0  0  0
 71152  1  0  0  0
 72 75  1  0  0  0
 72 76  2  0  0  0
 72153  1  0  0  0
 73 76  1  0  0  0
 73 83  1  0  0  0
 74 75  2  0  0  0
 74 87  1  0  0  0
 75 88  1  0  0  0
 76 92  1  0  0  0
 77 81  1  0  0  0
 77 84  1  0  0  0
 77154  1  0  0  0
 77155  1  0  0  0
 78 83  1  0  0  0
 78 85  1  0  0  0
 78156  1  0  0  0
 78157  1  0  0  0
 79 83  1  0  0  0
 79 86  1  0  0  0
 79158  1  0  0  0
 79159  1  0  0  0
 80 85  1  0  0  0
 80 86  1  0  0  0
 80160  1  0  0  0
 80161  1  0  0  0
 81 91  1  0  0  0
 81162  1  0  0  0
 81163  1  0  0  0
 82 84  1  0  0  0
 82 91  1  0  0  0
 82164  1  0  0  0
 82165  1  0  0  0
 83166  1  0  0  0
 84 92  1  0  0  0
 84167  1  0  0  0
 85168  1  0  0  0
 86 89  1  0  0  0
 86 90  1  0  0  0
 87169  1  0  0  0
 87170  1  0  0  0
 87171  1  0  0  0
 88172  1  0  0  0
 88173  1  0  0  0
 88174  1  0  0  0
 89175  1  0  0  0
 89176  1  0  0  0
 89177  1  0  0  0
 90178  1  0  0  0
 90179  1  0  0  0
 90180  1  0  0  0
M  ISO  4   1 100  68 101  85 101  91 100
M  END
> <chiral flag>
0

> <version>
0

> <s_m_source_file>
/data/baiqing/PycharmProjects/Reinvent-master-3.2/result/LINK_invent/BTK/process_docking_weight1_custom_sum_contain_oxygen_bond_distance_aromatic_linkinvent_7_9_3/rearranged_h_0155.sdf

> <i_m_source_file_index>
46

> <r_mmod_Potential_Energy-OPLS-2005>
288.402984619141

> <r_mmod_Stretch_Energy-OPLS-2005>
78.072509765625

> <r_mmod_Bend_Energy-OPLS-2005>
185.373519897461

> <r_mmod_Torsional_Energy-OPLS-2005>
354.072387695312

> <r_mmod_Improper_Torsional_Energy-OPLS-2005>
13.5294342041016

> <r_mmod_Van_der_Waal_Energy-OPLS-2005>
155.530059814453

> <r_mmod_Electrostatic_Energy-OPLS-2005>
-335.598480224609

> <r_mmod_Solvation_Energy-OPLS-2005>
-191.262817382812

> <b_mmod_Minimization_Converged-OPLS-2005>
0

> <r_mmod_RMS_Derivative-OPLS-2005>
3.38141918182373

$$$$
46
                    3D
 Structure written by MMmdl.
171181  0  0  1  0            999 V2000
  -30.6736  -14.7333   20.4673 C   0  0  0  0  0  0
  -30.4172  -12.4567   19.4693 C   0  0  0  0  0  0
  -29.5016  -12.5048   18.2297 C   0  0  0  0  0  0
  -28.0301  -12.3312   18.6500 C   0  0  0  0  0  0
  -27.6389  -13.2364   19.8499 C   0  0  2  0  0  0
  -28.6887  -13.1861   20.9801 C   0  0  0  0  0  0
  -25.2508  -13.8211   20.5724 C   0  0  0  0  0  0
  -24.1799  -13.0443   20.9206 C   0  0  0  0  0  0
  -24.6387  -11.6915   20.8753 C   0  0  0  0  0  0
  -23.9062  -10.4287   21.0406 C   0  0  0  0  0  0
  -24.3607   -9.4198   21.9189 C   0  0  0  0  0  0
  -23.6277   -8.2229   22.0752 C   0  0  0  0  0  0
  -22.4261   -8.0272   21.3541 C   0  0  0  0  0  0
  -21.9891   -9.0253   20.4652 C   0  0  0  0  0  0
  -22.7229  -10.2127   20.3060 C   0  0  0  0  0  0
  -21.6848   -6.0724   22.5280 C   0  0  0  0  0  0
  -21.4017   -6.5628   23.8212 C   0  0  0  0  0  0
  -21.3664   -5.6782   24.9176 C   0  0  0  0  0  0
  -21.6041   -4.3044   24.7227 C   0  0  0  0  0  0
  -21.8821   -3.8134   23.4349 C   0  0  0  0  0  0
  -21.9191   -4.6948   22.3402 C   0  0  0  0  0  0
  -22.7815  -13.5225   21.1853 C   0  0  0  0  0  0
  -22.1666   -4.2133   21.0982 F   0  0  0  0  0  0
  -21.5621   -3.4532   25.7743 F   0  0  0  0  0  0
  -29.9758  -13.5461   20.3758 N   0  0  0  0  0  0
  -26.2933  -12.9419   20.3319 N   0  0  0  0  0  0
  -25.9327  -11.6549   20.5770 N   0  0  0  0  0  0
  -22.0467  -12.8230   22.0422 N   0  0  0  0  0  0
  -25.4201  -15.1930   20.4166 N   0  0  0  0  0  0
  -31.8791  -14.7029   20.1966 O   0  0  0  0  0  0
  -21.6630   -6.8865   21.4237 O   0  0  0  0  0  0
  -22.3498  -14.5525   20.6682 O   0  0  0  0  0  0
  -24.6301  -31.8558   23.1999 C   0  0  0  0  0  0
  -25.9131  -32.4751   23.8346 C   0  0  1  0  0  0
  -27.2154  -27.2721   20.1304 C   0  0  0  0  0  0
  -25.5941  -33.8550   24.2274 N   0  0  0  0  0  0
  -23.4288  -30.4793   21.5411 C   0  0  2  0  0  0
  -24.8779  -28.9330   20.1058 C   0  0  0  0  0  0
  -22.7510  -29.4603   22.4886 C   0  0  0  0  0  0
  -18.0297  -28.1390   22.8472 C   0  0  0  0  0  0
  -24.1488  -36.7280   23.2645 C   0  0  0  0  0  0
  -25.9744  -30.7711   21.3809 C   0  0  0  0  0  0
  -26.0492  -29.3957   20.7212 C   0  0  0  0  0  0
  -27.2248  -28.5773   20.7251 C   0  0  0  0  0  0
  -26.0327  -26.8895   19.4618 C   0  0  0  0  0  0
  -24.8740  -27.6872   19.4620 C   0  0  0  0  0  0
  -23.6484  -29.8185   20.1551 C   0  0  0  0  0  0
  -25.4113  -36.3067   24.0340 C   0  0  1  0  0  0
  -20.5901  -28.3700   23.1256 C   0  0  2  0  0  0
  -20.6772  -26.9411   22.5406 C   0  0  0  0  0  0
  -19.5759  -26.6381   21.5200 C   0  0  0  0  0  0
  -18.1942  -26.7935   22.1605 C   0  0  0  0  0  0
  -19.1550  -28.8860   23.2864 C   0  0  0  0  0  0
  -18.9469  -30.1456   23.8885 C   0  0  0  0  0  0
  -17.6469  -30.6584   24.0556 C   0  0  0  0  0  0
  -25.9055  -34.9437   23.5108 C   0  0  0  0  0  0
  -16.5360  -29.9081   23.6327 C   0  0  0  0  0  0
  -16.7284  -28.6501   23.0344 C   0  0  0  0  0  0
  -26.4500  -31.6568   25.0728 C   0  0  0  0  0  0
  -25.3731  -31.3732   26.1457 C   0  0  0  0  0  0
  -27.0330  -30.2973   24.6232 C   0  0  0  0  0  0
  -27.6079  -32.4289   25.7486 C   0  0  0  0  0  0
  -27.5584  -37.1793   24.8465 C   0  0  0  0  0  0
  -21.4212  -29.3045   22.3638 N   0  0  0  0  0  0
  -26.4287  -37.3768   23.9417 N   0  0  0  0  0  0
  -24.6965  -31.0540   22.0964 N   0  0  0  0  0  0
  -23.4209  -28.8147   23.2991 O   0  0  0  0  0  0
  -28.2629  -26.3263   20.1896 O   0  0  0  0  0  0
  -26.5616  -34.8910   22.4668 O   0  0  0  0  0  0
  -23.5450  -32.1375   23.7298 O   0  0  0  0  0  0
  -28.6708  -21.3192   19.6119 C   0  0  0  0  0  0
  -29.3287  -23.0234   21.6908 C   0  0  0  0  0  0
  -29.3771  -20.7169   20.6984 C   0  0  0  0  0  0
  -29.7470  -21.6463   21.7389 C   0  0  0  0  0  0
  -28.2869  -22.7070   19.5694 C   0  0  0  0  0  0
  -28.5834  -23.6098   20.6339 C   0  0  0  0  0  0
  -32.4323  -21.3975   24.0457 C   0  0  0  0  0  0
  -32.0197  -20.7306   22.7359 C   0  0  0  0  0  0
  -31.2019  -22.2813   23.8765 C   0  0  0  0  0  0
  -28.7900  -18.1304   21.3870 C   0  0  0  0  0  0
  -30.0222  -18.4472   19.3640 C   0  0  0  0  0  0
  -29.3133  -16.6299   21.5389 C   0  0  0  0  0  0
  -30.6649  -17.0143   19.5082 C   0  0  0  0  0  0
  -29.7616  -19.1511   20.7152 C   0  0  0  0  0  0
  -30.5631  -21.2002   22.9670 C   0  0  0  0  0  0
  -27.4828  -23.1988   18.3804 C   0  0  0  0  0  0
  -27.8785  -25.0316   20.8423 C   0  0  0  0  0  0
  -30.0215  -15.9788   20.3895 N   0  0  0  0  0  0
  -29.7843  -20.2942   23.7166 O   0  0  0  0  0  0
  -31.4604  -12.5499   19.1624 H   0  0  0  0  0  0
  -30.3443  -11.4876   19.9659 H   0  0  0  0  0  0
  -29.7831  -11.7259   17.5198 H   0  0  0  0  0  0
  -29.6276  -13.4572   17.7116 H   0  0  0  0  0  0
  -27.8912  -11.2840   18.9201 H   0  0  0  0  0  0
  -27.3665  -12.5169   17.8043 H   0  0  0  0  0  0
  -27.6291  -14.2572   19.4658 H   0  0  0  0  0  0
  -28.7374  -12.1895   21.4208 H   0  0  0  0  0  0
  -28.4284  -13.8574   21.7952 H   0  0  0  0  0  0
  -25.2750   -9.5672   22.4764 H   0  0  0  0  0  0
  -23.9991   -7.4611   22.7462 H   0  0  0  0  0  0
  -21.0811   -8.8773   19.8961 H   0  0  0  0  0  0
  -22.3688  -10.9661   19.6162 H   0  0  0  0  0  0
  -21.2015   -7.6142   23.9718 H   0  0  0  0  0  0
  -21.1488   -6.0512   25.9083 H   0  0  0  0  0  0
  -22.0594   -2.7594   23.2853 H   0  0  0  0  0  0
  -22.4078  -11.9901   22.4830 H   0  0  0  0  0  0
  -21.1094  -13.1274   22.2650 H   0  0  0  0  0  0
  -24.6525  -15.8462   20.5324 H   0  0  0  0  0  0
  -26.2776  -15.6356   20.1100 H   0  0  0  0  0  0
  -26.7202  -32.5410   23.1091 H   0  0  0  0  0  0
  -25.0096  -33.9685   25.0425 H   0  0  0  0  0  0
  -22.7260  -31.3014   21.3964 H   0  0  0  0  0  0
  -23.3750  -35.9613   23.3303 H   0  0  0  0  0  0
  -24.3578  -36.8897   22.2060 H   0  0  0  0  0  0
  -23.7236  -37.6486   23.6653 H   0  0  0  0  0  0
  -26.1178  -31.5340   20.6143 H   0  0  0  0  0  0
  -26.8496  -30.8161   22.0170 H   0  0  0  0  0  0
  -28.1171  -28.9201   21.2303 H   0  0  0  0  0  0
  -25.9883  -25.9362   18.9556 H   0  0  0  0  0  0
  -23.9821  -27.3331   18.9634 H   0  0  0  0  0  0
  -23.7734  -30.5961   19.4004 H   0  0  0  0  0  0
  -22.7681  -29.2511   19.8492 H   0  0  0  0  0  0
  -25.1290  -36.1921   25.0835 H   0  0  0  0  0  0
  -21.0006  -28.3277   24.1370 H   0  0  0  0  0  0
  -20.5636  -26.2318   23.3616 H   0  0  0  0  0  0
  -21.6648  -26.7405   22.1232 H   0  0  0  0  0  0
  -19.6919  -25.6288   21.1242 H   0  0  0  0  0  0
  -19.6713  -27.3171   20.6717 H   0  0  0  0  0  0
  -17.4219  -26.6675   21.4005 H   0  0  0  0  0  0
  -18.0340  -26.0078   22.9000 H   0  0  0  0  0  0
  -19.7947  -30.7265   24.2257 H   0  0  0  0  0  0
  -17.5026  -31.6259   24.5168 H   0  0  0  0  0  0
  -15.5358  -30.2974   23.7666 H   0  0  0  0  0  0
  -15.8686  -28.0819   22.7054 H   0  0  0  0  0  0
  -24.5933  -30.7035   25.7808 H   0  0  0  0  0  0
  -24.8879  -32.2894   26.4830 H   0  0  0  0  0  0
  -25.8055  -30.8970   27.0265 H   0  0  0  0  0  0
  -26.2903  -29.6718   24.1260 H   0  0  0  0  0  0
  -27.3993  -29.7242   25.4761 H   0  0  0  0  0  0
  -27.8799  -30.4215   23.9479 H   0  0  0  0  0  0
  -27.2724  -33.3605   26.2045 H   0  0  0  0  0  0
  -28.3891  -32.6807   25.0306 H   0  0  0  0  0  0
  -28.0737  -31.8415   26.5407 H   0  0  0  0  0  0
  -28.2607  -38.0086   24.7499 H   0  0  0  0  0  0
  -28.1072  -36.2616   24.6287 H   0  0  0  0  0  0
  -27.2311  -37.1451   25.8872 H   0  0  0  0  0  0
  -20.9396  -29.8771   21.6847 H   0  0  0  0  0  0
  -26.0171  -38.2849   24.1403 H   0  0  0  0  0  0
  -28.3887  -20.6869   18.7815 H   0  0  0  0  0  0
  -29.5301  -23.6632   22.5360 H   0  0  0  0  0  0
  -33.3867  -21.9242   24.0169 H   0  0  0  0  0  0
  -32.3601  -20.7252   24.9035 H   0  0  0  0  0  0
  -32.1906  -19.6541   22.7338 H   0  0  0  0  0  0
  -32.4855  -21.2067   21.8700 H   0  0  0  0  0  0
  -31.4743  -23.2040   23.3619 H   0  0  0  0  0  0
  -30.6589  -22.4908   24.7990 H   0  0  0  0  0  0
  -28.4964  -18.4850   22.3727 H   0  0  0  0  0  0
  -27.8592  -18.1215   20.8173 H   0  0  0  0  0  0
  -29.0970  -18.3775   18.7885 H   0  0  0  0  0  0
  -30.6946  -19.0646   18.7683 H   0  0  0  0  0  0
  -28.4570  -16.0191   21.8174 H   0  0  0  0  0  0
  -29.9912  -16.5922   22.3931 H   0  0  0  0  0  0
  -31.6849  -17.1678   19.8655 H   0  0  0  0  0  0
  -30.7656  -16.5873   18.5086 H   0  0  0  0  0  0
  -30.7047  -19.0818   21.2459 H   0  0  0  0  0  0
  -27.6533  -22.5733   17.5036 H   0  0  0  0  0  0
  -27.7621  -24.2193   18.1152 H   0  0  0  0  0  0
  -26.4164  -23.1826   18.6067 H   0  0  0  0  0  0
  -27.9398  -25.2442   21.9107 H   0  0  0  0  0  0
  -26.8208  -24.8215   20.6924 H   0  0  0  0  0  0
  -29.5661  -19.5888   23.1214 H   0  0  0  0  0  0
  1 25  1  0  0  0
  1 30  2  0  0  0
  1 88  1  0  0  0
  2  3  1  0  0  0
  2 25  1  0  0  0
  2 90  1  0  0  0
  2 91  1  0  0  0
  3  4  1  0  0  0
  3 92  1  0  0  0
  3 93  1  0  0  0
  4  5  1  0  0  0
  4 94  1  0  0  0
  4 95  1  0  0  0
  5  6  1  0  0  0
  5 26  1  0  0  0
  5 96  1  0  0  0
  6 25  1  0  0  0
  6 97  1  0  0  0
  6 98  1  0  0  0
  7  8  2  0  0  0
  7 26  1  0  0  0
  7 29  1  0  0  0
  8  9  1  0  0  0
  8 22  1  0  0  0
  9 10  1  0  0  0
  9 27  2  0  0  0
 10 11  2  0  0  0
 10 15  1  0  0  0
 11 12  1  0  0  0
 11 99  1  0  0  0
 12 13  2  0  0  0
 12100  1  0  0  0
 13 14  1  0  0  0
 13 31  1  0  0  0
 14 15  2  0  0  0
 14101  1  0  0  0
 15102  1  0  0  0
 16 17  2  0  0  0
 16 21  1  0  0  0
 16 31  1  0  0  0
 17 18  1  0  0  0
 17103  1  0  0  0
 18 19  2  0  0  0
 18104  1  0  0  0
 19 20  1  0  0  0
 19 24  1  0  0  0
 20 21  2  0  0  0
 20105  1  0  0  0
 21 23  1  0  0  0
 22 28  1  0  0  0
 22 32  2  0  0  0
 26 27  1  0  0  0
 28106  1  0  0  0
 28107  1  0  0  0
 29108  1  0  0  0
 29109  1  0  0  0
 33 34  1  0  0  0
 33 66  1  0  0  0
 33 70  2  0  0  0
 34 36  1  0  0  0
 34 59  1  0  0  0
 34110  1  0  0  0
 35 44  2  0  0  0
 35 45  1  0  0  0
 35 68  1  0  0  0
 36 56  1  0  0  0
 36111  1  0  0  0
 37 39  1  0  0  0
 37 47  1  0  0  0
 37 66  1  0  0  0
 37112  1  0  0  0
 38 43  2  0  0  0
 38 46  1  0  0  0
 38 47  1  0  0  0
 39 64  1  0  0  0
 39 67  2  0  0  0
 40 52  1  0  0  0
 40 53  2  0  0  0
 40 58  1  0  0  0
 41113  1  0  0  0
 41114  1  0  0  0
 41115  1  0  0  0
 41 48  1  0  0  0
 42 43  1  0  0  0
 42 66  1  0  0  0
 42116  1  0  0  0
 42117  1  0  0  0
 43 44  1  0  0  0
 44118  1  0  0  0
 45 46  2  0  0  0
 45119  1  0  0  0
 46120  1  0  0  0
 47121  1  0  0  0
 47122  1  0  0  0
 48 56  1  0  0  0
 48 65  1  0  0  0
 48123  1  0  0  0
 49 50  1  0  0  0
 49 53  1  0  0  0
 49 64  1  0  0  0
 49124  1  0  0  0
 50 51  1  0  0  0
 50125  1  0  0  0
 50126  1  0  0  0
 51 52  1  0  0  0
 51127  1  0  0  0
 51128  1  0  0  0
 52129  1  0  0  0
 52130  1  0  0  0
 53 54  1  0  0  0
 54 55  2  0  0  0
 54131  1  0  0  0
 55 57  1  0  0  0
 55132  1  0  0  0
 56 69  2  0  0  0
 57 58  2  0  0  0
 57133  1  0  0  0
 58134  1  0  0  0
 59 60  1  0  0  0
 59 61  1  0  0  0
 59 62  1  0  0  0
 60135  1  0  0  0
 60136  1  0  0  0
 60137  1  0  0  0
 61138  1  0  0  0
 61139  1  0  0  0
 61140  1  0  0  0
 62141  1  0  0  0
 62142  1  0  0  0
 62143  1  0  0  0
 63 65  1  0  0  0
 63144  1  0  0  0
 63145  1  0  0  0
 63146  1  0  0  0
 64147  1  0  0  0
 65148  1  0  0  0
 68 87  1  0  0  0
 71 73  2  0  0  0
 71 75  1  0  0  0
 71149  1  0  0  0
 72 74  2  0  0  0
 72 76  1  0  0  0
 72150  1  0  0  0
 73 74  1  0  0  0
 73 84  1  0  0  0
 74 85  1  0  0  0
 75 76  2  0  0  0
 75 86  1  0  0  0
 76 87  1  0  0  0
 77 78  1  0  0  0
 77 79  1  0  0  0
 77151  1  0  0  0
 77152  1  0  0  0
 78 85  1  0  0  0
 78153  1  0  0  0
 78154  1  0  0  0
 79 85  1  0  0  0
 79155  1  0  0  0
 79156  1  0  0  0
 80 82  1  0  0  0
 80 84  1  0  0  0
 80157  1  0  0  0
 80158  1  0  0  0
 81 83  1  0  0  0
 81 84  1  0  0  0
 81159  1  0  0  0
 81160  1  0  0  0
 82 88  1  0  0  0
 82161  1  0  0  0
 82162  1  0  0  0
 83 88  1  0  0  0
 83163  1  0  0  0
 83164  1  0  0  0
 84165  1  0  0  0
 85 89  1  0  0  0
 86166  1  0  0  0
 86167  1  0  0  0
 86168  1  0  0  0
 87169  1  0  0  0
 87170  1  0  0  0
 89171  1  0  0  0
M  ISO  4   1 100  68 101  87 101  88 100
M  END
> <chiral flag>
0

> <version>
0

> <s_m_source_file>
/data/baiqing/PycharmProjects/Reinvent-master-3.2/result/LINK_invent/BTK/process_docking_weight1_custom_sum_contain_oxygen_bond_distance_aromatic_linkinvent_7_9_3/rearranged_h_0155.sdf

> <i_m_source_file_index>
47

> <r_mmod_Potential_Energy-OPLS-2005>
439.426025390625

> <r_mmod_Stretch_Energy-OPLS-2005>
122.36597442627

> <r_mmod_Bend_Energy-OPLS-2005>
217.274505615234

> <r_mmod_Torsional_Energy-OPLS-2005>
370.85498046875

> <r_mmod_Improper_Torsional_Energy-OPLS-2005>
19.5784511566162

> <r_mmod_Van_der_Waal_Energy-OPLS-2005>
153.32453918457

> <r_mmod_Electrostatic_Energy-OPLS-2005>
-333.403839111328

> <r_mmod_Solvation_Energy-OPLS-2005>
-199.342987060547

> <b_mmod_Minimization_Converged-OPLS-2005>
0

> <r_mmod_RMS_Derivative-OPLS-2005>
1.73966908454895

$$$$
47
                    3D
 Structure written by MMmdl.
176186  0  0  1  0            999 V2000
  -30.7466  -14.3363   20.6989 C   0  0  0  0  0  0
  -30.4226  -12.2819   19.3703 C   0  0  0  0  0  0
  -29.4797  -12.5311   18.1778 C   0  0  0  0  0  0
  -28.0040  -12.3850   18.5984 C   0  0  0  0  0  0
  -27.6687  -13.1905   19.8803 C   0  0  2  0  0  0
  -28.7056  -12.8858   20.9817 C   0  0  0  0  0  0
  -25.2630  -13.8132   20.5657 C   0  0  0  0  0  0
  -24.1858  -13.0431   20.9161 C   0  0  0  0  0  0
  -24.6387  -11.6891   20.8723 C   0  0  0  0  0  0
  -23.9048  -10.4287   21.0402 C   0  0  0  0  0  0
  -24.3604   -9.4207   21.9182 C   0  0  0  0  0  0
  -23.6283   -8.2242   22.0755 C   0  0  0  0  0  0
  -22.4266   -8.0276   21.3545 C   0  0  0  0  0  0
  -21.9899   -9.0245   20.4648 C   0  0  0  0  0  0
  -22.7221  -10.2129   20.3054 C   0  0  0  0  0  0
  -21.6852   -6.0732   22.5281 C   0  0  0  0  0  0
  -21.4010   -6.5638   23.8212 C   0  0  0  0  0  0
  -21.3661   -5.6794   24.9176 C   0  0  0  0  0  0
  -21.6045   -4.3053   24.7228 C   0  0  0  0  0  0
  -21.8822   -3.8142   23.4349 C   0  0  0  0  0  0
  -21.9191   -4.6959   22.3404 C   0  0  0  0  0  0
  -22.7889  -13.5248   21.1834 C   0  0  0  0  0  0
  -22.1662   -4.2144   21.0980 F   0  0  0  0  0  0
  -21.5632   -3.4538   25.7744 F   0  0  0  0  0  0
  -30.0478  -13.1998   20.4524 N   0  0  0  0  0  0
  -26.3054  -12.9271   20.3373 N   0  0  0  0  0  0
  -25.9303  -11.6445   20.5737 N   0  0  0  0  0  0
  -22.0523  -12.8241   22.0389 N   0  0  0  0  0  0
  -25.4365  -15.1844   20.4037 N   0  0  0  0  0  0
  -31.7746  -14.6550   20.0900 O   0  0  0  0  0  0
  -21.6634   -6.8871   21.4238 O   0  0  0  0  0  0
  -22.3581  -14.5554   20.6687 O   0  0  0  0  0  0
  -24.6097  -31.8709   23.2107 C   0  0  0  0  0  0
  -25.9013  -32.4832   23.8394 C   0  0  1  0  0  0
  -27.2325  -27.4871   20.0923 C   0  0  0  0  0  0
  -25.5880  -33.8626   24.2332 N   0  0  0  0  0  0
  -23.3932  -30.4946   21.5523 C   0  0  2  0  0  0
  -24.8376  -28.9719   20.1062 C   0  0  0  0  0  0
  -22.7391  -29.4662   22.5016 C   0  0  0  0  0  0
  -18.0266  -28.1367   22.8495 C   0  0  0  0  0  0
  -24.1488  -36.7321   23.2637 C   0  0  0  0  0  0
  -25.9147  -30.8616   21.3471 C   0  0  0  0  0  0
  -25.9963  -29.5057   20.6826 C   0  0  0  0  0  0
  -27.2015  -28.7819   20.6463 C   0  0  0  0  0  0
  -26.0633  -26.9621   19.4977 C   0  0  0  0  0  0
  -24.8658  -27.7014   19.5023 C   0  0  0  0  0  0
  -23.5945  -29.8269   20.1652 C   0  0  0  0  0  0
  -25.4102  -36.3113   24.0335 C   0  0  1  0  0  0
  -20.5850  -28.3642   23.1339 C   0  0  2  0  0  0
  -20.6760  -26.9385   22.5421 C   0  0  0  0  0  0
  -19.5739  -26.6378   21.5219 C   0  0  0  0  0  0
  -18.1915  -26.7918   22.1620 C   0  0  0  0  0  0
  -19.1512  -28.8819   23.2913 C   0  0  0  0  0  0
  -18.9448  -30.1427   23.8918 C   0  0  0  0  0  0
  -17.6455  -30.6582   24.0557 C   0  0  0  0  0  0
  -25.9022  -34.9479   23.5131 C   0  0  0  0  0  0
  -16.5345  -29.9081   23.6321 C   0  0  0  0  0  0
  -16.7255  -28.6497   23.0345 C   0  0  0  0  0  0
  -26.4459  -31.6588   25.0697 C   0  0  0  0  0  0
  -25.3741  -31.3678   26.1462 C   0  0  0  0  0  0
  -27.0276  -30.3039   24.6003 C   0  0  0  0  0  0
  -27.6041  -32.4300   25.7462 C   0  0  0  0  0  0
  -27.5577  -37.1807   24.8462 C   0  0  0  0  0  0
  -21.4126  -29.3018   22.3768 N   0  0  0  0  0  0
  -26.4297  -37.3790   23.9399 N   0  0  0  0  0  0
  -24.6580  -31.0863   22.0971 N   0  0  0  0  0  0
  -23.4202  -28.8216   23.3029 O   0  0  0  0  0  0
  -28.3936  -26.7569   20.1686 O   0  0  0  0  0  0
  -26.5595  -34.8933   22.4696 O   0  0  0  0  0  0
  -23.5308  -32.1442   23.7548 O   0  0  0  0  0  0
  -28.4014  -18.7007   23.2060 C   0  0  0  0  0  0
  -28.2791  -20.0804   23.4358 C   0  0  0  0  0  0
  -30.8034  -18.8647   23.5604 C   0  0  0  0  0  0
  -29.6683  -18.0930   23.2491 C   0  0  0  0  0  0
  -29.4173  -20.8744   23.7039 C   0  0  0  0  0  0
  -30.6932  -20.2521   23.7856 C   0  0  0  0  0  0
  -28.2798  -22.8372   24.9574 C   0  0  0  0  0  0
  -29.2901  -16.0818   21.6088 C   0  0  0  0  0  0
  -31.1151  -15.9566   22.5549 C   0  0  0  0  0  0
  -28.0544  -24.2955   24.5517 C   0  0  0  0  0  0
  -28.6754  -23.0646   22.6036 C   0  0  0  0  0  0
  -29.7955  -16.6184   22.9370 C   0  0  0  0  0  0
  -29.2283  -22.3810   23.8584 C   0  0  2  0  0  0
  -32.0976  -21.3229   25.6052 C   0  0  0  0  0  0
  -27.9431  -26.8293   23.0789 C   0  0  0  0  0  0
  -31.9704  -21.0166   24.1078 C   0  0  0  0  0  0
  -28.2648  -25.5075   20.8608 C   0  0  0  0  0  0
  -28.5341  -25.5680   22.4024 C   0  0  2  0  0  0
  -30.3033  -15.0305   21.7584 N   0  0  0  0  0  0
  -28.0338  -24.3209   23.0635 N   0  3  2  0  0  0
  -31.4624  -12.4051   19.0613 H   0  0  0  0  0  0
  -30.3371  -11.2499   19.7147 H   0  0  0  0  0  0
  -29.7069  -11.8369   17.3677 H   0  0  0  0  0  0
  -29.6489  -13.5320   17.7780 H   0  0  0  0  0  0
  -27.8075  -11.3251   18.7655 H   0  0  0  0  0  0
  -27.3490  -12.6897   17.7817 H   0  0  0  0  0  0
  -27.7399  -14.2488   19.6295 H   0  0  0  0  0  0
  -28.6691  -11.8286   21.2473 H   0  0  0  0  0  0
  -28.4538  -13.4095   21.9033 H   0  0  0  0  0  0
  -25.2752   -9.5687   22.4750 H   0  0  0  0  0  0
  -23.9996   -7.4638   22.7478 H   0  0  0  0  0  0
  -21.0833   -8.8758   19.8955 H   0  0  0  0  0  0
  -22.3675  -10.9664   19.6163 H   0  0  0  0  0  0
  -21.1999   -7.6146   23.9713 H   0  0  0  0  0  0
  -21.1484   -6.0524   25.9080 H   0  0  0  0  0  0
  -22.0598   -2.7607   23.2851 H   0  0  0  0  0  0
  -22.4132  -11.9896   22.4769 H   0  0  0  0  0  0
  -21.1143  -13.1276   22.2592 H   0  0  0  0  0  0
  -24.6679  -15.8390   20.5018 H   0  0  0  0  0  0
  -26.2858  -15.6182   20.0645 H   0  0  0  0  0  0
  -26.7089  -32.5573   23.1172 H   0  0  0  0  0  0
  -25.0028  -33.9791   25.0477 H   0  0  0  0  0  0
  -22.6777  -31.3085   21.4174 H   0  0  0  0  0  0
  -23.3745  -35.9659   23.3322 H   0  0  0  0  0  0
  -24.3592  -36.8915   22.2050 H   0  0  0  0  0  0
  -23.7250  -37.6529   23.6659 H   0  0  0  0  0  0
  -26.0128  -31.6375   20.5867 H   0  0  0  0  0  0
  -26.8073  -30.9141   21.9596 H   0  0  0  0  0  0
  -28.0992  -29.2006   21.0797 H   0  0  0  0  0  0
  -26.0670  -25.9861   19.0342 H   0  0  0  0  0  0
  -23.9750  -27.2898   19.0477 H   0  0  0  0  0  0
  -23.6875  -30.6030   19.4039 H   0  0  0  0  0  0
  -22.7228  -29.2357   19.8790 H   0  0  0  0  0  0
  -25.1283  -36.1987   25.0827 H   0  0  0  0  0  0
  -20.9930  -28.3212   24.1458 H   0  0  0  0  0  0
  -20.5682  -26.2244   23.3602 H   0  0  0  0  0  0
  -21.6631  -26.7451   22.1197 H   0  0  0  0  0  0
  -19.6911  -25.6300   21.1220 H   0  0  0  0  0  0
  -19.6685  -27.3219   20.6776 H   0  0  0  0  0  0
  -17.4185  -26.6668   21.4024 H   0  0  0  0  0  0
  -18.0301  -26.0063   22.9014 H   0  0  0  0  0  0
  -19.7931  -30.7219   24.2314 H   0  0  0  0  0  0
  -17.5017  -31.6275   24.5147 H   0  0  0  0  0  0
  -15.5345  -30.2982   23.7647 H   0  0  0  0  0  0
  -15.8656  -28.0825   22.7039 H   0  0  0  0  0  0
  -24.5899  -30.7044   25.7797 H   0  0  0  0  0  0
  -24.8958  -32.2838   26.4947 H   0  0  0  0  0  0
  -25.8104  -30.8819   27.0195 H   0  0  0  0  0  0
  -26.2798  -29.6810   24.1083 H   0  0  0  0  0  0
  -27.4106  -29.7245   25.4410 H   0  0  0  0  0  0
  -27.8604  -30.4368   23.9089 H   0  0  0  0  0  0
  -27.2648  -33.3576   26.2089 H   0  0  0  0  0  0
  -28.3830  -32.6895   25.0277 H   0  0  0  0  0  0
  -28.0739  -31.8394   26.5339 H   0  0  0  0  0  0
  -28.2591  -38.0110   24.7504 H   0  0  0  0  0  0
  -28.1073  -36.2634   24.6298 H   0  0  0  0  0  0
  -27.2298  -37.1466   25.8867 H   0  0  0  0  0  0
  -20.9288  -29.8742   21.6994 H   0  0  0  0  0  0
  -26.0196  -38.2865   24.1411 H   0  0  0  0  0  0
  -27.5211  -18.1144   22.9786 H   0  0  0  0  0  0
  -27.2957  -20.5264   23.3799 H   0  0  0  0  0  0
  -31.7742  -18.3917   23.6123 H   0  0  0  0  0  0
  -27.3366  -22.2913   24.9273 H   0  0  0  0  0  0
  -28.7021  -22.7315   25.9574 H   0  0  0  0  0  0
  -29.4675  -16.7530   20.7637 H   0  0  0  0  0  0
  -28.2503  -15.7546   21.6431 H   0  0  0  0  0  0
  -31.6381  -15.5100   23.4014 H   0  0  0  0  0  0
  -31.7789  -16.5894   21.9607 H   0  0  0  0  0  0
  -28.8929  -24.8873   24.9240 H   0  0  0  0  0  0
  -27.1388  -24.7065   24.9806 H   0  0  0  0  0  0
  -27.9012  -22.4632   22.1267 H   0  0  0  0  0  0
  -29.4705  -23.2062   21.8725 H   0  0  0  0  0  0
  -29.3282  -16.0687   23.7585 H   0  0  0  0  0  0
  -30.1814  -22.8612   24.0705 H   0  0  0  0  0  0
  -33.0274  -21.8511   25.8173 H   0  0  0  0  0  0
  -32.0981  -20.4031   26.1902 H   0  0  0  0  0  0
  -31.2759  -21.9419   25.9648 H   0  0  0  0  0  0
  -28.4461  -27.7225   22.7153 H   0  0  0  0  0  0
  -28.0884  -26.8564   24.1573 H   0  0  0  0  0  0
  -26.8735  -26.9331   22.8904 H   0  0  0  0  0  0
  -32.0363  -21.9258   23.5107 H   0  0  0  0  0  0
  -32.8309  -20.4216   23.7994 H   0  0  0  0  0  0
  -27.2935  -25.0469   20.6813 H   0  0  0  0  0  0
  -28.9812  -24.8345   20.3906 H   0  0  0  0  0  0
  -29.6151  -25.6131   22.5496 H   0  0  0  0  0  0
  -27.0593  -24.2235   22.8123 H   0  0  0  0  0  0
  1 25  1  0  0  0
  1 30  2  0  0  0
  1 89  1  0  0  0
  2  3  1  0  0  0
  2 25  1  0  0  0
  2 91  1  0  0  0
  2 92  1  0  0  0
  3  4  1  0  0  0
  3 93  1  0  0  0
  3 94  1  0  0  0
  4  5  1  0  0  0
  4 95  1  0  0  0
  4 96  1  0  0  0
  5  6  1  0  0  0
  5 26  1  0  0  0
  5 97  1  0  0  0
  6 25  1  0  0  0
  6 98  1  0  0  0
  6 99  1  0  0  0
  7  8  2  0  0  0
  7 26  1  0  0  0
  7 29  1  0  0  0
  8  9  1  0  0  0
  8 22  1  0  0  0
  9 10  1  0  0  0
  9 27  2  0  0  0
 10 11  2  0  0  0
 10 15  1  0  0  0
 11 12  1  0  0  0
 11100  1  0  0  0
 12 13  2  0  0  0
 12101  1  0  0  0
 13 14  1  0  0  0
 13 31  1  0  0  0
 14 15  2  0  0  0
 14102  1  0  0  0
 15103  1  0  0  0
 16 17  2  0  0  0
 16 21  1  0  0  0
 16 31  1  0  0  0
 17 18  1  0  0  0
 17104  1  0  0  0
 18 19  2  0  0  0
 18105  1  0  0  0
 19 20  1  0  0  0
 19 24  1  0  0  0
 20 21  2  0  0  0
 20106  1  0  0  0
 21 23  1  0  0  0
 22 28  1  0  0  0
 22 32  2  0  0  0
 26 27  1  0  0  0
 28107  1  0  0  0
 28108  1  0  0  0
 29109  1  0  0  0
 29110  1  0  0  0
 33 34  1  0  0  0
 33 66  1  0  0  0
 33 70  2  0  0  0
 34 36  1  0  0  0
 34 59  1  0  0  0
 34111  1  0  0  0
 35 44  2  0  0  0
 35 45  1  0  0  0
 35 68  1  0  0  0
 36 56  1  0  0  0
 36112  1  0  0  0
 37 39  1  0  0  0
 37 47  1  0  0  0
 37 66  1  0  0  0
 37113  1  0  0  0
 38 43  2  0  0  0
 38 46  1  0  0  0
 38 47  1  0  0  0
 39 64  1  0  0  0
 39 67  2  0  0  0
 40 52  1  0  0  0
 40 53  2  0  0  0
 40 58  1  0  0  0
 41114  1  0  0  0
 41115  1  0  0  0
 41116  1  0  0  0
 41 48  1  0  0  0
 42 43  1  0  0  0
 42 66  1  0  0  0
 42117  1  0  0  0
 42118  1  0  0  0
 43 44  1  0  0  0
 44119  1  0  0  0
 45 46  2  0  0  0
 45120  1  0  0  0
 46121  1  0  0  0
 47122  1  0  0  0
 47123  1  0  0  0
 48 56  1  0  0  0
 48 65  1  0  0  0
 48124  1  0  0  0
 49 50  1  0  0  0
 49 53  1  0  0  0
 49 64  1  0  0  0
 49125  1  0  0  0
 50 51  1  0  0  0
 50126  1  0  0  0
 50127  1  0  0  0
 51 52  1  0  0  0
 51128  1  0  0  0
 51129  1  0  0  0
 52130  1  0  0  0
 52131  1  0  0  0
 53 54  1  0  0  0
 54 55  2  0  0  0
 54132  1  0  0  0
 55 57  1  0  0  0
 55133  1  0  0  0
 56 69  2  0  0  0
 57 58  2  0  0  0
 57134  1  0  0  0
 58135  1  0  0  0
 59 60  1  0  0  0
 59 61  1  0  0  0
 59 62  1  0  0  0
 60136  1  0  0  0
 60137  1  0  0  0
 60138  1  0  0  0
 61139  1  0  0  0
 61140  1  0  0  0
 61141  1  0  0  0
 62142  1  0  0  0
 62143  1  0  0  0
 62144  1  0  0  0
 63 65  1  0  0  0
 63145  1  0  0  0
 63146  1  0  0  0
 63147  1  0  0  0
 64148  1  0  0  0
 65149  1  0  0  0
 68 87  1  0  0  0
 71 72  2  0  0  0
 71 74  1  0  0  0
 71150  1  0  0  0
 72 75  1  0  0  0
 72151  1  0  0  0
 73 74  2  0  0  0
 73 76  1  0  0  0
 73152  1  0  0  0
 74 82  1  0  0  0
 75 76  2  0  0  0
 75 83  1  0  0  0
 76 86  1  0  0  0
 77 80  1  0  0  0
 77 83  1  0  0  0
 77153  1  0  0  0
 77154  1  0  0  0
 78 82  1  0  0  0
 78 89  1  0  0  0
 78155  1  0  0  0
 78156  1  0  0  0
 79 82  1  0  0  0
 79 89  1  0  0  0
 79157  1  0  0  0
 79158  1  0  0  0
 80159  1  0  0  0
 80160  1  0  0  0
 80 90  1  0  0  0
 81 83  1  0  0  0
 81 90  1  0  0  0
 81161  1  0  0  0
 81162  1  0  0  0
 82163  1  0  0  0
 83164  1  0  0  0
 84 86  1  0  0  0
 84165  1  0  0  0
 84166  1  0  0  0
 84167  1  0  0  0
 85168  1  0  0  0
 85169  1  0  0  0
 85170  1  0  0  0
 85 88  1  0  0  0
 86171  1  0  0  0
 86172  1  0  0  0
 87 88  1  0  0  0
 87173  1  0  0  0
 87174  1  0  0  0
 88 90  1  0  0  0
 88175  1  0  0  0
 90176  1  0  0  0
M  CHG  1  90   1
M  ISO  4   1 100  68 101  87 101  89 100
M  END
> <chiral flag>
0

> <version>
0

> <s_m_source_file>
/data/baiqing/PycharmProjects/Reinvent-master-3.2/result/LINK_invent/BTK/process_docking_weight1_custom_sum_contain_oxygen_bond_distance_aromatic_linkinvent_7_9_3/rearranged_h_0155.sdf

> <i_m_source_file_index>
48

> <r_mmod_Potential_Energy-OPLS-2005>
62.5919609069824

> <r_mmod_Stretch_Energy-OPLS-2005>
36.096363067627

> <r_mmod_Bend_Energy-OPLS-2005>
133.441848754883

> <r_mmod_Torsional_Energy-OPLS-2005>
347.002532958984

> <r_mmod_Improper_Torsional_Energy-OPLS-2005>
9.92941284179688

> <r_mmod_Van_der_Waal_Energy-OPLS-2005>
159.399841308594

> <r_mmod_Electrostatic_Energy-OPLS-2005>
-221.192504882812

> <r_mmod_Solvation_Energy-OPLS-2005>
-412.035552978516

> <b_mmod_Minimization_Converged-OPLS-2005>
0

> <r_mmod_RMS_Derivative-OPLS-2005>
1.42807447910309

$$$$
48
                    3D
 Structure written by MMmdl.
168177  0  0  1  0            999 V2000
  -30.7117  -14.4423   20.5710 C   0  0  0  0  0  0
  -30.4095  -12.2875   19.4176 C   0  0  0  0  0  0
  -29.4880  -12.5124   18.2015 C   0  0  0  0  0  0
  -28.0071  -12.3839   18.6119 C   0  0  0  0  0  0
  -27.6574  -13.2144   19.8773 C   0  0  2  0  0  0
  -28.6982  -12.9854   20.9963 C   0  0  0  0  0  0
  -25.2536  -13.8189   20.5696 C   0  0  0  0  0  0
  -24.1798  -13.0439   20.9200 C   0  0  0  0  0  0
  -24.6385  -11.6916   20.8752 C   0  0  0  0  0  0
  -23.9075  -10.4283   21.0408 C   0  0  0  0  0  0
  -24.3622   -9.4198   21.9184 C   0  0  0  0  0  0
  -23.6295   -8.2235   22.0755 C   0  0  0  0  0  0
  -22.4277   -8.0282   21.3545 C   0  0  0  0  0  0
  -21.9923   -9.0247   20.4638 C   0  0  0  0  0  0
  -22.7253  -10.2123   20.3042 C   0  0  0  0  0  0
  -21.6838   -6.0744   22.5287 C   0  0  0  0  0  0
  -21.4008   -6.5644   23.8230 C   0  0  0  0  0  0
  -21.3661   -5.6795   24.9191 C   0  0  0  0  0  0
  -21.6042   -4.3056   24.7229 C   0  0  0  0  0  0
  -21.8817   -3.8148   23.4354 C   0  0  0  0  0  0
  -21.9178   -4.6972   22.3408 C   0  0  0  0  0  0
  -22.7808  -13.5199   21.1864 C   0  0  0  0  0  0
  -22.1636   -4.2151   21.0981 F   0  0  0  0  0  0
  -21.5640   -3.4540   25.7750 F   0  0  0  0  0  0
  -30.0284  -13.2727   20.4408 N   0  0  0  0  0  0
  -26.2992  -12.9379   20.3401 N   0  0  0  0  0  0
  -25.9313  -11.6526   20.5774 N   0  0  0  0  0  0
  -22.0463  -12.8162   22.0424 N   0  0  0  0  0  0
  -25.4253  -15.1905   20.4095 N   0  0  0  0  0  0
  -31.8519  -14.6009   20.1191 O   0  0  0  0  0  0
  -21.6632   -6.8886   21.4252 O   0  0  0  0  0  0
  -22.3464  -14.5495   20.6729 O   0  0  0  0  0  0
  -24.6116  -31.8655   23.2093 C   0  0  0  0  0  0
  -25.9018  -32.4792   23.8375 C   0  0  1  0  0  0
  -27.2393  -27.4477   20.0732 C   0  0  0  0  0  0
  -25.5859  -33.8590   24.2289 N   0  0  0  0  0  0
  -23.3978  -30.4874   21.5505 C   0  0  2  0  0  0
  -24.8456  -28.9575   20.1039 C   0  0  0  0  0  0
  -22.7386  -29.4649   22.5025 C   0  0  0  0  0  0
  -18.0265  -28.1382   22.8539 C   0  0  0  0  0  0
  -24.1474  -36.7324   23.2638 C   0  0  0  0  0  0
  -25.9244  -30.8322   21.3600 C   0  0  0  0  0  0
  -26.0016  -29.4699   20.7021 C   0  0  0  0  0  0
  -27.1975  -28.7196   20.6865 C   0  0  0  0  0  0
  -26.0616  -26.9450   19.4702 C   0  0  0  0  0  0
  -24.8701  -27.6963   19.4842 C   0  0  0  0  0  0
  -23.6008  -29.8133   20.1650 C   0  0  0  0  0  0
  -25.4088  -36.3066   24.0316 C   0  0  1  0  0  0
  -20.5849  -28.3665   23.1368 C   0  0  2  0  0  0
  -20.6773  -26.9415   22.5443 C   0  0  0  0  0  0
  -19.5730  -26.6371   21.5271 C   0  0  0  0  0  0
  -18.1917  -26.7916   22.1706 C   0  0  0  0  0  0
  -19.1509  -28.8852   23.2924 C   0  0  0  0  0  0
  -18.9442  -30.1482   23.8896 C   0  0  0  0  0  0
  -17.6446  -30.6613   24.0571 C   0  0  0  0  0  0
  -25.9016  -34.9445   23.5096 C   0  0  0  0  0  0
  -16.5334  -29.9109   23.6349 C   0  0  0  0  0  0
  -16.7248  -28.6519   23.0374 C   0  0  0  0  0  0
  -26.4475  -31.6582   25.0706 C   0  0  0  0  0  0
  -25.3770  -31.3636   26.1458 C   0  0  0  0  0  0
  -27.0353  -30.3037   24.6102 C   0  0  0  0  0  0
  -27.6009  -32.4358   25.7478 C   0  0  0  0  0  0
  -27.5566  -37.1786   24.8456 C   0  0  0  0  0  0
  -21.4119  -29.3024   22.3774 N   0  0  0  0  0  0
  -26.4266  -37.3759   23.9414 N   0  0  0  0  0  0
  -24.6632  -31.0754   22.0997 N   0  0  0  0  0  0
  -23.4179  -28.8193   23.3042 O   0  0  0  0  0  0
  -28.4259  -26.7428   20.1435 O   0  0  0  0  0  0
  -26.5612  -34.8918   22.4681 O   0  0  0  0  0  0
  -23.5316  -32.1433   23.7494 O   0  0  0  0  0  0
  -27.5014  -22.1859   22.6422 C   0  0  0  0  0  0
  -27.0786  -23.5009   22.8903 C   0  0  0  0  0  0
  -28.5550  -22.9262   20.5746 C   0  0  0  0  0  0
  -28.1396  -24.2727   20.8188 C   0  0  0  0  0  0
  -28.2550  -21.8812   21.4896 C   0  0  0  0  0  0
  -27.3931  -24.5523   21.9992 C   0  0  0  0  0  0
  -28.8996  -17.7219   20.3744 C   0  0  0  0  0  0
  -29.2972  -17.1709   22.7518 C   0  0  0  0  0  0
  -29.8485  -16.5835   19.9570 C   0  0  0  0  0  0
  -30.2318  -16.0123   22.3330 C   0  0  0  0  0  0
  -29.3205  -18.3151   21.7232 C   0  0  0  0  0  0
  -29.3571  -22.5907   19.3195 C   0  0  0  0  0  0
  -25.8529  -26.0669   23.0652 C   0  0  0  0  0  0
  -28.4995  -25.3580   19.7701 C   0  0  0  0  0  0
  -28.4672  -19.5371   22.1285 C   0  0  0  0  0  0
  -29.9820  -15.5132   20.9676 N   0  0  0  0  0  0
  -27.0180  -25.8442   22.2809 O   0  0  0  0  0  0
  -28.7287  -20.6090   21.2174 O   0  0  0  0  0  0
  -31.4559  -12.3703   19.1214 H   0  0  0  0  0  0
  -30.2897  -11.2756   19.8065 H   0  0  0  0  0  0
  -29.7215  -11.7984   17.4105 H   0  0  0  0  0  0
  -29.6682  -13.5033   17.7801 H   0  0  0  0  0  0
  -27.8025  -11.3284   18.7917 H   0  0  0  0  0  0
  -27.3629  -12.6803   17.7830 H   0  0  0  0  0  0
  -27.7032  -14.2655   19.5908 H   0  0  0  0  0  0
  -28.6628  -11.9512   21.3433 H   0  0  0  0  0  0
  -28.4753  -13.6025   21.8680 H   0  0  0  0  0  0
  -25.2768   -9.5668   22.4764 H   0  0  0  0  0  0
  -24.0000   -7.4624   22.7473 H   0  0  0  0  0  0
  -21.0865   -8.8768   19.8926 H   0  0  0  0  0  0
  -22.3729  -10.9665   19.6143 H   0  0  0  0  0  0
  -21.1999   -7.6158   23.9735 H   0  0  0  0  0  0
  -21.1484   -6.0524   25.9095 H   0  0  0  0  0  0
  -22.0590   -2.7607   23.2855 H   0  0  0  0  0  0
  -22.4081  -11.9803   22.4769 H   0  0  0  0  0  0
  -21.1065  -13.1144   22.2634 H   0  0  0  0  0  0
  -24.6688  -15.8562   20.5249 H   0  0  0  0  0  0
  -26.2955  -15.6247   20.1283 H   0  0  0  0  0  0
  -26.7086  -32.5524   23.1134 H   0  0  0  0  0  0
  -24.9908  -33.9747   25.0357 H   0  0  0  0  0  0
  -22.6844  -31.3015   21.4095 H   0  0  0  0  0  0
  -23.3722  -35.9665   23.3251 H   0  0  0  0  0  0
  -24.3551  -36.9043   22.2064 H   0  0  0  0  0  0
  -23.7268  -37.6512   23.6738 H   0  0  0  0  0  0
  -26.0320  -31.5975   20.5896 H   0  0  0  0  0  0
  -26.8142  -30.8857   21.9761 H   0  0  0  0  0  0
  -28.0876  -29.1026   21.1655 H   0  0  0  0  0  0
  -26.0334  -25.9753   18.9966 H   0  0  0  0  0  0
  -23.9817  -27.2968   19.0144 H   0  0  0  0  0  0
  -23.6834  -30.5818   19.3949 H   0  0  0  0  0  0
  -22.7323  -29.2105   19.8904 H   0  0  0  0  0  0
  -25.1270  -36.1878   25.0808 H   0  0  0  0  0  0
  -20.9909  -28.3226   24.1503 H   0  0  0  0  0  0
  -20.5762  -26.2266   23.3616 H   0  0  0  0  0  0
  -21.6636  -26.7515   22.1193 H   0  0  0  0  0  0
  -19.6888  -25.6272   21.1336 H   0  0  0  0  0  0
  -19.6661  -27.3163   20.6789 H   0  0  0  0  0  0
  -17.4171  -26.6641   21.4135 H   0  0  0  0  0  0
  -18.0332  -26.0082   22.9138 H   0  0  0  0  0  0
  -19.7904  -30.7313   24.2248 H   0  0  0  0  0  0
  -17.4995  -31.6292   24.5171 H   0  0  0  0  0  0
  -15.5334  -30.3009   23.7682 H   0  0  0  0  0  0
  -15.8639  -28.0840   22.7093 H   0  0  0  0  0  0
  -24.5890  -30.7071   25.7764 H   0  0  0  0  0  0
  -24.9023  -32.2769   26.5038 H   0  0  0  0  0  0
  -25.8123  -30.8673   27.0135 H   0  0  0  0  0  0
  -26.2915  -29.6731   24.1222 H   0  0  0  0  0  0
  -27.4215  -29.7325   25.4553 H   0  0  0  0  0  0
  -27.8684  -30.4378   23.9202 H   0  0  0  0  0  0
  -27.2572  -33.3649   26.2037 H   0  0  0  0  0  0
  -28.3795  -32.6964   25.0301 H   0  0  0  0  0  0
  -28.0699  -31.8533   26.5416 H   0  0  0  0  0  0
  -28.2510  -38.0152   24.7541 H   0  0  0  0  0  0
  -28.1135  -36.2674   24.6207 H   0  0  0  0  0  0
  -27.2290  -37.1329   25.8862 H   0  0  0  0  0  0
  -20.9264  -29.8748   21.7008 H   0  0  0  0  0  0
  -26.0137  -38.2824   24.1444 H   0  0  0  0  0  0
  -27.2439  -21.4307   23.3703 H   0  0  0  0  0  0
  -26.5274  -23.6886   23.7993 H   0  0  0  0  0  0
  -27.8742  -17.3530   20.4343 H   0  0  0  0  0  0
  -28.8999  -18.4968   19.6062 H   0  0  0  0  0  0
  -29.6031  -17.5433   23.7311 H   0  0  0  0  0  0
  -28.2782  -16.7995   22.8713 H   0  0  0  0  0  0
  -30.8330  -17.0020   19.7398 H   0  0  0  0  0  0
  -29.4874  -16.1564   19.0193 H   0  0  0  0  0  0
  -30.1268  -15.1919   23.0458 H   0  0  0  0  0  0
  -31.2698  -16.3434   22.4024 H   0  0  0  0  0  0
  -30.3509  -18.6655   21.6423 H   0  0  0  0  0  0
  -30.3642  -23.0025   19.3939 H   0  0  0  0  0  0
  -28.8771  -22.9940   18.4288 H   0  0  0  0  0  0
  -29.4586  -21.5198   19.1522 H   0  0  0  0  0  0
  -25.0439  -25.3839   22.8029 H   0  0  0  0  0  0
  -25.4926  -27.0804   22.8861 H   0  0  0  0  0  0
  -26.0691  -25.9826   24.1301 H   0  0  0  0  0  0
  -27.9869  -25.1668   18.8283 H   0  0  0  0  0  0
  -29.5541  -25.2234   19.5323 H   0  0  0  0  0  0
  -28.7369  -19.8281   23.1445 H   0  0  0  0  0  0
  -27.4049  -19.2855   22.1190 H   0  0  0  0  0  0
  1 25  1  0  0  0
  1 30  2  0  0  0
  1 86  1  0  0  0
  2  3  1  0  0  0
  2 25  1  0  0  0
  2 89  1  0  0  0
  2 90  1  0  0  0
  3  4  1  0  0  0
  3 91  1  0  0  0
  3 92  1  0  0  0
  4  5  1  0  0  0
  4 93  1  0  0  0
  4 94  1  0  0  0
  5  6  1  0  0  0
  5 26  1  0  0  0
  5 95  1  0  0  0
  6 25  1  0  0  0
  6 96  1  0  0  0
  6 97  1  0  0  0
  7  8  2  0  0  0
  7 26  1  0  0  0
  7 29  1  0  0  0
  8  9  1  0  0  0
  8 22  1  0  0  0
  9 10  1  0  0  0
  9 27  2  0  0  0
 10 11  2  0  0  0
 10 15  1  0  0  0
 11 12  1  0  0  0
 11 98  1  0  0  0
 12 13  2  0  0  0
 12 99  1  0  0  0
 13 14  1  0  0  0
 13 31  1  0  0  0
 14 15  2  0  0  0
 14100  1  0  0  0
 15101  1  0  0  0
 16 17  2  0  0  0
 16 21  1  0  0  0
 16 31  1  0  0  0
 17 18  1  0  0  0
 17102  1  0  0  0
 18 19  2  0  0  0
 18103  1  0  0  0
 19 20  1  0  0  0
 19 24  1  0  0  0
 20 21  2  0  0  0
 20104  1  0  0  0
 21 23  1  0  0  0
 22 28  1  0  0  0
 22 32  2  0  0  0
 26 27  1  0  0  0
 28105  1  0  0  0
 28106  1  0  0  0
 29107  1  0  0  0
 29108  1  0  0  0
 33 34  1  0  0  0
 33 66  1  0  0  0
 33 70  2  0  0  0
 34 36  1  0  0  0
 34 59  1  0  0  0
 34109  1  0  0  0
 35 44  2  0  0  0
 35 45  1  0  0  0
 35 68  1  0  0  0
 36 56  1  0  0  0
 36110  1  0  0  0
 37 39  1  0  0  0
 37 47  1  0  0  0
 37 66  1  0  0  0
 37111  1  0  0  0
 38 43  2  0  0  0
 38 46  1  0  0  0
 38 47  1  0  0  0
 39 64  1  0  0  0
 39 67  2  0  0  0
 40 52  1  0  0  0
 40 53  2  0  0  0
 40 58  1  0  0  0
 41112  1  0  0  0
 41113  1  0  0  0
 41114  1  0  0  0
 41 48  1  0  0  0
 42 43  1  0  0  0
 42 66  1  0  0  0
 42115  1  0  0  0
 42116  1  0  0  0
 43 44  1  0  0  0
 44117  1  0  0  0
 45 46  2  0  0  0
 45118  1  0  0  0
 46119  1  0  0  0
 47120  1  0  0  0
 47121  1  0  0  0
 48 56  1  0  0  0
 48 65  1  0  0  0
 48122  1  0  0  0
 49 50  1  0  0  0
 49 53  1  0  0  0
 49 64  1  0  0  0
 49123  1  0  0  0
 50 51  1  0  0  0
 50124  1  0  0  0
 50125  1  0  0  0
 51 52  1  0  0  0
 51126  1  0  0  0
 51127  1  0  0  0
 52128  1  0  0  0
 52129  1  0  0  0
 53 54  1  0  0  0
 54 55  2  0  0  0
 54130  1  0  0  0
 55 57  1  0  0  0
 55131  1  0  0  0
 56 69  2  0  0  0
 57 58  2  0  0  0
 57132  1  0  0  0
 58133  1  0  0  0
 59 60  1  0  0  0
 59 61  1  0  0  0
 59 62  1  0  0  0
 60134  1  0  0  0
 60135  1  0  0  0
 60136  1  0  0  0
 61137  1  0  0  0
 61138  1  0  0  0
 61139  1  0  0  0
 62140  1  0  0  0
 62141  1  0  0  0
 62142  1  0  0  0
 63 65  1  0  0  0
 63143  1  0  0  0
 63144  1  0  0  0
 63145  1  0  0  0
 64146  1  0  0  0
 65147  1  0  0  0
 68 84  1  0  0  0
 71 72  2  0  0  0
 71 75  1  0  0  0
 71148  1  0  0  0
 72 76  1  0  0  0
 72149  1  0  0  0
 73 74  1  0  0  0
 73 75  2  0  0  0
 73 82  1  0  0  0
 74 76  2  0  0  0
 74 84  1  0  0  0
 75 88  1  0  0  0
 76 87  1  0  0  0
 77 79  1  0  0  0
 77 81  1  0  0  0
 77150  1  0  0  0
 77151  1  0  0  0
 78 80  1  0  0  0
 78 81  1  0  0  0
 78152  1  0  0  0
 78153  1  0  0  0
 79 86  1  0  0  0
 79154  1  0  0  0
 79155  1  0  0  0
 80 86  1  0  0  0
 80156  1  0  0  0
 80157  1  0  0  0
 81 85  1  0  0  0
 81158  1  0  0  0
 82159  1  0  0  0
 82160  1  0  0  0
 82161  1  0  0  0
 83 87  1  0  0  0
 83162  1  0  0  0
 83163  1  0  0  0
 83164  1  0  0  0
 84165  1  0  0  0
 84166  1  0  0  0
 85 88  1  0  0  0
 85167  1  0  0  0
 85168  1  0  0  0
M  ISO  4   1 100  68 101  84 101  86 100
M  END
> <chiral flag>
0

> <version>
0

> <s_m_source_file>
/data/baiqing/PycharmProjects/Reinvent-master-3.2/result/LINK_invent/BTK/process_docking_weight1_custom_sum_contain_oxygen_bond_distance_aromatic_linkinvent_7_9_3/rearranged_h_0155.sdf

> <i_m_source_file_index>
49

> <r_mmod_Potential_Energy-OPLS-2005>
208.670318603516

> <r_mmod_Stretch_Energy-OPLS-2005>
43.2832908630371

> <r_mmod_Bend_Energy-OPLS-2005>
130.72802734375

> <r_mmod_Torsional_Energy-OPLS-2005>
326.326141357422

> <r_mmod_Improper_Torsional_Energy-OPLS-2005>
10.4705505371094

> <r_mmod_Van_der_Waal_Energy-OPLS-2005>
164.920288085938

> <r_mmod_Electrostatic_Energy-OPLS-2005>
-281.1474609375

> <r_mmod_Solvation_Energy-OPLS-2005>
-198.855560302734

> <b_mmod_Minimization_Converged-OPLS-2005>
0

> <r_mmod_RMS_Derivative-OPLS-2005>
2.7585768699646

$$$$
49
                    3D
 Structure written by MMmdl.
183193  0  0  1  0            999 V2000
  -30.7742  -14.3350   20.7064 C   0  0  0  0  0  0
  -30.4151  -12.2832   19.3826 C   0  0  0  0  0  0
  -29.4782  -12.5322   18.1868 C   0  0  0  0  0  0
  -28.0032  -12.3832   18.6056 C   0  0  0  0  0  0
  -27.6683  -13.1911   19.8857 C   0  0  2  0  0  0
  -28.7078  -12.8934   20.9911 C   0  0  0  0  0  0
  -25.2621  -13.8134   20.5680 C   0  0  0  0  0  0
  -24.1850  -13.0432   20.9175 C   0  0  0  0  0  0
  -24.6386  -11.6890   20.8747 C   0  0  0  0  0  0
  -23.9052  -10.4285   21.0421 C   0  0  0  0  0  0
  -24.3608   -9.4200   21.9197 C   0  0  0  0  0  0
  -23.6288   -8.2231   22.0759 C   0  0  0  0  0  0
  -22.4270   -8.0274   21.3547 C   0  0  0  0  0  0
  -21.9905   -9.0250   20.4651 C   0  0  0  0  0  0
  -22.7232  -10.2129   20.3065 C   0  0  0  0  0  0
  -21.6846   -6.0733   22.5280 C   0  0  0  0  0  0
  -21.4006   -6.5639   23.8215 C   0  0  0  0  0  0
  -21.3661   -5.6792   24.9179 C   0  0  0  0  0  0
  -21.6047   -4.3056   24.7228 C   0  0  0  0  0  0
  -21.8819   -3.8146   23.4350 C   0  0  0  0  0  0
  -21.9190   -4.6962   22.3405 C   0  0  0  0  0  0
  -22.7874  -13.5245   21.1839 C   0  0  0  0  0  0
  -22.1659   -4.2149   21.0981 F   0  0  0  0  0  0
  -21.5637   -3.4538   25.7742 F   0  0  0  0  0  0
  -30.0472  -13.2109   20.4639 N   0  0  0  0  0  0
  -26.3054  -12.9277   20.3414 N   0  0  0  0  0  0
  -25.9304  -11.6451   20.5781 N   0  0  0  0  0  0
  -22.0503  -12.8240   22.0393 N   0  0  0  0  0  0
  -25.4369  -15.1846   20.4064 N   0  0  0  0  0  0
  -31.7852  -14.6187   20.0517 O   0  0  0  0  0  0
  -21.6634   -6.8872   21.4242 O   0  0  0  0  0  0
  -22.3569  -14.5557   20.6696 O   0  0  0  0  0  0
  -24.6047  -31.8732   23.2152 C   0  0  0  0  0  0
  -25.8975  -32.4850   23.8432 C   0  0  1  0  0  0
  -27.2712  -27.5155   20.0727 C   0  0  0  0  0  0
  -25.5860  -33.8644   24.2367 N   0  0  0  0  0  0
  -23.3911  -30.4920   21.5528 C   0  0  2  0  0  0
  -24.8437  -28.9569   20.1250 C   0  0  0  0  0  0
  -22.7358  -29.4667   22.5033 C   0  0  0  0  0  0
  -18.0260  -28.1373   22.8492 C   0  0  0  0  0  0
  -24.1478  -36.7334   23.2642 C   0  0  0  0  0  0
  -25.9081  -30.8568   21.3612 C   0  0  0  0  0  0
  -25.9902  -29.4903   20.7235 C   0  0  0  0  0  0
  -27.1953  -28.7689   20.7201 C   0  0  0  0  0  0
  -26.1014  -26.9654   19.5075 C   0  0  0  0  0  0
  -24.8872  -27.6826   19.5274 C   0  0  0  0  0  0
  -23.5998  -29.8150   20.1694 C   0  0  0  0  0  0
  -25.4097  -36.3133   24.0350 C   0  0  1  0  0  0
  -20.5841  -28.3640   23.1350 C   0  0  2  0  0  0
  -20.6748  -26.9386   22.5428 C   0  0  0  0  0  0
  -19.5736  -26.6383   21.5212 C   0  0  0  0  0  0
  -18.1912  -26.7924   22.1615 C   0  0  0  0  0  0
  -19.1508  -28.8822   23.2920 C   0  0  0  0  0  0
  -18.9438  -30.1430   23.8926 C   0  0  0  0  0  0
  -17.6442  -30.6578   24.0566 C   0  0  0  0  0  0
  -25.9015  -34.9489   23.5159 C   0  0  0  0  0  0
  -16.5333  -29.9087   23.6318 C   0  0  0  0  0  0
  -16.7250  -28.6505   23.0337 C   0  0  0  0  0  0
  -26.4448  -31.6606   25.0721 C   0  0  0  0  0  0
  -25.3746  -31.3684   26.1493 C   0  0  0  0  0  0
  -27.0270  -30.3060   24.6041 C   0  0  0  0  0  0
  -27.6044  -32.4309   25.7471 C   0  0  0  0  0  0
  -27.5582  -37.1821   24.8464 C   0  0  0  0  0  0
  -21.4097  -29.3012   22.3761 N   0  0  0  0  0  0
  -26.4294  -37.3806   23.9411 N   0  0  0  0  0  0
  -24.6518  -31.0875   22.1030 N   0  0  0  0  0  0
  -23.4159  -28.8225   23.3065 O   0  0  0  0  0  0
  -28.4528  -26.8230   19.9402 O   0  0  0  0  0  0
  -26.5577  -34.8928   22.4719 O   0  0  0  0  0  0
  -23.5261  -32.1461   23.7583 O   0  0  0  0  0  0
  -32.0144  -19.1892   20.2477 C   0  0  0  0  0  0
  -30.7794  -20.3861   21.9630 C   0  0  0  0  0  0
  -31.2827  -19.1800   21.4508 C   0  0  0  0  0  0
  -31.6575  -21.6003   20.0244 C   0  0  0  0  0  0
  -32.2142  -20.3871   19.5366 C   0  0  0  0  0  0
  -30.9449  -21.6000   21.2586 C   0  0  0  0  0  0
  -29.6861  -17.2804   21.3890 C   0  0  0  0  0  0
  -32.0571  -16.8678   22.2767 C   0  0  0  0  0  0
  -30.3186  -23.2678   18.6816 C   0  0  0  0  0  0
  -32.4734  -24.0343   19.9174 C   0  0  0  0  0  0
  -29.3110  -15.8940   21.9236 C   0  0  0  0  0  0
  -31.5471  -15.4838   22.7342 C   0  0  0  0  0  0
  -30.2735  -24.6581   18.0467 C   0  0  0  0  0  0
  -32.2866  -25.3901   19.2222 C   0  0  0  0  0  0
  -30.8961  -17.8777   22.1312 C   0  0  0  0  0  0
  -31.7319  -22.8849   19.1877 C   0  0  1  0  0  0
  -32.9887  -20.3151   18.2286 C   0  0  0  0  0  0
  -29.5851  -22.7766   22.8761 C   0  0  0  0  0  0
  -30.5032  -27.0424   18.6747 C   0  0  0  0  0  0
  -29.6382  -27.6231   19.7961 C   0  0  0  0  0  0
  -30.4768  -15.0027   21.8472 N   0  0  0  0  0  0
  -30.8449  -25.6404   18.9927 N   0  3  1  0  0  0
  -30.3968  -22.7853   21.7082 O   0  0  0  0  0  0
  -31.4567  -12.3880   19.0733 H   0  0  0  0  0  0
  -30.3202  -11.2539   19.7320 H   0  0  0  0  0  0
  -29.7089  -11.8383   17.3777 H   0  0  0  0  0  0
  -29.6478  -13.5342   17.7893 H   0  0  0  0  0  0
  -27.8084  -11.3237   18.7750 H   0  0  0  0  0  0
  -27.3473  -12.6846   17.7883 H   0  0  0  0  0  0
  -27.7332  -14.2459   19.6208 H   0  0  0  0  0  0
  -28.6738  -11.8347   21.2528 H   0  0  0  0  0  0
  -28.4650  -13.4047   21.9210 H   0  0  0  0  0  0
  -25.2754   -9.5671   22.4772 H   0  0  0  0  0  0
  -23.9999   -7.4619   22.7469 H   0  0  0  0  0  0
  -21.0840   -8.8770   19.8951 H   0  0  0  0  0  0
  -22.3703  -10.9671   19.6169 H   0  0  0  0  0  0
  -21.1990   -7.6145   23.9719 H   0  0  0  0  0  0
  -21.1487   -6.0521   25.9083 H   0  0  0  0  0  0
  -22.0598   -2.7606   23.2849 H   0  0  0  0  0  0
  -22.4096  -11.9883   22.4768 H   0  0  0  0  0  0
  -21.1126  -13.1282   22.2603 H   0  0  0  0  0  0
  -24.6735  -15.8435   20.5147 H   0  0  0  0  0  0
  -26.2941  -15.6209   20.0917 H   0  0  0  0  0  0
  -26.7047  -32.5607   23.1213 H   0  0  0  0  0  0
  -25.0003  -33.9817   25.0506 H   0  0  0  0  0  0
  -22.6766  -31.3056   21.4118 H   0  0  0  0  0  0
  -23.3728  -35.9680   23.3314 H   0  0  0  0  0  0
  -24.3579  -36.8931   22.2054 H   0  0  0  0  0  0
  -23.7235  -37.6552   23.6632 H   0  0  0  0  0  0
  -26.0045  -31.6184   20.5861 H   0  0  0  0  0  0
  -26.8011  -30.9239   21.9703 H   0  0  0  0  0  0
  -28.0627  -29.2008   21.1986 H   0  0  0  0  0  0
  -26.1427  -26.0007   19.0211 H   0  0  0  0  0  0
  -24.0041  -27.2589   19.0694 H   0  0  0  0  0  0
  -23.7028  -30.5861   19.4050 H   0  0  0  0  0  0
  -22.7276  -29.2266   19.8782 H   0  0  0  0  0  0
  -25.1270  -36.2018   25.0843 H   0  0  0  0  0  0
  -20.9929  -28.3194   24.1473 H   0  0  0  0  0  0
  -20.5646  -26.2242   23.3603 H   0  0  0  0  0  0
  -21.6625  -26.7439   22.1224 H   0  0  0  0  0  0
  -19.6895  -25.6301   21.1223 H   0  0  0  0  0  0
  -19.6693  -27.3211   20.6758 H   0  0  0  0  0  0
  -17.4191  -26.6683   21.4005 H   0  0  0  0  0  0
  -18.0303  -26.0058   22.8999 H   0  0  0  0  0  0
  -19.7915  -30.7234   24.2311 H   0  0  0  0  0  0
  -17.5002  -31.6265   24.5161 H   0  0  0  0  0  0
  -15.5337  -30.3002   23.7624 H   0  0  0  0  0  0
  -15.8649  -28.0837   22.7032 H   0  0  0  0  0  0
  -24.5899  -30.7052   25.7833 H   0  0  0  0  0  0
  -24.8960  -32.2831   26.5000 H   0  0  0  0  0  0
  -25.8125  -30.8809   27.0210 H   0  0  0  0  0  0
  -26.2788  -29.6830   24.1122 H   0  0  0  0  0  0
  -27.4094  -29.7283   25.4467 H   0  0  0  0  0  0
  -27.8597  -30.4404   23.9134 H   0  0  0  0  0  0
  -27.2673  -33.3579   26.2125 H   0  0  0  0  0  0
  -28.3816  -32.6920   25.0274 H   0  0  0  0  0  0
  -28.0757  -31.8385   26.5327 H   0  0  0  0  0  0
  -28.2607  -38.0109   24.7497 H   0  0  0  0  0  0
  -28.1068  -36.2639   24.6299 H   0  0  0  0  0  0
  -27.2301  -37.1495   25.8868 H   0  0  0  0  0  0
  -20.9244  -29.8723   21.6983 H   0  0  0  0  0  0
  -26.0193  -38.2890   24.1404 H   0  0  0  0  0  0
  -32.3825  -18.2630   19.8308 H   0  0  0  0  0  0
  -30.2122  -20.3438   22.8804 H   0  0  0  0  0  0
  -28.8308  -17.9531   21.4727 H   0  0  0  0  0  0
  -29.9060  -17.2047   20.3226 H   0  0  0  0  0  0
  -32.5848  -16.7392   21.3338 H   0  0  0  0  0  0
  -32.7977  -17.2504   22.9801 H   0  0  0  0  0  0
  -29.9700  -22.5237   17.9644 H   0  0  0  0  0  0
  -29.5894  -23.2519   19.4897 H   0  0  0  0  0  0
  -32.1403  -24.1479   20.9458 H   0  0  0  0  0  0
  -33.5357  -23.7972   19.9881 H   0  0  0  0  0  0
  -28.4644  -15.5297   21.3467 H   0  0  0  0  0  0
  -28.9646  -15.9623   22.9557 H   0  0  0  0  0  0
  -31.1685  -15.5416   23.7557 H   0  0  0  0  0  0
  -32.3715  -14.7681   22.7613 H   0  0  0  0  0  0
  -29.2360  -24.9088   17.8194 H   0  0  0  0  0  0
  -30.8193  -24.6772   17.1023 H   0  0  0  0  0  0
  -32.8264  -25.4178   18.2741 H   0  0  0  0  0  0
  -32.7121  -26.1738   19.8504 H   0  0  0  0  0  0
  -30.5667  -18.1104   23.1457 H   0  0  0  0  0  0
  -32.3165  -22.7180   18.2863 H   0  0  0  0  0  0
  -33.3696  -19.3107   18.0406 H   0  0  0  0  0  0
  -33.8466  -20.9881   18.2498 H   0  0  0  0  0  0
  -32.3504  -20.5836   17.3864 H   0  0  0  0  0  0
  -29.2132  -23.7845   23.0605 H   0  0  0  0  0  0
  -30.1496  -22.4698   23.7573 H   0  0  0  0  0  0
  -28.7179  -22.1259   22.7554 H   0  0  0  0  0  0
  -31.4038  -27.6468   18.5564 H   0  0  0  0  0  0
  -29.9691  -27.1155   17.7262 H   0  0  0  0  0  0
  -29.4324  -28.6581   19.5193 H   0  0  0  0  0  0
  -30.1816  -27.6465   20.7421 H   0  0  0  0  0  0
  -30.3784  -25.4662   19.8728 H   0  0  0  0  0  0
  1 25  1  0  0  0
  1 30  2  0  0  0
  1 91  1  0  0  0
  2  3  1  0  0  0
  2 25  1  0  0  0
  2 94  1  0  0  0
  2 95  1  0  0  0
  3  4  1  0  0  0
  3 96  1  0  0  0
  3 97  1  0  0  0
  4  5  1  0  0  0
  4 98  1  0  0  0
  4 99  1  0  0  0
  5  6  1  0  0  0
  5 26  1  0  0  0
  5100  1  0  0  0
  6 25  1  0  0  0
  6101  1  0  0  0
  6102  1  0  0  0
  7  8  2  0  0  0
  7 26  1  0  0  0
  7 29  1  0  0  0
  8  9  1  0  0  0
  8 22  1  0  0  0
  9 10  1  0  0  0
  9 27  2  0  0  0
 10 11  2  0  0  0
 10 15  1  0  0  0
 11 12  1  0  0  0
 11103  1  0  0  0
 12 13  2  0  0  0
 12104  1  0  0  0
 13 14  1  0  0  0
 13 31  1  0  0  0
 14 15  2  0  0  0
 14105  1  0  0  0
 15106  1  0  0  0
 16 17  2  0  0  0
 16 21  1  0  0  0
 16 31  1  0  0  0
 17 18  1  0  0  0
 17107  1  0  0  0
 18 19  2  0  0  0
 18108  1  0  0  0
 19 20  1  0  0  0
 19 24  1  0  0  0
 20 21  2  0  0  0
 20109  1  0  0  0
 21 23  1  0  0  0
 22 28  1  0  0  0
 22 32  2  0  0  0
 26 27  1  0  0  0
 28110  1  0  0  0
 28111  1  0  0  0
 29112  1  0  0  0
 29113  1  0  0  0
 33 34  1  0  0  0
 33 66  1  0  0  0
 33 70  2  0  0  0
 34 36  1  0  0  0
 34 59  1  0  0  0
 34114  1  0  0  0
 35 44  2  0  0  0
 35 45  1  0  0  0
 35 68  1  0  0  0
 36 56  1  0  0  0
 36115  1  0  0  0
 37 39  1  0  0  0
 37 47  1  0  0  0
 37 66  1  0  0  0
 37116  1  0  0  0
 38 43  2  0  0  0
 38 46  1  0  0  0
 38 47  1  0  0  0
 39 64  1  0  0  0
 39 67  2  0  0  0
 40 52  1  0  0  0
 40 53  2  0  0  0
 40 58  1  0  0  0
 41117  1  0  0  0
 41118  1  0  0  0
 41119  1  0  0  0
 41 48  1  0  0  0
 42 43  1  0  0  0
 42 66  1  0  0  0
 42120  1  0  0  0
 42121  1  0  0  0
 43 44  1  0  0  0
 44122  1  0  0  0
 45 46  2  0  0  0
 45123  1  0  0  0
 46124  1  0  0  0
 47125  1  0  0  0
 47126  1  0  0  0
 48 56  1  0  0  0
 48 65  1  0  0  0
 48127  1  0  0  0
 49 50  1  0  0  0
 49 53  1  0  0  0
 49 64  1  0  0  0
 49128  1  0  0  0
 50 51  1  0  0  0
 50129  1  0  0  0
 50130  1  0  0  0
 51 52  1  0  0  0
 51131  1  0  0  0
 51132  1  0  0  0
 52133  1  0  0  0
 52134  1  0  0  0
 53 54  1  0  0  0
 54 55  2  0  0  0
 54135  1  0  0  0
 55 57  1  0  0  0
 55136  1  0  0  0
 56 69  2  0  0  0
 57 58  2  0  0  0
 57137  1  0  0  0
 58138  1  0  0  0
 59 60  1  0  0  0
 59 61  1  0  0  0
 59 62  1  0  0  0
 60139  1  0  0  0
 60140  1  0  0  0
 60141  1  0  0  0
 61142  1  0  0  0
 61143  1  0  0  0
 61144  1  0  0  0
 62145  1  0  0  0
 62146  1  0  0  0
 62147  1  0  0  0
 63 65  1  0  0  0
 63148  1  0  0  0
 63149  1  0  0  0
 63150  1  0  0  0
 64151  1  0  0  0
 65152  1  0  0  0
 68 90  1  0  0  0
 71 73  2  0  0  0
 71 75  1  0  0  0
 71153  1  0  0  0
 72 73  1  0  0  0
 72 76  2  0  0  0
 72154  1  0  0  0
 73 85  1  0  0  0
 74 75  2  0  0  0
 74 76  1  0  0  0
 74 86  1  0  0  0
 75 87  1  0  0  0
 76 93  1  0  0  0
 77 81  1  0  0  0
 77 85  1  0  0  0
 77155  1  0  0  0
 77156  1  0  0  0
 78 82  1  0  0  0
 78 85  1  0  0  0
 78157  1  0  0  0
 78158  1  0  0  0
 79 83  1  0  0  0
 79 86  1  0  0  0
 79159  1  0  0  0
 79160  1  0  0  0
 80 84  1  0  0  0
 80 86  1  0  0  0
 80161  1  0  0  0
 80162  1  0  0  0
 81 91  1  0  0  0
 81163  1  0  0  0
 81164  1  0  0  0
 82 91  1  0  0  0
 82165  1  0  0  0
 82166  1  0  0  0
 83 92  1  0  0  0
 83167  1  0  0  0
 83168  1  0  0  0
 84 92  1  0  0  0
 84169  1  0  0  0
 84170  1  0  0  0
 85171  1  0  0  0
 86172  1  0  0  0
 87173  1  0  0  0
 87174  1  0  0  0
 87175  1  0  0  0
 88 93  1  0  0  0
 88176  1  0  0  0
 88177  1  0  0  0
 88178  1  0  0  0
 89 90  1  0  0  0
 89179  1  0  0  0
 89180  1  0  0  0
 89 92  1  0  0  0
 90181  1  0  0  0
 90182  1  0  0  0
 92183  1  0  0  0
M  CHG  1  92   1
M  ISO  4   1 100  68 101  90 101  91 100
M  END
> <chiral flag>
0

> <version>
0

> <s_m_source_file>
/data/baiqing/PycharmProjects/Reinvent-master-3.2/result/LINK_invent/BTK/process_docking_weight1_custom_sum_contain_oxygen_bond_distance_aromatic_linkinvent_7_9_3/rearranged_h_0155.sdf

> <i_m_source_file_index>
50

> <r_mmod_Potential_Energy-OPLS-2005>
115.320709228516

> <r_mmod_Stretch_Energy-OPLS-2005>
38.1014633178711

> <r_mmod_Bend_Energy-OPLS-2005>
113.949684143066

> <r_mmod_Torsional_Energy-OPLS-2005>
361.468292236328

> <r_mmod_Improper_Torsional_Energy-OPLS-2005>
8.40448570251465

> <r_mmod_Van_der_Waal_Energy-OPLS-2005>
189.768676757812

> <r_mmod_Electrostatic_Energy-OPLS-2005>
-219.04264831543

> <r_mmod_Solvation_Energy-OPLS-2005>
-385.094512939453

> <b_mmod_Minimization_Converged-OPLS-2005>
0

> <r_mmod_RMS_Derivative-OPLS-2005>
0.805256366729736

$$$$
50
                    3D
 Structure written by MMmdl.
181192  0  0  1  0            999 V2000
  -30.7513  -14.3590   20.6303 C   0  0  0  0  0  0
  -30.4128  -12.2616   19.3941 C   0  0  0  0  0  0
  -29.4839  -12.5153   18.1908 C   0  0  0  0  0  0
  -28.0064  -12.3835   18.6077 C   0  0  0  0  0  0
  -27.6667  -13.1995   19.8831 C   0  0  2  0  0  0
  -28.7068  -12.9347   20.9951 C   0  0  0  0  0  0
  -25.2614  -13.8149   20.5686 C   0  0  0  0  0  0
  -24.1851  -13.0443   20.9151 C   0  0  0  0  0  0
  -24.6393  -11.6902   20.8728 C   0  0  0  0  0  0
  -23.9055  -10.4296   21.0398 C   0  0  0  0  0  0
  -24.3605   -9.4214   21.9187 C   0  0  0  0  0  0
  -23.6279   -8.2247   22.0760 C   0  0  0  0  0  0
  -22.4261   -8.0279   21.3550 C   0  0  0  0  0  0
  -21.9898   -9.0255   20.4654 C   0  0  0  0  0  0
  -22.7223  -10.2134   20.3058 C   0  0  0  0  0  0
  -21.6856   -6.0733   22.5276 C   0  0  0  0  0  0
  -21.4011   -6.5637   23.8206 C   0  0  0  0  0  0
  -21.3656   -5.6789   24.9171 C   0  0  0  0  0  0
  -21.6046   -4.3051   24.7222 C   0  0  0  0  0  0
  -21.8820   -3.8144   23.4344 C   0  0  0  0  0  0
  -21.9191   -4.6960   22.3399 C   0  0  0  0  0  0
  -22.7873  -13.5251   21.1820 C   0  0  0  0  0  0
  -22.1665   -4.2142   21.0980 F   0  0  0  0  0  0
  -21.5626   -3.4537   25.7739 F   0  0  0  0  0  0
  -30.0458  -13.2153   20.4480 N   0  0  0  0  0  0
  -26.3053  -12.9309   20.3406 N   0  0  0  0  0  0
  -25.9317  -11.6474   20.5770 N   0  0  0  0  0  0
  -22.0506  -12.8255   22.0375 N   0  0  0  0  0  0
  -25.4366  -15.1868   20.4089 N   0  0  0  0  0  0
  -31.8356  -14.5889   20.0813 O   0  0  0  0  0  0
  -21.6638   -6.8873   21.4236 O   0  0  0  0  0  0
  -22.3567  -14.5563   20.6671 O   0  0  0  0  0  0
  -24.6102  -31.8715   23.2159 C   0  0  0  0  0  0
  -25.9015  -32.4847   23.8446 C   0  0  1  0  0  0
  -27.2445  -27.4916   20.0633 C   0  0  0  0  0  0
  -25.5886  -33.8651   24.2359 N   0  0  0  0  0  0
  -23.3974  -30.4953   21.5551 C   0  0  2  0  0  0
  -24.8423  -28.9710   20.1119 C   0  0  0  0  0  0
  -22.7383  -29.4677   22.5028 C   0  0  0  0  0  0
  -18.0255  -28.1363   22.8509 C   0  0  0  0  0  0
  -24.1487  -36.7336   23.2632 C   0  0  0  0  0  0
  -25.9229  -30.8480   21.3687 C   0  0  0  0  0  0
  -25.9989  -29.4921   20.7046 C   0  0  0  0  0  0
  -27.1984  -28.7540   20.6853 C   0  0  0  0  0  0
  -26.0647  -26.9580   19.5010 C   0  0  0  0  0  0
  -24.8670  -27.6977   19.5150 C   0  0  0  0  0  0
  -23.6001  -29.8284   20.1681 C   0  0  0  0  0  0
  -25.4113  -36.3141   24.0327 C   0  0  1  0  0  0
  -20.5847  -28.3661   23.1334 C   0  0  2  0  0  0
  -20.6753  -26.9407   22.5422 C   0  0  0  0  0  0
  -19.5734  -26.6379   21.5223 C   0  0  0  0  0  0
  -18.1908  -26.7915   22.1626 C   0  0  0  0  0  0
  -19.1506  -28.8829   23.2913 C   0  0  0  0  0  0
  -18.9437  -30.1434   23.8935 C   0  0  0  0  0  0
  -17.6437  -30.6582   24.0574 C   0  0  0  0  0  0
  -25.9039  -34.9494   23.5150 C   0  0  0  0  0  0
  -16.5329  -29.9082   23.6330 C   0  0  0  0  0  0
  -16.7243  -28.6484   23.0381 C   0  0  0  0  0  0
  -26.4452  -31.6635   25.0775 C   0  0  0  0  0  0
  -25.3725  -31.3729   26.1534 C   0  0  0  0  0  0
  -27.0288  -30.3075   24.6181 C   0  0  0  0  0  0
  -27.6046  -32.4352   25.7511 C   0  0  0  0  0  0
  -27.5608  -37.1806   24.8433 C   0  0  0  0  0  0
  -21.4117  -29.3029   22.3742 N   0  0  0  0  0  0
  -26.4302  -37.3830   23.9403 N   0  0  0  0  0  0
  -24.6607  -31.0851   22.1038 N   0  0  0  0  0  0
  -23.4155  -28.8234   23.3081 O   0  0  0  0  0  0
  -28.4183  -26.7870   20.1342 O   0  0  0  0  0  0
  -26.5618  -34.8935   22.4722 O   0  0  0  0  0  0
  -23.5304  -32.1446   23.7581 O   0  0  0  0  0  0
  -28.6761  -21.4383   23.2877 C   0  0  0  0  0  0
  -29.4438  -22.7651   21.3839 C   0  0  0  0  0  0
  -28.7551  -22.6814   22.6303 C   0  0  0  0  0  0
  -30.0663  -21.5857   20.8975 C   0  0  0  0  0  0
  -29.2815  -20.3226   22.7031 C   0  0  0  0  0  0
  -28.3036  -23.9735   19.4537 C   0  0  0  0  0  0
  -30.7202  -24.6302   20.0209 C   0  0  0  0  0  0
  -31.6293  -20.2438   19.2003 C   0  0  0  0  0  0
  -32.3240  -21.5286   19.5670 C   0  0  0  0  0  0
  -28.4751  -25.0543   18.3669 C   0  0  0  0  0  0
  -30.5336  -26.0452   19.4093 C   0  0  0  0  0  0
  -28.9009  -17.4884   21.3445 C   0  0  0  0  0  0
  -29.8497  -16.6509   23.4656 C   0  0  0  0  0  0
  -29.7413  -16.4947   20.5437 C   0  0  0  0  0  0
  -30.6486  -15.5809   22.6923 C   0  0  0  0  0  0
  -29.3881  -24.0568   20.5584 C   0  0  2  0  0  0
  -30.8101  -21.4664   19.5871 C   0  0  0  0  0  0
  -29.7033  -17.8947   22.5886 C   0  0  0  0  0  0
  -29.0829  -26.3437   18.9510 C   0  0  2  0  0  0
  -28.0533  -23.8708   23.2703 C   0  0  0  0  0  0
  -29.9876  -20.4208   21.5656 N   0  0  0  0  0  0
  -30.1243  -15.3157   21.3377 N   0  0  0  0  0  0
  -29.1424  -19.0525   23.2781 N   0  0  0  0  0  0
  -31.4590  -12.3487   19.0921 H   0  0  0  0  0  0
  -30.2951  -11.2397   19.7594 H   0  0  0  0  0  0
  -29.7092  -11.8144   17.3853 H   0  0  0  0  0  0
  -29.6640  -13.5135   17.7869 H   0  0  0  0  0  0
  -27.8033  -11.3263   18.7794 H   0  0  0  0  0  0
  -27.3571  -12.6866   17.7858 H   0  0  0  0  0  0
  -27.7248  -14.2537   19.6133 H   0  0  0  0  0  0
  -28.6619  -11.8939   21.3164 H   0  0  0  0  0  0
  -28.4754  -13.5204   21.8857 H   0  0  0  0  0  0
  -25.2755   -9.5684   22.4763 H   0  0  0  0  0  0
  -23.9984   -7.4643   22.7487 H   0  0  0  0  0  0
  -21.0826   -8.8773   19.8969 H   0  0  0  0  0  0
  -22.3684  -10.9671   19.6164 H   0  0  0  0  0  0
  -21.2007   -7.6146   23.9705 H   0  0  0  0  0  0
  -21.1476   -6.0526   25.9073 H   0  0  0  0  0  0
  -22.0603   -2.7606   23.2849 H   0  0  0  0  0  0
  -22.4102  -11.9904   22.4757 H   0  0  0  0  0  0
  -21.1133  -13.1304   22.2590 H   0  0  0  0  0  0
  -24.6758  -15.8472   20.5242 H   0  0  0  0  0  0
  -26.3028  -15.6244   20.1223 H   0  0  0  0  0  0
  -26.7101  -32.5550   23.1227 H   0  0  0  0  0  0
  -25.0002  -33.9825   25.0479 H   0  0  0  0  0  0
  -22.6857  -31.3124   21.4189 H   0  0  0  0  0  0
  -23.3779  -35.9638   23.3251 H   0  0  0  0  0  0
  -24.3606  -36.9001   22.2058 H   0  0  0  0  0  0
  -23.7190  -37.6499   23.6691 H   0  0  0  0  0  0
  -26.0475  -31.6254   20.6139 H   0  0  0  0  0  0
  -26.8047  -30.8826   21.9971 H   0  0  0  0  0  0
  -28.0916  -29.1504   21.1480 H   0  0  0  0  0  0
  -26.0382  -25.9635   19.0898 H   0  0  0  0  0  0
  -23.9696  -27.2763   19.0825 H   0  0  0  0  0  0
  -23.6989  -30.6028   19.4071 H   0  0  0  0  0  0
  -22.7271  -29.2389   19.8805 H   0  0  0  0  0  0
  -25.1286  -36.2026   25.0820 H   0  0  0  0  0  0
  -20.9932  -28.3219   24.1457 H   0  0  0  0  0  0
  -20.5675  -26.2276   23.3606 H   0  0  0  0  0  0
  -21.6623  -26.7462   22.1204 H   0  0  0  0  0  0
  -19.6895  -25.6286   21.1257 H   0  0  0  0  0  0
  -19.6679  -27.3195   20.6755 H   0  0  0  0  0  0
  -17.4184  -26.6692   21.4006 H   0  0  0  0  0  0
  -18.0292  -26.0038   22.8998 H   0  0  0  0  0  0
  -19.7913  -30.7236   24.2333 H   0  0  0  0  0  0
  -17.4992  -31.6277   24.5149 H   0  0  0  0  0  0
  -15.5334  -30.2999   23.7628 H   0  0  0  0  0  0
  -15.8636  -28.0791   22.7129 H   0  0  0  0  0  0
  -24.5812  -30.7201   25.7837 H   0  0  0  0  0  0
  -24.9034  -32.2884   26.5142 H   0  0  0  0  0  0
  -25.8046  -30.8729   27.0211 H   0  0  0  0  0  0
  -26.2838  -29.6841   24.1224 H   0  0  0  0  0  0
  -27.4005  -29.7332   25.4680 H   0  0  0  0  0  0
  -27.8710  -30.4391   23.9386 H   0  0  0  0  0  0
  -27.2664  -33.3602   26.2208 H   0  0  0  0  0  0
  -28.3779  -32.7000   25.0283 H   0  0  0  0  0  0
  -28.0825  -31.8421   26.5323 H   0  0  0  0  0  0
  -28.2560  -38.0174   24.7617 H   0  0  0  0  0  0
  -28.1172  -36.2717   24.6090 H   0  0  0  0  0  0
  -27.2348  -37.1238   25.8835 H   0  0  0  0  0  0
  -20.9274  -29.8727   21.6946 H   0  0  0  0  0  0
  -26.0197  -38.2896   24.1475 H   0  0  0  0  0  0
  -28.1248  -21.3416   24.2143 H   0  0  0  0  0  0
  -28.3013  -22.9982   18.9688 H   0  0  0  0  0  0
  -27.3228  -24.0637   19.9238 H   0  0  0  0  0  0
  -31.4686  -24.6710   20.8133 H   0  0  0  0  0  0
  -31.1311  -23.9948   19.2413 H   0  0  0  0  0  0
  -31.7076  -19.4139   19.8995 H   0  0  0  0  0  0
  -31.6472  -19.9614   18.1498 H   0  0  0  0  0  0
  -32.8086  -22.0711   18.7590 H   0  0  0  0  0  0
  -32.8370  -21.5585   20.5257 H   0  0  0  0  0  0
  -27.5418  -25.2382   17.8391 H   0  0  0  0  0  0
  -29.1490  -24.6746   17.5964 H   0  0  0  0  0  0
  -31.2115  -26.1460   18.5608 H   0  0  0  0  0  0
  -30.8529  -26.8044   20.1251 H   0  0  0  0  0  0
  -27.9420  -17.0491   21.6248 H   0  0  0  0  0  0
  -28.6715  -18.3430   20.7081 H   0  0  0  0  0  0
  -30.3675  -16.8911   24.3952 H   0  0  0  0  0  0
  -28.8683  -16.2616   23.7419 H   0  0  0  0  0  0
  -30.6401  -16.9966   20.1775 H   0  0  0  0  0  0
  -29.1833  -16.1881   19.6571 H   0  0  0  0  0  0
  -30.6606  -14.6543   23.2690 H   0  0  0  0  0  0
  -31.6886  -15.9041   22.6086 H   0  0  0  0  0  0
  -29.0674  -24.8289   21.2484 H   0  0  0  0  0  0
  -30.2646  -21.9361   18.7731 H   0  0  0  0  0  0
  -30.7133  -18.1741   22.2819 H   0  0  0  0  0  0
  -29.0875  -27.1457   18.2109 H   0  0  0  0  0  0
  -27.5873  -23.5975   24.2172 H   0  0  0  0  0  0
  -27.2696  -24.2543   22.6168 H   0  0  0  0  0  0
  -28.7632  -24.6730   23.4767 H   0  0  0  0  0  0
  -28.5945  -18.9276   24.1224 H   0  0  0  0  0  0
  1 25  1  0  0  0
  1 30  2  0  0  0
  1 92  1  0  0  0
  2  3  1  0  0  0
  2 25  1  0  0  0
  2 94  1  0  0  0
  2 95  1  0  0  0
  3  4  1  0  0  0
  3 96  1  0  0  0
  3 97  1  0  0  0
  4  5  1  0  0  0
  4 98  1  0  0  0
  4 99  1  0  0  0
  5  6  1  0  0  0
  5 26  1  0  0  0
  5100  1  0  0  0
  6 25  1  0  0  0
  6101  1  0  0  0
  6102  1  0  0  0
  7  8  2  0  0  0
  7 26  1  0  0  0
  7 29  1  0  0  0
  8  9  1  0  0  0
  8 22  1  0  0  0
  9 10  1  0  0  0
  9 27  2  0  0  0
 10 11  2  0  0  0
 10 15  1  0  0  0
 11 12  1  0  0  0
 11103  1  0  0  0
 12 13  2  0  0  0
 12104  1  0  0  0
 13 14  1  0  0  0
 13 31  1  0  0  0
 14 15  2  0  0  0
 14105  1  0  0  0
 15106  1  0  0  0
 16 17  2  0  0  0
 16 21  1  0  0  0
 16 31  1  0  0  0
 17 18  1  0  0  0
 17107  1  0  0  0
 18 19  2  0  0  0
 18108  1  0  0  0
 19 20  1  0  0  0
 19 24  1  0  0  0
 20 21  2  0  0  0
 20109  1  0  0  0
 21 23  1  0  0  0
 22 28  1  0  0  0
 22 32  2  0  0  0
 26 27  1  0  0  0
 28110  1  0  0  0
 28111  1  0  0  0
 29112  1  0  0  0
 29113  1  0  0  0
 33 34  1  0  0  0
 33 66  1  0  0  0
 33 70  2  0  0  0
 34 36  1  0  0  0
 34 59  1  0  0  0
 34114  1  0  0  0
 35 44  2  0  0  0
 35 45  1  0  0  0
 35 68  1  0  0  0
 36 56  1  0  0  0
 36115  1  0  0  0
 37 39  1  0  0  0
 37 47  1  0  0  0
 37 66  1  0  0  0
 37116  1  0  0  0
 38 43  2  0  0  0
 38 46  1  0  0  0
 38 47  1  0  0  0
 39 64  1  0  0  0
 39 67  2  0  0  0
 40 52  1  0  0  0
 40 53  2  0  0  0
 40 58  1  0  0  0
 41117  1  0  0  0
 41118  1  0  0  0
 41119  1  0  0  0
 41 48  1  0  0  0
 42 43  1  0  0  0
 42 66  1  0  0  0
 42120  1  0  0  0
 42121  1  0  0  0
 43 44  1  0  0  0
 44122  1  0  0  0
 45 46  2  0  0  0
 45123  1  0  0  0
 46124  1  0  0  0
 47125  1  0  0  0
 47126  1  0  0  0
 48 56  1  0  0  0
 48 65  1  0  0  0
 48127  1  0  0  0
 49 50  1  0  0  0
 49 53  1  0  0  0
 49 64  1  0  0  0
 49128  1  0  0  0
 50 51  1  0  0  0
 50129  1  0  0  0
 50130  1  0  0  0
 51 52  1  0  0  0
 51131  1  0  0  0
 51132  1  0  0  0
 52133  1  0  0  0
 52134  1  0  0  0
 53 54  1  0  0  0
 54 55  2  0  0  0
 54135  1  0  0  0
 55 57  1  0  0  0
 55136  1  0  0  0
 56 69  2  0  0  0
 57 58  2  0  0  0
 57137  1  0  0  0
 58138  1  0  0  0
 59 60  1  0  0  0
 59 61  1  0  0  0
 59 62  1  0  0  0
 60139  1  0  0  0
 60140  1  0  0  0
 60141  1  0  0  0
 61142  1  0  0  0
 61143  1  0  0  0
 61144  1  0  0  0
 62145  1  0  0  0
 62146  1  0  0  0
 62147  1  0  0  0
 63 65  1  0  0  0
 63148  1  0  0  0
 63149  1  0  0  0
 63150  1  0  0  0
 64151  1  0  0  0
 65152  1  0  0  0
 68 89  1  0  0  0
 71 73  2  0  0  0
 71 75  1  0  0  0
 71153  1  0  0  0
 72 73  1  0  0  0
 72 74  2  0  0  0
 72 86  1  0  0  0
 73 90  1  0  0  0
 74 91  1  0  0  0
 74 87  1  0  0  0
 75 91  2  0  0  0
 75 93  1  0  0  0
 76 80  1  0  0  0
 76 86  1  0  0  0
 76154  1  0  0  0
 76155  1  0  0  0
 77 81  1  0  0  0
 77 86  1  0  0  0
 77156  1  0  0  0
 77157  1  0  0  0
 78 79  1  0  0  0
 78 87  1  0  0  0
 78158  1  0  0  0
 78159  1  0  0  0
 79 87  1  0  0  0
 79160  1  0  0  0
 79161  1  0  0  0
 80 89  1  0  0  0
 80162  1  0  0  0
 80163  1  0  0  0
 81 89  1  0  0  0
 81164  1  0  0  0
 81165  1  0  0  0
 82 84  1  0  0  0
 82 88  1  0  0  0
 82166  1  0  0  0
 82167  1  0  0  0
 83 85  1  0  0  0
 83 88  1  0  0  0
 83168  1  0  0  0
 83169  1  0  0  0
 84 92  1  0  0  0
 84170  1  0  0  0
 84171  1  0  0  0
 85 92  1  0  0  0
 85172  1  0  0  0
 85173  1  0  0  0
 86174  1  0  0  0
 87175  1  0  0  0
 88 93  1  0  0  0
 88176  1  0  0  0
 89177  1  0  0  0
 90178  1  0  0  0
 90179  1  0  0  0
 90180  1  0  0  0
 93181  1  0  0  0
M  ISO  4   1 100  68 101  89 101  92 100
M  END
> <chiral flag>
0

> <version>
0

> <s_m_source_file>
/data/baiqing/PycharmProjects/Reinvent-master-3.2/result/LINK_invent/BTK/process_docking_weight1_custom_sum_contain_oxygen_bond_distance_aromatic_linkinvent_7_9_3/rearranged_h_0155.sdf

> <i_m_source_file_index>
51

> <r_mmod_Potential_Energy-OPLS-2005>
33.7968902587891

> <r_mmod_Stretch_Energy-OPLS-2005>
37.4560775756836

> <r_mmod_Bend_Energy-OPLS-2005>
136.09504699707

> <r_mmod_Torsional_Energy-OPLS-2005>
403.471649169922

> <r_mmod_Improper_Torsional_Energy-OPLS-2005>
7.46591711044312

> <r_mmod_Van_der_Waal_Energy-OPLS-2005>
183.731140136719

> <r_mmod_Electrostatic_Energy-OPLS-2005>
-536.205627441406

> <r_mmod_Solvation_Energy-OPLS-2005>
-207.367141723633

> <b_mmod_Minimization_Converged-OPLS-2005>
0

> <r_mmod_RMS_Derivative-OPLS-2005>
1.97771382331848

$$$$
51
                    3D
 Structure written by MMmdl.
174183  0  0  1  0            999 V2000
  -30.6944  -14.4840   20.4334 C   0  0  0  0  0  0
  -30.4178  -12.2787   19.4243 C   0  0  0  0  0  0
  -29.4867  -12.4375   18.2060 C   0  0  0  0  0  0
  -28.0052  -12.3456   18.6219 C   0  0  0  0  0  0
  -27.6508  -13.2115   19.8618 C   0  0  2  0  0  0
  -28.7025  -13.0556   20.9816 C   0  0  0  0  0  0
  -25.2543  -13.8143   20.5706 C   0  0  0  0  0  0
  -24.1814  -13.0404   20.9203 C   0  0  0  0  0  0
  -24.6405  -11.6905   20.8807 C   0  0  0  0  0  0
  -23.9098  -10.4284   21.0453 C   0  0  0  0  0  0
  -24.3639   -9.4192   21.9208 C   0  0  0  0  0  0
  -23.6308   -8.2237   22.0746 C   0  0  0  0  0  0
  -22.4292   -8.0291   21.3540 C   0  0  0  0  0  0
  -21.9946   -9.0270   20.4646 C   0  0  0  0  0  0
  -22.7290  -10.2143   20.3073 C   0  0  0  0  0  0
  -21.6849   -6.0772   22.5293 C   0  0  0  0  0  0
  -21.4020   -6.5668   23.8235 C   0  0  0  0  0  0
  -21.3644   -5.6808   24.9190 C   0  0  0  0  0  0
  -21.6028   -4.3072   24.7223 C   0  0  0  0  0  0
  -21.8813   -3.8183   23.4341 C   0  0  0  0  0  0
  -21.9202   -4.7009   22.3407 C   0  0  0  0  0  0
  -22.7853  -13.5195   21.1887 C   0  0  0  0  0  0
  -22.1659   -4.2208   21.0983 F   0  0  0  0  0  0
  -21.5616   -3.4544   25.7726 F   0  0  0  0  0  0
  -30.0236  -13.3064   20.3943 N   0  0  0  0  0  0
  -26.2994  -12.9342   20.3392 N   0  0  0  0  0  0
  -25.9341  -11.6511   20.5874 N   0  0  0  0  0  0
  -22.0518  -12.8162   22.0438 N   0  0  0  0  0  0
  -25.4173  -15.1829   20.4084 N   0  0  0  0  0  0
  -31.9208  -14.5478   20.3136 O   0  0  0  0  0  0
  -21.6612   -6.8921   21.4263 O   0  0  0  0  0  0
  -22.3539  -14.5557   20.6832 O   0  0  0  0  0  0
  -24.6098  -31.8712   23.2136 C   0  0  0  0  0  0
  -25.9013  -32.4846   23.8441 C   0  0  1  0  0  0
  -27.2453  -27.4794   20.0889 C   0  0  0  0  0  0
  -25.5869  -33.8641   24.2378 N   0  0  0  0  0  0
  -23.3968  -30.4903   21.5560 C   0  0  2  0  0  0
  -24.8427  -28.9497   20.1331 C   0  0  0  0  0  0
  -22.7359  -29.4675   22.5064 C   0  0  0  0  0  0
  -18.0254  -28.1374   22.8544 C   0  0  0  0  0  0
  -24.1470  -36.7306   23.2653 C   0  0  0  0  0  0
  -25.9185  -30.8512   21.3566 C   0  0  0  0  0  0
  -26.0014  -29.4824   20.7142 C   0  0  0  0  0  0
  -27.2078  -28.7542   20.6896 C   0  0  0  0  0  0
  -26.0713  -26.9384   19.5251 C   0  0  0  0  0  0
  -24.8672  -27.6703   19.5475 C   0  0  0  0  0  0
  -23.6023  -29.8152   20.1753 C   0  0  0  0  0  0
  -25.4098  -36.3136   24.0370 C   0  0  1  0  0  0
  -20.5837  -28.3664   23.1351 C   0  0  2  0  0  0
  -20.6733  -26.9400   22.5440 C   0  0  0  0  0  0
  -19.5699  -26.6395   21.5242 C   0  0  0  0  0  0
  -18.1879  -26.7920   22.1652 C   0  0  0  0  0  0
  -19.1501  -28.8830   23.2939 C   0  0  0  0  0  0
  -18.9436  -30.1442   23.8959 C   0  0  0  0  0  0
  -17.6443  -30.6598   24.0582 C   0  0  0  0  0  0
  -25.9038  -34.9501   23.5177 C   0  0  0  0  0  0
  -16.5339  -29.9109   23.6344 C   0  0  0  0  0  0
  -16.7245  -28.6497   23.0410 C   0  0  0  0  0  0
  -26.4451  -31.6603   25.0760 C   0  0  0  0  0  0
  -25.3708  -31.3606   26.1494 C   0  0  0  0  0  0
  -27.0355  -30.3095   24.6088 C   0  0  0  0  0  0
  -27.6077  -32.4304   25.7502 C   0  0  0  0  0  0
  -27.5581  -37.1797   24.8484 C   0  0  0  0  0  0
  -21.4097  -29.3025   22.3766 N   0  0  0  0  0  0
  -26.4289  -37.3821   23.9440 N   0  0  0  0  0  0
  -24.6605  -31.0832   22.1028 N   0  0  0  0  0  0
  -23.4127  -28.8233   23.3126 O   0  0  0  0  0  0
  -28.4310  -26.8014   20.0041 O   0  0  0  0  0  0
  -26.5597  -34.8935   22.4742 O   0  0  0  0  0  0
  -23.5300  -32.1490   23.7523 O   0  0  0  0  0  0
  -26.8432  -20.8960   20.6857 C   0  0  0  0  0  0
  -28.6107  -20.3798   22.2360 C   0  0  0  0  0  0
  -27.7760  -21.3413   21.6377 C   0  0  0  0  0  0
  -26.8543  -19.5458   20.2858 C   0  0  0  0  0  0
  -27.8674  -18.6984   20.8085 C   0  0  0  0  0  0
  -29.3774  -16.7400   17.8443 C   0  0  0  0  0  0
  -28.8675  -17.9117   18.6663 C   0  0  0  0  0  0
  -30.4790  -16.0396   18.6315 C   0  0  0  0  0  0
  -29.3812  -16.5503   20.7749 C   0  0  0  0  0  0
  -28.3289  -17.4507   20.0375 C   0  0  1  0  0  0
  -25.8441  -19.1169   19.2280 C   0  0  0  0  0  0
  -27.9941  -23.1869   23.4148 C   0  0  0  0  0  0
  -30.1422  -24.5661   19.2916 C   0  0  0  0  0  0
  -28.6189  -25.7642   20.9601 C   0  0  0  0  0  0
  -27.9338  -22.8328   21.9167 C   0  0  1  0  0  0
  -28.9181  -24.4410   20.2254 C   0  0  2  0  0  0
  -28.6904  -19.1092   21.7977 N   0  0  0  0  0  0
  -29.9676  -15.5044   19.9100 N   0  0  0  0  0  0
  -29.1273  -23.3213   21.1796 N   0  3  0  0  0  0
  -31.4616  -12.3676   19.1136 H   0  0  0  0  0  0
  -30.3125  -11.2818   19.8561 H   0  0  0  0  0  0
  -29.7114  -11.6724   17.4609 H   0  0  0  0  0  0
  -29.6641  -13.3929   17.7154 H   0  0  0  0  0  0
  -27.7963  -11.2982   18.8349 H   0  0  0  0  0  0
  -27.3685  -12.6196   17.7826 H   0  0  0  0  0  0
  -27.6678  -14.2487   19.5301 H   0  0  0  0  0  0
  -28.6726  -12.0507   21.4087 H   0  0  0  0  0  0
  -28.4965  -13.7524   21.7968 H   0  0  0  0  0  0
  -25.2778   -9.5668   22.4808 H   0  0  0  0  0  0
  -24.0004   -7.4642   22.7478 H   0  0  0  0  0  0
  -21.0866   -8.8839   19.8967 H   0  0  0  0  0  0
  -22.3762  -10.9709   19.6204 H   0  0  0  0  0  0
  -21.1991   -7.6172   23.9749 H   0  0  0  0  0  0
  -21.1474   -6.0536   25.9101 H   0  0  0  0  0  0
  -22.0592   -2.7650   23.2822 H   0  0  0  0  0  0
  -22.4080  -11.9706   22.4667 H   0  0  0  0  0  0
  -21.1190  -13.1284   22.2736 H   0  0  0  0  0  0
  -24.6430  -15.8293   20.5079 H   0  0  0  0  0  0
  -26.2680  -15.6180   20.0832 H   0  0  0  0  0  0
  -26.7092  -32.5585   23.1229 H   0  0  0  0  0  0
  -24.9983  -33.9816   25.0494 H   0  0  0  0  0  0
  -22.6871  -31.3075   21.4129 H   0  0  0  0  0  0
  -23.3760  -35.9607   23.3332 H   0  0  0  0  0  0
  -24.3550  -36.8909   22.2059 H   0  0  0  0  0  0
  -23.7190  -37.6503   23.6650 H   0  0  0  0  0  0
  -26.0138  -31.6110   20.5801 H   0  0  0  0  0  0
  -26.8118  -30.9184   21.9670 H   0  0  0  0  0  0
  -28.1108  -29.1690   21.1142 H   0  0  0  0  0  0
  -26.0931  -25.9638   19.0580 H   0  0  0  0  0  0
  -23.9674  -27.2428   19.1234 H   0  0  0  0  0  0
  -23.7001  -30.5856   19.4087 H   0  0  0  0  0  0
  -22.7280  -29.2278   19.8906 H   0  0  0  0  0  0
  -25.1253  -36.2040   25.0862 H   0  0  0  0  0  0
  -20.9940  -28.3225   24.1473 H   0  0  0  0  0  0
  -20.5659  -26.2273   23.3620 H   0  0  0  0  0  0
  -21.6597  -26.7446   22.1234 H   0  0  0  0  0  0
  -19.6866  -25.6324   21.1231 H   0  0  0  0  0  0
  -19.6627  -27.3230   20.6788 H   0  0  0  0  0  0
  -17.4159  -26.6752   21.4031 H   0  0  0  0  0  0
  -18.0234  -26.0034   22.9014 H   0  0  0  0  0  0
  -19.7914  -30.7226   24.2377 H   0  0  0  0  0  0
  -17.5012  -31.6293   24.5144 H   0  0  0  0  0  0
  -15.5344  -30.3038   23.7614 H   0  0  0  0  0  0
  -15.8650  -28.0808   22.7164 H   0  0  0  0  0  0
  -24.5961  -30.6885   25.7775 H   0  0  0  0  0  0
  -24.8768  -32.2680   26.4962 H   0  0  0  0  0  0
  -25.8059  -30.8760   27.0242 H   0  0  0  0  0  0
  -26.2912  -29.6763   24.1245 H   0  0  0  0  0  0
  -27.4322  -29.7412   25.4509 H   0  0  0  0  0  0
  -27.8615  -30.4519   23.9129 H   0  0  0  0  0  0
  -27.2799  -33.3655   26.2038 H   0  0  0  0  0  0
  -28.3865  -32.6754   25.0276 H   0  0  0  0  0  0
  -28.0742  -31.8426   26.5407 H   0  0  0  0  0  0
  -28.2598  -38.0100   24.7586 H   0  0  0  0  0  0
  -28.1076  -36.2633   24.6257 H   0  0  0  0  0  0
  -27.2285  -37.1412   25.8884 H   0  0  0  0  0  0
  -20.9269  -29.8718   21.6959 H   0  0  0  0  0  0
  -26.0189  -38.2897   24.1489 H   0  0  0  0  0  0
  -26.1761  -21.5908   20.1974 H   0  0  0  0  0  0
  -29.3171  -20.6547   23.0044 H   0  0  0  0  0  0
  -29.7610  -17.1000   16.8885 H   0  0  0  0  0  0
  -28.5600  -16.0487   17.6218 H   0  0  0  0  0  0
  -28.1025  -18.4189   18.0837 H   0  0  0  0  0  0
  -29.6712  -18.6362   18.8177 H   0  0  0  0  0  0
  -31.3075  -16.7263   18.8209 H   0  0  0  0  0  0
  -30.8950  -15.2416   18.0117 H   0  0  0  0  0  0
  -28.9264  -16.1049   21.6603 H   0  0  0  0  0  0
  -30.2107  -17.1582   21.1368 H   0  0  0  0  0  0
  -27.4529  -16.8312   19.8780 H   0  0  0  0  0  0
  -24.8564  -19.5105   19.4704 H   0  0  0  0  0  0
  -25.7389  -18.0370   19.1518 H   0  0  0  0  0  0
  -26.1214  -19.5173   18.2533 H   0  0  0  0  0  0
  -27.0779  -22.8770   23.9198 H   0  0  0  0  0  0
  -28.0844  -24.2622   23.5668 H   0  0  0  0  0  0
  -28.8303  -22.7146   23.9291 H   0  0  0  0  0  0
  -30.0035  -25.3664   18.5632 H   0  0  0  0  0  0
  -30.3187  -23.6510   18.7232 H   0  0  0  0  0  0
  -31.0554  -24.7884   19.8508 H   0  0  0  0  0  0
  -29.4576  -26.0367   21.6016 H   0  0  0  0  0  0
  -27.7519  -25.6569   21.6117 H   0  0  0  0  0  0
  -27.0427  -23.3203   21.5155 H   0  0  0  0  0  0
  -28.0621  -24.1952   19.5947 H   0  0  0  0  0  0
  -29.4526  -22.5444   20.6271 H   0  0  0  0  0  0
  -29.8677  -23.5388   21.8326 H   0  0  0  0  0  0
  1 25  1  0  0  0
  1 30  2  0  0  0
  1 88  1  0  0  0
  2  3  1  0  0  0
  2 25  1  0  0  0
  2 90  1  0  0  0
  2 91  1  0  0  0
  3  4  1  0  0  0
  3 92  1  0  0  0
  3 93  1  0  0  0
  4  5  1  0  0  0
  4 94  1  0  0  0
  4 95  1  0  0  0
  5  6  1  0  0  0
  5 26  1  0  0  0
  5 96  1  0  0  0
  6 25  1  0  0  0
  6 97  1  0  0  0
  6 98  1  0  0  0
  7  8  2  0  0  0
  7 26  1  0  0  0
  7 29  1  0  0  0
  8  9  1  0  0  0
  8 22  1  0  0  0
  9 10  1  0  0  0
  9 27  2  0  0  0
 10 11  2  0  0  0
 10 15  1  0  0  0
 11 12  1  0  0  0
 11 99  1  0  0  0
 12 13  2  0  0  0
 12100  1  0  0  0
 13 14  1  0  0  0
 13 31  1  0  0  0
 14 15  2  0  0  0
 14101  1  0  0  0
 15102  1  0  0  0
 16 17  2  0  0  0
 16 21  1  0  0  0
 16 31  1  0  0  0
 17 18  1  0  0  0
 17103  1  0  0  0
 18 19  2  0  0  0
 18104  1  0  0  0
 19 20  1  0  0  0
 19 24  1  0  0  0
 20 21  2  0  0  0
 20105  1  0  0  0
 21 23  1  0  0  0
 22 28  1  0  0  0
 22 32  2  0  0  0
 26 27  1  0  0  0
 28106  1  0  0  0
 28107  1  0  0  0
 29108  1  0  0  0
 29109  1  0  0  0
 33 34  1  0  0  0
 33 66  1  0  0  0
 33 70  2  0  0  0
 34 36  1  0  0  0
 34 59  1  0  0  0
 34110  1  0  0  0
 35 44  2  0  0  0
 35 45  1  0  0  0
 35 68  1  0  0  0
 36 56  1  0  0  0
 36111  1  0  0  0
 37 39  1  0  0  0
 37 47  1  0  0  0
 37 66  1  0  0  0
 37112  1  0  0  0
 38 43  2  0  0  0
 38 46  1  0  0  0
 38 47  1  0  0  0
 39 64  1  0  0  0
 39 67  2  0  0  0
 40 52  1  0  0  0
 40 53  2  0  0  0
 40 58  1  0  0  0
 41113  1  0  0  0
 41114  1  0  0  0
 41115  1  0  0  0
 41 48  1  0  0  0
 42 43  1  0  0  0
 42 66  1  0  0  0
 42116  1  0  0  0
 42117  1  0  0  0
 43 44  1  0  0  0
 44118  1  0  0  0
 45 46  2  0  0  0
 45119  1  0  0  0
 46120  1  0  0  0
 47121  1  0  0  0
 47122  1  0  0  0
 48 56  1  0  0  0
 48 65  1  0  0  0
 48123  1  0  0  0
 49 50  1  0  0  0
 49 53  1  0  0  0
 49 64  1  0  0  0
 49124  1  0  0  0
 50 51  1  0  0  0
 50125  1  0  0  0
 50126  1  0  0  0
 51 52  1  0  0  0
 51127  1  0  0  0
 51128  1  0  0  0
 52129  1  0  0  0
 52130  1  0  0  0
 53 54  1  0  0  0
 54 55  2  0  0  0
 54131  1  0  0  0
 55 57  1  0  0  0
 55132  1  0  0  0
 56 69  2  0  0  0
 57 58  2  0  0  0
 57133  1  0  0  0
 58134  1  0  0  0
 59 60  1  0  0  0
 59 61  1  0  0  0
 59 62  1  0  0  0
 60135  1  0  0  0
 60136  1  0  0  0
 60137  1  0  0  0
 61138  1  0  0  0
 61139  1  0  0  0
 61140  1  0  0  0
 62141  1  0  0  0
 62142  1  0  0  0
 62143  1  0  0  0
 63 65  1  0  0  0
 63144  1  0  0  0
 63145  1  0  0  0
 63146  1  0  0  0
 64147  1  0  0  0
 65148  1  0  0  0
 68 84  1  0  0  0
 71 73  2  0  0  0
 71 74  1  0  0  0
 71149  1  0  0  0
 72 73  1  0  0  0
 72 87  2  0  0  0
 72150  1  0  0  0
 73 85  1  0  0  0
 74 75  2  0  0  0
 74 81  1  0  0  0
 75 87  1  0  0  0
 75 80  1  0  0  0
 76 77  1  0  0  0
 76 78  1  0  0  0
 76151  1  0  0  0
 76152  1  0  0  0
 77 80  1  0  0  0
 77153  1  0  0  0
 77154  1  0  0  0
 78 88  1  0  0  0
 78155  1  0  0  0
 78156  1  0  0  0
 79 80  1  0  0  0
 79 88  1  0  0  0
 79157  1  0  0  0
 79158  1  0  0  0
 80159  1  0  0  0
 81160  1  0  0  0
 81161  1  0  0  0
 81162  1  0  0  0
 82163  1  0  0  0
 82164  1  0  0  0
 82165  1  0  0  0
 82 85  1  0  0  0
 83166  1  0  0  0
 83167  1  0  0  0
 83168  1  0  0  0
 83 86  1  0  0  0
 84 86  1  0  0  0
 84169  1  0  0  0
 84170  1  0  0  0
 85 89  1  0  0  0
 85171  1  0  0  0
 86 89  1  0  0  0
 86172  1  0  0  0
 89173  1  0  0  0
 89174  1  0  0  0
M  CHG  1  89   1
M  ISO  4   1 100  68 101  84 101  88 100
M  END
> <chiral flag>
0

> <version>
0

> <s_m_source_file>
/data/baiqing/PycharmProjects/Reinvent-master-3.2/result/LINK_invent/BTK/process_docking_weight1_custom_sum_contain_oxygen_bond_distance_aromatic_linkinvent_7_9_3/rearranged_h_0155.sdf

> <i_m_source_file_index>
52

> <r_mmod_Potential_Energy-OPLS-2005>
21.8299045562744

> <r_mmod_Stretch_Energy-OPLS-2005>
37.566234588623

> <r_mmod_Bend_Energy-OPLS-2005>
104.935607910156

> <r_mmod_Torsional_Energy-OPLS-2005>
384.783569335938

> <r_mmod_Improper_Torsional_Energy-OPLS-2005>
32.192211151123

> <r_mmod_Van_der_Waal_Energy-OPLS-2005>
152.390625

> <r_mmod_Electrostatic_Energy-OPLS-2005>
-292.556823730469

> <r_mmod_Solvation_Energy-OPLS-2005>
-425.190307617188

> <b_mmod_Minimization_Converged-OPLS-2005>
0

> <r_mmod_RMS_Derivative-OPLS-2005>
4.42850399017334

$$$$
52
                    3D
 Structure written by MMmdl.
178189  0  0  1  0            999 V2000
  -30.6668  -14.5882   20.4968 C   0  0  0  0  0  0
  -30.4282  -12.3587   19.4469 C   0  0  0  0  0  0
  -29.5024  -12.4896   18.2192 C   0  0  0  0  0  0
  -28.0256  -12.3428   18.6358 C   0  0  0  0  0  0
  -27.6535  -13.2158   19.8647 C   0  0  2  0  0  0
  -28.7004  -13.0775   20.9922 C   0  0  0  0  0  0
  -25.2567  -13.8171   20.5713 C   0  0  0  0  0  0
  -24.1828  -13.0438   20.9185 C   0  0  0  0  0  0
  -24.6395  -11.6907   20.8740 C   0  0  0  0  0  0
  -23.9065  -10.4288   21.0403 C   0  0  0  0  0  0
  -24.3615   -9.4205   21.9184 C   0  0  0  0  0  0
  -23.6293   -8.2240   22.0758 C   0  0  0  0  0  0
  -22.4275   -8.0274   21.3547 C   0  0  0  0  0  0
  -21.9907   -9.0248   20.4649 C   0  0  0  0  0  0
  -22.7234  -10.2127   20.3058 C   0  0  0  0  0  0
  -21.6853   -6.0729   22.5283 C   0  0  0  0  0  0
  -21.4011   -6.5638   23.8213 C   0  0  0  0  0  0
  -21.3660   -5.6795   24.9183 C   0  0  0  0  0  0
  -21.6050   -4.3060   24.7233 C   0  0  0  0  0  0
  -21.8820   -3.8145   23.4357 C   0  0  0  0  0  0
  -21.9190   -4.6958   22.3409 C   0  0  0  0  0  0
  -22.7847  -13.5225   21.1847 C   0  0  0  0  0  0
  -22.1660   -4.2139   21.0989 F   0  0  0  0  0  0
  -21.5633   -3.4547   25.7749 F   0  0  0  0  0  0
  -30.0142  -13.3896   20.4160 N   0  0  0  0  0  0
  -26.2999  -12.9355   20.3359 N   0  0  0  0  0  0
  -25.9328  -11.6507   20.5779 N   0  0  0  0  0  0
  -22.0495  -12.8216   22.0404 N   0  0  0  0  0  0
  -25.4297  -15.1893   20.4151 N   0  0  0  0  0  0
  -31.8487  -14.7013   20.1574 O   0  0  0  0  0  0
  -21.6645   -6.8871   21.4243 O   0  0  0  0  0  0
  -22.3523  -14.5530   20.6699 O   0  0  0  0  0  0
  -24.6212  -31.8618   23.2038 C   0  0  0  0  0  0
  -25.9079  -32.4787   23.8349 C   0  0  1  0  0  0
  -27.2272  -27.3654   20.1141 C   0  0  0  0  0  0
  -25.5907  -33.8589   24.2272 N   0  0  0  0  0  0
  -23.4122  -30.4853   21.5455 C   0  0  2  0  0  0
  -24.8596  -28.9452   20.1088 C   0  0  0  0  0  0
  -22.7436  -29.4642   22.4952 C   0  0  0  0  0  0
  -18.0272  -28.1388   22.8476 C   0  0  0  0  0  0
  -24.1494  -36.7314   23.2639 C   0  0  0  0  0  0
  -25.9476  -30.8087   21.3658 C   0  0  0  0  0  0
  -26.0249  -29.4402   20.7080 C   0  0  0  0  0  0
  -27.2144  -28.6624   20.6988 C   0  0  0  0  0  0
  -26.0444  -26.9095   19.4913 C   0  0  0  0  0  0
  -24.8692  -27.6841   19.4909 C   0  0  0  0  0  0
  -23.6231  -29.8173   20.1602 C   0  0  0  0  0  0
  -25.4117  -36.3090   24.0324 C   0  0  1  0  0  0
  -20.5863  -28.3690   23.1289 C   0  0  2  0  0  0
  -20.6768  -26.9420   22.5413 C   0  0  0  0  0  0
  -19.5752  -26.6391   21.5206 C   0  0  0  0  0  0
  -18.1925  -26.7930   22.1615 C   0  0  0  0  0  0
  -19.1522  -28.8854   23.2874 C   0  0  0  0  0  0
  -18.9453  -30.1455   23.8893 C   0  0  0  0  0  0
  -17.6458  -30.6592   24.0568 C   0  0  0  0  0  0
  -25.9049  -34.9458   23.5098 C   0  0  0  0  0  0
  -16.5348  -29.9099   23.6331 C   0  0  0  0  0  0
  -16.7261  -28.6518   23.0340 C   0  0  0  0  0  0
  -26.4482  -31.6588   25.0705 C   0  0  0  0  0  0
  -25.3733  -31.3715   26.1440 C   0  0  0  0  0  0
  -27.0330  -30.3018   24.6143 C   0  0  0  0  0  0
  -27.6030  -32.4330   25.7481 C   0  0  0  0  0  0
  -27.5581  -37.1806   24.8456 C   0  0  0  0  0  0
  -21.4155  -29.3046   22.3688 N   0  0  0  0  0  0
  -26.4295  -37.3780   23.9398 N   0  0  0  0  0  0
  -24.6789  -31.0670   22.0962 N   0  0  0  0  0  0
  -23.4177  -28.8182   23.3020 O   0  0  0  0  0  0
  -28.3561  -26.5512   20.1605 O   0  0  0  0  0  0
  -26.5622  -34.8922   22.4668 O   0  0  0  0  0  0
  -23.5391  -32.1402   23.7396 O   0  0  0  0  0  0
  -33.0333  -22.7808   19.2753 C   0  0  0  0  0  0
  -32.1483  -20.5865   19.7037 C   0  0  0  0  0  0
  -33.2223  -21.4004   19.3253 C   0  0  0  0  0  0
  -30.6674  -22.5380   19.9644 C   0  0  0  0  0  0
  -31.7886  -23.3560   19.5852 C   0  0  0  0  0  0
  -30.8634  -21.0954   20.0403 C   0  0  0  0  0  0
  -35.0428  -18.7100   19.2798 C   0  0  0  0  0  0
  -35.3226  -19.9899   20.0727 C   0  0  0  0  0  0
  -34.6951  -19.5818   18.0695 C   0  0  0  0  0  0
  -29.2380  -17.9925   21.5785 C   0  0  0  0  0  0
  -30.2955  -17.9324   19.3080 C   0  0  0  0  0  0
  -29.1852  -24.4234   21.2911 C   0  0  0  0  0  0
  -28.5204  -24.1198   19.2821 C   0  0  0  0  0  0
  -29.6858  -16.4994   21.7927 C   0  0  0  0  0  0
  -29.6535  -16.5066   19.3217 C   0  0  0  0  0  0
  -34.5852  -20.8029   18.9974 C   0  0  0  0  0  0
  -29.3081  -23.2329   20.2953 C   0  0  1  0  0  0
  -30.1862  -18.7550   20.6275 C   0  0  0  0  0  0
  -28.1323  -25.1216   20.4005 C   0  0  2  0  0  0
  -31.7944  -24.8816   19.5166 C   0  0  0  0  0  0
  -29.8762  -15.7098   20.5507 N   0  0  0  0  0  0
  -29.8635  -20.1843   20.4335 O   0  0  0  0  0  0
  -31.4718  -12.4621   19.1452 H   0  0  0  0  0  0
  -30.3416  -11.3654   19.8911 H   0  0  0  0  0  0
  -29.7557  -11.7338   17.4747 H   0  0  0  0  0  0
  -29.6574  -13.4568   17.7390 H   0  0  0  0  0  0
  -27.8567  -11.2904   18.8686 H   0  0  0  0  0  0
  -27.3707  -12.5765   17.7956 H   0  0  0  0  0  0
  -27.6698  -14.2504   19.5239 H   0  0  0  0  0  0
  -28.6993  -12.0658   21.4008 H   0  0  0  0  0  0
  -28.4638  -13.7411   21.8241 H   0  0  0  0  0  0
  -25.2760   -9.5692   22.4756 H   0  0  0  0  0  0
  -24.0008   -7.4635   22.7481 H   0  0  0  0  0  0
  -21.0839   -8.8764   19.8952 H   0  0  0  0  0  0
  -22.3688  -10.9670   19.6168 H   0  0  0  0  0  0
  -21.2000   -7.6144   23.9713 H   0  0  0  0  0  0
  -21.1483   -6.0530   25.9083 H   0  0  0  0  0  0
  -22.0596   -2.7603   23.2870 H   0  0  0  0  0  0
  -22.4114  -11.9876   22.4795 H   0  0  0  0  0  0
  -21.1113  -13.1239   22.2616 H   0  0  0  0  0  0
  -24.6691  -15.8496   20.5345 H   0  0  0  0  0  0
  -26.2962  -15.6287   20.1329 H   0  0  0  0  0  0
  -26.7144  -32.5475   23.1098 H   0  0  0  0  0  0
  -25.0026  -33.9740   25.0396 H   0  0  0  0  0  0
  -22.7043  -31.3042   21.4035 H   0  0  0  0  0  0
  -23.3746  -35.9657   23.3303 H   0  0  0  0  0  0
  -24.3577  -36.8942   22.2052 H   0  0  0  0  0  0
  -23.7274  -37.6525   23.6670 H   0  0  0  0  0  0
  -26.0717  -31.5751   20.5998 H   0  0  0  0  0  0
  -26.8299  -30.8565   21.9922 H   0  0  0  0  0  0
  -28.1110  -29.0391   21.1713 H   0  0  0  0  0  0
  -26.0182  -25.9428   19.0083 H   0  0  0  0  0  0
  -23.9772  -27.3004   19.0155 H   0  0  0  0  0  0
  -23.7326  -30.5928   19.4006 H   0  0  0  0  0  0
  -22.7453  -29.2399   19.8645 H   0  0  0  0  0  0
  -25.1305  -36.1936   25.0819 H   0  0  0  0  0  0
  -20.9947  -28.3271   24.1413 H   0  0  0  0  0  0
  -20.5668  -26.2304   23.3607 H   0  0  0  0  0  0
  -21.6640  -26.7462   22.1212 H   0  0  0  0  0  0
  -19.6925  -25.6302   21.1239 H   0  0  0  0  0  0
  -19.6697  -27.3195   20.6728 H   0  0  0  0  0  0
  -17.4199  -26.6655   21.4021 H   0  0  0  0  0  0
  -18.0342  -26.0076   22.9019 H   0  0  0  0  0  0
  -19.7935  -30.7265   24.2264 H   0  0  0  0  0  0
  -17.5024  -31.6269   24.5177 H   0  0  0  0  0  0
  -15.5351  -30.3008   23.7671 H   0  0  0  0  0  0
  -15.8651  -28.0852   22.7045 H   0  0  0  0  0  0
  -24.5898  -30.7073   25.7776 H   0  0  0  0  0  0
  -24.8935  -32.2883   26.4877 H   0  0  0  0  0  0
  -25.8069  -30.8886   27.0205 H   0  0  0  0  0  0
  -26.2898  -29.6755   24.1194 H   0  0  0  0  0  0
  -27.4070  -29.7281   25.4633 H   0  0  0  0  0  0
  -27.8741  -30.4310   23.9327 H   0  0  0  0  0  0
  -27.2619  -33.3623   26.2054 H   0  0  0  0  0  0
  -28.3841  -32.6907   25.0318 H   0  0  0  0  0  0
  -28.0695  -31.8467   26.5407 H   0  0  0  0  0  0
  -28.2592  -38.0108   24.7508 H   0  0  0  0  0  0
  -28.1085  -36.2641   24.6280 H   0  0  0  0  0  0
  -27.2290  -37.1449   25.8855 H   0  0  0  0  0  0
  -20.9327  -29.8771   21.6906 H   0  0  0  0  0  0
  -26.0178  -38.2859   24.1390 H   0  0  0  0  0  0
  -33.8665  -23.4153   19.0032 H   0  0  0  0  0  0
  -32.3767  -19.5385   19.7304 H   0  0  0  0  0  0
  -34.1889  -18.1483   19.6615 H   0  0  0  0  0  0
  -35.9125  -18.0672   19.1392 H   0  0  0  0  0  0
  -36.3874  -20.2244   20.1177 H   0  0  0  0  0  0
  -34.8651  -20.0223   21.0627 H   0  0  0  0  0  0
  -33.7725  -19.3081   17.5557 H   0  0  0  0  0  0
  -35.5291  -19.6634   17.3703 H   0  0  0  0  0  0
  -29.2092  -18.5026   22.5426 H   0  0  0  0  0  0
  -28.2189  -18.0264   21.1908 H   0  0  0  0  0  0
  -29.8465  -18.5005   18.4920 H   0  0  0  0  0  0
  -31.3448  -17.8181   19.0365 H   0  0  0  0  0  0
  -30.0819  -25.0240   21.4162 H   0  0  0  0  0  0
  -28.8082  -24.1296   22.2712 H   0  0  0  0  0  0
  -27.6652  -23.6083   18.8402 H   0  0  0  0  0  0
  -29.1204  -24.5599   18.4896 H   0  0  0  0  0  0
  -28.9524  -15.9916   22.4197 H   0  0  0  0  0  0
  -30.6218  -16.4915   22.3554 H   0  0  0  0  0  0
  -29.9891  -15.9553   18.4407 H   0  0  0  0  0  0
  -28.5746  -16.6038   19.1974 H   0  0  0  0  0  0
  -35.2369  -21.5963   18.6274 H   0  0  0  0  0  0
  -28.6288  -22.4508   20.6378 H   0  0  0  0  0  0
  -31.1349  -18.6913   21.1604 H   0  0  0  0  0  0
  -27.1398  -24.9005   20.7993 H   0  0  0  0  0  0
  -32.4763  -25.2233   18.7373 H   0  0  0  0  0  0
  -32.1588  -25.2933   20.4577 H   0  0  0  0  0  0
  -30.8459  -25.3515   19.2946 H   0  0  0  0  0  0
  1 25  1  0  0  0
  1 30  2  0  0  0
  1 91  1  0  0  0
  2  3  1  0  0  0
  2 25  1  0  0  0
  2 93  1  0  0  0
  2 94  1  0  0  0
  3  4  1  0  0  0
  3 95  1  0  0  0
  3 96  1  0  0  0
  4  5  1  0  0  0
  4 97  1  0  0  0
  4 98  1  0  0  0
  5  6  1  0  0  0
  5 26  1  0  0  0
  5 99  1  0  0  0
  6 25  1  0  0  0
  6100  1  0  0  0
  6101  1  0  0  0
  7  8  2  0  0  0
  7 26  1  0  0  0
  7 29  1  0  0  0
  8  9  1  0  0  0
  8 22  1  0  0  0
  9 10  1  0  0  0
  9 27  2  0  0  0
 10 11  2  0  0  0
 10 15  1  0  0  0
 11 12  1  0  0  0
 11102  1  0  0  0
 12 13  2  0  0  0
 12103  1  0  0  0
 13 14  1  0  0  0
 13 31  1  0  0  0
 14 15  2  0  0  0
 14104  1  0  0  0
 15105  1  0  0  0
 16 17  2  0  0  0
 16 21  1  0  0  0
 16 31  1  0  0  0
 17 18  1  0  0  0
 17106  1  0  0  0
 18 19  2  0  0  0
 18107  1  0  0  0
 19 20  1  0  0  0
 19 24  1  0  0  0
 20 21  2  0  0  0
 20108  1  0  0  0
 21 23  1  0  0  0
 22 28  1  0  0  0
 22 32  2  0  0  0
 26 27  1  0  0  0
 28109  1  0  0  0
 28110  1  0  0  0
 29111  1  0  0  0
 29112  1  0  0  0
 33 34  1  0  0  0
 33 66  1  0  0  0
 33 70  2  0  0  0
 34 36  1  0  0  0
 34 59  1  0  0  0
 34113  1  0  0  0
 35 44  2  0  0  0
 35 45  1  0  0  0
 35 68  1  0  0  0
 36 56  1  0  0  0
 36114  1  0  0  0
 37 39  1  0  0  0
 37 47  1  0  0  0
 37 66  1  0  0  0
 37115  1  0  0  0
 38 43  2  0  0  0
 38 46  1  0  0  0
 38 47  1  0  0  0
 39 64  1  0  0  0
 39 67  2  0  0  0
 40 52  1  0  0  0
 40 53  2  0  0  0
 40 58  1  0  0  0
 41116  1  0  0  0
 41117  1  0  0  0
 41118  1  0  0  0
 41 48  1  0  0  0
 42 43  1  0  0  0
 42 66  1  0  0  0
 42119  1  0  0  0
 42120  1  0  0  0
 43 44  1  0  0  0
 44121  1  0  0  0
 45 46  2  0  0  0
 45122  1  0  0  0
 46123  1  0  0  0
 47124  1  0  0  0
 47125  1  0  0  0
 48 56  1  0  0  0
 48 65  1  0  0  0
 48126  1  0  0  0
 49 50  1  0  0  0
 49 53  1  0  0  0
 49 64  1  0  0  0
 49127  1  0  0  0
 50 51  1  0  0  0
 50128  1  0  0  0
 50129  1  0  0  0
 51 52  1  0  0  0
 51130  1  0  0  0
 51131  1  0  0  0
 52132  1  0  0  0
 52133  1  0  0  0
 53 54  1  0  0  0
 54 55  2  0  0  0
 54134  1  0  0  0
 55 57  1  0  0  0
 55135  1  0  0  0
 56 69  2  0  0  0
 57 58  2  0  0  0
 57136  1  0  0  0
 58137  1  0  0  0
 59 60  1  0  0  0
 59 61  1  0  0  0
 59 62  1  0  0  0
 60138  1  0  0  0
 60139  1  0  0  0
 60140  1  0  0  0
 61141  1  0  0  0
 61142  1  0  0  0
 61143  1  0  0  0
 62144  1  0  0  0
 62145  1  0  0  0
 62146  1  0  0  0
 63 65  1  0  0  0
 63147  1  0  0  0
 63148  1  0  0  0
 63149  1  0  0  0
 64150  1  0  0  0
 65151  1  0  0  0
 68 89  1  0  0  0
 71 73  2  0  0  0
 71 75  1  0  0  0
 71152  1  0  0  0
 72 73  1  0  0  0
 72 76  2  0  0  0
 72153  1  0  0  0
 73 86  1  0  0  0
 74 75  2  0  0  0
 74 76  1  0  0  0
 74 87  1  0  0  0
 75 90  1  0  0  0
 76 92  1  0  0  0
 77 78  1  0  0  0
 77 79  1  0  0  0
 77154  1  0  0  0
 77155  1  0  0  0
 78 86  1  0  0  0
 78156  1  0  0  0
 78157  1  0  0  0
 79 86  1  0  0  0
 79158  1  0  0  0
 79159  1  0  0  0
 80 84  1  0  0  0
 80 88  1  0  0  0
 80160  1  0  0  0
 80161  1  0  0  0
 81 85  1  0  0  0
 81 88  1  0  0  0
 81162  1  0  0  0
 81163  1  0  0  0
 82 87  1  0  0  0
 82 89  1  0  0  0
 82164  1  0  0  0
 82165  1  0  0  0
 83 87  1  0  0  0
 83 89  1  0  0  0
 83166  1  0  0  0
 83167  1  0  0  0
 84 91  1  0  0  0
 84168  1  0  0  0
 84169  1  0  0  0
 85 91  1  0  0  0
 85170  1  0  0  0
 85171  1  0  0  0
 86172  1  0  0  0
 87173  1  0  0  0
 88 92  1  0  0  0
 88174  1  0  0  0
 89175  1  0  0  0
 90176  1  0  0  0
 90177  1  0  0  0
 90178  1  0  0  0
M  ISO  4   1 100  68 101  89 101  91 100
M  END
> <chiral flag>
0

> <version>
0

> <s_m_source_file>
/data/baiqing/PycharmProjects/Reinvent-master-3.2/result/LINK_invent/BTK/process_docking_weight1_custom_sum_contain_oxygen_bond_distance_aromatic_linkinvent_7_9_3/rearranged_h_0155.sdf

> <i_m_source_file_index>
53

> <r_mmod_Potential_Energy-OPLS-2005>
361.436431884766

> <r_mmod_Stretch_Energy-OPLS-2005>
76.4916229248047

> <r_mmod_Bend_Energy-OPLS-2005>
158.0966796875

> <r_mmod_Torsional_Energy-OPLS-2005>
420.783630371094

> <r_mmod_Improper_Torsional_Energy-OPLS-2005>
13.3891553878784

> <r_mmod_Van_der_Waal_Energy-OPLS-2005>
163.550750732422

> <r_mmod_Electrostatic_Energy-OPLS-2005>
-310.698760986328

> <r_mmod_Solvation_Energy-OPLS-2005>
-194.889099121094

> <b_mmod_Minimization_Converged-OPLS-2005>
0

> <r_mmod_RMS_Derivative-OPLS-2005>
1.0667005777359

$$$$
53
                    3D
 Structure written by MMmdl.
176185  0  0  1  0            999 V2000
  -30.7731  -14.4575   20.6111 C   0  0  0  0  0  0
  -30.4152  -12.3148   19.4336 C   0  0  0  0  0  0
  -29.4925  -12.4995   18.2132 C   0  0  0  0  0  0
  -28.0188  -12.3370   18.6261 C   0  0  0  0  0  0
  -27.6564  -13.1948   19.8638 C   0  0  2  0  0  0
  -28.7019  -13.0371   20.9973 C   0  0  0  0  0  0
  -25.2443  -13.7965   20.5518 C   0  0  0  0  0  0
  -24.1768  -13.0284   20.9194 C   0  0  0  0  0  0
  -24.6379  -11.6795   20.8789 C   0  0  0  0  0  0
  -23.9051  -10.4208   21.0439 C   0  0  0  0  0  0
  -24.3600   -9.4133   21.9218 C   0  0  0  0  0  0
  -23.6267   -8.2178   22.0769 C   0  0  0  0  0  0
  -22.4254   -8.0237   21.3544 C   0  0  0  0  0  0
  -21.9896   -9.0212   20.4650 C   0  0  0  0  0  0
  -22.7231  -10.2082   20.3072 C   0  0  0  0  0  0
  -21.6834   -6.0714   22.5281 C   0  0  0  0  0  0
  -21.3996   -6.5625   23.8212 C   0  0  0  0  0  0
  -21.3657   -5.6783   24.9180 C   0  0  0  0  0  0
  -21.6047   -4.3046   24.7234 C   0  0  0  0  0  0
  -21.8820   -3.8132   23.4357 C   0  0  0  0  0  0
  -21.9183   -4.6943   22.3408 C   0  0  0  0  0  0
  -22.7811  -13.5137   21.1851 C   0  0  0  0  0  0
  -22.1657   -4.2131   21.0986 F   0  0  0  0  0  0
  -21.5638   -3.4534   25.7750 F   0  0  0  0  0  0
  -30.0422  -13.3161   20.4507 N   0  0  0  0  0  0
  -26.2976  -12.9216   20.3311 N   0  0  0  0  0  0
  -25.9317  -11.6395   20.5831 N   0  0  0  0  0  0
  -22.0441  -12.8162   22.0423 N   0  0  0  0  0  0
  -25.3787  -15.1597   20.3571 N   0  0  0  0  0  0
  -31.8585  -14.6246   20.0518 O   0  0  0  0  0  0
  -21.6610   -6.8846   21.4238 O   0  0  0  0  0  0
  -22.3534  -14.5470   20.6715 O   0  0  0  0  0  0
  -24.6106  -31.8716   23.2134 C   0  0  0  0  0  0
  -25.9016  -32.4845   23.8424 C   0  0  1  0  0  0
  -27.2543  -27.4709   20.1047 C   0  0  0  0  0  0
  -25.5892  -33.8643   24.2361 N   0  0  0  0  0  0
  -23.3988  -30.4918   21.5524 C   0  0  2  0  0  0
  -24.8527  -28.9591   20.1217 C   0  0  0  0  0  0
  -22.7402  -29.4649   22.5011 C   0  0  0  0  0  0
  -18.0267  -28.1362   22.8488 C   0  0  0  0  0  0
  -24.1491  -36.7325   23.2641 C   0  0  0  0  0  0
  -25.9224  -30.8464   21.3631 C   0  0  0  0  0  0
  -26.0061  -29.4774   20.7256 C   0  0  0  0  0  0
  -27.2084  -28.7386   20.7265 C   0  0  0  0  0  0
  -26.0913  -26.9639   19.4895 C   0  0  0  0  0  0
  -24.8877  -27.6957   19.5040 C   0  0  0  0  0  0
  -23.6110  -29.8210   20.1673 C   0  0  0  0  0  0
  -25.4107  -36.3131   24.0348 C   0  0  1  0  0  0
  -20.5856  -28.3646   23.1334 C   0  0  2  0  0  0
  -20.6767  -26.9389   22.5419 C   0  0  0  0  0  0
  -19.5745  -26.6375   21.5213 C   0  0  0  0  0  0
  -18.1918  -26.7912   22.1616 C   0  0  0  0  0  0
  -19.1514  -28.8820   23.2908 C   0  0  0  0  0  0
  -18.9449  -30.1432   23.8914 C   0  0  0  0  0  0
  -17.6453  -30.6581   24.0553 C   0  0  0  0  0  0
  -25.9026  -34.9491   23.5149 C   0  0  0  0  0  0
  -16.5344  -29.9084   23.6312 C   0  0  0  0  0  0
  -16.7258  -28.6497   23.0337 C   0  0  0  0  0  0
  -26.4462  -31.6599   25.0718 C   0  0  0  0  0  0
  -25.3736  -31.3685   26.1471 C   0  0  0  0  0  0
  -27.0285  -30.3058   24.6020 C   0  0  0  0  0  0
  -27.6053  -32.4301   25.7474 C   0  0  0  0  0  0
  -27.5586  -37.1820   24.8467 C   0  0  0  0  0  0
  -21.4134  -29.3025   22.3762 N   0  0  0  0  0  0
  -26.4301  -37.3807   23.9409 N   0  0  0  0  0  0
  -24.6618  -31.0833   22.1025 N   0  0  0  0  0  0
  -23.4191  -28.8186   23.3038 O   0  0  0  0  0  0
  -28.4038  -26.7199   20.0213 O   0  0  0  0  0  0
  -26.5580  -34.8930   22.4704 O   0  0  0  0  0  0
  -23.5307  -32.1451   23.7539 O   0  0  0  0  0  0
  -30.2216  -19.2483   22.0072 C   0  0  0  0  0  0
  -29.3636  -20.3756   22.0872 C   0  0  0  0  0  0
  -28.0154  -20.2373   21.6810 C   0  0  0  0  0  0
  -29.7883  -18.0193   21.4417 C   0  0  0  0  0  0
  -28.4853  -17.9745   20.8791 C   0  0  0  0  0  0
  -27.5832  -19.0442   21.0765 C   0  0  0  0  0  0
  -27.0330  -21.3906   21.8328 C   0  0  0  0  0  0
  -29.8742  -21.7286   22.6146 C   0  0  0  0  0  0
  -27.5653  -22.5027   22.7347 C   0  0  0  0  0  0
  -28.0328  -16.8139   20.0262 C   0  0  0  0  0  0
  -27.5237  -25.9950   23.1269 C   0  0  0  0  0  0
  -29.7774  -24.4200   24.1094 C   0  0  0  0  0  0
  -25.4438  -18.2735   21.5767 C   0  0  0  0  0  0
  -30.7784  -16.8299   21.4151 C   0  0  0  0  0  0
  -29.1378  -26.4594   21.2226 C   0  0  0  0  0  0
  -28.4390  -25.3500   22.0562 C   0  0  1  0  0  0
  -29.4070  -24.2373   22.6190 C   0  0  2  0  0  0
  -30.2322  -15.4531   21.3407 N   0  0  0  0  0  0
  -28.9368  -22.8481   22.2959 N   0  3  1  0  0  0
  -26.2834  -18.9524   20.6511 O   0  0  0  0  0  0
  -31.4604  -12.3903   19.1278 H   0  0  0  0  0  0
  -30.3049  -11.3102   19.8453 H   0  0  0  0  0  0
  -29.7432  -11.7738   17.4379 H   0  0  0  0  0  0
  -29.6497  -13.4858   17.7734 H   0  0  0  0  0  0
  -27.8469  -11.2817   18.8420 H   0  0  0  0  0  0
  -27.3634  -12.5864   17.7903 H   0  0  0  0  0  0
  -27.6791  -14.2191   19.5080 H   0  0  0  0  0  0
  -28.6786  -12.0202   21.3916 H   0  0  0  0  0  0
  -28.4516  -13.6838   21.8386 H   0  0  0  0  0  0
  -25.2739   -9.5607   22.4803 H   0  0  0  0  0  0
  -23.9964   -7.4564   22.7488 H   0  0  0  0  0  0
  -21.0830   -8.8735   19.8952 H   0  0  0  0  0  0
  -22.3700  -10.9631   19.6185 H   0  0  0  0  0  0
  -21.1979   -7.6132   23.9709 H   0  0  0  0  0  0
  -21.1487   -6.0518   25.9084 H   0  0  0  0  0  0
  -22.0603   -2.7594   23.2863 H   0  0  0  0  0  0
  -22.4033  -11.9804   22.4793 H   0  0  0  0  0  0
  -21.1073  -13.1224   22.2635 H   0  0  0  0  0  0
  -24.5695  -15.7681   20.3891 H   0  0  0  0  0  0
  -26.1875  -15.5892   19.9325 H   0  0  0  0  0  0
  -26.7093  -32.5592   23.1207 H   0  0  0  0  0  0
  -25.0074  -33.9814   25.0528 H   0  0  0  0  0  0
  -22.6853  -31.3071   21.4125 H   0  0  0  0  0  0
  -23.3749  -35.9664   23.3317 H   0  0  0  0  0  0
  -24.3590  -36.8909   22.2053 H   0  0  0  0  0  0
  -23.7241  -37.6539   23.6632 H   0  0  0  0  0  0
  -26.0194  -31.6058   20.5858 H   0  0  0  0  0  0
  -26.8162  -30.9146   21.9712 H   0  0  0  0  0  0
  -28.0958  -29.1532   21.1835 H   0  0  0  0  0  0
  -26.1205  -26.0000   19.0013 H   0  0  0  0  0  0
  -24.0044  -27.2909   19.0283 H   0  0  0  0  0  0
  -23.7198  -30.5964   19.4076 H   0  0  0  0  0  0
  -22.7375  -29.2378   19.8700 H   0  0  0  0  0  0
  -25.1279  -36.2013   25.0840 H   0  0  0  0  0  0
  -20.9935  -28.3203   24.1455 H   0  0  0  0  0  0
  -20.5683  -26.2250   23.3604 H   0  0  0  0  0  0
  -21.6641  -26.7450   22.1201 H   0  0  0  0  0  0
  -19.6916  -25.6290   21.1236 H   0  0  0  0  0  0
  -19.6688  -27.3196   20.6755 H   0  0  0  0  0  0
  -17.4195  -26.6664   21.4008 H   0  0  0  0  0  0
  -18.0301  -26.0051   22.9006 H   0  0  0  0  0  0
  -19.7931  -30.7230   24.2296 H   0  0  0  0  0  0
  -17.5016  -31.6265   24.5154 H   0  0  0  0  0  0
  -15.5347  -30.2994   23.7632 H   0  0  0  0  0  0
  -15.8655  -28.0835   22.7033 H   0  0  0  0  0  0
  -24.5905  -30.7036   25.7803 H   0  0  0  0  0  0
  -24.8930  -32.2837   26.4942 H   0  0  0  0  0  0
  -25.8095  -30.8841   27.0212 H   0  0  0  0  0  0
  -26.2815  -29.6831   24.1083 H   0  0  0  0  0  0
  -27.4115  -29.7264   25.4423 H   0  0  0  0  0  0
  -27.8614  -30.4419   23.9117 H   0  0  0  0  0  0
  -27.2684  -33.3590   26.2093 H   0  0  0  0  0  0
  -28.3843  -32.6869   25.0278 H   0  0  0  0  0  0
  -28.0735  -31.8384   26.5353 H   0  0  0  0  0  0
  -28.2611  -38.0113   24.7512 H   0  0  0  0  0  0
  -28.1073  -36.2643   24.6295 H   0  0  0  0  0  0
  -27.2303  -37.1471   25.8871 H   0  0  0  0  0  0
  -20.9295  -29.8787   21.7023 H   0  0  0  0  0  0
  -26.0200  -38.2890   24.1400 H   0  0  0  0  0  0
  -31.2379  -19.3332   22.3689 H   0  0  0  0  0  0
  -26.0879  -21.0317   22.2383 H   0  0  0  0  0  0
  -26.8105  -21.7862   20.8407 H   0  0  0  0  0  0
  -30.8557  -21.9347   22.1852 H   0  0  0  0  0  0
  -30.0088  -21.6423   23.6932 H   0  0  0  0  0  0
  -27.5779  -22.1901   23.7797 H   0  0  0  0  0  0
  -26.8665  -23.3320   22.6702 H   0  0  0  0  0  0
  -28.8222  -16.4891   19.3484 H   0  0  0  0  0  0
  -27.1742  -17.0653   19.4038 H   0  0  0  0  0  0
  -27.7664  -16.0054   20.6997 H   0  0  0  0  0  0
  -26.7464  -26.6088   22.6716 H   0  0  0  0  0  0
  -28.0879  -26.6465   23.7947 H   0  0  0  0  0  0
  -27.0157  -25.2601   23.7489 H   0  0  0  0  0  0
  -30.1169  -25.4380   24.3006 H   0  0  0  0  0  0
  -30.5961  -23.7662   24.4073 H   0  0  0  0  0  0
  -28.9363  -24.2198   24.7730 H   0  0  0  0  0  0
  -25.3065  -18.8549   22.4882 H   0  0  0  0  0  0
  -25.8513  -17.3044   21.8643 H   0  0  0  0  0  0
  -24.4620  -18.1099   21.1325 H   0  0  0  0  0  0
  -31.3938  -16.8762   22.3146 H   0  0  0  0  0  0
  -31.4603  -17.0194   20.5840 H   0  0  0  0  0  0
  -30.1207  -26.1280   20.8888 H   0  0  0  0  0  0
  -29.3215  -27.3587   21.8120 H   0  0  0  0  0  0
  -27.7822  -24.8572   21.3391 H   0  0  0  0  0  0
  -30.3474  -24.3233   22.0745 H   0  0  0  0  0  0
  -29.3526  -15.2747   21.7996 H   0  0  0  0  0  0
  -28.8899  -22.8349   21.2878 H   0  0  0  0  0  0
  1 25  1  0  0  0
  1 30  2  0  0  0
  1 88  1  0  0  0
  2  3  1  0  0  0
  2 25  1  0  0  0
  2 91  1  0  0  0
  2 92  1  0  0  0
  3  4  1  0  0  0
  3 93  1  0  0  0
  3 94  1  0  0  0
  4  5  1  0  0  0
  4 95  1  0  0  0
  4 96  1  0  0  0
  5  6  1  0  0  0
  5 26  1  0  0  0
  5 97  1  0  0  0
  6 25  1  0  0  0
  6 98  1  0  0  0
  6 99  1  0  0  0
  7  8  2  0  0  0
  7 26  1  0  0  0
  7 29  1  0  0  0
  8  9  1  0  0  0
  8 22  1  0  0  0
  9 10  1  0  0  0
  9 27  2  0  0  0
 10 11  2  0  0  0
 10 15  1  0  0  0
 11 12  1  0  0  0
 11100  1  0  0  0
 12 13  2  0  0  0
 12101  1  0  0  0
 13 14  1  0  0  0
 13 31  1  0  0  0
 14 15  2  0  0  0
 14102  1  0  0  0
 15103  1  0  0  0
 16 17  2  0  0  0
 16 21  1  0  0  0
 16 31  1  0  0  0
 17 18  1  0  0  0
 17104  1  0  0  0
 18 19  2  0  0  0
 18105  1  0  0  0
 19 20  1  0  0  0
 19 24  1  0  0  0
 20 21  2  0  0  0
 20106  1  0  0  0
 21 23  1  0  0  0
 22 28  1  0  0  0
 22 32  2  0  0  0
 26 27  1  0  0  0
 28107  1  0  0  0
 28108  1  0  0  0
 29109  1  0  0  0
 29110  1  0  0  0
 33 34  1  0  0  0
 33 66  1  0  0  0
 33 70  2  0  0  0
 34 36  1  0  0  0
 34 59  1  0  0  0
 34111  1  0  0  0
 35 44  2  0  0  0
 35 45  1  0  0  0
 35 68  1  0  0  0
 36 56  1  0  0  0
 36112  1  0  0  0
 37 39  1  0  0  0
 37 47  1  0  0  0
 37 66  1  0  0  0
 37113  1  0  0  0
 38 43  2  0  0  0
 38 46  1  0  0  0
 38 47  1  0  0  0
 39 64  1  0  0  0
 39 67  2  0  0  0
 40 52  1  0  0  0
 40 53  2  0  0  0
 40 58  1  0  0  0
 41114  1  0  0  0
 41115  1  0  0  0
 41116  1  0  0  0
 41 48  1  0  0  0
 42 43  1  0  0  0
 42 66  1  0  0  0
 42117  1  0  0  0
 42118  1  0  0  0
 43 44  1  0  0  0
 44119  1  0  0  0
 45 46  2  0  0  0
 45120  1  0  0  0
 46121  1  0  0  0
 47122  1  0  0  0
 47123  1  0  0  0
 48 56  1  0  0  0
 48 65  1  0  0  0
 48124  1  0  0  0
 49 50  1  0  0  0
 49 53  1  0  0  0
 49 64  1  0  0  0
 49125  1  0  0  0
 50 51  1  0  0  0
 50126  1  0  0  0
 50127  1  0  0  0
 51 52  1  0  0  0
 51128  1  0  0  0
 51129  1  0  0  0
 52130  1  0  0  0
 52131  1  0  0  0
 53 54  1  0  0  0
 54 55  2  0  0  0
 54132  1  0  0  0
 55 57  1  0  0  0
 55133  1  0  0  0
 56 69  2  0  0  0
 57 58  2  0  0  0
 57134  1  0  0  0
 58135  1  0  0  0
 59 60  1  0  0  0
 59 61  1  0  0  0
 59 62  1  0  0  0
 60136  1  0  0  0
 60137  1  0  0  0
 60138  1  0  0  0
 61139  1  0  0  0
 61140  1  0  0  0
 61141  1  0  0  0
 62142  1  0  0  0
 62143  1  0  0  0
 62144  1  0  0  0
 63 65  1  0  0  0
 63145  1  0  0  0
 63146  1  0  0  0
 63147  1  0  0  0
 64148  1  0  0  0
 65149  1  0  0  0
 68 85  1  0  0  0
 71 72  2  0  0  0
 71 74  1  0  0  0
 71150  1  0  0  0
 72 73  1  0  0  0
 72 78  1  0  0  0
 73 76  2  0  0  0
 73 77  1  0  0  0
 74 75  2  0  0  0
 74 84  1  0  0  0
 75 76  1  0  0  0
 75 80  1  0  0  0
 76 90  1  0  0  0
 77 79  1  0  0  0
 77151  1  0  0  0
 77152  1  0  0  0
 78153  1  0  0  0
 78154  1  0  0  0
 78 89  1  0  0  0
 79 89  1  0  0  0
 79155  1  0  0  0
 79156  1  0  0  0
 80157  1  0  0  0
 80158  1  0  0  0
 80159  1  0  0  0
 81160  1  0  0  0
 81161  1  0  0  0
 81162  1  0  0  0
 81 86  1  0  0  0
 82163  1  0  0  0
 82164  1  0  0  0
 82165  1  0  0  0
 82 87  1  0  0  0
 83 90  1  0  0  0
 83166  1  0  0  0
 83167  1  0  0  0
 83168  1  0  0  0
 84 88  1  0  0  0
 84169  1  0  0  0
 84170  1  0  0  0
 85 86  1  0  0  0
 85171  1  0  0  0
 85172  1  0  0  0
 86 87  1  0  0  0
 86173  1  0  0  0
 87 89  1  0  0  0
 87174  1  0  0  0
 88175  1  0  0  0
 89176  1  0  0  0
M  CHG  1  89   1
M  ISO  4   1 100  68 101  85 101  88 100
M  END
> <chiral flag>
0

> <version>
0

> <s_m_source_file>
/data/baiqing/PycharmProjects/Reinvent-master-3.2/result/LINK_invent/BTK/process_docking_weight1_custom_sum_contain_oxygen_bond_distance_aromatic_linkinvent_7_9_3/rearranged_h_0155.sdf

> <i_m_source_file_index>
54

> <r_mmod_Potential_Energy-OPLS-2005>
-152.911697387695

> <r_mmod_Stretch_Energy-OPLS-2005>
45.394458770752

> <r_mmod_Bend_Energy-OPLS-2005>
118.538650512695

> <r_mmod_Torsional_Energy-OPLS-2005>
297.687469482422

> <r_mmod_Improper_Torsional_Energy-OPLS-2005>
3.33004903793335

> <r_mmod_Van_der_Waal_Energy-OPLS-2005>
172.568206787109

> <r_mmod_Electrostatic_Energy-OPLS-2005>
-380.339263916016

> <r_mmod_Solvation_Energy-OPLS-2005>
-421.510589599609

> <b_mmod_Minimization_Converged-OPLS-2005>
0

> <r_mmod_RMS_Derivative-OPLS-2005>
1.20334053039551

$$$$
54
                    3D
 Structure written by MMmdl.
177187  0  0  1  0            999 V2000
  -30.7061  -14.4708   20.5682 C   0  0  0  0  0  0
  -30.4210  -12.3058   19.4219 C   0  0  0  0  0  0
  -29.4941  -12.5043   18.2046 C   0  0  0  0  0  0
  -28.0130  -12.3705   18.6133 C   0  0  0  0  0  0
  -27.6596  -13.2044   19.8736 C   0  0  2  0  0  0
  -28.7012  -12.9772   20.9899 C   0  0  0  0  0  0
  -25.2586  -13.8153   20.5687 C   0  0  0  0  0  0
  -24.1832  -13.0432   20.9175 C   0  0  0  0  0  0
  -24.6384  -11.6897   20.8732 C   0  0  0  0  0  0
  -23.9052  -10.4287   21.0404 C   0  0  0  0  0  0
  -24.3608   -9.4207   21.9185 C   0  0  0  0  0  0
  -23.6296   -8.2241   22.0760 C   0  0  0  0  0  0
  -22.4279   -8.0268   21.3550 C   0  0  0  0  0  0
  -21.9908   -9.0238   20.4656 C   0  0  0  0  0  0
  -22.7223  -10.2122   20.3060 C   0  0  0  0  0  0
  -21.6849   -6.0735   22.5291 C   0  0  0  0  0  0
  -21.4010   -6.5640   23.8223 C   0  0  0  0  0  0
  -21.3659   -5.6799   24.9186 C   0  0  0  0  0  0
  -21.6042   -4.3061   24.7240 C   0  0  0  0  0  0
  -21.8816   -3.8150   23.4362 C   0  0  0  0  0  0
  -21.9193   -4.6963   22.3415 C   0  0  0  0  0  0
  -22.7857  -13.5233   21.1844 C   0  0  0  0  0  0
  -22.1656   -4.2149   21.0990 F   0  0  0  0  0  0
  -21.5633   -3.4546   25.7751 F   0  0  0  0  0  0
  -30.0288  -13.2944   20.4400 N   0  0  0  0  0  0
  -26.3016  -12.9315   20.3364 N   0  0  0  0  0  0
  -25.9311  -11.6477   20.5766 N   0  0  0  0  0  0
  -22.0494  -12.8226   22.0403 N   0  0  0  0  0  0
  -25.4331  -15.1872   20.4115 N   0  0  0  0  0  0
  -31.8510  -14.6169   20.1271 O   0  0  0  0  0  0
  -21.6640   -6.8869   21.4249 O   0  0  0  0  0  0
  -22.3540  -14.5541   20.6697 O   0  0  0  0  0  0
  -24.6132  -31.8681   23.2098 C   0  0  0  0  0  0
  -25.9034  -32.4819   23.8385 C   0  0  1  0  0  0
  -27.2340  -27.4379   20.1050 C   0  0  0  0  0  0
  -25.5899  -33.8617   24.2324 N   0  0  0  0  0  0
  -23.3998  -30.4907   21.5504 C   0  0  2  0  0  0
  -24.8450  -28.9528   20.1197 C   0  0  0  0  0  0
  -22.7395  -29.4660   22.5005 C   0  0  0  0  0  0
  -18.0270  -28.1374   22.8488 C   0  0  0  0  0  0
  -24.1484  -36.7311   23.2639 C   0  0  0  0  0  0
  -25.9263  -30.8364   21.3598 C   0  0  0  0  0  0
  -26.0038  -29.4686   20.7129 C   0  0  0  0  0  0
  -27.2013  -28.7200   20.6973 C   0  0  0  0  0  0
  -26.0583  -26.9338   19.5056 C   0  0  0  0  0  0
  -24.8668  -27.6844   19.5134 C   0  0  0  0  0  0
  -23.6072  -29.8197   20.1662 C   0  0  0  0  0  0
  -25.4106  -36.3106   24.0340 C   0  0  1  0  0  0
  -20.5855  -28.3656   23.1331 C   0  0  2  0  0  0
  -20.6760  -26.9394   22.5430 C   0  0  0  0  0  0
  -19.5748  -26.6383   21.5212 C   0  0  0  0  0  0
  -18.1917  -26.7927   22.1604 C   0  0  0  0  0  0
  -19.1518  -28.8832   23.2907 C   0  0  0  0  0  0
  -18.9448  -30.1442   23.8914 C   0  0  0  0  0  0
  -17.6449  -30.6583   24.0569 C   0  0  0  0  0  0
  -25.9034  -34.9474   23.5125 C   0  0  0  0  0  0
  -16.5339  -29.9086   23.6328 C   0  0  0  0  0  0
  -16.7259  -28.6504   23.0344 C   0  0  0  0  0  0
  -26.4476  -31.6591   25.0703 C   0  0  0  0  0  0
  -25.3757  -31.3683   26.1461 C   0  0  0  0  0  0
  -27.0312  -30.3040   24.6066 C   0  0  0  0  0  0
  -27.6052  -32.4316   25.7462 C   0  0  0  0  0  0
  -27.5590  -37.1797   24.8461 C   0  0  0  0  0  0
  -21.4125  -29.3026   22.3739 N   0  0  0  0  0  0
  -26.4288  -37.3796   23.9422 N   0  0  0  0  0  0
  -24.6645  -31.0793   22.0988 N   0  0  0  0  0  0
  -23.4169  -28.8208   23.3051 O   0  0  0  0  0  0
  -28.4257  -26.7464   20.0682 O   0  0  0  0  0  0
  -26.5595  -34.8924   22.4685 O   0  0  0  0  0  0
  -23.5331  -32.1428   23.7504 O   0  0  0  0  0  0
  -30.4906  -20.7216   21.7493 C   0  0  0  0  0  0
  -32.5055  -20.9480   23.6825 C   0  0  0  0  0  0
  -30.8511  -22.0104   22.2248 C   0  0  0  0  0  0
  -31.1555  -19.5481   22.2032 C   0  0  0  0  0  0
  -31.8525  -22.1071   23.2259 C   0  0  0  0  0  0
  -32.1866  -19.6707   23.1685 C   0  0  0  0  0  0
  -28.9599  -23.7761   22.3823 C   0  0  0  0  0  0
  -29.9413  -23.2772   20.1323 C   0  0  0  0  0  0
  -28.5978  -25.2126   21.9388 C   0  0  0  0  0  0
  -29.6165  -24.7077   19.6480 C   0  0  0  0  0  0
  -30.2741  -17.1782   22.7277 C   0  0  0  0  0  0
  -29.9088  -18.0882   20.4205 C   0  0  0  0  0  0
  -29.5144  -15.9494   22.1668 C   0  0  0  0  0  0
  -29.8795  -16.6634   19.8135 C   0  0  0  0  0  0
  -30.2228  -23.2928   21.6453 C   0  0  2  0  0  0
  -30.8288  -18.1437   21.6512 C   0  0  0  0  0  0
  -28.4342  -25.3513   20.4070 C   0  0  2  0  0  0
  -32.2836  -23.4420   23.8195 C   0  0  0  0  0  0
  -33.8062  -18.6106   24.6097 C   0  0  0  0  0  0
  -29.9370  -15.5660   20.8098 N   0  0  0  0  0  0
  -32.8527  -18.5255   23.5573 O   0  0  0  0  0  0
  -31.4656  -12.4007   19.1201 H   0  0  0  0  0  0
  -30.3199  -11.2949   19.8198 H   0  0  0  0  0  0
  -29.7327  -11.7785   17.4260 H   0  0  0  0  0  0
  -29.6663  -13.4890   17.7668 H   0  0  0  0  0  0
  -27.8160  -11.3146   18.8017 H   0  0  0  0  0  0
  -27.3666  -12.6558   17.7825 H   0  0  0  0  0  0
  -27.7042  -14.2539   19.5834 H   0  0  0  0  0  0
  -28.6819  -11.9377   21.3204 H   0  0  0  0  0  0
  -28.4515  -13.5618   21.8714 H   0  0  0  0  0  0
  -25.2753   -9.5688   22.4761 H   0  0  0  0  0  0
  -24.0013   -7.4632   22.7479 H   0  0  0  0  0  0
  -21.0839   -8.8740   19.8965 H   0  0  0  0  0  0
  -22.3671  -10.9655   19.6172 H   0  0  0  0  0  0
  -21.1992   -7.6148   23.9722 H   0  0  0  0  0  0
  -21.1486   -6.0532   25.9087 H   0  0  0  0  0  0
  -22.0593   -2.7610   23.2869 H   0  0  0  0  0  0
  -22.4104  -11.9895   22.4803 H   0  0  0  0  0  0
  -21.1110  -13.1251   22.2603 H   0  0  0  0  0  0
  -24.6738  -15.8492   20.5293 H   0  0  0  0  0  0
  -26.3000  -15.6245   20.1248 H   0  0  0  0  0  0
  -26.7102  -32.5541   23.1149 H   0  0  0  0  0  0
  -25.0062  -33.9784   25.0477 H   0  0  0  0  0  0
  -22.6880  -31.3067   21.4107 H   0  0  0  0  0  0
  -23.3752  -35.9637   23.3286 H   0  0  0  0  0  0
  -24.3582  -36.8944   22.2058 H   0  0  0  0  0  0
  -23.7226  -37.6504   23.6665 H   0  0  0  0  0  0
  -26.0340  -31.6002   20.5882 H   0  0  0  0  0  0
  -26.8159  -30.8932   21.9754 H   0  0  0  0  0  0
  -28.1011  -29.1206   21.1429 H   0  0  0  0  0  0
  -26.0563  -25.9755   19.0073 H   0  0  0  0  0  0
  -23.9776  -27.2839   19.0461 H   0  0  0  0  0  0
  -23.7133  -30.5920   19.4037 H   0  0  0  0  0  0
  -22.7312  -29.2384   19.8730 H   0  0  0  0  0  0
  -25.1279  -36.1966   25.0833 H   0  0  0  0  0  0
  -20.9947  -28.3224   24.1449 H   0  0  0  0  0  0
  -20.5654  -26.2264   23.3614 H   0  0  0  0  0  0
  -21.6639  -26.7434   22.1235 H   0  0  0  0  0  0
  -19.6912  -25.6296   21.1237 H   0  0  0  0  0  0
  -19.6704  -27.3205   20.6751 H   0  0  0  0  0  0
  -17.4201  -26.6704   21.3986 H   0  0  0  0  0  0
  -18.0292  -26.0055   22.8980 H   0  0  0  0  0  0
  -19.7923  -30.7257   24.2288 H   0  0  0  0  0  0
  -17.5003  -31.6264   24.5170 H   0  0  0  0  0  0
  -15.5345  -30.2993   23.7639 H   0  0  0  0  0  0
  -15.8661  -28.0835   22.7038 H   0  0  0  0  0  0
  -24.5954  -30.6993   25.7814 H   0  0  0  0  0  0
  -24.8917  -32.2826   26.4905 H   0  0  0  0  0  0
  -25.8132  -30.8876   27.0221 H   0  0  0  0  0  0
  -26.2842  -29.6778   24.1170 H   0  0  0  0  0  0
  -27.4150  -29.7292   25.4506 H   0  0  0  0  0  0
  -27.8644  -30.4365   23.9159 H   0  0  0  0  0  0
  -27.2666  -33.3594   26.2087 H   0  0  0  0  0  0
  -28.3833  -32.6915   25.0272 H   0  0  0  0  0  0
  -28.0759  -31.8417   26.5340 H   0  0  0  0  0  0
  -28.2586  -38.0114   24.7541 H   0  0  0  0  0  0
  -28.1099  -36.2648   24.6228 H   0  0  0  0  0  0
  -27.2316  -37.1395   25.8864 H   0  0  0  0  0  0
  -20.9281  -29.8742   21.6960 H   0  0  0  0  0  0
  -26.0173  -38.2863   24.1455 H   0  0  0  0  0  0
  -29.7131  -20.6426   21.0047 H   0  0  0  0  0  0
  -33.2819  -21.0689   24.4231 H   0  0  0  0  0  0
  -28.1291  -23.0945   22.1947 H   0  0  0  0  0  0
  -29.1262  -23.7679   23.4600 H   0  0  0  0  0  0
  -30.8151  -22.9071   19.5950 H   0  0  0  0  0  0
  -29.1169  -22.6035   19.8971 H   0  0  0  0  0  0
  -29.3835  -25.8904   22.2752 H   0  0  0  0  0  0
  -27.6856  -25.5388   22.4395 H   0  0  0  0  0  0
  -29.4054  -24.6983   18.5783 H   0  0  0  0  0  0
  -30.5036  -25.3302   19.7741 H   0  0  0  0  0  0
  -31.0858  -16.8326   23.3676 H   0  0  0  0  0  0
  -29.5940  -17.7202   23.3866 H   0  0  0  0  0  0
  -28.9006  -18.3993   20.6971 H   0  0  0  0  0  0
  -30.2501  -18.7844   19.6532 H   0  0  0  0  0  0
  -28.4459  -16.1682   22.1254 H   0  0  0  0  0  0
  -29.6283  -15.1240   22.8706 H   0  0  0  0  0  0
  -30.7074  -16.5831   19.1061 H   0  0  0  0  0  0
  -28.9778  -16.5414   19.2123 H   0  0  0  0  0  0
  -30.9766  -24.0700   21.7649 H   0  0  0  0  0  0
  -31.7878  -17.7411   21.3187 H   0  0  0  0  0  0
  -27.5238  -24.8349   20.1066 H   0  0  0  0  0  0
  -32.8858  -23.3057   24.7179 H   0  0  0  0  0  0
  -31.4251  -24.0518   24.1004 H   0  0  0  0  0  0
  -32.8866  -24.0002   23.1027 H   0  0  0  0  0  0
  -34.1846  -17.6138   24.8356 H   0  0  0  0  0  0
  -33.3593  -19.0043   25.5237 H   0  0  0  0  0  0
  -34.6592  -19.2297   24.3288 H   0  0  0  0  0  0
  1 25  1  0  0  0
  1 30  2  0  0  0
  1 90  1  0  0  0
  2  3  1  0  0  0
  2 25  1  0  0  0
  2 92  1  0  0  0
  2 93  1  0  0  0
  3  4  1  0  0  0
  3 94  1  0  0  0
  3 95  1  0  0  0
  4  5  1  0  0  0
  4 96  1  0  0  0
  4 97  1  0  0  0
  5  6  1  0  0  0
  5 26  1  0  0  0
  5 98  1  0  0  0
  6 25  1  0  0  0
  6 99  1  0  0  0
  6100  1  0  0  0
  7  8  2  0  0  0
  7 26  1  0  0  0
  7 29  1  0  0  0
  8  9  1  0  0  0
  8 22  1  0  0  0
  9 10  1  0  0  0
  9 27  2  0  0  0
 10 11  2  0  0  0
 10 15  1  0  0  0
 11 12  1  0  0  0
 11101  1  0  0  0
 12 13  2  0  0  0
 12102  1  0  0  0
 13 14  1  0  0  0
 13 31  1  0  0  0
 14 15  2  0  0  0
 14103  1  0  0  0
 15104  1  0  0  0
 16 17  2  0  0  0
 16 21  1  0  0  0
 16 31  1  0  0  0
 17 18  1  0  0  0
 17105  1  0  0  0
 18 19  2  0  0  0
 18106  1  0  0  0
 19 20  1  0  0  0
 19 24  1  0  0  0
 20 21  2  0  0  0
 20107  1  0  0  0
 21 23  1  0  0  0
 22 28  1  0  0  0
 22 32  2  0  0  0
 26 27  1  0  0  0
 28108  1  0  0  0
 28109  1  0  0  0
 29110  1  0  0  0
 29111  1  0  0  0
 33 34  1  0  0  0
 33 66  1  0  0  0
 33 70  2  0  0  0
 34 36  1  0  0  0
 34 59  1  0  0  0
 34112  1  0  0  0
 35 44  2  0  0  0
 35 45  1  0  0  0
 35 68  1  0  0  0
 36 56  1  0  0  0
 36113  1  0  0  0
 37 39  1  0  0  0
 37 47  1  0  0  0
 37 66  1  0  0  0
 37114  1  0  0  0
 38 43  2  0  0  0
 38 46  1  0  0  0
 38 47  1  0  0  0
 39 64  1  0  0  0
 39 67  2  0  0  0
 40 52  1  0  0  0
 40 53  2  0  0  0
 40 58  1  0  0  0
 41115  1  0  0  0
 41116  1  0  0  0
 41117  1  0  0  0
 41 48  1  0  0  0
 42 43  1  0  0  0
 42 66  1  0  0  0
 42118  1  0  0  0
 42119  1  0  0  0
 43 44  1  0  0  0
 44120  1  0  0  0
 45 46  2  0  0  0
 45121  1  0  0  0
 46122  1  0  0  0
 47123  1  0  0  0
 47124  1  0  0  0
 48 56  1  0  0  0
 48 65  1  0  0  0
 48125  1  0  0  0
 49 50  1  0  0  0
 49 53  1  0  0  0
 49 64  1  0  0  0
 49126  1  0  0  0
 50 51  1  0  0  0
 50127  1  0  0  0
 50128  1  0  0  0
 51 52  1  0  0  0
 51129  1  0  0  0
 51130  1  0  0  0
 52131  1  0  0  0
 52132  1  0  0  0
 53 54  1  0  0  0
 54 55  2  0  0  0
 54133  1  0  0  0
 55 57  1  0  0  0
 55134  1  0  0  0
 56 69  2  0  0  0
 57 58  2  0  0  0
 57135  1  0  0  0
 58136  1  0  0  0
 59 60  1  0  0  0
 59 61  1  0  0  0
 59 62  1  0  0  0
 60137  1  0  0  0
 60138  1  0  0  0
 60139  1  0  0  0
 61140  1  0  0  0
 61141  1  0  0  0
 61142  1  0  0  0
 62143  1  0  0  0
 62144  1  0  0  0
 62145  1  0  0  0
 63 65  1  0  0  0
 63146  1  0  0  0
 63147  1  0  0  0
 63148  1  0  0  0
 64149  1  0  0  0
 65150  1  0  0  0
 68 87  1  0  0  0
 71 73  2  0  0  0
 71 74  1  0  0  0
 71151  1  0  0  0
 72 75  2  0  0  0
 72 76  1  0  0  0
 72152  1  0  0  0
 73 75  1  0  0  0
 73 85  1  0  0  0
 74 76  2  0  0  0
 74 86  1  0  0  0
 75 88  1  0  0  0
 76 91  1  0  0  0
 77 79  1  0  0  0
 77 85  1  0  0  0
 77153  1  0  0  0
 77154  1  0  0  0
 78 80  1  0  0  0
 78 85  1  0  0  0
 78155  1  0  0  0
 78156  1  0  0  0
 79 87  1  0  0  0
 79157  1  0  0  0
 79158  1  0  0  0
 80 87  1  0  0  0
 80159  1  0  0  0
 80160  1  0  0  0
 81 83  1  0  0  0
 81 86  1  0  0  0
 81161  1  0  0  0
 81162  1  0  0  0
 82 84  1  0  0  0
 82 86  1  0  0  0
 82163  1  0  0  0
 82164  1  0  0  0
 83 90  1  0  0  0
 83165  1  0  0  0
 83166  1  0  0  0
 84 90  1  0  0  0
 84167  1  0  0  0
 84168  1  0  0  0
 85169  1  0  0  0
 86170  1  0  0  0
 87171  1  0  0  0
 88172  1  0  0  0
 88173  1  0  0  0
 88174  1  0  0  0
 89 91  1  0  0  0
 89175  1  0  0  0
 89176  1  0  0  0
 89177  1  0  0  0
M  ISO  4   1 100  68 101  87 101  90 100
M  END
> <chiral flag>
0

> <version>
0

> <s_m_source_file>
/data/baiqing/PycharmProjects/Reinvent-master-3.2/result/LINK_invent/BTK/process_docking_weight1_custom_sum_contain_oxygen_bond_distance_aromatic_linkinvent_7_9_3/rearranged_h_0155.sdf

> <i_m_source_file_index>
55

> <r_mmod_Potential_Energy-OPLS-2005>
225.534774780273

> <r_mmod_Stretch_Energy-OPLS-2005>
44.5136070251465

> <r_mmod_Bend_Energy-OPLS-2005>
118.805717468262

> <r_mmod_Torsional_Energy-OPLS-2005>
362.365570068359

> <r_mmod_Improper_Torsional_Energy-OPLS-2005>
12.8443517684937

> <r_mmod_Van_der_Waal_Energy-OPLS-2005>
173.63606262207

> <r_mmod_Electrostatic_Energy-OPLS-2005>
-308.229034423828

> <r_mmod_Solvation_Energy-OPLS-2005>
-190.7802734375

> <b_mmod_Minimization_Converged-OPLS-2005>
0

> <r_mmod_RMS_Derivative-OPLS-2005>
0.958416163921356

$$$$
55
                    3D
 Structure written by MMmdl.
157166  0  0  1  0            999 V2000
  -30.7206  -14.4792   20.6023 C   0  0  0  0  0  0
  -30.4207  -12.3251   19.4233 C   0  0  0  0  0  0
  -29.4914  -12.5117   18.2075 C   0  0  0  0  0  0
  -28.0162  -12.3599   18.6242 C   0  0  0  0  0  0
  -27.6597  -13.2080   19.8737 C   0  0  2  0  0  0
  -28.7016  -13.0089   20.9974 C   0  0  0  0  0  0
  -25.2586  -13.8167   20.5690 C   0  0  0  0  0  0
  -24.1837  -13.0440   20.9178 C   0  0  0  0  0  0
  -24.6392  -11.6908   20.8740 C   0  0  0  0  0  0
  -23.9060  -10.4295   21.0408 C   0  0  0  0  0  0
  -24.3615   -9.4210   21.9185 C   0  0  0  0  0  0
  -23.6293   -8.2246   22.0754 C   0  0  0  0  0  0
  -22.4272   -8.0284   21.3545 C   0  0  0  0  0  0
  -21.9908   -9.0256   20.4646 C   0  0  0  0  0  0
  -22.7235  -10.2135   20.3055 C   0  0  0  0  0  0
  -21.6852   -6.0737   22.5278 C   0  0  0  0  0  0
  -21.4013   -6.5640   23.8212 C   0  0  0  0  0  0
  -21.3659   -5.6794   24.9174 C   0  0  0  0  0  0
  -21.6043   -4.3057   24.7224 C   0  0  0  0  0  0
  -21.8820   -3.8149   23.4344 C   0  0  0  0  0  0
  -21.9192   -4.6966   22.3401 C   0  0  0  0  0  0
  -22.7861  -13.5241   21.1845 C   0  0  0  0  0  0
  -22.1661   -4.2152   21.0979 F   0  0  0  0  0  0
  -21.5629   -3.4539   25.7737 F   0  0  0  0  0  0
  -30.0322  -13.3130   20.4443 N   0  0  0  0  0  0
  -26.3019  -12.9335   20.3371 N   0  0  0  0  0  0
  -25.9321  -11.6493   20.5774 N   0  0  0  0  0  0
  -22.0502  -12.8232   22.0399 N   0  0  0  0  0  0
  -25.4310  -15.1883   20.4107 N   0  0  0  0  0  0
  -31.8174  -14.6801   20.0701 O   0  0  0  0  0  0
  -21.6638   -6.8881   21.4241 O   0  0  0  0  0  0
  -22.3548  -14.5550   20.6697 O   0  0  0  0  0  0
  -24.6162  -31.8663   23.2092 C   0  0  0  0  0  0
  -25.9051  -32.4811   23.8388 C   0  0  1  0  0  0
  -27.2332  -27.4244   20.1049 C   0  0  0  0  0  0
  -25.5905  -33.8611   24.2323 N   0  0  0  0  0  0
  -23.4054  -30.4890   21.5490 C   0  0  2  0  0  0
  -24.8549  -28.9546   20.1123 C   0  0  0  0  0  0
  -22.7418  -29.4652   22.4983 C   0  0  0  0  0  0
  -18.0270  -28.1383   22.8493 C   0  0  0  0  0  0
  -24.1489  -36.7311   23.2635 C   0  0  0  0  0  0
  -25.9347  -30.8313   21.3616 C   0  0  0  0  0  0
  -26.0156  -29.4645   20.7094 C   0  0  0  0  0  0
  -27.2118  -28.7071   20.7016 C   0  0  0  0  0  0
  -26.0600  -26.9325   19.4964 C   0  0  0  0  0  0
  -24.8721  -27.6885   19.5009 C   0  0  0  0  0  0
  -23.6153  -29.8205   20.1636 C   0  0  0  0  0  0
  -25.4108  -36.3100   24.0331 C   0  0  1  0  0  0
  -20.5868  -28.3672   23.1313 C   0  0  2  0  0  0
  -20.6763  -26.9408   22.5420 C   0  0  0  0  0  0
  -19.5742  -26.6392   21.5215 C   0  0  0  0  0  0
  -18.1917  -26.7933   22.1620 C   0  0  0  0  0  0
  -19.1523  -28.8843   23.2901 C   0  0  0  0  0  0
  -18.9448  -30.1449   23.8914 C   0  0  0  0  0  0
  -17.6452  -30.6593   24.0565 C   0  0  0  0  0  0
  -25.9037  -34.9467   23.5123 C   0  0  0  0  0  0
  -16.5342  -29.9094   23.6330 C   0  0  0  0  0  0
  -16.7260  -28.6508   23.0357 C   0  0  0  0  0  0
  -26.4484  -31.6584   25.0711 C   0  0  0  0  0  0
  -25.3749  -31.3672   26.1455 C   0  0  0  0  0  0
  -27.0313  -30.3029   24.6078 C   0  0  0  0  0  0
  -27.6073  -32.4292   25.7466 C   0  0  0  0  0  0
  -27.5579  -37.1800   24.8463 C   0  0  0  0  0  0
  -21.4148  -29.3032   22.3716 N   0  0  0  0  0  0
  -26.4290  -37.3786   23.9411 N   0  0  0  0  0  0
  -24.6704  -31.0763   22.0988 N   0  0  0  0  0  0
  -23.4184  -28.8193   23.3028 O   0  0  0  0  0  0
  -28.3614  -26.6308   20.1291 O   0  0  0  0  0  0
  -26.5602  -34.8917   22.4685 O   0  0  0  0  0  0
  -23.5352  -32.1415   23.7486 O   0  0  0  0  0  0
  -27.3528  -20.9468   21.9293 C   0  0  0  0  0  0
  -27.6677  -19.5881   22.1051 C   0  0  0  0  0  0
  -29.4120  -21.1872   20.7152 C   0  0  0  0  0  0
  -28.2379  -21.7940   21.2349 C   0  0  0  0  0  0
  -28.8692  -19.0781   21.5813 C   0  0  0  0  0  0
  -30.5165  -17.4150   22.7205 C   0  0  0  0  0  0
  -30.7810  -15.9052   22.5897 C   0  0  0  0  0  0
  -29.4626  -16.6134   20.7404 C   0  0  0  0  0  0
  -29.2611  -17.6161   21.8902 C   0  0  2  0  0  0
  -28.2659  -25.5187   21.0481 C   0  0  0  0  0  0
  -28.6855  -24.1206   20.4987 C   0  0  0  0  0  0
  -29.7227  -19.8694   20.8835 N   0  0  0  0  0  0
  -30.1289  -15.4414   21.3535 N   0  0  0  0  0  0
  -27.8707  -23.1306   21.1466 O   0  0  0  0  0  0
  -31.4646  -12.4241   19.1201 H   0  0  0  0  0  0
  -30.3261  -11.3164   19.8279 H   0  0  0  0  0  0
  -29.7369  -11.7861   17.4312 H   0  0  0  0  0  0
  -29.6501  -13.4976   17.7675 H   0  0  0  0  0  0
  -27.8380  -11.3040   18.8313 H   0  0  0  0  0  0
  -27.3602  -12.6207   17.7926 H   0  0  0  0  0  0
  -27.6969  -14.2515   19.5637 H   0  0  0  0  0  0
  -28.6826  -11.9796   21.3583 H   0  0  0  0  0  0
  -28.4531  -13.6265   21.8619 H   0  0  0  0  0  0
  -25.2759   -9.5686   22.4757 H   0  0  0  0  0  0
  -24.0001   -7.4636   22.7474 H   0  0  0  0  0  0
  -21.0838   -8.8778   19.8950 H   0  0  0  0  0  0
  -22.3698  -10.9678   19.6163 H   0  0  0  0  0  0
  -21.2006   -7.6150   23.9717 H   0  0  0  0  0  0
  -21.1479   -6.0523   25.9078 H   0  0  0  0  0  0
  -22.0598   -2.7610   23.2843 H   0  0  0  0  0  0
  -22.4116  -11.9885   22.4774 H   0  0  0  0  0  0
  -21.1125  -13.1265   22.2617 H   0  0  0  0  0  0
  -24.6662  -15.8453   20.5212 H   0  0  0  0  0  0
  -26.2877  -15.6266   20.0990 H   0  0  0  0  0  0
  -26.7122  -32.5525   23.1155 H   0  0  0  0  0  0
  -25.0070  -33.9779   25.0475 H   0  0  0  0  0  0
  -22.6941  -31.3054   21.4088 H   0  0  0  0  0  0
  -23.3747  -35.9648   23.3304 H   0  0  0  0  0  0
  -24.3586  -36.8928   22.2050 H   0  0  0  0  0  0
  -23.7252  -37.6517   23.6653 H   0  0  0  0  0  0
  -26.0440  -31.5963   20.5916 H   0  0  0  0  0  0
  -26.8230  -30.8888   21.9785 H   0  0  0  0  0  0
  -28.1067  -29.0913   21.1716 H   0  0  0  0  0  0
  -26.0632  -25.9558   19.0327 H   0  0  0  0  0  0
  -23.9799  -27.2902   19.0383 H   0  0  0  0  0  0
  -23.7188  -30.5946   19.4020 H   0  0  0  0  0  0
  -22.7404  -29.2375   19.8707 H   0  0  0  0  0  0
  -25.1283  -36.1956   25.0822 H   0  0  0  0  0  0
  -20.9950  -28.3241   24.1438 H   0  0  0  0  0  0
  -20.5678  -26.2279   23.3607 H   0  0  0  0  0  0
  -21.6632  -26.7460   22.1204 H   0  0  0  0  0  0
  -19.6910  -25.6308   21.1235 H   0  0  0  0  0  0
  -19.6688  -27.3211   20.6752 H   0  0  0  0  0  0
  -17.4194  -26.6694   21.4014 H   0  0  0  0  0  0
  -18.0309  -26.0068   22.9006 H   0  0  0  0  0  0
  -19.7924  -30.7255   24.2301 H   0  0  0  0  0  0
  -17.5009  -31.6277   24.5158 H   0  0  0  0  0  0
  -15.5345  -30.3001   23.7654 H   0  0  0  0  0  0
  -15.8657  -28.0832   22.7075 H   0  0  0  0  0  0
  -24.5968  -30.6965   25.7795 H   0  0  0  0  0  0
  -24.8880  -32.2806   26.4875 H   0  0  0  0  0  0
  -25.8113  -30.8881   27.0229 H   0  0  0  0  0  0
  -26.2848  -29.6774   24.1172 H   0  0  0  0  0  0
  -27.4135  -29.7276   25.4520 H   0  0  0  0  0  0
  -27.8657  -30.4357   23.9188 H   0  0  0  0  0  0
  -27.2726  -33.3602   26.2056 H   0  0  0  0  0  0
  -28.3876  -32.6834   25.0277 H   0  0  0  0  0  0
  -28.0745  -31.8396   26.5366 H   0  0  0  0  0  0
  -28.2591  -38.0104   24.7520 H   0  0  0  0  0  0
  -28.1083  -36.2635   24.6276 H   0  0  0  0  0  0
  -27.2299  -37.1431   25.8867 H   0  0  0  0  0  0
  -20.9316  -29.8748   21.6928 H   0  0  0  0  0  0
  -26.0177  -38.2859   24.1425 H   0  0  0  0  0  0
  -26.4390  -21.3442   22.3466 H   0  0  0  0  0  0
  -26.9949  -18.9559   22.6681 H   0  0  0  0  0  0
  -30.1359  -21.7661   20.1614 H   0  0  0  0  0  0
  -31.3427  -17.9761   22.2819 H   0  0  0  0  0  0
  -30.3994  -17.7435   23.7538 H   0  0  0  0  0  0
  -30.3339  -15.3690   23.4276 H   0  0  0  0  0  0
  -31.8527  -15.6956   22.6087 H   0  0  0  0  0  0
  -30.1066  -17.0433   19.9709 H   0  0  0  0  0  0
  -28.5150  -16.3480   20.2725 H   0  0  0  0  0  0
  -28.4427  -17.2104   22.4886 H   0  0  0  0  0  0
  -28.8693  -25.7512   21.9259 H   0  0  0  0  0  0
  -27.2458  -25.4333   21.4301 H   0  0  0  0  0  0
  -29.7512  -23.9617   20.6661 H   0  0  0  0  0  0
  -28.5049  -24.0641   19.4249 H   0  0  0  0  0  0
  1 25  1  0  0  0
  1 30  2  0  0  0
  1 83  1  0  0  0
  2  3  1  0  0  0
  2 25  1  0  0  0
  2 85  1  0  0  0
  2 86  1  0  0  0
  3  4  1  0  0  0
  3 87  1  0  0  0
  3 88  1  0  0  0
  4  5  1  0  0  0
  4 89  1  0  0  0
  4 90  1  0  0  0
  5  6  1  0  0  0
  5 26  1  0  0  0
  5 91  1  0  0  0
  6 25  1  0  0  0
  6 92  1  0  0  0
  6 93  1  0  0  0
  7  8  2  0  0  0
  7 26  1  0  0  0
  7 29  1  0  0  0
  8  9  1  0  0  0
  8 22  1  0  0  0
  9 10  1  0  0  0
  9 27  2  0  0  0
 10 11  2  0  0  0
 10 15  1  0  0  0
 11 12  1  0  0  0
 11 94  1  0  0  0
 12 13  2  0  0  0
 12 95  1  0  0  0
 13 14  1  0  0  0
 13 31  1  0  0  0
 14 15  2  0  0  0
 14 96  1  0  0  0
 15 97  1  0  0  0
 16 17  2  0  0  0
 16 21  1  0  0  0
 16 31  1  0  0  0
 17 18  1  0  0  0
 17 98  1  0  0  0
 18 19  2  0  0  0
 18 99  1  0  0  0
 19 20  1  0  0  0
 19 24  1  0  0  0
 20 21  2  0  0  0
 20100  1  0  0  0
 21 23  1  0  0  0
 22 28  1  0  0  0
 22 32  2  0  0  0
 26 27  1  0  0  0
 28101  1  0  0  0
 28102  1  0  0  0
 29103  1  0  0  0
 29104  1  0  0  0
 33 34  1  0  0  0
 33 66  1  0  0  0
 33 70  2  0  0  0
 34 36  1  0  0  0
 34 59  1  0  0  0
 34105  1  0  0  0
 35 44  2  0  0  0
 35 45  1  0  0  0
 35 68  1  0  0  0
 36 56  1  0  0  0
 36106  1  0  0  0
 37 39  1  0  0  0
 37 47  1  0  0  0
 37 66  1  0  0  0
 37107  1  0  0  0
 38 43  2  0  0  0
 38 46  1  0  0  0
 38 47  1  0  0  0
 39 64  1  0  0  0
 39 67  2  0  0  0
 40 52  1  0  0  0
 40 53  2  0  0  0
 40 58  1  0  0  0
 41108  1  0  0  0
 41109  1  0  0  0
 41110  1  0  0  0
 41 48  1  0  0  0
 42 43  1  0  0  0
 42 66  1  0  0  0
 42111  1  0  0  0
 42112  1  0  0  0
 43 44  1  0  0  0
 44113  1  0  0  0
 45 46  2  0  0  0
 45114  1  0  0  0
 46115  1  0  0  0
 47116  1  0  0  0
 47117  1  0  0  0
 48 56  1  0  0  0
 48 65  1  0  0  0
 48118  1  0  0  0
 49 50  1  0  0  0
 49 53  1  0  0  0
 49 64  1  0  0  0
 49119  1  0  0  0
 50 51  1  0  0  0
 50120  1  0  0  0
 50121  1  0  0  0
 51 52  1  0  0  0
 51122  1  0  0  0
 51123  1  0  0  0
 52124  1  0  0  0
 52125  1  0  0  0
 53 54  1  0  0  0
 54 55  2  0  0  0
 54126  1  0  0  0
 55 57  1  0  0  0
 55127  1  0  0  0
 56 69  2  0  0  0
 57 58  2  0  0  0
 57128  1  0  0  0
 58129  1  0  0  0
 59 60  1  0  0  0
 59 61  1  0  0  0
 59 62  1  0  0  0
 60130  1  0  0  0
 60131  1  0  0  0
 60132  1  0  0  0
 61133  1  0  0  0
 61134  1  0  0  0
 61135  1  0  0  0
 62136  1  0  0  0
 62137  1  0  0  0
 62138  1  0  0  0
 63 65  1  0  0  0
 63139  1  0  0  0
 63140  1  0  0  0
 63141  1  0  0  0
 64142  1  0  0  0
 65143  1  0  0  0
 68 80  1  0  0  0
 71 72  2  0  0  0
 71 74  1  0  0  0
 71144  1  0  0  0
 72 75  1  0  0  0
 72145  1  0  0  0
 73 74  2  0  0  0
 73 82  1  0  0  0
 73146  1  0  0  0
 74 84  1  0  0  0
 75 82  2  0  0  0
 75 79  1  0  0  0
 76 77  1  0  0  0
 76 79  1  0  0  0
 76147  1  0  0  0
 76148  1  0  0  0
 77 83  1  0  0  0
 77149  1  0  0  0
 77150  1  0  0  0
 78 79  1  0  0  0
 78 83  1  0  0  0
 78151  1  0  0  0
 78152  1  0  0  0
 79153  1  0  0  0
 80 81  1  0  0  0
 80154  1  0  0  0
 80155  1  0  0  0
 81 84  1  0  0  0
 81156  1  0  0  0
 81157  1  0  0  0
M  ISO  4   1 100  68 101  80 101  83 100
M  END
> <chiral flag>
0

> <version>
0

> <s_m_source_file>
/data/baiqing/PycharmProjects/Reinvent-master-3.2/result/LINK_invent/BTK/process_docking_weight1_custom_sum_contain_oxygen_bond_distance_aromatic_linkinvent_7_9_3/rearranged_h_0155.sdf

> <i_m_source_file_index>
56

> <r_mmod_Potential_Energy-OPLS-2005>
108.250396728516

> <r_mmod_Stretch_Energy-OPLS-2005>
43.2946243286133

> <r_mmod_Bend_Energy-OPLS-2005>
144.144592285156

> <r_mmod_Torsional_Energy-OPLS-2005>
339.921508789062

> <r_mmod_Improper_Torsional_Energy-OPLS-2005>
5.53567886352539

> <r_mmod_Van_der_Waal_Energy-OPLS-2005>
143.861907958984

> <r_mmod_Electrostatic_Energy-OPLS-2005>
-372.273620605469

> <r_mmod_Solvation_Energy-OPLS-2005>
-210.641616821289

> <b_mmod_Minimization_Converged-OPLS-2005>
0

> <r_mmod_RMS_Derivative-OPLS-2005>
0.773510992527008

$$$$
56
                    3D
 Structure written by MMmdl.
173182  0  0  1  0            999 V2000
  -30.7208  -14.4471   20.5455 C   0  0  0  0  0  0
  -30.4111  -12.2852   19.4224 C   0  0  0  0  0  0
  -29.4895  -12.4923   18.2049 C   0  0  0  0  0  0
  -28.0112  -12.3555   18.6199 C   0  0  0  0  0  0
  -27.6559  -13.2032   19.8714 C   0  0  2  0  0  0
  -28.7001  -13.0117   20.9941 C   0  0  0  0  0  0
  -25.2578  -13.8152   20.5701 C   0  0  0  0  0  0
  -24.1824  -13.0437   20.9185 C   0  0  0  0  0  0
  -24.6375  -11.6900   20.8747 C   0  0  0  0  0  0
  -23.9048  -10.4287   21.0413 C   0  0  0  0  0  0
  -24.3609   -9.4203   21.9191 C   0  0  0  0  0  0
  -23.6287   -8.2239   22.0756 C   0  0  0  0  0  0
  -22.4271   -8.0279   21.3546 C   0  0  0  0  0  0
  -21.9904   -9.0250   20.4646 C   0  0  0  0  0  0
  -22.7227  -10.2131   20.3056 C   0  0  0  0  0  0
  -21.6846   -6.0739   22.5283 C   0  0  0  0  0  0
  -21.4002   -6.5641   23.8218 C   0  0  0  0  0  0
  -21.3659   -5.6795   24.9180 C   0  0  0  0  0  0
  -21.6047   -4.3061   24.7226 C   0  0  0  0  0  0
  -21.8818   -3.8152   23.4347 C   0  0  0  0  0  0
  -21.9187   -4.6967   22.3403 C   0  0  0  0  0  0
  -22.7851  -13.5243   21.1842 C   0  0  0  0  0  0
  -22.1653   -4.2155   21.0978 F   0  0  0  0  0  0
  -21.5633   -3.4541   25.7739 F   0  0  0  0  0  0
  -30.0289  -13.2848   20.4288 N   0  0  0  0  0  0
  -26.2999  -12.9307   20.3383 N   0  0  0  0  0  0
  -25.9300  -11.6473   20.5788 N   0  0  0  0  0  0
  -22.0484  -12.8239   22.0396 N   0  0  0  0  0  0
  -25.4327  -15.1867   20.4111 N   0  0  0  0  0  0
  -31.8834  -14.5781   20.1485 O   0  0  0  0  0  0
  -21.6632   -6.8881   21.4246 O   0  0  0  0  0  0
  -22.3543  -14.5553   20.6693 O   0  0  0  0  0  0
  -24.6115  -31.8701   23.2129 C   0  0  0  0  0  0
  -25.9025  -32.4831   23.8413 C   0  0  1  0  0  0
  -27.2351  -27.4620   20.0981 C   0  0  0  0  0  0
  -25.5894  -33.8628   24.2348 N   0  0  0  0  0  0
  -23.3986  -30.4936   21.5511 C   0  0  2  0  0  0
  -24.8473  -28.9620   20.1161 C   0  0  0  0  0  0
  -22.7394  -29.4667   22.4993 C   0  0  0  0  0  0
  -18.0271  -28.1378   22.8489 C   0  0  0  0  0  0
  -24.1483  -36.7318   23.2636 C   0  0  0  0  0  0
  -25.9235  -30.8429   21.3636 C   0  0  0  0  0  0
  -26.0026  -29.4764   20.7197 C   0  0  0  0  0  0
  -27.2002  -28.7301   20.7200 C   0  0  0  0  0  0
  -26.0724  -26.9598   19.4831 C   0  0  0  0  0  0
  -24.8744  -27.6988   19.4984 C   0  0  0  0  0  0
  -23.6078  -29.8257   20.1649 C   0  0  0  0  0  0
  -25.4101  -36.3117   24.0343 C   0  0  1  0  0  0
  -20.5861  -28.3659   23.1320 C   0  0  2  0  0  0
  -20.6765  -26.9396   22.5415 C   0  0  0  0  0  0
  -19.5748  -26.6386   21.5208 C   0  0  0  0  0  0
  -18.1925  -26.7927   22.1616 C   0  0  0  0  0  0
  -19.1520  -28.8832   23.2908 C   0  0  0  0  0  0
  -18.9451  -30.1437   23.8920 C   0  0  0  0  0  0
  -17.6455  -30.6582   24.0571 C   0  0  0  0  0  0
  -25.9025  -34.9479   23.5139 C   0  0  0  0  0  0
  -16.5344  -29.9089   23.6322 C   0  0  0  0  0  0
  -16.7261  -28.6507   23.0336 C   0  0  0  0  0  0
  -26.4474  -31.6590   25.0719 C   0  0  0  0  0  0
  -25.3761  -31.3683   26.1481 C   0  0  0  0  0  0
  -27.0291  -30.3037   24.6056 C   0  0  0  0  0  0
  -27.6059  -32.4294   25.7484 C   0  0  0  0  0  0
  -27.5577  -37.1814   24.8465 C   0  0  0  0  0  0
  -21.4125  -29.3034   22.3731 N   0  0  0  0  0  0
  -26.4290  -37.3796   23.9411 N   0  0  0  0  0  0
  -24.6623  -31.0831   22.1015 N   0  0  0  0  0  0
  -23.4179  -28.8208   23.3025 O   0  0  0  0  0  0
  -28.3677  -26.6901   20.0462 O   0  0  0  0  0  0
  -26.5579  -34.8924   22.4696 O   0  0  0  0  0  0
  -23.5317  -32.1446   23.7542 O   0  0  0  0  0  0
  -28.3277  -20.3925   21.4457 C   0  0  0  0  0  0
  -30.3437  -22.3174   21.2255 C   0  0  0  0  0  0
  -29.6559  -19.9666   21.2308 C   0  0  0  0  0  0
  -27.9938  -21.7644   21.5463 C   0  0  0  0  0  0
  -30.6740  -20.9497   21.1310 C   0  0  0  0  0  0
  -29.0084  -22.7479   21.4191 C   0  0  0  0  0  0
  -29.7080  -17.6276   22.3254 C   0  0  0  0  0  0
  -29.1648  -17.8128   19.9487 C   0  0  0  0  0  0
  -30.2360  -16.1838   22.1447 C   0  0  0  0  0  0
  -29.7333  -16.4183   19.6497 C   0  0  0  0  0  0
  -29.9593  -18.4699   21.0730 C   0  0  0  0  0  0
  -32.1324  -20.5793   20.9074 C   0  0  0  0  0  0
  -25.9351  -21.4776   23.0162 C   0  0  0  0  0  0
  -25.6797  -21.8915   20.5249 C   0  0  0  0  0  0
  -29.0304  -26.4825   21.2894 C   0  0  0  0  0  0
  -29.6582  -25.0790   21.2859 C   0  0  0  0  0  0
  -26.5330  -22.1600   21.7738 C   0  0  0  0  0  0
  -29.9835  -15.5485   20.8283 N   0  0  0  0  0  0
  -28.6516  -24.0833   21.4836 O   0  0  0  0  0  0
  -31.4577  -12.3645   19.1224 H   0  0  0  0  0  0
  -30.2922  -11.2800   19.8293 H   0  0  0  0  0  0
  -29.7278  -11.7698   17.4234 H   0  0  0  0  0  0
  -29.6616  -13.4791   17.7721 H   0  0  0  0  0  0
  -27.8242  -11.3008   18.8247 H   0  0  0  0  0  0
  -27.3605  -12.6215   17.7861 H   0  0  0  0  0  0
  -27.6855  -14.2455   19.5609 H   0  0  0  0  0  0
  -28.6693  -11.9923   21.3805 H   0  0  0  0  0  0
  -28.4793  -13.6614   21.8424 H   0  0  0  0  0  0
  -25.2749   -9.5681   22.4770 H   0  0  0  0  0  0
  -23.9999   -7.4629   22.7476 H   0  0  0  0  0  0
  -21.0836   -8.8762   19.8948 H   0  0  0  0  0  0
  -22.3688  -10.9670   19.6162 H   0  0  0  0  0  0
  -21.1984   -7.6148   23.9722 H   0  0  0  0  0  0
  -21.1482   -6.0525   25.9085 H   0  0  0  0  0  0
  -22.0596   -2.7615   23.2846 H   0  0  0  0  0  0
  -22.4074  -11.9879   22.4760 H   0  0  0  0  0  0
  -21.1100  -13.1274   22.2589 H   0  0  0  0  0  0
  -24.6763  -15.8515   20.5305 H   0  0  0  0  0  0
  -26.3039  -15.6213   20.1344 H   0  0  0  0  0  0
  -26.7101  -32.5561   23.1184 H   0  0  0  0  0  0
  -25.0081  -33.9801   25.0518 H   0  0  0  0  0  0
  -22.6861  -31.3095   21.4115 H   0  0  0  0  0  0
  -23.3741  -35.9654   23.3305 H   0  0  0  0  0  0
  -24.3586  -36.8922   22.2049 H   0  0  0  0  0  0
  -23.7237  -37.6528   23.6643 H   0  0  0  0  0  0
  -26.0285  -31.6048   20.5899 H   0  0  0  0  0  0
  -26.8147  -30.9032   21.9766 H   0  0  0  0  0  0
  -28.0916  -29.1309   21.1824 H   0  0  0  0  0  0
  -26.0945  -25.9912   19.0032 H   0  0  0  0  0  0
  -23.9874  -27.2968   19.0282 H   0  0  0  0  0  0
  -23.7158  -30.6012   19.4054 H   0  0  0  0  0  0
  -22.7338  -29.2438   19.8678 H   0  0  0  0  0  0
  -25.1278  -36.1986   25.0837 H   0  0  0  0  0  0
  -20.9953  -28.3220   24.1440 H   0  0  0  0  0  0
  -20.5665  -26.2264   23.3600 H   0  0  0  0  0  0
  -21.6636  -26.7445   22.1203 H   0  0  0  0  0  0
  -19.6911  -25.6300   21.1231 H   0  0  0  0  0  0
  -19.6698  -27.3204   20.6748 H   0  0  0  0  0  0
  -17.4198  -26.6675   21.4013 H   0  0  0  0  0  0
  -18.0323  -26.0061   22.9003 H   0  0  0  0  0  0
  -19.7929  -30.7243   24.2302 H   0  0  0  0  0  0
  -17.5013  -31.6265   24.5166 H   0  0  0  0  0  0
  -15.5349  -30.3003   23.7632 H   0  0  0  0  0  0
  -15.8659  -28.0840   22.7033 H   0  0  0  0  0  0
  -24.5926  -30.7037   25.7824 H   0  0  0  0  0  0
  -24.8967  -32.2834   26.4965 H   0  0  0  0  0  0
  -25.8132  -30.8830   27.0215 H   0  0  0  0  0  0
  -26.2811  -29.6804   24.1138 H   0  0  0  0  0  0
  -27.4108  -29.7261   25.4485 H   0  0  0  0  0  0
  -27.8629  -30.4367   23.9159 H   0  0  0  0  0  0
  -27.2688  -33.3586   26.2091 H   0  0  0  0  0  0
  -28.3863  -32.6858   25.0307 H   0  0  0  0  0  0
  -28.0728  -31.8392   26.5380 H   0  0  0  0  0  0
  -28.2602  -38.0104   24.7501 H   0  0  0  0  0  0
  -28.1068  -36.2636   24.6301 H   0  0  0  0  0  0
  -27.2300  -37.1474   25.8870 H   0  0  0  0  0  0
  -20.9276  -29.8762   21.6966 H   0  0  0  0  0  0
  -26.0182  -38.2876   24.1411 H   0  0  0  0  0  0
  -27.5460  -19.6503   21.5206 H   0  0  0  0  0  0
  -31.1474  -23.0327   21.1365 H   0  0  0  0  0  0
  -30.2017  -18.0813   23.1859 H   0  0  0  0  0  0
  -28.6429  -17.6113   22.5611 H   0  0  0  0  0  0
  -28.1068  -17.7470   20.2054 H   0  0  0  0  0  0
  -29.2224  -18.4204   19.0439 H   0  0  0  0  0  0
  -29.8211  -15.5485   22.9291 H   0  0  0  0  0  0
  -31.3146  -16.2043   22.3196 H   0  0  0  0  0  0
  -30.6672  -16.5661   19.1016 H   0  0  0  0  0  0
  -29.0708  -15.9083   18.9512 H   0  0  0  0  0  0
  -31.0108  -18.3519   20.8211 H   0  0  0  0  0  0
  -32.7782  -21.4572   20.9020 H   0  0  0  0  0  0
  -32.2594  -20.0760   19.9483 H   0  0  0  0  0  0
  -32.4872  -19.9183   21.6987 H   0  0  0  0  0  0
  -26.5298  -21.6919   23.9044 H   0  0  0  0  0  0
  -25.8791  -20.3946   22.9062 H   0  0  0  0  0  0
  -24.9228  -21.8356   23.2074 H   0  0  0  0  0  0
  -26.0616  -22.4429   19.6655 H   0  0  0  0  0  0
  -24.6462  -22.2035   20.6808 H   0  0  0  0  0  0
  -25.6687  -20.8331   20.2638 H   0  0  0  0  0  0
  -29.8108  -27.2376   21.3924 H   0  0  0  0  0  0
  -28.3611  -26.5881   22.1458 H   0  0  0  0  0  0
  -30.3860  -25.0141   22.0961 H   0  0  0  0  0  0
  -30.1891  -24.9231   20.3455 H   0  0  0  0  0  0
  -26.4830  -23.2319   21.9656 H   0  0  0  0  0  0
  1 25  1  0  0  0
  1 30  2  0  0  0
  1 88  1  0  0  0
  2  3  1  0  0  0
  2 25  1  0  0  0
  2 90  1  0  0  0
  2 91  1  0  0  0
  3  4  1  0  0  0
  3 92  1  0  0  0
  3 93  1  0  0  0
  4  5  1  0  0  0
  4 94  1  0  0  0
  4 95  1  0  0  0
  5  6  1  0  0  0
  5 26  1  0  0  0
  5 96  1  0  0  0
  6 25  1  0  0  0
  6 97  1  0  0  0
  6 98  1  0  0  0
  7  8  2  0  0  0
  7 26  1  0  0  0
  7 29  1  0  0  0
  8  9  1  0  0  0
  8 22  1  0  0  0
  9 10  1  0  0  0
  9 27  2  0  0  0
 10 11  2  0  0  0
 10 15  1  0  0  0
 11 12  1  0  0  0
 11 99  1  0  0  0
 12 13  2  0  0  0
 12100  1  0  0  0
 13 14  1  0  0  0
 13 31  1  0  0  0
 14 15  2  0  0  0
 14101  1  0  0  0
 15102  1  0  0  0
 16 17  2  0  0  0
 16 21  1  0  0  0
 16 31  1  0  0  0
 17 18  1  0  0  0
 17103  1  0  0  0
 18 19  2  0  0  0
 18104  1  0  0  0
 19 20  1  0  0  0
 19 24  1  0  0  0
 20 21  2  0  0  0
 20105  1  0  0  0
 21 23  1  0  0  0
 22 28  1  0  0  0
 22 32  2  0  0  0
 26 27  1  0  0  0
 28106  1  0  0  0
 28107  1  0  0  0
 29108  1  0  0  0
 29109  1  0  0  0
 33 34  1  0  0  0
 33 66  1  0  0  0
 33 70  2  0  0  0
 34 36  1  0  0  0
 34 59  1  0  0  0
 34110  1  0  0  0
 35 44  2  0  0  0
 35 45  1  0  0  0
 35 68  1  0  0  0
 36 56  1  0  0  0
 36111  1  0  0  0
 37 39  1  0  0  0
 37 47  1  0  0  0
 37 66  1  0  0  0
 37112  1  0  0  0
 38 43  2  0  0  0
 38 46  1  0  0  0
 38 47  1  0  0  0
 39 64  1  0  0  0
 39 67  2  0  0  0
 40 52  1  0  0  0
 40 53  2  0  0  0
 40 58  1  0  0  0
 41113  1  0  0  0
 41114  1  0  0  0
 41115  1  0  0  0
 41 48  1  0  0  0
 42 43  1  0  0  0
 42 66  1  0  0  0
 42116  1  0  0  0
 42117  1  0  0  0
 43 44  1  0  0  0
 44118  1  0  0  0
 45 46  2  0  0  0
 45119  1  0  0  0
 46120  1  0  0  0
 47121  1  0  0  0
 47122  1  0  0  0
 48 56  1  0  0  0
 48 65  1  0  0  0
 48123  1  0  0  0
 49 50  1  0  0  0
 49 53  1  0  0  0
 49 64  1  0  0  0
 49124  1  0  0  0
 50 51  1  0  0  0
 50125  1  0  0  0
 50126  1  0  0  0
 51 52  1  0  0  0
 51127  1  0  0  0
 51128  1  0  0  0
 52129  1  0  0  0
 52130  1  0  0  0
 53 54  1  0  0  0
 54 55  2  0  0  0
 54131  1  0  0  0
 55 57  1  0  0  0
 55132  1  0  0  0
 56 69  2  0  0  0
 57 58  2  0  0  0
 57133  1  0  0  0
 58134  1  0  0  0
 59 60  1  0  0  0
 59 61  1  0  0  0
 59 62  1  0  0  0
 60135  1  0  0  0
 60136  1  0  0  0
 60137  1  0  0  0
 61138  1  0  0  0
 61139  1  0  0  0
 61140  1  0  0  0
 62141  1  0  0  0
 62142  1  0  0  0
 62143  1  0  0  0
 63 65  1  0  0  0
 63144  1  0  0  0
 63145  1  0  0  0
 63146  1  0  0  0
 64147  1  0  0  0
 65148  1  0  0  0
 68 85  1  0  0  0
 71 73  2  0  0  0
 71 74  1  0  0  0
 71149  1  0  0  0
 72 75  2  0  0  0
 72 76  1  0  0  0
 72150  1  0  0  0
 73 75  1  0  0  0
 73 81  1  0  0  0
 74 76  2  0  0  0
 74 87  1  0  0  0
 75 82  1  0  0  0
 76 89  1  0  0  0
 77 79  1  0  0  0
 77 81  1  0  0  0
 77151  1  0  0  0
 77152  1  0  0  0
 78 80  1  0  0  0
 78 81  1  0  0  0
 78153  1  0  0  0
 78154  1  0  0  0
 79 88  1  0  0  0
 79155  1  0  0  0
 79156  1  0  0  0
 80 88  1  0  0  0
 80157  1  0  0  0
 80158  1  0  0  0
 81159  1  0  0  0
 82160  1  0  0  0
 82161  1  0  0  0
 82162  1  0  0  0
 83163  1  0  0  0
 83164  1  0  0  0
 83165  1  0  0  0
 83 87  1  0  0  0
 84 87  1  0  0  0
 84166  1  0  0  0
 84167  1  0  0  0
 84168  1  0  0  0
 85 86  1  0  0  0
 85169  1  0  0  0
 85170  1  0  0  0
 86 89  1  0  0  0
 86171  1  0  0  0
 86172  1  0  0  0
 87173  1  0  0  0
M  ISO  4   1 100  68 101  85 101  88 100
M  END
> <chiral flag>
0

> <version>
0

> <s_m_source_file>
/data/baiqing/PycharmProjects/Reinvent-master-3.2/result/LINK_invent/BTK/process_docking_weight1_custom_sum_contain_oxygen_bond_distance_aromatic_linkinvent_7_9_3/rearranged_h_0155.sdf

> <i_m_source_file_index>
57

> <r_mmod_Potential_Energy-OPLS-2005>
188.527557373047

> <r_mmod_Stretch_Energy-OPLS-2005>
38.9238357543945

> <r_mmod_Bend_Energy-OPLS-2005>
113.534027099609

> <r_mmod_Torsional_Energy-OPLS-2005>
341.522155761719

> <r_mmod_Improper_Torsional_Energy-OPLS-2005>
10.2840003967285

> <r_mmod_Van_der_Waal_Energy-OPLS-2005>
161.560470581055

> <r_mmod_Electrostatic_Energy-OPLS-2005>
-299.772857666016

> <r_mmod_Solvation_Energy-OPLS-2005>
-190.5634765625

> <b_mmod_Minimization_Converged-OPLS-2005>
0

> <r_mmod_RMS_Derivative-OPLS-2005>
0.952105283737183

$$$$
57
                    3D
 Structure written by MMmdl.
170179  0  0  1  0            999 V2000
  -30.7499  -14.6891   20.4627 C   0  0  0  0  0  0
  -30.4026  -12.4418   19.4532 C   0  0  0  0  0  0
  -29.4845  -12.4898   18.2182 C   0  0  0  0  0  0
  -28.0193  -12.3137   18.6506 C   0  0  0  0  0  0
  -27.6344  -13.2305   19.8438 C   0  0  2  0  0  0
  -28.6953  -13.1961   20.9690 C   0  0  0  0  0  0
  -25.2504  -13.8203   20.5744 C   0  0  0  0  0  0
  -24.1790  -13.0442   20.9224 C   0  0  0  0  0  0
  -24.6382  -11.6919   20.8772 C   0  0  0  0  0  0
  -23.9057  -10.4299   21.0418 C   0  0  0  0  0  0
  -24.3608   -9.4208   21.9189 C   0  0  0  0  0  0
  -23.6289   -8.2237   22.0744 C   0  0  0  0  0  0
  -22.4277   -8.0271   21.3528 C   0  0  0  0  0  0
  -21.9908   -9.0252   20.4640 C   0  0  0  0  0  0
  -22.7231  -10.2140   20.3059 C   0  0  0  0  0  0
  -21.6857   -6.0723   22.5271 C   0  0  0  0  0  0
  -21.4021   -6.5628   23.8206 C   0  0  0  0  0  0
  -21.3664   -5.6776   24.9166 C   0  0  0  0  0  0
  -21.6050   -4.3040   24.7219 C   0  0  0  0  0  0
  -21.8824   -3.8134   23.4341 C   0  0  0  0  0  0
  -21.9197   -4.6951   22.3399 C   0  0  0  0  0  0
  -22.7810  -13.5229   21.1851 C   0  0  0  0  0  0
  -22.1661   -4.2130   21.0976 F   0  0  0  0  0  0
  -21.5631   -3.4530   25.7739 F   0  0  0  0  0  0
  -29.9801  -13.5471   20.3518 N   0  0  0  0  0  0
  -26.2927  -12.9407   20.3343 N   0  0  0  0  0  0
  -25.9320  -11.6550   20.5814 N   0  0  0  0  0  0
  -22.0442  -12.8245   22.0419 N   0  0  0  0  0  0
  -25.4186  -15.1929   20.4159 N   0  0  0  0  0  0
  -31.9533  -14.5663   20.2280 O   0  0  0  0  0  0
  -21.6638   -6.8868   21.4230 O   0  0  0  0  0  0
  -22.3504  -14.5521   20.6661 O   0  0  0  0  0  0
  -24.6291  -31.8598   23.2030 C   0  0  0  0  0  0
  -25.9129  -32.4777   23.8362 C   0  0  1  0  0  0
  -27.2135  -27.2944   20.1168 C   0  0  0  0  0  0
  -25.5937  -33.8577   24.2285 N   0  0  0  0  0  0
  -23.4236  -30.4862   21.5461 C   0  0  2  0  0  0
  -24.8678  -28.9463   20.1090 C   0  0  0  0  0  0
  -22.7492  -29.4630   22.4920 C   0  0  0  0  0  0
  -18.0295  -28.1394   22.8486 C   0  0  0  0  0  0
  -24.1490  -36.7297   23.2638 C   0  0  0  0  0  0
  -25.9693  -30.7821   21.3804 C   0  0  0  0  0  0
  -26.0416  -29.4103   20.7181 C   0  0  0  0  0  0
  -27.2187  -28.5969   20.7124 C   0  0  0  0  0  0
  -26.0155  -26.9025   19.4704 C   0  0  0  0  0  0
  -24.8587  -27.6977   19.4759 C   0  0  0  0  0  0
  -23.6386  -29.8285   20.1598 C   0  0  0  0  0  0
  -25.4114  -36.3080   24.0329 C   0  0  1  0  0  0
  -20.5898  -28.3702   23.1276 C   0  0  2  0  0  0
  -20.6783  -26.9425   22.5407 C   0  0  0  0  0  0
  -19.5754  -26.6392   21.5214 C   0  0  0  0  0  0
  -18.1935  -26.7939   22.1625 C   0  0  0  0  0  0
  -19.1548  -28.8866   23.2878 C   0  0  0  0  0  0
  -18.9469  -30.1465   23.8897 C   0  0  0  0  0  0
  -17.6467  -30.6595   24.0567 C   0  0  0  0  0  0
  -25.9057  -34.9450   23.5105 C   0  0  0  0  0  0
  -16.5359  -29.9091   23.6334 C   0  0  0  0  0  0
  -16.7280  -28.6510   23.0356 C   0  0  0  0  0  0
  -26.4505  -31.6590   25.0738 C   0  0  0  0  0  0
  -25.3738  -31.3745   26.1470 C   0  0  0  0  0  0
  -27.0347  -30.3003   24.6217 C   0  0  0  0  0  0
  -27.6070  -32.4329   25.7498 C   0  0  0  0  0  0
  -27.5584  -37.1797   24.8464 C   0  0  0  0  0  0
  -21.4209  -29.3049   22.3661 N   0  0  0  0  0  0
  -26.4293  -37.3775   23.9413 N   0  0  0  0  0  0
  -24.6929  -31.0594   22.0989 N   0  0  0  0  0  0
  -23.4207  -28.8165   23.3006 O   0  0  0  0  0  0
  -28.2961  -26.3902   20.1867 O   0  0  0  0  0  0
  -26.5621  -34.8915   22.4671 O   0  0  0  0  0  0
  -23.5439  -32.1412   23.7332 O   0  0  0  0  0  0
  -30.1917  -23.7571   18.5524 C   0  0  0  0  0  0
  -30.3882  -21.0036   18.2197 C   0  0  0  0  0  0
  -30.8549  -23.2513   17.4230 C   0  0  0  0  0  0
  -29.5956  -22.9191   19.5247 C   0  0  0  0  0  0
  -30.9281  -21.8601   17.2420 C   0  0  0  0  0  0
  -29.7283  -21.4663   19.3948 C   0  0  0  0  0  0
  -30.9100  -18.5782   20.4167 C   0  0  0  0  0  0
  -28.6511  -18.0624   20.9943 C   0  0  0  0  0  0
  -31.1980  -17.0872   20.0516 C   0  0  0  0  0  0
  -28.8570  -16.5147   20.6914 C   0  0  0  0  0  0
  -29.4760  -19.0431   20.1145 C   0  0  0  0  0  0
  -31.4773  -24.2095   16.4205 C   0  0  0  0  0  0
  -31.5973  -21.2662   16.0119 C   0  0  0  0  0  0
  -29.8349  -24.1160   21.7694 C   0  0  0  0  0  0
  -27.9314  -24.9407   20.1964 C   0  0  0  0  0  0
  -28.8651  -23.7115   20.6507 C   0  0  1  0  0  0
  -30.2468  -16.0039   20.4886 N   0  0  0  0  0  0
  -29.2630  -20.5055   20.3308 O   0  0  0  0  0  0
  -31.4425  -12.5075   19.1298 H   0  0  0  0  0  0
  -30.3230  -11.4781   19.9591 H   0  0  0  0  0  0
  -29.7624  -11.7090   17.5085 H   0  0  0  0  0  0
  -29.6072  -13.4400   17.6954 H   0  0  0  0  0  0
  -27.8894  -11.2681   18.9350 H   0  0  0  0  0  0
  -27.3500  -12.4840   17.8061 H   0  0  0  0  0  0
  -27.6125  -14.2374   19.4345 H   0  0  0  0  0  0
  -28.7466  -12.2030   21.4176 H   0  0  0  0  0  0
  -28.4453  -13.8684   21.7867 H   0  0  0  0  0  0
  -25.2753   -9.5691   22.4758 H   0  0  0  0  0  0
  -23.9989   -7.4643   22.7481 H   0  0  0  0  0  0
  -21.0829   -8.8784   19.8973 H   0  0  0  0  0  0
  -22.3683  -10.9673   19.6169 H   0  0  0  0  0  0
  -21.2007   -7.6134   23.9701 H   0  0  0  0  0  0
  -21.1482   -6.0505   25.9064 H   0  0  0  0  0  0
  -22.0602   -2.7592   23.2846 H   0  0  0  0  0  0
  -22.4044  -11.9922   22.4858 H   0  0  0  0  0  0
  -21.1052  -13.1283   22.2588 H   0  0  0  0  0  0
  -24.6533  -15.8476   20.5338 H   0  0  0  0  0  0
  -26.2747  -15.6336   20.1075 H   0  0  0  0  0  0
  -26.7197  -32.5438   23.1107 H   0  0  0  0  0  0
  -25.0063  -33.9725   25.0412 H   0  0  0  0  0  0
  -22.7182  -31.3078   21.4060 H   0  0  0  0  0  0
  -23.3749  -35.9631   23.3298 H   0  0  0  0  0  0
  -24.3584  -36.8919   22.2053 H   0  0  0  0  0  0
  -23.7243  -37.6498   23.6663 H   0  0  0  0  0  0
  -26.1095  -31.5472   20.6152 H   0  0  0  0  0  0
  -26.8467  -30.8259   22.0142 H   0  0  0  0  0  0
  -28.1137  -28.9423   21.2103 H   0  0  0  0  0  0
  -25.9276  -25.9556   18.9620 H   0  0  0  0  0  0
  -23.9612  -27.3382   18.9915 H   0  0  0  0  0  0
  -23.7609  -30.6089   19.4076 H   0  0  0  0  0  0
  -22.7573  -29.2616   19.8542 H   0  0  0  0  0  0
  -25.1290  -36.1927   25.0820 H   0  0  0  0  0  0
  -20.9997  -28.3277   24.1395 H   0  0  0  0  0  0
  -20.5697  -26.2310   23.3607 H   0  0  0  0  0  0
  -21.6648  -26.7457   22.1195 H   0  0  0  0  0  0
  -19.6919  -25.6304   21.1243 H   0  0  0  0  0  0
  -19.6692  -27.3200   20.6744 H   0  0  0  0  0  0
  -17.4206  -26.6693   21.4023 H   0  0  0  0  0  0
  -18.0333  -26.0084   22.9024 H   0  0  0  0  0  0
  -19.7945  -30.7283   24.2263 H   0  0  0  0  0  0
  -17.5024  -31.6273   24.5173 H   0  0  0  0  0  0
  -15.5361  -30.2995   23.7664 H   0  0  0  0  0  0
  -15.8680  -28.0830   22.7072 H   0  0  0  0  0  0
  -24.5891  -30.7122   25.7795 H   0  0  0  0  0  0
  -24.8962  -32.2924   26.4908 H   0  0  0  0  0  0
  -25.8059  -30.8901   27.0236 H   0  0  0  0  0  0
  -26.2926  -29.6748   24.1241 H   0  0  0  0  0  0
  -27.4026  -29.7265   25.4731 H   0  0  0  0  0  0
  -27.8808  -30.4271   23.9463 H   0  0  0  0  0  0
  -27.2682  -33.3619   26.2097 H   0  0  0  0  0  0
  -28.3859  -32.6913   25.0315 H   0  0  0  0  0  0
  -28.0771  -31.8453   26.5390 H   0  0  0  0  0  0
  -28.2595  -38.0098   24.7512 H   0  0  0  0  0  0
  -28.1083  -36.2629   24.6280 H   0  0  0  0  0  0
  -27.2312  -37.1439   25.8869 H   0  0  0  0  0  0
  -20.9384  -29.8775   21.6876 H   0  0  0  0  0  0
  -26.0173  -38.2848   24.1417 H   0  0  0  0  0  0
  -30.1335  -24.8304   18.6749 H   0  0  0  0  0  0
  -30.5174  -19.9530   18.0211 H   0  0  0  0  0  0
  -31.6341  -19.2070   19.8995 H   0  0  0  0  0  0
  -31.1182  -18.7332   21.4760 H   0  0  0  0  0  0
  -28.8825  -18.2497   22.0443 H   0  0  0  0  0  0
  -27.5918  -18.3019   20.8925 H   0  0  0  0  0  0
  -32.2024  -16.9001   20.4369 H   0  0  0  0  0  0
  -31.2805  -17.0114   18.9662 H   0  0  0  0  0  0
  -28.3125  -16.2965   19.7745 H   0  0  0  0  0  0
  -28.3714  -15.9601   21.4914 H   0  0  0  0  0  0
  -29.1981  -18.7945   19.0904 H   0  0  0  0  0  0
  -31.4362  -25.2410   16.7703 H   0  0  0  0  0  0
  -30.9567  -24.1594   15.4635 H   0  0  0  0  0  0
  -32.5270  -23.9630   16.2548 H   0  0  0  0  0  0
  -31.3984  -20.1983   15.9193 H   0  0  0  0  0  0
  -32.6778  -21.4059   16.0589 H   0  0  0  0  0  0
  -31.2298  -21.7439   15.1028 H   0  0  0  0  0  0
  -30.3553  -23.2440   22.1679 H   0  0  0  0  0  0
  -29.3046  -24.5907   22.5953 H   0  0  0  0  0  0
  -30.5860  -24.8188   21.4078 H   0  0  0  0  0  0
  -27.0757  -24.8770   20.8708 H   0  0  0  0  0  0
  -27.5493  -24.6706   19.2129 H   0  0  0  0  0  0
  -28.1856  -22.9727   21.0789 H   0  0  0  0  0  0
  1 25  1  0  0  0
  1 30  2  0  0  0
  1 87  1  0  0  0
  2  3  1  0  0  0
  2 25  1  0  0  0
  2 89  1  0  0  0
  2 90  1  0  0  0
  3  4  1  0  0  0
  3 91  1  0  0  0
  3 92  1  0  0  0
  4  5  1  0  0  0
  4 93  1  0  0  0
  4 94  1  0  0  0
  5  6  1  0  0  0
  5 26  1  0  0  0
  5 95  1  0  0  0
  6 25  1  0  0  0
  6 96  1  0  0  0
  6 97  1  0  0  0
  7  8  2  0  0  0
  7 26  1  0  0  0
  7 29  1  0  0  0
  8  9  1  0  0  0
  8 22  1  0  0  0
  9 10  1  0  0  0
  9 27  2  0  0  0
 10 11  2  0  0  0
 10 15  1  0  0  0
 11 12  1  0  0  0
 11 98  1  0  0  0
 12 13  2  0  0  0
 12 99  1  0  0  0
 13 14  1  0  0  0
 13 31  1  0  0  0
 14 15  2  0  0  0
 14100  1  0  0  0
 15101  1  0  0  0
 16 17  2  0  0  0
 16 21  1  0  0  0
 16 31  1  0  0  0
 17 18  1  0  0  0
 17102  1  0  0  0
 18 19  2  0  0  0
 18103  1  0  0  0
 19 20  1  0  0  0
 19 24  1  0  0  0
 20 21  2  0  0  0
 20104  1  0  0  0
 21 23  1  0  0  0
 22 28  1  0  0  0
 22 32  2  0  0  0
 26 27  1  0  0  0
 28105  1  0  0  0
 28106  1  0  0  0
 29107  1  0  0  0
 29108  1  0  0  0
 33 34  1  0  0  0
 33 66  1  0  0  0
 33 70  2  0  0  0
 34 36  1  0  0  0
 34 59  1  0  0  0
 34109  1  0  0  0
 35 44  2  0  0  0
 35 45  1  0  0  0
 35 68  1  0  0  0
 36 56  1  0  0  0
 36110  1  0  0  0
 37 39  1  0  0  0
 37 47  1  0  0  0
 37 66  1  0  0  0
 37111  1  0  0  0
 38 43  2  0  0  0
 38 46  1  0  0  0
 38 47  1  0  0  0
 39 64  1  0  0  0
 39 67  2  0  0  0
 40 52  1  0  0  0
 40 53  2  0  0  0
 40 58  1  0  0  0
 41112  1  0  0  0
 41113  1  0  0  0
 41114  1  0  0  0
 41 48  1  0  0  0
 42 43  1  0  0  0
 42 66  1  0  0  0
 42115  1  0  0  0
 42116  1  0  0  0
 43 44  1  0  0  0
 44117  1  0  0  0
 45 46  2  0  0  0
 45118  1  0  0  0
 46119  1  0  0  0
 47120  1  0  0  0
 47121  1  0  0  0
 48 56  1  0  0  0
 48 65  1  0  0  0
 48122  1  0  0  0
 49 50  1  0  0  0
 49 53  1  0  0  0
 49 64  1  0  0  0
 49123  1  0  0  0
 50 51  1  0  0  0
 50124  1  0  0  0
 50125  1  0  0  0
 51 52  1  0  0  0
 51126  1  0  0  0
 51127  1  0  0  0
 52128  1  0  0  0
 52129  1  0  0  0
 53 54  1  0  0  0
 54 55  2  0  0  0
 54130  1  0  0  0
 55 57  1  0  0  0
 55131  1  0  0  0
 56 69  2  0  0  0
 57 58  2  0  0  0
 57132  1  0  0  0
 58133  1  0  0  0
 59 60  1  0  0  0
 59 61  1  0  0  0
 59 62  1  0  0  0
 60134  1  0  0  0
 60135  1  0  0  0
 60136  1  0  0  0
 61137  1  0  0  0
 61138  1  0  0  0
 61139  1  0  0  0
 62140  1  0  0  0
 62141  1  0  0  0
 62142  1  0  0  0
 63 65  1  0  0  0
 63143  1  0  0  0
 63144  1  0  0  0
 63145  1  0  0  0
 64146  1  0  0  0
 65147  1  0  0  0
 68 85  1  0  0  0
 71 73  2  0  0  0
 71 74  1  0  0  0
 71148  1  0  0  0
 72 75  2  0  0  0
 72 76  1  0  0  0
 72149  1  0  0  0
 73 75  1  0  0  0
 73 82  1  0  0  0
 74 76  2  0  0  0
 74 86  1  0  0  0
 75 83  1  0  0  0
 76 88  1  0  0  0
 77 79  1  0  0  0
 77 81  1  0  0  0
 77150  1  0  0  0
 77151  1  0  0  0
 78 80  1  0  0  0
 78 81  1  0  0  0
 78152  1  0  0  0
 78153  1  0  0  0
 79 87  1  0  0  0
 79154  1  0  0  0
 79155  1  0  0  0
 80 87  1  0  0  0
 80156  1  0  0  0
 80157  1  0  0  0
 81 88  1  0  0  0
 81158  1  0  0  0
 82159  1  0  0  0
 82160  1  0  0  0
 82161  1  0  0  0
 83162  1  0  0  0
 83163  1  0  0  0
 83164  1  0  0  0
 84165  1  0  0  0
 84166  1  0  0  0
 84167  1  0  0  0
 84 86  1  0  0  0
 85 86  1  0  0  0
 85168  1  0  0  0
 85169  1  0  0  0
 86170  1  0  0  0
M  ISO  4   1 100  68 101  85 101  87 100
M  END
> <chiral flag>
0

> <version>
0

> <s_m_source_file>
/data/baiqing/PycharmProjects/Reinvent-master-3.2/result/LINK_invent/BTK/process_docking_weight1_custom_sum_contain_oxygen_bond_distance_aromatic_linkinvent_7_9_3/rearranged_h_0155.sdf

> <i_m_source_file_index>
58

> <r_mmod_Potential_Energy-OPLS-2005>
397.604553222656

> <r_mmod_Stretch_Energy-OPLS-2005>
112.260787963867

> <r_mmod_Bend_Energy-OPLS-2005>
223.209457397461

> <r_mmod_Torsional_Energy-OPLS-2005>
307.756195068359

> <r_mmod_Improper_Torsional_Energy-OPLS-2005>
8.74581432342529

> <r_mmod_Van_der_Waal_Energy-OPLS-2005>
172.985702514648

> <r_mmod_Electrostatic_Energy-OPLS-2005>
-306.520690917969

> <r_mmod_Solvation_Energy-OPLS-2005>
-201.7998046875

> <b_mmod_Minimization_Converged-OPLS-2005>
0

> <r_mmod_RMS_Derivative-OPLS-2005>
1.74014317989349

$$$$
58
                    3D
 Structure written by MMmdl.
170179  0  0  1  0            999 V2000
  -30.6952  -14.7379   20.4519 C   0  0  0  0  0  0
  -30.4099  -12.4666   19.4579 C   0  0  0  0  0  0
  -29.4899  -12.4988   18.2231 C   0  0  0  0  0  0
  -28.0211  -12.3264   18.6500 C   0  0  0  0  0  0
  -27.6320  -13.2396   19.8446 C   0  0  2  0  0  0
  -28.6889  -13.2089   20.9715 C   0  0  0  0  0  0
  -25.2460  -13.8217   20.5732 C   0  0  0  0  0  0
  -24.1771  -13.0437   20.9239 C   0  0  0  0  0  0
  -24.6384  -11.6922   20.8784 C   0  0  0  0  0  0
  -23.9075  -10.4293   21.0426 C   0  0  0  0  0  0
  -24.3621   -9.4200   21.9197 C   0  0  0  0  0  0
  -23.6297   -8.2235   22.0755 C   0  0  0  0  0  0
  -22.4278   -8.0279   21.3553 C   0  0  0  0  0  0
  -21.9919   -9.0252   20.4652 C   0  0  0  0  0  0
  -22.7250  -10.2134   20.3068 C   0  0  0  0  0  0
  -21.6841   -6.0735   22.5278 C   0  0  0  0  0  0
  -21.4008   -6.5637   23.8212 C   0  0  0  0  0  0
  -21.3655   -5.6789   24.9177 C   0  0  0  0  0  0
  -21.6045   -4.3054   24.7224 C   0  0  0  0  0  0
  -21.8811   -3.8144   23.4344 C   0  0  0  0  0  0
  -21.9183   -4.6961   22.3400 C   0  0  0  0  0  0
  -22.7790  -13.5215   21.1888 C   0  0  0  0  0  0
  -22.1646   -4.2146   21.0978 F   0  0  0  0  0  0
  -21.5640   -3.4539   25.7737 F   0  0  0  0  0  0
  -29.9681  -13.5690   20.3503 N   0  0  0  0  0  0
  -26.2904  -12.9440   20.3330 N   0  0  0  0  0  0
  -25.9320  -11.6580   20.5811 N   0  0  0  0  0  0
  -22.0425  -12.8219   22.0435 N   0  0  0  0  0  0
  -25.4089  -15.1936   20.4111 N   0  0  0  0  0  0
  -31.9083  -14.6582   20.2322 O   0  0  0  0  0  0
  -21.6635   -6.8877   21.4242 O   0  0  0  0  0  0
  -22.3483  -14.5518   20.6719 O   0  0  0  0  0  0
  -24.6304  -31.8559   23.2018 C   0  0  0  0  0  0
  -25.9127  -32.4765   23.8361 C   0  0  1  0  0  0
  -27.2074  -27.2734   20.1308 C   0  0  0  0  0  0
  -25.5928  -33.8571   24.2286 N   0  0  0  0  0  0
  -23.4279  -30.4798   21.5440 C   0  0  2  0  0  0
  -24.8757  -28.9345   20.1065 C   0  0  0  0  0  0
  -22.7511  -29.4601   22.4920 C   0  0  0  0  0  0
  -18.0284  -28.1374   22.8476 C   0  0  0  0  0  0
  -24.1492  -36.7287   23.2641 C   0  0  0  0  0  0
  -25.9736  -30.7735   21.3798 C   0  0  0  0  0  0
  -26.0476  -29.3985   20.7206 C   0  0  0  0  0  0
  -27.2228  -28.5796   20.7239 C   0  0  0  0  0  0
  -26.0246  -26.8860   19.4688 C   0  0  0  0  0  0
  -24.8689  -27.6864   19.4671 C   0  0  0  0  0  0
  -23.6457  -29.8180   20.1582 C   0  0  0  0  0  0
  -25.4119  -36.3087   24.0334 C   0  0  1  0  0  0
  -20.5893  -28.3686   23.1265 C   0  0  2  0  0  0
  -20.6775  -26.9406   22.5399 C   0  0  0  0  0  0
  -19.5756  -26.6376   21.5202 C   0  0  0  0  0  0
  -18.1935  -26.7915   22.1613 C   0  0  0  0  0  0
  -19.1539  -28.8849   23.2862 C   0  0  0  0  0  0
  -18.9459  -30.1448   23.8884 C   0  0  0  0  0  0
  -17.6459  -30.6580   24.0553 C   0  0  0  0  0  0
  -25.9056  -34.9450   23.5116 C   0  0  0  0  0  0
  -16.5350  -29.9074   23.6330 C   0  0  0  0  0  0
  -16.7269  -28.6489   23.0352 C   0  0  0  0  0  0
  -26.4498  -31.6577   25.0742 C   0  0  0  0  0  0
  -25.3728  -31.3714   26.1465 C   0  0  0  0  0  0
  -27.0325  -30.2992   24.6216 C   0  0  0  0  0  0
  -27.6077  -32.4286   25.7499 C   0  0  0  0  0  0
  -27.5582  -37.1813   24.8471 C   0  0  0  0  0  0
  -21.4218  -29.3040   22.3667 N   0  0  0  0  0  0
  -26.4303  -37.3777   23.9404 N   0  0  0  0  0  0
  -24.6966  -31.0534   22.0988 N   0  0  0  0  0  0
  -23.4218  -28.8128   23.3003 O   0  0  0  0  0  0
  -28.2473  -26.3233   20.1880 O   0  0  0  0  0  0
  -26.5626  -34.8919   22.4684 O   0  0  0  0  0  0
  -23.5453  -32.1360   23.7320 O   0  0  0  0  0  0
  -28.0471  -21.1817   19.9442 C   0  0  0  0  0  0
  -29.6529  -23.1224   21.1227 C   0  0  0  0  0  0
  -29.2288  -20.7064   20.5821 C   0  0  0  0  0  0
  -30.0579  -21.7424   21.1369 C   0  0  0  0  0  0
  -28.4441  -23.5868   20.5435 C   0  0  0  0  0  0
  -27.6507  -22.5724   19.9204 C   0  0  0  0  0  0
  -28.4665  -18.0701   20.8438 C   0  0  0  0  0  0
  -30.4429  -18.5539   19.5680 C   0  0  0  0  0  0
  -28.9491  -16.5709   21.1256 C   0  0  0  0  0  0
  -31.0187  -17.1236   19.8709 C   0  0  0  0  0  0
  -29.5900  -19.1435   20.7048 C   0  0  0  0  0  0
  -31.1576  -21.1468   23.3290 C   0  0  0  0  0  0
  -32.5025  -22.4124   21.5996 C   0  0  0  0  0  0
  -25.5874  -22.0307   18.7898 C   0  0  0  0  0  0
  -27.8688  -25.0419   20.8709 C   0  0  0  0  0  0
  -31.3797  -21.3852   21.8284 C   0  0  0  0  0  0
  -30.1158  -16.0228   20.3607 N   0  0  0  0  0  0
  -26.4669  -22.9974   19.3521 O   0  0  0  0  0  0
  -31.4499  -12.5579   19.1394 H   0  0  0  0  0  0
  -30.3440  -11.5050   19.9698 H   0  0  0  0  0  0
  -29.7726  -11.7148   17.5196 H   0  0  0  0  0  0
  -29.6108  -13.4458   17.6946 H   0  0  0  0  0  0
  -27.8841  -11.2808   18.9263 H   0  0  0  0  0  0
  -27.3561  -12.5044   17.8036 H   0  0  0  0  0  0
  -27.6132  -14.2523   19.4426 H   0  0  0  0  0  0
  -28.7465  -12.2182   21.4245 H   0  0  0  0  0  0
  -28.4353  -13.8914   21.7819 H   0  0  0  0  0  0
  -25.2751   -9.5671   22.4797 H   0  0  0  0  0  0
  -23.9993   -7.4617   22.7467 H   0  0  0  0  0  0
  -21.0850   -8.8778   19.8957 H   0  0  0  0  0  0
  -22.3705  -10.9684   19.6190 H   0  0  0  0  0  0
  -21.2003   -7.6145   23.9724 H   0  0  0  0  0  0
  -21.1491   -6.0519   25.9084 H   0  0  0  0  0  0
  -22.0600   -2.7609   23.2844 H   0  0  0  0  0  0
  -22.4023  -11.9881   22.4847 H   0  0  0  0  0  0
  -21.1039  -13.1259   22.2611 H   0  0  0  0  0  0
  -24.6380  -15.8416   20.5294 H   0  0  0  0  0  0
  -26.2533  -15.6411   20.0801 H   0  0  0  0  0  0
  -26.7198  -32.5420   23.1107 H   0  0  0  0  0  0
  -25.0090  -33.9713   25.0442 H   0  0  0  0  0  0
  -22.7245  -31.3021   21.3998 H   0  0  0  0  0  0
  -23.3753  -35.9622   23.3326 H   0  0  0  0  0  0
  -24.3581  -36.8874   22.2050 H   0  0  0  0  0  0
  -23.7248  -37.6505   23.6634 H   0  0  0  0  0  0
  -26.1095  -31.5351   20.6105 H   0  0  0  0  0  0
  -26.8535  -30.8229   22.0097 H   0  0  0  0  0  0
  -28.1160  -28.9232   21.2280 H   0  0  0  0  0  0
  -25.9799  -25.9234   18.9780 H   0  0  0  0  0  0
  -23.9764  -27.3304   18.9723 H   0  0  0  0  0  0
  -23.7676  -30.5952   19.4027 H   0  0  0  0  0  0
  -22.7662  -29.2470   19.8551 H   0  0  0  0  0  0
  -25.1303  -36.1951   25.0830 H   0  0  0  0  0  0
  -20.9974  -28.3243   24.1389 H   0  0  0  0  0  0
  -20.5649  -26.2302   23.3602 H   0  0  0  0  0  0
  -21.6644  -26.7417   22.1198 H   0  0  0  0  0  0
  -19.6920  -25.6284   21.1241 H   0  0  0  0  0  0
  -19.6702  -27.3182   20.6729 H   0  0  0  0  0  0
  -17.4207  -26.6647   21.4018 H   0  0  0  0  0  0
  -18.0344  -26.0052   22.9007 H   0  0  0  0  0  0
  -19.7939  -30.7256   24.2254 H   0  0  0  0  0  0
  -17.5019  -31.6266   24.5142 H   0  0  0  0  0  0
  -15.5353  -30.2975   23.7662 H   0  0  0  0  0  0
  -15.8663  -28.0810   22.7081 H   0  0  0  0  0  0
  -24.5902  -30.7075   25.7783 H   0  0  0  0  0  0
  -24.8929  -32.2875   26.4915 H   0  0  0  0  0  0
  -25.8042  -30.8865   27.0230 H   0  0  0  0  0  0
  -26.2898  -29.6752   24.1237 H   0  0  0  0  0  0
  -27.3997  -29.7247   25.4730 H   0  0  0  0  0  0
  -27.8785  -30.4264   23.9459 H   0  0  0  0  0  0
  -27.2732  -33.3604   26.2066 H   0  0  0  0  0  0
  -28.3893  -32.6798   25.0316 H   0  0  0  0  0  0
  -28.0734  -31.8403   26.5416 H   0  0  0  0  0  0
  -28.2621  -38.0090   24.7481 H   0  0  0  0  0  0
  -28.1058  -36.2620   24.6338 H   0  0  0  0  0  0
  -27.2295  -37.1501   25.8875 H   0  0  0  0  0  0
  -20.9408  -29.8785   21.6889 H   0  0  0  0  0  0
  -26.0189  -38.2862   24.1371 H   0  0  0  0  0  0
  -27.4163  -20.4294   19.4955 H   0  0  0  0  0  0
  -30.2504  -23.8564   21.6408 H   0  0  0  0  0  0
  -27.7889  -18.3680   21.6448 H   0  0  0  0  0  0
  -27.8587  -18.0762   19.9374 H   0  0  0  0  0  0
  -29.8597  -18.5297   18.6462 H   0  0  0  0  0  0
  -31.2811  -19.2213   19.3638 H   0  0  0  0  0  0
  -28.0886  -15.9245   20.9769 H   0  0  0  0  0  0
  -29.2035  -16.4872   22.1826 H   0  0  0  0  0  0
  -31.8078  -17.2465   20.6154 H   0  0  0  0  0  0
  -31.5203  -16.7901   18.9596 H   0  0  0  0  0  0
  -30.1591  -19.0392   21.6263 H   0  0  0  0  0  0
  -30.4195  -20.3643   23.5056 H   0  0  0  0  0  0
  -30.8006  -22.0509   23.8234 H   0  0  0  0  0  0
  -32.0814  -20.8412   23.8209 H   0  0  0  0  0  0
  -32.6478  -22.6133   20.5378 H   0  0  0  0  0  0
  -33.4484  -22.0381   21.9926 H   0  0  0  0  0  0
  -32.3084  -23.3591   22.1026 H   0  0  0  0  0  0
  -24.6901  -22.5306   18.4252 H   0  0  0  0  0  0
  -25.2681  -21.2952   19.5295 H   0  0  0  0  0  0
  -26.0426  -21.5162   17.9422 H   0  0  0  0  0  0
  -28.1227  -25.2131   21.9174 H   0  0  0  0  0  0
  -26.7856  -24.9296   20.9066 H   0  0  0  0  0  0
  -31.7626  -20.4658   21.3881 H   0  0  0  0  0  0
  1 25  1  0  0  0
  1 30  2  0  0  0
  1 87  1  0  0  0
  2  3  1  0  0  0
  2 25  1  0  0  0
  2 89  1  0  0  0
  2 90  1  0  0  0
  3  4  1  0  0  0
  3 91  1  0  0  0
  3 92  1  0  0  0
  4  5  1  0  0  0
  4 93  1  0  0  0
  4 94  1  0  0  0
  5  6  1  0  0  0
  5 26  1  0  0  0
  5 95  1  0  0  0
  6 25  1  0  0  0
  6 96  1  0  0  0
  6 97  1  0  0  0
  7  8  2  0  0  0
  7 26  1  0  0  0
  7 29  1  0  0  0
  8  9  1  0  0  0
  8 22  1  0  0  0
  9 10  1  0  0  0
  9 27  2  0  0  0
 10 11  2  0  0  0
 10 15  1  0  0  0
 11 12  1  0  0  0
 11 98  1  0  0  0
 12 13  2  0  0  0
 12 99  1  0  0  0
 13 14  1  0  0  0
 13 31  1  0  0  0
 14 15  2  0  0  0
 14100  1  0  0  0
 15101  1  0  0  0
 16 17  2  0  0  0
 16 21  1  0  0  0
 16 31  1  0  0  0
 17 18  1  0  0  0
 17102  1  0  0  0
 18 19  2  0  0  0
 18103  1  0  0  0
 19 20  1  0  0  0
 19 24  1  0  0  0
 20 21  2  0  0  0
 20104  1  0  0  0
 21 23  1  0  0  0
 22 28  1  0  0  0
 22 32  2  0  0  0
 26 27  1  0  0  0
 28105  1  0  0  0
 28106  1  0  0  0
 29107  1  0  0  0
 29108  1  0  0  0
 33 34  1  0  0  0
 33 66  1  0  0  0
 33 70  2  0  0  0
 34 36  1  0  0  0
 34 59  1  0  0  0
 34109  1  0  0  0
 35 44  2  0  0  0
 35 45  1  0  0  0
 35 68  1  0  0  0
 36 56  1  0  0  0
 36110  1  0  0  0
 37 39  1  0  0  0
 37 47  1  0  0  0
 37 66  1  0  0  0
 37111  1  0  0  0
 38 43  2  0  0  0
 38 46  1  0  0  0
 38 47  1  0  0  0
 39 64  1  0  0  0
 39 67  2  0  0  0
 40 52  1  0  0  0
 40 53  2  0  0  0
 40 58  1  0  0  0
 41112  1  0  0  0
 41113  1  0  0  0
 41114  1  0  0  0
 41 48  1  0  0  0
 42 43  1  0  0  0
 42 66  1  0  0  0
 42115  1  0  0  0
 42116  1  0  0  0
 43 44  1  0  0  0
 44117  1  0  0  0
 45 46  2  0  0  0
 45118  1  0  0  0
 46119  1  0  0  0
 47120  1  0  0  0
 47121  1  0  0  0
 48 56  1  0  0  0
 48 65  1  0  0  0
 48122  1  0  0  0
 49 50  1  0  0  0
 49 53  1  0  0  0
 49 64  1  0  0  0
 49123  1  0  0  0
 50 51  1  0  0  0
 50124  1  0  0  0
 50125  1  0  0  0
 51 52  1  0  0  0
 51126  1  0  0  0
 51127  1  0  0  0
 52128  1  0  0  0
 52129  1  0  0  0
 53 54  1  0  0  0
 54 55  2  0  0  0
 54130  1  0  0  0
 55 57  1  0  0  0
 55131  1  0  0  0
 56 69  2  0  0  0
 57 58  2  0  0  0
 57132  1  0  0  0
 58133  1  0  0  0
 59 60  1  0  0  0
 59 61  1  0  0  0
 59 62  1  0  0  0
 60134  1  0  0  0
 60135  1  0  0  0
 60136  1  0  0  0
 61137  1  0  0  0
 61138  1  0  0  0
 61139  1  0  0  0
 62140  1  0  0  0
 62141  1  0  0  0
 62142  1  0  0  0
 63 65  1  0  0  0
 63143  1  0  0  0
 63144  1  0  0  0
 63145  1  0  0  0
 64146  1  0  0  0
 65147  1  0  0  0
 68 85  1  0  0  0
 71 73  2  0  0  0
 71 76  1  0  0  0
 71148  1  0  0  0
 72 74  2  0  0  0
 72 75  1  0  0  0
 72149  1  0  0  0
 73 74  1  0  0  0
 73 81  1  0  0  0
 74 86  1  0  0  0
 75 76  2  0  0  0
 75 85  1  0  0  0
 76 88  1  0  0  0
 77 79  1  0  0  0
 77 81  1  0  0  0
 77150  1  0  0  0
 77151  1  0  0  0
 78 80  1  0  0  0
 78 81  1  0  0  0
 78152  1  0  0  0
 78153  1  0  0  0
 79 87  1  0  0  0
 79154  1  0  0  0
 79155  1  0  0  0
 80 87  1  0  0  0
 80156  1  0  0  0
 80157  1  0  0  0
 81158  1  0  0  0
 82159  1  0  0  0
 82160  1  0  0  0
 82161  1  0  0  0
 82 86  1  0  0  0
 83 86  1  0  0  0
 83162  1  0  0  0
 83163  1  0  0  0
 83164  1  0  0  0
 84 88  1  0  0  0
 84165  1  0  0  0
 84166  1  0  0  0
 84167  1  0  0  0
 85168  1  0  0  0
 85169  1  0  0  0
 86170  1  0  0  0
M  ISO  4   1 100  68 101  85 101  87 100
M  END
> <chiral flag>
0

> <version>
0

> <s_m_source_file>
/data/baiqing/PycharmProjects/Reinvent-master-3.2/result/LINK_invent/BTK/process_docking_weight1_custom_sum_contain_oxygen_bond_distance_aromatic_linkinvent_7_9_3/rearranged_h_0155.sdf

> <i_m_source_file_index>
59

> <r_mmod_Potential_Energy-OPLS-2005>
448.900726318359

> <r_mmod_Stretch_Energy-OPLS-2005>
120.768226623535

> <r_mmod_Bend_Energy-OPLS-2005>
210.741897583008

> <r_mmod_Torsional_Energy-OPLS-2005>
342.853210449219

> <r_mmod_Improper_Torsional_Energy-OPLS-2005>
16.5478439331055

> <r_mmod_Van_der_Waal_Energy-OPLS-2005>
158.294998168945

> <r_mmod_Electrostatic_Energy-OPLS-2005>
-297.834655761719

> <r_mmod_Solvation_Energy-OPLS-2005>
-197.50358581543

> <b_mmod_Minimization_Converged-OPLS-2005>
0

> <r_mmod_RMS_Derivative-OPLS-2005>
1.44489085674286

$$$$
59
                    3D
 Structure written by MMmdl.
180189  0  0  1  0            999 V2000
  -29.5606  -16.1251   20.9773 C   0  0  0  0  0  0
  -30.2506  -13.5949   19.8098 C   0  0  0  0  0  0
  -29.5583  -12.9222   18.5478 C   0  0  0  0  0  0
  -28.1632  -12.3916   18.8705 C   0  0  0  0  0  0
  -27.5177  -13.3532   19.8847 C   0  0  2  0  0  0
  -28.3629  -13.7301   21.1213 C   0  0  0  0  0  0
  -25.1788  -13.8346   20.5837 C   0  0  0  0  0  0
  -24.1299  -13.0441   20.9319 C   0  0  0  0  0  0
  -24.6085  -11.6991   20.8754 C   0  0  0  0  0  0
  -23.8927  -10.4329   21.0444 C   0  0  0  0  0  0
  -24.3569   -9.4227   21.9177 C   0  0  0  0  0  0
  -23.6273   -8.2238   22.0756 C   0  0  0  0  0  0
  -22.4235   -8.0268   21.3557 C   0  0  0  0  0  0
  -21.9859   -9.0213   20.4656 C   0  0  0  0  0  0
  -22.7150  -10.2095   20.3054 C   0  0  0  0  0  0
  -21.6870   -6.0706   22.5275 C   0  0  0  0  0  0
  -21.4020   -6.5637   23.8195 C   0  0  0  0  0  0
  -21.3646   -5.6799   24.9172 C   0  0  0  0  0  0
  -21.6058   -4.3059   24.7236 C   0  0  0  0  0  0
  -21.8812   -3.8135   23.4361 C   0  0  0  0  0  0
  -21.9195   -4.6942   22.3414 C   0  0  0  0  0  0
  -22.7365  -13.5151   21.1997 C   0  0  0  0  0  0
  -22.1670   -4.2139   21.0990 F   0  0  0  0  0  0
  -21.5611   -3.4544   25.7736 F   0  0  0  0  0  0
  -29.3857  -14.6485   20.6473 N   0  0  0  0  0  0
  -26.2091  -12.9674   20.3131 N   0  0  0  0  0  0
  -25.8966  -11.6718   20.5610 N   0  0  0  0  0  0
  -22.0133  -12.8101   22.0628 N   0  0  0  0  0  0
  -25.3482  -15.2103   20.4529 N   0  0  0  0  0  0
  -30.8068  -16.1824   20.6944 O   0  0  0  0  0  0
  -21.6645   -6.8813   21.4214 O   0  0  0  0  0  0
  -22.3059  -14.5491   20.6893 O   0  0  0  0  0  0
  -24.9094  -31.9651   23.1089 C   0  0  0  0  0  0
  -26.1253  -32.5369   23.8931 C   0  0  1  0  0  0
  -26.5119  -27.2546   20.1223 C   0  0  0  0  0  0
  -25.8176  -33.9226   24.2981 N   0  0  0  0  0  0
  -24.0831  -30.1322   21.5594 C   0  0  2  0  0  0
  -25.4464  -29.5390   19.6457 C   0  0  0  0  0  0
  -23.7053  -28.5234   22.2683 C   0  0  0  0  0  0
  -17.9516  -27.7367   22.8218 C   0  0  0  0  0  0
  -24.1665  -36.7098   23.2448 C   0  0  0  0  0  0
  -26.4345  -30.6636   21.6624 C   0  0  0  0  0  0
  -26.4124  -29.5328   20.6392 C   0  0  0  0  0  0
  -27.1221  -28.3403   20.7883 C   0  0  0  0  0  0
  -26.2751  -27.4126   18.7985 C   0  0  0  0  0  0
  -25.5126  -28.5898   18.5941 C   0  0  0  0  0  0
  -24.3323  -30.4053   20.0280 C   0  0  0  0  0  0
  -25.4413  -36.3236   24.0212 C   0  0  1  0  0  0
  -20.7087  -27.1588   22.8622 C   0  0  2  0  0  0
  -20.3683  -26.0665   22.0047 C   0  0  0  0  0  0
  -19.1696  -26.4259   21.1610 C   0  0  0  0  0  0
  -17.8965  -26.5279   21.9468 C   0  0  0  0  0  0
  -19.1891  -27.9998   23.4499 C   0  0  0  0  0  0
  -18.9754  -29.1484   24.3717 C   0  0  0  0  0  0
  -17.9104  -30.1147   24.2777 C   0  0  0  0  0  0
  -25.9893  -34.9812   23.4984 C   0  0  0  0  0  0
  -16.7648  -29.7729   23.5763 C   0  0  0  0  0  0
  -16.7779  -28.5223   22.9475 C   0  0  0  0  0  0
  -26.5286  -31.6857   25.1688 C   0  0  0  0  0  0
  -25.3588  -31.4061   26.1216 C   0  0  0  0  0  0
  -27.1311  -30.3024   24.8312 C   0  0  0  0  0  0
  -27.6504  -32.4148   25.9581 C   0  0  0  0  0  0
  -27.5662  -37.2133   24.8581 C   0  0  0  0  0  0
  -22.3905  -27.5821   22.1992 N   0  0  0  0  0  0
  -26.4254  -37.4232   23.9645 N   0  0  0  0  0  0
  -25.1194  -30.9095   22.2554 N   0  0  0  0  0  0
  -24.4787  -28.4070   23.2040 O   0  0  0  0  0  0
  -25.1810  -27.0265   20.5329 O   0  0  0  0  0  0
  -26.5538  -34.9067   22.3975 O   0  0  0  0  0  0
  -23.7829  -32.4268   23.3675 O   0  0  0  0  0  0
  -23.6245  -26.4032   25.6115 C   0  0  0  0  0  0
  -23.7077  -25.2627   23.5070 C   0  0  0  0  0  0
  -25.0235  -24.2344   25.1247 C   0  0  0  0  0  0
  -23.0877  -26.6626   24.3632 C   0  0  0  0  0  0
  -24.4969  -25.3098   25.9835 C   0  0  0  0  0  0
  -24.7874  -23.9140   23.7458 C   0  0  0  0  0  0
  -20.9556  -29.5891   22.8325 C   0  0  0  0  0  0
  -22.1787  -30.1572   23.4161 C   0  0  0  0  0  0
  -22.0397  -28.6349   24.2457 C   0  0  2  0  0  0
  -24.5461  -26.5979   28.2790 C   0  0  0  0  0  0
  -26.3977  -25.0444   27.6323 C   0  0  0  0  0  0
  -28.3518  -19.1336   23.6534 C   0  0  0  0  0  0
  -20.9792  -28.2544   19.3425 C   0  0  0  0  0  0
  -26.3203  -20.7914   22.4018 C   0  0  0  0  0  0
  -23.5684  -27.4884   19.9239 C   0  0  0  0  0  0
  -24.8994  -25.3226   27.4719 C   0  0  0  0  0  0
  -27.8979  -19.2178   22.1845 C   0  0  2  0  0  0
  -22.1283  -28.8633   20.2017 C   0  0  2  0  0  0
  -25.7529  -22.4697   23.2474 N   0  0  0  0  0  0
  -28.5286  -17.4259   21.4448 N   0  0  0  0  0  0
  -21.6436  -29.9041   21.6904 N   0  3  1  0  0  0
  -31.1382  -14.1107   19.4403 H   0  0  0  0  0  0
  -30.6508  -12.8325   20.4713 H   0  0  0  0  0  0
  -30.1843  -12.1396   18.1173 H   0  0  0  0  0  0
  -29.4760  -13.6962   17.7760 H   0  0  0  0  0  0
  -28.2491  -11.3925   19.2996 H   0  0  0  0  0  0
  -27.5614  -12.3232   17.9686 H   0  0  0  0  0  0
  -27.3636  -14.2654   19.3031 H   0  0  0  0  0  0
  -28.7446  -12.8606   21.6724 H   0  0  0  0  0  0
  -27.7533  -14.2985   21.8324 H   0  0  0  0  0  0
  -25.2656   -9.5795   22.4816 H   0  0  0  0  0  0
  -24.0034   -7.4645   22.7487 H   0  0  0  0  0  0
  -21.0769   -8.8663   19.8988 H   0  0  0  0  0  0
  -22.3509  -10.9630   19.6237 H   0  0  0  0  0  0
  -21.2026   -7.6152   23.9685 H   0  0  0  0  0  0
  -21.1479   -6.0548   25.9066 H   0  0  0  0  0  0
  -22.0612   -2.7605   23.2851 H   0  0  0  0  0  0
  -22.3798  -11.9676   22.4832 H   0  0  0  0  0  0
  -21.0803  -13.1137   22.3015 H   0  0  0  0  0  0
  -24.5950  -15.8780   20.5631 H   0  0  0  0  0  0
  -26.2127  -15.6393   20.1534 H   0  0  0  0  0  0
  -27.0137  -32.5621   23.2601 H   0  0  0  0  0  0
  -25.3827  -34.0586   25.2042 H   0  0  0  0  0  0
  -23.4559  -31.0253   21.6213 H   0  0  0  0  0  0
  -23.4222  -35.9164   23.3258 H   0  0  0  0  0  0
  -24.3552  -36.8752   22.1819 H   0  0  0  0  0  0
  -23.6989  -37.6144   23.6380 H   0  0  0  0  0  0
  -26.7693  -31.5824   21.1941 H   0  0  0  0  0  0
  -27.2127  -30.4049   22.3550 H   0  0  0  0  0  0
  -27.6956  -28.1553   21.6909 H   0  0  0  0  0  0
  -26.1755  -26.5525   18.1544 H   0  0  0  0  0  0
  -24.8375  -28.6324   17.7513 H   0  0  0  0  0  0
  -24.7912  -31.3974   19.9897 H   0  0  0  0  0  0
  -23.6230  -30.7291   19.2665 H   0  0  0  0  0  0
  -25.1467  -36.2104   25.0702 H   0  0  0  0  0  0
  -20.8168  -26.6017   23.7867 H   0  0  0  0  0  0
  -20.1370  -25.1639   22.5879 H   0  0  0  0  0  0
  -21.2034  -25.7510   21.3759 H   0  0  0  0  0  0
  -19.0051  -25.7090   20.3541 H   0  0  0  0  0  0
  -19.1931  -27.4173   20.7298 H   0  0  0  0  0  0
  -17.0704  -26.6697   21.2326 H   0  0  0  0  0  0
  -17.6740  -25.5952   22.4767 H   0  0  0  0  0  0
  -19.7641  -29.4136   25.0589 H   0  0  0  0  0  0
  -17.9613  -31.0348   24.8393 H   0  0  0  0  0  0
  -15.9198  -30.4345   23.4907 H   0  0  0  0  0  0
  -15.8819  -28.1877   22.4577 H   0  0  0  0  0  0
  -24.6286  -30.7556   25.6326 H   0  0  0  0  0  0
  -24.8758  -32.3418   26.4181 H   0  0  0  0  0  0
  -25.7006  -30.8913   27.0246 H   0  0  0  0  0  0
  -26.4554  -29.6820   24.2426 H   0  0  0  0  0  0
  -27.3031  -29.7375   25.7554 H   0  0  0  0  0  0
  -28.1124  -30.3821   24.3431 H   0  0  0  0  0  0
  -27.2962  -33.3281   26.4353 H   0  0  0  0  0  0
  -28.4987  -32.6913   25.3274 H   0  0  0  0  0  0
  -28.0436  -31.7893   26.7731 H   0  0  0  0  0  0
  -28.2734  -38.0438   24.7810 H   0  0  0  0  0  0
  -28.1094  -36.2970   24.6235 H   0  0  0  0  0  0
  -27.2293  -37.1634   25.8950 H   0  0  0  0  0  0
  -22.8512  -26.7862   22.6261 H   0  0  0  0  0  0
  -26.0018  -38.3137   24.2182 H   0  0  0  0  0  0
  -23.3379  -27.1999   26.2837 H   0  0  0  0  0  0
  -23.3076  -25.1977   22.4988 H   0  0  0  0  0  0
  -25.7033  -23.5312   25.5800 H   0  0  0  0  0  0
  -20.1880  -30.4036   22.9448 H   0  0  0  0  0  0
  -20.3859  -29.1627   21.9886 H   0  0  0  0  0  0
  -23.1950  -30.2468   23.8551 H   0  0  0  0  0  0
  -21.8144  -31.1113   23.9066 H   0  0  0  0  0  0
  -21.7508  -28.9005   25.2669 H   0  0  0  0  0  0
  -25.1626  -27.4413   27.9760 H   0  0  0  0  0  0
  -24.6855  -26.4365   29.3465 H   0  0  0  0  0  0
  -23.5026  -26.8895   28.1996 H   0  0  0  0  0  0
  -26.7189  -25.1047   28.6702 H   0  0  0  0  0  0
  -26.9628  -25.7745   27.0486 H   0  0  0  0  0  0
  -26.6866  -24.0454   27.2915 H   0  0  0  0  0  0
  -27.6372  -18.5565   24.2346 H   0  0  0  0  0  0
  -28.4157  -20.1239   24.1139 H   0  0  0  0  0  0
  -29.3326  -18.6669   23.7605 H   0  0  0  0  0  0
  -21.2395  -28.2614   18.2799 H   0  0  0  0  0  0
  -20.0516  -28.8127   19.4269 H   0  0  0  0  0  0
  -20.8371  -27.1881   19.5014 H   0  0  0  0  0  0
  -25.5164  -20.1249   22.6865 H   0  0  0  0  0  0
  -26.1046  -21.0135   21.3562 H   0  0  0  0  0  0
  -23.5638  -27.2925   18.8660 H   0  0  0  0  0  0
  -23.1052  -26.5312   20.1772 H   0  0  0  0  0  0
  -24.3544  -24.5069   27.9412 H   0  0  0  0  0  0
  -28.6771  -19.8525   21.7283 H   0  0  0  0  0  0
  -22.1714  -29.6153   19.4422 H   0  0  0  0  0  0
  -26.4553  -22.5013   23.9811 H   0  0  0  0  0  0
  -29.2822  -17.9453   21.0256 H   0  0  0  0  0  0
  -21.0552  -30.6535   21.3012 H   0  0  0  0  0  0
  1 25  1  0  0  0
  1 30  2  0  0  0
  1 90  1  0  0  0
  2  3  1  0  0  0
  2 25  1  0  0  0
  2 92  1  0  0  0
  2 93  1  0  0  0
  3  4  1  0  0  0
  3 94  1  0  0  0
  3 95  1  0  0  0
  4  5  1  0  0  0
  4 96  1  0  0  0
  4 97  1  0  0  0
  5  6  1  0  0  0
  5 26  1  0  0  0
  5 98  1  0  0  0
  6 25  1  0  0  0
  6 99  1  0  0  0
  6100  1  0  0  0
  7  8  2  0  0  0
  7 26  1  0  0  0
  7 29  1  0  0  0
  8  9  1  0  0  0
  8 22  1  0  0  0
  9 10  1  0  0  0
  9 27  2  0  0  0
 10 11  2  0  0  0
 10 15  1  0  0  0
 11 12  1  0  0  0
 11101  1  0  0  0
 12 13  2  0  0  0
 12102  1  0  0  0
 13 14  1  0  0  0
 13 31  1  0  0  0
 14 15  2  0  0  0
 14103  1  0  0  0
 15104  1  0  0  0
 16 17  2  0  0  0
 16 21  1  0  0  0
 16 31  1  0  0  0
 17 18  1  0  0  0
 17105  1  0  0  0
 18 19  2  0  0  0
 18106  1  0  0  0
 19 20  1  0  0  0
 19 24  1  0  0  0
 20 21  2  0  0  0
 20107  1  0  0  0
 21 23  1  0  0  0
 22 28  1  0  0  0
 22 32  2  0  0  0
 26 27  1  0  0  0
 28108  1  0  0  0
 28109  1  0  0  0
 29110  1  0  0  0
 29111  1  0  0  0
 33 34  1  0  0  0
 33 66  1  0  0  0
 33 70  2  0  0  0
 34 36  1  0  0  0
 34 59  1  0  0  0
 34112  1  0  0  0
 35 44  2  0  0  0
 35 45  1  0  0  0
 35 68  1  0  0  0
 36 56  1  0  0  0
 36113  1  0  0  0
 37 39  1  0  0  0
 37 47  1  0  0  0
 37 66  1  0  0  0
 37114  1  0  0  0
 38 43  2  0  0  0
 38 46  1  0  0  0
 38 47  1  0  0  0
 39 64  1  0  0  0
 39 67  2  0  0  0
 40 52  1  0  0  0
 40 53  2  0  0  0
 40 58  1  0  0  0
 41115  1  0  0  0
 41116  1  0  0  0
 41117  1  0  0  0
 41 48  1  0  0  0
 42 43  1  0  0  0
 42 66  1  0  0  0
 42118  1  0  0  0
 42119  1  0  0  0
 43 44  1  0  0  0
 44120  1  0  0  0
 45 46  2  0  0  0
 45121  1  0  0  0
 46122  1  0  0  0
 47123  1  0  0  0
 47124  1  0  0  0
 48 56  1  0  0  0
 48 65  1  0  0  0
 48125  1  0  0  0
 49 50  1  0  0  0
 49 53  1  0  0  0
 49 64  1  0  0  0
 49126  1  0  0  0
 50 51  1  0  0  0
 50127  1  0  0  0
 50128  1  0  0  0
 51 52  1  0  0  0
 51129  1  0  0  0
 51130  1  0  0  0
 52131  1  0  0  0
 52132  1  0  0  0
 53 54  1  0  0  0
 54 55  2  0  0  0
 54133  1  0  0  0
 55 57  1  0  0  0
 55134  1  0  0  0
 56 69  2  0  0  0
 57 58  2  0  0  0
 57135  1  0  0  0
 58136  1  0  0  0
 59 60  1  0  0  0
 59 61  1  0  0  0
 59 62  1  0  0  0
 60137  1  0  0  0
 60138  1  0  0  0
 60139  1  0  0  0
 61140  1  0  0  0
 61141  1  0  0  0
 61142  1  0  0  0
 62143  1  0  0  0
 62144  1  0  0  0
 62145  1  0  0  0
 63 65  1  0  0  0
 63146  1  0  0  0
 63147  1  0  0  0
 63148  1  0  0  0
 64149  1  0  0  0
 65150  1  0  0  0
 68 85  1  0  0  0
 71 74  2  0  0  0
 71 75  1  0  0  0
 71151  1  0  0  0
 72 74  1  0  0  0
 72 76  2  0  0  0
 72152  1  0  0  0
 73 75  2  0  0  0
 73 76  1  0  0  0
 73153  1  0  0  0
 74 79  1  0  0  0
 75 86  1  0  0  0
 76 89  1  0  0  0
 77 79  1  0  0  0
 77154  1  0  0  0
 77155  1  0  0  0
 77 91  1  0  0  0
 78 79  1  0  0  0
 78 91  1  0  0  0
 78156  1  0  0  0
 78157  1  0  0  0
 79158  1  0  0  0
 80159  1  0  0  0
 80160  1  0  0  0
 80161  1  0  0  0
 80 86  1  0  0  0
 81 86  1  0  0  0
 81162  1  0  0  0
 81163  1  0  0  0
 81164  1  0  0  0
 82165  1  0  0  0
 82166  1  0  0  0
 82167  1  0  0  0
 82 87  1  0  0  0
 83168  1  0  0  0
 83169  1  0  0  0
 83170  1  0  0  0
 83 88  1  0  0  0
 84 87  1  0  0  0
 84 89  1  0  0  0
 84171  1  0  0  0
 84172  1  0  0  0
 85 88  1  0  0  0
 85173  1  0  0  0
 85174  1  0  0  0
 86175  1  0  0  0
 87 90  1  0  0  0
 87176  1  0  0  0
 88 91  1  0  0  0
 88177  1  0  0  0
 89178  1  0  0  0
 90179  1  0  0  0
 91180  1  0  0  0
M  CHG  1  91   1
M  ISO  4   1 100  68 101  85 101  90 100
M  END
> <chiral flag>
0

> <version>
0

> <s_m_source_file>
/data/baiqing/PycharmProjects/Reinvent-master-3.2/result/LINK_invent/BTK/process_docking_weight1_custom_sum_contain_oxygen_bond_distance_aromatic_linkinvent_7_9_3/rearranged_h_0155.sdf

> <i_m_source_file_index>
60

> <r_mmod_Potential_Energy-OPLS-2005>
14663.732421875

> <r_mmod_Stretch_Energy-OPLS-2005>
5385.9794921875

> <r_mmod_Bend_Energy-OPLS-2005>
2820.09423828125

> <r_mmod_Torsional_Energy-OPLS-2005>
655.221557617188

> <r_mmod_Improper_Torsional_Energy-OPLS-2005>
66.9349594116211

> <r_mmod_Van_der_Waal_Energy-OPLS-2005>
1938.49633789062

> <r_mmod_Electrostatic_Energy-OPLS-2005>
-361.315063476562

> <r_mmod_Solvation_Energy-OPLS-2005>
-394.646575927734

> <b_mmod_Minimization_Converged-OPLS-2005>
0

> <r_mmod_RMS_Derivative-OPLS-2005>
34.6272392272949

$$$$
60
                    3D
 Structure written by MMmdl.
186196  0  0  1  0            999 V2000
  -30.7417  -14.3756   20.6616 C   0  0  0  0  0  0
  -30.4200  -12.2790   19.3931 C   0  0  0  0  0  0
  -29.4841  -12.5133   18.1890 C   0  0  0  0  0  0
  -28.0083  -12.3629   18.6108 C   0  0  0  0  0  0
  -27.6653  -13.1951   19.8734 C   0  0  2  0  0  0
  -28.7017  -12.9309   20.9868 C   0  0  0  0  0  0
  -25.2623  -13.8163   20.5701 C   0  0  0  0  0  0
  -24.1852  -13.0432   20.9180 C   0  0  0  0  0  0
  -24.6396  -11.6906   20.8699 C   0  0  0  0  0  0
  -23.9070  -10.4293   21.0371 C   0  0  0  0  0  0
  -24.3621   -9.4226   21.9158 C   0  0  0  0  0  0
  -23.6296   -8.2260   22.0742 C   0  0  0  0  0  0
  -22.4263   -8.0292   21.3563 C   0  0  0  0  0  0
  -21.9912   -9.0253   20.4650 C   0  0  0  0  0  0
  -22.7237  -10.2146   20.3044 C   0  0  0  0  0  0
  -21.6844   -6.0768   22.5292 C   0  0  0  0  0  0
  -21.4013   -6.5665   23.8231 C   0  0  0  0  0  0
  -21.3661   -5.6817   24.9195 C   0  0  0  0  0  0
  -21.6038   -4.3077   24.7239 C   0  0  0  0  0  0
  -21.8809   -3.8176   23.4358 C   0  0  0  0  0  0
  -21.9192   -4.6998   22.3417 C   0  0  0  0  0  0
  -22.7899  -13.5266   21.1856 C   0  0  0  0  0  0
  -22.1663   -4.2183   21.0998 F   0  0  0  0  0  0
  -21.5621   -3.4544   25.7751 F   0  0  0  0  0  0
  -30.0456  -13.2266   20.4544 N   0  0  0  0  0  0
  -26.3042  -12.9308   20.3361 N   0  0  0  0  0  0
  -25.9312  -11.6470   20.5727 N   0  0  0  0  0  0
  -22.0542  -12.8225   22.0415 N   0  0  0  0  0  0
  -25.4359  -15.1875   20.4172 N   0  0  0  0  0  0
  -31.7804  -14.6633   20.0598 O   0  0  0  0  0  0
  -21.6631   -6.8894   21.4249 O   0  0  0  0  0  0
  -22.3592  -14.5586   20.6756 O   0  0  0  0  0  0
  -24.6137  -31.8730   23.2190 C   0  0  0  0  0  0
  -25.9091  -32.4798   23.8433 C   0  0  1  0  0  0
  -27.2201  -27.4614   20.0234 C   0  0  0  0  0  0
  -25.6028  -33.8608   24.2354 N   0  0  0  0  0  0
  -23.3930  -30.5040   21.5609 C   0  0  2  0  0  0
  -24.8311  -28.9762   20.1174 C   0  0  0  0  0  0
  -22.7351  -29.4699   22.5037 C   0  0  0  0  0  0
  -18.0260  -28.1399   22.8501 C   0  0  0  0  0  0
  -24.1491  -36.7290   23.2609 C   0  0  0  0  0  0
  -25.9274  -30.8297   21.3779 C   0  0  0  0  0  0
  -25.9951  -29.4717   20.7136 C   0  0  0  0  0  0
  -27.1882  -28.7148   20.6760 C   0  0  0  0  0  0
  -26.0264  -26.9749   19.4390 C   0  0  0  0  0  0
  -24.8406  -27.7247   19.4892 C   0  0  0  0  0  0
  -23.5974  -29.8477   20.1722 C   0  0  0  0  0  0
  -25.4111  -36.3070   24.0308 C   0  0  1  0  0  0
  -20.5851  -28.3678   23.1367 C   0  0  2  0  0  0
  -20.6773  -26.9433   22.5433 C   0  0  0  0  0  0
  -19.5749  -26.6401   21.5234 C   0  0  0  0  0  0
  -18.1912  -26.7935   22.1633 C   0  0  0  0  0  0
  -19.1505  -28.8856   23.2920 C   0  0  0  0  0  0
  -18.9420  -30.1483   23.8915 C   0  0  0  0  0  0
  -17.6413  -30.6608   24.0587 C   0  0  0  0  0  0
  -25.9044  -34.9448   23.5079 C   0  0  0  0  0  0
  -16.5318  -29.9106   23.6365 C   0  0  0  0  0  0
  -16.7238  -28.6540   23.0349 C   0  0  0  0  0  0
  -26.4478  -31.6588   25.0778 C   0  0  0  0  0  0
  -25.3738  -31.3785   26.1543 C   0  0  0  0  0  0
  -27.0184  -30.2948   24.6254 C   0  0  0  0  0  0
  -27.6116  -32.4271   25.7498 C   0  0  0  0  0  0
  -27.5562  -37.1782   24.8454 C   0  0  0  0  0  0
  -21.4082  -29.3030   22.3750 N   0  0  0  0  0  0
  -26.4277  -37.3764   23.9403 N   0  0  0  0  0  0
  -24.6612  -31.0844   22.1083 N   0  0  0  0  0  0
  -23.4148  -28.8255   23.3081 O   0  0  0  0  0  0
  -28.4251  -26.7864   19.9760 O   0  0  0  0  0  0
  -26.5530  -34.8884   22.4595 O   0  0  0  0  0  0
  -23.5346  -32.1539   23.7601 O   0  0  0  0  0  0
  -30.3282  -19.7257   22.8210 C   0  0  0  0  0  0
  -29.4292  -18.9559   23.5936 C   0  0  0  0  0  0
  -30.4099  -21.1226   23.0233 C   0  0  0  0  0  0
  -28.6796  -19.6229   24.5960 C   0  0  0  0  0  0
  -29.5823  -21.6879   24.0149 C   0  0  0  0  0  0
  -28.7217  -17.2590   21.8352 C   0  0  0  0  0  0
  -30.5232  -16.6391   23.5482 C   0  0  0  0  0  0
  -32.0268  -22.9655   20.2804 C   0  0  0  0  0  0
  -29.6990  -21.9028   20.3680 C   0  0  0  0  0  0
  -29.7322  -16.5578   20.9145 C   0  0  0  0  0  0
  -30.4175  -15.2312   22.9271 C   0  0  0  0  0  0
  -31.7992  -23.2108   18.7709 C   0  0  0  0  0  0
  -29.5634  -22.2127   18.8711 C   0  0  0  0  0  0
  -29.2522  -17.4698   23.2751 C   0  0  0  0  0  0
  -31.1701  -21.8023   20.8428 C   0  0  2  0  0  0
  -27.7263  -18.9067   25.5388 C   0  0  0  0  0  0
  -29.5030  -23.1879   24.2137 C   0  0  0  0  0  0
  -29.8829  -24.2576   17.4552 C   0  0  0  0  0  0
  -28.5357  -25.5452   19.2744 C   0  0  0  0  0  0
  -29.4385  -25.6466   18.0014 C   0  0  1  0  0  0
  -28.7613  -20.9552   24.7938 N   0  0  0  0  0  0
  -30.1429  -15.2647   21.4789 N   0  0  0  0  0  0
  -30.3505  -23.4283   18.5875 N   0  3  2  0  0  0
  -28.7779  -26.3678   16.9663 O   0  0  0  0  0  0
  -31.2216  -21.9392   22.2671 O   0  0  0  0  0  0
  -31.4659  -12.3739   19.0942 H   0  0  0  0  0  0
  -30.3118  -11.2582   19.7682 H   0  0  0  0  0  0
  -29.7139  -11.8108   17.3857 H   0  0  0  0  0  0
  -29.6469  -13.5125   17.7801 H   0  0  0  0  0  0
  -27.8299  -11.3064   18.8146 H   0  0  0  0  0  0
  -27.3434  -12.6287   17.7854 H   0  0  0  0  0  0
  -27.7268  -14.2489   19.5944 H   0  0  0  0  0  0
  -28.6624  -11.8904   21.3057 H   0  0  0  0  0  0
  -28.4423  -13.5028   21.8743 H   0  0  0  0  0  0
  -25.2745   -9.5734   22.4740 H   0  0  0  0  0  0
  -24.0025   -7.4669   22.7468 H   0  0  0  0  0  0
  -21.0838   -8.8776   19.8948 H   0  0  0  0  0  0
  -22.3656  -10.9698   19.6181 H   0  0  0  0  0  0
  -21.1993   -7.6167   23.9760 H   0  0  0  0  0  0
  -21.1487   -6.0539   25.9119 H   0  0  0  0  0  0
  -22.0570   -2.7628   23.2850 H   0  0  0  0  0  0
  -22.4139  -11.9848   22.4719 H   0  0  0  0  0  0
  -21.1196  -13.1292   22.2683 H   0  0  0  0  0  0
  -24.6671  -15.8406   20.5158 H   0  0  0  0  0  0
  -26.3032  -15.6259   20.1282 H   0  0  0  0  0  0
  -26.7137  -32.5472   23.1165 H   0  0  0  0  0  0
  -25.0404  -33.9788   25.0646 H   0  0  0  0  0  0
  -22.6803  -31.3226   21.4336 H   0  0  0  0  0  0
  -23.3741  -35.9629   23.3272 H   0  0  0  0  0  0
  -24.3576  -36.8894   22.2018 H   0  0  0  0  0  0
  -23.7266  -37.6506   23.6624 H   0  0  0  0  0  0
  -26.0546  -31.6121   20.6279 H   0  0  0  0  0  0
  -26.8029  -30.8585   22.0145 H   0  0  0  0  0  0
  -28.0883  -29.1037   21.1299 H   0  0  0  0  0  0
  -25.9616  -26.0422   18.9038 H   0  0  0  0  0  0
  -23.9488  -27.3393   19.0170 H   0  0  0  0  0  0
  -23.7105  -30.6305   19.4237 H   0  0  0  0  0  0
  -22.7137  -29.2844   19.8691 H   0  0  0  0  0  0
  -25.1277  -36.1883   25.0799 H   0  0  0  0  0  0
  -20.9908  -28.3219   24.1507 H   0  0  0  0  0  0
  -20.5795  -26.2249   23.3579 H   0  0  0  0  0  0
  -21.6627  -26.7585   22.1142 H   0  0  0  0  0  0
  -19.6935  -25.6320   21.1225 H   0  0  0  0  0  0
  -19.6695  -27.3254   20.6787 H   0  0  0  0  0  0
  -17.4191  -26.6727   21.4019 H   0  0  0  0  0  0
  -18.0322  -26.0064   22.9017 H   0  0  0  0  0  0
  -19.7896  -30.7325   24.2250 H   0  0  0  0  0  0
  -17.4967  -31.6284   24.5192 H   0  0  0  0  0  0
  -15.5328  -30.2990   23.7738 H   0  0  0  0  0  0
  -15.8620  -28.0901   22.7026 H   0  0  0  0  0  0
  -24.5926  -30.7094   25.7919 H   0  0  0  0  0  0
  -24.8944  -32.2982   26.4909 H   0  0  0  0  0  0
  -25.8114  -30.9041   27.0338 H   0  0  0  0  0  0
  -26.2795  -29.6925   24.0961 H   0  0  0  0  0  0
  -27.3379  -29.7020   25.4835 H   0  0  0  0  0  0
  -27.8880  -30.4126   23.9787 H   0  0  0  0  0  0
  -27.2765  -33.3521   26.2222 H   0  0  0  0  0  0
  -28.3822  -32.6909   25.0240 H   0  0  0  0  0  0
  -28.0916  -31.8306   26.5267 H   0  0  0  0  0  0
  -28.2589  -38.0076   24.7504 H   0  0  0  0  0  0
  -28.1041  -36.2596   24.6276 H   0  0  0  0  0  0
  -27.2251  -37.1447   25.8849 H   0  0  0  0  0  0
  -20.9190  -29.8656   21.6924 H   0  0  0  0  0  0
  -26.0138  -38.2811   24.1457 H   0  0  0  0  0  0
  -30.9306  -19.2433   22.0667 H   0  0  0  0  0  0
  -27.8252  -16.6398   21.8767 H   0  0  0  0  0  0
  -28.4040  -18.2000   21.3862 H   0  0  0  0  0  0
  -31.4093  -17.1286   23.1428 H   0  0  0  0  0  0
  -30.6951  -16.5622   24.6242 H   0  0  0  0  0  0
  -31.7706  -23.8816   20.8199 H   0  0  0  0  0  0
  -33.0849  -22.7955   20.4864 H   0  0  0  0  0  0
  -29.1579  -20.9822   20.5877 H   0  0  0  0  0  0
  -29.2015  -22.6944   20.9305 H   0  0  0  0  0  0
  -30.6083  -17.1849   20.7577 H   0  0  0  0  0  0
  -29.2748  -16.4101   19.9331 H   0  0  0  0  0  0
  -29.6064  -14.6854   23.4121 H   0  0  0  0  0  0
  -31.3246  -14.6642   23.1399 H   0  0  0  0  0  0
  -32.1503  -22.3649   18.1739 H   0  0  0  0  0  0
  -32.3677  -24.0842   18.4471 H   0  0  0  0  0  0
  -28.5101  -22.3837   18.6442 H   0  0  0  0  0  0
  -29.9024  -21.3830   18.2493 H   0  0  0  0  0  0
  -28.4910  -17.0541   23.9325 H   0  0  0  0  0  0
  -31.6037  -20.8552   20.5191 H   0  0  0  0  0  0
  -28.2870  -18.2694   26.2237 H   0  0  0  0  0  0
  -27.0026  -18.2899   25.0022 H   0  0  0  0  0  0
  -27.1543  -19.6210   26.1330 H   0  0  0  0  0  0
  -29.5954  -23.7050   23.2586 H   0  0  0  0  0  0
  -30.3020  -23.5313   24.8700 H   0  0  0  0  0  0
  -28.5411  -23.4736   24.6450 H   0  0  0  0  0  0
  -30.6632  -24.3599   16.6981 H   0  0  0  0  0  0
  -29.0433  -23.7632   16.9617 H   0  0  0  0  0  0
  -27.6234  -24.9838   19.0951 H   0  0  0  0  0  0
  -29.0413  -24.9409   20.0272 H   0  0  0  0  0  0
  -30.3394  -26.2013   18.2692 H   0  0  0  0  0  0
  -30.1230  -24.0357   19.3601 H   0  0  0  0  0  0
  -28.1067  -25.8196   16.5703 H   0  0  0  0  0  0
  1 25  1  0  0  0
  1 30  2  0  0  0
  1 92  1  0  0  0
  2  3  1  0  0  0
  2 25  1  0  0  0
  2 96  1  0  0  0
  2 97  1  0  0  0
  3  4  1  0  0  0
  3 98  1  0  0  0
  3 99  1  0  0  0
  4  5  1  0  0  0
  4100  1  0  0  0
  4101  1  0  0  0
  5  6  1  0  0  0
  5 26  1  0  0  0
  5102  1  0  0  0
  6 25  1  0  0  0
  6103  1  0  0  0
  6104  1  0  0  0
  7  8  2  0  0  0
  7 26  1  0  0  0
  7 29  1  0  0  0
  8  9  1  0  0  0
  8 22  1  0  0  0
  9 10  1  0  0  0
  9 27  2  0  0  0
 10 11  2  0  0  0
 10 15  1  0  0  0
 11 12  1  0  0  0
 11105  1  0  0  0
 12 13  2  0  0  0
 12106  1  0  0  0
 13 14  1  0  0  0
 13 31  1  0  0  0
 14 15  2  0  0  0
 14107  1  0  0  0
 15108  1  0  0  0
 16 17  2  0  0  0
 16 21  1  0  0  0
 16 31  1  0  0  0
 17 18  1  0  0  0
 17109  1  0  0  0
 18 19  2  0  0  0
 18110  1  0  0  0
 19 20  1  0  0  0
 19 24  1  0  0  0
 20 21  2  0  0  0
 20111  1  0  0  0
 21 23  1  0  0  0
 22 28  1  0  0  0
 22 32  2  0  0  0
 26 27  1  0  0  0
 28112  1  0  0  0
 28113  1  0  0  0
 29114  1  0  0  0
 29115  1  0  0  0
 33 34  1  0  0  0
 33 66  1  0  0  0
 33 70  2  0  0  0
 34 36  1  0  0  0
 34 59  1  0  0  0
 34116  1  0  0  0
 35 44  2  0  0  0
 35 45  1  0  0  0
 35 68  1  0  0  0
 36 56  1  0  0  0
 36117  1  0  0  0
 37 39  1  0  0  0
 37 47  1  0  0  0
 37 66  1  0  0  0
 37118  1  0  0  0
 38 43  2  0  0  0
 38 46  1  0  0  0
 38 47  1  0  0  0
 39 64  1  0  0  0
 39 67  2  0  0  0
 40 52  1  0  0  0
 40 53  2  0  0  0
 40 58  1  0  0  0
 41119  1  0  0  0
 41120  1  0  0  0
 41121  1  0  0  0
 41 48  1  0  0  0
 42 43  1  0  0  0
 42 66  1  0  0  0
 42122  1  0  0  0
 42123  1  0  0  0
 43 44  1  0  0  0
 44124  1  0  0  0
 45 46  2  0  0  0
 45125  1  0  0  0
 46126  1  0  0  0
 47127  1  0  0  0
 47128  1  0  0  0
 48 56  1  0  0  0
 48 65  1  0  0  0
 48129  1  0  0  0
 49 50  1  0  0  0
 49 53  1  0  0  0
 49 64  1  0  0  0
 49130  1  0  0  0
 50 51  1  0  0  0
 50131  1  0  0  0
 50132  1  0  0  0
 51 52  1  0  0  0
 51133  1  0  0  0
 51134  1  0  0  0
 52135  1  0  0  0
 52136  1  0  0  0
 53 54  1  0  0  0
 54 55  2  0  0  0
 54137  1  0  0  0
 55 57  1  0  0  0
 55138  1  0  0  0
 56 69  2  0  0  0
 57 58  2  0  0  0
 57139  1  0  0  0
 58140  1  0  0  0
 59 60  1  0  0  0
 59 61  1  0  0  0
 59 62  1  0  0  0
 60141  1  0  0  0
 60142  1  0  0  0
 60143  1  0  0  0
 61144  1  0  0  0
 61145  1  0  0  0
 61146  1  0  0  0
 62147  1  0  0  0
 62148  1  0  0  0
 62149  1  0  0  0
 63 65  1  0  0  0
 63150  1  0  0  0
 63151  1  0  0  0
 63152  1  0  0  0
 64153  1  0  0  0
 65154  1  0  0  0
 68 89  1  0  0  0
 71 72  2  0  0  0
 71 73  1  0  0  0
 71155  1  0  0  0
 72 74  1  0  0  0
 72 84  1  0  0  0
 73 75  2  0  0  0
 73 95  1  0  0  0
 74 86  1  0  0  0
 74 91  2  0  0  0
 75 87  1  0  0  0
 75 91  1  0  0  0
 76 80  1  0  0  0
 76 84  1  0  0  0
 76156  1  0  0  0
 76157  1  0  0  0
 77 81  1  0  0  0
 77 84  1  0  0  0
 77158  1  0  0  0
 77159  1  0  0  0
 78 82  1  0  0  0
 78 85  1  0  0  0
 78160  1  0  0  0
 78161  1  0  0  0
 79 83  1  0  0  0
 79 85  1  0  0  0
 79162  1  0  0  0
 79163  1  0  0  0
 80 92  1  0  0  0
 80164  1  0  0  0
 80165  1  0  0  0
 81 92  1  0  0  0
 81166  1  0  0  0
 81167  1  0  0  0
 82 93  1  0  0  0
 82168  1  0  0  0
 82169  1  0  0  0
 83 93  1  0  0  0
 83170  1  0  0  0
 83171  1  0  0  0
 84172  1  0  0  0
 85 95  1  0  0  0
 85173  1  0  0  0
 86174  1  0  0  0
 86175  1  0  0  0
 86176  1  0  0  0
 87177  1  0  0  0
 87178  1  0  0  0
 87179  1  0  0  0
 88 90  1  0  0  0
 88180  1  0  0  0
 88181  1  0  0  0
 88 93  1  0  0  0
 89 90  1  0  0  0
 89182  1  0  0  0
 89183  1  0  0  0
 90 94  1  0  0  0
 90184  1  0  0  0
 93185  1  0  0  0
 94186  1  0  0  0
M  CHG  1  93   1
M  ISO  4   1 100  68 101  89 101  92 100
M  END
> <chiral flag>
0

> <version>
0

> <s_m_source_file>
/data/baiqing/PycharmProjects/Reinvent-master-3.2/result/LINK_invent/BTK/process_docking_weight1_custom_sum_contain_oxygen_bond_distance_aromatic_linkinvent_7_9_3/rearranged_h_0155.sdf

> <i_m_source_file_index>
61

> <r_mmod_Potential_Energy-OPLS-2005>
-16.5649585723877

> <r_mmod_Stretch_Energy-OPLS-2005>
40.5687141418457

> <r_mmod_Bend_Energy-OPLS-2005>
133.115936279297

> <r_mmod_Torsional_Energy-OPLS-2005>
410.900573730469

> <r_mmod_Improper_Torsional_Energy-OPLS-2005>
4.8732123374939

> <r_mmod_Van_der_Waal_Energy-OPLS-2005>
176.723876953125

> <r_mmod_Electrostatic_Energy-OPLS-2005>
-309.857513427734

> <r_mmod_Solvation_Energy-OPLS-2005>
-483.560394287109

> <b_mmod_Minimization_Converged-OPLS-2005>
0

> <r_mmod_RMS_Derivative-OPLS-2005>
5.73387813568115

$$$$
61
                    3D
 Structure written by MMmdl.
183193  0  0  1  0            999 V2000
  -30.7742  -14.3350   20.7064 C   0  0  0  0  0  0
  -30.4151  -12.2832   19.3826 C   0  0  0  0  0  0
  -29.4782  -12.5322   18.1868 C   0  0  0  0  0  0
  -28.0032  -12.3832   18.6056 C   0  0  0  0  0  0
  -27.6683  -13.1911   19.8857 C   0  0  2  0  0  0
  -28.7078  -12.8934   20.9911 C   0  0  0  0  0  0
  -25.2621  -13.8134   20.5680 C   0  0  0  0  0  0
  -24.1850  -13.0432   20.9175 C   0  0  0  0  0  0
  -24.6386  -11.6890   20.8747 C   0  0  0  0  0  0
  -23.9052  -10.4285   21.0421 C   0  0  0  0  0  0
  -24.3608   -9.4200   21.9197 C   0  0  0  0  0  0
  -23.6288   -8.2231   22.0759 C   0  0  0  0  0  0
  -22.4270   -8.0274   21.3547 C   0  0  0  0  0  0
  -21.9905   -9.0250   20.4651 C   0  0  0  0  0  0
  -22.7232  -10.2129   20.3065 C   0  0  0  0  0  0
  -21.6846   -6.0733   22.5280 C   0  0  0  0  0  0
  -21.4006   -6.5639   23.8215 C   0  0  0  0  0  0
  -21.3661   -5.6792   24.9179 C   0  0  0  0  0  0
  -21.6047   -4.3056   24.7228 C   0  0  0  0  0  0
  -21.8819   -3.8146   23.4350 C   0  0  0  0  0  0
  -21.9190   -4.6962   22.3405 C   0  0  0  0  0  0
  -22.7874  -13.5245   21.1839 C   0  0  0  0  0  0
  -22.1659   -4.2149   21.0981 F   0  0  0  0  0  0
  -21.5637   -3.4538   25.7742 F   0  0  0  0  0  0
  -30.0472  -13.2109   20.4639 N   0  0  0  0  0  0
  -26.3054  -12.9277   20.3414 N   0  0  0  0  0  0
  -25.9304  -11.6451   20.5781 N   0  0  0  0  0  0
  -22.0503  -12.8240   22.0393 N   0  0  0  0  0  0
  -25.4369  -15.1846   20.4064 N   0  0  0  0  0  0
  -31.7852  -14.6187   20.0517 O   0  0  0  0  0  0
  -21.6634   -6.8872   21.4242 O   0  0  0  0  0  0
  -22.3569  -14.5557   20.6696 O   0  0  0  0  0  0
  -24.6047  -31.8732   23.2152 C   0  0  0  0  0  0
  -25.8975  -32.4850   23.8432 C   0  0  1  0  0  0
  -27.2712  -27.5155   20.0727 C   0  0  0  0  0  0
  -25.5860  -33.8644   24.2367 N   0  0  0  0  0  0
  -23.3911  -30.4920   21.5528 C   0  0  2  0  0  0
  -24.8437  -28.9569   20.1250 C   0  0  0  0  0  0
  -22.7358  -29.4667   22.5033 C   0  0  0  0  0  0
  -18.0260  -28.1373   22.8492 C   0  0  0  0  0  0
  -24.1478  -36.7334   23.2642 C   0  0  0  0  0  0
  -25.9081  -30.8568   21.3612 C   0  0  0  0  0  0
  -25.9902  -29.4903   20.7235 C   0  0  0  0  0  0
  -27.1953  -28.7689   20.7201 C   0  0  0  0  0  0
  -26.1014  -26.9654   19.5075 C   0  0  0  0  0  0
  -24.8872  -27.6826   19.5274 C   0  0  0  0  0  0
  -23.5998  -29.8150   20.1694 C   0  0  0  0  0  0
  -25.4097  -36.3133   24.0350 C   0  0  1  0  0  0
  -20.5841  -28.3640   23.1350 C   0  0  2  0  0  0
  -20.6748  -26.9386   22.5428 C   0  0  0  0  0  0
  -19.5736  -26.6383   21.5212 C   0  0  0  0  0  0
  -18.1912  -26.7924   22.1615 C   0  0  0  0  0  0
  -19.1508  -28.8822   23.2920 C   0  0  0  0  0  0
  -18.9438  -30.1430   23.8926 C   0  0  0  0  0  0
  -17.6442  -30.6578   24.0566 C   0  0  0  0  0  0
  -25.9015  -34.9489   23.5159 C   0  0  0  0  0  0
  -16.5333  -29.9087   23.6318 C   0  0  0  0  0  0
  -16.7250  -28.6505   23.0337 C   0  0  0  0  0  0
  -26.4448  -31.6606   25.0721 C   0  0  0  0  0  0
  -25.3746  -31.3684   26.1493 C   0  0  0  0  0  0
  -27.0270  -30.3060   24.6041 C   0  0  0  0  0  0
  -27.6044  -32.4309   25.7471 C   0  0  0  0  0  0
  -27.5582  -37.1821   24.8464 C   0  0  0  0  0  0
  -21.4097  -29.3012   22.3761 N   0  0  0  0  0  0
  -26.4294  -37.3806   23.9411 N   0  0  0  0  0  0
  -24.6518  -31.0875   22.1030 N   0  0  0  0  0  0
  -23.4159  -28.8225   23.3065 O   0  0  0  0  0  0
  -28.4528  -26.8230   19.9402 O   0  0  0  0  0  0
  -26.5577  -34.8928   22.4719 O   0  0  0  0  0  0
  -23.5261  -32.1461   23.7583 O   0  0  0  0  0  0
  -32.0144  -19.1892   20.2477 C   0  0  0  0  0  0
  -30.7794  -20.3861   21.9630 C   0  0  0  0  0  0
  -31.2827  -19.1800   21.4508 C   0  0  0  0  0  0
  -31.6575  -21.6003   20.0244 C   0  0  0  0  0  0
  -32.2142  -20.3871   19.5366 C   0  0  0  0  0  0
  -30.9449  -21.6000   21.2586 C   0  0  0  0  0  0
  -29.6861  -17.2804   21.3890 C   0  0  0  0  0  0
  -32.0571  -16.8678   22.2767 C   0  0  0  0  0  0
  -30.3186  -23.2678   18.6816 C   0  0  0  0  0  0
  -32.4734  -24.0343   19.9174 C   0  0  0  0  0  0
  -29.3110  -15.8940   21.9236 C   0  0  0  0  0  0
  -31.5471  -15.4838   22.7342 C   0  0  0  0  0  0
  -30.2735  -24.6581   18.0467 C   0  0  0  0  0  0
  -32.2866  -25.3901   19.2222 C   0  0  0  0  0  0
  -30.8961  -17.8777   22.1312 C   0  0  0  0  0  0
  -31.7319  -22.8849   19.1877 C   0  0  1  0  0  0
  -32.9887  -20.3151   18.2286 C   0  0  0  0  0  0
  -29.5851  -22.7766   22.8761 C   0  0  0  0  0  0
  -30.5032  -27.0424   18.6747 C   0  0  0  0  0  0
  -29.6382  -27.6231   19.7961 C   0  0  0  0  0  0
  -30.4768  -15.0027   21.8472 N   0  0  0  0  0  0
  -30.8449  -25.6404   18.9927 N   0  3  1  0  0  0
  -30.3968  -22.7853   21.7082 O   0  0  0  0  0  0
  -31.4567  -12.3880   19.0733 H   0  0  0  0  0  0
  -30.3202  -11.2539   19.7320 H   0  0  0  0  0  0
  -29.7089  -11.8383   17.3777 H   0  0  0  0  0  0
  -29.6478  -13.5342   17.7893 H   0  0  0  0  0  0
  -27.8084  -11.3237   18.7750 H   0  0  0  0  0  0
  -27.3473  -12.6846   17.7883 H   0  0  0  0  0  0
  -27.7332  -14.2459   19.6208 H   0  0  0  0  0  0
  -28.6738  -11.8347   21.2528 H   0  0  0  0  0  0
  -28.4650  -13.4047   21.9210 H   0  0  0  0  0  0
  -25.2754   -9.5671   22.4772 H   0  0  0  0  0  0
  -23.9999   -7.4619   22.7469 H   0  0  0  0  0  0
  -21.0840   -8.8770   19.8951 H   0  0  0  0  0  0
  -22.3703  -10.9671   19.6169 H   0  0  0  0  0  0
  -21.1990   -7.6145   23.9719 H   0  0  0  0  0  0
  -21.1487   -6.0521   25.9083 H   0  0  0  0  0  0
  -22.0598   -2.7606   23.2849 H   0  0  0  0  0  0
  -22.4096  -11.9883   22.4768 H   0  0  0  0  0  0
  -21.1126  -13.1282   22.2603 H   0  0  0  0  0  0
  -24.6735  -15.8435   20.5147 H   0  0  0  0  0  0
  -26.2941  -15.6209   20.0917 H   0  0  0  0  0  0
  -26.7047  -32.5607   23.1213 H   0  0  0  0  0  0
  -25.0003  -33.9817   25.0506 H   0  0  0  0  0  0
  -22.6766  -31.3056   21.4118 H   0  0  0  0  0  0
  -23.3728  -35.9680   23.3314 H   0  0  0  0  0  0
  -24.3579  -36.8931   22.2054 H   0  0  0  0  0  0
  -23.7235  -37.6552   23.6632 H   0  0  0  0  0  0
  -26.0045  -31.6184   20.5861 H   0  0  0  0  0  0
  -26.8011  -30.9239   21.9703 H   0  0  0  0  0  0
  -28.0627  -29.2008   21.1986 H   0  0  0  0  0  0
  -26.1427  -26.0007   19.0211 H   0  0  0  0  0  0
  -24.0041  -27.2589   19.0694 H   0  0  0  0  0  0
  -23.7028  -30.5861   19.4050 H   0  0  0  0  0  0
  -22.7276  -29.2266   19.8782 H   0  0  0  0  0  0
  -25.1270  -36.2018   25.0843 H   0  0  0  0  0  0
  -20.9929  -28.3194   24.1473 H   0  0  0  0  0  0
  -20.5646  -26.2242   23.3603 H   0  0  0  0  0  0
  -21.6625  -26.7439   22.1224 H   0  0  0  0  0  0
  -19.6895  -25.6301   21.1223 H   0  0  0  0  0  0
  -19.6693  -27.3211   20.6758 H   0  0  0  0  0  0
  -17.4191  -26.6683   21.4005 H   0  0  0  0  0  0
  -18.0303  -26.0058   22.8999 H   0  0  0  0  0  0
  -19.7915  -30.7234   24.2311 H   0  0  0  0  0  0
  -17.5002  -31.6265   24.5161 H   0  0  0  0  0  0
  -15.5337  -30.3002   23.7624 H   0  0  0  0  0  0
  -15.8649  -28.0837   22.7032 H   0  0  0  0  0  0
  -24.5899  -30.7052   25.7833 H   0  0  0  0  0  0
  -24.8960  -32.2831   26.5000 H   0  0  0  0  0  0
  -25.8125  -30.8809   27.0210 H   0  0  0  0  0  0
  -26.2788  -29.6830   24.1122 H   0  0  0  0  0  0
  -27.4094  -29.7283   25.4467 H   0  0  0  0  0  0
  -27.8597  -30.4404   23.9134 H   0  0  0  0  0  0
  -27.2673  -33.3579   26.2125 H   0  0  0  0  0  0
  -28.3816  -32.6920   25.0274 H   0  0  0  0  0  0
  -28.0757  -31.8385   26.5327 H   0  0  0  0  0  0
  -28.2607  -38.0109   24.7497 H   0  0  0  0  0  0
  -28.1068  -36.2639   24.6299 H   0  0  0  0  0  0
  -27.2301  -37.1495   25.8868 H   0  0  0  0  0  0
  -20.9244  -29.8723   21.6983 H   0  0  0  0  0  0
  -26.0193  -38.2890   24.1404 H   0  0  0  0  0  0
  -32.3825  -18.2630   19.8308 H   0  0  0  0  0  0
  -30.2122  -20.3438   22.8804 H   0  0  0  0  0  0
  -28.8308  -17.9531   21.4727 H   0  0  0  0  0  0
  -29.9060  -17.2047   20.3226 H   0  0  0  0  0  0
  -32.5848  -16.7392   21.3338 H   0  0  0  0  0  0
  -32.7977  -17.2504   22.9801 H   0  0  0  0  0  0
  -29.9700  -22.5237   17.9644 H   0  0  0  0  0  0
  -29.5894  -23.2519   19.4897 H   0  0  0  0  0  0
  -32.1403  -24.1479   20.9458 H   0  0  0  0  0  0
  -33.5357  -23.7972   19.9881 H   0  0  0  0  0  0
  -28.4644  -15.5297   21.3467 H   0  0  0  0  0  0
  -28.9646  -15.9623   22.9557 H   0  0  0  0  0  0
  -31.1685  -15.5416   23.7557 H   0  0  0  0  0  0
  -32.3715  -14.7681   22.7613 H   0  0  0  0  0  0
  -29.2360  -24.9088   17.8194 H   0  0  0  0  0  0
  -30.8193  -24.6772   17.1023 H   0  0  0  0  0  0
  -32.8264  -25.4178   18.2741 H   0  0  0  0  0  0
  -32.7121  -26.1738   19.8504 H   0  0  0  0  0  0
  -30.5667  -18.1104   23.1457 H   0  0  0  0  0  0
  -32.3165  -22.7180   18.2863 H   0  0  0  0  0  0
  -33.3696  -19.3107   18.0406 H   0  0  0  0  0  0
  -33.8466  -20.9881   18.2498 H   0  0  0  0  0  0
  -32.3504  -20.5836   17.3864 H   0  0  0  0  0  0
  -29.2132  -23.7845   23.0605 H   0  0  0  0  0  0
  -30.1496  -22.4698   23.7573 H   0  0  0  0  0  0
  -28.7179  -22.1259   22.7554 H   0  0  0  0  0  0
  -31.4038  -27.6468   18.5564 H   0  0  0  0  0  0
  -29.9691  -27.1155   17.7262 H   0  0  0  0  0  0
  -29.4324  -28.6581   19.5193 H   0  0  0  0  0  0
  -30.1816  -27.6465   20.7421 H   0  0  0  0  0  0
  -30.3784  -25.4662   19.8728 H   0  0  0  0  0  0
  1 25  1  0  0  0
  1 30  2  0  0  0
  1 91  1  0  0  0
  2  3  1  0  0  0
  2 25  1  0  0  0
  2 94  1  0  0  0
  2 95  1  0  0  0
  3  4  1  0  0  0
  3 96  1  0  0  0
  3 97  1  0  0  0
  4  5  1  0  0  0
  4 98  1  0  0  0
  4 99  1  0  0  0
  5  6  1  0  0  0
  5 26  1  0  0  0
  5100  1  0  0  0
  6 25  1  0  0  0
  6101  1  0  0  0
  6102  1  0  0  0
  7  8  2  0  0  0
  7 26  1  0  0  0
  7 29  1  0  0  0
  8  9  1  0  0  0
  8 22  1  0  0  0
  9 10  1  0  0  0
  9 27  2  0  0  0
 10 11  2  0  0  0
 10 15  1  0  0  0
 11 12  1  0  0  0
 11103  1  0  0  0
 12 13  2  0  0  0
 12104  1  0  0  0
 13 14  1  0  0  0
 13 31  1  0  0  0
 14 15  2  0  0  0
 14105  1  0  0  0
 15106  1  0  0  0
 16 17  2  0  0  0
 16 21  1  0  0  0
 16 31  1  0  0  0
 17 18  1  0  0  0
 17107  1  0  0  0
 18 19  2  0  0  0
 18108  1  0  0  0
 19 20  1  0  0  0
 19 24  1  0  0  0
 20 21  2  0  0  0
 20109  1  0  0  0
 21 23  1  0  0  0
 22 28  1  0  0  0
 22 32  2  0  0  0
 26 27  1  0  0  0
 28110  1  0  0  0
 28111  1  0  0  0
 29112  1  0  0  0
 29113  1  0  0  0
 33 34  1  0  0  0
 33 66  1  0  0  0
 33 70  2  0  0  0
 34 36  1  0  0  0
 34 59  1  0  0  0
 34114  1  0  0  0
 35 44  2  0  0  0
 35 45  1  0  0  0
 35 68  1  0  0  0
 36 56  1  0  0  0
 36115  1  0  0  0
 37 39  1  0  0  0
 37 47  1  0  0  0
 37 66  1  0  0  0
 37116  1  0  0  0
 38 43  2  0  0  0
 38 46  1  0  0  0
 38 47  1  0  0  0
 39 64  1  0  0  0
 39 67  2  0  0  0
 40 52  1  0  0  0
 40 53  2  0  0  0
 40 58  1  0  0  0
 41117  1  0  0  0
 41118  1  0  0  0
 41119  1  0  0  0
 41 48  1  0  0  0
 42 43  1  0  0  0
 42 66  1  0  0  0
 42120  1  0  0  0
 42121  1  0  0  0
 43 44  1  0  0  0
 44122  1  0  0  0
 45 46  2  0  0  0
 45123  1  0  0  0
 46124  1  0  0  0
 47125  1  0  0  0
 47126  1  0  0  0
 48 56  1  0  0  0
 48 65  1  0  0  0
 48127  1  0  0  0
 49 50  1  0  0  0
 49 53  1  0  0  0
 49 64  1  0  0  0
 49128  1  0  0  0
 50 51  1  0  0  0
 50129  1  0  0  0
 50130  1  0  0  0
 51 52  1  0  0  0
 51131  1  0  0  0
 51132  1  0  0  0
 52133  1  0  0  0
 52134  1  0  0  0
 53 54  1  0  0  0
 54 55  2  0  0  0
 54135  1  0  0  0
 55 57  1  0  0  0
 55136  1  0  0  0
 56 69  2  0  0  0
 57 58  2  0  0  0
 57137  1  0  0  0
 58138  1  0  0  0
 59 60  1  0  0  0
 59 61  1  0  0  0
 59 62  1  0  0  0
 60139  1  0  0  0
 60140  1  0  0  0
 60141  1  0  0  0
 61142  1  0  0  0
 61143  1  0  0  0
 61144  1  0  0  0
 62145  1  0  0  0
 62146  1  0  0  0
 62147  1  0  0  0
 63 65  1  0  0  0
 63148  1  0  0  0
 63149  1  0  0  0
 63150  1  0  0  0
 64151  1  0  0  0
 65152  1  0  0  0
 68 90  1  0  0  0
 71 73  2  0  0  0
 71 75  1  0  0  0
 71153  1  0  0  0
 72 73  1  0  0  0
 72 76  2  0  0  0
 72154  1  0  0  0
 73 85  1  0  0  0
 74 75  2  0  0  0
 74 76  1  0  0  0
 74 86  1  0  0  0
 75 87  1  0  0  0
 76 93  1  0  0  0
 77 81  1  0  0  0
 77 85  1  0  0  0
 77155  1  0  0  0
 77156  1  0  0  0
 78 82  1  0  0  0
 78 85  1  0  0  0
 78157  1  0  0  0
 78158  1  0  0  0
 79 83  1  0  0  0
 79 86  1  0  0  0
 79159  1  0  0  0
 79160  1  0  0  0
 80 84  1  0  0  0
 80 86  1  0  0  0
 80161  1  0  0  0
 80162  1  0  0  0
 81 91  1  0  0  0
 81163  1  0  0  0
 81164  1  0  0  0
 82 91  1  0  0  0
 82165  1  0  0  0
 82166  1  0  0  0
 83 92  1  0  0  0
 83167  1  0  0  0
 83168  1  0  0  0
 84 92  1  0  0  0
 84169  1  0  0  0
 84170  1  0  0  0
 85171  1  0  0  0
 86172  1  0  0  0
 87173  1  0  0  0
 87174  1  0  0  0
 87175  1  0  0  0
 88 93  1  0  0  0
 88176  1  0  0  0
 88177  1  0  0  0
 88178  1  0  0  0
 89 90  1  0  0  0
 89179  1  0  0  0
 89180  1  0  0  0
 89 92  1  0  0  0
 90181  1  0  0  0
 90182  1  0  0  0
 92183  1  0  0  0
M  CHG  1  92   1
M  ISO  4   1 100  68 101  90 101  91 100
M  END
> <chiral flag>
0

> <version>
0

> <s_m_source_file>
/data/baiqing/PycharmProjects/Reinvent-master-3.2/result/LINK_invent/BTK/process_docking_weight1_custom_sum_contain_oxygen_bond_distance_aromatic_linkinvent_7_9_3/rearranged_h_0155.sdf

> <i_m_source_file_index>
62

> <r_mmod_Potential_Energy-OPLS-2005>
115.320709228516

> <r_mmod_Stretch_Energy-OPLS-2005>
38.1014633178711

> <r_mmod_Bend_Energy-OPLS-2005>
113.949684143066

> <r_mmod_Torsional_Energy-OPLS-2005>
361.468292236328

> <r_mmod_Improper_Torsional_Energy-OPLS-2005>
8.40448570251465

> <r_mmod_Van_der_Waal_Energy-OPLS-2005>
189.768676757812

> <r_mmod_Electrostatic_Energy-OPLS-2005>
-219.04264831543

> <r_mmod_Solvation_Energy-OPLS-2005>
-385.094512939453

> <b_mmod_Minimization_Converged-OPLS-2005>
0

> <r_mmod_RMS_Derivative-OPLS-2005>
0.805256366729736

$$$$
62
                    3D
 Structure written by MMmdl.
181191  0  0  1  0            999 V2000
  -30.7115  -14.5690   20.5389 C   0  0  0  0  0  0
  -30.4209  -12.3676   19.4319 C   0  0  0  0  0  0
  -29.4896  -12.4934   18.2095 C   0  0  0  0  0  0
  -28.0198  -12.3054   18.6309 C   0  0  0  0  0  0
  -27.6422  -13.1833   19.8484 C   0  0  2  0  0  0
  -28.6961  -13.0721   20.9791 C   0  0  0  0  0  0
  -25.2529  -13.8071   20.5635 C   0  0  0  0  0  0
  -24.1792  -13.0385   20.9198 C   0  0  0  0  0  0
  -24.6329  -11.6852   20.8761 C   0  0  0  0  0  0
  -23.8993  -10.4263   21.0426 C   0  0  0  0  0  0
  -24.3567   -9.4190   21.9196 C   0  0  0  0  0  0
  -23.6267   -8.2216   22.0754 C   0  0  0  0  0  0
  -22.4254   -8.0249   21.3540 C   0  0  0  0  0  0
  -21.9871   -9.0215   20.4646 C   0  0  0  0  0  0
  -22.7178  -10.2107   20.3065 C   0  0  0  0  0  0
  -21.6847   -6.0713   22.5272 C   0  0  0  0  0  0
  -21.4008   -6.5625   23.8204 C   0  0  0  0  0  0
  -21.3660   -5.6783   24.9168 C   0  0  0  0  0  0
  -21.6048   -4.3044   24.7221 C   0  0  0  0  0  0
  -21.8821   -3.8133   23.4345 C   0  0  0  0  0  0
  -21.9193   -4.6946   22.3398 C   0  0  0  0  0  0
  -22.7827  -13.5220   21.1864 C   0  0  0  0  0  0
  -22.1666   -4.2131   21.0976 F   0  0  0  0  0  0
  -21.5633   -3.4534   25.7739 F   0  0  0  0  0  0
  -30.0118  -13.3973   20.4068 N   0  0  0  0  0  0
  -26.2919  -12.9183   20.3274 N   0  0  0  0  0  0
  -25.9240  -11.6382   20.5768 N   0  0  0  0  0  0
  -22.0457  -12.8232   22.0421 N   0  0  0  0  0  0
  -25.4191  -15.1784   20.3950 N   0  0  0  0  0  0
  -31.8835  -14.6548   20.1615 O   0  0  0  0  0  0
  -21.6626   -6.8848   21.4233 O   0  0  0  0  0  0
  -22.3530  -14.5536   20.6714 O   0  0  0  0  0  0
  -24.6188  -31.8653   23.2083 C   0  0  0  0  0  0
  -25.9065  -32.4808   23.8391 C   0  0  1  0  0  0
  -27.2356  -27.3986   20.1018 C   0  0  0  0  0  0
  -25.5911  -33.8608   24.2318 N   0  0  0  0  0  0
  -23.4085  -30.4888   21.5495 C   0  0  2  0  0  0
  -24.8543  -28.9509   20.1158 C   0  0  0  0  0  0
  -22.7435  -29.4646   22.4980 C   0  0  0  0  0  0
  -18.0275  -28.1380   22.8493 C   0  0  0  0  0  0
  -24.1484  -36.7310   23.2639 C   0  0  0  0  0  0
  -25.9416  -30.8200   21.3667 C   0  0  0  0  0  0
  -26.0176  -29.4527   20.7112 C   0  0  0  0  0  0
  -27.2107  -28.6872   20.6947 C   0  0  0  0  0  0
  -26.0466  -26.9206   19.5002 C   0  0  0  0  0  0
  -24.8660  -27.6861   19.5058 C   0  0  0  0  0  0
  -23.6189  -29.8227   20.1643 C   0  0  0  0  0  0
  -25.4105  -36.3102   24.0336 C   0  0  1  0  0  0
  -20.5870  -28.3670   23.1314 C   0  0  2  0  0  0
  -20.6766  -26.9405   22.5420 C   0  0  0  0  0  0
  -19.5743  -26.6388   21.5217 C   0  0  0  0  0  0
  -18.1919  -26.7928   22.1625 C   0  0  0  0  0  0
  -19.1527  -28.8843   23.2899 C   0  0  0  0  0  0
  -18.9454  -30.1448   23.8907 C   0  0  0  0  0  0
  -17.6455  -30.6585   24.0568 C   0  0  0  0  0  0
  -25.9035  -34.9468   23.5122 C   0  0  0  0  0  0
  -16.5345  -29.9086   23.6329 C   0  0  0  0  0  0
  -16.7265  -28.6505   23.0350 C   0  0  0  0  0  0
  -26.4479  -31.6600   25.0736 C   0  0  0  0  0  0
  -25.3744  -31.3728   26.1488 C   0  0  0  0  0  0
  -27.0312  -30.3035   24.6140 C   0  0  0  0  0  0
  -27.6045  -32.4332   25.7503 C   0  0  0  0  0  0
  -27.5578  -37.1810   24.8463 C   0  0  0  0  0  0
  -21.4158  -29.3034   22.3723 N   0  0  0  0  0  0
  -26.4288  -37.3790   23.9409 N   0  0  0  0  0  0
  -24.6745  -31.0732   22.0991 N   0  0  0  0  0  0
  -23.4193  -28.8185   23.3032 O   0  0  0  0  0  0
  -28.4028  -26.6457   20.1221 O   0  0  0  0  0  0
  -26.5600  -34.8922   22.4684 O   0  0  0  0  0  0
  -23.5368  -32.1419   23.7455 O   0  0  0  0  0  0
  -29.0988  -19.8842   17.8923 C   0  0  0  0  0  0
  -29.0656  -21.8962   16.5493 C   0  0  0  0  0  0
  -29.5075  -22.0593   18.9659 C   0  0  0  0  0  0
  -28.9033  -20.5107   16.6544 C   0  0  0  0  0  0
  -29.4508  -20.6210   19.0528 C   0  0  0  0  0  0
  -29.3742  -22.6819   17.6851 C   0  0  0  0  0  0
  -31.0269  -18.0758   21.2879 C   0  0  0  0  0  0
  -28.6644  -17.7661   20.5658 C   0  0  0  0  0  0
  -30.8129  -16.6522   21.9045 C   0  0  0  0  0  0
  -28.8511  -16.2310   20.4578 C   0  0  0  0  0  0
  -31.0507  -22.6381   20.9430 C   0  0  0  0  0  0
  -30.2221  -24.7562   21.6872 C   0  0  0  0  0  0
  -29.6977  -22.9004   20.2632 C   0  0  1  0  0  0
  -29.6475  -24.4727   20.2919 C   0  0  1  0  0  0
  -29.9628  -18.5192   20.2606 C   0  0  0  0  0  0
  -28.5494  -19.6965   15.4249 C   0  0  0  0  0  0
  -31.2650  -23.2297   23.3456 C   0  0  0  0  0  0
  -29.4984  -24.6645   16.2932 C   0  0  0  0  0  0
  -28.2851  -25.2010   20.0591 C   0  0  0  0  0  0
  -30.0852  -15.6748   21.0591 N   0  0  0  0  0  0
  -31.2377  -23.7098   21.9460 N   0  3  1  0  0  0
  -29.7537  -19.9613   20.2475 O   0  0  0  0  0  0
  -29.5668  -24.0411   17.5709 O   0  0  0  0  0  0
  -31.4621  -12.4702   19.1205 H   0  0  0  0  0  0
  -30.3405  -11.3737   19.8753 H   0  0  0  0  0  0
  -29.7582  -11.7556   17.4525 H   0  0  0  0  0  0
  -29.6179  -13.4721   17.7439 H   0  0  0  0  0  0
  -27.8750  -11.2529   18.8763 H   0  0  0  0  0  0
  -27.3551  -12.5154   17.7920 H   0  0  0  0  0  0
  -27.6299  -14.1894   19.4499 H   0  0  0  0  0  0
  -28.7086  -12.0610   21.3882 H   0  0  0  0  0  0
  -28.4476  -13.7227   21.8181 H   0  0  0  0  0  0
  -25.2709   -9.5692   22.4770 H   0  0  0  0  0  0
  -23.9988   -7.4611   22.7469 H   0  0  0  0  0  0
  -21.0805   -8.8720   19.8954 H   0  0  0  0  0  0
  -22.3622  -10.9643   19.6178 H   0  0  0  0  0  0
  -21.1994   -7.6133   23.9700 H   0  0  0  0  0  0
  -21.1487   -6.0512   25.9070 H   0  0  0  0  0  0
  -22.0606   -2.7597   23.2843 H   0  0  0  0  0  0
  -22.4052  -11.9879   22.4801 H   0  0  0  0  0  0
  -21.1080  -13.1281   22.2626 H   0  0  0  0  0  0
  -24.6491  -15.8295   20.5012 H   0  0  0  0  0  0
  -26.2622  -15.6161   20.0488 H   0  0  0  0  0  0
  -26.7139  -32.5504   23.1153 H   0  0  0  0  0  0
  -25.0075  -33.9769   25.0473 H   0  0  0  0  0  0
  -22.6984  -31.3066   21.4103 H   0  0  0  0  0  0
  -23.3740  -35.9649   23.3305 H   0  0  0  0  0  0
  -24.3579  -36.8922   22.2054 H   0  0  0  0  0  0
  -23.7241  -37.6517   23.6652 H   0  0  0  0  0  0
  -26.0631  -31.5856   20.5993 H   0  0  0  0  0  0
  -26.8260  -30.8687   21.9903 H   0  0  0  0  0  0
  -28.1085  -29.0736   21.1567 H   0  0  0  0  0  0
  -26.0069  -25.9566   19.0162 H   0  0  0  0  0  0
  -23.9723  -27.2953   19.0391 H   0  0  0  0  0  0
  -23.7329  -30.5986   19.4063 H   0  0  0  0  0  0
  -22.7409  -29.2470   19.8655 H   0  0  0  0  0  0
  -25.1280  -36.1965   25.0829 H   0  0  0  0  0  0
  -20.9960  -28.3232   24.1437 H   0  0  0  0  0  0
  -20.5674  -26.2276   23.3609 H   0  0  0  0  0  0
  -21.6634  -26.7446   22.1211 H   0  0  0  0  0  0
  -19.6903  -25.6304   21.1237 H   0  0  0  0  0  0
  -19.6682  -27.3206   20.6755 H   0  0  0  0  0  0
  -17.4197  -26.6687   21.4021 H   0  0  0  0  0  0
  -18.0308  -26.0065   22.9015 H   0  0  0  0  0  0
  -19.7929  -30.7263   24.2278 H   0  0  0  0  0  0
  -17.5010  -31.6263   24.5173 H   0  0  0  0  0  0
  -15.5346  -30.2993   23.7647 H   0  0  0  0  0  0
  -15.8665  -28.0830   22.7054 H   0  0  0  0  0  0
  -24.5904  -30.7081   25.7842 H   0  0  0  0  0  0
  -24.8953  -32.2894   26.4939 H   0  0  0  0  0  0
  -25.8099  -30.8905   27.0247 H   0  0  0  0  0  0
  -26.2867  -29.6806   24.1166 H   0  0  0  0  0  0
  -27.4035  -29.7265   25.4615 H   0  0  0  0  0  0
  -27.8724  -30.4342   23.9329 H   0  0  0  0  0  0
  -27.2648  -33.3618   26.2103 H   0  0  0  0  0  0
  -28.3843  -32.6918   25.0329 H   0  0  0  0  0  0
  -28.0727  -31.8452   26.5408 H   0  0  0  0  0  0
  -28.2596  -38.0106   24.7502 H   0  0  0  0  0  0
  -28.1068  -36.2636   24.6285 H   0  0  0  0  0  0
  -27.2301  -37.1462   25.8868 H   0  0  0  0  0  0
  -20.9324  -29.8769   21.6951 H   0  0  0  0  0  0
  -26.0172  -38.2867   24.1405 H   0  0  0  0  0  0
  -28.9717  -18.8135   17.9154 H   0  0  0  0  0  0
  -28.9376  -22.3362   15.5713 H   0  0  0  0  0  0
  -32.0074  -18.1239   20.8113 H   0  0  0  0  0  0
  -31.0649  -18.7967   22.1050 H   0  0  0  0  0  0
  -28.3229  -18.0300   21.5676 H   0  0  0  0  0  0
  -27.8700  -18.0816   19.8888 H   0  0  0  0  0  0
  -30.2231  -16.7583   22.8160 H   0  0  0  0  0  0
  -31.7716  -16.2520   22.2399 H   0  0  0  0  0  0
  -28.8341  -15.9769   19.3961 H   0  0  0  0  0  0
  -27.9919  -15.7694   20.9372 H   0  0  0  0  0  0
  -31.8541  -22.7203   20.2096 H   0  0  0  0  0  0
  -31.1233  -21.6445   21.3842 H   0  0  0  0  0  0
  -29.4260  -24.6949   22.4316 H   0  0  0  0  0  0
  -30.6553  -25.7544   21.7607 H   0  0  0  0  0  0
  -28.9170  -22.5512   20.9419 H   0  0  0  0  0  0
  -30.3802  -24.8710   19.5903 H   0  0  0  0  0  0
  -30.3595  -18.1731   19.3068 H   0  0  0  0  0  0
  -28.3143  -18.6626   15.6797 H   0  0  0  0  0  0
  -29.3829  -19.6905   14.7216 H   0  0  0  0  0  0
  -27.6816  -20.1228   14.9206 H   0  0  0  0  0  0
  -32.0780  -22.5185   23.4943 H   0  0  0  0  0  0
  -30.3302  -22.7355   23.6129 H   0  0  0  0  0  0
  -31.4208  -24.0601   24.0350 H   0  0  0  0  0  0
  -29.7024  -25.7293   16.4064 H   0  0  0  0  0  0
  -28.5063  -24.5689   15.8505 H   0  0  0  0  0  0
  -30.2452  -24.2601   15.6086 H   0  0  0  0  0  0
  -27.5594  -24.8613   20.8001 H   0  0  0  0  0  0
  -27.8898  -24.9142   19.0869 H   0  0  0  0  0  0
  -32.1431  -24.1166   21.7606 H   0  0  0  0  0  0
  1 25  1  0  0  0
  1 30  2  0  0  0
  1 90  1  0  0  0
  2  3  1  0  0  0
  2 25  1  0  0  0
  2 94  1  0  0  0
  2 95  1  0  0  0
  3  4  1  0  0  0
  3 96  1  0  0  0
  3 97  1  0  0  0
  4  5  1  0  0  0
  4 98  1  0  0  0
  4 99  1  0  0  0
  5  6  1  0  0  0
  5 26  1  0  0  0
  5100  1  0  0  0
  6 25  1  0  0  0
  6101  1  0  0  0
  6102  1  0  0  0
  7  8  2  0  0  0
  7 26  1  0  0  0
  7 29  1  0  0  0
  8  9  1  0  0  0
  8 22  1  0  0  0
  9 10  1  0  0  0
  9 27  2  0  0  0
 10 11  2  0  0  0
 10 15  1  0  0  0
 11 12  1  0  0  0
 11103  1  0  0  0
 12 13  2  0  0  0
 12104  1  0  0  0
 13 14  1  0  0  0
 13 31  1  0  0  0
 14 15  2  0  0  0
 14105  1  0  0  0
 15106  1  0  0  0
 16 17  2  0  0  0
 16 21  1  0  0  0
 16 31  1  0  0  0
 17 18  1  0  0  0
 17107  1  0  0  0
 18 19  2  0  0  0
 18108  1  0  0  0
 19 20  1  0  0  0
 19 24  1  0  0  0
 20 21  2  0  0  0
 20109  1  0  0  0
 21 23  1  0  0  0
 22 28  1  0  0  0
 22 32  2  0  0  0
 26 27  1  0  0  0
 28110  1  0  0  0
 28111  1  0  0  0
 29112  1  0  0  0
 29113  1  0  0  0
 33 34  1  0  0  0
 33 66  1  0  0  0
 33 70  2  0  0  0
 34 36  1  0  0  0
 34 59  1  0  0  0
 34114  1  0  0  0
 35 44  2  0  0  0
 35 45  1  0  0  0
 35 68  1  0  0  0
 36 56  1  0  0  0
 36115  1  0  0  0
 37 39  1  0  0  0
 37 47  1  0  0  0
 37 66  1  0  0  0
 37116  1  0  0  0
 38 43  2  0  0  0
 38 46  1  0  0  0
 38 47  1  0  0  0
 39 64  1  0  0  0
 39 67  2  0  0  0
 40 52  1  0  0  0
 40 53  2  0  0  0
 40 58  1  0  0  0
 41117  1  0  0  0
 41118  1  0  0  0
 41119  1  0  0  0
 41 48  1  0  0  0
 42 43  1  0  0  0
 42 66  1  0  0  0
 42120  1  0  0  0
 42121  1  0  0  0
 43 44  1  0  0  0
 44122  1  0  0  0
 45 46  2  0  0  0
 45123  1  0  0  0
 46124  1  0  0  0
 47125  1  0  0  0
 47126  1  0  0  0
 48 56  1  0  0  0
 48 65  1  0  0  0
 48127  1  0  0  0
 49 50  1  0  0  0
 49 53  1  0  0  0
 49 64  1  0  0  0
 49128  1  0  0  0
 50 51  1  0  0  0
 50129  1  0  0  0
 50130  1  0  0  0
 51 52  1  0  0  0
 51131  1  0  0  0
 51132  1  0  0  0
 52133  1  0  0  0
 52134  1  0  0  0
 53 54  1  0  0  0
 54 55  2  0  0  0
 54135  1  0  0  0
 55 57  1  0  0  0
 55136  1  0  0  0
 56 69  2  0  0  0
 57 58  2  0  0  0
 57137  1  0  0  0
 58138  1  0  0  0
 59 60  1  0  0  0
 59 61  1  0  0  0
 59 62  1  0  0  0
 60139  1  0  0  0
 60140  1  0  0  0
 60141  1  0  0  0
 61142  1  0  0  0
 61143  1  0  0  0
 61144  1  0  0  0
 62145  1  0  0  0
 62146  1  0  0  0
 62147  1  0  0  0
 63 65  1  0  0  0
 63148  1  0  0  0
 63149  1  0  0  0
 63150  1  0  0  0
 64151  1  0  0  0
 65152  1  0  0  0
 68 89  1  0  0  0
 71 74  2  0  0  0
 71 75  1  0  0  0
 71153  1  0  0  0
 72 74  1  0  0  0
 72 76  2  0  0  0
 72154  1  0  0  0
 73 75  2  0  0  0
 73 76  1  0  0  0
 73 83  1  0  0  0
 74 86  1  0  0  0
 75 92  1  0  0  0
 76 93  1  0  0  0
 77 79  1  0  0  0
 77 85  1  0  0  0
 77155  1  0  0  0
 77156  1  0  0  0
 78 80  1  0  0  0
 78 85  1  0  0  0
 78157  1  0  0  0
 78158  1  0  0  0
 79 90  1  0  0  0
 79159  1  0  0  0
 79160  1  0  0  0
 80 90  1  0  0  0
 80161  1  0  0  0
 80162  1  0  0  0
 81 83  1  0  0  0
 81 91  1  0  0  0
 81163  1  0  0  0
 81164  1  0  0  0
 82 84  1  0  0  0
 82 91  1  0  0  0
 82165  1  0  0  0
 82166  1  0  0  0
 83 84  1  0  0  0
 83167  1  0  0  0
 84 89  1  0  0  0
 84168  1  0  0  0
 85 92  1  0  0  0
 85169  1  0  0  0
 86170  1  0  0  0
 86171  1  0  0  0
 86172  1  0  0  0
 87173  1  0  0  0
 87174  1  0  0  0
 87175  1  0  0  0
 87 91  1  0  0  0
 88 93  1  0  0  0
 88176  1  0  0  0
 88177  1  0  0  0
 88178  1  0  0  0
 89179  1  0  0  0
 89180  1  0  0  0
 91181  1  0  0  0
M  CHG  1  91   1
M  ISO  4   1 100  68 101  89 101  90 100
M  END
> <chiral flag>
0

> <version>
0

> <s_m_source_file>
/data/baiqing/PycharmProjects/Reinvent-master-3.2/result/LINK_invent/BTK/process_docking_weight1_custom_sum_contain_oxygen_bond_distance_aromatic_linkinvent_7_9_3/rearranged_h_0155.sdf

> <i_m_source_file_index>
63

> <r_mmod_Potential_Energy-OPLS-2005>
168.710800170898

> <r_mmod_Stretch_Energy-OPLS-2005>
62.2837753295898

> <r_mmod_Bend_Energy-OPLS-2005>
176.379028320312

> <r_mmod_Torsional_Energy-OPLS-2005>
387.616241455078

> <r_mmod_Improper_Torsional_Energy-OPLS-2005>
2.98290348052979

> <r_mmod_Van_der_Waal_Energy-OPLS-2005>
177.558837890625

> <r_mmod_Electrostatic_Energy-OPLS-2005>
-253.77912902832

> <r_mmod_Solvation_Energy-OPLS-2005>
-412.28564453125

> <b_mmod_Minimization_Converged-OPLS-2005>
0

> <r_mmod_RMS_Derivative-OPLS-2005>
0.913330793380737

$$$$
63
                    3D
 Structure written by MMmdl.
182192  0  0  1  0            999 V2000
  -30.7516  -14.2921   20.7632 C   0  0  0  0  0  0
  -30.4353  -12.2884   19.3470 C   0  0  0  0  0  0
  -29.4767  -12.5524   18.1698 C   0  0  0  0  0  0
  -27.9991  -12.4076   18.5918 C   0  0  0  0  0  0
  -27.6784  -13.1772   19.9000 C   0  0  2  0  0  0
  -28.7226  -12.7848   20.9670 C   0  0  0  0  0  0
  -25.2662  -13.8095   20.5698 C   0  0  0  0  0  0
  -24.1870  -13.0420   20.9172 C   0  0  0  0  0  0
  -24.6381  -11.6865   20.8732 C   0  0  0  0  0  0
  -23.9025  -10.4275   21.0391 C   0  0  0  0  0  0
  -24.3585   -9.4203   21.9181 C   0  0  0  0  0  0
  -23.6275   -8.2235   22.0744 C   0  0  0  0  0  0
  -22.4254   -8.0267   21.3546 C   0  0  0  0  0  0
  -21.9885   -9.0236   20.4639 C   0  0  0  0  0  0
  -22.7199  -10.2115   20.3054 C   0  0  0  0  0  0
  -21.6847   -6.0733   22.5274 C   0  0  0  0  0  0
  -21.4012   -6.5636   23.8210 C   0  0  0  0  0  0
  -21.3654   -5.6790   24.9177 C   0  0  0  0  0  0
  -21.6052   -4.3056   24.7228 C   0  0  0  0  0  0
  -21.8816   -3.8145   23.4346 C   0  0  0  0  0  0
  -21.9185   -4.6955   22.3408 C   0  0  0  0  0  0
  -22.7895  -13.5228   21.1842 C   0  0  0  0  0  0
  -22.1653   -4.2148   21.0980 F   0  0  0  0  0  0
  -21.5630   -3.4534   25.7741 F   0  0  0  0  0  0
  -30.0546  -13.1643   20.4626 N   0  0  0  0  0  0
  -26.3104  -12.9219   20.3497 N   0  0  0  0  0  0
  -25.9301  -11.6396   20.5785 N   0  0  0  0  0  0
  -22.0526  -12.8241   22.0387 N   0  0  0  0  0  0
  -25.4426  -15.1810   20.4096 N   0  0  0  0  0  0
  -31.7521  -14.6462   20.1225 O   0  0  0  0  0  0
  -21.6619   -6.8864   21.4237 O   0  0  0  0  0  0
  -22.3585  -14.5556   20.6686 O   0  0  0  0  0  0
  -24.6099  -31.8751   23.2223 C   0  0  0  0  0  0
  -25.9018  -32.4902   23.8467 C   0  0  1  0  0  0
  -27.2106  -27.4722   20.0375 C   0  0  0  0  0  0
  -25.5902  -33.8711   24.2359 N   0  0  0  0  0  0
  -23.3972  -30.5090   21.5604 C   0  0  2  0  0  0
  -24.8356  -28.9970   20.1165 C   0  0  0  0  0  0
  -22.7372  -29.4713   22.4964 C   0  0  0  0  0  0
  -18.0248  -28.1414   22.8535 C   0  0  0  0  0  0
  -24.1454  -36.7331   23.2655 C   0  0  0  0  0  0
  -25.9313  -30.8443   21.3846 C   0  0  0  0  0  0
  -25.9995  -29.4866   20.7202 C   0  0  0  0  0  0
  -27.1882  -28.7227   20.6932 C   0  0  0  0  0  0
  -26.0123  -26.9885   19.4697 C   0  0  0  0  0  0
  -24.8317  -27.7391   19.5053 C   0  0  0  0  0  0
  -23.6074  -29.8675   20.1688 C   0  0  0  0  0  0
  -25.4097  -36.3175   24.0340 C   0  0  1  0  0  0
  -20.5847  -28.3703   23.1337 C   0  0  2  0  0  0
  -20.6779  -26.9438   22.5438 C   0  0  0  0  0  0
  -19.5743  -26.6408   21.5253 C   0  0  0  0  0  0
  -18.1906  -26.7969   22.1644 C   0  0  0  0  0  0
  -19.1501  -28.8857   23.2956 C   0  0  0  0  0  0
  -18.9444  -30.1468   23.8944 C   0  0  0  0  0  0
  -17.6451  -30.6637   24.0576 C   0  0  0  0  0  0
  -25.9038  -34.9544   23.5144 C   0  0  0  0  0  0
  -16.5337  -29.9147   23.6351 C   0  0  0  0  0  0
  -16.7234  -28.6569   23.0364 C   0  0  0  0  0  0
  -26.4488  -31.6705   25.0799 C   0  0  0  0  0  0
  -25.3769  -31.3844   26.1570 C   0  0  0  0  0  0
  -27.0383  -30.3148   24.6267 C   0  0  0  0  0  0
  -27.6026  -32.4486   25.7568 C   0  0  0  0  0  0
  -27.5583  -37.1807   24.8477 C   0  0  0  0  0  0
  -21.4094  -29.3073   22.3701 N   0  0  0  0  0  0
  -26.4276  -37.3863   23.9446 N   0  0  0  0  0  0
  -24.6640  -31.0878   22.1140 N   0  0  0  0  0  0
  -23.4148  -28.8208   23.2972 O   0  0  0  0  0  0
  -28.3796  -26.7430   20.0094 O   0  0  0  0  0  0
  -26.5559  -34.8978   22.4682 O   0  0  0  0  0  0
  -23.5292  -32.1443   23.7647 O   0  0  0  0  0  0
  -28.5351  -19.9484   20.9244 C   0  0  0  0  0  0
  -26.8701  -19.6555   22.6582 C   0  0  0  0  0  0
  -27.3509  -20.3685   21.5459 C   0  0  0  0  0  0
  -28.7636  -18.0942   22.5086 C   0  0  0  0  0  0
  -29.2275  -18.8120   21.3653 C   0  0  0  0  0  0
  -27.5575  -18.5212   23.1374 C   0  0  0  0  0  0
  -30.9666  -16.8426   23.2339 C   0  0  0  0  0  0
  -27.2473  -22.8720   21.5917 C   0  0  0  0  0  0
  -26.4517  -21.6391   19.4900 C   0  0  0  0  0  0
  -31.4234  -15.4318   22.8522 C   0  0  0  0  0  0
  -29.1861  -15.6633   22.0377 C   0  0  0  0  0  0
  -27.2047  -24.0287   20.5938 C   0  0  0  0  0  0
  -27.5417  -22.4227   18.7183 C   0  0  0  0  0  0
  -26.6109  -21.5929   21.0312 C   0  0  1  0  0  0
  -29.4581  -16.8154   22.9912 C   0  0  2  0  0  0
  -30.4257  -18.4202   20.5102 C   0  0  0  0  0  0
  -26.9316  -17.7629   24.3008 C   0  0  0  0  0  0
  -30.3005  -25.9371   18.8962 C   0  0  0  0  0  0
  -28.0855  -24.7935   18.3455 C   0  0  0  0  0  0
  -28.7837  -26.1205   18.7777 C   0  0  1  0  0  0
  -30.4166  -14.8707   21.9400 N   0  0  0  0  0  0
  -27.9773  -23.7021   19.3610 N   0  3  1  0  0  0
  -31.4702  -12.4392   19.0340 H   0  0  0  0  0  0
  -30.3781  -11.2433   19.6562 H   0  0  0  0  0  0
  -29.6970  -11.8721   17.3466 H   0  0  0  0  0  0
  -29.6440  -13.5592   17.7852 H   0  0  0  0  0  0
  -27.7908  -11.3455   18.7296 H   0  0  0  0  0  0
  -27.3427  -12.7416   17.7872 H   0  0  0  0  0  0
  -27.7686  -14.2434   19.6952 H   0  0  0  0  0  0
  -28.6980  -11.7017   21.0982 H   0  0  0  0  0  0
  -28.4864  -13.1387   21.9633 H   0  0  0  0  0  0
  -25.2732   -9.5680   22.4751 H   0  0  0  0  0  0
  -23.9987   -7.4620   22.7463 H   0  0  0  0  0  0
  -21.0820   -8.8751   19.8944 H   0  0  0  0  0  0
  -22.3665  -10.9656   19.6156 H   0  0  0  0  0  0
  -21.2007   -7.6142   23.9722 H   0  0  0  0  0  0
  -21.1482   -6.0517   25.9083 H   0  0  0  0  0  0
  -22.0599   -2.7603   23.2848 H   0  0  0  0  0  0
  -22.4111  -11.9882   22.4767 H   0  0  0  0  0  0
  -21.1151  -13.1273   22.2604 H   0  0  0  0  0  0
  -24.6842  -15.8415   20.5369 H   0  0  0  0  0  0
  -26.3084  -15.6222   20.1248 H   0  0  0  0  0  0
  -26.7067  -32.5660   23.1205 H   0  0  0  0  0  0
  -25.0109  -33.9929   25.0539 H   0  0  0  0  0  0
  -22.6845  -31.3259   21.4319 H   0  0  0  0  0  0
  -23.3763  -35.9626   23.3329 H   0  0  0  0  0  0
  -24.3526  -36.8958   22.2075 H   0  0  0  0  0  0
  -23.7122  -37.6499   23.6657 H   0  0  0  0  0  0
  -26.0530  -31.6161   20.6225 H   0  0  0  0  0  0
  -26.8147  -30.8851   22.0122 H   0  0  0  0  0  0
  -28.0876  -29.0970   21.1594 H   0  0  0  0  0  0
  -25.9229  -26.0292   19.0084 H   0  0  0  0  0  0
  -23.9308  -27.3481   19.0547 H   0  0  0  0  0  0
  -23.7419  -30.6598   19.4312 H   0  0  0  0  0  0
  -22.7269  -29.3073   19.8507 H   0  0  0  0  0  0
  -25.1241  -36.2070   25.0817 H   0  0  0  0  0  0
  -20.9950  -28.3296   24.1457 H   0  0  0  0  0  0
  -20.5800  -26.2291   23.3638 H   0  0  0  0  0  0
  -21.6640  -26.7559   22.1153 H   0  0  0  0  0  0
  -19.6930  -25.6328   21.1283 H   0  0  0  0  0  0
  -19.6720  -27.3222   20.6795 H   0  0  0  0  0  0
  -17.4192  -26.6747   21.4021 H   0  0  0  0  0  0
  -18.0262  -26.0079   22.9003 H   0  0  0  0  0  0
  -19.7914  -30.7282   24.2316 H   0  0  0  0  0  0
  -17.5023  -31.6329   24.5163 H   0  0  0  0  0  0
  -15.5357  -30.3085   23.7689 H   0  0  0  0  0  0
  -15.8615  -28.0956   22.7042 H   0  0  0  0  0  0
  -24.5831  -30.7347   25.7868 H   0  0  0  0  0  0
  -24.9121  -32.3059   26.5104 H   0  0  0  0  0  0
  -25.8103  -30.8883   27.0271 H   0  0  0  0  0  0
  -26.2979  -29.6867   24.1314 H   0  0  0  0  0  0
  -27.4095  -29.7476   25.4813 H   0  0  0  0  0  0
  -27.8835  -30.4450   23.9503 H   0  0  0  0  0  0
  -27.2574  -33.3758   26.2178 H   0  0  0  0  0  0
  -28.3828  -32.7136   25.0415 H   0  0  0  0  0  0
  -28.0728  -31.8641   26.5495 H   0  0  0  0  0  0
  -28.2583  -38.0125   24.7557 H   0  0  0  0  0  0
  -28.1068  -36.2639   24.6213 H   0  0  0  0  0  0
  -27.2310  -37.1392   25.8886 H   0  0  0  0  0  0
  -20.9171  -29.8858   21.7039 H   0  0  0  0  0  0
  -26.0183  -38.2946   24.1485 H   0  0  0  0  0  0
  -28.9246  -20.4866   20.0772 H   0  0  0  0  0  0
  -25.9576  -19.9775   23.1429 H   0  0  0  0  0  0
  -31.4881  -17.5676   22.6191 H   0  0  0  0  0  0
  -31.2138  -17.0948   24.2665 H   0  0  0  0  0  0
  -26.7520  -23.1479   22.5220 H   0  0  0  0  0  0
  -28.2898  -22.7005   21.8625 H   0  0  0  0  0  0
  -26.3318  -20.6366   19.0757 H   0  0  0  0  0  0
  -25.5069  -22.1399   19.2739 H   0  0  0  0  0  0
  -31.4467  -14.7987   23.7405 H   0  0  0  0  0  0
  -32.4354  -15.4409   22.4419 H   0  0  0  0  0  0
  -28.8883  -16.0222   21.0513 H   0  0  0  0  0  0
  -28.3350  -15.1102   22.4291 H   0  0  0  0  0  0
  -27.6247  -24.8826   21.1146 H   0  0  0  0  0  0
  -26.1685  -24.2668   20.3563 H   0  0  0  0  0  0
  -27.1349  -22.6116   17.7235 H   0  0  0  0  0  0
  -28.4237  -21.8144   18.5296 H   0  0  0  0  0  0
  -25.5968  -21.5300   21.4308 H   0  0  0  0  0  0
  -29.0601  -16.5155   23.9603 H   0  0  0  0  0  0
  -30.2491  -18.6928   19.4683 H   0  0  0  0  0  0
  -30.6357  -17.3545   20.5124 H   0  0  0  0  0  0
  -31.3161  -18.9570   20.8361 H   0  0  0  0  0  0
  -25.9328  -18.1373   24.5265 H   0  0  0  0  0  0
  -27.5358  -17.8651   25.2032 H   0  0  0  0  0  0
  -26.8229  -16.7019   24.0679 H   0  0  0  0  0  0
  -30.7243  -25.4920   17.9949 H   0  0  0  0  0  0
  -30.5551  -25.3005   19.7426 H   0  0  0  0  0  0
  -30.7870  -26.9007   19.0412 H   0  0  0  0  0  0
  -28.6797  -24.3967   17.5212 H   0  0  0  0  0  0
  -27.1237  -24.9562   17.8665 H   0  0  0  0  0  0
  -28.6193  -26.8410   17.9733 H   0  0  0  0  0  0
  -28.9206  -23.5322   19.6799 H   0  0  0  0  0  0
  1 25  1  0  0  0
  1 30  2  0  0  0
  1 91  1  0  0  0
  2  3  1  0  0  0
  2 25  1  0  0  0
  2 93  1  0  0  0
  2 94  1  0  0  0
  3  4  1  0  0  0
  3 95  1  0  0  0
  3 96  1  0  0  0
  4  5  1  0  0  0
  4 97  1  0  0  0
  4 98  1  0  0  0
  5  6  1  0  0  0
  5 26  1  0  0  0
  5 99  1  0  0  0
  6 25  1  0  0  0
  6100  1  0  0  0
  6101  1  0  0  0
  7  8  2  0  0  0
  7 26  1  0  0  0
  7 29  1  0  0  0
  8  9  1  0  0  0
  8 22  1  0  0  0
  9 10  1  0  0  0
  9 27  2  0  0  0
 10 11  2  0  0  0
 10 15  1  0  0  0
 11 12  1  0  0  0
 11102  1  0  0  0
 12 13  2  0  0  0
 12103  1  0  0  0
 13 14  1  0  0  0
 13 31  1  0  0  0
 14 15  2  0  0  0
 14104  1  0  0  0
 15105  1  0  0  0
 16 17  2  0  0  0
 16 21  1  0  0  0
 16 31  1  0  0  0
 17 18  1  0  0  0
 17106  1  0  0  0
 18 19  2  0  0  0
 18107  1  0  0  0
 19 20  1  0  0  0
 19 24  1  0  0  0
 20 21  2  0  0  0
 20108  1  0  0  0
 21 23  1  0  0  0
 22 28  1  0  0  0
 22 32  2  0  0  0
 26 27  1  0  0  0
 28109  1  0  0  0
 28110  1  0  0  0
 29111  1  0  0  0
 29112  1  0  0  0
 33 34  1  0  0  0
 33 66  1  0  0  0
 33 70  2  0  0  0
 34 36  1  0  0  0
 34 59  1  0  0  0
 34113  1  0  0  0
 35 44  2  0  0  0
 35 45  1  0  0  0
 35 68  1  0  0  0
 36 56  1  0  0  0
 36114  1  0  0  0
 37 39  1  0  0  0
 37 47  1  0  0  0
 37 66  1  0  0  0
 37115  1  0  0  0
 38 43  2  0  0  0
 38 46  1  0  0  0
 38 47  1  0  0  0
 39 64  1  0  0  0
 39 67  2  0  0  0
 40 52  1  0  0  0
 40 53  2  0  0  0
 40 58  1  0  0  0
 41116  1  0  0  0
 41117  1  0  0  0
 41118  1  0  0  0
 41 48  1  0  0  0
 42 43  1  0  0  0
 42 66  1  0  0  0
 42119  1  0  0  0
 42120  1  0  0  0
 43 44  1  0  0  0
 44121  1  0  0  0
 45 46  2  0  0  0
 45122  1  0  0  0
 46123  1  0  0  0
 47124  1  0  0  0
 47125  1  0  0  0
 48 56  1  0  0  0
 48 65  1  0  0  0
 48126  1  0  0  0
 49 50  1  0  0  0
 49 53  1  0  0  0
 49 64  1  0  0  0
 49127  1  0  0  0
 50 51  1  0  0  0
 50128  1  0  0  0
 50129  1  0  0  0
 51 52  1  0  0  0
 51130  1  0  0  0
 51131  1  0  0  0
 52132  1  0  0  0
 52133  1  0  0  0
 53 54  1  0  0  0
 54 55  2  0  0  0
 54134  1  0  0  0
 55 57  1  0  0  0
 55135  1  0  0  0
 56 69  2  0  0  0
 57 58  2  0  0  0
 57136  1  0  0  0
 58137  1  0  0  0
 59 60  1  0  0  0
 59 61  1  0  0  0
 59 62  1  0  0  0
 60138  1  0  0  0
 60139  1  0  0  0
 60140  1  0  0  0
 61141  1  0  0  0
 61142  1  0  0  0
 61143  1  0  0  0
 62144  1  0  0  0
 62145  1  0  0  0
 62146  1  0  0  0
 63 65  1  0  0  0
 63147  1  0  0  0
 63148  1  0  0  0
 63149  1  0  0  0
 64150  1  0  0  0
 65151  1  0  0  0
 68 90  1  0  0  0
 71 73  2  0  0  0
 71 75  1  0  0  0
 71152  1  0  0  0
 72 73  1  0  0  0
 72 76  2  0  0  0
 72153  1  0  0  0
 73 84  1  0  0  0
 74 75  2  0  0  0
 74 76  1  0  0  0
 74 85  1  0  0  0
 75 86  1  0  0  0
 76 87  1  0  0  0
 77 80  1  0  0  0
 77 85  1  0  0  0
 77154  1  0  0  0
 77155  1  0  0  0
 78 82  1  0  0  0
 78 84  1  0  0  0
 78156  1  0  0  0
 78157  1  0  0  0
 79 83  1  0  0  0
 79 84  1  0  0  0
 79158  1  0  0  0
 79159  1  0  0  0
 80 91  1  0  0  0
 80160  1  0  0  0
 80161  1  0  0  0
 81 85  1  0  0  0
 81 91  1  0  0  0
 81162  1  0  0  0
 81163  1  0  0  0
 82 92  1  0  0  0
 82164  1  0  0  0
 82165  1  0  0  0
 83 92  1  0  0  0
 83166  1  0  0  0
 83167  1  0  0  0
 84168  1  0  0  0
 85169  1  0  0  0
 86170  1  0  0  0
 86171  1  0  0  0
 86172  1  0  0  0
 87173  1  0  0  0
 87174  1  0  0  0
 87175  1  0  0  0
 88176  1  0  0  0
 88177  1  0  0  0
 88178  1  0  0  0
 88 90  1  0  0  0
 89 90  1  0  0  0
 89179  1  0  0  0
 89180  1  0  0  0
 89 92  1  0  0  0
 90181  1  0  0  0
 92182  1  0  0  0
M  CHG  1  92   1
M  ISO  4   1 100  68 101  90 101  91 100
M  END
> <chiral flag>
0

> <version>
0

> <s_m_source_file>
/data/baiqing/PycharmProjects/Reinvent-master-3.2/result/LINK_invent/BTK/process_docking_weight1_custom_sum_contain_oxygen_bond_distance_aromatic_linkinvent_7_9_3/rearranged_h_0155.sdf

> <i_m_source_file_index>
64

> <r_mmod_Potential_Energy-OPLS-2005>
177.69352722168

> <r_mmod_Stretch_Energy-OPLS-2005>
40.829761505127

> <r_mmod_Bend_Energy-OPLS-2005>
153.985870361328

> <r_mmod_Torsional_Energy-OPLS-2005>
413.085723876953

> <r_mmod_Improper_Torsional_Energy-OPLS-2005>
7.97252655029297

> <r_mmod_Van_der_Waal_Energy-OPLS-2005>
185.440643310547

> <r_mmod_Electrostatic_Energy-OPLS-2005>
-252.53938293457

> <r_mmod_Solvation_Energy-OPLS-2005>
-386.464050292969

> <b_mmod_Minimization_Converged-OPLS-2005>
0

> <r_mmod_RMS_Derivative-OPLS-2005>
3.76622939109802

$$$$
64
                    3D
 Structure written by MMmdl.
170180  0  0  1  0            999 V2000
  -30.6848  -14.4474   20.5286 C   0  0  0  0  0  0
  -30.4311  -12.2839   19.4047 C   0  0  0  0  0  0
  -29.5043  -12.5133   18.1936 C   0  0  0  0  0  0
  -28.0202  -12.3950   18.5982 C   0  0  0  0  0  0
  -27.6684  -13.2028   19.8772 C   0  0  2  0  0  0
  -28.7121  -12.9538   20.9889 C   0  0  0  0  0  0
  -25.2633  -13.8155   20.5685 C   0  0  0  0  0  0
  -24.1899  -13.0456   20.9177 C   0  0  0  0  0  0
  -24.6448  -11.6908   20.8728 C   0  0  0  0  0  0
  -23.9096  -10.4322   21.0414 C   0  0  0  0  0  0
  -24.3651   -9.4213   21.9167 C   0  0  0  0  0  0
  -23.6322   -8.2247   22.0722 C   0  0  0  0  0  0
  -22.4282   -8.0313   21.3532 C   0  0  0  0  0  0
  -21.9936   -9.0306   20.4635 C   0  0  0  0  0  0
  -22.7277  -10.2176   20.3052 C   0  0  0  0  0  0
  -21.6880   -6.0768   22.5300 C   0  0  0  0  0  0
  -21.4035   -6.5655   23.8235 C   0  0  0  0  0  0
  -21.3635   -5.6778   24.9167 C   0  0  0  0  0  0
  -21.6044   -4.3052   24.7216 C   0  0  0  0  0  0
  -21.8824   -3.8167   23.4335 C   0  0  0  0  0  0
  -21.9204   -4.6996   22.3404 C   0  0  0  0  0  0
  -22.7911  -13.5256   21.1844 C   0  0  0  0  0  0
  -22.1679   -4.2190   21.0973 F   0  0  0  0  0  0
  -21.5593   -3.4518   25.7721 F   0  0  0  0  0  0
  -30.0395  -13.2557   20.4327 N   0  0  0  0  0  0
  -26.3076  -12.9327   20.3355 N   0  0  0  0  0  0
  -25.9356  -11.6493   20.5718 N   0  0  0  0  0  0
  -22.0515  -12.8291   22.0397 N   0  0  0  0  0  0
  -25.4348  -15.1900   20.4176 N   0  0  0  0  0  0
  -31.8475  -14.6119   20.1443 O   0  0  0  0  0  0
  -21.6622   -6.8926   21.4271 O   0  0  0  0  0  0
  -22.3615  -14.5576   20.6687 O   0  0  0  0  0  0
  -24.6109  -31.8685   23.2104 C   0  0  0  0  0  0
  -25.9027  -32.4826   23.8372 C   0  0  1  0  0  0
  -27.2265  -27.4625   20.0595 C   0  0  0  0  0  0
  -25.5920  -33.8616   24.2339 N   0  0  0  0  0  0
  -23.3978  -30.4936   21.5507 C   0  0  2  0  0  0
  -24.8439  -28.9638   20.1099 C   0  0  0  0  0  0
  -22.7381  -29.4671   22.4978 C   0  0  0  0  0  0
  -18.0286  -28.1367   22.8523 C   0  0  0  0  0  0
  -24.1493  -36.7315   23.2619 C   0  0  0  0  0  0
  -25.9223  -30.8386   21.3628 C   0  0  0  0  0  0
  -25.9999  -29.4716   20.7151 C   0  0  0  0  0  0
  -27.1946  -28.7209   20.7032 C   0  0  0  0  0  0
  -26.0646  -26.9745   19.4320 C   0  0  0  0  0  0
  -24.8668  -27.7126   19.4696 C   0  0  0  0  0  0
  -23.6023  -29.8231   20.1655 C   0  0  0  0  0  0
  -25.4121  -36.3117   24.0326 C   0  0  1  0  0  0
  -20.5869  -28.3663   23.1319 C   0  0  2  0  0  0
  -20.6778  -26.9410   22.5406 C   0  0  0  0  0  0
  -19.5752  -26.6406   21.5198 C   0  0  0  0  0  0
  -18.1939  -26.7944   22.1628 C   0  0  0  0  0  0
  -19.1532  -28.8838   23.2942 C   0  0  0  0  0  0
  -18.9448  -30.1445   23.8953 C   0  0  0  0  0  0
  -17.6444  -30.6582   24.0560 C   0  0  0  0  0  0
  -25.9043  -34.9467   23.5136 C   0  0  0  0  0  0
  -16.5337  -29.9073   23.6316 C   0  0  0  0  0  0
  -16.7277  -28.6485   23.0358 C   0  0  0  0  0  0
  -26.4479  -31.6578   25.0679 C   0  0  0  0  0  0
  -25.3761  -31.3653   26.1429 C   0  0  0  0  0  0
  -27.0250  -30.3019   24.5986 C   0  0  0  0  0  0
  -27.6076  -32.4244   25.7442 C   0  0  0  0  0  0
  -27.5592  -37.1814   24.8461 C   0  0  0  0  0  0
  -21.4106  -29.3042   22.3726 N   0  0  0  0  0  0
  -26.4309  -37.3809   23.9408 N   0  0  0  0  0  0
  -24.6625  -31.0801   22.0996 N   0  0  0  0  0  0
  -23.4181  -28.8216   23.2986 O   0  0  0  0  0  0
  -28.3621  -26.6952   20.0056 O   0  0  0  0  0  0
  -26.5567  -34.8923   22.4669 O   0  0  0  0  0  0
  -23.5309  -32.1383   23.7540 O   0  0  0  0  0  0
  -30.7820  -21.6295   24.2149 C   0  0  0  0  0  0
  -30.9633  -20.3459   24.7600 C   0  0  0  0  0  0
  -29.1914  -20.7280   22.6126 C   0  0  0  0  0  0
  -29.8850  -21.8321   23.1490 C   0  0  0  0  0  0
  -30.2761  -19.2341   24.2203 C   0  0  0  0  0  0
  -29.4049  -19.4330   23.1278 C   0  0  0  0  0  0
  -29.3458  -17.8344   20.2701 C   0  0  0  0  0  0
  -29.2296  -24.2862   23.6283 C   0  0  0  0  0  0
  -29.8889  -16.5782   19.5945 C   0  0  0  0  0  0
  -29.4055  -16.0725   21.8787 C   0  0  0  0  0  0
  -29.6547  -23.2214   22.6466 C   0  0  2  0  0  0
  -28.2637  -23.8070   22.5593 C   0  0  2  0  0  0
  -29.6256  -17.5764   21.7381 C   0  0  2  0  0  0
  -31.3536  -17.6841   25.7147 C   0  0  0  0  0  0
  -28.6591  -25.9938   21.2108 C   0  0  0  0  0  0
  -27.8085  -24.7053   21.4140 C   0  0  1  0  0  0
  -29.8471  -15.5055   20.6025 N   0  0  0  0  0  0
  -26.4838  -25.0581   21.7662 O   0  0  0  0  0  0
  -28.7677  -18.3603   22.5585 O   0  0  0  0  0  0
  -30.4019  -17.9452   24.6929 O   0  0  0  0  0  0
  -31.4703  -12.4009   19.0945 H   0  0  0  0  0  0
  -30.3401  -11.2622   19.7801 H   0  0  0  0  0  0
  -29.7406  -11.8022   17.4015 H   0  0  0  0  0  0
  -29.6898  -13.5053   17.7754 H   0  0  0  0  0  0
  -27.8043  -11.3401   18.7548 H   0  0  0  0  0  0
  -27.3893  -12.7216   17.7712 H   0  0  0  0  0  0
  -27.7117  -14.2558   19.6031 H   0  0  0  0  0  0
  -28.6754  -11.9151   21.3242 H   0  0  0  0  0  0
  -28.4898  -13.5526   21.8718 H   0  0  0  0  0  0
  -25.2817   -9.5702   22.4712 H   0  0  0  0  0  0
  -24.0061   -7.4638   22.7426 H   0  0  0  0  0  0
  -21.0856   -8.8893   19.8945 H   0  0  0  0  0  0
  -22.3785  -10.9739   19.6169 H   0  0  0  0  0  0
  -21.2048   -7.6158   23.9793 H   0  0  0  0  0  0
  -21.1425   -6.0450   25.9069 H   0  0  0  0  0  0
  -22.0622   -2.7640   23.2805 H   0  0  0  0  0  0
  -22.4117  -11.9991   22.4892 H   0  0  0  0  0  0
  -21.1134  -13.1372   22.2540 H   0  0  0  0  0  0
  -24.6698  -15.8449   20.5251 H   0  0  0  0  0  0
  -26.2974  -15.6349   20.1308 H   0  0  0  0  0  0
  -26.7098  -32.5564   23.1138 H   0  0  0  0  0  0
  -25.0150  -33.9770   25.0538 H   0  0  0  0  0  0
  -22.6875  -31.3118   21.4131 H   0  0  0  0  0  0
  -23.3735  -35.9668   23.3303 H   0  0  0  0  0  0
  -24.3584  -36.8885   22.2029 H   0  0  0  0  0  0
  -23.7275  -37.6537   23.6605 H   0  0  0  0  0  0
  -26.0263  -31.6051   20.5912 H   0  0  0  0  0  0
  -26.8122  -30.8966   21.9778 H   0  0  0  0  0  0
  -28.0913  -29.1081   21.1673 H   0  0  0  0  0  0
  -26.0903  -26.0298   18.9063 H   0  0  0  0  0  0
  -23.9792  -27.3274   18.9869 H   0  0  0  0  0  0
  -23.7005  -30.5901   19.3964 H   0  0  0  0  0  0
  -22.7296  -29.2324   19.8794 H   0  0  0  0  0  0
  -25.1305  -36.1967   25.0823 H   0  0  0  0  0  0
  -21.0006  -28.3207   24.1406 H   0  0  0  0  0  0
  -20.5689  -26.2258   23.3561 H   0  0  0  0  0  0
  -21.6648  -26.7451   22.1186 H   0  0  0  0  0  0
  -19.6897  -25.6323   21.1202 H   0  0  0  0  0  0
  -19.6679  -27.3223   20.6734 H   0  0  0  0  0  0
  -17.4207  -26.6702   21.4024 H   0  0  0  0  0  0
  -18.0357  -26.0041   22.9001 H   0  0  0  0  0  0
  -19.7905  -30.7275   24.2316 H   0  0  0  0  0  0
  -17.4974  -31.6249   24.5163 H   0  0  0  0  0  0
  -15.5339  -30.2978   23.7594 H   0  0  0  0  0  0
  -15.8693  -28.0799   22.7048 H   0  0  0  0  0  0
  -24.5996  -30.6939   25.7767 H   0  0  0  0  0  0
  -24.8884  -32.2779   26.4838 H   0  0  0  0  0  0
  -25.8131  -30.8860   27.0196 H   0  0  0  0  0  0
  -26.2738  -29.6851   24.1046 H   0  0  0  0  0  0
  -27.4030  -29.7199   25.4393 H   0  0  0  0  0  0
  -27.8593  -30.4325   23.9092 H   0  0  0  0  0  0
  -27.2726  -33.3525   26.2072 H   0  0  0  0  0  0
  -28.3862  -32.6810   25.0255 H   0  0  0  0  0  0
  -28.0768  -31.8325   26.5296 H   0  0  0  0  0  0
  -28.2613  -38.0108   24.7527 H   0  0  0  0  0  0
  -28.1085  -36.2647   24.6278 H   0  0  0  0  0  0
  -27.2296  -37.1449   25.8854 H   0  0  0  0  0  0
  -20.9224  -29.8734   21.6941 H   0  0  0  0  0  0
  -26.0176  -38.2879   24.1412 H   0  0  0  0  0  0
  -31.3129  -22.4697   24.6421 H   0  0  0  0  0  0
  -31.6259  -20.2457   25.6044 H   0  0  0  0  0  0
  -28.4924  -20.8708   21.8002 H   0  0  0  0  0  0
  -28.2713  -17.9065   20.0991 H   0  0  0  0  0  0
  -29.8100  -18.7569   19.9202 H   0  0  0  0  0  0
  -29.7149  -25.2543   23.5318 H   0  0  0  0  0  0
  -29.0255  -23.9802   24.6527 H   0  0  0  0  0  0
  -30.9051  -16.7522   19.2393 H   0  0  0  0  0  0
  -29.2821  -16.3150   18.7272 H   0  0  0  0  0  0
  -29.9407  -15.6667   22.7405 H   0  0  0  0  0  0
  -28.3445  -15.8591   22.0056 H   0  0  0  0  0  0
  -30.3804  -23.4835   21.8786 H   0  0  0  0  0  0
  -27.4847  -23.1150   22.8857 H   0  0  0  0  0  0
  -30.6825  -17.7710   21.9375 H   0  0  0  0  0  0
  -31.4854  -16.6073   25.7949 H   0  0  0  0  0  0
  -31.0174  -18.0503   26.6854 H   0  0  0  0  0  0
  -32.3328  -18.1058   25.4923 H   0  0  0  0  0  0
  -28.5912  -26.6650   22.0679 H   0  0  0  0  0  0
  -29.7073  -25.7058   21.1217 H   0  0  0  0  0  0
  -27.7996  -24.1091   20.4991 H   0  0  0  0  0  0
  -26.1724  -25.6711   21.1089 H   0  0  0  0  0  0
  1 25  1  0  0  0
  1 30  2  0  0  0
  1 87  1  0  0  0
  2  3  1  0  0  0
  2 25  1  0  0  0
  2 91  1  0  0  0
  2 92  1  0  0  0
  3  4  1  0  0  0
  3 93  1  0  0  0
  3 94  1  0  0  0
  4  5  1  0  0  0
  4 95  1  0  0  0
  4 96  1  0  0  0
  5  6  1  0  0  0
  5 26  1  0  0  0
  5 97  1  0  0  0
  6 25  1  0  0  0
  6 98  1  0  0  0
  6 99  1  0  0  0
  7  8  2  0  0  0
  7 26  1  0  0  0
  7 29  1  0  0  0
  8  9  1  0  0  0
  8 22  1  0  0  0
  9 10  1  0  0  0
  9 27  2  0  0  0
 10 11  2  0  0  0
 10 15  1  0  0  0
 11 12  1  0  0  0
 11100  1  0  0  0
 12 13  2  0  0  0
 12101  1  0  0  0
 13 14  1  0  0  0
 13 31  1  0  0  0
 14 15  2  0  0  0
 14102  1  0  0  0
 15103  1  0  0  0
 16 17  2  0  0  0
 16 21  1  0  0  0
 16 31  1  0  0  0
 17 18  1  0  0  0
 17104  1  0  0  0
 18 19  2  0  0  0
 18105  1  0  0  0
 19 20  1  0  0  0
 19 24  1  0  0  0
 20 21  2  0  0  0
 20106  1  0  0  0
 21 23  1  0  0  0
 22 28  1  0  0  0
 22 32  2  0  0  0
 26 27  1  0  0  0
 28107  1  0  0  0
 28108  1  0  0  0
 29109  1  0  0  0
 29110  1  0  0  0
 33 34  1  0  0  0
 33 66  1  0  0  0
 33 70  2  0  0  0
 34 36  1  0  0  0
 34 59  1  0  0  0
 34111  1  0  0  0
 35 44  2  0  0  0
 35 45  1  0  0  0
 35 68  1  0  0  0
 36 56  1  0  0  0
 36112  1  0  0  0
 37 39  1  0  0  0
 37 47  1  0  0  0
 37 66  1  0  0  0
 37113  1  0  0  0
 38 43  2  0  0  0
 38 46  1  0  0  0
 38 47  1  0  0  0
 39 64  1  0  0  0
 39 67  2  0  0  0
 40 52  1  0  0  0
 40 53  2  0  0  0
 40 58  1  0  0  0
 41114  1  0  0  0
 41115  1  0  0  0
 41116  1  0  0  0
 41 48  1  0  0  0
 42 43  1  0  0  0
 42 66  1  0  0  0
 42117  1  0  0  0
 42118  1  0  0  0
 43 44  1  0  0  0
 44119  1  0  0  0
 45 46  2  0  0  0
 45120  1  0  0  0
 46121  1  0  0  0
 47122  1  0  0  0
 47123  1  0  0  0
 48 56  1  0  0  0
 48 65  1  0  0  0
 48124  1  0  0  0
 49 50  1  0  0  0
 49 53  1  0  0  0
 49 64  1  0  0  0
 49125  1  0  0  0
 50 51  1  0  0  0
 50126  1  0  0  0
 50127  1  0  0  0
 51 52  1  0  0  0
 51128  1  0  0  0
 51129  1  0  0  0
 52130  1  0  0  0
 52131  1  0  0  0
 53 54  1  0  0  0
 54 55  2  0  0  0
 54132  1  0  0  0
 55 57  1  0  0  0
 55133  1  0  0  0
 56 69  2  0  0  0
 57 58  2  0  0  0
 57134  1  0  0  0
 58135  1  0  0  0
 59 60  1  0  0  0
 59 61  1  0  0  0
 59 62  1  0  0  0
 60136  1  0  0  0
 60137  1  0  0  0
 60138  1  0  0  0
 61139  1  0  0  0
 61140  1  0  0  0
 61141  1  0  0  0
 62142  1  0  0  0
 62143  1  0  0  0
 62144  1  0  0  0
 63 65  1  0  0  0
 63145  1  0  0  0
 63146  1  0  0  0
 63147  1  0  0  0
 64148  1  0  0  0
 65149  1  0  0  0
 68 85  1  0  0  0
 71 72  2  0  0  0
 71 74  1  0  0  0
 71150  1  0  0  0
 72 75  1  0  0  0
 72151  1  0  0  0
 73 74  2  0  0  0
 73 76  1  0  0  0
 73152  1  0  0  0
 74 81  1  0  0  0
 75 76  2  0  0  0
 75 90  1  0  0  0
 76 89  1  0  0  0
 77 79  1  0  0  0
 77 83  1  0  0  0
 77153  1  0  0  0
 77154  1  0  0  0
 78 81  1  0  0  0
 78155  1  0  0  0
 78156  1  0  0  0
 78 82  1  0  0  0
 79 87  1  0  0  0
 79157  1  0  0  0
 79158  1  0  0  0
 80 83  1  0  0  0
 80 87  1  0  0  0
 80159  1  0  0  0
 80160  1  0  0  0
 81 82  1  0  0  0
 81161  1  0  0  0
 82 86  1  0  0  0
 82162  1  0  0  0
 83 89  1  0  0  0
 83163  1  0  0  0
 84 90  1  0  0  0
 84164  1  0  0  0
 84165  1  0  0  0
 84166  1  0  0  0
 85 86  1  0  0  0
 85167  1  0  0  0
 85168  1  0  0  0
 86 88  1  0  0  0
 86169  1  0  0  0
 88170  1  0  0  0
M  ISO  4   1 100  68 101  85 101  87 100
M  END
> <chiral flag>
0

> <version>
0

> <s_m_source_file>
/data/baiqing/PycharmProjects/Reinvent-master-3.2/result/LINK_invent/BTK/process_docking_weight1_custom_sum_contain_oxygen_bond_distance_aromatic_linkinvent_7_9_3/rearranged_h_0155.sdf

> <i_m_source_file_index>
65

> <r_mmod_Potential_Energy-OPLS-2005>
213.291702270508

> <r_mmod_Stretch_Energy-OPLS-2005>
33.8026084899902

> <r_mmod_Bend_Energy-OPLS-2005>
122.855827331543

> <r_mmod_Torsional_Energy-OPLS-2005>
426.200439453125

> <r_mmod_Improper_Torsional_Energy-OPLS-2005>
17.2811527252197

> <r_mmod_Van_der_Waal_Energy-OPLS-2005>
150.686889648438

> <r_mmod_Electrostatic_Energy-OPLS-2005>
-336.046234130859

> <r_mmod_Solvation_Energy-OPLS-2005>
-214.466766357422

> <b_mmod_Minimization_Converged-OPLS-2005>
0

> <r_mmod_RMS_Derivative-OPLS-2005>
5.27775192260742

$$$$
65
                    3D
 Structure written by MMmdl.
171181  0  0  1  0            999 V2000
  -30.7118  -14.5648   20.5093 C   0  0  0  0  0  0
  -30.4119  -12.3549   19.4437 C   0  0  0  0  0  0
  -29.4960  -12.5132   18.2138 C   0  0  0  0  0  0
  -28.0152  -12.3792   18.6195 C   0  0  0  0  0  0
  -27.6503  -13.2329   19.8658 C   0  0  2  0  0  0
  -28.6986  -13.0892   20.9896 C   0  0  0  0  0  0
  -25.2541  -13.8203   20.5716 C   0  0  0  0  0  0
  -24.1828  -13.0439   20.9199 C   0  0  0  0  0  0
  -24.6421  -11.6923   20.8755 C   0  0  0  0  0  0
  -23.9105  -10.4291   21.0418 C   0  0  0  0  0  0
  -24.3654   -9.4203   21.9196 C   0  0  0  0  0  0
  -23.6320   -8.2237   22.0763 C   0  0  0  0  0  0
  -22.4292   -8.0291   21.3555 C   0  0  0  0  0  0
  -21.9941   -9.0263   20.4652 C   0  0  0  0  0  0
  -22.7274  -10.2137   20.3064 C   0  0  0  0  0  0
  -21.6847   -6.0769   22.5293 C   0  0  0  0  0  0
  -21.4001   -6.5665   23.8231 C   0  0  0  0  0  0
  -21.3657   -5.6811   24.9188 C   0  0  0  0  0  0
  -21.6044   -4.3078   24.7222 C   0  0  0  0  0  0
  -21.8806   -3.8177   23.4337 C   0  0  0  0  0  0
  -21.9190   -4.6999   22.3404 C   0  0  0  0  0  0
  -22.7851  -13.5228   21.1859 C   0  0  0  0  0  0
  -22.1657   -4.2201   21.0974 F   0  0  0  0  0  0
  -21.5635   -3.4547   25.7730 F   0  0  0  0  0  0
  -30.0129  -13.3944   20.4104 N   0  0  0  0  0  0
  -26.2998  -12.9424   20.3368 N   0  0  0  0  0  0
  -25.9367  -11.6556   20.5786 N   0  0  0  0  0  0
  -22.0484  -12.8225   22.0405 N   0  0  0  0  0  0
  -25.4214  -15.1922   20.4122 N   0  0  0  0  0  0
  -31.9019  -14.6142   20.1797 O   0  0  0  0  0  0
  -21.6644   -6.8905   21.4253 O   0  0  0  0  0  0
  -22.3529  -14.5541   20.6710 O   0  0  0  0  0  0
  -24.6236  -31.8631   23.2084 C   0  0  0  0  0  0
  -25.9104  -32.4806   23.8382 C   0  0  1  0  0  0
  -27.2012  -27.3458   20.0887 C   0  0  0  0  0  0
  -25.5915  -33.8600   24.2290 N   0  0  0  0  0  0
  -23.4120  -30.4922   21.5538 C   0  0  2  0  0  0
  -24.8495  -28.9581   20.1102 C   0  0  0  0  0  0
  -22.7439  -29.4653   22.4985 C   0  0  0  0  0  0
  -18.0270  -28.1393   22.8502 C   0  0  0  0  0  0
  -24.1468  -36.7306   23.2631 C   0  0  0  0  0  0
  -25.9527  -30.7984   21.3773 C   0  0  0  0  0  0
  -26.0213  -29.4306   20.7145 C   0  0  0  0  0  0
  -27.2000  -28.6320   20.7032 C   0  0  0  0  0  0
  -26.0055  -26.9271   19.4557 C   0  0  0  0  0  0
  -24.8412  -27.7090   19.4773 C   0  0  0  0  0  0
  -23.6200  -29.8368   20.1665 C   0  0  0  0  0  0
  -25.4101  -36.3101   24.0322 C   0  0  1  0  0  0
  -20.5870  -28.3678   23.1318 C   0  0  2  0  0  0
  -20.6762  -26.9404   22.5441 C   0  0  0  0  0  0
  -19.5755  -26.6386   21.5231 C   0  0  0  0  0  0
  -18.1922  -26.7949   22.1616 C   0  0  0  0  0  0
  -19.1526  -28.8850   23.2907 C   0  0  0  0  0  0
  -18.9441  -30.1453   23.8921 C   0  0  0  0  0  0
  -17.6445  -30.6589   24.0582 C   0  0  0  0  0  0
  -25.9046  -34.9468   23.5111 C   0  0  0  0  0  0
  -16.5335  -29.9097   23.6341 C   0  0  0  0  0  0
  -16.7261  -28.6516   23.0361 C   0  0  0  0  0  0
  -26.4479  -31.6612   25.0744 C   0  0  0  0  0  0
  -25.3712  -31.3790   26.1482 C   0  0  0  0  0  0
  -27.0307  -30.3023   24.6210 C   0  0  0  0  0  0
  -27.6029  -32.4365   25.7515 C   0  0  0  0  0  0
  -27.5602  -37.1781   24.8437 C   0  0  0  0  0  0
  -21.4155  -29.3035   22.3711 N   0  0  0  0  0  0
  -26.4277  -37.3804   23.9439 N   0  0  0  0  0  0
  -24.6824  -31.0659   22.1033 N   0  0  0  0  0  0
  -23.4178  -28.8179   23.3054 O   0  0  0  0  0  0
  -28.3106  -26.4902   20.1511 O   0  0  0  0  0  0
  -26.5629  -34.8922   22.4682 O   0  0  0  0  0  0
  -23.5407  -32.1433   23.7424 O   0  0  0  0  0  0
  -28.4925  -22.6848   19.0421 C   0  0  0  0  0  0
  -28.7590  -21.3415   19.4117 C   0  0  0  0  0  0
  -28.9673  -23.4169   21.2881 C   0  0  0  0  0  0
  -29.2395  -22.0669   21.6734 C   0  0  0  0  0  0
  -28.5895  -23.7564   19.9639 C   0  0  0  0  0  0
  -29.1424  -20.9960   20.7302 C   0  0  0  0  0  0
  -29.3207  -17.8663   19.3219 C   0  0  0  0  0  0
  -28.4989  -17.4440   21.6563 C   0  0  0  0  0  0
  -28.3293  -21.8288   24.0676 C   0  0  0  0  0  0
  -30.4227  -16.8156   19.6102 C   0  0  0  0  0  0
  -29.6402  -16.3902   21.8129 C   0  0  0  0  0  0
  -28.9424  -21.9560   25.4733 C   0  0  0  0  0  0
  -30.5402  -22.6809   23.8596 C   0  0  0  0  0  0
  -29.5454  -21.7592   23.1414 C   0  0  2  0  0  0
  -28.7180  -18.5449   20.5772 C   0  0  0  0  0  0
  -28.1996  -25.1897   19.4780 C   0  0  0  0  0  0
  -29.9953  -15.7386   20.5374 N   0  0  0  0  0  0
  -30.3523  -22.3586   25.2847 N   0  3  0  0  0  0
  -29.4524  -19.6805   21.1123 O   0  0  0  0  0  0
  -31.4587  -12.4326   19.1443 H   0  0  0  0  0  0
  -30.3025  -11.3615   19.8819 H   0  0  0  0  0  0
  -29.7473  -11.7716   17.4551 H   0  0  0  0  0  0
  -29.6652  -13.4880   17.7521 H   0  0  0  0  0  0
  -27.8189  -11.3263   18.8184 H   0  0  0  0  0  0
  -27.3721  -12.6538   17.7820 H   0  0  0  0  0  0
  -27.6662  -14.2745   19.5440 H   0  0  0  0  0  0
  -28.6926  -12.0784   21.3968 H   0  0  0  0  0  0
  -28.4609  -13.7515   21.8215 H   0  0  0  0  0  0
  -25.2783   -9.5685   22.4788 H   0  0  0  0  0  0
  -24.0039   -7.4623   22.7463 H   0  0  0  0  0  0
  -21.0887   -8.8763   19.8954 H   0  0  0  0  0  0
  -22.3724  -10.9684   19.6184 H   0  0  0  0  0  0
  -21.1984   -7.6171   23.9754 H   0  0  0  0  0  0
  -21.1493   -6.0535   25.9096 H   0  0  0  0  0  0
  -22.0597   -2.7650   23.2808 H   0  0  0  0  0  0
  -22.4078  -11.9873   22.4793 H   0  0  0  0  0  0
  -21.1097  -13.1251   22.2590 H   0  0  0  0  0  0
  -24.6555  -15.8464   20.5251 H   0  0  0  0  0  0
  -26.2786  -15.6310   20.1025 H   0  0  0  0  0  0
  -26.7165  -32.5456   23.1118 H   0  0  0  0  0  0
  -25.0024  -33.9766   25.0415 H   0  0  0  0  0  0
  -22.7050  -31.3131   21.4197 H   0  0  0  0  0  0
  -23.3754  -35.9611   23.3230 H   0  0  0  0  0  0
  -24.3580  -36.9011   22.2064 H   0  0  0  0  0  0
  -23.7172  -37.6460   23.6703 H   0  0  0  0  0  0
  -26.0826  -31.5642   20.6112 H   0  0  0  0  0  0
  -26.8352  -30.8429   22.0035 H   0  0  0  0  0  0
  -28.0986  -28.9851   21.1893 H   0  0  0  0  0  0
  -25.9232  -25.9750   18.9526 H   0  0  0  0  0  0
  -23.9392  -27.3438   19.0049 H   0  0  0  0  0  0
  -23.7344  -30.6181   19.4146 H   0  0  0  0  0  0
  -22.7381  -29.2677   19.8666 H   0  0  0  0  0  0
  -25.1275  -36.1944   25.0813 H   0  0  0  0  0  0
  -20.9955  -28.3239   24.1452 H   0  0  0  0  0  0
  -20.5647  -26.2283   23.3638 H   0  0  0  0  0  0
  -21.6632  -26.7436   22.1239 H   0  0  0  0  0  0
  -19.6897  -25.6290   21.1281 H   0  0  0  0  0  0
  -19.6726  -27.3192   20.6761 H   0  0  0  0  0  0
  -17.4208  -26.6737   21.3992 H   0  0  0  0  0  0
  -18.0274  -26.0073   22.8978 H   0  0  0  0  0  0
  -19.7906  -30.7268   24.2313 H   0  0  0  0  0  0
  -17.4991  -31.6284   24.5149 H   0  0  0  0  0  0
  -15.5336  -30.3007   23.7648 H   0  0  0  0  0  0
  -15.8656  -28.0834   22.7087 H   0  0  0  0  0  0
  -24.5877  -30.7136   25.7835 H   0  0  0  0  0  0
  -24.8907  -32.2974   26.4867 H   0  0  0  0  0  0
  -25.8026  -30.9006   27.0283 H   0  0  0  0  0  0
  -26.2876  -29.6803   24.1196 H   0  0  0  0  0  0
  -27.3943  -29.7269   25.4736 H   0  0  0  0  0  0
  -27.8780  -30.4293   23.9467 H   0  0  0  0  0  0
  -27.2600  -33.3638   26.2129 H   0  0  0  0  0  0
  -28.3813  -32.7002   25.0338 H   0  0  0  0  0  0
  -28.0728  -31.8491   26.5414 H   0  0  0  0  0  0
  -28.2536  -38.0161   24.7617 H   0  0  0  0  0  0
  -28.1193  -36.2714   24.6074 H   0  0  0  0  0  0
  -27.2371  -37.1190   25.8845 H   0  0  0  0  0  0
  -20.9311  -29.8750   21.6925 H   0  0  0  0  0  0
  -26.0155  -38.2860   24.1536 H   0  0  0  0  0  0
  -28.1929  -22.8912   18.0243 H   0  0  0  0  0  0
  -28.6694  -20.5791   18.6534 H   0  0  0  0  0  0
  -29.0038  -24.2125   22.0180 H   0  0  0  0  0  0
  -28.5137  -17.3539   18.7949 H   0  0  0  0  0  0
  -29.7002  -18.6094   18.6224 H   0  0  0  0  0  0
  -28.2917  -17.9137   22.6185 H   0  0  0  0  0  0
  -27.5898  -16.9000   21.3983 H   0  0  0  0  0  0
  -27.7464  -22.7262   23.8524 H   0  0  0  0  0  0
  -27.6632  -20.9708   23.9664 H   0  0  0  0  0  0
  -31.3097  -17.3131   20.0082 H   0  0  0  0  0  0
  -30.7291  -16.3817   18.6558 H   0  0  0  0  0  0
  -29.3456  -15.6483   22.5549 H   0  0  0  0  0  0
  -30.5287  -16.8734   22.2240 H   0  0  0  0  0  0
  -28.9032  -21.0084   26.0120 H   0  0  0  0  0  0
  -28.4034  -22.6938   26.0681 H   0  0  0  0  0  0
  -30.2902  -23.7335   23.7236 H   0  0  0  0  0  0
  -31.5709  -22.5390   23.5329 H   0  0  0  0  0  0
  -29.9581  -20.7525   23.2062 H   0  0  0  0  0  0
  -27.7271  -18.9164   20.3105 H   0  0  0  0  0  0
  -27.4701  -24.9745   20.2608 H   0  0  0  0  0  0
  -29.2869  -25.2726   19.4798 H   0  0  0  0  0  0
  -30.9395  -21.5738   25.5171 H   0  0  0  0  0  0
  -30.6086  -23.1275   25.8838 H   0  0  0  0  0  0
  1 25  1  0  0  0
  1 30  2  0  0  0
  1 87  1  0  0  0
  2  3  1  0  0  0
  2 25  1  0  0  0
  2 90  1  0  0  0
  2 91  1  0  0  0
  3  4  1  0  0  0
  3 92  1  0  0  0
  3 93  1  0  0  0
  4  5  1  0  0  0
  4 94  1  0  0  0
  4 95  1  0  0  0
  5  6  1  0  0  0
  5 26  1  0  0  0
  5 96  1  0  0  0
  6 25  1  0  0  0
  6 97  1  0  0  0
  6 98  1  0  0  0
  7  8  2  0  0  0
  7 26  1  0  0  0
  7 29  1  0  0  0
  8  9  1  0  0  0
  8 22  1  0  0  0
  9 10  1  0  0  0
  9 27  2  0  0  0
 10 11  2  0  0  0
 10 15  1  0  0  0
 11 12  1  0  0  0
 11 99  1  0  0  0
 12 13  2  0  0  0
 12100  1  0  0  0
 13 14  1  0  0  0
 13 31  1  0  0  0
 14 15  2  0  0  0
 14101  1  0  0  0
 15102  1  0  0  0
 16 17  2  0  0  0
 16 21  1  0  0  0
 16 31  1  0  0  0
 17 18  1  0  0  0
 17103  1  0  0  0
 18 19  2  0  0  0
 18104  1  0  0  0
 19 20  1  0  0  0
 19 24  1  0  0  0
 20 21  2  0  0  0
 20105  1  0  0  0
 21 23  1  0  0  0
 22 28  1  0  0  0
 22 32  2  0  0  0
 26 27  1  0  0  0
 28106  1  0  0  0
 28107  1  0  0  0
 29108  1  0  0  0
 29109  1  0  0  0
 33 34  1  0  0  0
 33 66  1  0  0  0
 33 70  2  0  0  0
 34 36  1  0  0  0
 34 59  1  0  0  0
 34110  1  0  0  0
 35 44  2  0  0  0
 35 45  1  0  0  0
 35 68  1  0  0  0
 36 56  1  0  0  0
 36111  1  0  0  0
 37 39  1  0  0  0
 37 47  1  0  0  0
 37 66  1  0  0  0
 37112  1  0  0  0
 38 43  2  0  0  0
 38 46  1  0  0  0
 38 47  1  0  0  0
 39 64  1  0  0  0
 39 67  2  0  0  0
 40 52  1  0  0  0
 40 53  2  0  0  0
 40 58  1  0  0  0
 41113  1  0  0  0
 41114  1  0  0  0
 41115  1  0  0  0
 41 48  1  0  0  0
 42 43  1  0  0  0
 42 66  1  0  0  0
 42116  1  0  0  0
 42117  1  0  0  0
 43 44  1  0  0  0
 44118  1  0  0  0
 45 46  2  0  0  0
 45119  1  0  0  0
 46120  1  0  0  0
 47121  1  0  0  0
 47122  1  0  0  0
 48 56  1  0  0  0
 48 65  1  0  0  0
 48123  1  0  0  0
 49 50  1  0  0  0
 49 53  1  0  0  0
 49 64  1  0  0  0
 49124  1  0  0  0
 50 51  1  0  0  0
 50125  1  0  0  0
 50126  1  0  0  0
 51 52  1  0  0  0
 51127  1  0  0  0
 51128  1  0  0  0
 52129  1  0  0  0
 52130  1  0  0  0
 53 54  1  0  0  0
 54 55  2  0  0  0
 54131  1  0  0  0
 55 57  1  0  0  0
 55132  1  0  0  0
 56 69  2  0  0  0
 57 58  2  0  0  0
 57133  1  0  0  0
 58134  1  0  0  0
 59 60  1  0  0  0
 59 61  1  0  0  0
 59 62  1  0  0  0
 60135  1  0  0  0
 60136  1  0  0  0
 60137  1  0  0  0
 61138  1  0  0  0
 61139  1  0  0  0
 61140  1  0  0  0
 62141  1  0  0  0
 62142  1  0  0  0
 62143  1  0  0  0
 63 65  1  0  0  0
 63144  1  0  0  0
 63145  1  0  0  0
 63146  1  0  0  0
 64147  1  0  0  0
 65148  1  0  0  0
 68 86  1  0  0  0
 71 72  2  0  0  0
 71 75  1  0  0  0
 71149  1  0  0  0
 72 76  1  0  0  0
 72150  1  0  0  0
 73 74  1  0  0  0
 73 75  2  0  0  0
 73151  1  0  0  0
 74 76  2  0  0  0
 74 84  1  0  0  0
 75 86  1  0  0  0
 76 89  1  0  0  0
 77 80  1  0  0  0
 77 85  1  0  0  0
 77152  1  0  0  0
 77153  1  0  0  0
 78 81  1  0  0  0
 78 85  1  0  0  0
 78154  1  0  0  0
 78155  1  0  0  0
 79 82  1  0  0  0
 79 84  1  0  0  0
 79156  1  0  0  0
 79157  1  0  0  0
 80 87  1  0  0  0
 80158  1  0  0  0
 80159  1  0  0  0
 81 87  1  0  0  0
 81160  1  0  0  0
 81161  1  0  0  0
 82 88  1  0  0  0
 82162  1  0  0  0
 82163  1  0  0  0
 83 84  1  0  0  0
 83 88  1  0  0  0
 83164  1  0  0  0
 83165  1  0  0  0
 84166  1  0  0  0
 85 89  1  0  0  0
 85167  1  0  0  0
 86168  1  0  0  0
 86169  1  0  0  0
 88170  1  0  0  0
 88171  1  0  0  0
M  CHG  1  88   1
M  ISO  4   1 100  68 101  86 101  87 100
M  END
> <chiral flag>
0

> <version>
0

> <s_m_source_file>
/data/baiqing/PycharmProjects/Reinvent-master-3.2/result/LINK_invent/BTK/process_docking_weight1_custom_sum_contain_oxygen_bond_distance_aromatic_linkinvent_7_9_3/rearranged_h_0155.sdf

> <i_m_source_file_index>
66

> <r_mmod_Potential_Energy-OPLS-2005>
360.708526611328

> <r_mmod_Stretch_Energy-OPLS-2005>
64.777099609375

> <r_mmod_Bend_Energy-OPLS-2005>
376.6669921875

> <r_mmod_Torsional_Energy-OPLS-2005>
391.68798828125

> <r_mmod_Improper_Torsional_Energy-OPLS-2005>
17.7035751342773

> <r_mmod_Van_der_Waal_Energy-OPLS-2005>
159.298400878906

> <r_mmod_Electrostatic_Energy-OPLS-2005>
-231.483978271484

> <r_mmod_Solvation_Energy-OPLS-2005>
-458.279724121094

> <b_mmod_Minimization_Converged-OPLS-2005>
0

> <r_mmod_RMS_Derivative-OPLS-2005>
2.5591299533844

$$$$
66
                    3D
 Structure written by MMmdl.
184194  0  0  1  0            999 V2000
  -30.7399  -14.4943   20.3443 C   0  0  0  0  0  0
  -30.4153  -12.2801   19.4122 C   0  0  0  0  0  0
  -29.4775  -12.3988   18.1927 C   0  0  0  0  0  0
  -28.0087  -12.2818   18.6345 C   0  0  0  0  0  0
  -27.6518  -13.2063   19.8294 C   0  0  2  0  0  0
  -28.7111  -13.1361   20.9533 C   0  0  0  0  0  0
  -25.2644  -13.8179   20.5676 C   0  0  0  0  0  0
  -24.1890  -13.0450   20.9193 C   0  0  0  0  0  0
  -24.6430  -11.6916   20.8749 C   0  0  0  0  0  0
  -23.9104  -10.4305   21.0412 C   0  0  0  0  0  0
  -24.3653   -9.4205   21.9176 C   0  0  0  0  0  0
  -23.6307   -8.2245   22.0748 C   0  0  0  0  0  0
  -22.4277   -8.0287   21.3548 C   0  0  0  0  0  0
  -21.9934   -9.0277   20.4642 C   0  0  0  0  0  0
  -22.7286  -10.2152   20.3049 C   0  0  0  0  0  0
  -21.6865   -6.0747   22.5277 C   0  0  0  0  0  0
  -21.4011   -6.5653   23.8208 C   0  0  0  0  0  0
  -21.3652   -5.6801   24.9176 C   0  0  0  0  0  0
  -21.6032   -4.3058   24.7223 C   0  0  0  0  0  0
  -21.8828   -3.8162   23.4341 C   0  0  0  0  0  0
  -21.9189   -4.6975   22.3403 C   0  0  0  0  0  0
  -22.7910  -13.5249   21.1861 C   0  0  0  0  0  0
  -22.1665   -4.2158   21.0979 F   0  0  0  0  0  0
  -21.5619   -3.4537   25.7734 F   0  0  0  0  0  0
  -30.0296  -13.3417   20.3447 N   0  0  0  0  0  0
  -26.3033  -12.9336   20.3256 N   0  0  0  0  0  0
  -25.9354  -11.6503   20.5789 N   0  0  0  0  0  0
  -22.0574  -12.8211   22.0388 N   0  0  0  0  0  0
  -25.4432  -15.1900   20.4072 N   0  0  0  0  0  0
  -31.9627  -14.4888   20.4549 O   0  0  0  0  0  0
  -21.6634   -6.8887   21.4237 O   0  0  0  0  0  0
  -22.3552  -14.5524   20.6672 O   0  0  0  0  0  0
  -24.6095  -31.8696   23.2087 C   0  0  0  0  0  0
  -25.9023  -32.4817   23.8328 C   0  0  1  0  0  0
  -27.2733  -27.4788   20.0302 C   0  0  0  0  0  0
  -25.5910  -33.8598   24.2267 N   0  0  0  0  0  0
  -23.4009  -30.4868   21.5509 C   0  0  2  0  0  0
  -24.8483  -28.9462   20.1182 C   0  0  0  0  0  0
  -22.7408  -29.4615   22.5010 C   0  0  0  0  0  0
  -18.0244  -28.1379   22.8520 C   0  0  0  0  0  0
  -24.1488  -36.7297   23.2637 C   0  0  0  0  0  0
  -25.9237  -30.8312   21.3657 C   0  0  0  0  0  0
  -26.0066  -29.4667   20.7139 C   0  0  0  0  0  0
  -27.2088  -28.7308   20.6834 C   0  0  0  0  0  0
  -26.0852  -26.9549   19.4620 C   0  0  0  0  0  0
  -24.8796  -27.6850   19.5030 C   0  0  0  0  0  0
  -23.6096  -29.8086   20.1705 C   0  0  0  0  0  0
  -25.4111  -36.3090   24.0325 C   0  0  1  0  0  0
  -20.5859  -28.3657   23.1308 C   0  0  2  0  0  0
  -20.6764  -26.9400   22.5416 C   0  0  0  0  0  0
  -19.5743  -26.6371   21.5229 C   0  0  0  0  0  0
  -18.1912  -26.7929   22.1629 C   0  0  0  0  0  0
  -19.1514  -28.8830   23.2944 C   0  0  0  0  0  0
  -18.9463  -30.1455   23.8920 C   0  0  0  0  0  0
  -17.6479  -30.6611   24.0575 C   0  0  0  0  0  0
  -25.9018  -34.9462   23.5095 C   0  0  0  0  0  0
  -16.5369  -29.9127   23.6345 C   0  0  0  0  0  0
  -16.7231  -28.6552   23.0355 C   0  0  0  0  0  0
  -26.4454  -31.6603   25.0667 C   0  0  0  0  0  0
  -25.3718  -31.3785   26.1439 C   0  0  0  0  0  0
  -27.0270  -30.3029   24.6063 C   0  0  0  0  0  0
  -27.6008  -32.4362   25.7472 C   0  0  0  0  0  0
  -27.5583  -37.1785   24.8452 C   0  0  0  0  0  0
  -21.4138  -29.3027   22.3727 N   0  0  0  0  0  0
  -26.4290  -37.3761   23.9404 N   0  0  0  0  0  0
  -24.6623  -31.0754   22.1016 N   0  0  0  0  0  0
  -23.4200  -28.8123   23.2988 O   0  0  0  0  0  0
  -28.4849  -26.8170   20.0135 O   0  0  0  0  0  0
  -26.5572  -34.8950   22.4644 O   0  0  0  0  0  0
  -23.5310  -32.1436   23.7521 O   0  0  0  0  0  0
  -30.9675  -21.9029   14.3200 C   0  0  0  0  0  0
  -31.0987  -20.6142   14.8762 C   0  0  0  0  0  0
  -32.4437  -22.7794   16.0310 C   0  0  0  0  0  0
  -31.5928  -23.0136   14.9302 C   0  0  0  0  0  0
  -31.8376  -20.4186   16.0600 C   0  0  0  0  0  0
  -32.5413  -21.5036   16.6329 C   0  0  0  0  0  0
  -30.2523  -17.8817   19.9381 C   0  0  0  0  0  0
  -32.0216  -16.7723   18.4795 C   0  0  0  0  0  0
  -29.7690  -24.7468   14.5979 C   0  0  0  0  0  0
  -32.1330  -25.5698   15.0720 C   0  0  0  0  0  0
  -29.4102  -16.5661   19.8450 C   0  0  0  0  0  0
  -30.9633  -15.6885   18.2253 C   0  0  0  0  0  0
  -29.4461  -25.9189   15.5520 C   0  0  0  0  0  0
  -31.7166  -25.9751   16.5179 C   0  0  0  0  0  0
  -31.2843  -24.4360   14.4386 C   0  0  1  0  0  0
  -31.3465  -18.1073   18.8476 C   0  0  0  0  0  0
  -33.6591  -22.4026   18.5596 C   0  0  0  0  0  0
  -31.8985  -19.0405   16.7003 C   0  0  0  0  0  0
  -29.7670  -26.7171   17.9004 C   0  0  0  0  0  0
  -28.8434  -25.9801   18.9002 C   0  0  0  0  0  0
  -30.2319  -15.4069   19.4711 N   0  0  0  0  0  0
  -30.2555  -25.8358   16.7922 N   0  3  1  0  0  0
  -33.2866  -21.2769   17.7705 O   0  0  0  0  0  0
  -30.8699  -18.7923   17.6803 O   0  0  0  0  0  0
  -31.4573  -12.3733   19.0939 H   0  0  0  0  0  0
  -30.3238  -11.3035   19.8889 H   0  0  0  0  0  0
  -29.7121  -11.6186   17.4661 H   0  0  0  0  0  0
  -29.6194  -13.3458   17.6724 H   0  0  0  0  0  0
  -27.8446  -11.2413   18.9140 H   0  0  0  0  0  0
  -27.3446  -12.4748   17.7908 H   0  0  0  0  0  0
  -27.6537  -14.2214   19.4302 H   0  0  0  0  0  0
  -28.6856  -12.1798   21.4754 H   0  0  0  0  0  0
  -28.5167  -13.9106   21.6971 H   0  0  0  0  0  0
  -25.2803   -9.5642   22.4741 H   0  0  0  0  0  0
  -24.0008   -7.4621   22.7457 H   0  0  0  0  0  0
  -21.0875   -8.8820   19.8930 H   0  0  0  0  0  0
  -22.3778  -10.9695   19.6146 H   0  0  0  0  0  0
  -21.2006   -7.6156   23.9721 H   0  0  0  0  0  0
  -21.1458   -6.0526   25.9076 H   0  0  0  0  0  0
  -22.0608   -2.7618   23.2843 H   0  0  0  0  0  0
  -22.4185  -11.9880   22.4784 H   0  0  0  0  0  0
  -21.1164  -13.1196   22.2589 H   0  0  0  0  0  0
  -24.6886  -15.8582   20.5191 H   0  0  0  0  0  0
  -26.3113  -15.6181   20.1053 H   0  0  0  0  0  0
  -26.7108  -32.5556   23.1102 H   0  0  0  0  0  0
  -25.0101  -33.9757   25.0438 H   0  0  0  0  0  0
  -22.6877  -31.3013   21.4056 H   0  0  0  0  0  0
  -23.3774  -35.9615   23.3300 H   0  0  0  0  0  0
  -24.3594  -36.8870   22.2052 H   0  0  0  0  0  0
  -23.7182  -37.6464   23.6657 H   0  0  0  0  0  0
  -26.0401  -31.5950   20.5974 H   0  0  0  0  0  0
  -26.8081  -30.8841   21.9867 H   0  0  0  0  0  0
  -28.1037  -29.1324   21.1357 H   0  0  0  0  0  0
  -26.0586  -25.9877   18.9883 H   0  0  0  0  0  0
  -23.9892  -27.2811   19.0380 H   0  0  0  0  0  0
  -23.7109  -30.5693   19.3973 H   0  0  0  0  0  0
  -22.7364  -29.2203   19.8839 H   0  0  0  0  0  0
  -25.1301  -36.1929   25.0807 H   0  0  0  0  0  0
  -21.0029  -28.3232   24.1399 H   0  0  0  0  0  0
  -20.5690  -26.2291   23.3630 H   0  0  0  0  0  0
  -21.6638  -26.7437   22.1216 H   0  0  0  0  0  0
  -19.7012  -25.6292   21.1255 H   0  0  0  0  0  0
  -19.6709  -27.3197   20.6791 H   0  0  0  0  0  0
  -17.4220  -26.6646   21.4013 H   0  0  0  0  0  0
  -18.0333  -26.0003   22.8957 H   0  0  0  0  0  0
  -19.7933  -30.7264   24.2296 H   0  0  0  0  0  0
  -17.5033  -31.6304   24.5192 H   0  0  0  0  0  0
  -15.5382  -30.3087   23.7669 H   0  0  0  0  0  0
  -15.8587  -28.0922   22.7056 H   0  0  0  0  0  0
  -24.5881  -30.7127   25.7795 H   0  0  0  0  0  0
  -24.8983  -32.2983   26.4843 H   0  0  0  0  0  0
  -25.8067  -30.8973   27.0195 H   0  0  0  0  0  0
  -26.2801  -29.6833   24.1072 H   0  0  0  0  0  0
  -27.3943  -29.7203   25.4505 H   0  0  0  0  0  0
  -27.8677  -30.4342   23.9262 H   0  0  0  0  0  0
  -27.2566  -33.3659   26.2046 H   0  0  0  0  0  0
  -28.3826  -32.6903   25.0304 H   0  0  0  0  0  0
  -28.0680  -31.8467   26.5372 H   0  0  0  0  0  0
  -28.2584  -38.0113   24.7541 H   0  0  0  0  0  0
  -28.1097  -36.2615   24.6253 H   0  0  0  0  0  0
  -27.2314  -37.1394   25.8863 H   0  0  0  0  0  0
  -20.9325  -29.8726   21.6927 H   0  0  0  0  0  0
  -26.0172  -38.2811   24.1462 H   0  0  0  0  0  0
  -30.3519  -22.0347   13.4394 H   0  0  0  0  0  0
  -30.6028  -19.7733   14.4096 H   0  0  0  0  0  0
  -33.0147  -23.5914   16.4365 H   0  0  0  0  0  0
  -30.7750  -17.8585   20.8946 H   0  0  0  0  0  0
  -29.5909  -18.7470   20.0000 H   0  0  0  0  0  0
  -32.6922  -16.8344   17.6244 H   0  0  0  0  0  0
  -32.6830  -16.4944   19.3000 H   0  0  0  0  0  0
  -29.3375  -24.9611   13.6207 H   0  0  0  0  0  0
  -29.2327  -23.8691   14.9562 H   0  0  0  0  0  0
  -33.1973  -25.3447   15.0138 H   0  0  0  0  0  0
  -32.0226  -26.4576   14.4457 H   0  0  0  0  0  0
  -28.6197  -16.6758   19.1013 H   0  0  0  0  0  0
  -28.9024  -16.3823   20.7947 H   0  0  0  0  0  0
  -31.4397  -14.7874   17.8345 H   0  0  0  0  0  0
  -30.2698  -16.0181   17.4498 H   0  0  0  0  0  0
  -28.3794  -25.9092   15.7885 H   0  0  0  0  0  0
  -29.6469  -26.8689   15.0553 H   0  0  0  0  0  0
  -32.0267  -27.0095   16.6735 H   0  0  0  0  0  0
  -32.2517  -25.3967   17.2719 H   0  0  0  0  0  0
  -31.5181  -24.4379   13.3721 H   0  0  0  0  0  0
  -32.0985  -18.7675   19.2859 H   0  0  0  0  0  0
  -33.9828  -22.0573   19.5406 H   0  0  0  0  0  0
  -32.8210  -23.0837   18.7220 H   0  0  0  0  0  0
  -34.4878  -22.9500   18.1069 H   0  0  0  0  0  0
  -32.9002  -18.9406   17.1250 H   0  0  0  0  0  0
  -31.8304  -18.2732   15.9271 H   0  0  0  0  0  0
  -30.6149  -27.1065   18.4631 H   0  0  0  0  0  0
  -29.2667  -27.5912   17.4904 H   0  0  0  0  0  0
  -29.4021  -25.1496   19.3257 H   0  0  0  0  0  0
  -27.9942  -25.5323   18.3880 H   0  0  0  0  0  0
  -30.1342  -24.8892   17.1246 H   0  0  0  0  0  0
  1 25  1  0  0  0
  1 30  2  0  0  0
  1 91  1  0  0  0
  2  3  1  0  0  0
  2 25  1  0  0  0
  2 95  1  0  0  0
  2 96  1  0  0  0
  3  4  1  0  0  0
  3 97  1  0  0  0
  3 98  1  0  0  0
  4  5  1  0  0  0
  4 99  1  0  0  0
  4100  1  0  0  0
  5  6  1  0  0  0
  5 26  1  0  0  0
  5101  1  0  0  0
  6 25  1  0  0  0
  6102  1  0  0  0
  6103  1  0  0  0
  7  8  2  0  0  0
  7 26  1  0  0  0
  7 29  1  0  0  0
  8  9  1  0  0  0
  8 22  1  0  0  0
  9 10  1  0  0  0
  9 27  2  0  0  0
 10 11  2  0  0  0
 10 15  1  0  0  0
 11 12  1  0  0  0
 11104  1  0  0  0
 12 13  2  0  0  0
 12105  1  0  0  0
 13 14  1  0  0  0
 13 31  1  0  0  0
 14 15  2  0  0  0
 14106  1  0  0  0
 15107  1  0  0  0
 16 17  2  0  0  0
 16 21  1  0  0  0
 16 31  1  0  0  0
 17 18  1  0  0  0
 17108  1  0  0  0
 18 19  2  0  0  0
 18109  1  0  0  0
 19 20  1  0  0  0
 19 24  1  0  0  0
 20 21  2  0  0  0
 20110  1  0  0  0
 21 23  1  0  0  0
 22 28  1  0  0  0
 22 32  2  0  0  0
 26 27  1  0  0  0
 28111  1  0  0  0
 28112  1  0  0  0
 29113  1  0  0  0
 29114  1  0  0  0
 33 34  1  0  0  0
 33 66  1  0  0  0
 33 70  2  0  0  0
 34 36  1  0  0  0
 34 59  1  0  0  0
 34115  1  0  0  0
 35 44  2  0  0  0
 35 45  1  0  0  0
 35 68  1  0  0  0
 36 56  1  0  0  0
 36116  1  0  0  0
 37 39  1  0  0  0
 37 47  1  0  0  0
 37 66  1  0  0  0
 37117  1  0  0  0
 38 43  2  0  0  0
 38 46  1  0  0  0
 38 47  1  0  0  0
 39 64  1  0  0  0
 39 67  2  0  0  0
 40 52  1  0  0  0
 40 53  2  0  0  0
 40 58  1  0  0  0
 41118  1  0  0  0
 41119  1  0  0  0
 41120  1  0  0  0
 41 48  1  0  0  0
 42 43  1  0  0  0
 42 66  1  0  0  0
 42121  1  0  0  0
 42122  1  0  0  0
 43 44  1  0  0  0
 44123  1  0  0  0
 45 46  2  0  0  0
 45124  1  0  0  0
 46125  1  0  0  0
 47126  1  0  0  0
 47127  1  0  0  0
 48 56  1  0  0  0
 48 65  1  0  0  0
 48128  1  0  0  0
 49 50  1  0  0  0
 49 53  1  0  0  0
 49 64  1  0  0  0
 49129  1  0  0  0
 50 51  1  0  0  0
 50130  1  0  0  0
 50131  1  0  0  0
 51 52  1  0  0  0
 51132  1  0  0  0
 51133  1  0  0  0
 52134  1  0  0  0
 52135  1  0  0  0
 53 54  1  0  0  0
 54 55  2  0  0  0
 54136  1  0  0  0
 55 57  1  0  0  0
 55137  1  0  0  0
 56 69  2  0  0  0
 57 58  2  0  0  0
 57138  1  0  0  0
 58139  1  0  0  0
 59 60  1  0  0  0
 59 61  1  0  0  0
 59 62  1  0  0  0
 60140  1  0  0  0
 60141  1  0  0  0
 60142  1  0  0  0
 61143  1  0  0  0
 61144  1  0  0  0
 61145  1  0  0  0
 62146  1  0  0  0
 62147  1  0  0  0
 62148  1  0  0  0
 63 65  1  0  0  0
 63149  1  0  0  0
 63150  1  0  0  0
 63151  1  0  0  0
 64152  1  0  0  0
 65153  1  0  0  0
 68 90  1  0  0  0
 71 72  2  0  0  0
 71 74  1  0  0  0
 71154  1  0  0  0
 72 75  1  0  0  0
 72155  1  0  0  0
 73 74  2  0  0  0
 73 76  1  0  0  0
 73156  1  0  0  0
 74 85  1  0  0  0
 75 76  2  0  0  0
 75 88  1  0  0  0
 76 93  1  0  0  0
 77 81  1  0  0  0
 77 86  1  0  0  0
 77157  1  0  0  0
 77158  1  0  0  0
 78 82  1  0  0  0
 78 86  1  0  0  0
 78159  1  0  0  0
 78160  1  0  0  0
 79 83  1  0  0  0
 79 85  1  0  0  0
 79161  1  0  0  0
 79162  1  0  0  0
 80 84  1  0  0  0
 80 85  1  0  0  0
 80163  1  0  0  0
 80164  1  0  0  0
 81 91  1  0  0  0
 81165  1  0  0  0
 81166  1  0  0  0
 82 91  1  0  0  0
 82167  1  0  0  0
 82168  1  0  0  0
 83 92  1  0  0  0
 83169  1  0  0  0
 83170  1  0  0  0
 84 92  1  0  0  0
 84171  1  0  0  0
 84172  1  0  0  0
 85173  1  0  0  0
 86 94  1  0  0  0
 86174  1  0  0  0
 87 93  1  0  0  0
 87175  1  0  0  0
 87176  1  0  0  0
 87177  1  0  0  0
 88 94  1  0  0  0
 88178  1  0  0  0
 88179  1  0  0  0
 89 90  1  0  0  0
 89180  1  0  0  0
 89181  1  0  0  0
 89 92  1  0  0  0
 90182  1  0  0  0
 90183  1  0  0  0
 92184  1  0  0  0
M  CHG  1  92   1
M  ISO  4   1 100  68 101  90 101  91 100
M  END
> <chiral flag>
0

> <version>
0

> <s_m_source_file>
/data/baiqing/PycharmProjects/Reinvent-master-3.2/result/LINK_invent/BTK/process_docking_weight1_custom_sum_contain_oxygen_bond_distance_aromatic_linkinvent_7_9_3/rearranged_h_0155.sdf

> <i_m_source_file_index>
67

> <r_mmod_Potential_Energy-OPLS-2005>
302.322967529297

> <r_mmod_Stretch_Energy-OPLS-2005>
45.8436279296875

> <r_mmod_Bend_Energy-OPLS-2005>
131.072463989258

> <r_mmod_Torsional_Energy-OPLS-2005>
443.008117675781

> <r_mmod_Improper_Torsional_Energy-OPLS-2005>
33.5627021789551

> <r_mmod_Van_der_Waal_Energy-OPLS-2005>
185.85888671875

> <r_mmod_Electrostatic_Energy-OPLS-2005>
-163.723693847656

> <r_mmod_Solvation_Energy-OPLS-2005>
-427.107757568359

> <b_mmod_Minimization_Converged-OPLS-2005>
0

> <r_mmod_RMS_Derivative-OPLS-2005>
6.46813106536865

$$$$
67
                    3D
 Structure written by MMmdl.
186196  0  0  1  0            999 V2000
  -30.7271  -14.4840   20.4439 C   0  0  0  0  0  0
  -30.4176  -12.2862   19.4034 C   0  0  0  0  0  0
  -29.4838  -12.4336   18.1849 C   0  0  0  0  0  0
  -28.0020  -12.3239   18.6060 C   0  0  0  0  0  0
  -27.6430  -13.1782   19.8538 C   0  0  2  0  0  0
  -28.7109  -13.0484   20.9652 C   0  0  0  0  0  0
  -25.2591  -13.8045   20.5762 C   0  0  0  0  0  0
  -24.1819  -13.0367   20.9266 C   0  0  0  0  0  0
  -24.6364  -11.6839   20.8874 C   0  0  0  0  0  0
  -23.9049  -10.4233   21.0521 C   0  0  0  0  0  0
  -24.3591   -9.4125   21.9268 C   0  0  0  0  0  0
  -23.6254   -8.2176   22.0789 C   0  0  0  0  0  0
  -22.4238   -8.0247   21.3563 C   0  0  0  0  0  0
  -21.9892   -9.0236   20.4666 C   0  0  0  0  0  0
  -22.7252  -10.2104   20.3131 C   0  0  0  0  0  0
  -21.6813   -6.0748   22.5316 C   0  0  0  0  0  0
  -21.3974   -6.5644   23.8258 C   0  0  0  0  0  0
  -21.3667   -5.6804   24.9216 C   0  0  0  0  0  0
  -21.6052   -4.3071   24.7260 C   0  0  0  0  0  0
  -21.8819   -3.8163   23.4376 C   0  0  0  0  0  0
  -21.9162   -4.6981   22.3425 C   0  0  0  0  0  0
  -22.7840  -13.5210   21.1845 C   0  0  0  0  0  0
  -22.1633   -4.2167   21.1013 F   0  0  0  0  0  0
  -21.5628   -3.4555   25.7783 F   0  0  0  0  0  0
  -30.0316  -13.3145   20.3743 N   0  0  0  0  0  0
  -26.2967  -12.9140   20.3396 N   0  0  0  0  0  0
  -25.9256  -11.6346   20.5839 N   0  0  0  0  0  0
  -22.0395  -12.8257   22.0371 N   0  0  0  0  0  0
  -25.4294  -15.1754   20.4155 N   0  0  0  0  0  0
  -31.9304  -14.5714   20.1971 O   0  0  0  0  0  0
  -21.6573   -6.8872   21.4272 O   0  0  0  0  0  0
  -22.3604  -14.5532   20.6666 O   0  0  0  0  0  0
  -24.5976  -31.8737   23.2131 C   0  0  0  0  0  0
  -25.8911  -32.4836   23.8424 C   0  0  1  0  0  0
  -27.2730  -27.5223   20.0937 C   0  0  0  0  0  0
  -25.5831  -33.8642   24.2355 N   0  0  0  0  0  0
  -23.3855  -30.4897   21.5467 C   0  0  2  0  0  0
  -24.8439  -28.9528   20.1271 C   0  0  0  0  0  0
  -22.7350  -29.4653   22.4997 C   0  0  0  0  0  0
  -18.0242  -28.1378   22.8505 C   0  0  0  0  0  0
  -24.1476  -36.7341   23.2621 C   0  0  0  0  0  0
  -25.8981  -30.8631   21.3561 C   0  0  0  0  0  0
  -25.9854  -29.4923   20.7290 C   0  0  0  0  0  0
  -27.1889  -28.7764   20.7373 C   0  0  0  0  0  0
  -26.1104  -26.9617   19.5263 C   0  0  0  0  0  0
  -24.8930  -27.6788   19.5354 C   0  0  0  0  0  0
  -23.5995  -29.8069   20.1657 C   0  0  0  0  0  0
  -25.4082  -36.3125   24.0348 C   0  0  1  0  0  0
  -20.5818  -28.3668   23.1309 C   0  0  2  0  0  0
  -20.6718  -26.9412   22.5413 C   0  0  0  0  0  0
  -19.5723  -26.6419   21.5179 C   0  0  0  0  0  0
  -18.1908  -26.7933   22.1608 C   0  0  0  0  0  0
  -19.1486  -28.8850   23.2911 C   0  0  0  0  0  0
  -18.9422  -30.1450   23.8927 C   0  0  0  0  0  0
  -17.6411  -30.6585   24.0579 C   0  0  0  0  0  0
  -25.9021  -34.9482   23.5148 C   0  0  0  0  0  0
  -16.5319  -29.9092   23.6314 C   0  0  0  0  0  0
  -16.7243  -28.6511   23.0341 C   0  0  0  0  0  0
  -26.4436  -31.6583   25.0715 C   0  0  0  0  0  0
  -25.3769  -31.3586   26.1495 C   0  0  0  0  0  0
  -27.0283  -30.3051   24.6038 C   0  0  0  0  0  0
  -27.6007  -32.4312   25.7469 C   0  0  0  0  0  0
  -27.5590  -37.1810   24.8480 C   0  0  0  0  0  0
  -21.4101  -29.3028   22.3716 N   0  0  0  0  0  0
  -26.4277  -37.3811   23.9445 N   0  0  0  0  0  0
  -24.6434  -31.0917   22.0985 N   0  0  0  0  0  0
  -23.4185  -28.8174   23.2970 O   0  0  0  0  0  0
  -28.4689  -26.8625   19.9434 O   0  0  0  0  0  0
  -26.5560  -34.8926   22.4690 O   0  0  0  0  0  0
  -23.5188  -32.1426   23.7600 O   0  0  0  0  0  0
  -31.4515  -21.2535   17.3354 C   0  0  0  0  0  0
  -29.9692  -22.1969   18.9923 C   0  0  0  0  0  0
  -30.7319  -22.3571   17.8233 C   0  0  0  0  0  0
  -30.4499  -19.7855   19.0398 C   0  0  0  0  0  0
  -31.3384  -19.9807   17.9380 C   0  0  0  0  0  0
  -29.8054  -20.9344   19.5864 C   0  0  0  0  0  0
  -29.9210  -17.2490   18.6399 C   0  0  0  0  0  0
  -31.0010  -17.9255   20.7789 C   0  0  0  0  0  0
  -29.4097  -24.4361   17.0723 C   0  0  0  0  0  0
  -31.9211  -24.5783   17.6463 C   0  0  0  0  0  0
  -29.2448  -16.0749   19.3491 C   0  0  0  0  0  0
  -30.3715  -16.6904   21.4745 C   0  0  0  0  0  0
  -29.5127  -25.8602   16.4997 C   0  0  0  0  0  0
  -31.9060  -25.9743   17.0050 C   0  0  0  0  0  0
  -30.7832  -23.6940   17.0935 C   0  0  1  0  0  0
  -30.1048  -18.4014   19.6287 C   0  0  0  0  0  0
  -32.1904  -18.8733   17.3342 C   0  0  0  0  0  0
  -28.8822  -20.8794   20.7987 C   0  0  0  0  0  0
  -30.5150  -28.0424   17.2823 C   0  0  0  0  0  0
  -29.6144  -27.7005   19.7080 C   0  0  0  0  0  0
  -29.5128  -28.5031   18.3603 C   0  0  1  0  0  0
  -29.9843  -15.6090   20.5449 N   0  0  0  0  0  0
  -30.5750  -26.5640   17.2511 N   0  3  1  0  0  0
  -29.7143  -29.8900   18.5994 O   0  0  0  0  0  0
  -31.4584  -12.3779   19.0866 H   0  0  0  0  0  0
  -30.3191  -11.2938   19.8462 H   0  0  0  0  0  0
  -29.7093  -11.6580   17.4513 H   0  0  0  0  0  0
  -29.6693  -13.3761   17.6713 H   0  0  0  0  0  0
  -27.8008  -11.2722   18.8096 H   0  0  0  0  0  0
  -27.3549  -12.5939   17.7692 H   0  0  0  0  0  0
  -27.6122  -14.1976   19.5075 H   0  0  0  0  0  0
  -28.6967  -12.0426   21.3893 H   0  0  0  0  0  0
  -28.4948  -13.7335   21.7874 H   0  0  0  0  0  0
  -25.2735   -9.5550   22.4849 H   0  0  0  0  0  0
  -23.9947   -7.4539   22.7479 H   0  0  0  0  0  0
  -21.0834   -8.8798   19.8925 H   0  0  0  0  0  0
  -22.3779  -10.9671   19.6237 H   0  0  0  0  0  0
  -21.1952   -7.6148   23.9776 H   0  0  0  0  0  0
  -21.1490   -6.0527   25.9133 H   0  0  0  0  0  0
  -22.0577   -2.7619   23.2892 H   0  0  0  0  0  0
  -22.3911  -11.9937   22.4883 H   0  0  0  0  0  0
  -21.0980  -13.1312   22.2399 H   0  0  0  0  0  0
  -24.6604  -15.8262   20.5295 H   0  0  0  0  0  0
  -26.2932  -15.6232   20.1392 H   0  0  0  0  0  0
  -26.6964  -32.5653   23.1186 H   0  0  0  0  0  0
  -24.9984  -33.9835   25.0507 H   0  0  0  0  0  0
  -22.6673  -31.2987   21.3945 H   0  0  0  0  0  0
  -23.3748  -35.9675   23.3305 H   0  0  0  0  0  0
  -24.3572  -36.8963   22.2040 H   0  0  0  0  0  0
  -23.7253  -37.6545   23.6650 H   0  0  0  0  0  0
  -25.9850  -31.6131   20.5666 H   0  0  0  0  0  0
  -26.7898  -30.9428   21.9657 H   0  0  0  0  0  0
  -28.0408  -29.2212   21.2261 H   0  0  0  0  0  0
  -26.1568  -25.9950   19.0471 H   0  0  0  0  0  0
  -24.0129  -27.2508   19.0753 H   0  0  0  0  0  0
  -23.6953  -30.5673   19.3886 H   0  0  0  0  0  0
  -22.7382  -29.2012   19.8800 H   0  0  0  0  0  0
  -25.1247  -36.1937   25.0840 H   0  0  0  0  0  0
  -20.9949  -28.3249   24.1396 H   0  0  0  0  0  0
  -20.5565  -26.2302   23.3620 H   0  0  0  0  0  0
  -21.6588  -26.7385   22.1217 H   0  0  0  0  0  0
  -19.6888  -25.6329   21.1216 H   0  0  0  0  0  0
  -19.6651  -27.3200   20.6683 H   0  0  0  0  0  0
  -17.4167  -26.6695   21.4017 H   0  0  0  0  0  0
  -18.0317  -26.0028   22.8961 H   0  0  0  0  0  0
  -19.7880  -30.7281   24.2345 H   0  0  0  0  0  0
  -17.4948  -31.6261   24.5185 H   0  0  0  0  0  0
  -15.5324  -30.2998   23.7626 H   0  0  0  0  0  0
  -15.8659  -28.0863   22.7016 H   0  0  0  0  0  0
  -24.6016  -30.6831   25.7855 H   0  0  0  0  0  0
  -24.8874  -32.2682   26.4974 H   0  0  0  0  0  0
  -25.8217  -30.8791   27.0228 H   0  0  0  0  0  0
  -26.2809  -29.6758   24.1189 H   0  0  0  0  0  0
  -27.4174  -29.7303   25.4449 H   0  0  0  0  0  0
  -27.8587  -30.4398   23.9105 H   0  0  0  0  0  0
  -27.2629  -33.3610   26.2035 H   0  0  0  0  0  0
  -28.3811  -32.6867   25.0300 H   0  0  0  0  0  0
  -28.0691  -31.8472   26.5394 H   0  0  0  0  0  0
  -28.2554  -38.0145   24.7515 H   0  0  0  0  0  0
  -28.1147  -36.2678   24.6284 H   0  0  0  0  0  0
  -27.2351  -37.1401   25.8894 H   0  0  0  0  0  0
  -20.9307  -29.8780   21.6936 H   0  0  0  0  0  0
  -26.0190  -38.2918   24.1398 H   0  0  0  0  0  0
  -32.0906  -21.3806   16.4729 H   0  0  0  0  0  0
  -29.4627  -23.0390   19.4342 H   0  0  0  0  0  0
  -29.3130  -17.5651   17.7921 H   0  0  0  0  0  0
  -30.8674  -16.8885   18.2447 H   0  0  0  0  0  0
  -32.0012  -17.6965   20.4111 H   0  0  0  0  0  0
  -31.1195  -18.7244   21.5110 H   0  0  0  0  0  0
  -28.6727  -23.8532   16.5151 H   0  0  0  0  0  0
  -28.9980  -24.5477   18.0745 H   0  0  0  0  0  0
  -31.8259  -24.6813   18.7291 H   0  0  0  0  0  0
  -32.8878  -24.1065   17.4732 H   0  0  0  0  0  0
  -29.1663  -15.2916   18.5994 H   0  0  0  0  0  0
  -28.2278  -16.3444   19.6326 H   0  0  0  0  0  0
  -29.4739  -16.9981   22.0123 H   0  0  0  0  0  0
  -31.0538  -16.3138   22.2370 H   0  0  0  0  0  0
  -28.5538  -26.3716   16.6134 H   0  0  0  0  0  0
  -29.7333  -25.8464   15.4312 H   0  0  0  0  0  0
  -32.1045  -25.9177   15.9326 H   0  0  0  0  0  0
  -32.6967  -26.5896   17.4399 H   0  0  0  0  0  0
  -31.0239  -23.4742   16.0536 H   0  0  0  0  0  0
  -29.1080  -18.5178   20.0481 H   0  0  0  0  0  0
  -33.0190  -19.2793   16.7522 H   0  0  0  0  0  0
  -31.6018  -18.2645   16.6474 H   0  0  0  0  0  0
  -32.6332  -18.2369   18.1013 H   0  0  0  0  0  0
  -28.7290  -21.8739   21.2210 H   0  0  0  0  0  0
  -29.2854  -20.2575   21.5966 H   0  0  0  0  0  0
  -27.9039  -20.4941   20.5108 H   0  0  0  0  0  0
  -31.4960  -28.4310   17.5518 H   0  0  0  0  0  0
  -30.2865  -28.4557   16.2993 H   0  0  0  0  0  0
  -29.8241  -28.3536   20.5544 H   0  0  0  0  0  0
  -30.4844  -27.0442   19.7128 H   0  0  0  0  0  0
  -28.5116  -28.4077   17.9345 H   0  0  0  0  0  0
  -30.3898  -26.3348   18.2164 H   0  0  0  0  0  0
  -29.0213  -30.1952   19.1762 H   0  0  0  0  0  0
  1 25  1  0  0  0
  1 30  2  0  0  0
  1 92  1  0  0  0
  2  3  1  0  0  0
  2 25  1  0  0  0
  2 95  1  0  0  0
  2 96  1  0  0  0
  3  4  1  0  0  0
  3 97  1  0  0  0
  3 98  1  0  0  0
  4  5  1  0  0  0
  4 99  1  0  0  0
  4100  1  0  0  0
  5  6  1  0  0  0
  5 26  1  0  0  0
  5101  1  0  0  0
  6 25  1  0  0  0
  6102  1  0  0  0
  6103  1  0  0  0
  7  8  2  0  0  0
  7 26  1  0  0  0
  7 29  1  0  0  0
  8  9  1  0  0  0
  8 22  1  0  0  0
  9 10  1  0  0  0
  9 27  2  0  0  0
 10 11  2  0  0  0
 10 15  1  0  0  0
 11 12  1  0  0  0
 11104  1  0  0  0
 12 13  2  0  0  0
 12105  1  0  0  0
 13 14  1  0  0  0
 13 31  1  0  0  0
 14 15  2  0  0  0
 14106  1  0  0  0
 15107  1  0  0  0
 16 17  2  0  0  0
 16 21  1  0  0  0
 16 31  1  0  0  0
 17 18  1  0  0  0
 17108  1  0  0  0
 18 19  2  0  0  0
 18109  1  0  0  0
 19 20  1  0  0  0
 19 24  1  0  0  0
 20 21  2  0  0  0
 20110  1  0  0  0
 21 23  1  0  0  0
 22 28  1  0  0  0
 22 32  2  0  0  0
 26 27  1  0  0  0
 28111  1  0  0  0
 28112  1  0  0  0
 29113  1  0  0  0
 29114  1  0  0  0
 33 34  1  0  0  0
 33 66  1  0  0  0
 33 70  2  0  0  0
 34 36  1  0  0  0
 34 59  1  0  0  0
 34115  1  0  0  0
 35 44  2  0  0  0
 35 45  1  0  0  0
 35 68  1  0  0  0
 36 56  1  0  0  0
 36116  1  0  0  0
 37 39  1  0  0  0
 37 47  1  0  0  0
 37 66  1  0  0  0
 37117  1  0  0  0
 38 43  2  0  0  0
 38 46  1  0  0  0
 38 47  1  0  0  0
 39 64  1  0  0  0
 39 67  2  0  0  0
 40 52  1  0  0  0
 40 53  2  0  0  0
 40 58  1  0  0  0
 41118  1  0  0  0
 41119  1  0  0  0
 41120  1  0  0  0
 41 48  1  0  0  0
 42 43  1  0  0  0
 42 66  1  0  0  0
 42121  1  0  0  0
 42122  1  0  0  0
 43 44  1  0  0  0
 44123  1  0  0  0
 45 46  2  0  0  0
 45124  1  0  0  0
 46125  1  0  0  0
 47126  1  0  0  0
 47127  1  0  0  0
 48 56  1  0  0  0
 48 65  1  0  0  0
 48128  1  0  0  0
 49 50  1  0  0  0
 49 53  1  0  0  0
 49 64  1  0  0  0
 49129  1  0  0  0
 50 51  1  0  0  0
 50130  1  0  0  0
 50131  1  0  0  0
 51 52  1  0  0  0
 51132  1  0  0  0
 51133  1  0  0  0
 52134  1  0  0  0
 52135  1  0  0  0
 53 54  1  0  0  0
 54 55  2  0  0  0
 54136  1  0  0  0
 55 57  1  0  0  0
 55137  1  0  0  0
 56 69  2  0  0  0
 57 58  2  0  0  0
 57138  1  0  0  0
 58139  1  0  0  0
 59 60  1  0  0  0
 59 61  1  0  0  0
 59 62  1  0  0  0
 60140  1  0  0  0
 60141  1  0  0  0
 60142  1  0  0  0
 61143  1  0  0  0
 61144  1  0  0  0
 61145  1  0  0  0
 62146  1  0  0  0
 62147  1  0  0  0
 62148  1  0  0  0
 63 65  1  0  0  0
 63149  1  0  0  0
 63150  1  0  0  0
 63151  1  0  0  0
 64152  1  0  0  0
 65153  1  0  0  0
 68 90  1  0  0  0
 71 73  2  0  0  0
 71 75  1  0  0  0
 71154  1  0  0  0
 72 73  1  0  0  0
 72 76  2  0  0  0
 72155  1  0  0  0
 73 85  1  0  0  0
 74 75  2  0  0  0
 74 76  1  0  0  0
 74 86  1  0  0  0
 75 87  1  0  0  0
 76 88  1  0  0  0
 77 81  1  0  0  0
 77 86  1  0  0  0
 77156  1  0  0  0
 77157  1  0  0  0
 78 82  1  0  0  0
 78 86  1  0  0  0
 78158  1  0  0  0
 78159  1  0  0  0
 79 83  1  0  0  0
 79 85  1  0  0  0
 79160  1  0  0  0
 79161  1  0  0  0
 80 84  1  0  0  0
 80 85  1  0  0  0
 80162  1  0  0  0
 80163  1  0  0  0
 81 92  1  0  0  0
 81164  1  0  0  0
 81165  1  0  0  0
 82 92  1  0  0  0
 82166  1  0  0  0
 82167  1  0  0  0
 83 93  1  0  0  0
 83168  1  0  0  0
 83169  1  0  0  0
 84 93  1  0  0  0
 84170  1  0  0  0
 84171  1  0  0  0
 85172  1  0  0  0
 86173  1  0  0  0
 87174  1  0  0  0
 87175  1  0  0  0
 87176  1  0  0  0
 88177  1  0  0  0
 88178  1  0  0  0
 88179  1  0  0  0
 89 91  1  0  0  0
 89180  1  0  0  0
 89181  1  0  0  0
 89 93  1  0  0  0
 90 91  1  0  0  0
 90182  1  0  0  0
 90183  1  0  0  0
 91 94  1  0  0  0
 91184  1  0  0  0
 93185  1  0  0  0
 94186  1  0  0  0
M  CHG  1  93   1
M  ISO  4   1 100  68 101  90 101  92 100
M  END
> <chiral flag>
0

> <version>
0

> <s_m_source_file>
/data/baiqing/PycharmProjects/Reinvent-master-3.2/result/LINK_invent/BTK/process_docking_weight1_custom_sum_contain_oxygen_bond_distance_aromatic_linkinvent_7_9_3/rearranged_h_0155.sdf

> <i_m_source_file_index>
68

> <r_mmod_Potential_Energy-OPLS-2005>
146.107818603516

> <r_mmod_Stretch_Energy-OPLS-2005>
43.3188056945801

> <r_mmod_Bend_Energy-OPLS-2005>
128.911560058594

> <r_mmod_Torsional_Energy-OPLS-2005>
398.626922607422

> <r_mmod_Improper_Torsional_Energy-OPLS-2005>
8.04664611816406

> <r_mmod_Van_der_Waal_Energy-OPLS-2005>
182.484237670898

> <r_mmod_Electrostatic_Energy-OPLS-2005>
-216.01887512207

> <r_mmod_Solvation_Energy-OPLS-2005>
-423.482635498047

> <b_mmod_Minimization_Converged-OPLS-2005>
0

> <r_mmod_RMS_Derivative-OPLS-2005>
5.36603450775146

$$$$
68
                    3D
 Structure written by MMmdl.
157166  0  0  1  0            999 V2000
  -30.5779  -14.7989   20.4387 C   0  0  0  0  0  0
  -30.4393  -12.4821   19.4911 C   0  0  0  0  0  0
  -29.5192  -12.5061   18.2487 C   0  0  0  0  0  0
  -28.0439  -12.3307   18.6574 C   0  0  0  0  0  0
  -27.6429  -13.2359   19.8525 C   0  0  2  0  0  0
  -28.6844  -13.1816   20.9917 C   0  0  0  0  0  0
  -25.2513  -13.8205   20.5700 C   0  0  0  0  0  0
  -24.1805  -13.0444   20.9203 C   0  0  0  0  0  0
  -24.6400  -11.6923   20.8742 C   0  0  0  0  0  0
  -23.9077  -10.4297   21.0403 C   0  0  0  0  0  0
  -24.3625   -9.4211   21.9182 C   0  0  0  0  0  0
  -23.6298   -8.2247   22.0753 C   0  0  0  0  0  0
  -22.4279   -8.0284   21.3545 C   0  0  0  0  0  0
  -21.9917   -9.0258   20.4646 C   0  0  0  0  0  0
  -22.7248  -10.2137   20.3054 C   0  0  0  0  0  0
  -21.6855   -6.0738   22.5279 C   0  0  0  0  0  0
  -21.4016   -6.5641   23.8212 C   0  0  0  0  0  0
  -21.3660   -5.6793   24.9174 C   0  0  0  0  0  0
  -21.6044   -4.3056   24.7225 C   0  0  0  0  0  0
  -21.8819   -3.8148   23.4346 C   0  0  0  0  0  0
  -21.9193   -4.6965   22.3402 C   0  0  0  0  0  0
  -22.7825  -13.5222   21.1865 C   0  0  0  0  0  0
  -22.1662   -4.2151   21.0980 F   0  0  0  0  0  0
  -21.5628   -3.4539   25.7737 F   0  0  0  0  0  0
  -29.9845  -13.5504   20.4166 N   0  0  0  0  0  0
  -26.2944  -12.9419   20.3283 N   0  0  0  0  0  0
  -25.9334  -11.6557   20.5750 N   0  0  0  0  0  0
  -22.0475  -12.8209   22.0422 N   0  0  0  0  0  0
  -25.4206  -15.1931   20.4134 N   0  0  0  0  0  0
  -31.7601  -14.9039   20.0974 O   0  0  0  0  0  0
  -21.6643   -6.8882   21.4241 O   0  0  0  0  0  0
  -22.3505  -14.5526   20.6714 O   0  0  0  0  0  0
  -24.6352  -31.8517   23.1956 C   0  0  0  0  0  0
  -25.9161  -32.4735   23.8314 C   0  0  1  0  0  0
  -27.2177  -27.2198   20.1349 C   0  0  0  0  0  0
  -25.5941  -33.8539   24.2233 N   0  0  0  0  0  0
  -23.4342  -30.4739   21.5395 C   0  0  2  0  0  0
  -24.8825  -28.9171   20.1075 C   0  0  0  0  0  0
  -22.7525  -29.4584   22.4891 C   0  0  0  0  0  0
  -18.0296  -28.1390   22.8482 C   0  0  0  0  0  0
  -24.1491  -36.7274   23.2641 C   0  0  0  0  0  0
  -25.9841  -30.7508   21.3835 C   0  0  0  0  0  0
  -26.0555  -29.3706   20.7238 C   0  0  0  0  0  0
  -27.2240  -28.5348   20.7267 C   0  0  0  0  0  0
  -26.0238  -26.8543   19.4716 C   0  0  0  0  0  0
  -24.8748  -27.6692   19.4683 C   0  0  0  0  0  0
  -23.6550  -29.8083   20.1558 C   0  0  0  0  0  0
  -25.4120  -36.3057   24.0322 C   0  0  1  0  0  0
  -20.5904  -28.3707   23.1256 C   0  0  2  0  0  0
  -20.6783  -26.9419   22.5406 C   0  0  0  0  0  0
  -19.5757  -26.6382   21.5212 C   0  0  0  0  0  0
  -18.1938  -26.7931   22.1625 C   0  0  0  0  0  0
  -19.1551  -28.8866   23.2863 C   0  0  0  0  0  0
  -18.9471  -30.1465   23.8885 C   0  0  0  0  0  0
  -17.6469  -30.6590   24.0561 C   0  0  0  0  0  0
  -25.9063  -34.9429   23.5082 C   0  0  0  0  0  0
  -16.5360  -29.9085   23.6333 C   0  0  0  0  0  0
  -16.7282  -28.6503   23.0355 C   0  0  0  0  0  0
  -26.4512  -31.6576   25.0723 C   0  0  0  0  0  0
  -25.3718  -31.3741   26.1432 C   0  0  0  0  0  0
  -27.0370  -30.2985   24.6251 C   0  0  0  0  0  0
  -27.6054  -32.4330   25.7503 C   0  0  0  0  0  0
  -27.5578  -37.1794   24.8466 C   0  0  0  0  0  0
  -21.4226  -29.3046   22.3638 N   0  0  0  0  0  0
  -26.4291  -37.3761   23.9407 N   0  0  0  0  0  0
  -24.7037  -31.0445   22.0953 N   0  0  0  0  0  0
  -23.4206  -28.8126   23.3008 O   0  0  0  0  0  0
  -28.2918  -26.2862   20.2215 O   0  0  0  0  0  0
  -26.5641  -34.8912   22.4655 O   0  0  0  0  0  0
  -23.5492  -32.1359   23.7225 O   0  0  0  0  0  0
  -29.8604  -19.0178   18.3594 C   0  0  0  0  0  0
  -29.4680  -18.4939   21.0770 C   0  0  0  0  0  0
  -29.5311  -20.0841   19.2255 C   0  0  0  0  0  0
  -29.9781  -17.6770   18.8418 C   0  0  0  0  0  0
  -29.8011  -17.3501   20.2291 C   0  0  0  0  0  0
  -29.3463  -19.8543   20.5689 C   0  0  0  0  0  0
  -29.3164  -21.5651   18.9161 C   0  0  1  0  0  0
  -30.2255  -16.5987   17.8001 C   0  0  0  0  0  0
  -28.4272  -21.7975   17.6882 C   0  0  0  0  0  0
  -28.9732  -23.5649   20.5273 C   0  0  0  0  0  0
  -28.0532  -24.8030   19.9589 C   0  0  0  0  0  0
  -28.6685  -22.1121   20.1295 N   0  0  0  0  0  0
  -29.7895  -15.9220   20.7146 N   0  0  0  0  0  0
  -29.0449  -21.0837   21.1950 O   0  0  0  0  0  0
  -31.4793  -12.6145   19.1885 H   0  0  0  0  0  0
  -30.3959  -11.5097   19.9841 H   0  0  0  0  0  0
  -29.8082  -11.7194   17.5506 H   0  0  0  0  0  0
  -29.6447  -13.4470   17.7130 H   0  0  0  0  0  0
  -27.9027  -11.2833   18.9265 H   0  0  0  0  0  0
  -27.3894  -12.5155   17.8049 H   0  0  0  0  0  0
  -27.6341  -14.2555   19.4663 H   0  0  0  0  0  0
  -28.7283  -12.1844   21.4321 H   0  0  0  0  0  0
  -28.4078  -13.8592   21.8007 H   0  0  0  0  0  0
  -25.2770   -9.5687   22.4757 H   0  0  0  0  0  0
  -24.0007   -7.4639   22.7473 H   0  0  0  0  0  0
  -21.0848   -8.8778   19.8952 H   0  0  0  0  0  0
  -22.3705  -10.9675   19.6164 H   0  0  0  0  0  0
  -21.2009   -7.6149   23.9716 H   0  0  0  0  0  0
  -21.1482   -6.0524   25.9077 H   0  0  0  0  0  0
  -22.0597   -2.7610   23.2845 H   0  0  0  0  0  0
  -22.4099  -11.9873   22.4809 H   0  0  0  0  0  0
  -21.1092  -13.1228   22.2632 H   0  0  0  0  0  0
  -24.6529  -15.8464   20.5256 H   0  0  0  0  0  0
  -26.2690  -15.6346   20.0820 H   0  0  0  0  0  0
  -26.7226  -32.5369   23.1049 H   0  0  0  0  0  0
  -25.0076  -33.9669   25.0371 H   0  0  0  0  0  0
  -22.7326  -31.2976   21.3917 H   0  0  0  0  0  0
  -23.3755  -35.9604   23.3299 H   0  0  0  0  0  0
  -24.3577  -36.8905   22.2056 H   0  0  0  0  0  0
  -23.7243  -37.6471   23.6674 H   0  0  0  0  0  0
  -26.1309  -31.5103   20.6143 H   0  0  0  0  0  0
  -26.8584  -30.7980   22.0211 H   0  0  0  0  0  0
  -28.1172  -28.8736   21.2328 H   0  0  0  0  0  0
  -25.9424  -25.9064   18.9614 H   0  0  0  0  0  0
  -23.9800  -27.3200   18.9715 H   0  0  0  0  0  0
  -23.7829  -30.5852   19.4011 H   0  0  0  0  0  0
  -22.7722  -29.2447   19.8486 H   0  0  0  0  0  0
  -25.1305  -36.1897   25.0814 H   0  0  0  0  0  0
  -20.9997  -28.3290   24.1377 H   0  0  0  0  0  0
  -20.5681  -26.2319   23.3616 H   0  0  0  0  0  0
  -21.6650  -26.7436   22.1201 H   0  0  0  0  0  0
  -19.6919  -25.6290   21.1250 H   0  0  0  0  0  0
  -19.6694  -27.3186   20.6736 H   0  0  0  0  0  0
  -17.4207  -26.6675   21.4029 H   0  0  0  0  0  0
  -18.0340  -26.0076   22.9025 H   0  0  0  0  0  0
  -19.7946  -30.7284   24.2249 H   0  0  0  0  0  0
  -17.5022  -31.6268   24.5165 H   0  0  0  0  0  0
  -15.5359  -30.2983   23.7664 H   0  0  0  0  0  0
  -15.8682  -28.0817   22.7078 H   0  0  0  0  0  0
  -24.5901  -30.7083   25.7756 H   0  0  0  0  0  0
  -24.8901  -32.2915   26.4825 H   0  0  0  0  0  0
  -25.8020  -30.8939   27.0229 H   0  0  0  0  0  0
  -26.2971  -29.6719   24.1257 H   0  0  0  0  0  0
  -27.4011  -29.7266   25.4796 H   0  0  0  0  0  0
  -27.8866  -30.4243   23.9535 H   0  0  0  0  0  0
  -27.2652  -33.3640   26.2050 H   0  0  0  0  0  0
  -28.3880  -32.6875   25.0344 H   0  0  0  0  0  0
  -28.0704  -31.8477   26.5445 H   0  0  0  0  0  0
  -28.2594  -38.0093   24.7509 H   0  0  0  0  0  0
  -28.1075  -36.2622   24.6299 H   0  0  0  0  0  0
  -27.2293  -37.1449   25.8869 H   0  0  0  0  0  0
  -20.9421  -29.8765   21.6833 H   0  0  0  0  0  0
  -26.0165  -38.2833   24.1405 H   0  0  0  0  0  0
  -29.9918  -19.2267   17.3071 H   0  0  0  0  0  0
  -29.2890  -18.3271   22.1294 H   0  0  0  0  0  0
  -30.2960  -22.0242   18.7744 H   0  0  0  0  0  0
  -31.2388  -16.2065   17.8800 H   0  0  0  0  0  0
  -30.1041  -16.9843   16.7875 H   0  0  0  0  0  0
  -29.5148  -15.7814   17.9161 H   0  0  0  0  0  0
  -27.4418  -21.3498   17.8202 H   0  0  0  0  0  0
  -28.8732  -21.3606   16.7949 H   0  0  0  0  0  0
  -28.2899  -22.8595   17.4904 H   0  0  0  0  0  0
  -28.9056  -23.6071   21.6145 H   0  0  0  0  0  0
  -30.0200  -23.7668   20.2986 H   0  0  0  0  0  0
  -27.0498  -24.5699   20.3154 H   0  0  0  0  0  0
  -28.0098  -24.7032   18.8750 H   0  0  0  0  0  0
  -28.9501  -15.6782   21.2188 H   0  0  0  0  0  0
  1 25  1  0  0  0
  1 30  2  0  0  0
  1 83  1  0  0  0
  2  3  1  0  0  0
  2 25  1  0  0  0
  2 85  1  0  0  0
  2 86  1  0  0  0
  3  4  1  0  0  0
  3 87  1  0  0  0
  3 88  1  0  0  0
  4  5  1  0  0  0
  4 89  1  0  0  0
  4 90  1  0  0  0
  5  6  1  0  0  0
  5 26  1  0  0  0
  5 91  1  0  0  0
  6 25  1  0  0  0
  6 92  1  0  0  0
  6 93  1  0  0  0
  7  8  2  0  0  0
  7 26  1  0  0  0
  7 29  1  0  0  0
  8  9  1  0  0  0
  8 22  1  0  0  0
  9 10  1  0  0  0
  9 27  2  0  0  0
 10 11  2  0  0  0
 10 15  1  0  0  0
 11 12  1  0  0  0
 11 94  1  0  0  0
 12 13  2  0  0  0
 12 95  1  0  0  0
 13 14  1  0  0  0
 13 31  1  0  0  0
 14 15  2  0  0  0
 14 96  1  0  0  0
 15 97  1  0  0  0
 16 17  2  0  0  0
 16 21  1  0  0  0
 16 31  1  0  0  0
 17 18  1  0  0  0
 17 98  1  0  0  0
 18 19  2  0  0  0
 18 99  1  0  0  0
 19 20  1  0  0  0
 19 24  1  0  0  0
 20 21  2  0  0  0
 20100  1  0  0  0
 21 23  1  0  0  0
 22 28  1  0  0  0
 22 32  2  0  0  0
 26 27  1  0  0  0
 28101  1  0  0  0
 28102  1  0  0  0
 29103  1  0  0  0
 29104  1  0  0  0
 33 34  1  0  0  0
 33 66  1  0  0  0
 33 70  2  0  0  0
 34 36  1  0  0  0
 34 59  1  0  0  0
 34105  1  0  0  0
 35 44  2  0  0  0
 35 45  1  0  0  0
 35 68  1  0  0  0
 36 56  1  0  0  0
 36106  1  0  0  0
 37 39  1  0  0  0
 37 47  1  0  0  0
 37 66  1  0  0  0
 37107  1  0  0  0
 38 43  2  0  0  0
 38 46  1  0  0  0
 38 47  1  0  0  0
 39 64  1  0  0  0
 39 67  2  0  0  0
 40 52  1  0  0  0
 40 53  2  0  0  0
 40 58  1  0  0  0
 41108  1  0  0  0
 41109  1  0  0  0
 41110  1  0  0  0
 41 48  1  0  0  0
 42 43  1  0  0  0
 42 66  1  0  0  0
 42111  1  0  0  0
 42112  1  0  0  0
 43 44  1  0  0  0
 44113  1  0  0  0
 45 46  2  0  0  0
 45114  1  0  0  0
 46115  1  0  0  0
 47116  1  0  0  0
 47117  1  0  0  0
 48 56  1  0  0  0
 48 65  1  0  0  0
 48118  1  0  0  0
 49 50  1  0  0  0
 49 53  1  0  0  0
 49 64  1  0  0  0
 49119  1  0  0  0
 50 51  1  0  0  0
 50120  1  0  0  0
 50121  1  0  0  0
 51 52  1  0  0  0
 51122  1  0  0  0
 51123  1  0  0  0
 52124  1  0  0  0
 52125  1  0  0  0
 53 54  1  0  0  0
 54 55  2  0  0  0
 54126  1  0  0  0
 55 57  1  0  0  0
 55127  1  0  0  0
 56 69  2  0  0  0
 57 58  2  0  0  0
 57128  1  0  0  0
 58129  1  0  0  0
 59 60  1  0  0  0
 59 61  1  0  0  0
 59 62  1  0  0  0
 60130  1  0  0  0
 60131  1  0  0  0
 60132  1  0  0  0
 61133  1  0  0  0
 61134  1  0  0  0
 61135  1  0  0  0
 62136  1  0  0  0
 62137  1  0  0  0
 62138  1  0  0  0
 63 65  1  0  0  0
 63139  1  0  0  0
 63140  1  0  0  0
 63141  1  0  0  0
 64142  1  0  0  0
 65143  1  0  0  0
 68 81  1  0  0  0
 71 73  2  0  0  0
 71 74  1  0  0  0
 71144  1  0  0  0
 72 75  1  0  0  0
 72 76  2  0  0  0
 72145  1  0  0  0
 73 76  1  0  0  0
 73 77  1  0  0  0
 74 75  2  0  0  0
 74 78  1  0  0  0
 75 83  1  0  0  0
 76 84  1  0  0  0
 77 79  1  0  0  0
 77 82  1  0  0  0
 77146  1  0  0  0
 78147  1  0  0  0
 78148  1  0  0  0
 78149  1  0  0  0
 79150  1  0  0  0
 79151  1  0  0  0
 79152  1  0  0  0
 80 81  1  0  0  0
 80 82  1  0  0  0
 80153  1  0  0  0
 80154  1  0  0  0
 81155  1  0  0  0
 81156  1  0  0  0
 82 84  1  0  0  0
 83157  1  0  0  0
M  ISO  4   1 100  68 101  81 101  83 100
M  END
> <chiral flag>
0

> <version>
0

> <s_m_source_file>
/data/baiqing/PycharmProjects/Reinvent-master-3.2/result/LINK_invent/BTK/process_docking_weight1_custom_sum_contain_oxygen_bond_distance_aromatic_linkinvent_7_9_3/rearranged_h_0155.sdf

> <i_m_source_file_index>
69

> <r_mmod_Potential_Energy-OPLS-2005>
284.238586425781

> <r_mmod_Stretch_Energy-OPLS-2005>
156.220352172852

> <r_mmod_Bend_Energy-OPLS-2005>
226.140045166016

> <r_mmod_Torsional_Energy-OPLS-2005>
259.666229248047

> <r_mmod_Improper_Torsional_Energy-OPLS-2005>
4.28952884674072

> <r_mmod_Van_der_Waal_Energy-OPLS-2005>
132.700561523438

> <r_mmod_Electrostatic_Energy-OPLS-2005>
-385.038543701172

> <r_mmod_Solvation_Energy-OPLS-2005>
-222.784408569336

> <b_mmod_Minimization_Converged-OPLS-2005>
1

> <r_mmod_RMS_Derivative-OPLS-2005>
0.0493840165436268

$$$$
69
                    3D
 Structure written by MMmdl.
178188  0  0  1  0            999 V2000
  -30.8416  -14.3411   20.6784 C   0  0  0  0  0  0
  -30.4055  -12.2598   19.4337 C   0  0  0  0  0  0
  -29.5023  -12.5000   18.2080 C   0  0  0  0  0  0
  -28.0217  -12.3284   18.5888 C   0  0  0  0  0  0
  -27.6525  -13.1850   19.8258 C   0  0  2  0  0  0
  -28.6754  -12.9750   20.9607 C   0  0  0  0  0  0
  -25.2551  -13.8061   20.5628 C   0  0  0  0  0  0
  -24.1749  -13.0319   20.9103 C   0  0  0  0  0  0
  -24.6315  -11.6798   20.8573 C   0  0  0  0  0  0
  -23.8983  -10.4173   21.0307 C   0  0  0  0  0  0
  -24.3529   -9.4086   21.9091 C   0  0  0  0  0  0
  -23.6162   -8.2156   22.0748 C   0  0  0  0  0  0
  -22.4126   -8.0207   21.3580 C   0  0  0  0  0  0
  -21.9731   -9.0168   20.4707 C   0  0  0  0  0  0
  -22.7095  -10.2026   20.3040 C   0  0  0  0  0  0
  -21.6778   -6.0648   22.5298 C   0  0  0  0  0  0
  -21.3961   -6.5590   23.8223 C   0  0  0  0  0  0
  -21.3676   -5.6802   24.9220 C   0  0  0  0  0  0
  -21.6016   -4.3045   24.7285 C   0  0  0  0  0  0
  -21.8775   -3.8101   23.4422 C   0  0  0  0  0  0
  -21.9150   -4.6887   22.3439 C   0  0  0  0  0  0
  -22.7765  -13.5140   21.1742 C   0  0  0  0  0  0
  -22.1665   -4.2086   21.1004 F   0  0  0  0  0  0
  -21.5665   -3.4528   25.7787 F   0  0  0  0  0  0
  -30.0474  -13.2464   20.4767 N   0  0  0  0  0  0
  -26.2899  -12.9204   20.2978 N   0  0  0  0  0  0
  -25.9210  -11.6379   20.5447 N   0  0  0  0  0  0
  -22.0427  -12.8186   22.0401 N   0  0  0  0  0  0
  -25.4194  -15.1810   20.4427 N   0  0  0  0  0  0
  -31.8344  -14.5284   19.9662 O   0  0  0  0  0  0
  -21.6499   -6.8806   21.4296 O   0  0  0  0  0  0
  -22.3405  -14.5393   20.6513 O   0  0  0  0  0  0
  -24.6130  -31.8801   23.2205 C   0  0  0  0  0  0
  -25.9043  -32.4932   23.8473 C   0  0  1  0  0  0
  -27.2235  -27.4897   20.0783 C   0  0  0  0  0  0
  -25.5970  -33.8735   24.2434 N   0  0  0  0  0  0
  -23.3970  -30.5066   21.5609 C   0  0  2  0  0  0
  -24.8445  -29.0034   20.0931 C   0  0  0  0  0  0
  -22.7412  -29.4682   22.4989 C   0  0  0  0  0  0
  -18.0259  -28.1405   22.8425 C   0  0  0  0  0  0
  -24.1485  -36.7298   23.2620 C   0  0  0  0  0  0
  -25.9262  -30.8635   21.3679 C   0  0  0  0  0  0
  -26.0067  -29.5142   20.6875 C   0  0  0  0  0  0
  -27.2033  -28.7665   20.6736 C   0  0  0  0  0  0
  -26.0642  -27.0218   19.4197 C   0  0  0  0  0  0
  -24.8726  -27.7625   19.4397 C   0  0  0  0  0  0
  -23.5998  -29.8564   20.1653 C   0  0  0  0  0  0
  -25.4112  -36.3170   24.0353 C   0  0  1  0  0  0
  -20.5873  -28.3636   23.1295 C   0  0  2  0  0  0
  -20.6782  -26.9423   22.5367 C   0  0  0  0  0  0
  -19.5741  -26.6433   21.5141 C   0  0  0  0  0  0
  -18.1921  -26.7938   22.1573 C   0  0  0  0  0  0
  -19.1525  -28.8810   23.2858 C   0  0  0  0  0  0
  -18.9447  -30.1411   23.8908 C   0  0  0  0  0  0
  -17.6430  -30.6517   24.0573 C   0  0  0  0  0  0
  -25.9059  -34.9540   23.5175 C   0  0  0  0  0  0
  -16.5312  -29.9039   23.6311 C   0  0  0  0  0  0
  -16.7248  -28.6501   23.0267 C   0  0  0  0  0  0
  -26.4452  -31.6625   25.0723 C   0  0  0  0  0  0
  -25.3703  -31.3732   26.1469 C   0  0  0  0  0  0
  -27.0275  -30.3106   24.5981 C   0  0  0  0  0  0
  -27.6078  -32.4283   25.7444 C   0  0  0  0  0  0
  -27.5582  -37.1819   24.8469 C   0  0  0  0  0  0
  -21.4128  -29.3092   22.3779 N   0  0  0  0  0  0
  -26.4305  -37.3848   23.9413 N   0  0  0  0  0  0
  -24.6630  -31.0942   22.1080 N   0  0  0  0  0  0
  -23.4177  -28.8150   23.2960 O   0  0  0  0  0  0
  -28.2889  -26.6449   20.2813 O   0  0  0  0  0  0
  -26.5558  -34.8972   22.4694 O   0  0  0  0  0  0
  -23.5321  -32.1529   23.7613 O   0  0  0  0  0  0
  -27.3724  -18.8650   22.2381 C   0  0  0  0  0  0
  -27.5515  -20.6896   24.3438 C   0  0  0  0  0  0
  -28.3148  -18.6366   23.2640 C   0  0  0  0  0  0
  -26.5914  -20.0364   22.2014 C   0  0  0  0  0  0
  -28.3274  -19.5176   24.3824 C   0  0  0  0  0  0
  -26.7477  -20.9978   23.2325 C   0  0  0  0  0  0
  -26.5458  -24.7143   23.0488 C   0  0  0  0  0  0
  -28.0388  -23.1144   21.6617 C   0  0  0  0  0  0
  -27.4211  -25.8583   22.5064 C   0  0  0  0  0  0
  -28.8320  -24.3360   21.1565 C   0  0  0  0  0  0
  -28.8192  -16.0888   23.1930 C   0  0  0  0  0  0
  -30.1331  -17.7150   21.7374 C   0  0  0  0  0  0
  -29.9763  -15.0819   22.9579 C   0  0  0  0  0  0
  -31.1745  -16.6095   21.5354 C   0  0  0  0  0  0
  -29.3587  -17.5319   23.0651 C   0  0  0  0  0  0
  -27.2304  -23.3337   22.9780 C   0  0  2  0  0  0
  -27.8590  -25.5095   21.0659 C   0  0  2  0  0  0
  -25.6794  -20.2541   21.0016 C   0  0  0  0  0  0
  -29.1623  -19.3110   25.6369 C   0  0  0  0  0  0
  -30.5188  -15.2864   21.6023 N   0  0  0  0  0  0
  -26.2125  -22.2869   23.1291 N   0  0  0  0  0  0
  -31.4589  -12.2860   19.1411 H   0  0  0  0  0  0
  -30.2604  -11.2496   19.8249 H   0  0  0  0  0  0
  -29.7674  -11.8166   17.3996 H   0  0  0  0  0  0
  -29.6696  -13.5097   17.8255 H   0  0  0  0  0  0
  -27.8579  -11.2723   18.8053 H   0  0  0  0  0  0
  -27.3855  -12.5697   17.7372 H   0  0  0  0  0  0
  -27.6892  -14.2264   19.5075 H   0  0  0  0  0  0
  -28.6177  -11.9493   21.3287 H   0  0  0  0  0  0
  -28.3337  -13.6002   21.7713 H   0  0  0  0  0  0
  -25.2753   -9.5504   22.4598 H   0  0  0  0  0  0
  -23.9857   -7.4570   22.7504 H   0  0  0  0  0  0
  -21.0581   -8.8689   19.9153 H   0  0  0  0  0  0
  -22.3507  -10.9523   19.6143 H   0  0  0  0  0  0
  -21.1956   -7.6103   23.9670 H   0  0  0  0  0  0
  -21.1594   -6.0602   25.9110 H   0  0  0  0  0  0
  -22.0530   -2.7555   23.2989 H   0  0  0  0  0  0
  -22.4070  -11.9925   22.4917 H   0  0  0  0  0  0
  -21.0956  -13.1096   22.2325 H   0  0  0  0  0  0
  -24.6837  -15.8168   20.7296 H   0  0  0  0  0  0
  -26.2557  -15.6563   20.1275 H   0  0  0  0  0  0
  -26.7089  -32.5684   23.1214 H   0  0  0  0  0  0
  -25.0210  -33.9906   25.0633 H   0  0  0  0  0  0
  -22.6785  -31.3207   21.4420 H   0  0  0  0  0  0
  -23.3796  -35.9582   23.3349 H   0  0  0  0  0  0
  -24.3531  -36.8838   22.2006 H   0  0  0  0  0  0
  -23.7194  -37.6506   23.6584 H   0  0  0  0  0  0
  -26.0419  -31.6523   20.6213 H   0  0  0  0  0  0
  -26.8084  -30.9069   21.9943 H   0  0  0  0  0  0
  -28.0929  -29.1326   21.1690 H   0  0  0  0  0  0
  -26.0665  -26.0628   18.9227 H   0  0  0  0  0  0
  -23.9861  -27.3747   18.9572 H   0  0  0  0  0  0
  -23.7014  -30.6534   19.4292 H   0  0  0  0  0  0
  -22.7237  -29.2757   19.8633 H   0  0  0  0  0  0
  -25.1274  -36.2046   25.0849 H   0  0  0  0  0  0
  -20.9930  -28.3186   24.1421 H   0  0  0  0  0  0
  -20.5765  -26.2185   23.3452 H   0  0  0  0  0  0
  -21.6643  -26.7486   22.1103 H   0  0  0  0  0  0
  -19.6890  -25.6339   21.1199 H   0  0  0  0  0  0
  -19.6704  -27.3245   20.6718 H   0  0  0  0  0  0
  -17.4182  -26.6668   21.4008 H   0  0  0  0  0  0
  -18.0457  -26.0080   22.9022 H   0  0  0  0  0  0
  -19.7937  -30.7177   24.2315 H   0  0  0  0  0  0
  -17.4997  -31.6210   24.5159 H   0  0  0  0  0  0
  -15.5330  -30.2937   23.7596 H   0  0  0  0  0  0
  -15.8661  -28.0830   22.6930 H   0  0  0  0  0  0
  -24.5894  -30.7089   25.7750 H   0  0  0  0  0  0
  -24.8891  -32.2913   26.4875 H   0  0  0  0  0  0
  -25.8047  -30.8903   27.0242 H   0  0  0  0  0  0
  -26.2843  -29.6922   24.0999 H   0  0  0  0  0  0
  -27.4045  -29.7265   25.4369 H   0  0  0  0  0  0
  -27.8647  -30.4450   23.9150 H   0  0  0  0  0  0
  -27.2780  -33.3582   26.2095 H   0  0  0  0  0  0
  -28.3859  -32.6851   25.0237 H   0  0  0  0  0  0
  -28.0805  -31.8366   26.5293 H   0  0  0  0  0  0
  -28.2629  -38.0081   24.7522 H   0  0  0  0  0  0
  -28.1054  -36.2631   24.6331 H   0  0  0  0  0  0
  -27.2306  -37.1525   25.8871 H   0  0  0  0  0  0
  -20.9244  -29.8957   21.7146 H   0  0  0  0  0  0
  -26.0227  -38.2935   24.1462 H   0  0  0  0  0  0
  -27.3093  -18.1720   21.4113 H   0  0  0  0  0  0
  -27.6145  -21.3934   25.1627 H   0  0  0  0  0  0
  -25.6259  -24.6961   22.4584 H   0  0  0  0  0  0
  -26.2363  -24.9353   24.0743 H   0  0  0  0  0  0
  -28.7134  -22.2648   21.7630 H   0  0  0  0  0  0
  -27.3420  -22.8270   20.8738 H   0  0  0  0  0  0
  -28.2875  -26.0333   23.1480 H   0  0  0  0  0  0
  -26.8371  -26.7808   22.5466 H   0  0  0  0  0  0
  -29.2453  -24.1084   20.1730 H   0  0  0  0  0  0
  -29.6610  -24.5586   21.8278 H   0  0  0  0  0  0
  -28.3819  -15.9347   24.1781 H   0  0  0  0  0  0
  -28.0178  -15.9224   22.4702 H   0  0  0  0  0  0
  -29.4534  -17.7002   20.8850 H   0  0  0  0  0  0
  -30.6324  -18.6859   21.7263 H   0  0  0  0  0  0
  -29.6942  -14.0567   23.1845 H   0  0  0  0  0  0
  -30.7727  -15.2854   23.6756 H   0  0  0  0  0  0
  -31.9666  -16.6653   22.2879 H   0  0  0  0  0  0
  -31.6629  -16.8040   20.5795 H   0  0  0  0  0  0
  -30.1257  -17.6429   23.8267 H   0  0  0  0  0  0
  -27.9321  -23.2890   23.8126 H   0  0  0  0  0  0
  -26.9900  -25.0778   20.5775 H   0  0  0  0  0  0
  -25.3092  -19.2983   20.6280 H   0  0  0  0  0  0
  -26.2252  -20.7345   20.1897 H   0  0  0  0  0  0
  -24.8081  -20.8633   21.2420 H   0  0  0  0  0  0
  -28.5139  -19.3947   26.5119 H   0  0  0  0  0  0
  -29.9232  -20.0878   25.7145 H   0  0  0  0  0  0
  -29.6517  -18.3460   25.7201 H   0  0  0  0  0  0
  -25.5041  -22.3699   22.4076 H   0  0  0  0  0  0
  1 25  1  0  0  0
  1 30  2  0  0  0
  1 90  1  0  0  0
  2  3  1  0  0  0
  2 25  1  0  0  0
  2 92  1  0  0  0
  2 93  1  0  0  0
  3  4  1  0  0  0
  3 94  1  0  0  0
  3 95  1  0  0  0
  4  5  1  0  0  0
  4 96  1  0  0  0
  4 97  1  0  0  0
  5  6  1  0  0  0
  5 26  1  0  0  0
  5 98  1  0  0  0
  6 25  1  0  0  0
  6 99  1  0  0  0
  6100  1  0  0  0
  7  8  2  0  0  0
  7 26  1  0  0  0
  7 29  1  0  0  0
  8  9  1  0  0  0
  8 22  1  0  0  0
  9 10  1  0  0  0
  9 27  2  0  0  0
 10 11  2  0  0  0
 10 15  1  0  0  0
 11 12  1  0  0  0
 11101  1  0  0  0
 12 13  2  0  0  0
 12102  1  0  0  0
 13 14  1  0  0  0
 13 31  1  0  0  0
 14 15  2  0  0  0
 14103  1  0  0  0
 15104  1  0  0  0
 16 17  2  0  0  0
 16 21  1  0  0  0
 16 31  1  0  0  0
 17 18  1  0  0  0
 17105  1  0  0  0
 18 19  2  0  0  0
 18106  1  0  0  0
 19 20  1  0  0  0
 19 24  1  0  0  0
 20 21  2  0  0  0
 20107  1  0  0  0
 21 23  1  0  0  0
 22 28  1  0  0  0
 22 32  2  0  0  0
 26 27  1  0  0  0
 28108  1  0  0  0
 28109  1  0  0  0
 29110  1  0  0  0
 29111  1  0  0  0
 33 34  1  0  0  0
 33 66  1  0  0  0
 33 70  2  0  0  0
 34 36  1  0  0  0
 34 59  1  0  0  0
 34112  1  0  0  0
 35 44  2  0  0  0
 35 45  1  0  0  0
 35 68  1  0  0  0
 36 56  1  0  0  0
 36113  1  0  0  0
 37 39  1  0  0  0
 37 47  1  0  0  0
 37 66  1  0  0  0
 37114  1  0  0  0
 38 43  2  0  0  0
 38 46  1  0  0  0
 38 47  1  0  0  0
 39 64  1  0  0  0
 39 67  2  0  0  0
 40 52  1  0  0  0
 40 53  2  0  0  0
 40 58  1  0  0  0
 41115  1  0  0  0
 41116  1  0  0  0
 41117  1  0  0  0
 41 48  1  0  0  0
 42 43  1  0  0  0
 42 66  1  0  0  0
 42118  1  0  0  0
 42119  1  0  0  0
 43 44  1  0  0  0
 44120  1  0  0  0
 45 46  2  0  0  0
 45121  1  0  0  0
 46122  1  0  0  0
 47123  1  0  0  0
 47124  1  0  0  0
 48 56  1  0  0  0
 48 65  1  0  0  0
 48125  1  0  0  0
 49 50  1  0  0  0
 49 53  1  0  0  0
 49 64  1  0  0  0
 49126  1  0  0  0
 50 51  1  0  0  0
 50127  1  0  0  0
 50128  1  0  0  0
 51 52  1  0  0  0
 51129  1  0  0  0
 51130  1  0  0  0
 52131  1  0  0  0
 52132  1  0  0  0
 53 54  1  0  0  0
 54 55  2  0  0  0
 54133  1  0  0  0
 55 57  1  0  0  0
 55134  1  0  0  0
 56 69  2  0  0  0
 57 58  2  0  0  0
 57135  1  0  0  0
 58136  1  0  0  0
 59 60  1  0  0  0
 59 61  1  0  0  0
 59 62  1  0  0  0
 60137  1  0  0  0
 60138  1  0  0  0
 60139  1  0  0  0
 61140  1  0  0  0
 61141  1  0  0  0
 61142  1  0  0  0
 62143  1  0  0  0
 62144  1  0  0  0
 62145  1  0  0  0
 63 65  1  0  0  0
 63146  1  0  0  0
 63147  1  0  0  0
 63148  1  0  0  0
 64149  1  0  0  0
 65150  1  0  0  0
 68 87  1  0  0  0
 71 73  2  0  0  0
 71 74  1  0  0  0
 71151  1  0  0  0
 72 75  2  0  0  0
 72 76  1  0  0  0
 72152  1  0  0  0
 73 75  1  0  0  0
 73 85  1  0  0  0
 74 76  2  0  0  0
 74 88  1  0  0  0
 75 89  1  0  0  0
 76 91  1  0  0  0
 77 79  1  0  0  0
 77 86  1  0  0  0
 77153  1  0  0  0
 77154  1  0  0  0
 78 80  1  0  0  0
 78 86  1  0  0  0
 78155  1  0  0  0
 78156  1  0  0  0
 79 87  1  0  0  0
 79157  1  0  0  0
 79158  1  0  0  0
 80 87  1  0  0  0
 80159  1  0  0  0
 80160  1  0  0  0
 81 83  1  0  0  0
 81 85  1  0  0  0
 81161  1  0  0  0
 81162  1  0  0  0
 82 84  1  0  0  0
 82 85  1  0  0  0
 82163  1  0  0  0
 82164  1  0  0  0
 83 90  1  0  0  0
 83165  1  0  0  0
 83166  1  0  0  0
 84 90  1  0  0  0
 84167  1  0  0  0
 84168  1  0  0  0
 85169  1  0  0  0
 86 91  1  0  0  0
 86170  1  0  0  0
 87171  1  0  0  0
 88172  1  0  0  0
 88173  1  0  0  0
 88174  1  0  0  0
 89175  1  0  0  0
 89176  1  0  0  0
 89177  1  0  0  0
 91178  1  0  0  0
M  ISO  4   1 100  68 101  87 101  90 100
M  END
> <chiral flag>
0

> <version>
0

> <s_m_source_file>
/data/baiqing/PycharmProjects/Reinvent-master-3.2/result/LINK_invent/BTK/process_docking_weight1_custom_sum_contain_oxygen_bond_distance_aromatic_linkinvent_7_9_3/rearranged_h_0155.sdf

> <i_m_source_file_index>
70

> <r_mmod_Potential_Energy-OPLS-2005>
199.487045288086

> <r_mmod_Stretch_Energy-OPLS-2005>
43.2811431884766

> <r_mmod_Bend_Energy-OPLS-2005>
141.625534057617

> <r_mmod_Torsional_Energy-OPLS-2005>
357.857177734375

> <r_mmod_Improper_Torsional_Energy-OPLS-2005>
10.4736280441284

> <r_mmod_Van_der_Waal_Energy-OPLS-2005>
190.838653564453

> <r_mmod_Electrostatic_Energy-OPLS-2005>
-373.974639892578

> <r_mmod_Solvation_Energy-OPLS-2005>
-195.915817260742

> <b_mmod_Minimization_Converged-OPLS-2005>
0

> <r_mmod_RMS_Derivative-OPLS-2005>
8.16335296630859

$$$$
70
                    3D
 Structure written by MMmdl.
185195  0  0  1  0            999 V2000
  -30.7721  -14.3686   20.6693 C   0  0  0  0  0  0
  -30.4134  -12.2866   19.3958 C   0  0  0  0  0  0
  -29.4803  -12.5250   18.1930 C   0  0  0  0  0  0
  -28.0062  -12.3805   18.6117 C   0  0  0  0  0  0
  -27.6647  -13.2005   19.8831 C   0  0  2  0  0  0
  -28.7064  -12.9513   20.9971 C   0  0  0  0  0  0
  -25.2596  -13.8152   20.5699 C   0  0  0  0  0  0
  -24.1838  -13.0426   20.9182 C   0  0  0  0  0  0
  -24.6393  -11.6897   20.8738 C   0  0  0  0  0  0
  -23.9055  -10.4285   21.0397 C   0  0  0  0  0  0
  -24.3600   -9.4209   21.9184 C   0  0  0  0  0  0
  -23.6282   -8.2245   22.0753 C   0  0  0  0  0  0
  -22.4271   -8.0276   21.3533 C   0  0  0  0  0  0
  -21.9899   -9.0253   20.4640 C   0  0  0  0  0  0
  -22.7222  -10.2137   20.3056 C   0  0  0  0  0  0
  -21.6849   -6.0731   22.5279 C   0  0  0  0  0  0
  -21.4015   -6.5638   23.8215 C   0  0  0  0  0  0
  -21.3662   -5.6786   24.9176 C   0  0  0  0  0  0
  -21.6047   -4.3050   24.7227 C   0  0  0  0  0  0
  -21.8821   -3.8142   23.4351 C   0  0  0  0  0  0
  -21.9190   -4.6954   22.3404 C   0  0  0  0  0  0
  -22.7865  -13.5230   21.1839 C   0  0  0  0  0  0
  -22.1655   -4.2133   21.0981 F   0  0  0  0  0  0
  -21.5634   -3.4541   25.7746 F   0  0  0  0  0  0
  -30.0471  -13.2386   20.4539 N   0  0  0  0  0  0
  -26.3036  -12.9316   20.3418 N   0  0  0  0  0  0
  -25.9319  -11.6476   20.5776 N   0  0  0  0  0  0
  -22.0515  -12.8218   22.0401 N   0  0  0  0  0  0
  -25.4335  -15.1867   20.4105 N   0  0  0  0  0  0
  -31.8246  -14.6204   20.0736 O   0  0  0  0  0  0
  -21.6634   -6.8875   21.4243 O   0  0  0  0  0  0
  -22.3546  -14.5533   20.6682 O   0  0  0  0  0  0
  -24.6090  -31.8701   23.2122 C   0  0  0  0  0  0
  -25.9017  -32.4834   23.8394 C   0  0  1  0  0  0
  -27.2481  -27.4707   20.0966 C   0  0  0  0  0  0
  -25.5889  -33.8629   24.2330 N   0  0  0  0  0  0
  -23.3983  -30.4917   21.5520 C   0  0  2  0  0  0
  -24.8494  -28.9621   20.1146 C   0  0  0  0  0  0
  -22.7389  -29.4652   22.4998 C   0  0  0  0  0  0
  -18.0259  -28.1368   22.8498 C   0  0  0  0  0  0
  -24.1483  -36.7316   23.2626 C   0  0  0  0  0  0
  -25.9214  -30.8461   21.3632 C   0  0  0  0  0  0
  -26.0038  -29.4809   20.7152 C   0  0  0  0  0  0
  -27.2044  -28.7414   20.7146 C   0  0  0  0  0  0
  -26.0854  -26.9661   19.4812 C   0  0  0  0  0  0
  -24.8822  -27.6986   19.4970 C   0  0  0  0  0  0
  -23.6068  -29.8223   20.1671 C   0  0  0  0  0  0
  -25.4105  -36.3131   24.0343 C   0  0  1  0  0  0
  -20.5838  -28.3658   23.1316 C   0  0  2  0  0  0
  -20.6746  -26.9396   22.5421 C   0  0  0  0  0  0
  -19.5752  -26.6390   21.5189 C   0  0  0  0  0  0
  -18.1921  -26.7928   22.1590 C   0  0  0  0  0  0
  -19.1508  -28.8824   23.2909 C   0  0  0  0  0  0
  -18.9444  -30.1428   23.8934 C   0  0  0  0  0  0
  -17.6453  -30.6586   24.0574 C   0  0  0  0  0  0
  -25.9030  -34.9494   23.5141 C   0  0  0  0  0  0
  -16.5342  -29.9101   23.6322 C   0  0  0  0  0  0
  -16.7246  -28.6499   23.0364 C   0  0  0  0  0  0
  -26.4453  -31.6595   25.0712 C   0  0  0  0  0  0
  -25.3735  -31.3697   26.1471 C   0  0  0  0  0  0
  -27.0249  -30.3023   24.6074 C   0  0  0  0  0  0
  -27.6048  -32.4281   25.7473 C   0  0  0  0  0  0
  -27.5600  -37.1804   24.8446 C   0  0  0  0  0  0
  -21.4119  -29.3028   22.3731 N   0  0  0  0  0  0
  -26.4287  -37.3828   23.9415 N   0  0  0  0  0  0
  -24.6598  -31.0821   22.1009 N   0  0  0  0  0  0
  -23.4188  -28.8199   23.3026 O   0  0  0  0  0  0
  -28.3760  -26.6867   20.0529 O   0  0  0  0  0  0
  -26.5619  -34.8959   22.4722 O   0  0  0  0  0  0
  -23.5287  -32.1413   23.7531 O   0  0  0  0  0  0
  -30.7889  -23.2494   20.4894 C   0  0  0  0  0  0
  -30.0465  -24.4353   20.3280 C   0  0  0  0  0  0
  -30.7568  -25.1690   22.5285 C   0  0  0  0  0  0
  -31.5254  -22.9986   21.6714 C   0  0  0  0  0  0
  -30.0223  -25.4039   21.3507 C   0  0  0  0  0  0
  -31.4973  -23.9778   22.7077 C   0  0  0  0  0  0
  -32.0069  -16.7117   22.6227 C   0  0  0  0  0  0
  -30.3808  -17.5813   20.8808 C   0  0  0  0  0  0
  -34.1300  -20.1958   20.8306 C   0  0  0  0  0  0
  -31.0637  -15.5048   22.8270 C   0  0  0  0  0  0
  -29.4842  -16.3628   21.1904 C   0  0  0  0  0  0
  -33.1372  -19.0188   20.8189 C   0  0  0  0  0  0
  -31.3819  -20.4433   21.8087 C   0  0  0  0  0  0
  -32.3197  -21.6842   21.7886 C   0  0  1  0  0  0
  -31.2410  -17.9602   22.1122 C   0  0  0  0  0  0
  -33.3907  -21.5424   20.6705 C   0  0  1  0  0  0
  -32.2247  -23.7920   24.0320 C   0  0  0  0  0  0
  -35.2914  -22.8495   21.6989 C   0  0  0  0  0  0
  -34.9410  -22.8880   19.2693 C   0  0  0  0  0  0
  -29.1922  -26.6757   21.2230 C   0  0  0  0  0  0
  -30.2922  -15.2108   21.6105 N   0  0  0  0  0  0
  -32.1282  -19.1514   21.9075 N   0  3  1  0  0  0
  -34.3031  -22.7254   20.5983 N   0  3  0  0  0  0
  -31.4567  -12.3798   19.0886 H   0  0  0  0  0  0
  -30.3056  -11.2660   19.7661 H   0  0  0  0  0  0
  -29.7133  -11.8225   17.3908 H   0  0  0  0  0  0
  -29.6504  -13.5234   17.7863 H   0  0  0  0  0  0
  -27.8111  -11.3224   18.7899 H   0  0  0  0  0  0
  -27.3526  -12.6761   17.7907 H   0  0  0  0  0  0
  -27.7169  -14.2523   19.6039 H   0  0  0  0  0  0
  -28.6702  -11.9103   21.3222 H   0  0  0  0  0  0
  -28.4646  -13.5369   21.8843 H   0  0  0  0  0  0
  -25.2746   -9.5694   22.4754 H   0  0  0  0  0  0
  -23.9993   -7.4644   22.7474 H   0  0  0  0  0  0
  -21.0832   -8.8777   19.8946 H   0  0  0  0  0  0
  -22.3678  -10.9679   19.6163 H   0  0  0  0  0  0
  -21.2011   -7.6144   23.9712 H   0  0  0  0  0  0
  -21.1483   -6.0519   25.9078 H   0  0  0  0  0  0
  -22.0599   -2.7605   23.2858 H   0  0  0  0  0  0
  -22.4115  -11.9859   22.4761 H   0  0  0  0  0  0
  -21.1137  -13.1242   22.2617 H   0  0  0  0  0  0
  -24.6716  -15.8463   20.5218 H   0  0  0  0  0  0
  -26.2933  -15.6250   20.1052 H   0  0  0  0  0  0
  -26.7103  -32.5551   23.1168 H   0  0  0  0  0  0
  -25.0092  -33.9784   25.0507 H   0  0  0  0  0  0
  -22.6876  -31.3082   21.4134 H   0  0  0  0  0  0
  -23.3797  -35.9591   23.3207 H   0  0  0  0  0  0
  -24.3603  -36.9014   22.2061 H   0  0  0  0  0  0
  -23.7175  -37.6470   23.6706 H   0  0  0  0  0  0
  -26.0338  -31.6140   20.5979 H   0  0  0  0  0  0
  -26.8085  -30.8976   21.9833 H   0  0  0  0  0  0
  -28.0895  -29.1540   21.1789 H   0  0  0  0  0  0
  -26.1158  -26.0000   18.9980 H   0  0  0  0  0  0
  -23.9986  -27.2915   19.0248 H   0  0  0  0  0  0
  -23.7061  -30.5992   19.4068 H   0  0  0  0  0  0
  -22.7325  -29.2373   19.8768 H   0  0  0  0  0  0
  -25.1261  -36.2008   25.0828 H   0  0  0  0  0  0
  -20.9925  -28.3224   24.1436 H   0  0  0  0  0  0
  -20.5616  -26.2246   23.3596 H   0  0  0  0  0  0
  -21.6632  -26.7434   22.1246 H   0  0  0  0  0  0
  -19.6928  -25.6304   21.1215 H   0  0  0  0  0  0
  -19.6708  -27.3184   20.6710 H   0  0  0  0  0  0
  -17.4194  -26.6669   21.3993 H   0  0  0  0  0  0
  -18.0328  -26.0038   22.8949 H   0  0  0  0  0  0
  -19.7920  -30.7225   24.2337 H   0  0  0  0  0  0
  -17.5016  -31.6271   24.5185 H   0  0  0  0  0  0
  -15.5353  -30.3036   23.7613 H   0  0  0  0  0  0
  -15.8628  -28.0834   22.7088 H   0  0  0  0  0  0
  -24.5961  -30.6960   25.7850 H   0  0  0  0  0  0
  -24.8860  -32.2828   26.4879 H   0  0  0  0  0  0
  -25.8109  -30.8952   27.0258 H   0  0  0  0  0  0
  -26.2764  -29.6825   24.1115 H   0  0  0  0  0  0
  -27.3968  -29.7233   25.4537 H   0  0  0  0  0  0
  -27.8644  -30.4306   23.9236 H   0  0  0  0  0  0
  -27.2721  -33.3600   26.2065 H   0  0  0  0  0  0
  -28.3884  -32.6775   25.0306 H   0  0  0  0  0  0
  -28.0697  -31.8373   26.5380 H   0  0  0  0  0  0
  -28.2575  -38.0150   24.7639 H   0  0  0  0  0  0
  -28.1148  -36.2706   24.6099 H   0  0  0  0  0  0
  -27.2355  -37.1273   25.8853 H   0  0  0  0  0  0
  -20.9260  -29.8752   21.6966 H   0  0  0  0  0  0
  -26.0177  -38.2889   24.1500 H   0  0  0  0  0  0
  -30.7709  -22.5303   19.6818 H   0  0  0  0  0  0
  -29.4884  -24.5878   19.4148 H   0  0  0  0  0  0
  -30.7305  -25.9140   23.3120 H   0  0  0  0  0  0
  -32.7846  -16.4131   21.9197 H   0  0  0  0  0  0
  -32.5163  -16.9367   23.5605 H   0  0  0  0  0  0
  -29.7476  -18.4126   20.5737 H   0  0  0  0  0  0
  -31.0162  -17.3449   20.0257 H   0  0  0  0  0  0
  -34.8529  -20.0558   20.0262 H   0  0  0  0  0  0
  -34.7021  -20.1700   21.7589 H   0  0  0  0  0  0
  -30.3710  -15.7029   23.6463 H   0  0  0  0  0  0
  -31.6418  -14.6297   23.1303 H   0  0  0  0  0  0
  -28.8832  -16.1161   20.3140 H   0  0  0  0  0  0
  -28.7740  -16.6051   21.9819 H   0  0  0  0  0  0
  -33.7058  -18.0955   20.9194 H   0  0  0  0  0  0
  -32.6435  -18.9686   19.8479 H   0  0  0  0  0  0
  -30.7634  -20.4311   20.9108 H   0  0  0  0  0  0
  -30.6932  -20.5294   22.6502 H   0  0  0  0  0  0
  -32.8430  -21.6717   22.7420 H   0  0  0  0  0  0
  -30.5466  -18.2297   22.9108 H   0  0  0  0  0  0
  -32.8586  -21.4990   19.7182 H   0  0  0  0  0  0
  -31.9259  -24.5484   24.7606 H   0  0  0  0  0  0
  -33.3020  -23.8843   23.9034 H   0  0  0  0  0  0
  -32.0001  -22.8227   24.4770 H   0  0  0  0  0  0
  -34.8433  -22.7046   22.6806 H   0  0  0  0  0  0
  -35.7325  -23.8469   21.6946 H   0  0  0  0  0  0
  -36.1044  -22.1321   21.5935 H   0  0  0  0  0  0
  -34.1978  -22.9227   18.4716 H   0  0  0  0  0  0
  -35.6304  -22.0717   19.0553 H   0  0  0  0  0  0
  -35.5084  -23.8184   19.2236 H   0  0  0  0  0  0
  -29.8575  -27.5398   21.2197 H   0  0  0  0  0  0
  -28.5709  -26.7426   22.1175 H   0  0  0  0  0  0
  -32.6542  -19.2068   22.7690 H   0  0  0  0  0  0
  -33.6918  -23.5258   20.6912 H   0  0  0  0  0  0
  1 25  1  0  0  0
  1 30  2  0  0  0
  1 91  1  0  0  0
  2  3  1  0  0  0
  2 25  1  0  0  0
  2 94  1  0  0  0
  2 95  1  0  0  0
  3  4  1  0  0  0
  3 96  1  0  0  0
  3 97  1  0  0  0
  4  5  1  0  0  0
  4 98  1  0  0  0
  4 99  1  0  0  0
  5  6  1  0  0  0
  5 26  1  0  0  0
  5100  1  0  0  0
  6 25  1  0  0  0
  6101  1  0  0  0
  6102  1  0  0  0
  7  8  2  0  0  0
  7 26  1  0  0  0
  7 29  1  0  0  0
  8  9  1  0  0  0
  8 22  1  0  0  0
  9 10  1  0  0  0
  9 27  2  0  0  0
 10 11  2  0  0  0
 10 15  1  0  0  0
 11 12  1  0  0  0
 11103  1  0  0  0
 12 13  2  0  0  0
 12104  1  0  0  0
 13 14  1  0  0  0
 13 31  1  0  0  0
 14 15  2  0  0  0
 14105  1  0  0  0
 15106  1  0  0  0
 16 17  2  0  0  0
 16 21  1  0  0  0
 16 31  1  0  0  0
 17 18  1  0  0  0
 17107  1  0  0  0
 18 19  2  0  0  0
 18108  1  0  0  0
 19 20  1  0  0  0
 19 24  1  0  0  0
 20 21  2  0  0  0
 20109  1  0  0  0
 21 23  1  0  0  0
 22 28  1  0  0  0
 22 32  2  0  0  0
 26 27  1  0  0  0
 28110  1  0  0  0
 28111  1  0  0  0
 29112  1  0  0  0
 29113  1  0  0  0
 33 34  1  0  0  0
 33 66  1  0  0  0
 33 70  2  0  0  0
 34 36  1  0  0  0
 34 59  1  0  0  0
 34114  1  0  0  0
 35 44  2  0  0  0
 35 45  1  0  0  0
 35 68  1  0  0  0
 36 56  1  0  0  0
 36115  1  0  0  0
 37 39  1  0  0  0
 37 47  1  0  0  0
 37 66  1  0  0  0
 37116  1  0  0  0
 38 43  2  0  0  0
 38 46  1  0  0  0
 38 47  1  0  0  0
 39 64  1  0  0  0
 39 67  2  0  0  0
 40 52  1  0  0  0
 40 53  2  0  0  0
 40 58  1  0  0  0
 41117  1  0  0  0
 41118  1  0  0  0
 41119  1  0  0  0
 41 48  1  0  0  0
 42 43  1  0  0  0
 42 66  1  0  0  0
 42120  1  0  0  0
 42121  1  0  0  0
 43 44  1  0  0  0
 44122  1  0  0  0
 45 46  2  0  0  0
 45123  1  0  0  0
 46124  1  0  0  0
 47125  1  0  0  0
 47126  1  0  0  0
 48 56  1  0  0  0
 48 65  1  0  0  0
 48127  1  0  0  0
 49 50  1  0  0  0
 49 53  1  0  0  0
 49 64  1  0  0  0
 49128  1  0  0  0
 50 51  1  0  0  0
 50129  1  0  0  0
 50130  1  0  0  0
 51 52  1  0  0  0
 51131  1  0  0  0
 51132  1  0  0  0
 52133  1  0  0  0
 52134  1  0  0  0
 53 54  1  0  0  0
 54 55  2  0  0  0
 54135  1  0  0  0
 55 57  1  0  0  0
 55136  1  0  0  0
 56 69  2  0  0  0
 57 58  2  0  0  0
 57137  1  0  0  0
 58138  1  0  0  0
 59 60  1  0  0  0
 59 61  1  0  0  0
 59 62  1  0  0  0
 60139  1  0  0  0
 60140  1  0  0  0
 60141  1  0  0  0
 61142  1  0  0  0
 61143  1  0  0  0
 61144  1  0  0  0
 62145  1  0  0  0
 62146  1  0  0  0
 62147  1  0  0  0
 63 65  1  0  0  0
 63148  1  0  0  0
 63149  1  0  0  0
 63150  1  0  0  0
 64151  1  0  0  0
 65152  1  0  0  0
 68 90  1  0  0  0
 71 72  2  0  0  0
 71 74  1  0  0  0
 71153  1  0  0  0
 72 75  1  0  0  0
 72154  1  0  0  0
 73 75  2  0  0  0
 73 76  1  0  0  0
 73155  1  0  0  0
 74 76  2  0  0  0
 74 84  1  0  0  0
 75 90  1  0  0  0
 76 87  1  0  0  0
 77 80  1  0  0  0
 77156  1  0  0  0
 77157  1  0  0  0
 77 85  1  0  0  0
 78 81  1  0  0  0
 78 85  1  0  0  0
 78158  1  0  0  0
 78159  1  0  0  0
 79 82  1  0  0  0
 79160  1  0  0  0
 79161  1  0  0  0
 79 86  1  0  0  0
 80 91  1  0  0  0
 80162  1  0  0  0
 80163  1  0  0  0
 81 91  1  0  0  0
 81164  1  0  0  0
 81165  1  0  0  0
 82166  1  0  0  0
 82167  1  0  0  0
 82 92  1  0  0  0
 83 84  1  0  0  0
 83 92  1  0  0  0
 83168  1  0  0  0
 83169  1  0  0  0
 84 86  1  0  0  0
 84170  1  0  0  0
 85 92  1  0  0  0
 85171  1  0  0  0
 86 93  1  0  0  0
 86172  1  0  0  0
 87173  1  0  0  0
 87174  1  0  0  0
 87175  1  0  0  0
 88176  1  0  0  0
 88177  1  0  0  0
 88178  1  0  0  0
 88 93  1  0  0  0
 89 93  1  0  0  0
 89179  1  0  0  0
 89180  1  0  0  0
 89181  1  0  0  0
 90182  1  0  0  0
 90183  1  0  0  0
 92184  1  0  0  0
 93185  1  0  0  0
M  CHG  2  92   1  93   1
M  ISO  4   1 100  68 101  90 101  91 100
M  END
> <chiral flag>
0

> <version>
0

> <s_m_source_file>
/data/baiqing/PycharmProjects/Reinvent-master-3.2/result/LINK_invent/BTK/process_docking_weight1_custom_sum_contain_oxygen_bond_distance_aromatic_linkinvent_7_9_3/rearranged_h_0155.sdf

> <i_m_source_file_index>
71

> <r_mmod_Potential_Energy-OPLS-2005>
-16.9726467132568

> <r_mmod_Stretch_Energy-OPLS-2005>
42.4032287597656

> <r_mmod_Bend_Energy-OPLS-2005>
110.510444641113

> <r_mmod_Torsional_Energy-OPLS-2005>
385.951416015625

> <r_mmod_Improper_Torsional_Energy-OPLS-2005>
4.35851335525513

> <r_mmod_Van_der_Waal_Energy-OPLS-2005>
163.996185302734

> <r_mmod_Electrostatic_Energy-OPLS-2005>
179.411575317383

> <r_mmod_Solvation_Energy-OPLS-2005>
-910.365112304688

> <b_mmod_Minimization_Converged-OPLS-2005>
0

> <r_mmod_RMS_Derivative-OPLS-2005>
2.47355389595032

$$$$
71
                    3D
 Structure written by MMmdl.
168177  0  0  1  0            999 V2000
  -30.7223  -14.6547   20.4856 C   0  0  0  0  0  0
  -30.4146  -12.4081   19.4678 C   0  0  0  0  0  0
  -29.5010  -12.4881   18.2280 C   0  0  0  0  0  0
  -28.0281  -12.3177   18.6430 C   0  0  0  0  0  0
  -27.6364  -13.2172   19.8455 C   0  0  2  0  0  0
  -28.6884  -13.1780   20.9808 C   0  0  0  0  0  0
  -25.2511  -13.8156   20.5731 C   0  0  0  0  0  0
  -24.1782  -13.0432   20.9213 C   0  0  0  0  0  0
  -24.6347  -11.6898   20.8739 C   0  0  0  0  0  0
  -23.9002  -10.4304   21.0399 C   0  0  0  0  0  0
  -24.3576   -9.4227   21.9168 C   0  0  0  0  0  0
  -23.6289   -8.2257   22.0745 C   0  0  0  0  0  0
  -22.4270   -8.0280   21.3549 C   0  0  0  0  0  0
  -21.9890   -9.0233   20.4644 C   0  0  0  0  0  0
  -22.7188  -10.2137   20.3041 C   0  0  0  0  0  0
  -21.6861   -6.0720   22.5267 C   0  0  0  0  0  0
  -21.3992   -6.5619   23.8196 C   0  0  0  0  0  0
  -21.3644   -5.6765   24.9154 C   0  0  0  0  0  0
  -21.6055   -4.3031   24.7213 C   0  0  0  0  0  0
  -21.8846   -3.8134   23.4335 C   0  0  0  0  0  0
  -21.9223   -4.6954   22.3390 C   0  0  0  0  0  0
  -22.7815  -13.5248   21.1841 C   0  0  0  0  0  0
  -22.1710   -4.2135   21.0976 F   0  0  0  0  0  0
  -21.5623   -3.4517   25.7727 F   0  0  0  0  0  0
  -30.0014  -13.4840   20.3972 N   0  0  0  0  0  0
  -26.2912  -12.9322   20.3292 N   0  0  0  0  0  0
  -25.9266  -11.6480   20.5746 N   0  0  0  0  0  0
  -22.0424  -12.8263   22.0396 N   0  0  0  0  0  0
  -25.4239  -15.1879   20.4186 N   0  0  0  0  0  0
  -31.9049  -14.6665   20.1336 O   0  0  0  0  0  0
  -21.6656   -6.8863   21.4234 O   0  0  0  0  0  0
  -22.3530  -14.5550   20.6659 O   0  0  0  0  0  0
  -24.6265  -31.8597   23.2050 C   0  0  0  0  0  0
  -25.9125  -32.4758   23.8357 C   0  0  1  0  0  0
  -27.2150  -27.3268   20.1064 C   0  0  0  0  0  0
  -25.5980  -33.8562   24.2308 N   0  0  0  0  0  0
  -23.4196  -30.4870   21.5453 C   0  0  2  0  0  0
  -24.8634  -28.9479   20.1069 C   0  0  0  0  0  0
  -22.7486  -29.4606   22.4907 C   0  0  0  0  0  0
  -18.0284  -28.1389   22.8480 C   0  0  0  0  0  0
  -24.1480  -36.7248   23.2636 C   0  0  0  0  0  0
  -25.9603  -30.7933   21.3762 C   0  0  0  0  0  0
  -26.0315  -29.4223   20.7161 C   0  0  0  0  0  0
  -27.2099  -28.6210   20.7115 C   0  0  0  0  0  0
  -26.0269  -26.9121   19.4624 C   0  0  0  0  0  0
  -24.8626  -27.6991   19.4702 C   0  0  0  0  0  0
  -23.6349  -29.8298   20.1578 C   0  0  0  0  0  0
  -25.4097  -36.3058   24.0353 C   0  0  1  0  0  0
  -20.5888  -28.3673   23.1296 C   0  0  2  0  0  0
  -20.6764  -26.9402   22.5419 C   0  0  0  0  0  0
  -19.5754  -26.6393   21.5208 C   0  0  0  0  0  0
  -18.1924  -26.7941   22.1604 C   0  0  0  0  0  0
  -19.1539  -28.8846   23.2880 C   0  0  0  0  0  0
  -18.9460  -30.1450   23.8888 C   0  0  0  0  0  0
  -17.6464  -30.6590   24.0562 C   0  0  0  0  0  0
  -25.9052  -34.9440   23.5113 C   0  0  0  0  0  0
  -16.5351  -29.9091   23.6342 C   0  0  0  0  0  0
  -16.7273  -28.6517   23.0346 C   0  0  0  0  0  0
  -26.4536  -31.6551   25.0707 C   0  0  0  0  0  0
  -25.3794  -31.3697   26.1462 C   0  0  0  0  0  0
  -27.0354  -30.2970   24.6128 C   0  0  0  0  0  0
  -27.6117  -32.4254   25.7475 C   0  0  0  0  0  0
  -27.5584  -37.1757   24.8453 C   0  0  0  0  0  0
  -21.4195  -29.3029   22.3685 N   0  0  0  0  0  0
  -26.4251  -37.3775   23.9457 N   0  0  0  0  0  0
  -24.6871  -31.0629   22.0984 N   0  0  0  0  0  0
  -23.4217  -28.8140   23.2972 O   0  0  0  0  0  0
  -28.3261  -26.4758   20.1647 O   0  0  0  0  0  0
  -26.5577  -34.8925   22.4655 O   0  0  0  0  0  0
  -23.5433  -32.1371   23.7401 O   0  0  0  0  0  0
  -29.0029  -22.5802   20.1999 C   0  0  0  0  0  0
  -31.0847  -23.3399   21.8699 C   0  0  0  0  0  0
  -29.1288  -23.9746   20.5431 C   0  0  0  0  0  0
  -29.8986  -21.5590   20.6750 C   0  0  0  0  0  0
  -30.1822  -24.3269   21.4223 C   0  0  0  0  0  0
  -30.9769  -21.9758   21.4910 C   0  0  0  0  0  0
  -30.2822  -18.1406   22.0821 C   0  0  0  0  0  0
  -28.4727  -17.7625   20.4364 C   0  0  0  0  0  0
  -31.0046  -16.8938   21.4619 C   0  0  0  0  0  0
  -29.3467  -16.6127   19.8336 C   0  0  0  0  0  0
  -29.2606  -18.8953   21.1720 C   0  0  0  0  0  0
  -30.3830  -25.7508   21.9150 C   0  0  0  0  0  0
  -33.0950  -21.4686   22.5121 C   0  0  0  0  0  0
  -29.8059  -20.0516   20.2093 C   0  0  0  0  0  0
  -28.0915  -25.0242   20.0086 C   0  0  0  0  0  0
  -30.1250  -15.8545   20.8451 N   0  0  0  0  0  0
  -28.3147  -19.5347   22.0132 O   0  0  0  0  0  0
  -31.9046  -21.0286   21.8672 O   0  0  0  0  0  0
  -31.4611  -12.4799   19.1665 H   0  0  0  0  0  0
  -30.3204  -11.4368   19.9555 H   0  0  0  0  0  0
  -29.7786  -11.7157   17.5089 H   0  0  0  0  0  0
  -29.6380  -13.4476   17.7217 H   0  0  0  0  0  0
  -27.8840  -11.2682   18.9046 H   0  0  0  0  0  0
  -27.3697  -12.5115   17.7954 H   0  0  0  0  0  0
  -27.6038  -14.2239   19.4450 H   0  0  0  0  0  0
  -28.7050  -12.1941   21.4506 H   0  0  0  0  0  0
  -28.4312  -13.8910   21.7651 H   0  0  0  0  0  0
  -25.2731   -9.5753   22.4698 H   0  0  0  0  0  0
  -24.0038   -7.4659   22.7466 H   0  0  0  0  0  0
  -21.0823   -8.8723   19.8949 H   0  0  0  0  0  0
  -22.3626  -10.9648   19.6131 H   0  0  0  0  0  0
  -21.1938   -7.6115   23.9688 H   0  0  0  0  0  0
  -21.1423   -6.0482   25.9053 H   0  0  0  0  0  0
  -22.0634   -2.7598   23.2812 H   0  0  0  0  0  0
  -22.4036  -11.9962   22.4832 H   0  0  0  0  0  0
  -21.1021  -13.1297   22.2509 H   0  0  0  0  0  0
  -24.6614  -15.8447   20.5412 H   0  0  0  0  0  0
  -26.2847  -15.6283   20.1236 H   0  0  0  0  0  0
  -26.7173  -32.5444   23.1090 H   0  0  0  0  0  0
  -25.0264  -33.9692   25.0545 H   0  0  0  0  0  0
  -22.7123  -31.3066   21.4056 H   0  0  0  0  0  0
  -23.3786  -35.9532   23.3234 H   0  0  0  0  0  0
  -24.3593  -36.8910   22.2059 H   0  0  0  0  0  0
  -23.7164  -37.6415   23.6672 H   0  0  0  0  0  0
  -26.0930  -31.5592   20.6102 H   0  0  0  0  0  0
  -26.8414  -30.8370   22.0053 H   0  0  0  0  0  0
  -28.1052  -28.9719   21.2051 H   0  0  0  0  0  0
  -25.9687  -25.9647   18.9470 H   0  0  0  0  0  0
  -23.9701  -27.3399   18.9763 H   0  0  0  0  0  0
  -23.7624  -30.6073   19.4038 H   0  0  0  0  0  0
  -22.7546  -29.2639   19.8490 H   0  0  0  0  0  0
  -25.1257  -36.1888   25.0838 H   0  0  0  0  0  0
  -20.9981  -28.3230   24.1418 H   0  0  0  0  0  0
  -20.5666  -26.2270   23.3600 H   0  0  0  0  0  0
  -21.6632  -26.7420   22.1225 H   0  0  0  0  0  0
  -19.6914  -25.6305   21.1238 H   0  0  0  0  0  0
  -19.6731  -27.3193   20.6733 H   0  0  0  0  0  0
  -17.4216  -26.6707   21.3982 H   0  0  0  0  0  0
  -18.0301  -26.0079   22.8992 H   0  0  0  0  0  0
  -19.7930  -30.7255   24.2267 H   0  0  0  0  0  0
  -17.5025  -31.6269   24.5175 H   0  0  0  0  0  0
  -15.5350  -30.2989   23.7691 H   0  0  0  0  0  0
  -15.8672  -28.0859   22.7034 H   0  0  0  0  0  0
  -24.5965  -30.7035   25.7823 H   0  0  0  0  0  0
  -24.9001  -32.2870   26.4887 H   0  0  0  0  0  0
  -25.8165  -30.8897   27.0227 H   0  0  0  0  0  0
  -26.2885  -29.6706   24.1235 H   0  0  0  0  0  0
  -27.4144  -29.7234   25.4592 H   0  0  0  0  0  0
  -27.8739  -30.4239   23.9273 H   0  0  0  0  0  0
  -27.2770  -33.3580   26.2028 H   0  0  0  0  0  0
  -28.3976  -32.6742   25.0329 H   0  0  0  0  0  0
  -28.0741  -31.8370   26.5410 H   0  0  0  0  0  0
  -28.2526  -38.0125   24.7604 H   0  0  0  0  0  0
  -28.1148  -36.2658   24.6129 H   0  0  0  0  0  0
  -27.2341  -37.1232   25.8861 H   0  0  0  0  0  0
  -20.9360  -29.8769   21.6919 H   0  0  0  0  0  0
  -26.0126  -38.2835   24.1545 H   0  0  0  0  0  0
  -28.2007  -22.2868   19.5367 H   0  0  0  0  0  0
  -31.8810  -23.6674   22.5213 H   0  0  0  0  0  0
  -31.0246  -18.8369   22.4720 H   0  0  0  0  0  0
  -29.7630  -17.7719   22.9675 H   0  0  0  0  0  0
  -27.7787  -17.2931   21.1363 H   0  0  0  0  0  0
  -27.8403  -18.1951   19.6592 H   0  0  0  0  0  0
  -31.6103  -16.4296   22.2421 H   0  0  0  0  0  0
  -31.7193  -17.2462   20.7162 H   0  0  0  0  0  0
  -30.0292  -17.0336   19.0925 H   0  0  0  0  0  0
  -28.7117  -15.9451   19.2632 H   0  0  0  0  0  0
  -31.1895  -25.8249   22.6443 H   0  0  0  0  0  0
  -29.4745  -26.1144   22.3955 H   0  0  0  0  0  0
  -30.6337  -26.4125   21.0859 H   0  0  0  0  0  0
  -33.7830  -20.6310   22.6271 H   0  0  0  0  0  0
  -32.8856  -21.8614   23.5083 H   0  0  0  0  0  0
  -33.6103  -22.2327   21.9269 H   0  0  0  0  0  0
  -30.7858  -19.7493   19.8374 H   0  0  0  0  0  0
  -29.1808  -20.0618   19.3171 H   0  0  0  0  0  0
  -27.1549  -24.7544   20.5004 H   0  0  0  0  0  0
  -27.9568  -24.8199   18.9451 H   0  0  0  0  0  0
  -28.0231  -18.9114   22.6677 H   0  0  0  0  0  0
  1 25  1  0  0  0
  1 30  2  0  0  0
  1 86  1  0  0  0
  2  3  1  0  0  0
  2 25  1  0  0  0
  2 89  1  0  0  0
  2 90  1  0  0  0
  3  4  1  0  0  0
  3 91  1  0  0  0
  3 92  1  0  0  0
  4  5  1  0  0  0
  4 93  1  0  0  0
  4 94  1  0  0  0
  5  6  1  0  0  0
  5 26  1  0  0  0
  5 95  1  0  0  0
  6 25  1  0  0  0
  6 96  1  0  0  0
  6 97  1  0  0  0
  7  8  2  0  0  0
  7 26  1  0  0  0
  7 29  1  0  0  0
  8  9  1  0  0  0
  8 22  1  0  0  0
  9 10  1  0  0  0
  9 27  2  0  0  0
 10 11  2  0  0  0
 10 15  1  0  0  0
 11 12  1  0  0  0
 11 98  1  0  0  0
 12 13  2  0  0  0
 12 99  1  0  0  0
 13 14  1  0  0  0
 13 31  1  0  0  0
 14 15  2  0  0  0
 14100  1  0  0  0
 15101  1  0  0  0
 16 17  2  0  0  0
 16 21  1  0  0  0
 16 31  1  0  0  0
 17 18  1  0  0  0
 17102  1  0  0  0
 18 19  2  0  0  0
 18103  1  0  0  0
 19 20  1  0  0  0
 19 24  1  0  0  0
 20 21  2  0  0  0
 20104  1  0  0  0
 21 23  1  0  0  0
 22 28  1  0  0  0
 22 32  2  0  0  0
 26 27  1  0  0  0
 28105  1  0  0  0
 28106  1  0  0  0
 29107  1  0  0  0
 29108  1  0  0  0
 33 34  1  0  0  0
 33 66  1  0  0  0
 33 70  2  0  0  0
 34 36  1  0  0  0
 34 59  1  0  0  0
 34109  1  0  0  0
 35 44  2  0  0  0
 35 45  1  0  0  0
 35 68  1  0  0  0
 36 56  1  0  0  0
 36110  1  0  0  0
 37 39  1  0  0  0
 37 47  1  0  0  0
 37 66  1  0  0  0
 37111  1  0  0  0
 38 43  2  0  0  0
 38 46  1  0  0  0
 38 47  1  0  0  0
 39 64  1  0  0  0
 39 67  2  0  0  0
 40 52  1  0  0  0
 40 53  2  0  0  0
 40 58  1  0  0  0
 41112  1  0  0  0
 41113  1  0  0  0
 41114  1  0  0  0
 41 48  1  0  0  0
 42 43  1  0  0  0
 42 66  1  0  0  0
 42115  1  0  0  0
 42116  1  0  0  0
 43 44  1  0  0  0
 44117  1  0  0  0
 45 46  2  0  0  0
 45118  1  0  0  0
 46119  1  0  0  0
 47120  1  0  0  0
 47121  1  0  0  0
 48 56  1  0  0  0
 48 65  1  0  0  0
 48122  1  0  0  0
 49 50  1  0  0  0
 49 53  1  0  0  0
 49 64  1  0  0  0
 49123  1  0  0  0
 50 51  1  0  0  0
 50124  1  0  0  0
 50125  1  0  0  0
 51 52  1  0  0  0
 51126  1  0  0  0
 51127  1  0  0  0
 52128  1  0  0  0
 52129  1  0  0  0
 53 54  1  0  0  0
 54 55  2  0  0  0
 54130  1  0  0  0
 55 57  1  0  0  0
 55131  1  0  0  0
 56 69  2  0  0  0
 57 58  2  0  0  0
 57132  1  0  0  0
 58133  1  0  0  0
 59 60  1  0  0  0
 59 61  1  0  0  0
 59 62  1  0  0  0
 60134  1  0  0  0
 60135  1  0  0  0
 60136  1  0  0  0
 61137  1  0  0  0
 61138  1  0  0  0
 61139  1  0  0  0
 62140  1  0  0  0
 62141  1  0  0  0
 62142  1  0  0  0
 63 65  1  0  0  0
 63143  1  0  0  0
 63144  1  0  0  0
 63145  1  0  0  0
 64146  1  0  0  0
 65147  1  0  0  0
 68 85  1  0  0  0
 71 73  2  0  0  0
 71 74  1  0  0  0
 71148  1  0  0  0
 72 75  2  0  0  0
 72 76  1  0  0  0
 72149  1  0  0  0
 73 75  1  0  0  0
 73 85  1  0  0  0
 74 76  2  0  0  0
 74 84  1  0  0  0
 75 82  1  0  0  0
 76 88  1  0  0  0
 77 79  1  0  0  0
 77 81  1  0  0  0
 77150  1  0  0  0
 77151  1  0  0  0
 78 80  1  0  0  0
 78 81  1  0  0  0
 78152  1  0  0  0
 78153  1  0  0  0
 79 86  1  0  0  0
 79154  1  0  0  0
 79155  1  0  0  0
 80 86  1  0  0  0
 80156  1  0  0  0
 80157  1  0  0  0
 81 84  1  0  0  0
 81 87  1  0  0  0
 82158  1  0  0  0
 82159  1  0  0  0
 82160  1  0  0  0
 83 88  1  0  0  0
 83161  1  0  0  0
 83162  1  0  0  0
 83163  1  0  0  0
 84164  1  0  0  0
 84165  1  0  0  0
 85166  1  0  0  0
 85167  1  0  0  0
 87168  1  0  0  0
M  ISO  4   1 100  68 101  85 101  86 100
M  END
> <chiral flag>
0

> <version>
0

> <s_m_source_file>
/data/baiqing/PycharmProjects/Reinvent-master-3.2/result/LINK_invent/BTK/process_docking_weight1_custom_sum_contain_oxygen_bond_distance_aromatic_linkinvent_7_9_3/rearranged_h_0155.sdf

> <i_m_source_file_index>
72

> <r_mmod_Potential_Energy-OPLS-2005>
311.779846191406

> <r_mmod_Stretch_Energy-OPLS-2005>
86.1443557739258

> <r_mmod_Bend_Energy-OPLS-2005>
168.696502685547

> <r_mmod_Torsional_Energy-OPLS-2005>
335.161682128906

> <r_mmod_Improper_Torsional_Energy-OPLS-2005>
8.31737518310547

> <r_mmod_Van_der_Waal_Energy-OPLS-2005>
165.287704467773

> <r_mmod_Electrostatic_Energy-OPLS-2005>
-292.664215087891

> <r_mmod_Solvation_Energy-OPLS-2005>
-216.021774291992

> <b_mmod_Minimization_Converged-OPLS-2005>
0

> <r_mmod_RMS_Derivative-OPLS-2005>
3.04305219650269

$$$$
72
                    3D
 Structure written by MMmdl.
179188  0  0  1  0            999 V2000
  -30.7881  -14.3064   20.7113 C   0  0  0  0  0  0
  -30.4113  -12.2677   19.3826 C   0  0  0  0  0  0
  -29.4793  -12.5287   18.1863 C   0  0  0  0  0  0
  -28.0044  -12.3859   18.6040 C   0  0  0  0  0  0
  -27.6680  -13.1991   19.8808 C   0  0  2  0  0  0
  -28.7025  -12.9195   20.9928 C   0  0  0  0  0  0
  -25.2610  -13.8152   20.5664 C   0  0  0  0  0  0
  -24.1847  -13.0439   20.9150 C   0  0  0  0  0  0
  -24.6388  -11.6901   20.8713 C   0  0  0  0  0  0
  -23.9051  -10.4290   21.0395 C   0  0  0  0  0  0
  -24.3609   -9.4210   21.9177 C   0  0  0  0  0  0
  -23.6286   -8.2245   22.0754 C   0  0  0  0  0  0
  -22.4269   -8.0279   21.3546 C   0  0  0  0  0  0
  -21.9898   -9.0251   20.4648 C   0  0  0  0  0  0
  -22.7223  -10.2130   20.3050 C   0  0  0  0  0  0
  -21.6854   -6.0733   22.5280 C   0  0  0  0  0  0
  -21.4015   -6.5638   23.8212 C   0  0  0  0  0  0
  -21.3657   -5.6792   24.9175 C   0  0  0  0  0  0
  -21.6046   -4.3055   24.7226 C   0  0  0  0  0  0
  -21.8819   -3.8145   23.4347 C   0  0  0  0  0  0
  -21.9192   -4.6961   22.3404 C   0  0  0  0  0  0
  -22.7871  -13.5243   21.1826 C   0  0  0  0  0  0
  -22.1661   -4.2147   21.0981 F   0  0  0  0  0  0
  -21.5627   -3.4539   25.7739 F   0  0  0  0  0  0
  -30.0523  -13.1958   20.4630 N   0  0  0  0  0  0
  -26.3048  -12.9311   20.3374 N   0  0  0  0  0  0
  -25.9310  -11.6473   20.5745 N   0  0  0  0  0  0
  -22.0514  -12.8242   22.0389 N   0  0  0  0  0  0
  -25.4352  -15.1867   20.4092 N   0  0  0  0  0  0
  -31.7867  -14.6218   20.0579 O   0  0  0  0  0  0
  -21.6638   -6.8875   21.4242 O   0  0  0  0  0  0
  -22.3559  -14.5555   20.6686 O   0  0  0  0  0  0
  -24.6078  -31.8710   23.2132 C   0  0  0  0  0  0
  -25.8990  -32.4839   23.8416 C   0  0  1  0  0  0
  -27.2440  -27.4953   20.0987 C   0  0  0  0  0  0
  -25.5860  -33.8636   24.2353 N   0  0  0  0  0  0
  -23.3932  -30.4947   21.5510 C   0  0  2  0  0  0
  -24.8445  -28.9653   20.1140 C   0  0  0  0  0  0
  -22.7374  -29.4677   22.5005 C   0  0  0  0  0  0
  -18.0269  -28.1381   22.8493 C   0  0  0  0  0  0
  -24.1483  -36.7334   23.2645 C   0  0  0  0  0  0
  -25.9135  -30.8602   21.3533 C   0  0  0  0  0  0
  -25.9973  -29.4980   20.7043 C   0  0  0  0  0  0
  -27.2039  -28.7739   20.6885 C   0  0  0  0  0  0
  -26.0845  -26.9655   19.4974 C   0  0  0  0  0  0
  -24.8795  -27.6960   19.5069 C   0  0  0  0  0  0
  -23.5995  -29.8217   20.1658 C   0  0  0  0  0  0
  -25.4099  -36.3125   24.0349 C   0  0  1  0  0  0
  -20.5853  -28.3653   23.1338 C   0  0  2  0  0  0
  -20.6760  -26.9396   22.5424 C   0  0  0  0  0  0
  -19.5745  -26.6391   21.5212 C   0  0  0  0  0  0
  -18.1921  -26.7932   22.1622 C   0  0  0  0  0  0
  -19.1516  -28.8830   23.2918 C   0  0  0  0  0  0
  -18.9452  -30.1442   23.8921 C   0  0  0  0  0  0
  -17.6456  -30.6586   24.0569 C   0  0  0  0  0  0
  -25.9017  -34.9486   23.5151 C   0  0  0  0  0  0
  -16.5346  -29.9094   23.6330 C   0  0  0  0  0  0
  -16.7261  -28.6512   23.0342 C   0  0  0  0  0  0
  -26.4451  -31.6594   25.0710 C   0  0  0  0  0  0
  -25.3748  -31.3683   26.1482 C   0  0  0  0  0  0
  -27.0278  -30.3052   24.6027 C   0  0  0  0  0  0
  -27.6040  -32.4305   25.7457 C   0  0  0  0  0  0
  -27.5586  -37.1816   24.8464 C   0  0  0  0  0  0
  -21.4107  -29.3025   22.3742 N   0  0  0  0  0  0
  -26.4292  -37.3801   23.9415 N   0  0  0  0  0  0
  -24.6562  -31.0877   22.0994 N   0  0  0  0  0  0
  -23.4174  -28.8224   23.3026 O   0  0  0  0  0  0
  -28.4013  -26.7628   20.0801 O   0  0  0  0  0  0
  -26.5581  -34.8924   22.4714 O   0  0  0  0  0  0
  -23.5290  -32.1422   23.7583 O   0  0  0  0  0  0
  -30.7959  -21.1389   22.2215 C   0  0  0  0  0  0
  -32.8355  -20.3506   21.1683 C   0  0  0  0  0  0
  -32.0764  -21.4081   21.6973 C   0  0  0  0  0  0
  -30.2402  -19.8497   22.1656 C   0  0  0  0  0  0
  -30.9594  -18.8043   21.5226 C   0  0  0  0  0  0
  -32.2881  -19.0474   21.0749 C   0  0  0  0  0  0
  -31.8364  -23.4107   20.2840 C   0  0  0  0  0  0
  -32.3822  -23.6880   22.8475 C   0  0  0  0  0  0
  -31.6923  -24.9295   20.2545 C   0  0  0  0  0  0
  -32.1642  -25.1953   22.6171 C   0  0  0  0  0  0
  -32.5561  -22.8476   21.5413 C   0  0  1  0  0  0
  -28.8619  -19.6649   22.7827 C   0  0  0  0  0  0
  -28.0128  -26.4460   22.5950 C   0  0  0  0  0  0
  -34.3266  -18.1902   20.1072 C   0  0  0  0  0  0
  -30.9228  -16.3193   22.1307 C   0  0  0  0  0  0
  -30.3444  -26.5892   21.5350 C   0  0  0  0  0  0
  -28.8587  -26.2099   21.3234 C   0  0  2  0  0  0
  -30.3373  -17.4300   21.2345 C   0  0  0  0  0  0
  -30.3822  -15.0181   21.7633 N   0  0  0  0  0  0
  -31.1460  -25.3463   21.5583 N   0  3  1  0  0  0
  -32.9841  -17.9885   20.5294 O   0  0  0  0  0  0
  -29.0132  -17.3993   21.3835 F   0  0  0  0  0  0
  -30.5463  -17.1691   19.9424 F   0  0  0  0  0  0
  -31.4549  -12.3639   19.0773 H   0  0  0  0  0  0
  -30.3017  -11.2397   19.7318 H   0  0  0  0  0  0
  -29.7058  -11.8363   17.3746 H   0  0  0  0  0  0
  -29.6556  -13.5309   17.7925 H   0  0  0  0  0  0
  -27.8069  -11.3271   18.7756 H   0  0  0  0  0  0
  -27.3509  -12.6865   17.7842 H   0  0  0  0  0  0
  -27.7338  -14.2558   19.6204 H   0  0  0  0  0  0
  -28.6515  -11.8732   21.2978 H   0  0  0  0  0  0
  -28.4490  -13.4890   21.8867 H   0  0  0  0  0  0
  -25.2757   -9.5690   22.4745 H   0  0  0  0  0  0
  -23.9999   -7.4640   22.7473 H   0  0  0  0  0  0
  -21.0828   -8.8765   19.8955 H   0  0  0  0  0  0
  -22.3680  -10.9667   19.6155 H   0  0  0  0  0  0
  -21.2008   -7.6147   23.9716 H   0  0  0  0  0  0
  -21.1479   -6.0522   25.9079 H   0  0  0  0  0  0
  -22.0600   -2.7606   23.2850 H   0  0  0  0  0  0
  -22.4122  -11.9895   22.4769 H   0  0  0  0  0  0
  -21.1137  -13.1281   22.2604 H   0  0  0  0  0  0
  -24.6748  -15.8474   20.5258 H   0  0  0  0  0  0
  -26.3011  -15.6258   20.1216 H   0  0  0  0  0  0
  -26.7066  -32.5577   23.1197 H   0  0  0  0  0  0
  -24.9992  -33.9803   25.0489 H   0  0  0  0  0  0
  -22.6796  -31.3101   21.4124 H   0  0  0  0  0  0
  -23.3728  -35.9686   23.3308 H   0  0  0  0  0  0
  -24.3587  -36.8938   22.2060 H   0  0  0  0  0  0
  -23.7253  -37.6555   23.6642 H   0  0  0  0  0  0
  -26.0105  -31.6291   20.5859 H   0  0  0  0  0  0
  -26.8068  -30.9215   21.9629 H   0  0  0  0  0  0
  -28.0973  -29.1896   21.1329 H   0  0  0  0  0  0
  -26.1141  -25.9893   19.0336 H   0  0  0  0  0  0
  -23.9924  -27.2808   19.0481 H   0  0  0  0  0  0
  -23.6987  -30.5945   19.4029 H   0  0  0  0  0  0
  -22.7280  -29.2334   19.8747 H   0  0  0  0  0  0
  -25.1274  -36.1998   25.0842 H   0  0  0  0  0  0
  -20.9948  -28.3213   24.1457 H   0  0  0  0  0  0
  -20.5667  -26.2254   23.3601 H   0  0  0  0  0  0
  -21.6636  -26.7454   22.1213 H   0  0  0  0  0  0
  -19.6910  -25.6309   21.1228 H   0  0  0  0  0  0
  -19.6698  -27.3213   20.6751 H   0  0  0  0  0  0
  -17.4197  -26.6683   21.4019 H   0  0  0  0  0  0
  -18.0320  -26.0068   22.9011 H   0  0  0  0  0  0
  -19.7931  -30.7249   24.2295 H   0  0  0  0  0  0
  -17.5021  -31.6268   24.5168 H   0  0  0  0  0  0
  -15.5354  -30.3006   23.7648 H   0  0  0  0  0  0
  -15.8655  -28.0850   22.7035 H   0  0  0  0  0  0
  -24.5904  -30.7043   25.7831 H   0  0  0  0  0  0
  -24.8955  -32.2833   26.4972 H   0  0  0  0  0  0
  -25.8126  -30.8832   27.0214 H   0  0  0  0  0  0
  -26.2798  -29.6809   24.1120 H   0  0  0  0  0  0
  -27.4119  -29.7280   25.4451 H   0  0  0  0  0  0
  -27.8596  -30.4408   23.9106 H   0  0  0  0  0  0
  -27.2659  -33.3576   26.2094 H   0  0  0  0  0  0
  -28.3805  -32.6905   25.0253 H   0  0  0  0  0  0
  -28.0747  -31.8391   26.5315 H   0  0  0  0  0  0
  -28.2594  -38.0121   24.7506 H   0  0  0  0  0  0
  -28.1088  -36.2651   24.6277 H   0  0  0  0  0  0
  -27.2308  -37.1455   25.8869 H   0  0  0  0  0  0
  -20.9243  -29.8741   21.6974 H   0  0  0  0  0  0
  -26.0187  -38.2885   24.1414 H   0  0  0  0  0  0
  -30.1889  -21.9390   22.6186 H   0  0  0  0  0  0
  -33.8151  -20.5784   20.7747 H   0  0  0  0  0  0
  -32.3352  -23.0602   19.3797 H   0  0  0  0  0  0
  -30.8256  -23.0037   20.2236 H   0  0  0  0  0  0
  -31.5291  -23.3474   23.4297 H   0  0  0  0  0  0
  -33.2371  -23.5273   23.5056 H   0  0  0  0  0  0
  -31.0203  -25.2106   19.4420 H   0  0  0  0  0  0
  -32.6474  -25.4185   20.0568 H   0  0  0  0  0  0
  -33.0918  -25.6942   22.3334 H   0  0  0  0  0  0
  -31.8327  -25.6550   23.5491 H   0  0  0  0  0  0
  -33.6250  -22.8439   21.3208 H   0  0  0  0  0  0
  -28.6031  -20.4994   23.4357 H   0  0  0  0  0  0
  -28.8251  -18.7640   23.3957 H   0  0  0  0  0  0
  -28.0943  -19.6048   22.0105 H   0  0  0  0  0  0
  -28.4049  -25.8621   23.4280 H   0  0  0  0  0  0
  -26.9775  -26.1375   22.4500 H   0  0  0  0  0  0
  -28.0186  -27.4885   22.9090 H   0  0  0  0  0  0
  -34.7378  -17.2439   19.7561 H   0  0  0  0  0  0
  -34.9586  -18.5376   20.9257 H   0  0  0  0  0  0
  -34.3808  -18.8988   19.2799 H   0  0  0  0  0  0
  -30.6756  -16.5196   23.1734 H   0  0  0  0  0  0
  -32.0115  -16.2916   22.0788 H   0  0  0  0  0  0
  -30.4603  -27.1379   22.4709 H   0  0  0  0  0  0
  -30.7021  -27.2605   20.7526 H   0  0  0  0  0  0
  -28.7894  -25.1357   21.1423 H   0  0  0  0  0  0
  -29.5816  -14.6834   22.2760 H   0  0  0  0  0  0
  -30.4584  -24.6443   21.7877 H   0  0  0  0  0  0
  1 25  1  0  0  0
  1 30  2  0  0  0
  1 89  1  0  0  0
  2  3  1  0  0  0
  2 25  1  0  0  0
  2 94  1  0  0  0
  2 95  1  0  0  0
  3  4  1  0  0  0
  3 96  1  0  0  0
  3 97  1  0  0  0
  4  5  1  0  0  0
  4 98  1  0  0  0
  4 99  1  0  0  0
  5  6  1  0  0  0
  5 26  1  0  0  0
  5100  1  0  0  0
  6 25  1  0  0  0
  6101  1  0  0  0
  6102  1  0  0  0
  7  8  2  0  0  0
  7 26  1  0  0  0
  7 29  1  0  0  0
  8  9  1  0  0  0
  8 22  1  0  0  0
  9 10  1  0  0  0
  9 27  2  0  0  0
 10 11  2  0  0  0
 10 15  1  0  0  0
 11 12  1  0  0  0
 11103  1  0  0  0
 12 13  2  0  0  0
 12104  1  0  0  0
 13 14  1  0  0  0
 13 31  1  0  0  0
 14 15  2  0  0  0
 14105  1  0  0  0
 15106  1  0  0  0
 16 17  2  0  0  0
 16 21  1  0  0  0
 16 31  1  0  0  0
 17 18  1  0  0  0
 17107  1  0  0  0
 18 19  2  0  0  0
 18108  1  0  0  0
 19 20  1  0  0  0
 19 24  1  0  0  0
 20 21  2  0  0  0
 20109  1  0  0  0
 21 23  1  0  0  0
 22 28  1  0  0  0
 22 32  2  0  0  0
 26 27  1  0  0  0
 28110  1  0  0  0
 28111  1  0  0  0
 29112  1  0  0  0
 29113  1  0  0  0
 33 34  1  0  0  0
 33 66  1  0  0  0
 33 70  2  0  0  0
 34 36  1  0  0  0
 34 59  1  0  0  0
 34114  1  0  0  0
 35 44  2  0  0  0
 35 45  1  0  0  0
 35 68  1  0  0  0
 36 56  1  0  0  0
 36115  1  0  0  0
 37 39  1  0  0  0
 37 47  1  0  0  0
 37 66  1  0  0  0
 37116  1  0  0  0
 38 43  2  0  0  0
 38 46  1  0  0  0
 38 47  1  0  0  0
 39 64  1  0  0  0
 39 67  2  0  0  0
 40 52  1  0  0  0
 40 53  2  0  0  0
 40 58  1  0  0  0
 41117  1  0  0  0
 41118  1  0  0  0
 41119  1  0  0  0
 41 48  1  0  0  0
 42 43  1  0  0  0
 42 66  1  0  0  0
 42120  1  0  0  0
 42121  1  0  0  0
 43 44  1  0  0  0
 44122  1  0  0  0
 45 46  2  0  0  0
 45123  1  0  0  0
 46124  1  0  0  0
 47125  1  0  0  0
 47126  1  0  0  0
 48 56  1  0  0  0
 48 65  1  0  0  0
 48127  1  0  0  0
 49 50  1  0  0  0
 49 53  1  0  0  0
 49 64  1  0  0  0
 49128  1  0  0  0
 50 51  1  0  0  0
 50129  1  0  0  0
 50130  1  0  0  0
 51 52  1  0  0  0
 51131  1  0  0  0
 51132  1  0  0  0
 52133  1  0  0  0
 52134  1  0  0  0
 53 54  1  0  0  0
 54 55  2  0  0  0
 54135  1  0  0  0
 55 57  1  0  0  0
 55136  1  0  0  0
 56 69  2  0  0  0
 57 58  2  0  0  0
 57137  1  0  0  0
 58138  1  0  0  0
 59 60  1  0  0  0
 59 61  1  0  0  0
 59 62  1  0  0  0
 60139  1  0  0  0
 60140  1  0  0  0
 60141  1  0  0  0
 61142  1  0  0  0
 61143  1  0  0  0
 61144  1  0  0  0
 62145  1  0  0  0
 62146  1  0  0  0
 62147  1  0  0  0
 63 65  1  0  0  0
 63148  1  0  0  0
 63149  1  0  0  0
 63150  1  0  0  0
 64151  1  0  0  0
 65152  1  0  0  0
 68 87  1  0  0  0
 71 73  2  0  0  0
 71 74  1  0  0  0
 71153  1  0  0  0
 72 73  1  0  0  0
 72 76  2  0  0  0
 72154  1  0  0  0
 73 81  1  0  0  0
 74 75  2  0  0  0
 74 82  1  0  0  0
 75 76  1  0  0  0
 75 88  1  0  0  0
 76 91  1  0  0  0
 77 79  1  0  0  0
 77 81  1  0  0  0
 77155  1  0  0  0
 77156  1  0  0  0
 78 80  1  0  0  0
 78 81  1  0  0  0
 78157  1  0  0  0
 78158  1  0  0  0
 79 90  1  0  0  0
 79159  1  0  0  0
 79160  1  0  0  0
 80 90  1  0  0  0
 80161  1  0  0  0
 80162  1  0  0  0
 81163  1  0  0  0
 82164  1  0  0  0
 82165  1  0  0  0
 82166  1  0  0  0
 83167  1  0  0  0
 83168  1  0  0  0
 83169  1  0  0  0
 83 87  1  0  0  0
 84 91  1  0  0  0
 84170  1  0  0  0
 84171  1  0  0  0
 84172  1  0  0  0
 85 88  1  0  0  0
 85 89  1  0  0  0
 85173  1  0  0  0
 85174  1  0  0  0
 86 87  1  0  0  0
 86175  1  0  0  0
 86176  1  0  0  0
 86 90  1  0  0  0
 87177  1  0  0  0
 88 92  1  0  0  0
 88 93  1  0  0  0
 89178  1  0  0  0
 90179  1  0  0  0
M  CHG  1  90   1
M  ISO  4   1 100  68 101  87 101  89 100
M  END
> <chiral flag>
0

> <version>
0

> <s_m_source_file>
/data/baiqing/PycharmProjects/Reinvent-master-3.2/result/LINK_invent/BTK/process_docking_weight1_custom_sum_contain_oxygen_bond_distance_aromatic_linkinvent_7_9_3/rearranged_h_0155.sdf

> <i_m_source_file_index>
73

> <r_mmod_Potential_Energy-OPLS-2005>
-117.776092529297

> <r_mmod_Stretch_Energy-OPLS-2005>
36.6371803283691

> <r_mmod_Bend_Energy-OPLS-2005>
126.578605651855

> <r_mmod_Torsional_Energy-OPLS-2005>
300.048278808594

> <r_mmod_Improper_Torsional_Energy-OPLS-2005>
2.76721286773682

> <r_mmod_Van_der_Waal_Energy-OPLS-2005>
184.941558837891

> <r_mmod_Electrostatic_Energy-OPLS-2005>
-354.0927734375

> <r_mmod_Solvation_Energy-OPLS-2005>
-421.460571289062

> <b_mmod_Minimization_Converged-OPLS-2005>
0

> <r_mmod_RMS_Derivative-OPLS-2005>
1.00203490257263

$$$$
73
                    3D
 Structure written by MMmdl.
172181  0  0  1  0            999 V2000
  -30.7277  -14.6276   20.4925 C   0  0  0  0  0  0
  -30.4284  -12.3969   19.4534 C   0  0  0  0  0  0
  -29.4864  -12.4425   18.2301 C   0  0  0  0  0  0
  -28.0300  -12.2218   18.6798 C   0  0  0  0  0  0
  -27.6334  -13.1607   19.8418 C   0  0  2  0  0  0
  -28.6951  -13.1502   20.9744 C   0  0  0  0  0  0
  -25.2535  -13.7992   20.5705 C   0  0  0  0  0  0
  -24.1783  -13.0342   20.9270 C   0  0  0  0  0  0
  -24.6312  -11.6797   20.8870 C   0  0  0  0  0  0
  -23.8960  -10.4224   21.0496 C   0  0  0  0  0  0
  -24.3552   -9.4131   21.9240 C   0  0  0  0  0  0
  -23.6244   -8.2165   22.0753 C   0  0  0  0  0  0
  -22.4225   -8.0238   21.3538 C   0  0  0  0  0  0
  -21.9857   -9.0207   20.4622 C   0  0  0  0  0  0
  -22.7171  -10.2094   20.3074 C   0  0  0  0  0  0
  -21.6822   -6.0699   22.5278 C   0  0  0  0  0  0
  -21.3987   -6.5615   23.8206 C   0  0  0  0  0  0
  -21.3667   -5.6780   24.9172 C   0  0  0  0  0  0
  -21.6053   -4.3050   24.7246 C   0  0  0  0  0  0
  -21.8814   -3.8122   23.4369 C   0  0  0  0  0  0
  -21.9175   -4.6926   22.3414 C   0  0  0  0  0  0
  -22.7821  -13.5152   21.1930 C   0  0  0  0  0  0
  -22.1636   -4.2111   21.0993 F   0  0  0  0  0  0
  -21.5672   -3.4549   25.7770 F   0  0  0  0  0  0
  -30.0054  -13.4638   20.3829 N   0  0  0  0  0  0
  -26.2877  -12.9045   20.3341 N   0  0  0  0  0  0
  -25.9217  -11.6276   20.5921 N   0  0  0  0  0  0
  -22.0488  -12.8135   22.0509 N   0  0  0  0  0  0
  -25.4252  -15.1712   20.3992 N   0  0  0  0  0  0
  -31.9330  -14.6341   20.2225 O   0  0  0  0  0  0
  -21.6603   -6.8837   21.4236 O   0  0  0  0  0  0
  -22.3494  -14.5470   20.6761 O   0  0  0  0  0  0
  -24.6144  -31.8629   23.2084 C   0  0  0  0  0  0
  -25.9031  -32.4796   23.8377 C   0  0  1  0  0  0
  -27.2394  -27.4111   20.0991 C   0  0  0  0  0  0
  -25.5872  -33.8605   24.2301 N   0  0  0  0  0  0
  -23.4021  -30.4847   21.5480 C   0  0  2  0  0  0
  -24.8522  -28.9523   20.1018 C   0  0  0  0  0  0
  -22.7370  -29.4625   22.4967 C   0  0  0  0  0  0
  -18.0268  -28.1349   22.8465 C   0  0  0  0  0  0
  -24.1486  -36.7325   23.2638 C   0  0  0  0  0  0
  -25.9283  -30.8245   21.3609 C   0  0  0  0  0  0
  -26.0103  -29.4585   20.7032 C   0  0  0  0  0  0
  -27.2001  -28.6950   20.6971 C   0  0  0  0  0  0
  -26.0619  -26.9191   19.4871 C   0  0  0  0  0  0
  -24.8789  -27.6861   19.4880 C   0  0  0  0  0  0
  -23.6073  -29.8136   20.1623 C   0  0  0  0  0  0
  -25.4122  -36.3122   24.0326 C   0  0  1  0  0  0
  -20.5838  -28.3681   23.1301 C   0  0  2  0  0  0
  -20.6748  -26.9405   22.5418 C   0  0  0  0  0  0
  -19.5770  -26.6347   21.5155 C   0  0  0  0  0  0
  -18.1941  -26.7897   22.1569 C   0  0  0  0  0  0
  -19.1500  -28.8825   23.2880 C   0  0  0  0  0  0
  -18.9426  -30.1454   23.8881 C   0  0  0  0  0  0
  -17.6425  -30.6558   24.0549 C   0  0  0  0  0  0
  -25.9047  -34.9478   23.5136 C   0  0  0  0  0  0
  -16.5314  -29.9052   23.6330 C   0  0  0  0  0  0
  -16.7264  -28.6481   23.0304 C   0  0  0  0  0  0
  -26.4491  -31.6584   25.0692 C   0  0  0  0  0  0
  -25.3762  -31.3637   26.1425 C   0  0  0  0  0  0
  -27.0300  -30.3022   24.6076 C   0  0  0  0  0  0
  -27.6076  -32.4313   25.7426 C   0  0  0  0  0  0
  -27.5591  -37.1806   24.8462 C   0  0  0  0  0  0
  -21.4095  -29.3033   22.3699 N   0  0  0  0  0  0
  -26.4318  -37.3807   23.9379 N   0  0  0  0  0  0
  -24.6669  -31.0711   22.0977 N   0  0  0  0  0  0
  -23.4111  -28.8179   23.3028 O   0  0  0  0  0  0
  -28.4217  -26.6948   20.1786 O   0  0  0  0  0  0
  -26.5629  -34.8951   22.4705 O   0  0  0  0  0  0
  -23.5349  -32.1383   23.7477 O   0  0  0  0  0  0
  -28.6974  -21.6480   19.4148 C   0  0  0  0  0  0
  -28.1444  -22.3453   21.6817 C   0  0  0  0  0  0
  -28.9155  -23.0094   19.0522 C   0  0  0  0  0  0
  -28.2941  -23.7266   21.3015 C   0  0  0  0  0  0
  -28.3161  -21.2815   20.7337 C   0  0  0  0  0  0
  -28.6223  -24.0736   19.9534 C   0  0  0  0  0  0
  -28.6024  -17.6598   19.7501 C   0  0  0  0  0  0
  -30.2075  -18.4278   21.4370 C   0  0  0  0  0  0
  -28.8625  -16.1736   20.0313 C   0  0  0  0  0  0
  -30.9152  -17.0295   21.1785 C   0  0  0  0  0  0
  -28.7269  -18.4881   21.0264 C   0  0  0  0  0  0
  -28.8036  -20.5888   18.3298 C   0  0  0  0  0  0
  -27.6941  -21.9738   23.0997 C   0  0  0  0  0  0
  -29.4592  -23.3120   17.6488 C   0  0  0  0  0  0
  -28.0911  -24.8573   22.3189 C   0  0  0  0  0  0
  -27.8485  -19.8158   21.0669 C   0  0  0  0  0  0
  -28.6955  -25.5293   19.3769 C   0  0  0  0  0  0
  -30.1029  -15.8354   20.7544 N   0  0  0  0  0  0
  -31.4624  -12.5186   19.1285 H   0  0  0  0  0  0
  -30.3796  -11.4226   19.9481 H   0  0  0  0  0  0
  -29.7723  -11.6802   17.5017 H   0  0  0  0  0  0
  -29.5750  -13.4067   17.7287 H   0  0  0  0  0  0
  -27.9399  -11.1829   19.0070 H   0  0  0  0  0  0
  -27.3443  -12.3346   17.8402 H   0  0  0  0  0  0
  -27.5718  -14.1238   19.3655 H   0  0  0  0  0  0
  -28.7265  -12.1679   21.4494 H   0  0  0  0  0  0
  -28.4426  -13.8534   21.7679 H   0  0  0  0  0  0
  -25.2720   -9.5597   22.4796 H   0  0  0  0  0  0
  -23.9971   -7.4527   22.7438 H   0  0  0  0  0  0
  -21.0788   -8.8701   19.8911 H   0  0  0  0  0  0
  -22.3655  -10.9635   19.6176 H   0  0  0  0  0  0
  -21.1950   -7.6114   23.9704 H   0  0  0  0  0  0
  -21.1509   -6.0508   25.9075 H   0  0  0  0  0  0
  -22.0597   -2.7578   23.2877 H   0  0  0  0  0  0
  -22.4051  -11.9761   22.4870 H   0  0  0  0  0  0
  -21.1142  -13.1197   22.2778 H   0  0  0  0  0  0
  -24.6680  -15.8406   20.4964 H   0  0  0  0  0  0
  -26.2780  -15.5988   20.0656 H   0  0  0  0  0  0
  -26.7061  -32.5521   23.1108 H   0  0  0  0  0  0
  -24.9919  -33.9774   25.0386 H   0  0  0  0  0  0
  -22.6957  -31.3065   21.4133 H   0  0  0  0  0  0
  -23.3778  -35.9631   23.3312 H   0  0  0  0  0  0
  -24.3557  -36.8933   22.2042 H   0  0  0  0  0  0
  -23.7234  -37.6531   23.6659 H   0  0  0  0  0  0
  -26.0469  -31.5991   20.6008 H   0  0  0  0  0  0
  -26.8081  -30.8734   21.9871 H   0  0  0  0  0  0
  -28.0953  -29.0865   21.1622 H   0  0  0  0  0  0
  -26.0385  -25.9409   19.0296 H   0  0  0  0  0  0
  -23.9851  -27.2956   19.0198 H   0  0  0  0  0  0
  -23.6936  -30.5891   19.4014 H   0  0  0  0  0  0
  -22.7304  -29.2245   19.8835 H   0  0  0  0  0  0
  -25.1308  -36.1994   25.0823 H   0  0  0  0  0  0
  -20.9995  -28.3312   24.1401 H   0  0  0  0  0  0
  -21.6601  -26.7463   22.1266 H   0  0  0  0  0  0
  -20.5667  -26.2274   23.3603 H   0  0  0  0  0  0
  -19.6965  -25.6224   21.1283 H   0  0  0  0  0  0
  -19.6791  -27.3160   20.6658 H   0  0  0  0  0  0
  -17.4202  -26.6619   21.3965 H   0  0  0  0  0  0
  -18.0368  -26.0025   22.8975 H   0  0  0  0  0  0
  -19.7885  -30.7321   24.2241 H   0  0  0  0  0  0
  -17.4965  -31.6223   24.5195 H   0  0  0  0  0  0
  -15.5316  -30.2929   23.7703 H   0  0  0  0  0  0
  -15.8671  -28.0842   22.6949 H   0  0  0  0  0  0
  -24.5928  -30.7032   25.7695 H   0  0  0  0  0  0
  -24.8975  -32.2759   26.4979 H   0  0  0  0  0  0
  -25.8106  -30.8665   27.0105 H   0  0  0  0  0  0
  -26.2788  -29.6751   24.1248 H   0  0  0  0  0  0
  -27.4162  -29.7310   25.4536 H   0  0  0  0  0  0
  -27.8603  -30.4316   23.9128 H   0  0  0  0  0  0
  -27.2704  -33.3590   26.2068 H   0  0  0  0  0  0
  -28.3820  -32.6918   25.0195 H   0  0  0  0  0  0
  -28.0828  -31.8401   26.5264 H   0  0  0  0  0  0
  -28.2634  -38.0084   24.7506 H   0  0  0  0  0  0
  -28.1065  -36.2622   24.6306 H   0  0  0  0  0  0
  -27.2267  -37.1436   25.8854 H   0  0  0  0  0  0
  -20.9252  -29.8713   21.6908 H   0  0  0  0  0  0
  -26.0226  -38.2887   24.1423 H   0  0  0  0  0  0
  -29.3164  -18.0008   19.0034 H   0  0  0  0  0  0
  -27.6080  -17.7551   19.3156 H   0  0  0  0  0  0
  -30.7426  -19.2025   20.8858 H   0  0  0  0  0  0
  -30.3179  -18.7160   22.4844 H   0  0  0  0  0  0
  -28.0302  -15.8117   20.6327 H   0  0  0  0  0  0
  -28.8795  -15.6801   19.0576 H   0  0  0  0  0  0
  -31.6374  -17.2012   20.3799 H   0  0  0  0  0  0
  -31.5215  -16.7697   22.0485 H   0  0  0  0  0  0
  -28.2293  -17.8712   21.7753 H   0  0  0  0  0  0
  -28.5556  -20.9742   17.3450 H   0  0  0  0  0  0
  -28.0710  -19.8061   18.4624 H   0  0  0  0  0  0
  -29.8105  -20.1753   18.3036 H   0  0  0  0  0  0
  -27.7179  -22.7501   23.8543 H   0  0  0  0  0  0
  -28.3324  -21.1798   23.4883 H   0  0  0  0  0  0
  -26.6683  -21.6055   23.0788 H   0  0  0  0  0  0
  -30.2152  -22.5776   17.3687 H   0  0  0  0  0  0
  -29.9680  -24.2693   17.5556 H   0  0  0  0  0  0
  -28.6646  -23.2698   16.9048 H   0  0  0  0  0  0
  -28.8339  -25.6401   22.1757 H   0  0  0  0  0  0
  -28.2331  -24.6019   23.3628 H   0  0  0  0  0  0
  -27.0906  -25.2807   22.2160 H   0  0  0  0  0  0
  -26.9555  -19.6471   20.4568 H   0  0  0  0  0  0
  -27.4102  -19.7951   22.0588 H   0  0  0  0  0  0
  -28.1588  -25.5877   18.4282 H   0  0  0  0  0  0
  -29.7452  -25.6747   19.1276 H   0  0  0  0  0  0
  1 25  1  0  0  0
  1 30  2  0  0  0
  1 88  1  0  0  0
  2  3  1  0  0  0
  2 25  1  0  0  0
  2 89  1  0  0  0
  2 90  1  0  0  0
  3  4  1  0  0  0
  3 91  1  0  0  0
  3 92  1  0  0  0
  4  5  1  0  0  0
  4 93  1  0  0  0
  4 94  1  0  0  0
  5  6  1  0  0  0
  5 26  1  0  0  0
  5 95  1  0  0  0
  6 25  1  0  0  0
  6 96  1  0  0  0
  6 97  1  0  0  0
  7  8  2  0  0  0
  7 26  1  0  0  0
  7 29  1  0  0  0
  8  9  1  0  0  0
  8 22  1  0  0  0
  9 10  1  0  0  0
  9 27  2  0  0  0
 10 11  2  0  0  0
 10 15  1  0  0  0
 11 12  1  0  0  0
 11 98  1  0  0  0
 12 13  2  0  0  0
 12 99  1  0  0  0
 13 14  1  0  0  0
 13 31  1  0  0  0
 14 15  2  0  0  0
 14100  1  0  0  0
 15101  1  0  0  0
 16 17  2  0  0  0
 16 21  1  0  0  0
 16 31  1  0  0  0
 17 18  1  0  0  0
 17102  1  0  0  0
 18 19  2  0  0  0
 18103  1  0  0  0
 19 20  1  0  0  0
 19 24  1  0  0  0
 20 21  2  0  0  0
 20104  1  0  0  0
 21 23  1  0  0  0
 22 28  1  0  0  0
 22 32  2  0  0  0
 26 27  1  0  0  0
 28105  1  0  0  0
 28106  1  0  0  0
 29107  1  0  0  0
 29108  1  0  0  0
 33 34  1  0  0  0
 33 66  1  0  0  0
 33 70  2  0  0  0
 34 36  1  0  0  0
 34 59  1  0  0  0
 34109  1  0  0  0
 35 44  2  0  0  0
 35 45  1  0  0  0
 35 68  1  0  0  0
 36 56  1  0  0  0
 36110  1  0  0  0
 37 39  1  0  0  0
 37 47  1  0  0  0
 37 66  1  0  0  0
 37111  1  0  0  0
 38 43  2  0  0  0
 38 46  1  0  0  0
 38 47  1  0  0  0
 39 64  1  0  0  0
 39 67  2  0  0  0
 40 52  1  0  0  0
 40 53  2  0  0  0
 40 58  1  0  0  0
 41112  1  0  0  0
 41113  1  0  0  0
 41114  1  0  0  0
 41 48  1  0  0  0
 42 43  1  0  0  0
 42 66  1  0  0  0
 42115  1  0  0  0
 42116  1  0  0  0
 43 44  1  0  0  0
 44117  1  0  0  0
 45 46  2  0  0  0
 45118  1  0  0  0
 46119  1  0  0  0
 47120  1  0  0  0
 47121  1  0  0  0
 48 56  1  0  0  0
 48 65  1  0  0  0
 48122  1  0  0  0
 49 50  1  0  0  0
 49 53  1  0  0  0
 49 64  1  0  0  0
 49123  1  0  0  0
 50 51  1  0  0  0
 50124  1  0  0  0
 50125  1  0  0  0
 51 52  1  0  0  0
 51126  1  0  0  0
 51127  1  0  0  0
 52128  1  0  0  0
 52129  1  0  0  0
 53 54  1  0  0  0
 54 55  2  0  0  0
 54130  1  0  0  0
 55 57  1  0  0  0
 55131  1  0  0  0
 56 69  2  0  0  0
 57 58  2  0  0  0
 57132  1  0  0  0
 58133  1  0  0  0
 59 60  1  0  0  0
 59 61  1  0  0  0
 59 62  1  0  0  0
 60134  1  0  0  0
 60135  1  0  0  0
 60136  1  0  0  0
 61137  1  0  0  0
 61138  1  0  0  0
 61139  1  0  0  0
 62140  1  0  0  0
 62141  1  0  0  0
 62142  1  0  0  0
 63 65  1  0  0  0
 63143  1  0  0  0
 63144  1  0  0  0
 63145  1  0  0  0
 64146  1  0  0  0
 65147  1  0  0  0
 68 87  1  0  0  0
 71 73  2  0  0  0
 71 75  1  0  0  0
 71 82  1  0  0  0
 72 74  1  0  0  0
 72 75  2  0  0  0
 72 83  1  0  0  0
 73 76  1  0  0  0
 73 84  1  0  0  0
 74 76  2  0  0  0
 74 85  1  0  0  0
 75 86  1  0  0  0
 76 87  1  0  0  0
 77 79  1  0  0  0
 77 81  1  0  0  0
 77148  1  0  0  0
 77149  1  0  0  0
 78 80  1  0  0  0
 78 81  1  0  0  0
 78150  1  0  0  0
 78151  1  0  0  0
 79 88  1  0  0  0
 79152  1  0  0  0
 79153  1  0  0  0
 80 88  1  0  0  0
 80154  1  0  0  0
 80155  1  0  0  0
 81 86  1  0  0  0
 81156  1  0  0  0
 82157  1  0  0  0
 82158  1  0  0  0
 82159  1  0  0  0
 83160  1  0  0  0
 83161  1  0  0  0
 83162  1  0  0  0
 84163  1  0  0  0
 84164  1  0  0  0
 84165  1  0  0  0
 85166  1  0  0  0
 85167  1  0  0  0
 85168  1  0  0  0
 86169  1  0  0  0
 86170  1  0  0  0
 87171  1  0  0  0
 87172  1  0  0  0
M  ISO  4   1 100  68 101  87 101  88 100
M  END
> <chiral flag>
0

> <version>
0

> <s_m_source_file>
/data/baiqing/PycharmProjects/Reinvent-master-3.2/result/LINK_invent/BTK/process_docking_weight1_custom_sum_contain_oxygen_bond_distance_aromatic_linkinvent_7_9_3/rearranged_h_0155.sdf

> <i_m_source_file_index>
74

> <r_mmod_Potential_Energy-OPLS-2005>
386.303344726562

> <r_mmod_Stretch_Energy-OPLS-2005>
76.4650115966797

> <r_mmod_Bend_Energy-OPLS-2005>
210.49821472168

> <r_mmod_Torsional_Energy-OPLS-2005>
340.173858642578

> <r_mmod_Improper_Torsional_Energy-OPLS-2005>
6.6715931892395

> <r_mmod_Van_der_Waal_Energy-OPLS-2005>
203.363433837891

> <r_mmod_Electrostatic_Energy-OPLS-2005>
-302.261047363281

> <r_mmod_Solvation_Energy-OPLS-2005>
-194.645126342773

> <b_mmod_Minimization_Converged-OPLS-2005>
0

> <r_mmod_RMS_Derivative-OPLS-2005>
5.81347513198853

$$$$
74
                    3D
 Structure written by MMmdl.
170179  0  0  1  0            999 V2000
  -30.7836  -14.4387   20.6095 C   0  0  0  0  0  0
  -30.4112  -12.3195   19.4067 C   0  0  0  0  0  0
  -29.4833  -12.5238   18.1943 C   0  0  0  0  0  0
  -28.0119  -12.3580   18.6117 C   0  0  0  0  0  0
  -27.6599  -13.2046   19.8644 C   0  0  2  0  0  0
  -28.7085  -13.0325   20.9913 C   0  0  0  0  0  0
  -25.2613  -13.8166   20.5647 C   0  0  0  0  0  0
  -24.1854  -13.0454   20.9144 C   0  0  0  0  0  0
  -24.6394  -11.6917   20.8720 C   0  0  0  0  0  0
  -23.9056  -10.4295   21.0371 C   0  0  0  0  0  0
  -24.3636   -9.4233   21.9158 C   0  0  0  0  0  0
  -23.6318   -8.2266   22.0746 C   0  0  0  0  0  0
  -22.4300   -8.0286   21.3534 C   0  0  0  0  0  0
  -21.9904   -9.0242   20.4611 C   0  0  0  0  0  0
  -22.7233  -10.2134   20.3000 C   0  0  0  0  0  0
  -21.6859   -6.0721   22.5271 C   0  0  0  0  0  0
  -21.4003   -6.5633   23.8205 C   0  0  0  0  0  0
  -21.3665   -5.6787   24.9176 C   0  0  0  0  0  0
  -21.6065   -4.3056   24.7230 C   0  0  0  0  0  0
  -21.8828   -3.8130   23.4357 C   0  0  0  0  0  0
  -21.9202   -4.6943   22.3411 C   0  0  0  0  0  0
  -22.7880  -13.5274   21.1811 C   0  0  0  0  0  0
  -22.1667   -4.2119   21.0987 F   0  0  0  0  0  0
  -21.5646   -3.4553   25.7751 F   0  0  0  0  0  0
  -30.0438  -13.3075   20.4342 N   0  0  0  0  0  0
  -26.3022  -12.9315   20.3331 N   0  0  0  0  0  0
  -25.9319  -11.6488   20.5763 N   0  0  0  0  0  0
  -22.0500  -12.8245   22.0334 N   0  0  0  0  0  0
  -25.4432  -15.1869   20.4018 N   0  0  0  0  0  0
  -31.8878  -14.5974   20.0854 O   0  0  0  0  0  0
  -21.6682   -6.8859   21.4219 O   0  0  0  0  0  0
  -22.3582  -14.5601   20.6670 O   0  0  0  0  0  0
  -24.6102  -31.8693   23.2112 C   0  0  0  0  0  0
  -25.9029  -32.4822   23.8387 C   0  0  1  0  0  0
  -27.2426  -27.4850   20.0767 C   0  0  0  0  0  0
  -25.5893  -33.8620   24.2319 N   0  0  0  0  0  0
  -23.3935  -30.4922   21.5516 C   0  0  2  0  0  0
  -24.8399  -28.9618   20.1105 C   0  0  0  0  0  0
  -22.7370  -29.4644   22.5005 C   0  0  0  0  0  0
  -18.0257  -28.1368   22.8494 C   0  0  0  0  0  0
  -24.1481  -36.7318   23.2629 C   0  0  0  0  0  0
  -25.9143  -30.8478   21.3566 C   0  0  0  0  0  0
  -25.9930  -29.4838   20.7096 C   0  0  0  0  0  0
  -27.1917  -28.7443   20.7045 C   0  0  0  0  0  0
  -26.0722  -26.9576   19.4876 C   0  0  0  0  0  0
  -24.8726  -27.6946   19.5005 C   0  0  0  0  0  0
  -23.5968  -29.8206   20.1652 C   0  0  0  0  0  0
  -25.4095  -36.3113   24.0331 C   0  0  1  0  0  0
  -20.5846  -28.3637   23.1338 C   0  0  2  0  0  0
  -20.6748  -26.9381   22.5427 C   0  0  0  0  0  0
  -19.5731  -26.6375   21.5216 C   0  0  0  0  0  0
  -18.1903  -26.7927   22.1607 C   0  0  0  0  0  0
  -19.1505  -28.8818   23.2919 C   0  0  0  0  0  0
  -18.9442  -30.1438   23.8902 C   0  0  0  0  0  0
  -17.6440  -30.6576   24.0559 C   0  0  0  0  0  0
  -25.9022  -34.9474   23.5108 C   0  0  0  0  0  0
  -16.5332  -29.9072   23.6335 C   0  0  0  0  0  0
  -16.7242  -28.6500   23.0342 C   0  0  0  0  0  0
  -26.4479  -31.6589   25.0699 C   0  0  0  0  0  0
  -25.3766  -31.3690   26.1462 C   0  0  0  0  0  0
  -27.0307  -30.3039   24.6046 C   0  0  0  0  0  0
  -27.6048  -32.4312   25.7484 C   0  0  0  0  0  0
  -27.5584  -37.1803   24.8440 C   0  0  0  0  0  0
  -21.4111  -29.3023   22.3754 N   0  0  0  0  0  0
  -26.4275  -37.3808   23.9418 N   0  0  0  0  0  0
  -24.6568  -31.0830   22.1004 N   0  0  0  0  0  0
  -23.4172  -28.8194   23.3020 O   0  0  0  0  0  0
  -28.4313  -26.8046   20.1102 O   0  0  0  0  0  0
  -26.5569  -34.8936   22.4669 O   0  0  0  0  0  0
  -23.5309  -32.1420   23.7548 O   0  0  0  0  0  0
  -28.9113  -23.6359   18.4705 C   0  0  0  0  0  0
  -30.7927  -23.1463   20.4923 C   0  0  0  0  0  0
  -29.3617  -24.7088   19.2680 C   0  0  0  0  0  0
  -29.4121  -22.3329   18.6564 C   0  0  0  0  0  0
  -30.3021  -24.4571   20.3010 C   0  0  0  0  0  0
  -30.3741  -22.0775   19.6579 C   0  0  0  0  0  0
  -31.0305  -16.0369   22.4338 C   0  0  0  0  0  0
  -29.5123  -16.5102   20.6540 C   0  0  0  0  0  0
  -32.0334  -17.1037   21.9206 C   0  0  0  0  0  0
  -30.4700  -17.5634   20.0446 C   0  0  0  0  0  0
  -28.9170  -21.2133   17.7574 C   0  0  0  0  0  0
  -30.8055  -25.5689   21.2121 C   0  0  0  0  0  0
  -28.8578  -26.1089   18.9468 C   0  0  0  0  0  0
  -32.4044  -19.0689   20.4572 C   0  0  0  0  0  0
  -31.9982  -20.5475   20.5636 C   0  0  0  0  0  0
  -30.2449  -15.4378   21.3455 N   0  0  0  0  0  0
  -31.4012  -18.1399   21.0567 N   0  3  0  0  0  0
  -30.8427  -20.7830   19.7643 O   0  0  0  0  0  0
  -31.4526  -12.4024   19.0911 H   0  0  0  0  0  0
  -30.3009  -11.3111   19.8073 H   0  0  0  0  0  0
  -29.7300  -11.8091   17.4050 H   0  0  0  0  0  0
  -29.6366  -13.5169   17.7700 H   0  0  0  0  0  0
  -27.8370  -11.2990   18.8141 H   0  0  0  0  0  0
  -27.3532  -12.6170   17.7815 H   0  0  0  0  0  0
  -27.6852  -14.2430   19.5460 H   0  0  0  0  0  0
  -28.6877  -12.0134   21.3794 H   0  0  0  0  0  0
  -28.4660  -13.6801   21.8342 H   0  0  0  0  0  0
  -25.2767   -9.5767   22.4757 H   0  0  0  0  0  0
  -24.0038   -7.4668   22.7478 H   0  0  0  0  0  0
  -21.0836   -8.8714   19.8939 H   0  0  0  0  0  0
  -22.3634  -10.9656   19.6115 H   0  0  0  0  0  0
  -21.1965   -7.6130   23.9703 H   0  0  0  0  0  0
  -21.1485   -6.0520   25.9086 H   0  0  0  0  0  0
  -22.0606   -2.7583   23.2876 H   0  0  0  0  0  0
  -22.4094  -11.9882   22.4698 H   0  0  0  0  0  0
  -21.1113  -13.1230   22.2478 H   0  0  0  0  0  0
  -24.6894  -15.8599   20.4921 H   0  0  0  0  0  0
  -26.3167  -15.6085   20.1134 H   0  0  0  0  0  0
  -26.7095  -32.5530   23.1147 H   0  0  0  0  0  0
  -25.0099  -33.9796   25.0498 H   0  0  0  0  0  0
  -22.6807  -31.3068   21.4143 H   0  0  0  0  0  0
  -23.3770  -35.9619   23.3236 H   0  0  0  0  0  0
  -24.3620  -36.8996   22.2060 H   0  0  0  0  0  0
  -23.7184  -37.6486   23.6687 H   0  0  0  0  0  0
  -26.0169  -31.6126   20.5850 H   0  0  0  0  0  0
  -26.8060  -30.9049   21.9683 H   0  0  0  0  0  0
  -28.0824  -29.1453   21.1686 H   0  0  0  0  0  0
  -26.0770  -25.9795   19.0283 H   0  0  0  0  0  0
  -23.9857  -27.2813   19.0397 H   0  0  0  0  0  0
  -23.6915  -30.5932   19.4013 H   0  0  0  0  0  0
  -22.7248  -29.2300   19.8785 H   0  0  0  0  0  0
  -25.1277  -36.1956   25.0821 H   0  0  0  0  0  0
  -20.9934  -28.3181   24.1457 H   0  0  0  0  0  0
  -20.5646  -26.2229   23.3603 H   0  0  0  0  0  0
  -21.6617  -26.7438   22.1200 H   0  0  0  0  0  0
  -19.6890  -25.6289   21.1231 H   0  0  0  0  0  0
  -19.6697  -27.3192   20.6755 H   0  0  0  0  0  0
  -17.4200  -26.6717   21.3985 H   0  0  0  0  0  0
  -18.0278  -26.0038   22.8963 H   0  0  0  0  0  0
  -19.7920  -30.7269   24.2241 H   0  0  0  0  0  0
  -17.5000  -31.6265   24.5141 H   0  0  0  0  0  0
  -15.5333  -30.2979   23.7667 H   0  0  0  0  0  0
  -15.8648  -28.0829   22.7040 H   0  0  0  0  0  0
  -24.5925  -30.7060   25.7803 H   0  0  0  0  0  0
  -24.8992  -32.2846   26.4952 H   0  0  0  0  0  0
  -25.8132  -30.8830   27.0192 H   0  0  0  0  0  0
  -26.2837  -29.6792   24.1133 H   0  0  0  0  0  0
  -27.4135  -29.7278   25.4478 H   0  0  0  0  0  0
  -27.8644  -30.4367   23.9143 H   0  0  0  0  0  0
  -27.2650  -33.3607   26.2069 H   0  0  0  0  0  0
  -28.3885  -32.6872   25.0337 H   0  0  0  0  0  0
  -28.0687  -31.8422   26.5410 H   0  0  0  0  0  0
  -28.2534  -38.0172   24.7609 H   0  0  0  0  0  0
  -28.1167  -36.2720   24.6117 H   0  0  0  0  0  0
  -27.2345  -37.1243   25.8851 H   0  0  0  0  0  0
  -20.9230  -29.8762   21.7025 H   0  0  0  0  0  0
  -26.0157  -38.2872   24.1504 H   0  0  0  0  0  0
  -28.1817  -23.8198   17.6935 H   0  0  0  0  0  0
  -31.5000  -22.9844   21.2929 H   0  0  0  0  0  0
  -30.3458  -16.4970   23.1487 H   0  0  0  0  0  0
  -31.5678  -15.2663   22.9918 H   0  0  0  0  0  0
  -28.8896  -16.1044   19.8576 H   0  0  0  0  0  0
  -28.8257  -16.9875   21.3552 H   0  0  0  0  0  0
  -32.8399  -16.6219   21.3630 H   0  0  0  0  0  0
  -32.5132  -17.5936   22.7714 H   0  0  0  0  0  0
  -29.8897  -18.3639   19.5844 H   0  0  0  0  0  0
  -31.0501  -17.1070   19.2400 H   0  0  0  0  0  0
  -28.3567  -21.5990   16.9059 H   0  0  0  0  0  0
  -28.2612  -20.5445   18.3160 H   0  0  0  0  0  0
  -29.7551  -20.6323   17.3693 H   0  0  0  0  0  0
  -31.6534  -25.2463   21.8192 H   0  0  0  0  0  0
  -30.0146  -25.8856   21.8945 H   0  0  0  0  0  0
  -31.1259  -26.4354   20.6326 H   0  0  0  0  0  0
  -28.1140  -26.0820   18.1519 H   0  0  0  0  0  0
  -29.6966  -26.6669   18.5310 H   0  0  0  0  0  0
  -33.3527  -18.9744   20.9899 H   0  0  0  0  0  0
  -32.6197  -18.8071   19.4211 H   0  0  0  0  0  0
  -32.8225  -21.1656   20.2014 H   0  0  0  0  0  0
  -31.8242  -20.8094   21.6068 H   0  0  0  0  0  0
  -30.8282  -18.6995   21.6718 H   0  0  0  0  0  0
  1 25  1  0  0  0
  1 30  2  0  0  0
  1 86  1  0  0  0
  2  3  1  0  0  0
  2 25  1  0  0  0
  2 89  1  0  0  0
  2 90  1  0  0  0
  3  4  1  0  0  0
  3 91  1  0  0  0
  3 92  1  0  0  0
  4  5  1  0  0  0
  4 93  1  0  0  0
  4 94  1  0  0  0
  5  6  1  0  0  0
  5 26  1  0  0  0
  5 95  1  0  0  0
  6 25  1  0  0  0
  6 96  1  0  0  0
  6 97  1  0  0  0
  7  8  2  0  0  0
  7 26  1  0  0  0
  7 29  1  0  0  0
  8  9  1  0  0  0
  8 22  1  0  0  0
  9 10  1  0  0  0
  9 27  2  0  0  0
 10 11  2  0  0  0
 10 15  1  0  0  0
 11 12  1  0  0  0
 11 98  1  0  0  0
 12 13  2  0  0  0
 12 99  1  0  0  0
 13 14  1  0  0  0
 13 31  1  0  0  0
 14 15  2  0  0  0
 14100  1  0  0  0
 15101  1  0  0  0
 16 17  2  0  0  0
 16 21  1  0  0  0
 16 31  1  0  0  0
 17 18  1  0  0  0
 17102  1  0  0  0
 18 19  2  0  0  0
 18103  1  0  0  0
 19 20  1  0  0  0
 19 24  1  0  0  0
 20 21  2  0  0  0
 20104  1  0  0  0
 21 23  1  0  0  0
 22 28  1  0  0  0
 22 32  2  0  0  0
 26 27  1  0  0  0
 28105  1  0  0  0
 28106  1  0  0  0
 29107  1  0  0  0
 29108  1  0  0  0
 33 34  1  0  0  0
 33 66  1  0  0  0
 33 70  2  0  0  0
 34 36  1  0  0  0
 34 59  1  0  0  0
 34109  1  0  0  0
 35 44  2  0  0  0
 35 45  1  0  0  0
 35 68  1  0  0  0
 36 56  1  0  0  0
 36110  1  0  0  0
 37 39  1  0  0  0
 37 47  1  0  0  0
 37 66  1  0  0  0
 37111  1  0  0  0
 38 43  2  0  0  0
 38 46  1  0  0  0
 38 47  1  0  0  0
 39 64  1  0  0  0
 39 67  2  0  0  0
 40 52  1  0  0  0
 40 53  2  0  0  0
 40 58  1  0  0  0
 41112  1  0  0  0
 41113  1  0  0  0
 41114  1  0  0  0
 41 48  1  0  0  0
 42 43  1  0  0  0
 42 66  1  0  0  0
 42115  1  0  0  0
 42116  1  0  0  0
 43 44  1  0  0  0
 44117  1  0  0  0
 45 46  2  0  0  0
 45118  1  0  0  0
 46119  1  0  0  0
 47120  1  0  0  0
 47121  1  0  0  0
 48 56  1  0  0  0
 48 65  1  0  0  0
 48122  1  0  0  0
 49 50  1  0  0  0
 49 53  1  0  0  0
 49 64  1  0  0  0
 49123  1  0  0  0
 50 51  1  0  0  0
 50124  1  0  0  0
 50125  1  0  0  0
 51 52  1  0  0  0
 51126  1  0  0  0
 51127  1  0  0  0
 52128  1  0  0  0
 52129  1  0  0  0
 53 54  1  0  0  0
 54 55  2  0  0  0
 54130  1  0  0  0
 55 57  1  0  0  0
 55131  1  0  0  0
 56 69  2  0  0  0
 57 58  2  0  0  0
 57132  1  0  0  0
 58133  1  0  0  0
 59 60  1  0  0  0
 59 61  1  0  0  0
 59 62  1  0  0  0
 60134  1  0  0  0
 60135  1  0  0  0
 60136  1  0  0  0
 61137  1  0  0  0
 61138  1  0  0  0
 61139  1  0  0  0
 62140  1  0  0  0
 62141  1  0  0  0
 62142  1  0  0  0
 63 65  1  0  0  0
 63143  1  0  0  0
 63144  1  0  0  0
 63145  1  0  0  0
 64146  1  0  0  0
 65147  1  0  0  0
 68 83  1  0  0  0
 71 73  2  0  0  0
 71 74  1  0  0  0
 71148  1  0  0  0
 72 75  2  0  0  0
 72 76  1  0  0  0
 72149  1  0  0  0
 73 75  1  0  0  0
 73 83  1  0  0  0
 74 76  2  0  0  0
 74 81  1  0  0  0
 75 82  1  0  0  0
 76 88  1  0  0  0
 77 79  1  0  0  0
 77 86  1  0  0  0
 77150  1  0  0  0
 77151  1  0  0  0
 78 80  1  0  0  0
 78 86  1  0  0  0
 78152  1  0  0  0
 78153  1  0  0  0
 79 87  1  0  0  0
 79154  1  0  0  0
 79155  1  0  0  0
 80 87  1  0  0  0
 80156  1  0  0  0
 80157  1  0  0  0
 81158  1  0  0  0
 81159  1  0  0  0
 81160  1  0  0  0
 82161  1  0  0  0
 82162  1  0  0  0
 82163  1  0  0  0
 83164  1  0  0  0
 83165  1  0  0  0
 84 85  1  0  0  0
 84166  1  0  0  0
 84167  1  0  0  0
 84 87  1  0  0  0
 85 88  1  0  0  0
 85168  1  0  0  0
 85169  1  0  0  0
 87170  1  0  0  0
M  CHG  1  87   1
M  ISO  4   1 100  68 101  83 101  86 100
M  END
> <chiral flag>
0

> <version>
0

> <s_m_source_file>
/data/baiqing/PycharmProjects/Reinvent-master-3.2/result/LINK_invent/BTK/process_docking_weight1_custom_sum_contain_oxygen_bond_distance_aromatic_linkinvent_7_9_3/rearranged_h_0155.sdf

> <i_m_source_file_index>
75

> <r_mmod_Potential_Energy-OPLS-2005>
93.4962921142578

> <r_mmod_Stretch_Energy-OPLS-2005>
37.9425048828125

> <r_mmod_Bend_Energy-OPLS-2005>
111.738525390625

> <r_mmod_Torsional_Energy-OPLS-2005>
399.819488525391

> <r_mmod_Improper_Torsional_Energy-OPLS-2005>
5.82060956954956

> <r_mmod_Van_der_Waal_Energy-OPLS-2005>
165.317108154297

> <r_mmod_Electrostatic_Energy-OPLS-2005>
-235.773620605469

> <r_mmod_Solvation_Energy-OPLS-2005>
-403.811126708984

> <b_mmod_Minimization_Converged-OPLS-2005>
0

> <r_mmod_RMS_Derivative-OPLS-2005>
4.45085716247559

$$$$
75
                    3D
 Structure written by MMmdl.
169178  0  0  1  0            999 V2000
  -30.6344  -14.8407   20.4398 C   0  0  0  0  0  0
  -30.4230  -12.5234   19.4848 C   0  0  0  0  0  0
  -29.5072  -12.5089   18.2432 C   0  0  0  0  0  0
  -28.0395  -12.3185   18.6653 C   0  0  0  0  0  0
  -27.6304  -13.2496   19.8383 C   0  0  2  0  0  0
  -28.6768  -13.2693   20.9726 C   0  0  0  0  0  0
  -25.2474  -13.8239   20.5737 C   0  0  0  0  0  0
  -24.1780  -13.0458   20.9219 C   0  0  0  0  0  0
  -24.6397  -11.6939   20.8758 C   0  0  0  0  0  0
  -23.9086  -10.4304   21.0410 C   0  0  0  0  0  0
  -24.3631   -9.4214   21.9184 C   0  0  0  0  0  0
  -23.6297   -8.2251   22.0754 C   0  0  0  0  0  0
  -22.4281   -8.0291   21.3545 C   0  0  0  0  0  0
  -21.9924   -9.0268   20.4648 C   0  0  0  0  0  0
  -22.7258  -10.2141   20.3056 C   0  0  0  0  0  0
  -21.6854   -6.0742   22.5280 C   0  0  0  0  0  0
  -21.4019   -6.5643   23.8215 C   0  0  0  0  0  0
  -21.3656   -5.6794   24.9176 C   0  0  0  0  0  0
  -21.6039   -4.3058   24.7225 C   0  0  0  0  0  0
  -21.8820   -3.8150   23.4347 C   0  0  0  0  0  0
  -21.9194   -4.6969   22.3403 C   0  0  0  0  0  0
  -22.7799  -13.5223   21.1873 C   0  0  0  0  0  0
  -22.1661   -4.2154   21.0981 F   0  0  0  0  0  0
  -21.5625   -3.4541   25.7736 F   0  0  0  0  0  0
  -29.9597  -13.6318   20.3624 N   0  0  0  0  0  0
  -26.2900  -12.9474   20.3278 N   0  0  0  0  0  0
  -25.9333  -11.6604   20.5766 N   0  0  0  0  0  0
  -22.0454  -12.8201   22.0424 N   0  0  0  0  0  0
  -25.4186  -15.1964   20.4215 N   0  0  0  0  0  0
  -31.8444  -14.8259   20.1871 O   0  0  0  0  0  0
  -21.6644   -6.8887   21.4242 O   0  0  0  0  0  0
  -22.3479  -14.5531   20.6725 O   0  0  0  0  0  0
  -24.6397  -31.8502   23.1957 C   0  0  0  0  0  0
  -25.9192  -32.4729   23.8323 C   0  0  1  0  0  0
  -27.2020  -27.1787   20.1341 C   0  0  0  0  0  0
  -25.5969  -33.8536   24.2236 N   0  0  0  0  0  0
  -23.4400  -30.4756   21.5413 C   0  0  2  0  0  0
  -24.8856  -28.9213   20.1082 C   0  0  0  0  0  0
  -22.7553  -29.4586   22.4883 C   0  0  0  0  0  0
  -18.0305  -28.1396   22.8475 C   0  0  0  0  0  0
  -24.1492  -36.7266   23.2637 C   0  0  0  0  0  0
  -25.9966  -30.7366   21.3912 C   0  0  0  0  0  0
  -26.0650  -29.3557   20.7259 C   0  0  0  0  0  0
  -27.2266  -28.4998   20.7261 C   0  0  0  0  0  0
  -25.9955  -26.8498   19.4694 C   0  0  0  0  0  0
  -24.8618  -27.6798   19.4653 C   0  0  0  0  0  0
  -23.6623  -29.8182   20.1562 C   0  0  0  0  0  0
  -25.4125  -36.3048   24.0313 C   0  0  1  0  0  0
  -20.5918  -28.3715   23.1243 C   0  0  2  0  0  0
  -20.6798  -26.9425   22.5398 C   0  0  0  0  0  0
  -19.5769  -26.6384   21.5210 C   0  0  0  0  0  0
  -18.1948  -26.7938   22.1617 C   0  0  0  0  0  0
  -19.1561  -28.8873   23.2852 C   0  0  0  0  0  0
  -18.9476  -30.1472   23.8874 C   0  0  0  0  0  0
  -17.6471  -30.6589   24.0557 C   0  0  0  0  0  0
  -25.9074  -34.9422   23.5074 C   0  0  0  0  0  0
  -16.5362  -29.9081   23.6337 C   0  0  0  0  0  0
  -16.7290  -28.6505   23.0353 C   0  0  0  0  0  0
  -26.4519  -31.6580   25.0743 C   0  0  0  0  0  0
  -25.3711  -31.3753   26.1440 C   0  0  0  0  0  0
  -27.0377  -30.2978   24.6315 C   0  0  0  0  0  0
  -27.6064  -32.4334   25.7517 C   0  0  0  0  0  0
  -27.5580  -37.1790   24.8463 C   0  0  0  0  0  0
  -21.4253  -29.3050   22.3621 N   0  0  0  0  0  0
  -26.4294  -37.3754   23.9404 N   0  0  0  0  0  0
  -24.7119  -31.0395   22.0977 N   0  0  0  0  0  0
  -23.4218  -28.8120   23.3005 O   0  0  0  0  0  0
  -28.2378  -26.1845   20.2158 O   0  0  0  0  0  0
  -26.5634  -34.8896   22.4637 O   0  0  0  0  0  0
  -23.5526  -32.1377   23.7191 O   0  0  0  0  0  0
  -26.8124  -19.5419   19.6624 C   0  0  0  0  0  0
  -26.3709  -22.2383   19.5012 C   0  0  0  0  0  0
  -27.9181  -20.3700   20.0125 C   0  0  0  0  0  0
  -25.5534  -19.9888   19.2566 C   0  0  0  0  0  0
  -27.6788  -21.8658   19.9437 C   0  0  0  0  0  0
  -25.3318  -21.3602   19.1668 C   0  0  0  0  0  0
  -28.8603  -18.2736   21.4960 C   0  0  0  0  0  0
  -29.5661  -18.4236   19.1535 C   0  0  0  0  0  0
  -29.7428  -16.9325   21.6202 C   0  0  0  0  0  0
  -30.4454  -17.1202   19.4204 C   0  0  0  0  0  0
  -29.1524  -19.3660   20.3614 C   0  0  0  0  0  0
  -24.4693  -18.9834   18.9062 C   0  0  0  0  0  0
  -23.9893  -21.9104   18.7101 C   0  0  0  0  0  0
  -29.8710  -23.1443   19.4471 C   0  0  0  0  0  0
  -27.8401  -24.7125   20.0068 C   0  0  0  0  0  0
  -28.5672  -23.2095   20.2482 C   0  0  1  0  0  0
  -29.9551  -16.0879   20.3994 N   0  0  0  0  0  0
  -31.4617  -12.6411   19.1713 H   0  0  0  0  0  0
  -30.3786  -11.5702   20.0142 H   0  0  0  0  0  0
  -29.8072  -11.7137   17.5592 H   0  0  0  0  0  0
  -29.6145  -13.4456   17.6940 H   0  0  0  0  0  0
  -27.9193  -11.2764   18.9637 H   0  0  0  0  0  0
  -27.3764  -12.4678   17.8126 H   0  0  0  0  0  0
  -27.5988  -14.2551   19.4170 H   0  0  0  0  0  0
  -28.7395  -12.3017   21.4721 H   0  0  0  0  0  0
  -28.3987  -14.0004   21.7334 H   0  0  0  0  0  0
  -25.2772   -9.5687   22.4761 H   0  0  0  0  0  0
  -24.0005   -7.4642   22.7473 H   0  0  0  0  0  0
  -21.0856   -8.8792   19.8951 H   0  0  0  0  0  0
  -22.3720  -10.9684   19.6167 H   0  0  0  0  0  0
  -21.2016   -7.6151   23.9721 H   0  0  0  0  0  0
  -21.1474   -6.0524   25.9078 H   0  0  0  0  0  0
  -22.0600   -2.7611   23.2848 H   0  0  0  0  0  0
  -22.4080  -11.9864   22.4806 H   0  0  0  0  0  0
  -21.1070  -13.1218   22.2638 H   0  0  0  0  0  0
  -24.6615  -15.8556   20.5603 H   0  0  0  0  0  0
  -26.2875  -15.6363   20.1472 H   0  0  0  0  0  0
  -26.7259  -32.5337   23.1059 H   0  0  0  0  0  0
  -25.0112  -33.9672   25.0378 H   0  0  0  0  0  0
  -22.7402  -31.3010   21.3958 H   0  0  0  0  0  0
  -23.3759  -35.9590   23.3291 H   0  0  0  0  0  0
  -24.3581  -36.8907   22.2054 H   0  0  0  0  0  0
  -23.7245  -37.6460   23.6678 H   0  0  0  0  0  0
  -26.1526  -31.4964   20.6240 H   0  0  0  0  0  0
  -26.8672  -30.7793   22.0340 H   0  0  0  0  0  0
  -28.1229  -28.8237   21.2357 H   0  0  0  0  0  0
  -25.8656  -25.9084   18.9608 H   0  0  0  0  0  0
  -23.9627  -27.3439   18.9673 H   0  0  0  0  0  0
  -23.7954  -30.5996   19.4067 H   0  0  0  0  0  0
  -22.7772  -29.2614   19.8430 H   0  0  0  0  0  0
  -25.1309  -36.1886   25.0805 H   0  0  0  0  0  0
  -21.0004  -28.3303   24.1367 H   0  0  0  0  0  0
  -20.5711  -26.2322   23.3609 H   0  0  0  0  0  0
  -21.6663  -26.7449   22.1183 H   0  0  0  0  0  0
  -19.6928  -25.6289   21.1258 H   0  0  0  0  0  0
  -19.6711  -27.3177   20.6727 H   0  0  0  0  0  0
  -17.4221  -26.6681   21.4018 H   0  0  0  0  0  0
  -18.0342  -26.0088   22.9019 H   0  0  0  0  0  0
  -19.7949  -30.7297   24.2235 H   0  0  0  0  0  0
  -17.5023  -31.6270   24.5157 H   0  0  0  0  0  0
  -15.5362  -30.2968   23.7687 H   0  0  0  0  0  0
  -15.8694  -28.0818   22.7075 H   0  0  0  0  0  0
  -24.5900  -30.7090   25.7765 H   0  0  0  0  0  0
  -24.8875  -32.2918   26.4824 H   0  0  0  0  0  0
  -25.7991  -30.8960   27.0254 H   0  0  0  0  0  0
  -26.2991  -29.6714   24.1303 H   0  0  0  0  0  0
  -27.3969  -29.7264   25.4886 H   0  0  0  0  0  0
  -27.8908  -30.4213   23.9643 H   0  0  0  0  0  0
  -27.2684  -33.3659   26.2047 H   0  0  0  0  0  0
  -28.3898  -32.6864   25.0359 H   0  0  0  0  0  0
  -28.0711  -31.8495   26.5474 H   0  0  0  0  0  0
  -28.2584  -38.0099   24.7518 H   0  0  0  0  0  0
  -28.1090  -36.2628   24.6284 H   0  0  0  0  0  0
  -27.2293  -37.1431   25.8864 H   0  0  0  0  0  0
  -20.9452  -29.8763   21.6809 H   0  0  0  0  0  0
  -26.0163  -38.2818   24.1422 H   0  0  0  0  0  0
  -26.9100  -18.4683   19.6779 H   0  0  0  0  0  0
  -26.0703  -23.2595   19.3800 H   0  0  0  0  0  0
  -28.8765  -18.7869   22.4583 H   0  0  0  0  0  0
  -27.8385  -17.9108   21.4225 H   0  0  0  0  0  0
  -28.6840  -18.0605   18.6314 H   0  0  0  0  0  0
  -30.0737  -19.0413   18.4118 H   0  0  0  0  0  0
  -29.2992  -16.3002   22.3909 H   0  0  0  0  0  0
  -30.7253  -17.2045   22.0118 H   0  0  0  0  0  0
  -31.4456  -17.4391   19.7214 H   0  0  0  0  0  0
  -30.5876  -16.6217   18.4593 H   0  0  0  0  0  0
  -30.0155  -19.9618   20.6594 H   0  0  0  0  0  0
  -24.7842  -17.9602   19.1145 H   0  0  0  0  0  0
  -24.2232  -19.0452   17.8460 H   0  0  0  0  0  0
  -23.5645  -19.1731   19.4839 H   0  0  0  0  0  0
  -24.0097  -22.9945   18.5955 H   0  0  0  0  0  0
  -23.2110  -21.6666   19.4339 H   0  0  0  0  0  0
  -23.7071  -21.4866   17.7462 H   0  0  0  0  0  0
  -30.4443  -22.2522   19.6981 H   0  0  0  0  0  0
  -30.4983  -24.0117   19.6519 H   0  0  0  0  0  0
  -29.6698  -23.1235   18.3759 H   0  0  0  0  0  0
  -26.9362  -24.6539   20.6142 H   0  0  0  0  0  0
  -27.5670  -24.6904   18.9520 H   0  0  0  0  0  0
  -28.8280  -23.1527   21.3057 H   0  0  0  0  0  0
  1 25  1  0  0  0
  1 30  2  0  0  0
  1 87  1  0  0  0
  2  3  1  0  0  0
  2 25  1  0  0  0
  2 88  1  0  0  0
  2 89  1  0  0  0
  3  4  1  0  0  0
  3 90  1  0  0  0
  3 91  1  0  0  0
  4  5  1  0  0  0
  4 92  1  0  0  0
  4 93  1  0  0  0
  5  6  1  0  0  0
  5 26  1  0  0  0
  5 94  1  0  0  0
  6 25  1  0  0  0
  6 95  1  0  0  0
  6 96  1  0  0  0
  7  8  2  0  0  0
  7 26  1  0  0  0
  7 29  1  0  0  0
  8  9  1  0  0  0
  8 22  1  0  0  0
  9 10  1  0  0  0
  9 27  2  0  0  0
 10 11  2  0  0  0
 10 15  1  0  0  0
 11 12  1  0  0  0
 11 97  1  0  0  0
 12 13  2  0  0  0
 12 98  1  0  0  0
 13 14  1  0  0  0
 13 31  1  0  0  0
 14 15  2  0  0  0
 14 99  1  0  0  0
 15100  1  0  0  0
 16 17  2  0  0  0
 16 21  1  0  0  0
 16 31  1  0  0  0
 17 18  1  0  0  0
 17101  1  0  0  0
 18 19  2  0  0  0
 18102  1  0  0  0
 19 20  1  0  0  0
 19 24  1  0  0  0
 20 21  2  0  0  0
 20103  1  0  0  0
 21 23  1  0  0  0
 22 28  1  0  0  0
 22 32  2  0  0  0
 26 27  1  0  0  0
 28104  1  0  0  0
 28105  1  0  0  0
 29106  1  0  0  0
 29107  1  0  0  0
 33 34  1  0  0  0
 33 66  1  0  0  0
 33 70  2  0  0  0
 34 36  1  0  0  0
 34 59  1  0  0  0
 34108  1  0  0  0
 35 44  2  0  0  0
 35 45  1  0  0  0
 35 68  1  0  0  0
 36 56  1  0  0  0
 36109  1  0  0  0
 37 39  1  0  0  0
 37 47  1  0  0  0
 37 66  1  0  0  0
 37110  1  0  0  0
 38 43  2  0  0  0
 38 46  1  0  0  0
 38 47  1  0  0  0
 39 64  1  0  0  0
 39 67  2  0  0  0
 40 52  1  0  0  0
 40 53  2  0  0  0
 40 58  1  0  0  0
 41111  1  0  0  0
 41112  1  0  0  0
 41113  1  0  0  0
 41 48  1  0  0  0
 42 43  1  0  0  0
 42 66  1  0  0  0
 42114  1  0  0  0
 42115  1  0  0  0
 43 44  1  0  0  0
 44116  1  0  0  0
 45 46  2  0  0  0
 45117  1  0  0  0
 46118  1  0  0  0
 47119  1  0  0  0
 47120  1  0  0  0
 48 56  1  0  0  0
 48 65  1  0  0  0
 48121  1  0  0  0
 49 50  1  0  0  0
 49 53  1  0  0  0
 49 64  1  0  0  0
 49122  1  0  0  0
 50 51  1  0  0  0
 50123  1  0  0  0
 50124  1  0  0  0
 51 52  1  0  0  0
 51125  1  0  0  0
 51126  1  0  0  0
 52127  1  0  0  0
 52128  1  0  0  0
 53 54  1  0  0  0
 54 55  2  0  0  0
 54129  1  0  0  0
 55 57  1  0  0  0
 55130  1  0  0  0
 56 69  2  0  0  0
 57 58  2  0  0  0
 57131  1  0  0  0
 58132  1  0  0  0
 59 60  1  0  0  0
 59 61  1  0  0  0
 59 62  1  0  0  0
 60133  1  0  0  0
 60134  1  0  0  0
 60135  1  0  0  0
 61136  1  0  0  0
 61137  1  0  0  0
 61138  1  0  0  0
 62139  1  0  0  0
 62140  1  0  0  0
 62141  1  0  0  0
 63 65  1  0  0  0
 63142  1  0  0  0
 63143  1  0  0  0
 63144  1  0  0  0
 64145  1  0  0  0
 65146  1  0  0  0
 68 85  1  0  0  0
 71 73  2  0  0  0
 71 74  1  0  0  0
 71147  1  0  0  0
 72 75  2  0  0  0
 72 76  1  0  0  0
 72148  1  0  0  0
 73 75  1  0  0  0
 73 81  1  0  0  0
 74 76  2  0  0  0
 74 82  1  0  0  0
 75 86  1  0  0  0
 76 83  1  0  0  0
 77 79  1  0  0  0
 77 81  1  0  0  0
 77149  1  0  0  0
 77150  1  0  0  0
 78 80  1  0  0  0
 78 81  1  0  0  0
 78151  1  0  0  0
 78152  1  0  0  0
 79 87  1  0  0  0
 79153  1  0  0  0
 79154  1  0  0  0
 80 87  1  0  0  0
 80155  1  0  0  0
 80156  1  0  0  0
 81157  1  0  0  0
 82158  1  0  0  0
 82159  1  0  0  0
 82160  1  0  0  0
 83161  1  0  0  0
 83162  1  0  0  0
 83163  1  0  0  0
 84164  1  0  0  0
 84165  1  0  0  0
 84166  1  0  0  0
 84 86  1  0  0  0
 85 86  1  0  0  0
 85167  1  0  0  0
 85168  1  0  0  0
 86169  1  0  0  0
M  ISO  4   1 100  68 101  85 101  87 100
M  END
> <chiral flag>
0

> <version>
0

> <s_m_source_file>
/data/baiqing/PycharmProjects/Reinvent-master-3.2/result/LINK_invent/BTK/process_docking_weight1_custom_sum_contain_oxygen_bond_distance_aromatic_linkinvent_7_9_3/rearranged_h_0155.sdf

> <i_m_source_file_index>
76

> <r_mmod_Potential_Energy-OPLS-2005>
710.531188964844

> <r_mmod_Stretch_Energy-OPLS-2005>
221.543685913086

> <r_mmod_Bend_Energy-OPLS-2005>
329.11328125

> <r_mmod_Torsional_Energy-OPLS-2005>
319.889434814453

> <r_mmod_Improper_Torsional_Energy-OPLS-2005>
16.2629947662354

> <r_mmod_Van_der_Waal_Energy-OPLS-2005>
168.381561279297

> <r_mmod_Electrostatic_Energy-OPLS-2005>
-304.936218261719

> <r_mmod_Solvation_Energy-OPLS-2005>
-186.414123535156

> <b_mmod_Minimization_Converged-OPLS-2005>
0

> <r_mmod_RMS_Derivative-OPLS-2005>
0.954546928405762

$$$$
76
                    3D
 Structure written by MMmdl.
172183  0  0  1  0            999 V2000
  -30.6960  -14.4776   20.5215 C   0  0  0  0  0  0
  -30.4121  -12.2945   19.4235 C   0  0  0  0  0  0
  -29.4888  -12.5050   18.2051 C   0  0  0  0  0  0
  -28.0091  -12.3677   18.6170 C   0  0  0  0  0  0
  -27.6536  -13.2056   19.8747 C   0  0  2  0  0  0
  -28.7010  -13.0096   20.9966 C   0  0  0  0  0  0
  -25.2547  -13.8165   20.5711 C   0  0  0  0  0  0
  -24.1799  -13.0434   20.9188 C   0  0  0  0  0  0
  -24.6369  -11.6904   20.8751 C   0  0  0  0  0  0
  -23.9042  -10.4293   21.0407 C   0  0  0  0  0  0
  -24.3602   -9.4213   21.9186 C   0  0  0  0  0  0
  -23.6284   -8.2246   22.0759 C   0  0  0  0  0  0
  -22.4271   -8.0281   21.3549 C   0  0  0  0  0  0
  -21.9913   -9.0243   20.4640 C   0  0  0  0  0  0
  -22.7227  -10.2128   20.3042 C   0  0  0  0  0  0
  -21.6845   -6.0734   22.5269 C   0  0  0  0  0  0
  -21.4002   -6.5638   23.8207 C   0  0  0  0  0  0
  -21.3657   -5.6788   24.9166 C   0  0  0  0  0  0
  -21.6042   -4.3045   24.7225 C   0  0  0  0  0  0
  -21.8815   -3.8143   23.4346 C   0  0  0  0  0  0
  -21.9191   -4.6965   22.3398 C   0  0  0  0  0  0
  -22.7831  -13.5233   21.1874 C   0  0  0  0  0  0
  -22.1663   -4.2150   21.0979 F   0  0  0  0  0  0
  -21.5643   -3.4529   25.7744 F   0  0  0  0  0  0
  -30.0289  -13.2946   20.4308 N   0  0  0  0  0  0
  -26.2984  -12.9323   20.3392 N   0  0  0  0  0  0
  -25.9291  -11.6485   20.5779 N   0  0  0  0  0  0
  -22.0470  -12.8189   22.0403 N   0  0  0  0  0  0
  -25.4283  -15.1886   20.4156 N   0  0  0  0  0  0
  -31.8654  -14.6128   20.1488 O   0  0  0  0  0  0
  -21.6635   -6.8878   21.4236 O   0  0  0  0  0  0
  -22.3526  -14.5554   20.6753 O   0  0  0  0  0  0
  -24.6101  -31.8704   23.2112 C   0  0  0  0  0  0
  -25.9006  -32.4832   23.8404 C   0  0  1  0  0  0
  -27.2477  -27.4664   20.1080 C   0  0  0  0  0  0
  -25.5874  -33.8625   24.2344 N   0  0  0  0  0  0
  -23.3966  -30.4923   21.5493 C   0  0  2  0  0  0
  -24.8478  -28.9590   20.1167 C   0  0  0  0  0  0
  -22.7384  -29.4672   22.4999 C   0  0  0  0  0  0
  -18.0265  -28.1381   22.8490 C   0  0  0  0  0  0
  -24.1481  -36.7305   23.2646 C   0  0  0  0  0  0
  -25.9188  -30.8503   21.3554 C   0  0  0  0  0  0
  -26.0018  -29.4829   20.7138 C   0  0  0  0  0  0
  -27.2044  -28.7464   20.7078 C   0  0  0  0  0  0
  -26.0845  -26.9587   19.4958 C   0  0  0  0  0  0
  -24.8824  -27.6928   19.5053 C   0  0  0  0  0  0
  -23.6061  -29.8197   20.1648 C   0  0  0  0  0  0
  -25.4102  -36.3112   24.0352 C   0  0  1  0  0  0
  -20.5849  -28.3663   23.1327 C   0  0  2  0  0  0
  -20.6754  -26.9406   22.5420 C   0  0  0  0  0  0
  -19.5738  -26.6394   21.5211 C   0  0  0  0  0  0
  -18.1910  -26.7935   22.1607 C   0  0  0  0  0  0
  -19.1512  -28.8840   23.2908 C   0  0  0  0  0  0
  -18.9449  -30.1448   23.8920 C   0  0  0  0  0  0
  -17.6456  -30.6590   24.0575 C   0  0  0  0  0  0
  -25.9023  -34.9481   23.5145 C   0  0  0  0  0  0
  -16.5345  -29.9102   23.6326 C   0  0  0  0  0  0
  -16.7260  -28.6517   23.0341 C   0  0  0  0  0  0
  -26.4457  -31.6583   25.0701 C   0  0  0  0  0  0
  -25.3750  -31.3639   26.1457 C   0  0  0  0  0  0
  -27.0303  -30.3050   24.6013 C   0  0  0  0  0  0
  -27.6014  -32.4314   25.7479 C   0  0  0  0  0  0
  -27.5579  -37.1807   24.8465 C   0  0  0  0  0  0
  -21.4117  -29.3035   22.3742 N   0  0  0  0  0  0
  -26.4284  -37.3802   23.9421 N   0  0  0  0  0  0
  -24.6597  -31.0851   22.0982 N   0  0  0  0  0  0
  -23.4168  -28.8225   23.3040 O   0  0  0  0  0  0
  -28.3880  -26.6979   20.0566 O   0  0  0  0  0  0
  -26.5591  -34.8932   22.4713 O   0  0  0  0  0  0
  -23.5304  -32.1421   23.7536 O   0  0  0  0  0  0
  -31.1212  -20.5421   21.9721 C   0  0  0  0  0  0
  -31.1179  -21.9323   22.1899 C   0  0  0  0  0  0
  -29.4782  -20.8263   20.2064 C   0  0  0  0  0  0
  -30.2980  -19.9651   20.9812 C   0  0  0  0  0  0
  -30.3087  -22.7882   21.4153 C   0  0  0  0  0  0
  -29.4871  -22.2334   20.4086 C   0  0  0  0  0  0
  -28.0677  -23.7243   17.4468 C   0  0  0  0  0  0
  -28.9331  -22.4916   17.2859 C   0  0  0  0  0  0
  -30.2468  -17.6079   22.0500 C   0  0  0  0  0  0
  -29.4073  -17.8895   19.6824 C   0  0  0  0  0  0
  -30.0015  -24.8509   22.9967 C   0  0  0  0  0  0
  -29.5743  -16.2181   21.8766 C   0  0  0  0  0  0
  -29.7074  -16.4045   19.3912 C   0  0  0  0  0  0
  -30.3683  -18.4434   20.7479 C   0  0  0  0  0  0
  -30.3857  -24.2752   21.6580 C   0  0  2  0  0  0
  -29.1692  -25.1801   21.7743 C   0  0  2  0  0  0
  -28.0647  -22.6528   18.5103 C   0  0  0  0  0  0
  -29.1741  -26.6073   21.2466 C   0  0  0  0  0  0
  -29.8914  -15.5668   20.5966 N   0  0  0  0  0  0
  -28.7371  -23.1200   19.6675 O   0  0  0  0  0  0
  -31.4588  -12.3742   19.1253 H   0  0  0  0  0  0
  -30.2928  -11.2872   19.8257 H   0  0  0  0  0  0
  -29.7268  -11.7872   17.4190 H   0  0  0  0  0  0
  -29.6586  -13.4944   17.7765 H   0  0  0  0  0  0
  -27.8128  -11.3120   18.8094 H   0  0  0  0  0  0
  -27.3605  -12.6472   17.7866 H   0  0  0  0  0  0
  -27.6789  -14.2487   19.5686 H   0  0  0  0  0  0
  -28.6710  -11.9871   21.3747 H   0  0  0  0  0  0
  -28.4783  -13.6516   21.8500 H   0  0  0  0  0  0
  -25.2737   -9.5704   22.4767 H   0  0  0  0  0  0
  -23.9988   -7.4642   22.7484 H   0  0  0  0  0  0
  -21.0854   -8.8744   19.8941 H   0  0  0  0  0  0
  -22.3672  -10.9667   19.6148 H   0  0  0  0  0  0
  -21.1974   -7.6141   23.9714 H   0  0  0  0  0  0
  -21.1487   -6.0517   25.9072 H   0  0  0  0  0  0
  -22.0596   -2.7606   23.2845 H   0  0  0  0  0  0
  -22.4074  -11.9803   22.4706 H   0  0  0  0  0  0
  -21.1102  -13.1212   22.2653 H   0  0  0  0  0  0
  -24.6668  -15.8488   20.5325 H   0  0  0  0  0  0
  -26.2949  -15.6285   20.1320 H   0  0  0  0  0  0
  -26.7080  -32.5581   23.1179 H   0  0  0  0  0  0
  -25.0041  -33.9790   25.0500 H   0  0  0  0  0  0
  -22.6837  -31.3076   21.4078 H   0  0  0  0  0  0
  -23.3751  -35.9624   23.3300 H   0  0  0  0  0  0
  -24.3580  -36.8931   22.2059 H   0  0  0  0  0  0
  -23.7210  -37.6503   23.6663 H   0  0  0  0  0  0
  -26.0176  -31.6142   20.5827 H   0  0  0  0  0  0
  -26.8113  -30.9150   21.9657 H   0  0  0  0  0  0
  -28.0942  -29.1711   21.1513 H   0  0  0  0  0  0
  -26.1115  -25.9864   19.0244 H   0  0  0  0  0  0
  -23.9973  -27.2822   19.0385 H   0  0  0  0  0  0
  -23.7082  -30.5916   19.4015 H   0  0  0  0  0  0
  -22.7330  -29.2334   19.8727 H   0  0  0  0  0  0
  -25.1271  -36.1984   25.0845 H   0  0  0  0  0  0
  -20.9948  -28.3236   24.1444 H   0  0  0  0  0  0
  -20.5672  -26.2274   23.3602 H   0  0  0  0  0  0
  -21.6631  -26.7452   22.1226 H   0  0  0  0  0  0
  -19.6908  -25.6313   21.1221 H   0  0  0  0  0  0
  -19.6696  -27.3227   20.6761 H   0  0  0  0  0  0
  -17.4198  -26.6722   21.3988 H   0  0  0  0  0  0
  -18.0284  -26.0062   22.8982 H   0  0  0  0  0  0
  -19.7931  -30.7253   24.2305 H   0  0  0  0  0  0
  -17.5017  -31.6270   24.5188 H   0  0  0  0  0  0
  -15.5353  -30.3016   23.7642 H   0  0  0  0  0  0
  -15.8659  -28.0864   22.7022 H   0  0  0  0  0  0
  -24.5964  -30.6933   25.7810 H   0  0  0  0  0  0
  -24.8890  -32.2765   26.4912 H   0  0  0  0  0  0
  -25.8151  -30.8834   27.0202 H   0  0  0  0  0  0
  -26.2827  -29.6794   24.1118 H   0  0  0  0  0  0
  -27.4173  -29.7290   25.4426 H   0  0  0  0  0  0
  -27.8608  -30.4411   23.9081 H   0  0  0  0  0  0
  -27.2613  -33.3619   26.2042 H   0  0  0  0  0  0
  -28.3837  -32.6868   25.0318 H   0  0  0  0  0  0
  -28.0653  -31.8440   26.5412 H   0  0  0  0  0  0
  -28.2575  -38.0124   24.7554 H   0  0  0  0  0  0
  -28.1100  -36.2659   24.6247 H   0  0  0  0  0  0
  -27.2307  -37.1414   25.8870 H   0  0  0  0  0  0
  -20.9274  -29.8764   21.6973 H   0  0  0  0  0  0
  -26.0171  -38.2876   24.1445 H   0  0  0  0  0  0
  -31.7726  -19.9187   22.5697 H   0  0  0  0  0  0
  -31.7585  -22.3498   22.9545 H   0  0  0  0  0  0
  -28.8453  -20.4098   19.4393 H   0  0  0  0  0  0
  -27.1836  -23.8110   16.8180 H   0  0  0  0  0  0
  -28.5673  -24.6648   17.6766 H   0  0  0  0  0  0
  -30.0084  -22.6020   17.4131 H   0  0  0  0  0  0
  -28.6246  -21.7535   16.5481 H   0  0  0  0  0  0
  -31.2374  -17.4900   22.4923 H   0  0  0  0  0  0
  -29.6633  -18.1622   22.7861 H   0  0  0  0  0  0
  -28.3726  -18.0193   20.0054 H   0  0  0  0  0  0
  -29.5152  -18.4375   18.7462 H   0  0  0  0  0  0
  -30.6308  -25.6406   23.4053 H   0  0  0  0  0  0
  -29.5522  -24.1839   23.7314 H   0  0  0  0  0  0
  -28.4899  -16.3326   21.9169 H   0  0  0  0  0  0
  -29.8330  -15.5741   22.7193 H   0  0  0  0  0  0
  -30.6016  -16.3577   18.7667 H   0  0  0  0  0  0
  -28.9050  -15.9864   18.7833 H   0  0  0  0  0  0
  -31.3741  -18.2705   20.3586 H   0  0  0  0  0  0
  -31.2638  -24.6899   21.1672 H   0  0  0  0  0  0
  -28.1893  -24.7056   21.7508 H   0  0  0  0  0  0
  -27.1639  -22.0611   18.6685 H   0  0  0  0  0  0
  -30.1960  -26.9172   21.0257 H   0  0  0  0  0  0
  -28.8160  -27.2513   22.0515 H   0  0  0  0  0  0
  1 25  1  0  0  0
  1 30  2  0  0  0
  1 89  1  0  0  0
  2  3  1  0  0  0
  2 25  1  0  0  0
  2 91  1  0  0  0
  2 92  1  0  0  0
  3  4  1  0  0  0
  3 93  1  0  0  0
  3 94  1  0  0  0
  4  5  1  0  0  0
  4 95  1  0  0  0
  4 96  1  0  0  0
  5  6  1  0  0  0
  5 26  1  0  0  0
  5 97  1  0  0  0
  6 25  1  0  0  0
  6 98  1  0  0  0
  6 99  1  0  0  0
  7  8  2  0  0  0
  7 26  1  0  0  0
  7 29  1  0  0  0
  8  9  1  0  0  0
  8 22  1  0  0  0
  9 10  1  0  0  0
  9 27  2  0  0  0
 10 11  2  0  0  0
 10 15  1  0  0  0
 11 12  1  0  0  0
 11100  1  0  0  0
 12 13  2  0  0  0
 12101  1  0  0  0
 13 14  1  0  0  0
 13 31  1  0  0  0
 14 15  2  0  0  0
 14102  1  0  0  0
 15103  1  0  0  0
 16 17  2  0  0  0
 16 21  1  0  0  0
 16 31  1  0  0  0
 17 18  1  0  0  0
 17104  1  0  0  0
 18 19  2  0  0  0
 18105  1  0  0  0
 19 20  1  0  0  0
 19 24  1  0  0  0
 20 21  2  0  0  0
 20106  1  0  0  0
 21 23  1  0  0  0
 22 28  1  0  0  0
 22 32  2  0  0  0
 26 27  1  0  0  0
 28107  1  0  0  0
 28108  1  0  0  0
 29109  1  0  0  0
 29110  1  0  0  0
 33 34  1  0  0  0
 33 66  1  0  0  0
 33 70  2  0  0  0
 34 36  1  0  0  0
 34 59  1  0  0  0
 34111  1  0  0  0
 35 44  2  0  0  0
 35 45  1  0  0  0
 35 68  1  0  0  0
 36 56  1  0  0  0
 36112  1  0  0  0
 37 39  1  0  0  0
 37 47  1  0  0  0
 37 66  1  0  0  0
 37113  1  0  0  0
 38 43  2  0  0  0
 38 46  1  0  0  0
 38 47  1  0  0  0
 39 64  1  0  0  0
 39 67  2  0  0  0
 40 52  1  0  0  0
 40 53  2  0  0  0
 40 58  1  0  0  0
 41114  1  0  0  0
 41115  1  0  0  0
 41116  1  0  0  0
 41 48  1  0  0  0
 42 43  1  0  0  0
 42 66  1  0  0  0
 42117  1  0  0  0
 42118  1  0  0  0
 43 44  1  0  0  0
 44119  1  0  0  0
 45 46  2  0  0  0
 45120  1  0  0  0
 46121  1  0  0  0
 47122  1  0  0  0
 47123  1  0  0  0
 48 56  1  0  0  0
 48 65  1  0  0  0
 48124  1  0  0  0
 49 50  1  0  0  0
 49 53  1  0  0  0
 49 64  1  0  0  0
 49125  1  0  0  0
 50 51  1  0  0  0
 50126  1  0  0  0
 50127  1  0  0  0
 51 52  1  0  0  0
 51128  1  0  0  0
 51129  1  0  0  0
 52130  1  0  0  0
 52131  1  0  0  0
 53 54  1  0  0  0
 54 55  2  0  0  0
 54132  1  0  0  0
 55 57  1  0  0  0
 55133  1  0  0  0
 56 69  2  0  0  0
 57 58  2  0  0  0
 57134  1  0  0  0
 58135  1  0  0  0
 59 60  1  0  0  0
 59 61  1  0  0  0
 59 62  1  0  0  0
 60136  1  0  0  0
 60137  1  0  0  0
 60138  1  0  0  0
 61139  1  0  0  0
 61140  1  0  0  0
 61141  1  0  0  0
 62142  1  0  0  0
 62143  1  0  0  0
 62144  1  0  0  0
 63 65  1  0  0  0
 63145  1  0  0  0
 63146  1  0  0  0
 63147  1  0  0  0
 64148  1  0  0  0
 65149  1  0  0  0
 68 88  1  0  0  0
 71 72  2  0  0  0
 71 74  1  0  0  0
 71150  1  0  0  0
 72 75  1  0  0  0
 72151  1  0  0  0
 73 74  2  0  0  0
 73 76  1  0  0  0
 73152  1  0  0  0
 74 84  1  0  0  0
 75 76  2  0  0  0
 75 85  1  0  0  0
 76 90  1  0  0  0
 77 78  1  0  0  0
 77 87  1  0  0  0
 77153  1  0  0  0
 77154  1  0  0  0
 78 87  1  0  0  0
 78155  1  0  0  0
 78156  1  0  0  0
 79 82  1  0  0  0
 79 84  1  0  0  0
 79157  1  0  0  0
 79158  1  0  0  0
 80 83  1  0  0  0
 80 84  1  0  0  0
 80159  1  0  0  0
 80160  1  0  0  0
 81 85  1  0  0  0
 81 86  1  0  0  0
 81161  1  0  0  0
 81162  1  0  0  0
 82 89  1  0  0  0
 82163  1  0  0  0
 82164  1  0  0  0
 83 89  1  0  0  0
 83165  1  0  0  0
 83166  1  0  0  0
 84167  1  0  0  0
 85 86  1  0  0  0
 85168  1  0  0  0
 86 88  1  0  0  0
 86169  1  0  0  0
 87 90  1  0  0  0
 87170  1  0  0  0
 88171  1  0  0  0
 88172  1  0  0  0
M  ISO  4   1 100  68 101  88 101  89 100
M  END
> <chiral flag>
0

> <version>
0

> <s_m_source_file>
/data/baiqing/PycharmProjects/Reinvent-master-3.2/result/LINK_invent/BTK/process_docking_weight1_custom_sum_contain_oxygen_bond_distance_aromatic_linkinvent_7_9_3/rearranged_h_0155.sdf

> <i_m_source_file_index>
77

> <r_mmod_Potential_Energy-OPLS-2005>
251.071228027344

> <r_mmod_Stretch_Energy-OPLS-2005>
38.6490135192871

> <r_mmod_Bend_Energy-OPLS-2005>
113.307983398438

> <r_mmod_Torsional_Energy-OPLS-2005>
411.47802734375

> <r_mmod_Improper_Torsional_Energy-OPLS-2005>
14.6119556427002

> <r_mmod_Van_der_Waal_Energy-OPLS-2005>
151.857635498047

> <r_mmod_Electrostatic_Energy-OPLS-2005>
-293.865814208984

> <r_mmod_Solvation_Energy-OPLS-2005>
-198.176483154297

> <b_mmod_Minimization_Converged-OPLS-2005>
0

> <r_mmod_RMS_Derivative-OPLS-2005>
2.04479598999023

$$$$
77
                    3D
 Structure written by MMmdl.
179189  0  0  1  0            999 V2000
  -30.6831  -14.4352   20.5578 C   0  0  0  0  0  0
  -30.4336  -12.2802   19.4070 C   0  0  0  0  0  0
  -29.4928  -12.4839   18.1995 C   0  0  0  0  0  0
  -28.0121  -12.3537   18.6173 C   0  0  0  0  0  0
  -27.6659  -13.1817   19.8841 C   0  0  2  0  0  0
  -28.7136  -12.9028   20.9899 C   0  0  0  0  0  0
  -25.2614  -13.8098   20.5642 C   0  0  0  0  0  0
  -24.1834  -13.0412   20.9142 C   0  0  0  0  0  0
  -24.6364  -11.6865   20.8754 C   0  0  0  0  0  0
  -23.9032  -10.4266   21.0418 C   0  0  0  0  0  0
  -24.3588   -9.4184   21.9191 C   0  0  0  0  0  0
  -23.6261   -8.2227   22.0762 C   0  0  0  0  0  0
  -22.4248   -8.0271   21.3547 C   0  0  0  0  0  0
  -21.9878   -9.0243   20.4651 C   0  0  0  0  0  0
  -22.7206  -10.2117   20.3067 C   0  0  0  0  0  0
  -21.6852   -6.0724   22.5283 C   0  0  0  0  0  0
  -21.4015   -6.5619   23.8224 C   0  0  0  0  0  0
  -21.3657   -5.6775   24.9181 C   0  0  0  0  0  0
  -21.6048   -4.3042   24.7235 C   0  0  0  0  0  0
  -21.8818   -3.8132   23.4359 C   0  0  0  0  0  0
  -21.9178   -4.6947   22.3407 C   0  0  0  0  0  0
  -22.7862  -13.5244   21.1807 C   0  0  0  0  0  0
  -22.1627   -4.2131   21.0984 F   0  0  0  0  0  0
  -21.5648   -3.4531   25.7754 F   0  0  0  0  0  0
  -30.0322  -13.2465   20.4386 N   0  0  0  0  0  0
  -26.3050  -12.9212   20.3423 N   0  0  0  0  0  0
  -25.9293  -11.6407   20.5822 N   0  0  0  0  0  0
  -22.0484  -12.8267   22.0374 N   0  0  0  0  0  0
  -25.4373  -15.1803   20.3996 N   0  0  0  0  0  0
  -31.8434  -14.5887   20.1595 O   0  0  0  0  0  0
  -21.6627   -6.8862   21.4243 O   0  0  0  0  0  0
  -22.3558  -14.5564   20.6669 O   0  0  0  0  0  0
  -24.6054  -31.8727   23.2128 C   0  0  0  0  0  0
  -25.8984  -32.4849   23.8415 C   0  0  1  0  0  0
  -27.2696  -27.5137   20.0819 C   0  0  0  0  0  0
  -25.5880  -33.8643   24.2359 N   0  0  0  0  0  0
  -23.3924  -30.4903   21.5510 C   0  0  2  0  0  0
  -24.8460  -28.9592   20.1197 C   0  0  0  0  0  0
  -22.7379  -29.4659   22.5029 C   0  0  0  0  0  0
  -18.0267  -28.1365   22.8508 C   0  0  0  0  0  0
  -24.1491  -36.7320   23.2639 C   0  0  0  0  0  0
  -25.9098  -30.8592   21.3570 C   0  0  0  0  0  0
  -25.9927  -29.4952   20.7143 C   0  0  0  0  0  0
  -27.1982  -28.7741   20.7121 C   0  0  0  0  0  0
  -26.1009  -26.9620   19.5158 C   0  0  0  0  0  0
  -24.8897  -27.6838   19.5240 C   0  0  0  0  0  0
  -23.5996  -29.8121   20.1676 C   0  0  0  0  0  0
  -25.4111  -36.3136   24.0351 C   0  0  1  0  0  0
  -20.5851  -28.3636   23.1353 C   0  0  2  0  0  0
  -20.6752  -26.9380   22.5433 C   0  0  0  0  0  0
  -19.5726  -26.6382   21.5224 C   0  0  0  0  0  0
  -18.1906  -26.7920   22.1632 C   0  0  0  0  0  0
  -19.1515  -28.8824   23.2926 C   0  0  0  0  0  0
  -18.9439  -30.1442   23.8921 C   0  0  0  0  0  0
  -17.6437  -30.6577   24.0574 C   0  0  0  0  0  0
  -25.9029  -34.9493   23.5157 C   0  0  0  0  0  0
  -16.5335  -29.9076   23.6333 C   0  0  0  0  0  0
  -16.7262  -28.6493   23.0355 C   0  0  0  0  0  0
  -26.4451  -31.6601   25.0708 C   0  0  0  0  0  0
  -25.3750  -31.3669   26.1480 C   0  0  0  0  0  0
  -27.0264  -30.3061   24.6022 C   0  0  0  0  0  0
  -27.6056  -32.4297   25.7453 C   0  0  0  0  0  0
  -27.5596  -37.1819   24.8469 C   0  0  0  0  0  0
  -21.4119  -29.3008   22.3780 N   0  0  0  0  0  0
  -26.4307  -37.3808   23.9412 N   0  0  0  0  0  0
  -24.6532  -31.0883   22.0994 N   0  0  0  0  0  0
  -23.4188  -28.8226   23.3066 O   0  0  0  0  0  0
  -28.4408  -26.7980   20.0135 O   0  0  0  0  0  0
  -26.5577  -34.8939   22.4709 O   0  0  0  0  0  0
  -23.5267  -32.1432   23.7577 O   0  0  0  0  0  0
  -29.5508  -21.5159   19.6009 C   0  0  0  0  0  0
  -29.6721  -20.4348   17.4472 C   0  0  0  0  0  0
  -29.7798  -21.5978   18.2171 C   0  0  0  0  0  0
  -29.2052  -19.0803   19.4658 C   0  0  0  0  0  0
  -29.2694  -20.2894   20.2356 C   0  0  0  0  0  0
  -29.3552  -19.2001   18.0453 C   0  0  0  0  0  0
  -28.8322  -17.4317   21.5703 C   0  0  0  0  0  0
  -28.7307  -23.7460   17.4849 C   0  0  0  0  0  0
  -31.2107  -23.7045   18.2358 C   0  0  0  0  0  0
  -29.0076  -15.9245   21.7312 C   0  0  0  0  0  0
  -30.0911  -16.6688   19.7510 C   0  0  0  0  0  0
  -28.9466  -25.2099   17.0885 C   0  0  0  0  0  0
  -31.2825  -25.1760   17.8057 C   0  0  0  0  0  0
  -30.0487  -22.9378   17.5484 C   0  0  1  0  0  0
  -28.9651  -17.6664   20.0604 C   0  0  2  0  0  0
  -29.0190  -20.3941   21.7346 C   0  0  0  0  0  0
  -29.1593  -18.0460   17.0701 C   0  0  0  0  0  0
  -29.9144  -27.2486   18.1762 C   0  0  0  0  0  0
  -29.6278  -27.5281   19.6568 C   0  0  0  0  0  0
  -29.8672  -15.5147   20.6190 N   0  0  0  0  0  0
  -29.9499  -25.7832   18.0075 N   0  3  1  0  0  0
  -31.4725  -12.3992   19.0958 H   0  0  0  0  0  0
  -30.3602  -11.2624   19.7943 H   0  0  0  0  0  0
  -29.7263  -11.7592   17.4172 H   0  0  0  0  0  0
  -29.6658  -13.4698   17.7658 H   0  0  0  0  0  0
  -27.8167  -11.2977   18.8087 H   0  0  0  0  0  0
  -27.3617  -12.6380   17.7892 H   0  0  0  0  0  0
  -27.7172  -14.2320   19.6005 H   0  0  0  0  0  0
  -28.6980  -11.8452   21.2541 H   0  0  0  0  0  0
  -28.4988  -13.4086   21.9285 H   0  0  0  0  0  0
  -25.2733   -9.5651   22.4765 H   0  0  0  0  0  0
  -23.9978   -7.4618   22.7478 H   0  0  0  0  0  0
  -21.0821   -8.8755   19.8937 H   0  0  0  0  0  0
  -22.3678  -10.9660   19.6181 H   0  0  0  0  0  0
  -21.2011   -7.6129   23.9723 H   0  0  0  0  0  0
  -21.1485   -6.0504   25.9090 H   0  0  0  0  0  0
  -22.0607   -2.7599   23.2875 H   0  0  0  0  0  0
  -22.4072  -11.9912   22.4755 H   0  0  0  0  0  0
  -21.1135  -13.1351   22.2611 H   0  0  0  0  0  0
  -24.6787  -15.8445   20.5069 H   0  0  0  0  0  0
  -26.3047  -15.6115   20.1087 H   0  0  0  0  0  0
  -26.7068  -32.5610   23.1206 H   0  0  0  0  0  0
  -25.0066  -33.9804   25.0530 H   0  0  0  0  0  0
  -22.6776  -31.3032   21.4092 H   0  0  0  0  0  0
  -23.3759  -35.9647   23.3306 H   0  0  0  0  0  0
  -24.3587  -36.8920   22.2052 H   0  0  0  0  0  0
  -23.7230  -37.6529   23.6630 H   0  0  0  0  0  0
  -26.0099  -31.6257   20.5863 H   0  0  0  0  0  0
  -26.7992  -30.9195   21.9717 H   0  0  0  0  0  0
  -28.0625  -29.2012   21.2001 H   0  0  0  0  0  0
  -26.1407  -25.9865   19.0521 H   0  0  0  0  0  0
  -24.0068  -27.2569   19.0690 H   0  0  0  0  0  0
  -23.6945  -30.5808   19.3989 H   0  0  0  0  0  0
  -22.7298  -29.2172   19.8831 H   0  0  0  0  0  0
  -25.1285  -36.2015   25.0844 H   0  0  0  0  0  0
  -20.9939  -28.3186   24.1474 H   0  0  0  0  0  0
  -20.5667  -26.2237   23.3606 H   0  0  0  0  0  0
  -21.6620  -26.7420   22.1217 H   0  0  0  0  0  0
  -19.6885  -25.6301   21.1233 H   0  0  0  0  0  0
  -19.6689  -27.3216   20.6771 H   0  0  0  0  0  0
  -17.4198  -26.6723   21.4016 H   0  0  0  0  0  0
  -18.0271  -26.0053   22.9008 H   0  0  0  0  0  0
  -19.7910  -30.7275   24.2292 H   0  0  0  0  0  0
  -17.4979  -31.6260   24.5165 H   0  0  0  0  0  0
  -15.5334  -30.2982   23.7617 H   0  0  0  0  0  0
  -15.8667  -28.0819   22.7035 H   0  0  0  0  0  0
  -24.5893  -30.7059   25.7809 H   0  0  0  0  0  0
  -24.8975  -32.2809   26.5020 H   0  0  0  0  0  0
  -25.8128  -30.8761   27.0178 H   0  0  0  0  0  0
  -26.2768  -29.6836   24.1125 H   0  0  0  0  0  0
  -27.4106  -29.7288   25.4436 H   0  0  0  0  0  0
  -27.8580  -30.4404   23.9100 H   0  0  0  0  0  0
  -27.2699  -33.3568   26.2107 H   0  0  0  0  0  0
  -28.3825  -32.6897   25.0251 H   0  0  0  0  0  0
  -28.0770  -31.8368   26.5300 H   0  0  0  0  0  0
  -28.2628  -38.0107   24.7515 H   0  0  0  0  0  0
  -28.1083  -36.2640   24.6298 H   0  0  0  0  0  0
  -27.2308  -37.1476   25.8872 H   0  0  0  0  0  0
  -20.9282  -29.8711   21.6985 H   0  0  0  0  0  0
  -26.0215  -38.2900   24.1392 H   0  0  0  0  0  0
  -29.5743  -22.4198   20.1931 H   0  0  0  0  0  0
  -29.8046  -20.4950   16.3745 H   0  0  0  0  0  0
  -29.6601  -17.8852   22.1095 H   0  0  0  0  0  0
  -27.8895  -17.7773   21.9935 H   0  0  0  0  0  0
  -28.0350  -23.2709   16.7922 H   0  0  0  0  0  0
  -28.2378  -23.7286   18.4581 H   0  0  0  0  0  0
  -31.1074  -23.6949   19.3201 H   0  0  0  0  0  0
  -32.1576  -23.2057   18.0284 H   0  0  0  0  0  0
  -28.0252  -15.4629   21.6526 H   0  0  0  0  0  0
  -29.4339  -15.6613   22.6991 H   0  0  0  0  0  0
  -31.0602  -17.1117   19.9855 H   0  0  0  0  0  0
  -30.1231  -16.3396   18.7153 H   0  0  0  0  0  0
  -27.9982  -25.7422   17.1683 H   0  0  0  0  0  0
  -29.2776  -25.2997   16.0532 H   0  0  0  0  0  0
  -31.5852  -25.2679   16.7616 H   0  0  0  0  0  0
  -32.0375  -25.6911   18.4012 H   0  0  0  0  0  0
  -30.3621  -22.7525   16.5199 H   0  0  0  0  0  0
  -28.0360  -17.3016   19.6187 H   0  0  0  0  0  0
  -28.9450  -21.4330   22.0577 H   0  0  0  0  0  0
  -29.8407  -19.9672   22.3063 H   0  0  0  0  0  0
  -28.0747  -19.9342   22.0183 H   0  0  0  0  0  0
  -28.7519  -18.4144   16.1268 H   0  0  0  0  0  0
  -28.4577  -17.2940   17.4270 H   0  0  0  0  0  0
  -30.1137  -17.5700   16.8435 H   0  0  0  0  0  0
  -30.8557  -27.7079   17.8707 H   0  0  0  0  0  0
  -29.1340  -27.6985   17.5616 H   0  0  0  0  0  0
  -29.5818  -28.6037   19.8179 H   0  0  0  0  0  0
  -30.4520  -27.1683   20.2738 H   0  0  0  0  0  0
  -29.6440  -25.4716   18.9196 H   0  0  0  0  0  0
  1 25  1  0  0  0
  1 30  2  0  0  0
  1 90  1  0  0  0
  2  3  1  0  0  0
  2 25  1  0  0  0
  2 92  1  0  0  0
  2 93  1  0  0  0
  3  4  1  0  0  0
  3 94  1  0  0  0
  3 95  1  0  0  0
  4  5  1  0  0  0
  4 96  1  0  0  0
  4 97  1  0  0  0
  5  6  1  0  0  0
  5 26  1  0  0  0
  5 98  1  0  0  0
  6 25  1  0  0  0
  6 99  1  0  0  0
  6100  1  0  0  0
  7  8  2  0  0  0
  7 26  1  0  0  0
  7 29  1  0  0  0
  8  9  1  0  0  0
  8 22  1  0  0  0
  9 10  1  0  0  0
  9 27  2  0  0  0
 10 11  2  0  0  0
 10 15  1  0  0  0
 11 12  1  0  0  0
 11101  1  0  0  0
 12 13  2  0  0  0
 12102  1  0  0  0
 13 14  1  0  0  0
 13 31  1  0  0  0
 14 15  2  0  0  0
 14103  1  0  0  0
 15104  1  0  0  0
 16 17  2  0  0  0
 16 21  1  0  0  0
 16 31  1  0  0  0
 17 18  1  0  0  0
 17105  1  0  0  0
 18 19  2  0  0  0
 18106  1  0  0  0
 19 20  1  0  0  0
 19 24  1  0  0  0
 20 21  2  0  0  0
 20107  1  0  0  0
 21 23  1  0  0  0
 22 28  1  0  0  0
 22 32  2  0  0  0
 26 27  1  0  0  0
 28108  1  0  0  0
 28109  1  0  0  0
 29110  1  0  0  0
 29111  1  0  0  0
 33 34  1  0  0  0
 33 66  1  0  0  0
 33 70  2  0  0  0
 34 36  1  0  0  0
 34 59  1  0  0  0
 34112  1  0  0  0
 35 44  2  0  0  0
 35 45  1  0  0  0
 35 68  1  0  0  0
 36 56  1  0  0  0
 36113  1  0  0  0
 37 39  1  0  0  0
 37 47  1  0  0  0
 37 66  1  0  0  0
 37114  1  0  0  0
 38 43  2  0  0  0
 38 46  1  0  0  0
 38 47  1  0  0  0
 39 64  1  0  0  0
 39 67  2  0  0  0
 40 52  1  0  0  0
 40 53  2  0  0  0
 40 58  1  0  0  0
 41115  1  0  0  0
 41116  1  0  0  0
 41117  1  0  0  0
 41 48  1  0  0  0
 42 43  1  0  0  0
 42 66  1  0  0  0
 42118  1  0  0  0
 42119  1  0  0  0
 43 44  1  0  0  0
 44120  1  0  0  0
 45 46  2  0  0  0
 45121  1  0  0  0
 46122  1  0  0  0
 47123  1  0  0  0
 47124  1  0  0  0
 48 56  1  0  0  0
 48 65  1  0  0  0
 48125  1  0  0  0
 49 50  1  0  0  0
 49 53  1  0  0  0
 49 64  1  0  0  0
 49126  1  0  0  0
 50 51  1  0  0  0
 50127  1  0  0  0
 50128  1  0  0  0
 51 52  1  0  0  0
 51129  1  0  0  0
 51130  1  0  0  0
 52131  1  0  0  0
 52132  1  0  0  0
 53 54  1  0  0  0
 54 55  2  0  0  0
 54133  1  0  0  0
 55 57  1  0  0  0
 55134  1  0  0  0
 56 69  2  0  0  0
 57 58  2  0  0  0
 57135  1  0  0  0
 58136  1  0  0  0
 59 60  1  0  0  0
 59 61  1  0  0  0
 59 62  1  0  0  0
 60137  1  0  0  0
 60138  1  0  0  0
 60139  1  0  0  0
 61140  1  0  0  0
 61141  1  0  0  0
 61142  1  0  0  0
 62143  1  0  0  0
 62144  1  0  0  0
 62145  1  0  0  0
 63 65  1  0  0  0
 63146  1  0  0  0
 63147  1  0  0  0
 63148  1  0  0  0
 64149  1  0  0  0
 65150  1  0  0  0
 68 89  1  0  0  0
 71 73  2  0  0  0
 71 75  1  0  0  0
 71151  1  0  0  0
 72 73  1  0  0  0
 72 76  2  0  0  0
 72152  1  0  0  0
 73 84  1  0  0  0
 74 75  2  0  0  0
 74 76  1  0  0  0
 74 85  1  0  0  0
 75 86  1  0  0  0
 76 87  1  0  0  0
 77 80  1  0  0  0
 77 85  1  0  0  0
 77153  1  0  0  0
 77154  1  0  0  0
 78 82  1  0  0  0
 78 84  1  0  0  0
 78155  1  0  0  0
 78156  1  0  0  0
 79 83  1  0  0  0
 79 84  1  0  0  0
 79157  1  0  0  0
 79158  1  0  0  0
 80 90  1  0  0  0
 80159  1  0  0  0
 80160  1  0  0  0
 81 85  1  0  0  0
 81 90  1  0  0  0
 81161  1  0  0  0
 81162  1  0  0  0
 82 91  1  0  0  0
 82163  1  0  0  0
 82164  1  0  0  0
 83 91  1  0  0  0
 83165  1  0  0  0
 83166  1  0  0  0
 84167  1  0  0  0
 85168  1  0  0  0
 86169  1  0  0  0
 86170  1  0  0  0
 86171  1  0  0  0
 87172  1  0  0  0
 87173  1  0  0  0
 87174  1  0  0  0
 88 89  1  0  0  0
 88175  1  0  0  0
 88176  1  0  0  0
 88 91  1  0  0  0
 89177  1  0  0  0
 89178  1  0  0  0
 91179  1  0  0  0
M  CHG  1  91   1
M  ISO  4   1 100  68 101  89 101  90 100
M  END
> <chiral flag>
0

> <version>
0

> <s_m_source_file>
/data/baiqing/PycharmProjects/Reinvent-master-3.2/result/LINK_invent/BTK/process_docking_weight1_custom_sum_contain_oxygen_bond_distance_aromatic_linkinvent_7_9_3/rearranged_h_0155.sdf

> <i_m_source_file_index>
78

> <r_mmod_Potential_Energy-OPLS-2005>
150.144805908203

> <r_mmod_Stretch_Energy-OPLS-2005>
40.0487098693848

> <r_mmod_Bend_Energy-OPLS-2005>
161.751983642578

> <r_mmod_Torsional_Energy-OPLS-2005>
377.957122802734

> <r_mmod_Improper_Torsional_Energy-OPLS-2005>
18.27685546875

> <r_mmod_Van_der_Waal_Energy-OPLS-2005>
176.666488647461

> <r_mmod_Electrostatic_Energy-OPLS-2005>
-236.448760986328

> <r_mmod_Solvation_Energy-OPLS-2005>
-399.483032226562

> <b_mmod_Minimization_Converged-OPLS-2005>
0

> <r_mmod_RMS_Derivative-OPLS-2005>
2.16606092453003

$$$$
78
                    3D
 Structure written by MMmdl.
178188  0  0  1  0            999 V2000
  -30.7194  -14.4538   20.4027 C   0  0  0  0  0  0
  -30.4233  -12.2362   19.4214 C   0  0  0  0  0  0
  -29.4813  -12.3352   18.2016 C   0  0  0  0  0  0
  -27.9920  -12.3290   18.6111 C   0  0  0  0  0  0
  -27.6536  -13.1995   19.8518 C   0  0  2  0  0  0
  -28.7146  -13.0153   20.9600 C   0  0  0  0  0  0
  -25.2544  -13.8126   20.5679 C   0  0  0  0  0  0
  -24.1793  -13.0420   20.9193 C   0  0  0  0  0  0
  -24.6339  -11.6886   20.8757 C   0  0  0  0  0  0
  -23.9017  -10.4272   21.0443 C   0  0  0  0  0  0
  -24.3568   -9.4191   21.9230 C   0  0  0  0  0  0
  -23.6270   -8.2200   22.0741 C   0  0  0  0  0  0
  -22.4284   -8.0208   21.3494 C   0  0  0  0  0  0
  -21.9911   -9.0190   20.4604 C   0  0  0  0  0  0
  -22.7204  -10.2094   20.3067 C   0  0  0  0  0  0
  -21.6843   -6.0732   22.5281 C   0  0  0  0  0  0
  -21.4023   -6.5654   23.8222 C   0  0  0  0  0  0
  -21.3643   -5.6797   24.9169 C   0  0  0  0  0  0
  -21.6037   -4.3063   24.7235 C   0  0  0  0  0  0
  -21.8823   -3.8159   23.4366 C   0  0  0  0  0  0
  -21.9196   -4.6961   22.3424 C   0  0  0  0  0  0
  -22.7823  -13.5227   21.1861 C   0  0  0  0  0  0
  -22.1640   -4.2158   21.0991 F   0  0  0  0  0  0
  -21.5626   -3.4540   25.7744 F   0  0  0  0  0  0
  -30.0351  -13.2803   20.3716 N   0  0  0  0  0  0
  -26.2984  -12.9312   20.3337 N   0  0  0  0  0  0
  -25.9278  -11.6477   20.5806 N   0  0  0  0  0  0
  -22.0405  -12.8234   22.0384 N   0  0  0  0  0  0
  -25.4191  -15.1826   20.4052 N   0  0  0  0  0  0
  -31.9455  -14.5167   20.3424 O   0  0  0  0  0  0
  -21.6638   -6.8826   21.4209 O   0  0  0  0  0  0
  -22.3542  -14.5572   20.6721 O   0  0  0  0  0  0
  -24.6030  -31.8733   23.2137 C   0  0  0  0  0  0
  -25.8971  -32.4851   23.8407 C   0  0  1  0  0  0
  -27.2607  -27.5208   20.1077 C   0  0  0  0  0  0
  -25.5865  -33.8645   24.2350 N   0  0  0  0  0  0
  -23.3862  -30.4925   21.5505 C   0  0  2  0  0  0
  -24.8367  -28.9527   20.1263 C   0  0  0  0  0  0
  -22.7343  -29.4677   22.5029 C   0  0  0  0  0  0
  -18.0252  -28.1373   22.8489 C   0  0  0  0  0  0
  -24.1486  -36.7336   23.2634 C   0  0  0  0  0  0
  -25.9001  -30.8674   21.3483 C   0  0  0  0  0  0
  -25.9812  -29.4991   20.7150 C   0  0  0  0  0  0
  -27.1868  -28.7866   20.7057 C   0  0  0  0  0  0
  -26.1025  -26.9516   19.5267 C   0  0  0  0  0  0
  -24.8877  -27.6737   19.5346 C   0  0  0  0  0  0
  -23.5922  -29.8109   20.1673 C   0  0  0  0  0  0
  -25.4101  -36.3132   24.0344 C   0  0  1  0  0  0
  -20.5828  -28.3643   23.1355 C   0  0  2  0  0  0
  -20.6745  -26.9390   22.5434 C   0  0  0  0  0  0
  -19.5732  -26.6386   21.5215 C   0  0  0  0  0  0
  -18.1903  -26.7929   22.1617 C   0  0  0  0  0  0
  -19.1501  -28.8821   23.2919 C   0  0  0  0  0  0
  -18.9437  -30.1430   23.8925 C   0  0  0  0  0  0
  -17.6445  -30.6582   24.0571 C   0  0  0  0  0  0
  -25.9017  -34.9492   23.5150 C   0  0  0  0  0  0
  -16.5330  -29.9090   23.6314 C   0  0  0  0  0  0
  -16.7249  -28.6505   23.0330 C   0  0  0  0  0  0
  -26.4433  -31.6601   25.0697 C   0  0  0  0  0  0
  -25.3737  -31.3698   26.1477 C   0  0  0  0  0  0
  -27.0230  -30.3053   24.5997 C   0  0  0  0  0  0
  -27.6028  -32.4299   25.7458 C   0  0  0  0  0  0
  -27.5590  -37.1813   24.8459 C   0  0  0  0  0  0
  -21.4083  -29.3020   22.3767 N   0  0  0  0  0  0
  -26.4295  -37.3808   23.9415 N   0  0  0  0  0  0
  -24.6471  -31.0913   22.0991 N   0  0  0  0  0  0
  -23.4166  -28.8237   23.3048 O   0  0  0  0  0  0
  -28.5246  -27.0025   20.0643 O   0  0  0  0  0  0
  -26.5574  -34.8934   22.4707 O   0  0  0  0  0  0
  -23.5241  -32.1441   23.7598 O   0  0  0  0  0  0
  -28.8583  -21.5783   19.4431 C   0  0  0  0  0  0
  -30.6566  -19.4574   19.7210 C   0  0  0  0  0  0
  -30.1584  -21.8253   19.9404 C   0  0  0  0  0  0
  -28.4429  -20.2905   19.0927 C   0  0  0  0  0  0
  -31.0801  -20.7589   20.0521 C   0  0  0  0  0  0
  -29.3463  -19.2232   19.2470 C   0  0  0  0  0  0
  -29.4997  -23.6908   21.4574 C   0  0  0  0  0  0
  -30.4995  -24.1065   19.0245 C   0  0  0  0  0  0
  -29.0848  -25.1609   21.4529 C   0  0  0  0  0  0
  -30.0819  -25.5551   19.2168 C   0  0  0  0  0  0
  -28.2388  -17.2084   19.9351 C   0  0  0  0  0  0
  -29.2224  -16.3376   20.7147 C   0  0  0  0  0  0
  -29.7842  -17.2395   17.9604 C   0  0  0  0  0  0
  -30.4856  -23.2588   20.3254 C   0  0  2  0  0  0
  -28.7878  -25.6305   20.0250 C   0  0  2  0  0  0
  -30.1476  -15.8073   18.3822 C   0  0  1  0  0  0
  -27.0395  -20.0838   18.5430 C   0  0  0  0  0  0
  -32.5203  -20.9792   20.4816 C   0  0  0  0  0  0
  -31.4713  -15.4224   17.6708 C   0  0  0  0  0  0
  -28.9318  -17.9413   18.8977 N   0  0  0  0  0  0
  -30.0187  -15.4622   19.8392 N   0  0  0  0  0  0
  -31.4614  -12.3360   19.0980 H   0  0  0  0  0  0
  -30.3431  -11.2549   19.8917 H   0  0  0  0  0  0
  -29.6690  -11.4898   17.5382 H   0  0  0  0  0  0
  -29.7133  -13.2020   17.5986 H   0  0  0  0  0  0
  -27.7378  -11.2906   18.8171 H   0  0  0  0  0  0
  -27.3643  -12.6277   17.7695 H   0  0  0  0  0  0
  -27.6761  -14.2354   19.5195 H   0  0  0  0  0  0
  -28.6838  -11.9949   21.3461 H   0  0  0  0  0  0
  -28.5214  -13.6592   21.8157 H   0  0  0  0  0  0
  -25.2661   -9.5687   22.4878 H   0  0  0  0  0  0
  -23.9968   -7.4594   22.7459 H   0  0  0  0  0  0
  -21.0855   -8.8689   19.8894 H   0  0  0  0  0  0
  -22.3626  -10.9653   19.6197 H   0  0  0  0  0  0
  -21.2015   -7.6170   23.9744 H   0  0  0  0  0  0
  -21.1453   -6.0497   25.9075 H   0  0  0  0  0  0
  -22.0621   -2.7642   23.2863 H   0  0  0  0  0  0
  -22.3905  -11.9816   22.4757 H   0  0  0  0  0  0
  -21.1099  -13.1415   22.2681 H   0  0  0  0  0  0
  -24.6415  -15.8277   20.4963 H   0  0  0  0  0  0
  -26.2475  -15.6130   20.0182 H   0  0  0  0  0  0
  -26.7051  -32.5605   23.1188 H   0  0  0  0  0  0
  -25.0044  -33.9824   25.0514 H   0  0  0  0  0  0
  -22.6702  -31.3049   21.4096 H   0  0  0  0  0  0
  -23.3743  -35.9675   23.3289 H   0  0  0  0  0  0
  -24.3596  -36.8949   22.2053 H   0  0  0  0  0  0
  -23.7239  -37.6543   23.6641 H   0  0  0  0  0  0
  -25.9870  -31.6274   20.5691 H   0  0  0  0  0  0
  -26.7987  -30.9391   21.9500 H   0  0  0  0  0  0
  -28.0782  -29.2201   21.1370 H   0  0  0  0  0  0
  -26.1339  -25.9885   19.0384 H   0  0  0  0  0  0
  -24.0065  -27.2496   19.0738 H   0  0  0  0  0  0
  -23.6935  -30.5796   19.4000 H   0  0  0  0  0  0
  -22.7200  -29.2205   19.8790 H   0  0  0  0  0  0
  -25.1266  -36.2006   25.0834 H   0  0  0  0  0  0
  -20.9924  -28.3210   24.1477 H   0  0  0  0  0  0
  -20.5639  -26.2254   23.3612 H   0  0  0  0  0  0
  -21.6624  -26.7440   22.1240 H   0  0  0  0  0  0
  -19.6902  -25.6302   21.1228 H   0  0  0  0  0  0
  -19.6684  -27.3213   20.6757 H   0  0  0  0  0  0
  -17.4183  -26.6677   21.4002 H   0  0  0  0  0  0
  -18.0295  -26.0058   22.8999 H   0  0  0  0  0  0
  -19.7911  -30.7232   24.2312 H   0  0  0  0  0  0
  -17.5001  -31.6268   24.5172 H   0  0  0  0  0  0
  -15.5335  -30.3011   23.7621 H   0  0  0  0  0  0
  -15.8646  -28.0854   22.7019 H   0  0  0  0  0  0
  -24.5943  -30.6976   25.7863 H   0  0  0  0  0  0
  -24.8874  -32.2841   26.4888 H   0  0  0  0  0  0
  -25.8137  -30.8943   27.0252 H   0  0  0  0  0  0
  -26.2736  -29.6861   24.1046 H   0  0  0  0  0  0
  -27.4020  -29.7231   25.4405 H   0  0  0  0  0  0
  -27.8558  -30.4380   23.9088 H   0  0  0  0  0  0
  -27.2662  -33.3598   26.2052 H   0  0  0  0  0  0
  -28.3836  -32.6854   25.0285 H   0  0  0  0  0  0
  -28.0689  -31.8406   26.5364 H   0  0  0  0  0  0
  -28.2598  -38.0118   24.7518 H   0  0  0  0  0  0
  -28.1088  -36.2652   24.6249 H   0  0  0  0  0  0
  -27.2320  -37.1433   25.8864 H   0  0  0  0  0  0
  -20.9232  -29.8737   21.6991 H   0  0  0  0  0  0
  -26.0189  -38.2888   24.1418 H   0  0  0  0  0  0
  -28.1622  -22.3980   19.3244 H   0  0  0  0  0  0
  -31.3471  -18.6319   19.8240 H   0  0  0  0  0  0
  -28.5687  -23.1280   21.4151 H   0  0  0  0  0  0
  -29.9240  -23.4231   22.4258 H   0  0  0  0  0  0
  -31.4895  -24.0608   18.5689 H   0  0  0  0  0  0
  -29.8284  -23.6937   18.2722 H   0  0  0  0  0  0
  -29.8810  -25.7643   21.8919 H   0  0  0  0  0  0
  -28.2087  -25.2976   22.0895 H   0  0  0  0  0  0
  -29.9428  -26.0312   18.2442 H   0  0  0  0  0  0
  -30.8769  -26.1067   19.7223 H   0  0  0  0  0  0
  -27.7231  -17.8904   20.6145 H   0  0  0  0  0  0
  -27.4730  -16.5994   19.4599 H   0  0  0  0  0  0
  -29.8992  -16.9644   21.2960 H   0  0  0  0  0  0
  -28.6563  -15.7667   21.4463 H   0  0  0  0  0  0
  -29.2760  -17.2181   16.9951 H   0  0  0  0  0  0
  -30.6960  -17.8109   17.7805 H   0  0  0  0  0  0
  -31.4880  -23.3436   20.7462 H   0  0  0  0  0  0
  -28.0000  -25.0408   19.5581 H   0  0  0  0  0  0
  -29.3544  -15.2212   17.9267 H   0  0  0  0  0  0
  -26.5906  -21.0293   18.2391 H   0  0  0  0  0  0
  -26.4003  -19.6266   19.2983 H   0  0  0  0  0  0
  -27.0580  -19.4304   17.6697 H   0  0  0  0  0  0
  -33.0585  -20.0352   20.5749 H   0  0  0  0  0  0
  -32.5794  -21.4915   21.4422 H   0  0  0  0  0  0
  -33.0395  -21.5787   19.7324 H   0  0  0  0  0  0
  -32.3134  -15.9909   18.0673 H   0  0  0  0  0  0
  -31.4200  -15.6411   16.6032 H   0  0  0  0  0  0
  -31.7164  -14.3653   17.7572 H   0  0  0  0  0  0
  1 25  1  0  0  0
  1 30  2  0  0  0
  1 91  1  0  0  0
  2  3  1  0  0  0
  2 25  1  0  0  0
  2 92  1  0  0  0
  2 93  1  0  0  0
  3  4  1  0  0  0
  3 94  1  0  0  0
  3 95  1  0  0  0
  4  5  1  0  0  0
  4 96  1  0  0  0
  4 97  1  0  0  0
  5  6  1  0  0  0
  5 26  1  0  0  0
  5 98  1  0  0  0
  6 25  1  0  0  0
  6 99  1  0  0  0
  6100  1  0  0  0
  7  8  2  0  0  0
  7 26  1  0  0  0
  7 29  1  0  0  0
  8  9  1  0  0  0
  8 22  1  0  0  0
  9 10  1  0  0  0
  9 27  2  0  0  0
 10 11  2  0  0  0
 10 15  1  0  0  0
 11 12  1  0  0  0
 11101  1  0  0  0
 12 13  2  0  0  0
 12102  1  0  0  0
 13 14  1  0  0  0
 13 31  1  0  0  0
 14 15  2  0  0  0
 14103  1  0  0  0
 15104  1  0  0  0
 16 17  2  0  0  0
 16 21  1  0  0  0
 16 31  1  0  0  0
 17 18  1  0  0  0
 17105  1  0  0  0
 18 19  2  0  0  0
 18106  1  0  0  0
 19 20  1  0  0  0
 19 24  1  0  0  0
 20 21  2  0  0  0
 20107  1  0  0  0
 21 23  1  0  0  0
 22 28  1  0  0  0
 22 32  2  0  0  0
 26 27  1  0  0  0
 28108  1  0  0  0
 28109  1  0  0  0
 29110  1  0  0  0
 29111  1  0  0  0
 33 34  1  0  0  0
 33 66  1  0  0  0
 33 70  2  0  0  0
 34 36  1  0  0  0
 34 59  1  0  0  0
 34112  1  0  0  0
 35 44  2  0  0  0
 35 45  1  0  0  0
 35 68  1  0  0  0
 36 56  1  0  0  0
 36113  1  0  0  0
 37 39  1  0  0  0
 37 47  1  0  0  0
 37 66  1  0  0  0
 37114  1  0  0  0
 38 43  2  0  0  0
 38 46  1  0  0  0
 38 47  1  0  0  0
 39 64  1  0  0  0
 39 67  2  0  0  0
 40 52  1  0  0  0
 40 53  2  0  0  0
 40 58  1  0  0  0
 41115  1  0  0  0
 41116  1  0  0  0
 41117  1  0  0  0
 41 48  1  0  0  0
 42 43  1  0  0  0
 42 66  1  0  0  0
 42118  1  0  0  0
 42119  1  0  0  0
 43 44  1  0  0  0
 44120  1  0  0  0
 45 46  2  0  0  0
 45121  1  0  0  0
 46122  1  0  0  0
 47123  1  0  0  0
 47124  1  0  0  0
 48 56  1  0  0  0
 48 65  1  0  0  0
 48125  1  0  0  0
 49 50  1  0  0  0
 49 53  1  0  0  0
 49 64  1  0  0  0
 49126  1  0  0  0
 50 51  1  0  0  0
 50127  1  0  0  0
 50128  1  0  0  0
 51 52  1  0  0  0
 51129  1  0  0  0
 51130  1  0  0  0
 52131  1  0  0  0
 52132  1  0  0  0
 53 54  1  0  0  0
 54 55  2  0  0  0
 54133  1  0  0  0
 55 57  1  0  0  0
 55134  1  0  0  0
 56 69  2  0  0  0
 57 58  2  0  0  0
 57135  1  0  0  0
 58136  1  0  0  0
 59 60  1  0  0  0
 59 61  1  0  0  0
 59 62  1  0  0  0
 60137  1  0  0  0
 60138  1  0  0  0
 60139  1  0  0  0
 61140  1  0  0  0
 61141  1  0  0  0
 61142  1  0  0  0
 62143  1  0  0  0
 62144  1  0  0  0
 62145  1  0  0  0
 63 65  1  0  0  0
 63146  1  0  0  0
 63147  1  0  0  0
 63148  1  0  0  0
 64149  1  0  0  0
 65150  1  0  0  0
 68 85  1  0  0  0
 71 73  2  0  0  0
 71 74  1  0  0  0
 71151  1  0  0  0
 72 75  2  0  0  0
 72 76  1  0  0  0
 72152  1  0  0  0
 73 75  1  0  0  0
 73 84  1  0  0  0
 74 76  2  0  0  0
 74 87  1  0  0  0
 75 88  1  0  0  0
 76 90  1  0  0  0
 77 79  1  0  0  0
 77 84  1  0  0  0
 77153  1  0  0  0
 77154  1  0  0  0
 78 80  1  0  0  0
 78 84  1  0  0  0
 78155  1  0  0  0
 78156  1  0  0  0
 79 85  1  0  0  0
 79157  1  0  0  0
 79158  1  0  0  0
 80 85  1  0  0  0
 80159  1  0  0  0
 80160  1  0  0  0
 81 82  1  0  0  0
 81 90  1  0  0  0
 81161  1  0  0  0
 81162  1  0  0  0
 82 91  1  0  0  0
 82163  1  0  0  0
 82164  1  0  0  0
 83 86  1  0  0  0
 83 90  1  0  0  0
 83165  1  0  0  0
 83166  1  0  0  0
 84167  1  0  0  0
 85168  1  0  0  0
 86 89  1  0  0  0
 86 91  1  0  0  0
 86169  1  0  0  0
 87170  1  0  0  0
 87171  1  0  0  0
 87172  1  0  0  0
 88173  1  0  0  0
 88174  1  0  0  0
 88175  1  0  0  0
 89176  1  0  0  0
 89177  1  0  0  0
 89178  1  0  0  0
M  ISO  4   1 100  68 101  85 101  91 100
M  END
> <chiral flag>
0

> <version>
0

> <s_m_source_file>
/data/baiqing/PycharmProjects/Reinvent-master-3.2/result/LINK_invent/BTK/process_docking_weight1_custom_sum_contain_oxygen_bond_distance_aromatic_linkinvent_7_9_3/rearranged_h_0155.sdf

> <i_m_source_file_index>
79

> <r_mmod_Potential_Energy-OPLS-2005>
325.791870117188

> <r_mmod_Stretch_Energy-OPLS-2005>
37.9167060852051

> <r_mmod_Bend_Energy-OPLS-2005>
148.834976196289

> <r_mmod_Torsional_Energy-OPLS-2005>
446.145568847656

> <r_mmod_Improper_Torsional_Energy-OPLS-2005>
26.3954887390137

> <r_mmod_Van_der_Waal_Energy-OPLS-2005>
177.028900146484

> <r_mmod_Electrostatic_Energy-OPLS-2005>
-362.564727783203

> <r_mmod_Solvation_Energy-OPLS-2005>
-190.036010742188

> <b_mmod_Minimization_Converged-OPLS-2005>
0

> <r_mmod_RMS_Derivative-OPLS-2005>
3.69292879104614

$$$$
79
                    3D
 Structure written by MMmdl.
159168  0  0  1  0            999 V2000
  -30.6952  -14.5957   20.4858 C   0  0  0  0  0  0
  -30.4138  -12.3578   19.4560 C   0  0  0  0  0  0
  -29.4973  -12.4697   18.2198 C   0  0  0  0  0  0
  -28.0191  -12.3309   18.6327 C   0  0  0  0  0  0
  -27.6448  -13.2241   19.8493 C   0  0  2  0  0  0
  -28.6902  -13.1139   20.9802 C   0  0  0  0  0  0
  -25.2535  -13.8206   20.5702 C   0  0  0  0  0  0
  -24.1817  -13.0466   20.9234 C   0  0  0  0  0  0
  -24.6390  -11.6938   20.8760 C   0  0  0  0  0  0
  -23.9058  -10.4320   21.0419 C   0  0  0  0  0  0
  -24.3624   -9.4232   21.9182 C   0  0  0  0  0  0
  -23.6309   -8.2253   22.0742 C   0  0  0  0  0  0
  -22.4287   -8.0294   21.3531 C   0  0  0  0  0  0
  -21.9915   -9.0262   20.4629 C   0  0  0  0  0  0
  -22.7238  -10.2154   20.3049 C   0  0  0  0  0  0
  -21.6869   -6.0734   22.5277 C   0  0  0  0  0  0
  -21.4021   -6.5635   23.8213 C   0  0  0  0  0  0
  -21.3665   -5.6788   24.9180 C   0  0  0  0  0  0
  -21.6054   -4.3045   24.7225 C   0  0  0  0  0  0
  -21.8814   -3.8134   23.4339 C   0  0  0  0  0  0
  -21.9198   -4.6954   22.3403 C   0  0  0  0  0  0
  -22.7834  -13.5249   21.1881 C   0  0  0  0  0  0
  -22.1659   -4.2141   21.0975 F   0  0  0  0  0  0
  -21.5631   -3.4531   25.7735 F   0  0  0  0  0  0
  -30.0045  -13.4176   20.3992 N   0  0  0  0  0  0
  -26.2947  -12.9393   20.3272 N   0  0  0  0  0  0
  -25.9316  -11.6544   20.5766 N   0  0  0  0  0  0
  -22.0467  -12.8232   22.0431 N   0  0  0  0  0  0
  -25.4253  -15.1938   20.4111 N   0  0  0  0  0  0
  -31.8755  -14.6587   20.1402 O   0  0  0  0  0  0
  -21.6648   -6.8893   21.4244 O   0  0  0  0  0  0
  -22.3503  -14.5533   20.6716 O   0  0  0  0  0  0
  -24.6224  -31.8650   23.2123 C   0  0  0  0  0  0
  -25.9074  -32.4830   23.8418 C   0  0  1  0  0  0
  -27.2040  -27.3589   20.0807 C   0  0  0  0  0  0
  -25.5876  -33.8627   24.2326 N   0  0  0  0  0  0
  -23.4126  -30.4931   21.5586 C   0  0  2  0  0  0
  -24.8498  -28.9662   20.1098 C   0  0  0  0  0  0
  -22.7479  -29.4610   22.5006 C   0  0  0  0  0  0
  -18.0269  -28.1397   22.8491 C   0  0  0  0  0  0
  -24.1474  -36.7334   23.2641 C   0  0  0  0  0  0
  -25.9550  -30.8037   21.3810 C   0  0  0  0  0  0
  -26.0206  -29.4381   20.7141 C   0  0  0  0  0  0
  -27.2033  -28.6456   20.6905 C   0  0  0  0  0  0
  -26.0129  -26.9487   19.4321 C   0  0  0  0  0  0
  -24.8456  -27.7258   19.4599 C   0  0  0  0  0  0
  -23.6204  -29.8448   20.1693 C   0  0  0  0  0  0
  -25.4105  -36.3132   24.0336 C   0  0  1  0  0  0
  -20.5872  -28.3662   23.1334 C   0  0  2  0  0  0
  -20.6762  -26.9399   22.5422 C   0  0  0  0  0  0
  -19.5735  -26.6397   21.5224 C   0  0  0  0  0  0
  -18.1910  -26.7945   22.1625 C   0  0  0  0  0  0
  -19.1519  -28.8852   23.2892 C   0  0  0  0  0  0
  -18.9445  -30.1471   23.8904 C   0  0  0  0  0  0
  -17.6436  -30.6597   24.0572 C   0  0  0  0  0  0
  -25.9038  -34.9491   23.5149 C   0  0  0  0  0  0
  -16.5331  -29.9100   23.6334 C   0  0  0  0  0  0
  -16.7246  -28.6512   23.0357 C   0  0  0  0  0  0
  -26.4452  -31.6635   25.0775 C   0  0  0  0  0  0
  -25.3677  -31.3756   26.1504 C   0  0  0  0  0  0
  -27.0278  -30.3064   24.6198 C   0  0  0  0  0  0
  -27.6051  -32.4359   25.7503 C   0  0  0  0  0  0
  -27.5591  -37.1829   24.8462 C   0  0  0  0  0  0
  -21.4198  -29.3011   22.3766 N   0  0  0  0  0  0
  -26.4297  -37.3820   23.9413 N   0  0  0  0  0  0
  -24.6831  -31.0691   22.1079 N   0  0  0  0  0  0
  -23.4231  -28.8125   23.3039 O   0  0  0  0  0  0
  -28.3268  -26.5265   20.1368 O   0  0  0  0  0  0
  -26.5634  -34.8937   22.4725 O   0  0  0  0  0  0
  -23.5384  -32.1430   23.7459 O   0  0  0  0  0  0
  -28.9324  -20.1907   19.6331 C   0  0  0  0  0  0
  -29.1893  -18.8106   19.8815 C   0  0  0  0  0  0
  -29.6102  -21.2321   20.3357 C   0  0  0  0  0  0
  -30.1329  -18.4531   20.8634 C   0  0  0  0  0  0
  -30.4851  -20.7520   21.3562 C   0  0  0  0  0  0
  -30.4403  -23.8181   20.0476 C   0  0  0  0  0  0
  -29.4389  -22.7071   19.8227 C   0  0  1  0  0  0
  -29.0208  -24.0508   20.5203 C   0  0  1  0  0  0
  -31.3112  -21.6544   22.2511 C   0  0  0  0  0  0
  -28.7038  -24.0978   22.0108 C   0  0  0  0  0  0
  -30.7205  -17.0279   21.1173 C   0  0  0  0  0  0
  -28.1648  -25.1118   19.7724 C   0  0  0  0  0  0
  -30.7180  -19.4313   21.5927 N   0  0  0  0  0  0
  -30.0212  -15.7407   20.8050 N   0  0  0  0  0  0
  -31.4597  -12.4354   19.1561 H   0  0  0  0  0  0
  -30.3149  -11.3760   19.9232 H   0  0  0  0  0  0
  -29.7516  -11.6998   17.4890 H   0  0  0  0  0  0
  -29.6571  -13.4257   17.7209 H   0  0  0  0  0  0
  -27.8504  -11.2819   18.8766 H   0  0  0  0  0  0
  -27.3662  -12.5488   17.7860 H   0  0  0  0  0  0
  -27.6554  -14.2540   19.4884 H   0  0  0  0  0  0
  -28.6936  -12.1062   21.4009 H   0  0  0  0  0  0
  -28.4442  -13.7886   21.8012 H   0  0  0  0  0  0
  -25.2787   -9.5703   22.4735 H   0  0  0  0  0  0
  -24.0027   -7.4641   22.7453 H   0  0  0  0  0  0
  -21.0837   -8.8776   19.8943 H   0  0  0  0  0  0
  -22.3698  -10.9677   19.6135 H   0  0  0  0  0  0
  -21.2011   -7.6137   23.9716 H   0  0  0  0  0  0
  -21.1501   -6.0514   25.9088 H   0  0  0  0  0  0
  -22.0588   -2.7592   23.2839 H   0  0  0  0  0  0
  -22.4098  -11.9912   22.4822 H   0  0  0  0  0  0
  -21.1059  -13.1210   22.2603 H   0  0  0  0  0  0
  -24.6649  -15.8521   20.5441 H   0  0  0  0  0  0
  -26.2706  -15.6319   20.0684 H   0  0  0  0  0  0
  -26.7126  -32.5503   23.1158 H   0  0  0  0  0  0
  -24.9959  -33.9774   25.0423 H   0  0  0  0  0  0
  -22.6991  -31.3107   21.4330 H   0  0  0  0  0  0
  -23.3743  -35.9662   23.3308 H   0  0  0  0  0  0
  -24.3548  -36.8951   22.2052 H   0  0  0  0  0  0
  -23.7210  -37.6532   23.6652 H   0  0  0  0  0  0
  -26.0867  -31.5683   20.6156 H   0  0  0  0  0  0
  -26.8400  -30.8459   22.0060 H   0  0  0  0  0  0
  -28.1088  -29.0116   21.1554 H   0  0  0  0  0  0
  -25.9380  -26.0275   18.8772 H   0  0  0  0  0  0
  -23.9553  -27.3716   18.9609 H   0  0  0  0  0  0
  -23.7487  -30.6335   19.4263 H   0  0  0  0  0  0
  -22.7357  -29.2857   19.8594 H   0  0  0  0  0  0
  -25.1281  -36.2015   25.0828 H   0  0  0  0  0  0
  -20.9928  -28.3210   24.1475 H   0  0  0  0  0  0
  -20.5707  -26.2255   23.3600 H   0  0  0  0  0  0
  -21.6631  -26.7488   22.1188 H   0  0  0  0  0  0
  -19.6894  -25.6317   21.1243 H   0  0  0  0  0  0
  -19.6678  -27.3225   20.6768 H   0  0  0  0  0  0
  -17.4194  -26.6698   21.4014 H   0  0  0  0  0  0
  -18.0295  -26.0097   22.9028 H   0  0  0  0  0  0
  -19.7910  -30.7293   24.2272 H   0  0  0  0  0  0
  -17.4985  -31.6275   24.5187 H   0  0  0  0  0  0
  -15.5331  -30.2997   23.7677 H   0  0  0  0  0  0
  -15.8642  -28.0843   22.7072 H   0  0  0  0  0  0
  -24.5822  -30.7148   25.7813 H   0  0  0  0  0  0
  -24.8886  -32.2917   26.4985 H   0  0  0  0  0  0
  -25.7985  -30.8868   27.0255 H   0  0  0  0  0  0
  -26.2837  -29.6855   24.1203 H   0  0  0  0  0  0
  -27.3963  -29.7286   25.4685 H   0  0  0  0  0  0
  -27.8719  -30.4379   23.9425 H   0  0  0  0  0  0
  -27.2698  -33.3660   26.2110 H   0  0  0  0  0  0
  -28.3819  -32.6941   25.0288 H   0  0  0  0  0  0
  -28.0770  -31.8468   26.5373 H   0  0  0  0  0  0
  -28.2635  -38.0108   24.7534 H   0  0  0  0  0  0
  -28.1065  -36.2656   24.6271 H   0  0  0  0  0  0
  -27.2308  -37.1469   25.8861 H   0  0  0  0  0  0
  -20.9392  -29.8701   21.6957 H   0  0  0  0  0  0
  -26.0196  -38.2901   24.1413 H   0  0  0  0  0  0
  -28.2496  -20.4454   18.8337 H   0  0  0  0  0  0
  -28.7140  -18.0483   19.2791 H   0  0  0  0  0  0
  -30.7715  -24.3581   19.1637 H   0  0  0  0  0  0
  -31.1749  -23.7994   20.8424 H   0  0  0  0  0  0
  -29.1161  -22.6258   18.7860 H   0  0  0  0  0  0
  -30.7253  -22.4737   22.6575 H   0  0  0  0  0  0
  -32.1668  -22.0540   21.7050 H   0  0  0  0  0  0
  -31.6970  -21.1056   23.1114 H   0  0  0  0  0  0
  -29.5568  -24.4865   22.5688 H   0  0  0  0  0  0
  -28.4405  -23.1118   22.3912 H   0  0  0  0  0  0
  -27.8593  -24.7603   22.2129 H   0  0  0  0  0  0
  -30.9636  -16.9774   22.1787 H   0  0  0  0  0  0
  -31.6864  -17.0477   20.6079 H   0  0  0  0  0  0
  -27.1446  -24.7638   19.9309 H   0  0  0  0  0  0
  -28.3586  -25.0304   18.7022 H   0  0  0  0  0  0
  -29.0328  -15.6865   20.9919 H   0  0  0  0  0  0
  1 25  1  0  0  0
  1 30  2  0  0  0
  1 84  1  0  0  0
  2  3  1  0  0  0
  2 25  1  0  0  0
  2 85  1  0  0  0
  2 86  1  0  0  0
  3  4  1  0  0  0
  3 87  1  0  0  0
  3 88  1  0  0  0
  4  5  1  0  0  0
  4 89  1  0  0  0
  4 90  1  0  0  0
  5  6  1  0  0  0
  5 26  1  0  0  0
  5 91  1  0  0  0
  6 25  1  0  0  0
  6 92  1  0  0  0
  6 93  1  0  0  0
  7  8  2  0  0  0
  7 26  1  0  0  0
  7 29  1  0  0  0
  8  9  1  0  0  0
  8 22  1  0  0  0
  9 10  1  0  0  0
  9 27  2  0  0  0
 10 11  2  0  0  0
 10 15  1  0  0  0
 11 12  1  0  0  0
 11 94  1  0  0  0
 12 13  2  0  0  0
 12 95  1  0  0  0
 13 14  1  0  0  0
 13 31  1  0  0  0
 14 15  2  0  0  0
 14 96  1  0  0  0
 15 97  1  0  0  0
 16 17  2  0  0  0
 16 21  1  0  0  0
 16 31  1  0  0  0
 17 18  1  0  0  0
 17 98  1  0  0  0
 18 19  2  0  0  0
 18 99  1  0  0  0
 19 20  1  0  0  0
 19 24  1  0  0  0
 20 21  2  0  0  0
 20100  1  0  0  0
 21 23  1  0  0  0
 22 28  1  0  0  0
 22 32  2  0  0  0
 26 27  1  0  0  0
 28101  1  0  0  0
 28102  1  0  0  0
 29103  1  0  0  0
 29104  1  0  0  0
 33 34  1  0  0  0
 33 66  1  0  0  0
 33 70  2  0  0  0
 34 36  1  0  0  0
 34 59  1  0  0  0
 34105  1  0  0  0
 35 44  2  0  0  0
 35 45  1  0  0  0
 35 68  1  0  0  0
 36 56  1  0  0  0
 36106  1  0  0  0
 37 39  1  0  0  0
 37 47  1  0  0  0
 37 66  1  0  0  0
 37107  1  0  0  0
 38 43  2  0  0  0
 38 46  1  0  0  0
 38 47  1  0  0  0
 39 64  1  0  0  0
 39 67  2  0  0  0
 40 52  1  0  0  0
 40 53  2  0  0  0
 40 58  1  0  0  0
 41108  1  0  0  0
 41109  1  0  0  0
 41110  1  0  0  0
 41 48  1  0  0  0
 42 43  1  0  0  0
 42 66  1  0  0  0
 42111  1  0  0  0
 42112  1  0  0  0
 43 44  1  0  0  0
 44113  1  0  0  0
 45 46  2  0  0  0
 45114  1  0  0  0
 46115  1  0  0  0
 47116  1  0  0  0
 47117  1  0  0  0
 48 56  1  0  0  0
 48 65  1  0  0  0
 48118  1  0  0  0
 49 50  1  0  0  0
 49 53  1  0  0  0
 49 64  1  0  0  0
 49119  1  0  0  0
 50 51  1  0  0  0
 50120  1  0  0  0
 50121  1  0  0  0
 51 52  1  0  0  0
 51122  1  0  0  0
 51123  1  0  0  0
 52124  1  0  0  0
 52125  1  0  0  0
 53 54  1  0  0  0
 54 55  2  0  0  0
 54126  1  0  0  0
 55 57  1  0  0  0
 55127  1  0  0  0
 56 69  2  0  0  0
 57 58  2  0  0  0
 57128  1  0  0  0
 58129  1  0  0  0
 59 60  1  0  0  0
 59 61  1  0  0  0
 59 62  1  0  0  0
 60130  1  0  0  0
 60131  1  0  0  0
 60132  1  0  0  0
 61133  1  0  0  0
 61134  1  0  0  0
 61135  1  0  0  0
 62136  1  0  0  0
 62137  1  0  0  0
 62138  1  0  0  0
 63 65  1  0  0  0
 63139  1  0  0  0
 63140  1  0  0  0
 63141  1  0  0  0
 64142  1  0  0  0
 65143  1  0  0  0
 68 82  1  0  0  0
 71 72  2  0  0  0
 71 73  1  0  0  0
 71144  1  0  0  0
 72 74  1  0  0  0
 72145  1  0  0  0
 73 75  2  0  0  0
 73 77  1  0  0  0
 74 81  1  0  0  0
 74 83  2  0  0  0
 75 79  1  0  0  0
 75 83  1  0  0  0
 76 77  1  0  0  0
 76 78  1  0  0  0
 76146  1  0  0  0
 76147  1  0  0  0
 77 78  1  0  0  0
 77148  1  0  0  0
 78 80  1  0  0  0
 78 82  1  0  0  0
 79149  1  0  0  0
 79150  1  0  0  0
 79151  1  0  0  0
 80152  1  0  0  0
 80153  1  0  0  0
 80154  1  0  0  0
 81 84  1  0  0  0
 81155  1  0  0  0
 81156  1  0  0  0
 82157  1  0  0  0
 82158  1  0  0  0
 84159  1  0  0  0
M  ISO  4   1 100  68 101  82 101  84 100
M  END
> <chiral flag>
0

> <version>
0

> <s_m_source_file>
/data/baiqing/PycharmProjects/Reinvent-master-3.2/result/LINK_invent/BTK/process_docking_weight1_custom_sum_contain_oxygen_bond_distance_aromatic_linkinvent_7_9_3/rearranged_h_0155.sdf

> <i_m_source_file_index>
80

> <r_mmod_Potential_Energy-OPLS-2005>
-156.846817016602

> <r_mmod_Stretch_Energy-OPLS-2005>
68.9874725341797

> <r_mmod_Bend_Energy-OPLS-2005>
161.86653137207

> <r_mmod_Torsional_Energy-OPLS-2005>
247.989837646484

> <r_mmod_Improper_Torsional_Energy-OPLS-2005>
4.66042757034302

> <r_mmod_Van_der_Waal_Energy-OPLS-2005>
161.014739990234

> <r_mmod_Electrostatic_Energy-OPLS-2005>
-626.094787597656

> <r_mmod_Solvation_Energy-OPLS-2005>
-216.670394897461

> <b_mmod_Minimization_Converged-OPLS-2005>
0

> <r_mmod_RMS_Derivative-OPLS-2005>
3.89799809455872

$$$$
80
                    3D
 Structure written by MMmdl.
176186  0  0  1  0            999 V2000
  -31.3128  -13.2058   20.9725 C   0  0  0  0  0  0
  -30.0399  -11.4331   19.3924 C   0  0  0  0  0  0
  -29.2021  -13.2674   16.7910 C   0  0  0  0  0  0
  -28.2117  -14.6698   17.9023 C   0  0  0  0  0  0
  -27.7542  -14.1902   19.9580 C   0  0  2  0  0  0
  -28.7954  -13.2642   21.0902 C   0  0  0  0  0  0
  -25.2208  -14.0323   20.7822 C   0  0  0  0  0  0
  -24.2088  -13.1285   20.9819 C   0  0  0  0  0  0
  -24.7718  -11.8253   20.8746 C   0  0  0  0  0  0
  -24.0408  -10.4960   21.0014 C   0  0  0  0  0  0
  -24.4432   -9.4706   21.8972 C   0  0  0  0  0  0
  -23.6839   -8.2803   22.0702 C   0  0  0  0  0  0
  -22.4798   -8.0771   21.3535 C   0  0  0  0  0  0
  -22.0732   -9.0817   20.4558 C   0  0  0  0  0  0
  -22.8359  -10.2615   20.2834 C   0  0  0  0  0  0
  -21.7112   -6.1019   22.5224 C   0  0  0  0  0  0
  -21.4222   -6.5805   23.8190 C   0  0  0  0  0  0
  -21.3732   -5.6888   24.9111 C   0  0  0  0  0  0
  -21.6026   -4.3143   24.7112 C   0  0  0  0  0  0
  -21.8779   -3.8298   23.4213 C   0  0  0  0  0  0
  -21.9282   -4.7194   22.3311 C   0  0  0  0  0  0
  -22.7735  -13.5028   21.2042 C   0  0  0  0  0  0
  -22.1706   -4.2351   21.0895 F   0  0  0  0  0  0
  -21.5604   -3.4594   25.7595 F   0  0  0  0  0  0
  -30.1276  -12.3959   20.8292 N   0  0  0  0  0  0
  -26.3995  -13.4114   20.4767 N   0  0  0  0  0  0
  -26.1061  -12.0062   20.6191 N   0  0  0  0  0  0
  -22.0569  -12.7632   22.0445 N   0  0  0  0  0  0
  -25.2410  -15.4018   20.8117 N   0  0  0  0  0  0
  -31.4164  -14.4464   21.0358 O   0  0  0  0  0  0
  -21.7033   -6.9356   21.4261 O   0  0  0  0  0  0
  -22.2960  -14.5045   20.6759 O   0  0  0  0  0  0
  -24.6610  -31.8332   23.1839 C   0  0  0  0  0  0
  -25.9340  -32.4622   23.8217 C   0  0  1  0  0  0
  -26.9946  -26.9288   20.0438 C   0  0  0  0  0  0
  -25.6044  -33.8441   24.2127 N   0  0  0  0  0  0
  -23.4536  -30.4746   21.5439 C   0  0  2  0  0  0
  -24.8492  -28.8966   20.0857 C   0  0  0  0  0  0
  -22.7600  -29.4533   22.4819 C   0  0  0  0  0  0
  -18.0315  -28.1392   22.8479 C   0  0  0  0  0  0
  -24.1493  -36.7198   23.2646 C   0  0  0  0  0  0
  -26.0296  -30.6250   21.4120 C   0  0  0  0  0  0
  -26.0529  -29.2301   20.7227 C   0  0  0  0  0  0
  -27.1446  -28.2527   20.6934 C   0  0  0  0  0  0
  -25.7969  -26.7786   19.3463 C   0  0  0  0  0  0
  -24.7453  -27.6962   19.3871 C   0  0  0  0  0  0
  -23.6653  -29.8433   20.1512 C   0  0  0  0  0  0
  -25.4140  -36.2982   24.0301 C   0  0  1  0  0  0
  -20.5933  -28.3730   23.1212 C   0  0  2  0  0  0
  -20.6802  -26.9427   22.5391 C   0  0  0  0  0  0
  -19.5761  -26.6375   21.5217 C   0  0  0  0  0  0
  -18.1948  -26.7927   22.1633 C   0  0  0  0  0  0
  -19.1573  -28.8879   23.2839 C   0  0  0  0  0  0
  -18.9484  -30.1476   23.8862 C   0  0  0  0  0  0
  -17.6475  -30.6591   24.0558 C   0  0  0  0  0  0
  -25.9116  -34.9370   23.5018 C   0  0  0  0  0  0
  -16.5369  -29.9074   23.6340 C   0  0  0  0  0  0
  -16.7296  -28.6494   23.0364 C   0  0  0  0  0  0
  -26.4584  -31.6546   25.0730 C   0  0  0  0  0  0
  -25.3703  -31.3783   26.1376 C   0  0  0  0  0  0
  -27.0494  -30.2926   24.6453 C   0  0  0  0  0  0
  -27.6077  -32.4340   25.7532 C   0  0  0  0  0  0
  -27.5572  -37.1772   24.8463 C   0  0  0  0  0  0
  -21.4278  -29.3065   22.3577 N   0  0  0  0  0  0
  -26.4279  -37.3721   23.9409 N   0  0  0  0  0  0
  -24.7401  -31.0023   22.0982 N   0  0  0  0  0  0
  -23.4219  -28.8040   23.2961 O   0  0  0  0  0  0
  -27.8084  -25.7121   19.9729 O   0  0  0  0  0  0
  -26.5693  -34.8895   22.4594 O   0  0  0  0  0  0
  -23.5709  -32.1338   23.6983 O   0  0  0  0  0  0
  -27.0760  -17.4741   17.8752 C   0  0  0  0  0  0
  -27.2841  -18.9184   18.1984 C   0  0  0  0  0  0
  -29.9319  -13.5345   18.7993 C   0  0  0  0  0  0
  -25.1726  -18.9727   18.9819 C   0  0  0  0  0  0
  -25.9401  -16.5396   18.1446 C   0  0  0  0  0  0
  -28.1710  -12.3669   18.5025 C   0  0  0  0  0  0
  -31.2501  -12.9852   18.0702 C   0  0  0  0  0  0
  -24.9652  -17.5297   18.6587 C   0  0  0  0  0  0
  -26.3460  -19.8204   18.8314 C   0  0  0  0  0  0
  -28.4840  -11.1051   17.5829 C   0  0  0  0  0  0
  -31.0918  -11.7090   17.1671 C   0  0  0  0  0  0
  -25.9072  -13.7757   16.7221 C   0  0  0  0  0  0
  -25.6458  -14.7125   17.9350 C   0  0  1  0  0  0
  -26.4516  -13.0262   17.9770 C   0  0  1  0  0  0
  -23.5196  -17.1147   18.8830 C   0  0  0  0  0  0
  -27.3799  -10.2023   17.0718 C   0  0  0  0  0  0
  -32.3196  -11.1180   16.5012 C   0  0  0  0  0  0
  -32.5412  -13.2035   18.8743 C   0  0  0  0  0  0
  -27.1552  -24.1928   20.0002 C   0  0  0  0  0  0
  -27.2614  -22.6359   19.1150 C   0  0  0  0  0  0
  -29.8473  -10.8783   16.9838 N   0  0  0  0  0  0
  -32.3076  -12.6647   20.2464 N   0  0  0  0  0  0
  -26.3903  -21.2761   19.3083 O   0  0  0  0  0  0
  -30.9223  -10.7834   19.3432 H   0  0  0  0  0  0
  -29.3297  -10.6762   19.7458 H   0  0  0  0  0  0
  -28.5448  -12.8697   16.0064 H   0  0  0  0  0  0
  -29.9730  -13.7865   16.2085 H   0  0  0  0  0  0
  -27.6923  -15.2317   17.1698 H   0  0  0  0  0  0
  -28.8989  -15.5091   18.0174 H   0  0  0  0  0  0
  -27.7236  -15.1780   20.4163 H   0  0  0  0  0  0
  -28.2125  -12.6098   21.7331 H   0  0  0  0  0  0
  -29.0779  -14.0123   21.8317 H   0  0  0  0  0  0
  -25.3485   -9.6083   22.4726 H   0  0  0  0  0  0
  -24.0444   -7.5246   22.7541 H   0  0  0  0  0  0
  -21.1693   -8.9444   19.8797 H   0  0  0  0  0  0
  -22.4802  -11.0114   19.5917 H   0  0  0  0  0  0
  -21.2302   -7.6329   23.9762 H   0  0  0  0  0  0
  -21.1577   -6.0608   25.9035 H   0  0  0  0  0  0
  -22.0467   -2.7755   23.2636 H   0  0  0  0  0  0
  -22.4460  -11.9433   22.4872 H   0  0  0  0  0  0
  -21.0994  -13.0144   22.2420 H   0  0  0  0  0  0
  -24.3839  -15.9300   20.8988 H   0  0  0  0  0  0
  -25.9765  -15.9437   20.3759 H   0  0  0  0  0  0
  -26.7371  -32.5112   23.0875 H   0  0  0  0  0  0
  -25.0168  -33.9534   25.0266 H   0  0  0  0  0  0
  -22.7660  -31.3122   21.4114 H   0  0  0  0  0  0
  -23.3788  -35.9493   23.3270 H   0  0  0  0  0  0
  -24.3562  -36.8885   22.2066 H   0  0  0  0  0  0
  -23.7214  -37.6363   23.6724 H   0  0  0  0  0  0
  -26.2281  -31.3796   20.6494 H   0  0  0  0  0  0
  -26.8886  -30.6481   22.0705 H   0  0  0  0  0  0
  -28.0575  -28.4716   21.2324 H   0  0  0  0  0  0
  -25.6138  -25.8859   18.7669 H   0  0  0  0  0  0
  -23.8314  -27.4584   18.8613 H   0  0  0  0  0  0
  -23.8310  -30.6336   19.4199 H   0  0  0  0  0  0
  -22.7592  -29.3307   19.8238 H   0  0  0  0  0  0
  -25.1338  -36.1779   25.0793 H   0  0  0  0  0  0
  -21.0031  -28.3322   24.1330 H   0  0  0  0  0  0
  -20.5720  -26.2334   23.3618 H   0  0  0  0  0  0
  -21.6663  -26.7438   22.1174 H   0  0  0  0  0  0
  -19.6921  -25.6282   21.1259 H   0  0  0  0  0  0
  -19.6693  -27.3177   20.6743 H   0  0  0  0  0  0
  -17.4217  -26.6676   21.4039 H   0  0  0  0  0  0
  -18.0344  -26.0081   22.9039 H   0  0  0  0  0  0
  -19.7962  -30.7308   24.2208 H   0  0  0  0  0  0
  -17.5030  -31.6272   24.5156 H   0  0  0  0  0  0
  -15.5365  -30.2962   23.7691 H   0  0  0  0  0  0
  -15.8701  -28.0804   22.7092 H   0  0  0  0  0  0
  -24.5856  -30.7189   25.7646 H   0  0  0  0  0  0
  -24.8934  -32.2992   26.4742 H   0  0  0  0  0  0
  -25.7909  -30.8941   27.0197 H   0  0  0  0  0  0
  -26.3166  -29.6575   24.1466 H   0  0  0  0  0  0
  -27.4052  -29.7309   25.5098 H   0  0  0  0  0  0
  -27.9098  -30.4136   23.9868 H   0  0  0  0  0  0
  -27.2661  -33.3686   26.1989 H   0  0  0  0  0  0
  -28.3955  -32.6820   25.0406 H   0  0  0  0  0  0
  -28.0665  -31.8540   26.5548 H   0  0  0  0  0  0
  -28.2556  -38.0103   24.7545 H   0  0  0  0  0  0
  -28.1107  -36.2630   24.6259 H   0  0  0  0  0  0
  -27.2285  -37.1373   25.8865 H   0  0  0  0  0  0
  -20.9478  -29.8813   21.6807 H   0  0  0  0  0  0
  -26.0124  -38.2776   24.1433 H   0  0  0  0  0  0
  -27.9396  -17.1491   17.3298 H   0  0  0  0  0  0
  -28.2435  -19.3388   17.9320 H   0  0  0  0  0  0
  -30.0375  -14.5037   19.2721 H   0  0  0  0  0  0
  -24.3130  -19.4965   19.3743 H   0  0  0  0  0  0
  -25.0177  -13.3330   16.2838 H   0  0  0  0  0  0
  -26.5924  -14.0797   15.9324 H   0  0  0  0  0  0
  -24.6242  -14.6106   18.2744 H   0  0  0  0  0  0
  -25.7901  -12.1828   18.1637 H   0  0  0  0  0  0
  -22.8593  -17.7636   18.3089 H   0  0  0  0  0  0
  -23.2553  -17.2373   19.9337 H   0  0  0  0  0  0
  -23.2785  -16.1004   18.5897 H   0  0  0  0  0  0
  -26.7436  -10.7490   16.3781 H   0  0  0  0  0  0
  -26.7631   -9.8375   17.8938 H   0  0  0  0  0  0
  -27.7875   -9.3436   16.5382 H   0  0  0  0  0  0
  -32.9559  -11.9017   16.0890 H   0  0  0  0  0  0
  -32.0485  -10.4501   15.6825 H   0  0  0  0  0  0
  -32.9079  -10.5545   17.2241 H   0  0  0  0  0  0
  -32.7981  -14.2625   18.8863 H   0  0  0  0  0  0
  -33.3801  -12.6749   18.4211 H   0  0  0  0  0  0
  -27.4665  -23.8887   20.9991 H   0  0  0  0  0  0
  -26.0866  -24.3288   20.1475 H   0  0  0  0  0  0
  -28.3038  -22.3197   19.1565 H   0  0  0  0  0  0
  -27.0950  -22.9000   18.0696 H   0  0  0  0  0  0
  -32.3148  -11.6578   20.2846 H   0  0  0  0  0  0
  1 25  1  0  0  0
  1 30  2  0  0  0
  1 92  1  0  0  0
  2  3  1  0  0  0
  2 25  1  0  0  0
  2 94  1  0  0  0
  2 95  1  0  0  0
  3  4  1  0  0  0
  3 96  1  0  0  0
  3 97  1  0  0  0
  4  5  1  0  0  0
  4 98  1  0  0  0
  4 99  1  0  0  0
  5  6  1  0  0  0
  5 26  1  0  0  0
  5100  1  0  0  0
  6 25  1  0  0  0
  6101  1  0  0  0
  6102  1  0  0  0
  7  8  2  0  0  0
  7 26  1  0  0  0
  7 29  1  0  0  0
  8  9  1  0  0  0
  8 22  1  0  0  0
  9 10  1  0  0  0
  9 27  2  0  0  0
 10 11  2  0  0  0
 10 15  1  0  0  0
 11 12  1  0  0  0
 11103  1  0  0  0
 12 13  2  0  0  0
 12104  1  0  0  0
 13 14  1  0  0  0
 13 31  1  0  0  0
 14 15  2  0  0  0
 14105  1  0  0  0
 15106  1  0  0  0
 16 17  2  0  0  0
 16 21  1  0  0  0
 16 31  1  0  0  0
 17 18  1  0  0  0
 17107  1  0  0  0
 18 19  2  0  0  0
 18108  1  0  0  0
 19 20  1  0  0  0
 19 24  1  0  0  0
 20 21  2  0  0  0
 20109  1  0  0  0
 21 23  1  0  0  0
 22 28  1  0  0  0
 22 32  2  0  0  0
 26 27  1  0  0  0
 28110  1  0  0  0
 28111  1  0  0  0
 29112  1  0  0  0
 29113  1  0  0  0
 33 34  1  0  0  0
 33 66  1  0  0  0
 33 70  2  0  0  0
 34 36  1  0  0  0
 34 59  1  0  0  0
 34114  1  0  0  0
 35 44  2  0  0  0
 35 45  1  0  0  0
 35 68  1  0  0  0
 36 56  1  0  0  0
 36115  1  0  0  0
 37 39  1  0  0  0
 37 47  1  0  0  0
 37 66  1  0  0  0
 37116  1  0  0  0
 38 43  2  0  0  0
 38 46  1  0  0  0
 38 47  1  0  0  0
 39 64  1  0  0  0
 39 67  2  0  0  0
 40 52  1  0  0  0
 40 53  2  0  0  0
 40 58  1  0  0  0
 41117  1  0  0  0
 41118  1  0  0  0
 41119  1  0  0  0
 41 48  1  0  0  0
 42 43  1  0  0  0
 42 66  1  0  0  0
 42120  1  0  0  0
 42121  1  0  0  0
 43 44  1  0  0  0
 44122  1  0  0  0
 45 46  2  0  0  0
 45123  1  0  0  0
 46124  1  0  0  0
 47125  1  0  0  0
 47126  1  0  0  0
 48 56  1  0  0  0
 48 65  1  0  0  0
 48127  1  0  0  0
 49 50  1  0  0  0
 49 53  1  0  0  0
 49 64  1  0  0  0
 49128  1  0  0  0
 50 51  1  0  0  0
 50129  1  0  0  0
 50130  1  0  0  0
 51 52  1  0  0  0
 51131  1  0  0  0
 51132  1  0  0  0
 52133  1  0  0  0
 52134  1  0  0  0
 53 54  1  0  0  0
 54 55  2  0  0  0
 54135  1  0  0  0
 55 57  1  0  0  0
 55136  1  0  0  0
 56 69  2  0  0  0
 57 58  2  0  0  0
 57137  1  0  0  0
 58138  1  0  0  0
 59 60  1  0  0  0
 59 61  1  0  0  0
 59 62  1  0  0  0
 60139  1  0  0  0
 60140  1  0  0  0
 60141  1  0  0  0
 61142  1  0  0  0
 61143  1  0  0  0
 61144  1  0  0  0
 62145  1  0  0  0
 62146  1  0  0  0
 62147  1  0  0  0
 63 65  1  0  0  0
 63148  1  0  0  0
 63149  1  0  0  0
 63150  1  0  0  0
 64151  1  0  0  0
 65152  1  0  0  0
 68 89  1  0  0  0
 71 72  2  0  0  0
 71 75  1  0  0  0
 71153  1  0  0  0
 72 79  1  0  0  0
 72154  1  0  0  0
 73 76  2  0  0  0
 73 77  1  0  0  0
 73155  1  0  0  0
 74 78  1  0  0  0
 74 79  2  0  0  0
 74156  1  0  0  0
 75 78  2  0  0  0
 75 83  1  0  0  0
 76 80  1  0  0  0
 76 84  1  0  0  0
 77 81  2  0  0  0
 77 88  1  0  0  0
 78 85  1  0  0  0
 79 93  1  0  0  0
 80 86  1  0  0  0
 80 91  2  0  0  0
 81 87  1  0  0  0
 81 91  1  0  0  0
 82 83  1  0  0  0
 82 84  1  0  0  0
 82157  1  0  0  0
 82158  1  0  0  0
 83 84  1  0  0  0
 83159  1  0  0  0
 84160  1  0  0  0
 85161  1  0  0  0
 85162  1  0  0  0
 85163  1  0  0  0
 86164  1  0  0  0
 86165  1  0  0  0
 86166  1  0  0  0
 87167  1  0  0  0
 87168  1  0  0  0
 87169  1  0  0  0
 88 92  1  0  0  0
 88170  1  0  0  0
 88171  1  0  0  0
 89 90  1  0  0  0
 89172  1  0  0  0
 89173  1  0  0  0
 90 93  1  0  0  0
 90174  1  0  0  0
 90175  1  0  0  0
 92176  1  0  0  0
M  ISO  4   1 100  68 101  89 101  92 100
M  END
> <chiral flag>
0

> <version>
0

> <s_m_source_file>
/data/baiqing/PycharmProjects/Reinvent-master-3.2/result/LINK_invent/BTK/process_docking_weight1_custom_sum_contain_oxygen_bond_distance_aromatic_linkinvent_7_9_3/rearranged_h_0155.sdf

> <i_m_source_file_index>
81

> <r_mmod_Potential_Energy-OPLS-2005>
12622.6376953125

> <r_mmod_Stretch_Energy-OPLS-2005>
6901.89013671875

> <r_mmod_Bend_Energy-OPLS-2005>
917.044067382812

> <r_mmod_Torsional_Energy-OPLS-2005>
431.520843505859

> <r_mmod_Improper_Torsional_Energy-OPLS-2005>
65.774169921875

> <r_mmod_Van_der_Waal_Energy-OPLS-2005>
3295.46850585938

> <r_mmod_Electrostatic_Energy-OPLS-2005>
-498.132965087891

> <r_mmod_Solvation_Energy-OPLS-2005>
-218.448104858398

> <b_mmod_Minimization_Converged-OPLS-2005>
0

> <r_mmod_RMS_Derivative-OPLS-2005>
6.18587064743042

$$$$
81
                    3D
 Structure written by MMmdl.
170179  0  0  1  0            999 V2000
  -30.7323  -14.6299   20.5056 C   0  0  0  0  0  0
  -30.4063  -12.4027   19.4553 C   0  0  0  0  0  0
  -29.4884  -12.4966   18.2217 C   0  0  0  0  0  0
  -28.0190  -12.3151   18.6407 C   0  0  0  0  0  0
  -27.6356  -13.2079   19.8483 C   0  0  2  0  0  0
  -28.6897  -13.1425   20.9822 C   0  0  0  0  0  0
  -25.2486  -13.8128   20.5685 C   0  0  0  0  0  0
  -24.1773  -13.0399   20.9217 C   0  0  0  0  0  0
  -24.6351  -11.6876   20.8776 C   0  0  0  0  0  0
  -23.9031  -10.4273   21.0437 C   0  0  0  0  0  0
  -24.3600   -9.4186   21.9199 C   0  0  0  0  0  0
  -23.6281   -8.2219   22.0757 C   0  0  0  0  0  0
  -22.4264   -8.0264   21.3545 C   0  0  0  0  0  0
  -21.9899   -9.0237   20.4645 C   0  0  0  0  0  0
  -22.7219  -10.2121   20.3065 C   0  0  0  0  0  0
  -21.6844   -6.0727   22.5281 C   0  0  0  0  0  0
  -21.4009   -6.5636   23.8213 C   0  0  0  0  0  0
  -21.3657   -5.6794   24.9178 C   0  0  0  0  0  0
  -21.6045   -4.3055   24.7228 C   0  0  0  0  0  0
  -21.8821   -3.8141   23.4352 C   0  0  0  0  0  0
  -21.9188   -4.6957   22.3405 C   0  0  0  0  0  0
  -22.7797  -13.5200   21.1872 C   0  0  0  0  0  0
  -22.1661   -4.2143   21.0979 F   0  0  0  0  0  0
  -21.5630   -3.4545   25.7745 F   0  0  0  0  0  0
  -29.9954  -13.4721   20.3947 N   0  0  0  0  0  0
  -26.2897  -12.9293   20.3305 N   0  0  0  0  0  0
  -25.9270  -11.6462   20.5795 N   0  0  0  0  0  0
  -22.0442  -12.8200   22.0433 N   0  0  0  0  0  0
  -25.4129  -15.1850   20.4054 N   0  0  0  0  0  0
  -31.9201  -14.6044   20.1709 O   0  0  0  0  0  0
  -21.6624   -6.8868   21.4242 O   0  0  0  0  0  0
  -22.3494  -14.5509   20.6722 O   0  0  0  0  0  0
  -24.6218  -31.8636   23.2070 C   0  0  0  0  0  0
  -25.9085  -32.4801   23.8383 C   0  0  1  0  0  0
  -27.2227  -27.3551   20.1132 C   0  0  0  0  0  0
  -25.5919  -33.8602   24.2308 N   0  0  0  0  0  0
  -23.4135  -30.4888   21.5484 C   0  0  2  0  0  0
  -24.8591  -28.9517   20.1095 C   0  0  0  0  0  0
  -22.7453  -29.4642   22.4953 C   0  0  0  0  0  0
  -18.0280  -28.1382   22.8488 C   0  0  0  0  0  0
  -24.1489  -36.7304   23.2636 C   0  0  0  0  0  0
  -25.9512  -30.8044   21.3743 C   0  0  0  0  0  0
  -26.0246  -29.4357   20.7159 C   0  0  0  0  0  0
  -27.2081  -28.6468   20.7126 C   0  0  0  0  0  0
  -26.0374  -26.9227   19.4697 C   0  0  0  0  0  0
  -24.8655  -27.6989   19.4789 C   0  0  0  0  0  0
  -23.6254  -29.8270   20.1619 C   0  0  0  0  0  0
  -25.4113  -36.3099   24.0332 C   0  0  1  0  0  0
  -20.5880  -28.3684   23.1293 C   0  0  2  0  0  0
  -20.6773  -26.9412   22.5410 C   0  0  0  0  0  0
  -19.5749  -26.6385   21.5212 C   0  0  0  0  0  0
  -18.1930  -26.7927   22.1624 C   0  0  0  0  0  0
  -19.1531  -28.8849   23.2887 C   0  0  0  0  0  0
  -18.9456  -30.1452   23.8901 C   0  0  0  0  0  0
  -17.6458  -30.6585   24.0567 C   0  0  0  0  0  0
  -25.9047  -34.9466   23.5119 C   0  0  0  0  0  0
  -16.5351  -29.9085   23.6323 C   0  0  0  0  0  0
  -16.7270  -28.6502   23.0348 C   0  0  0  0  0  0
  -26.4480  -31.6595   25.0735 C   0  0  0  0  0  0
  -25.3726  -31.3724   26.1470 C   0  0  0  0  0  0
  -27.0313  -30.3023   24.6164 C   0  0  0  0  0  0
  -27.6046  -32.4321   25.7500 C   0  0  0  0  0  0
  -27.5582  -37.1810   24.8463 C   0  0  0  0  0  0
  -21.4172  -29.3044   22.3691 N   0  0  0  0  0  0
  -26.4296  -37.3789   23.9405 N   0  0  0  0  0  0
  -24.6807  -31.0682   22.1004 N   0  0  0  0  0  0
  -23.4195  -28.8174   23.3015 O   0  0  0  0  0  0
  -28.3520  -26.5338   20.1847 O   0  0  0  0  0  0
  -26.5612  -34.8923   22.4681 O   0  0  0  0  0  0
  -23.5390  -32.1422   23.7413 O   0  0  0  0  0  0
  -29.5579  -21.4309   20.8388 C   0  0  0  0  0  0
  -28.6362  -22.1371   18.9506 C   0  0  0  0  0  0
  -29.1354  -22.6185   20.1285 C   0  0  0  0  0  0
  -29.3558  -20.2923   20.0737 C   0  0  0  0  0  0
  -30.6493  -18.4139   21.3994 C   0  0  0  0  0  0
  -28.5068  -17.8435   20.5076 C   0  0  0  0  0  0
  -31.1329  -16.9268   21.3252 C   0  0  0  0  0  0
  -28.8624  -16.3252   20.3895 C   0  0  0  0  0  0
  -29.6946  -18.7907   20.2610 C   0  0  0  0  0  0
  -29.2518  -20.2947   16.5182 C   0  0  0  0  0  0
  -26.8726  -20.1561   17.4172 C   0  0  0  0  0  0
  -28.1752  -25.0965   19.9329 C   0  0  0  0  0  0
  -29.2615  -24.1198   20.5281 C   0  0  2  0  0  0
  -28.3646  -19.9654   17.7276 C   0  0  0  0  0  0
  -28.7632  -20.7546   18.8953 N   0  0  0  0  0  0
  -30.1790  -15.8473   20.8942 N   0  0  0  0  0  0
  -30.6072  -24.5864   20.1573 N   0  3  0  0  0  0
  -31.4489  -12.4785   19.1426 H   0  0  0  0  0  0
  -30.3148  -11.4245   19.9307 H   0  0  0  0  0  0
  -29.7643  -11.7405   17.4858 H   0  0  0  0  0  0
  -29.6186  -13.4631   17.7320 H   0  0  0  0  0  0
  -27.8736  -11.2645   18.8944 H   0  0  0  0  0  0
  -27.3582  -12.5195   17.7967 H   0  0  0  0  0  0
  -27.6127  -14.2112   19.4381 H   0  0  0  0  0  0
  -28.7154  -12.1437   21.4208 H   0  0  0  0  0  0
  -28.4416  -13.8169   21.8021 H   0  0  0  0  0  0
  -25.2754   -9.5660   22.4767 H   0  0  0  0  0  0
  -23.9993   -7.4608   22.7473 H   0  0  0  0  0  0
  -21.0832   -8.8760   19.8949 H   0  0  0  0  0  0
  -22.3690  -10.9662   19.6176 H   0  0  0  0  0  0
  -21.2002   -7.6147   23.9717 H   0  0  0  0  0  0
  -21.1479   -6.0523   25.9081 H   0  0  0  0  0  0
  -22.0600   -2.7602   23.2854 H   0  0  0  0  0  0
  -22.4078  -11.9867   22.4819 H   0  0  0  0  0  0
  -21.1058  -13.1217   22.2646 H   0  0  0  0  0  0
  -24.6407  -15.8323   20.5181 H   0  0  0  0  0  0
  -26.2586  -15.6314   20.0776 H   0  0  0  0  0  0
  -26.7153  -32.5482   23.1135 H   0  0  0  0  0  0
  -25.0078  -33.9762   25.0459 H   0  0  0  0  0  0
  -22.7053  -31.3082   21.4095 H   0  0  0  0  0  0
  -23.3753  -35.9635   23.3304 H   0  0  0  0  0  0
  -24.3581  -36.8917   22.2050 H   0  0  0  0  0  0
  -23.7238  -37.6507   23.6652 H   0  0  0  0  0  0
  -26.0812  -31.5694   20.6076 H   0  0  0  0  0  0
  -26.8329  -30.8507   22.0024 H   0  0  0  0  0  0
  -28.1007  -29.0118   21.2011 H   0  0  0  0  0  0
  -25.9806  -25.9746   18.9567 H   0  0  0  0  0  0
  -23.9733  -27.3261   18.9942 H   0  0  0  0  0  0
  -23.7422  -30.6057   19.4070 H   0  0  0  0  0  0
  -22.7461  -29.2551   19.8599 H   0  0  0  0  0  0
  -25.1289  -36.1965   25.0826 H   0  0  0  0  0  0
  -20.9973  -28.3259   24.1414 H   0  0  0  0  0  0
  -20.5681  -26.2296   23.3606 H   0  0  0  0  0  0
  -21.6644  -26.7451   22.1203 H   0  0  0  0  0  0
  -19.6916  -25.6295   21.1241 H   0  0  0  0  0  0
  -19.6687  -27.3196   20.6742 H   0  0  0  0  0  0
  -17.4199  -26.6670   21.4026 H   0  0  0  0  0  0
  -18.0334  -26.0066   22.9019 H   0  0  0  0  0  0
  -19.7933  -30.7266   24.2278 H   0  0  0  0  0  0
  -17.5012  -31.6265   24.5168 H   0  0  0  0  0  0
  -15.5351  -30.2992   23.7642 H   0  0  0  0  0  0
  -15.8670  -28.0824   22.7060 H   0  0  0  0  0  0
  -24.5896  -30.7075   25.7802 H   0  0  0  0  0  0
  -24.8920  -32.2887   26.4908 H   0  0  0  0  0  0
  -25.8059  -30.8894   27.0237 H   0  0  0  0  0  0
  -26.2877  -29.6792   24.1177 H   0  0  0  0  0  0
  -27.4006  -29.7256   25.4654 H   0  0  0  0  0  0
  -27.8752  -30.4315   23.9384 H   0  0  0  0  0  0
  -27.2659  -33.3611   26.2099 H   0  0  0  0  0  0
  -28.3843  -32.6901   25.0321 H   0  0  0  0  0  0
  -28.0732  -31.8438   26.5399 H   0  0  0  0  0  0
  -28.2603  -38.0106   24.7513 H   0  0  0  0  0  0
  -28.1078  -36.2637   24.6288 H   0  0  0  0  0  0
  -27.2302  -37.1459   25.8868 H   0  0  0  0  0  0
  -20.9339  -29.8780   21.6919 H   0  0  0  0  0  0
  -26.0184  -38.2869   24.1401 H   0  0  0  0  0  0
  -30.0181  -21.4169   21.8180 H   0  0  0  0  0  0
  -28.2168  -22.6651   18.1037 H   0  0  0  0  0  0
  -31.5238  -19.0655   21.3671 H   0  0  0  0  0  0
  -30.1773  -18.6083   22.3633 H   0  0  0  0  0  0
  -28.0919  -18.0437   21.4963 H   0  0  0  0  0  0
  -27.6892  -18.0619   19.8213 H   0  0  0  0  0  0
  -31.5564  -16.6458   22.2910 H   0  0  0  0  0  0
  -31.9778  -16.9482   20.6345 H   0  0  0  0  0  0
  -28.8047  -16.0622   19.3323 H   0  0  0  0  0  0
  -28.0738  -15.7897   20.9099 H   0  0  0  0  0  0
  -30.1895  -18.4725   19.3422 H   0  0  0  0  0  0
  -28.9968  -19.6658   15.6654 H   0  0  0  0  0  0
  -30.3033  -20.1215   16.7488 H   0  0  0  0  0  0
  -29.1454  -21.3340   16.2071 H   0  0  0  0  0  0
  -26.5540  -19.4929   16.6132 H   0  0  0  0  0  0
  -26.6474  -21.1772   17.1096 H   0  0  0  0  0  0
  -26.2610  -19.9289   18.2908 H   0  0  0  0  0  0
  -27.2196  -24.7606   20.3377 H   0  0  0  0  0  0
  -28.1241  -24.9643   18.8515 H   0  0  0  0  0  0
  -29.1913  -24.1713   21.6156 H   0  0  0  0  0  0
  -28.5095  -18.9087   17.9378 H   0  0  0  0  0  0
  -30.7429  -24.5356   19.1635 H   0  0  0  0  0  0
  -31.3058  -24.0203   20.6046 H   0  0  0  0  0  0
  -30.7313  -25.5408   20.4487 H   0  0  0  0  0  0
  1 25  1  0  0  0
  1 30  2  0  0  0
  1 86  1  0  0  0
  2  3  1  0  0  0
  2 25  1  0  0  0
  2 88  1  0  0  0
  2 89  1  0  0  0
  3  4  1  0  0  0
  3 90  1  0  0  0
  3 91  1  0  0  0
  4  5  1  0  0  0
  4 92  1  0  0  0
  4 93  1  0  0  0
  5  6  1  0  0  0
  5 26  1  0  0  0
  5 94  1  0  0  0
  6 25  1  0  0  0
  6 95  1  0  0  0
  6 96  1  0  0  0
  7  8  2  0  0  0
  7 26  1  0  0  0
  7 29  1  0  0  0
  8  9  1  0  0  0
  8 22  1  0  0  0
  9 10  1  0  0  0
  9 27  2  0  0  0
 10 11  2  0  0  0
 10 15  1  0  0  0
 11 12  1  0  0  0
 11 97  1  0  0  0
 12 13  2  0  0  0
 12 98  1  0  0  0
 13 14  1  0  0  0
 13 31  1  0  0  0
 14 15  2  0  0  0
 14 99  1  0  0  0
 15100  1  0  0  0
 16 17  2  0  0  0
 16 21  1  0  0  0
 16 31  1  0  0  0
 17 18  1  0  0  0
 17101  1  0  0  0
 18 19  2  0  0  0
 18102  1  0  0  0
 19 20  1  0  0  0
 19 24  1  0  0  0
 20 21  2  0  0  0
 20103  1  0  0  0
 21 23  1  0  0  0
 22 28  1  0  0  0
 22 32  2  0  0  0
 26 27  1  0  0  0
 28104  1  0  0  0
 28105  1  0  0  0
 29106  1  0  0  0
 29107  1  0  0  0
 33 34  1  0  0  0
 33 66  1  0  0  0
 33 70  2  0  0  0
 34 36  1  0  0  0
 34 59  1  0  0  0
 34108  1  0  0  0
 35 44  2  0  0  0
 35 45  1  0  0  0
 35 68  1  0  0  0
 36 56  1  0  0  0
 36109  1  0  0  0
 37 39  1  0  0  0
 37 47  1  0  0  0
 37 66  1  0  0  0
 37110  1  0  0  0
 38 43  2  0  0  0
 38 46  1  0  0  0
 38 47  1  0  0  0
 39 64  1  0  0  0
 39 67  2  0  0  0
 40 52  1  0  0  0
 40 53  2  0  0  0
 40 58  1  0  0  0
 41111  1  0  0  0
 41112  1  0  0  0
 41113  1  0  0  0
 41 48  1  0  0  0
 42 43  1  0  0  0
 42 66  1  0  0  0
 42114  1  0  0  0
 42115  1  0  0  0
 43 44  1  0  0  0
 44116  1  0  0  0
 45 46  2  0  0  0
 45117  1  0  0  0
 46118  1  0  0  0
 47119  1  0  0  0
 47120  1  0  0  0
 48 56  1  0  0  0
 48 65  1  0  0  0
 48121  1  0  0  0
 49 50  1  0  0  0
 49 53  1  0  0  0
 49 64  1  0  0  0
 49122  1  0  0  0
 50 51  1  0  0  0
 50123  1  0  0  0
 50124  1  0  0  0
 51 52  1  0  0  0
 51125  1  0  0  0
 51126  1  0  0  0
 52127  1  0  0  0
 52128  1  0  0  0
 53 54  1  0  0  0
 54 55  2  0  0  0
 54129  1  0  0  0
 55 57  1  0  0  0
 55130  1  0  0  0
 56 69  2  0  0  0
 57 58  2  0  0  0
 57131  1  0  0  0
 58132  1  0  0  0
 59 60  1  0  0  0
 59 61  1  0  0  0
 59 62  1  0  0  0
 60133  1  0  0  0
 60134  1  0  0  0
 60135  1  0  0  0
 61136  1  0  0  0
 61137  1  0  0  0
 61138  1  0  0  0
 62139  1  0  0  0
 62140  1  0  0  0
 62141  1  0  0  0
 63 65  1  0  0  0
 63142  1  0  0  0
 63143  1  0  0  0
 63144  1  0  0  0
 64145  1  0  0  0
 65146  1  0  0  0
 68 82  1  0  0  0
 71 73  1  0  0  0
 71 74  2  0  0  0
 71147  1  0  0  0
 72 73  2  0  0  0
 72 85  1  0  0  0
 72148  1  0  0  0
 73 83  1  0  0  0
 74 85  1  0  0  0
 74 79  1  0  0  0
 75 77  1  0  0  0
 75 79  1  0  0  0
 75149  1  0  0  0
 75150  1  0  0  0
 76 78  1  0  0  0
 76 79  1  0  0  0
 76151  1  0  0  0
 76152  1  0  0  0
 77 86  1  0  0  0
 77153  1  0  0  0
 77154  1  0  0  0
 78 86  1  0  0  0
 78155  1  0  0  0
 78156  1  0  0  0
 79157  1  0  0  0
 80158  1  0  0  0
 80159  1  0  0  0
 80160  1  0  0  0
 80 84  1  0  0  0
 81 84  1  0  0  0
 81161  1  0  0  0
 81162  1  0  0  0
 81163  1  0  0  0
 82 83  1  0  0  0
 82164  1  0  0  0
 82165  1  0  0  0
 83 87  1  0  0  0
 83166  1  0  0  0
 84 85  1  0  0  0
 84167  1  0  0  0
 87168  1  0  0  0
 87169  1  0  0  0
 87170  1  0  0  0
M  CHG  1  87   1
M  ISO  4   1 100  68 101  82 101  86 100
M  END
> <chiral flag>
0

> <version>
0

> <s_m_source_file>
/data/baiqing/PycharmProjects/Reinvent-master-3.2/result/LINK_invent/BTK/process_docking_weight1_custom_sum_contain_oxygen_bond_distance_aromatic_linkinvent_7_9_3/rearranged_h_0155.sdf

> <i_m_source_file_index>
82

> <r_mmod_Potential_Energy-OPLS-2005>
2.47890830039978

> <r_mmod_Stretch_Energy-OPLS-2005>
71.526725769043

> <r_mmod_Bend_Energy-OPLS-2005>
157.588745117188

> <r_mmod_Torsional_Energy-OPLS-2005>
334.915008544922

> <r_mmod_Improper_Torsional_Energy-OPLS-2005>
3.92942595481873

> <r_mmod_Van_der_Waal_Energy-OPLS-2005>
140.606781005859

> <r_mmod_Electrostatic_Energy-OPLS-2005>
-313.626983642578

> <r_mmod_Solvation_Energy-OPLS-2005>
-440.794586181641

> <b_mmod_Minimization_Converged-OPLS-2005>
0

> <r_mmod_RMS_Derivative-OPLS-2005>
0.974401116371155

$$$$
82
                    3D
 Structure written by MMmdl.
172181  0  0  1  0            999 V2000
  -30.7678  -14.4240   20.6485 C   0  0  0  0  0  0
  -30.4140  -12.3104   19.4136 C   0  0  0  0  0  0
  -29.4852  -12.5113   18.2014 C   0  0  0  0  0  0
  -28.0123  -12.3389   18.6176 C   0  0  0  0  0  0
  -27.6556  -13.1874   19.8622 C   0  0  2  0  0  0
  -28.6984  -12.9909   20.9906 C   0  0  0  0  0  0
  -25.2598  -13.8118   20.5671 C   0  0  0  0  0  0
  -24.1836  -13.0428   20.9195 C   0  0  0  0  0  0
  -24.6371  -11.6890   20.8762 C   0  0  0  0  0  0
  -23.9042  -10.4283   21.0434 C   0  0  0  0  0  0
  -24.3608   -9.4197   21.9201 C   0  0  0  0  0  0
  -23.6289   -8.2231   22.0762 C   0  0  0  0  0  0
  -22.4269   -8.0275   21.3551 C   0  0  0  0  0  0
  -21.9901   -9.0251   20.4657 C   0  0  0  0  0  0
  -22.7228  -10.2130   20.3070 C   0  0  0  0  0  0
  -21.6844   -6.0740   22.5286 C   0  0  0  0  0  0
  -21.4002   -6.5646   23.8222 C   0  0  0  0  0  0
  -21.3656   -5.6795   24.9185 C   0  0  0  0  0  0
  -21.6041   -4.3055   24.7231 C   0  0  0  0  0  0
  -21.8820   -3.8150   23.4351 C   0  0  0  0  0  0
  -21.9193   -4.6969   22.3410 C   0  0  0  0  0  0
  -22.7868  -13.5252   21.1859 C   0  0  0  0  0  0
  -22.1660   -4.2158   21.0986 F   0  0  0  0  0  0
  -21.5637   -3.4534   25.7743 F   0  0  0  0  0  0
  -30.0372  -13.2884   20.4496 N   0  0  0  0  0  0
  -26.2985  -12.9236   20.3308 N   0  0  0  0  0  0
  -25.9277  -11.6425   20.5766 N   0  0  0  0  0  0
  -22.0491  -12.8244   22.0407 N   0  0  0  0  0  0
  -25.4369  -15.1831   20.4068 N   0  0  0  0  0  0
  -31.8406  -14.6253   20.0708 O   0  0  0  0  0  0
  -21.6631   -6.8878   21.4243 O   0  0  0  0  0  0
  -22.3567  -14.5564   20.6715 O   0  0  0  0  0  0
  -24.6136  -31.8690   23.2134 C   0  0  0  0  0  0
  -25.9041  -32.4820   23.8407 C   0  0  1  0  0  0
  -27.2385  -27.4506   20.0692 C   0  0  0  0  0  0
  -25.5907  -33.8621   24.2342 N   0  0  0  0  0  0
  -23.3994  -30.4933   21.5566 C   0  0  2  0  0  0
  -24.8437  -28.9608   20.1203 C   0  0  0  0  0  0
  -22.7394  -29.4664   22.5042 C   0  0  0  0  0  0
  -18.0255  -28.1382   22.8497 C   0  0  0  0  0  0
  -24.1480  -36.7324   23.2640 C   0  0  0  0  0  0
  -25.9288  -30.8321   21.3687 C   0  0  0  0  0  0
  -26.0034  -29.4682   20.7164 C   0  0  0  0  0  0
  -27.1987  -28.7154   20.6991 C   0  0  0  0  0  0
  -26.0498  -26.9494   19.4831 C   0  0  0  0  0  0
  -24.8593  -27.6967   19.5086 C   0  0  0  0  0  0
  -23.6052  -29.8245   20.1714 C   0  0  0  0  0  0
  -25.4099  -36.3112   24.0341 C   0  0  1  0  0  0
  -20.5843  -28.3655   23.1357 C   0  0  2  0  0  0
  -20.6748  -26.9395   22.5446 C   0  0  0  0  0  0
  -19.5736  -26.6382   21.5232 C   0  0  0  0  0  0
  -18.1905  -26.7938   22.1619 C   0  0  0  0  0  0
  -19.1502  -28.8835   23.2921 C   0  0  0  0  0  0
  -18.9427  -30.1451   23.8908 C   0  0  0  0  0  0
  -17.6430  -30.6593   24.0562 C   0  0  0  0  0  0
  -25.9032  -34.9476   23.5136 C   0  0  0  0  0  0
  -16.5321  -29.9087   23.6339 C   0  0  0  0  0  0
  -16.7243  -28.6511   23.0345 C   0  0  0  0  0  0
  -26.4465  -31.6601   25.0741 C   0  0  0  0  0  0
  -25.3736  -31.3750   26.1498 C   0  0  0  0  0  0
  -27.0265  -30.3019   24.6149 C   0  0  0  0  0  0
  -27.6052  -32.4316   25.7495 C   0  0  0  0  0  0
  -27.5588  -37.1803   24.8448 C   0  0  0  0  0  0
  -21.4128  -29.3026   22.3773 N   0  0  0  0  0  0
  -26.4286  -37.3794   23.9412 N   0  0  0  0  0  0
  -24.6657  -31.0788   22.1044 N   0  0  0  0  0  0
  -23.4175  -28.8205   23.3076 O   0  0  0  0  0  0
  -28.4332  -26.7570   20.0513 O   0  0  0  0  0  0
  -26.5585  -34.8923   22.4689 O   0  0  0  0  0  0
  -23.5338  -32.1444   23.7541 O   0  0  0  0  0  0
  -31.7782  -17.2797   22.1082 C   0  0  0  0  0  0
  -29.6274  -17.5417   20.8346 C   0  0  0  0  0  0
  -31.4012  -21.8409   22.0435 C   0  0  0  0  0  0
  -31.2805  -15.8872   22.5697 C   0  0  0  0  0  0
  -29.1887  -16.1716   21.3900 C   0  0  0  0  0  0
  -31.8772  -20.3877   22.2192 C   0  0  0  0  0  0
  -30.1127  -20.4457   20.6228 C   0  0  0  0  0  0
  -30.7115  -21.8587   20.6772 C   0  0  1  0  0  0
  -30.6156  -18.2534   21.7885 C   0  0  0  0  0  0
  -31.0467  -26.2129   18.8927 C   0  0  0  0  0  0
  -29.6778  -22.9910   20.4674 C   0  0  0  0  0  0
  -28.5590  -25.6650   19.1364 C   0  0  0  0  0  0
  -30.0009  -25.1084   19.1381 C   0  0  2  0  0  0
  -30.3412  -15.2857   21.6080 N   0  0  0  0  0  0
  -31.1204  -19.5542   21.2484 N   0  3  2  0  0  0
  -30.3074  -24.3345   20.3718 N   0  3  0  0  0  0
  -31.4575  -12.3998   19.1075 H   0  0  0  0  0  0
  -30.3120  -11.2980   19.8083 H   0  0  0  0  0  0
  -29.7371  -11.8001   17.4135 H   0  0  0  0  0  0
  -29.6368  -13.5055   17.7779 H   0  0  0  0  0  0
  -27.8425  -11.2819   18.8259 H   0  0  0  0  0  0
  -27.3524  -12.5924   17.7869 H   0  0  0  0  0  0
  -27.6811  -14.2169   19.5157 H   0  0  0  0  0  0
  -28.6762  -11.9605   21.3471 H   0  0  0  0  0  0
  -28.4444  -13.5971   21.8603 H   0  0  0  0  0  0
  -25.2766   -9.5662   22.4760 H   0  0  0  0  0  0
  -24.0006   -7.4609   22.7463 H   0  0  0  0  0  0
  -21.0838   -8.8768   19.8956 H   0  0  0  0  0  0
  -22.3707  -10.9665   19.6166 H   0  0  0  0  0  0
  -21.1978   -7.6152   23.9732 H   0  0  0  0  0  0
  -21.1476   -6.0521   25.9092 H   0  0  0  0  0  0
  -22.0599   -2.7609   23.2846 H   0  0  0  0  0  0
  -22.4086  -11.9887   22.4773 H   0  0  0  0  0  0
  -21.1120  -13.1283   22.2633 H   0  0  0  0  0  0
  -24.6766  -15.8434   20.5235 H   0  0  0  0  0  0
  -26.2930  -15.6159   20.0866 H   0  0  0  0  0  0
  -26.7107  -32.5524   23.1170 H   0  0  0  0  0  0
  -25.0048  -33.9776   25.0475 H   0  0  0  0  0  0
  -22.6871  -31.3101   21.4196 H   0  0  0  0  0  0
  -23.3731  -35.9664   23.3289 H   0  0  0  0  0  0
  -24.3577  -36.8950   22.2054 H   0  0  0  0  0  0
  -23.7236  -37.6534   23.6647 H   0  0  0  0  0  0
  -26.0418  -31.5971   20.5985 H   0  0  0  0  0  0
  -26.8172  -30.8831   21.9864 H   0  0  0  0  0  0
  -28.0968  -29.1081   21.1558 H   0  0  0  0  0  0
  -26.0092  -25.9853   18.9984 H   0  0  0  0  0  0
  -23.9642  -27.2980   19.0515 H   0  0  0  0  0  0
  -23.7077  -30.5966   19.4078 H   0  0  0  0  0  0
  -22.7303  -29.2399   19.8830 H   0  0  0  0  0  0
  -25.1279  -36.1972   25.0833 H   0  0  0  0  0  0
  -20.9930  -28.3199   24.1480 H   0  0  0  0  0  0
  -20.5663  -26.2252   23.3617 H   0  0  0  0  0  0
  -21.6615  -26.7459   22.1222 H   0  0  0  0  0  0
  -19.6895  -25.6300   21.1252 H   0  0  0  0  0  0
  -19.6707  -27.3199   20.6769 H   0  0  0  0  0  0
  -17.4206  -26.6711   21.3992 H   0  0  0  0  0  0
  -18.0278  -26.0064   22.8995 H   0  0  0  0  0  0
  -19.7901  -30.7264   24.2275 H   0  0  0  0  0  0
  -17.4983  -31.6272   24.5171 H   0  0  0  0  0  0
  -15.5321  -30.2979   23.7685 H   0  0  0  0  0  0
  -15.8637  -28.0844   22.7041 H   0  0  0  0  0  0
  -24.5914  -30.7074   25.7875 H   0  0  0  0  0  0
  -24.8908  -32.2922   26.4893 H   0  0  0  0  0  0
  -25.8092  -30.8984   27.0292 H   0  0  0  0  0  0
  -26.2811  -29.6813   24.1164 H   0  0  0  0  0  0
  -27.3948  -29.7235   25.4639 H   0  0  0  0  0  0
  -27.8693  -30.4284   23.9345 H   0  0  0  0  0  0
  -27.2664  -33.3596   26.2116 H   0  0  0  0  0  0
  -28.3834  -32.6923   25.0310 H   0  0  0  0  0  0
  -28.0745  -31.8417   26.5378 H   0  0  0  0  0  0
  -28.2601  -38.0106   24.7499 H   0  0  0  0  0  0
  -28.1088  -36.2644   24.6248 H   0  0  0  0  0  0
  -27.2317  -37.1424   25.8852 H   0  0  0  0  0  0
  -20.9291  -29.8738   21.6987 H   0  0  0  0  0  0
  -26.0182  -38.2880   24.1407 H   0  0  0  0  0  0
  -32.4095  -17.1559   21.2267 H   0  0  0  0  0  0
  -32.4198  -17.7001   22.8838 H   0  0  0  0  0  0
  -28.7322  -18.1447   20.6829 H   0  0  0  0  0  0
  -30.0829  -17.4113   19.8516 H   0  0  0  0  0  0
  -32.2222  -22.5554   22.1168 H   0  0  0  0  0  0
  -30.6861  -22.0823   22.8324 H   0  0  0  0  0  0
  -30.7803  -15.9735   23.5356 H   0  0  0  0  0  0
  -32.1330  -15.2248   22.7371 H   0  0  0  0  0  0
  -28.4762  -15.7440   20.6949 H   0  0  0  0  0  0
  -28.6484  -16.2942   22.3296 H   0  0  0  0  0  0
  -31.7315  -20.0650   23.2512 H   0  0  0  0  0  0
  -32.9418  -20.2992   22.0016 H   0  0  0  0  0  0
  -29.8836  -20.1384   19.6009 H   0  0  0  0  0  0
  -29.1854  -20.4157   21.1977 H   0  0  0  0  0  0
  -31.4731  -21.9228   19.8975 H   0  0  0  0  0  0
  -30.0751  -18.4643   22.7137 H   0  0  0  0  0  0
  -30.8549  -26.7245   17.9487 H   0  0  0  0  0  0
  -32.0563  -25.8023   18.8350 H   0  0  0  0  0  0
  -31.0385  -26.9680   19.6792 H   0  0  0  0  0  0
  -28.9485  -23.0013   21.2785 H   0  0  0  0  0  0
  -29.1087  -22.7756   19.5615 H   0  0  0  0  0  0
  -27.8566  -24.8689   19.3854 H   0  0  0  0  0  0
  -28.3164  -26.0086   18.1290 H   0  0  0  0  0  0
  -30.0845  -24.4172   18.2966 H   0  0  0  0  0  0
  -31.7759  -19.3298   20.5137 H   0  0  0  0  0  0
  -31.3055  -24.2088   20.4206 H   0  0  0  0  0  0
  -30.0403  -24.8778   21.1803 H   0  0  0  0  0  0
  1 25  1  0  0  0
  1 30  2  0  0  0
  1 84  1  0  0  0
  2  3  1  0  0  0
  2 25  1  0  0  0
  2 87  1  0  0  0
  2 88  1  0  0  0
  3  4  1  0  0  0
  3 89  1  0  0  0
  3 90  1  0  0  0
  4  5  1  0  0  0
  4 91  1  0  0  0
  4 92  1  0  0  0
  5  6  1  0  0  0
  5 26  1  0  0  0
  5 93  1  0  0  0
  6 25  1  0  0  0
  6 94  1  0  0  0
  6 95  1  0  0  0
  7  8  2  0  0  0
  7 26  1  0  0  0
  7 29  1  0  0  0
  8  9  1  0  0  0
  8 22  1  0  0  0
  9 10  1  0  0  0
  9 27  2  0  0  0
 10 11  2  0  0  0
 10 15  1  0  0  0
 11 12  1  0  0  0
 11 96  1  0  0  0
 12 13  2  0  0  0
 12 97  1  0  0  0
 13 14  1  0  0  0
 13 31  1  0  0  0
 14 15  2  0  0  0
 14 98  1  0  0  0
 15 99  1  0  0  0
 16 17  2  0  0  0
 16 21  1  0  0  0
 16 31  1  0  0  0
 17 18  1  0  0  0
 17100  1  0  0  0
 18 19  2  0  0  0
 18101  1  0  0  0
 19 20  1  0  0  0
 19 24  1  0  0  0
 20 21  2  0  0  0
 20102  1  0  0  0
 21 23  1  0  0  0
 22 28  1  0  0  0
 22 32  2  0  0  0
 26 27  1  0  0  0
 28103  1  0  0  0
 28104  1  0  0  0
 29105  1  0  0  0
 29106  1  0  0  0
 33 34  1  0  0  0
 33 66  1  0  0  0
 33 70  2  0  0  0
 34 36  1  0  0  0
 34 59  1  0  0  0
 34107  1  0  0  0
 35 44  2  0  0  0
 35 45  1  0  0  0
 35 68  1  0  0  0
 36 56  1  0  0  0
 36108  1  0  0  0
 37 39  1  0  0  0
 37 47  1  0  0  0
 37 66  1  0  0  0
 37109  1  0  0  0
 38 43  2  0  0  0
 38 46  1  0  0  0
 38 47  1  0  0  0
 39 64  1  0  0  0
 39 67  2  0  0  0
 40 52  1  0  0  0
 40 53  2  0  0  0
 40 58  1  0  0  0
 41110  1  0  0  0
 41111  1  0  0  0
 41112  1  0  0  0
 41 48  1  0  0  0
 42 43  1  0  0  0
 42 66  1  0  0  0
 42113  1  0  0  0
 42114  1  0  0  0
 43 44  1  0  0  0
 44115  1  0  0  0
 45 46  2  0  0  0
 45116  1  0  0  0
 46117  1  0  0  0
 47118  1  0  0  0
 47119  1  0  0  0
 48 56  1  0  0  0
 48 65  1  0  0  0
 48120  1  0  0  0
 49 50  1  0  0  0
 49 53  1  0  0  0
 49 64  1  0  0  0
 49121  1  0  0  0
 50 51  1  0  0  0
 50122  1  0  0  0
 50123  1  0  0  0
 51 52  1  0  0  0
 51124  1  0  0  0
 51125  1  0  0  0
 52126  1  0  0  0
 52127  1  0  0  0
 53 54  1  0  0  0
 54 55  2  0  0  0
 54128  1  0  0  0
 55 57  1  0  0  0
 55129  1  0  0  0
 56 69  2  0  0  0
 57 58  2  0  0  0
 57130  1  0  0  0
 58131  1  0  0  0
 59 60  1  0  0  0
 59 61  1  0  0  0
 59 62  1  0  0  0
 60132  1  0  0  0
 60133  1  0  0  0
 60134  1  0  0  0
 61135  1  0  0  0
 61136  1  0  0  0
 61137  1  0  0  0
 62138  1  0  0  0
 62139  1  0  0  0
 62140  1  0  0  0
 63 65  1  0  0  0
 63141  1  0  0  0
 63142  1  0  0  0
 63143  1  0  0  0
 64144  1  0  0  0
 65145  1  0  0  0
 68 82  1  0  0  0
 71 74  1  0  0  0
 71146  1  0  0  0
 71147  1  0  0  0
 71 79  1  0  0  0
 72 75  1  0  0  0
 72 79  1  0  0  0
 72148  1  0  0  0
 72149  1  0  0  0
 73 76  1  0  0  0
 73 78  1  0  0  0
 73150  1  0  0  0
 73151  1  0  0  0
 74 84  1  0  0  0
 74152  1  0  0  0
 74153  1  0  0  0
 75 84  1  0  0  0
 75154  1  0  0  0
 75155  1  0  0  0
 76156  1  0  0  0
 76157  1  0  0  0
 76 85  1  0  0  0
 77 78  1  0  0  0
 77 85  1  0  0  0
 77158  1  0  0  0
 77159  1  0  0  0
 78 81  1  0  0  0
 78160  1  0  0  0
 79 85  1  0  0  0
 79161  1  0  0  0
 80162  1  0  0  0
 80163  1  0  0  0
 80164  1  0  0  0
 80 83  1  0  0  0
 81 86  1  0  0  0
 81165  1  0  0  0
 81166  1  0  0  0
 82 83  1  0  0  0
 82167  1  0  0  0
 82168  1  0  0  0
 83 86  1  0  0  0
 83169  1  0  0  0
 85170  1  0  0  0
 86171  1  0  0  0
 86172  1  0  0  0
M  CHG  2  85   1  86   1
M  ISO  4   1 100  68 101  82 101  84 100
M  END
> <chiral flag>
0

> <version>
0

> <s_m_source_file>
/data/baiqing/PycharmProjects/Reinvent-master-3.2/result/LINK_invent/BTK/process_docking_weight1_custom_sum_contain_oxygen_bond_distance_aromatic_linkinvent_7_9_3/rearranged_h_0155.sdf

> <i_m_source_file_index>
83

> <r_mmod_Potential_Energy-OPLS-2005>
25.0972728729248

> <r_mmod_Stretch_Energy-OPLS-2005>
38.1351737976074

> <r_mmod_Bend_Energy-OPLS-2005>
128.203872680664

> <r_mmod_Torsional_Energy-OPLS-2005>
392.754028320312

> <r_mmod_Improper_Torsional_Energy-OPLS-2005>
4.77071666717529

> <r_mmod_Van_der_Waal_Energy-OPLS-2005>
141.048477172852

> <r_mmod_Electrostatic_Energy-OPLS-2005>
221.359008789062

> <r_mmod_Solvation_Energy-OPLS-2005>
-911.443481445312

> <b_mmod_Minimization_Converged-OPLS-2005>
0

> <r_mmod_RMS_Derivative-OPLS-2005>
1.559565782547

$$$$
83
                    3D
 Structure written by MMmdl.
172181  0  0  1  0            999 V2000
  -30.7475  -14.3671   20.6851 C   0  0  0  0  0  0
  -30.4310  -12.2931   19.3973 C   0  0  0  0  0  0
  -29.4933  -12.5270   18.1974 C   0  0  0  0  0  0
  -28.0202  -12.3713   18.6177 C   0  0  0  0  0  0
  -27.6735  -13.1954   19.8851 C   0  0  2  0  0  0
  -28.7064  -12.9232   21.0001 C   0  0  0  0  0  0
  -25.2647  -13.8139   20.5647 C   0  0  0  0  0  0
  -24.1874  -13.0437   20.9130 C   0  0  0  0  0  0
  -24.6411  -11.6904   20.8728 C   0  0  0  0  0  0
  -23.9082  -10.4301   21.0424 C   0  0  0  0  0  0
  -24.3631   -9.4211   21.9197 C   0  0  0  0  0  0
  -23.6284   -8.2264   22.0772 C   0  0  0  0  0  0
  -22.4266   -8.0316   21.3565 C   0  0  0  0  0  0
  -21.9921   -9.0291   20.4667 C   0  0  0  0  0  0
  -22.7262  -10.2161   20.3061 C   0  0  0  0  0  0
  -21.6851   -6.0773   22.5292 C   0  0  0  0  0  0
  -21.4024   -6.5662   23.8233 C   0  0  0  0  0  0
  -21.3639   -5.6798   24.9178 C   0  0  0  0  0  0
  -21.6026   -4.3060   24.7220 C   0  0  0  0  0  0
  -21.8808   -3.8168   23.4339 C   0  0  0  0  0  0
  -21.9193   -4.7002   22.3405 C   0  0  0  0  0  0
  -22.7911  -13.5280   21.1780 C   0  0  0  0  0  0
  -22.1660   -4.2194   21.0980 F   0  0  0  0  0  0
  -21.5606   -3.4533   25.7726 F   0  0  0  0  0  0
  -30.0529  -13.2221   20.4715 N   0  0  0  0  0  0
  -26.3075  -12.9285   20.3366 N   0  0  0  0  0  0
  -25.9331  -11.6453   20.5774 N   0  0  0  0  0  0
  -22.0511  -12.8304   22.0334 N   0  0  0  0  0  0
  -25.4382  -15.1855   20.4077 N   0  0  0  0  0  0
  -31.7679  -14.6799   20.0682 O   0  0  0  0  0  0
  -21.6620   -6.8924   21.4258 O   0  0  0  0  0  0
  -22.3624  -14.5593   20.6636 O   0  0  0  0  0  0
  -24.6142  -31.8724   23.2120 C   0  0  0  0  0  0
  -25.9046  -32.4832   23.8403 C   0  0  1  0  0  0
  -27.2140  -27.4382   20.0790 C   0  0  0  0  0  0
  -25.5928  -33.8636   24.2345 N   0  0  0  0  0  0
  -23.3991  -30.5000   21.5538 C   0  0  2  0  0  0
  -24.8382  -28.9750   20.1128 C   0  0  0  0  0  0
  -22.7403  -29.4689   22.4993 C   0  0  0  0  0  0
  -18.0284  -28.1372   22.8479 C   0  0  0  0  0  0
  -24.1497  -36.7314   23.2631 C   0  0  0  0  0  0
  -25.9308  -30.8370   21.3668 C   0  0  0  0  0  0
  -26.0042  -29.4756   20.7068 C   0  0  0  0  0  0
  -27.1976  -28.7155   20.6841 C   0  0  0  0  0  0
  -26.0267  -26.9604   19.4779 C   0  0  0  0  0  0
  -24.8451  -27.7163   19.4941 C   0  0  0  0  0  0
  -23.6036  -29.8401   20.1665 C   0  0  0  0  0  0
  -25.4110  -36.3107   24.0332 C   0  0  1  0  0  0
  -20.5863  -28.3675   23.1308 C   0  0  2  0  0  0
  -20.6772  -26.9418   22.5403 C   0  0  0  0  0  0
  -19.5763  -26.6386   21.5192 C   0  0  0  0  0  0
  -18.1939  -26.7922   22.1602 C   0  0  0  0  0  0
  -19.1526  -28.8833   23.2893 C   0  0  0  0  0  0
  -18.9456  -30.1433   23.8925 C   0  0  0  0  0  0
  -17.6459  -30.6584   24.0549 C   0  0  0  0  0  0
  -25.9031  -34.9475   23.5121 C   0  0  0  0  0  0
  -16.5355  -29.9076   23.6317 C   0  0  0  0  0  0
  -16.7271  -28.6482   23.0359 C   0  0  0  0  0  0
  -26.4481  -31.6601   25.0732 C   0  0  0  0  0  0
  -25.3744  -31.3728   26.1484 C   0  0  0  0  0  0
  -27.0290  -30.3032   24.6092 C   0  0  0  0  0  0
  -27.6049  -32.4312   25.7506 C   0  0  0  0  0  0
  -27.5592  -37.1811   24.8462 C   0  0  0  0  0  0
  -21.4140  -29.3055   22.3725 N   0  0  0  0  0  0
  -26.4308  -37.3780   23.9405 N   0  0  0  0  0  0
  -24.6661  -31.0823   22.1031 N   0  0  0  0  0  0
  -23.4177  -28.8231   23.3030 O   0  0  0  0  0  0
  -28.3725  -26.6811   20.0968 O   0  0  0  0  0  0
  -26.5564  -34.8929   22.4663 O   0  0  0  0  0  0
  -23.5336  -32.1484   23.7510 O   0  0  0  0  0  0
  -30.8706  -21.6968   18.9144 C   0  0  0  0  0  0
  -32.1509  -19.4624   20.0247 C   0  0  0  0  0  0
  -32.2260  -21.4572   18.6203 C   0  0  0  0  0  0
  -32.8801  -20.3465   19.2020 C   0  0  0  0  0  0
  -30.1426  -20.8239   19.7499 C   0  0  0  0  0  0
  -30.7823  -19.6865   20.2898 C   0  0  0  0  0  0
  -27.8724  -23.0827   18.9186 C   0  0  0  0  0  0
  -28.9010  -23.1572   21.3986 C   0  0  0  0  0  0
  -28.2994  -24.5579   18.8242 C   0  0  0  0  0  0
  -29.2484  -24.6279   21.0964 C   0  0  0  0  0  0
  -28.2253  -22.3511   20.2461 C   0  0  2  0  0  0
  -28.1917  -25.2582   20.1875 C   0  0  1  0  0  0
  -32.9508  -22.4078   17.6811 C   0  0  0  0  0  0
  -34.3576  -20.0931   18.9524 C   0  0  0  0  0  0
  -30.5783  -16.5677   21.8453 C   0  0  0  0  0  0
  -30.0506  -17.4669   20.7129 C   0  0  0  0  0  0
  -28.7874  -21.0163   20.0545 N   0  0  0  0  0  0
  -30.2197  -15.1710   21.6127 N   0  0  0  0  0  0
  -30.0552  -18.8397   21.0946 O   0  0  0  0  0  0
  -31.4703  -12.4185   19.0915 H   0  0  0  0  0  0
  -30.3536  -11.2645   19.7531 H   0  0  0  0  0  0
  -29.7319  -11.8312   17.3904 H   0  0  0  0  0  0
  -29.6515  -13.5281   17.7924 H   0  0  0  0  0  0
  -27.8455  -11.3138   18.8107 H   0  0  0  0  0  0
  -27.3583  -12.6439   17.7966 H   0  0  0  0  0  0
  -27.7398  -14.2520   19.6201 H   0  0  0  0  0  0
  -28.6657  -11.8751   21.2968 H   0  0  0  0  0  0
  -28.4463  -13.4792   21.9022 H   0  0  0  0  0  0
  -25.2799   -9.5663   22.4760 H   0  0  0  0  0  0
  -23.9985   -7.4654   22.7508 H   0  0  0  0  0  0
  -21.0843   -8.8821   19.8996 H   0  0  0  0  0  0
  -22.3738  -10.9694   19.6157 H   0  0  0  0  0  0
  -21.2040   -7.6174   23.9743 H   0  0  0  0  0  0
  -21.1447   -6.0536   25.9086 H   0  0  0  0  0  0
  -22.0606   -2.7639   23.2810 H   0  0  0  0  0  0
  -22.4100  -11.9981   22.4768 H   0  0  0  0  0  0
  -21.1160  -13.1414   22.2538 H   0  0  0  0  0  0
  -24.6705  -15.8400   20.5195 H   0  0  0  0  0  0
  -26.2993  -15.6286   20.1121 H   0  0  0  0  0  0
  -26.7122  -32.5531   23.1175 H   0  0  0  0  0  0
  -25.0159  -33.9798   25.0541 H   0  0  0  0  0  0
  -22.6899  -31.3179   21.4176 H   0  0  0  0  0  0
  -23.3749  -35.9660   23.3298 H   0  0  0  0  0  0
  -24.3600  -36.8910   22.2049 H   0  0  0  0  0  0
  -23.7272  -37.6530   23.6636 H   0  0  0  0  0  0
  -26.0459  -31.6094   20.6037 H   0  0  0  0  0  0
  -26.8201  -30.8818   21.9835 H   0  0  0  0  0  0
  -28.0976  -29.0932   21.1493 H   0  0  0  0  0  0
  -25.9822  -25.9978   18.9920 H   0  0  0  0  0  0
  -23.9506  -27.3260   19.0293 H   0  0  0  0  0  0
  -23.7101  -30.6172   19.4097 H   0  0  0  0  0  0
  -22.7289  -29.2604   19.8662 H   0  0  0  0  0  0
  -25.1286  -36.1968   25.0826 H   0  0  0  0  0  0
  -20.9949  -28.3233   24.1426 H   0  0  0  0  0  0
  -20.5651  -26.2293   23.3586 H   0  0  0  0  0  0
  -21.6651  -26.7456   22.1217 H   0  0  0  0  0  0
  -19.6933  -25.6286   21.1242 H   0  0  0  0  0  0
  -19.6708  -27.3170   20.6702 H   0  0  0  0  0  0
  -17.4208  -26.6669   21.4004 H   0  0  0  0  0  0
  -18.0356  -26.0051   22.8991 H   0  0  0  0  0  0
  -19.7930  -30.7229   24.2325 H   0  0  0  0  0  0
  -17.5018  -31.6272   24.5151 H   0  0  0  0  0  0
  -15.5349  -30.2992   23.7628 H   0  0  0  0  0  0
  -15.8665  -28.0790   22.7096 H   0  0  0  0  0  0
  -24.5918  -30.7066   25.7851 H   0  0  0  0  0  0
  -24.8948  -32.2902   26.4909 H   0  0  0  0  0  0
  -25.8108  -30.8940   27.0258 H   0  0  0  0  0  0
  -26.2834  -29.6828   24.1118 H   0  0  0  0  0  0
  -27.4035  -29.7230   25.4536 H   0  0  0  0  0  0
  -27.8685  -30.4345   23.9256 H   0  0  0  0  0  0
  -27.2658  -33.3597   26.2111 H   0  0  0  0  0  0
  -28.3866  -32.6892   25.0347 H   0  0  0  0  0  0
  -28.0716  -31.8423   26.5413 H   0  0  0  0  0  0
  -28.2592  -38.0123   24.7489 H   0  0  0  0  0  0
  -28.1105  -36.2643   24.6295 H   0  0  0  0  0  0
  -27.2313  -37.1468   25.8869 H   0  0  0  0  0  0
  -20.9295  -29.8795   21.6961 H   0  0  0  0  0  0
  -26.0190  -38.2865   24.1372 H   0  0  0  0  0  0
  -30.3974  -22.5577   18.4728 H   0  0  0  0  0  0
  -32.6467  -18.6074   20.4609 H   0  0  0  0  0  0
  -28.2405  -22.5402   18.0457 H   0  0  0  0  0  0
  -26.7875  -23.0545   18.8156 H   0  0  0  0  0  0
  -28.2055  -23.1594   22.2402 H   0  0  0  0  0  0
  -29.7905  -22.6586   21.7844 H   0  0  0  0  0  0
  -27.7027  -25.0546   18.0612 H   0  0  0  0  0  0
  -29.3273  -24.6200   18.4668 H   0  0  0  0  0  0
  -30.2349  -24.6853   20.6344 H   0  0  0  0  0  0
  -29.3259  -25.1811   22.0329 H   0  0  0  0  0  0
  -27.2424  -22.1062   20.6567 H   0  0  0  0  0  0
  -27.2224  -25.0391   20.6403 H   0  0  0  0  0  0
  -32.2447  -22.9578   17.0576 H   0  0  0  0  0  0
  -33.6179  -21.8726   17.0062 H   0  0  0  0  0  0
  -33.5371  -23.1260   18.2515 H   0  0  0  0  0  0
  -34.7337  -19.2782   19.5716 H   0  0  0  0  0  0
  -34.9425  -20.9831   19.1850 H   0  0  0  0  0  0
  -34.5322  -19.8304   17.9094 H   0  0  0  0  0  0
  -31.6545  -16.6845   21.9715 H   0  0  0  0  0  0
  -30.1205  -16.8632   22.7909 H   0  0  0  0  0  0
  -29.0126  -17.2049   20.5019 H   0  0  0  0  0  0
  -30.5965  -17.2813   19.7857 H   0  0  0  0  0  0
  -28.4173  -20.2972   20.6714 H   0  0  0  0  0  0
  -29.4162  -14.8128   22.1079 H   0  0  0  0  0  0
  1 25  1  0  0  0
  1 30  2  0  0  0
  1 88  1  0  0  0
  2  3  1  0  0  0
  2 25  1  0  0  0
  2 90  1  0  0  0
  2 91  1  0  0  0
  3  4  1  0  0  0
  3 92  1  0  0  0
  3 93  1  0  0  0
  4  5  1  0  0  0
  4 94  1  0  0  0
  4 95  1  0  0  0
  5  6  1  0  0  0
  5 26  1  0  0  0
  5 96  1  0  0  0
  6 25  1  0  0  0
  6 97  1  0  0  0
  6 98  1  0  0  0
  7  8  2  0  0  0
  7 26  1  0  0  0
  7 29  1  0  0  0
  8  9  1  0  0  0
  8 22  1  0  0  0
  9 10  1  0  0  0
  9 27  2  0  0  0
 10 11  2  0  0  0
 10 15  1  0  0  0
 11 12  1  0  0  0
 11 99  1  0  0  0
 12 13  2  0  0  0
 12100  1  0  0  0
 13 14  1  0  0  0
 13 31  1  0  0  0
 14 15  2  0  0  0
 14101  1  0  0  0
 15102  1  0  0  0
 16 17  2  0  0  0
 16 21  1  0  0  0
 16 31  1  0  0  0
 17 18  1  0  0  0
 17103  1  0  0  0
 18 19  2  0  0  0
 18104  1  0  0  0
 19 20  1  0  0  0
 19 24  1  0  0  0
 20 21  2  0  0  0
 20105  1  0  0  0
 21 23  1  0  0  0
 22 28  1  0  0  0
 22 32  2  0  0  0
 26 27  1  0  0  0
 28106  1  0  0  0
 28107  1  0  0  0
 29108  1  0  0  0
 29109  1  0  0  0
 33 34  1  0  0  0
 33 66  1  0  0  0
 33 70  2  0  0  0
 34 36  1  0  0  0
 34 59  1  0  0  0
 34110  1  0  0  0
 35 44  2  0  0  0
 35 45  1  0  0  0
 35 68  1  0  0  0
 36 56  1  0  0  0
 36111  1  0  0  0
 37 39  1  0  0  0
 37 47  1  0  0  0
 37 66  1  0  0  0
 37112  1  0  0  0
 38 43  2  0  0  0
 38 46  1  0  0  0
 38 47  1  0  0  0
 39 64  1  0  0  0
 39 67  2  0  0  0
 40 52  1  0  0  0
 40 53  2  0  0  0
 40 58  1  0  0  0
 41113  1  0  0  0
 41114  1  0  0  0
 41115  1  0  0  0
 41 48  1  0  0  0
 42 43  1  0  0  0
 42 66  1  0  0  0
 42116  1  0  0  0
 42117  1  0  0  0
 43 44  1  0  0  0
 44118  1  0  0  0
 45 46  2  0  0  0
 45119  1  0  0  0
 46120  1  0  0  0
 47121  1  0  0  0
 47122  1  0  0  0
 48 56  1  0  0  0
 48 65  1  0  0  0
 48123  1  0  0  0
 49 50  1  0  0  0
 49 53  1  0  0  0
 49 64  1  0  0  0
 49124  1  0  0  0
 50 51  1  0  0  0
 50125  1  0  0  0
 50126  1  0  0  0
 51 52  1  0  0  0
 51127  1  0  0  0
 51128  1  0  0  0
 52129  1  0  0  0
 52130  1  0  0  0
 53 54  1  0  0  0
 54 55  2  0  0  0
 54131  1  0  0  0
 55 57  1  0  0  0
 55132  1  0  0  0
 56 69  2  0  0  0
 57 58  2  0  0  0
 57133  1  0  0  0
 58134  1  0  0  0
 59 60  1  0  0  0
 59 61  1  0  0  0
 59 62  1  0  0  0
 60135  1  0  0  0
 60136  1  0  0  0
 60137  1  0  0  0
 61138  1  0  0  0
 61139  1  0  0  0
 61140  1  0  0  0
 62141  1  0  0  0
 62142  1  0  0  0
 62143  1  0  0  0
 63 65  1  0  0  0
 63144  1  0  0  0
 63145  1  0  0  0
 63146  1  0  0  0
 64147  1  0  0  0
 65148  1  0  0  0
 68 82  1  0  0  0
 71 73  2  0  0  0
 71 75  1  0  0  0
 71149  1  0  0  0
 72 74  2  0  0  0
 72 76  1  0  0  0
 72150  1  0  0  0
 73 74  1  0  0  0
 73 83  1  0  0  0
 74 84  1  0  0  0
 75 76  2  0  0  0
 75 87  1  0  0  0
 76 89  1  0  0  0
 77 79  1  0  0  0
 77 81  1  0  0  0
 77151  1  0  0  0
 77152  1  0  0  0
 78 80  1  0  0  0
 78 81  1  0  0  0
 78153  1  0  0  0
 78154  1  0  0  0
 79 82  1  0  0  0
 79155  1  0  0  0
 79156  1  0  0  0
 80 82  1  0  0  0
 80157  1  0  0  0
 80158  1  0  0  0
 81 87  1  0  0  0
 81159  1  0  0  0
 82160  1  0  0  0
 83161  1  0  0  0
 83162  1  0  0  0
 83163  1  0  0  0
 84164  1  0  0  0
 84165  1  0  0  0
 84166  1  0  0  0
 85 86  1  0  0  0
 85 88  1  0  0  0
 85167  1  0  0  0
 85168  1  0  0  0
 86 89  1  0  0  0
 86169  1  0  0  0
 86170  1  0  0  0
 87171  1  0  0  0
 88172  1  0  0  0
M  ISO  4   1 100  68 101  82 101  88 100
M  END
> <chiral flag>
0

> <version>
0

> <s_m_source_file>
/data/baiqing/PycharmProjects/Reinvent-master-3.2/result/LINK_invent/BTK/process_docking_weight1_custom_sum_contain_oxygen_bond_distance_aromatic_linkinvent_7_9_3/rearranged_h_0155.sdf

> <i_m_source_file_index>
84

> <r_mmod_Potential_Energy-OPLS-2005>
-96.3381195068359

> <r_mmod_Stretch_Energy-OPLS-2005>
35.6528739929199

> <r_mmod_Bend_Energy-OPLS-2005>
120.758094787598

> <r_mmod_Torsional_Energy-OPLS-2005>
270.168029785156

> <r_mmod_Improper_Torsional_Energy-OPLS-2005>
5.02421236038208

> <r_mmod_Van_der_Waal_Energy-OPLS-2005>
170.184280395508

> <r_mmod_Electrostatic_Energy-OPLS-2005>
-495.159545898438

> <r_mmod_Solvation_Energy-OPLS-2005>
-212.483779907227

> <b_mmod_Minimization_Converged-OPLS-2005>
0

> <r_mmod_RMS_Derivative-OPLS-2005>
3.46018409729004

$$$$
84
                    3D
 Structure written by MMmdl.
176185  0  0  1  0            999 V2000
  -30.7945  -14.3785   20.6430 C   0  0  0  0  0  0
  -30.4054  -12.2783   19.4240 C   0  0  0  0  0  0
  -29.4914  -12.5172   18.2089 C   0  0  0  0  0  0
  -28.0135  -12.3802   18.6192 C   0  0  0  0  0  0
  -27.6646  -13.2129   19.8837 C   0  0  2  0  0  0
  -28.7030  -12.9895   21.0070 C   0  0  0  0  0  0
  -25.2581  -13.8166   20.5703 C   0  0  0  0  0  0
  -24.1847  -13.0443   20.9151 C   0  0  0  0  0  0
  -24.6394  -11.6913   20.8714 C   0  0  0  0  0  0
  -23.9075  -10.4295   21.0388 C   0  0  0  0  0  0
  -24.3620   -9.4214   21.9176 C   0  0  0  0  0  0
  -23.6291   -8.2249   22.0762 C   0  0  0  0  0  0
  -22.4276   -8.0289   21.3546 C   0  0  0  0  0  0
  -21.9912   -9.0250   20.4650 C   0  0  0  0  0  0
  -22.7237  -10.2133   20.3046 C   0  0  0  0  0  0
  -21.6860   -6.0747   22.5281 C   0  0  0  0  0  0
  -21.4011   -6.5641   23.8219 C   0  0  0  0  0  0
  -21.3664   -5.6793   24.9177 C   0  0  0  0  0  0
  -21.6037   -4.3057   24.7226 C   0  0  0  0  0  0
  -21.8824   -3.8153   23.4345 C   0  0  0  0  0  0
  -21.9189   -4.6962   22.3406 C   0  0  0  0  0  0
  -22.7857  -13.5236   21.1830 C   0  0  0  0  0  0
  -22.1661   -4.2160   21.0979 F   0  0  0  0  0  0
  -21.5627   -3.4542   25.7739 F   0  0  0  0  0  0
  -30.0423  -13.2605   20.4586 N   0  0  0  0  0  0
  -26.3044  -12.9359   20.3396 N   0  0  0  0  0  0
  -25.9332  -11.6517   20.5771 N   0  0  0  0  0  0
  -22.0496  -12.8224   22.0381 N   0  0  0  0  0  0
  -25.4258  -15.1896   20.4136 N   0  0  0  0  0  0
  -31.8926  -14.5176   20.1000 O   0  0  0  0  0  0
  -21.6638   -6.8883   21.4257 O   0  0  0  0  0  0
  -22.3546  -14.5538   20.6691 O   0  0  0  0  0  0
  -24.6112  -31.8695   23.2060 C   0  0  0  0  0  0
  -25.9014  -32.4854   23.8349 C   0  0  1  0  0  0
  -27.2429  -27.4745   20.1072 C   0  0  0  0  0  0
  -25.5905  -33.8638   24.2325 N   0  0  0  0  0  0
  -23.3975  -30.4888   21.5476 C   0  0  2  0  0  0
  -24.8437  -28.9597   20.1095 C   0  0  0  0  0  0
  -22.7424  -29.4671   22.5048 C   0  0  0  0  0  0
  -18.0280  -28.1367   22.8471 C   0  0  0  0  0  0
  -24.1520  -36.7292   23.2639 C   0  0  0  0  0  0
  -25.9145  -30.8588   21.3413 C   0  0  0  0  0  0
  -25.9960  -29.4904   20.7018 C   0  0  0  0  0  0
  -27.1949  -28.7546   20.7038 C   0  0  0  0  0  0
  -26.0894  -26.9653   19.4854 C   0  0  0  0  0  0
  -24.8846  -27.6943   19.4941 C   0  0  0  0  0  0
  -23.5994  -29.8142   20.1625 C   0  0  0  0  0  0
  -25.4132  -36.3117   24.0366 C   0  0  1  0  0  0
  -20.5880  -28.3624   23.1367 C   0  0  2  0  0  0
  -20.6766  -26.9373   22.5434 C   0  0  0  0  0  0
  -19.5748  -26.6372   21.5237 C   0  0  0  0  0  0
  -18.1922  -26.7919   22.1615 C   0  0  0  0  0  0
  -19.1534  -28.8810   23.2904 C   0  0  0  0  0  0
  -18.9459  -30.1417   23.8896 C   0  0  0  0  0  0
  -17.6468  -30.6558   24.0558 C   0  0  0  0  0  0
  -25.9063  -34.9484   23.5136 C   0  0  0  0  0  0
  -16.5350  -29.9051   23.6336 C   0  0  0  0  0  0
  -16.7273  -28.6491   23.0316 C   0  0  0  0  0  0
  -26.4466  -31.6575   25.0637 C   0  0  0  0  0  0
  -25.3761  -31.3619   26.1406 C   0  0  0  0  0  0
  -27.0313  -30.3067   24.5890 C   0  0  0  0  0  0
  -27.6074  -32.4236   25.7390 C   0  0  0  0  0  0
  -27.5602  -37.1786   24.8474 C   0  0  0  0  0  0
  -21.4170  -29.2994   22.3789 N   0  0  0  0  0  0
  -26.4321  -37.3785   23.9430 N   0  0  0  0  0  0
  -24.6604  -31.0833   22.0925 N   0  0  0  0  0  0
  -23.4218  -28.8280   23.3110 O   0  0  0  0  0  0
  -28.3711  -26.6921   20.1096 O   0  0  0  0  0  0
  -26.5615  -34.8932   22.4689 O   0  0  0  0  0  0
  -23.5315  -32.1412   23.7503 O   0  0  0  0  0  0
  -30.2451  -19.1082   18.9162 C   0  0  0  0  0  0
  -29.4669  -20.1384   21.0018 C   0  0  0  0  0  0
  -29.7026  -20.2108   19.5955 C   0  0  0  0  0  0
  -29.7813  -18.9189   21.6863 C   0  0  0  0  0  0
  -30.4357  -17.8518   21.0000 C   0  0  0  0  0  0
  -30.6671  -17.9589   19.6079 C   0  0  0  0  0  0
  -30.1615  -22.4374   21.8452 C   0  0  0  0  0  0
  -27.6143  -21.9484   21.4992 C   0  0  0  0  0  0
  -29.7242  -23.6823   22.6175 C   0  0  0  0  0  0
  -27.3560  -23.2716   22.2534 C   0  0  0  0  0  0
  -29.0303  -21.3820   21.8085 C   0  0  1  0  0  0
  -29.5089  -21.4526   18.7313 C   0  0  0  0  0  0
  -29.4754  -18.7883   23.1767 C   0  0  0  0  0  0
  -31.2205  -16.7428   17.5982 C   0  0  0  0  0  0
  -30.9826  -16.6090   21.7266 C   0  0  0  0  0  0
  -28.2164  -25.6254   22.3286 C   0  0  0  0  0  0
  -29.0212  -26.5459   21.3754 C   0  0  0  0  0  0
  -30.2867  -15.3460   21.4226 N   0  0  0  0  0  0
  -28.4807  -24.2053   22.0033 N   0  3  1  0  0  0
  -31.3869  -16.9635   18.9908 O   0  0  0  0  0  0
  -31.4534  -12.3379   19.1252 H   0  0  0  0  0  0
  -30.2729  -11.2669   19.8115 H   0  0  0  0  0  0
  -29.7289  -11.8086   17.4148 H   0  0  0  0  0  0
  -29.6727  -13.5134   17.8010 H   0  0  0  0  0  0
  -27.8183  -11.3231   18.8049 H   0  0  0  0  0  0
  -27.3677  -12.6677   17.7891 H   0  0  0  0  0  0
  -27.7155  -14.2639   19.5969 H   0  0  0  0  0  0
  -28.6615  -11.9574   21.3575 H   0  0  0  0  0  0
  -28.4708  -13.6030   21.8772 H   0  0  0  0  0  0
  -25.2773   -9.5694   22.4750 H   0  0  0  0  0  0
  -24.0006   -7.4652   22.7490 H   0  0  0  0  0  0
  -21.0841   -8.8767   19.8949 H   0  0  0  0  0  0
  -22.3697  -10.9670   19.6152 H   0  0  0  0  0  0
  -21.2009   -7.6154   23.9729 H   0  0  0  0  0  0
  -21.1476   -6.0518   25.9080 H   0  0  0  0  0  0
  -22.0597   -2.7613   23.2842 H   0  0  0  0  0  0
  -22.4100  -11.9872   22.4749 H   0  0  0  0  0  0
  -21.1111  -13.1255   22.2595 H   0  0  0  0  0  0
  -24.6564  -15.8399   20.5333 H   0  0  0  0  0  0
  -26.2832  -15.6411   20.1201 H   0  0  0  0  0  0
  -26.7110  -32.5648   23.1160 H   0  0  0  0  0  0
  -25.0142  -33.9791   25.0527 H   0  0  0  0  0  0
  -22.6827  -31.3001   21.4005 H   0  0  0  0  0  0
  -23.3809  -35.9597   23.3327 H   0  0  0  0  0  0
  -24.3608  -36.8876   22.2045 H   0  0  0  0  0  0
  -23.7269  -37.6497   23.6639 H   0  0  0  0  0  0
  -25.9891  -31.6165   20.5612 H   0  0  0  0  0  0
  -26.8133  -30.9430   21.9396 H   0  0  0  0  0  0
  -28.0781  -29.1830   21.1548 H   0  0  0  0  0  0
  -26.1196  -25.9961   19.0139 H   0  0  0  0  0  0
  -24.0062  -27.2747   19.0216 H   0  0  0  0  0  0
  -23.6948  -30.5791   19.3909 H   0  0  0  0  0  0
  -22.7241  -29.2256   19.8828 H   0  0  0  0  0  0
  -25.1309  -36.1985   25.0866 H   0  0  0  0  0  0
  -20.9926  -28.3144   24.1503 H   0  0  0  0  0  0
  -20.5712  -26.2212   23.3591 H   0  0  0  0  0  0
  -21.6631  -26.7449   22.1183 H   0  0  0  0  0  0
  -19.6924  -25.6320   21.1182 H   0  0  0  0  0  0
  -19.6677  -27.3257   20.6839 H   0  0  0  0  0  0
  -17.4207  -26.6711   21.3998 H   0  0  0  0  0  0
  -18.0240  -26.0071   22.9002 H   0  0  0  0  0  0
  -19.7942  -30.7219   24.2248 H   0  0  0  0  0  0
  -17.5024  -31.6242   24.5149 H   0  0  0  0  0  0
  -15.5335  -30.2914   23.7681 H   0  0  0  0  0  0
  -15.8707  -28.0807   22.6967 H   0  0  0  0  0  0
  -24.5967  -30.6929   25.7765 H   0  0  0  0  0  0
  -24.8892  -32.2727   26.4876 H   0  0  0  0  0  0
  -25.8129  -30.8782   27.0156 H   0  0  0  0  0  0
  -26.2797  -29.6763   24.1138 H   0  0  0  0  0  0
  -27.4416  -29.7348   25.4228 H   0  0  0  0  0  0
  -27.8459  -30.4486   23.8793 H   0  0  0  0  0  0
  -27.2767  -33.3548   26.1987 H   0  0  0  0  0  0
  -28.3879  -32.6740   25.0203 H   0  0  0  0  0  0
  -28.0767  -31.8335   26.5281 H   0  0  0  0  0  0
  -28.2604  -38.0083   24.7538 H   0  0  0  0  0  0
  -28.1098  -36.2614   24.6293 H   0  0  0  0  0  0
  -27.2296  -37.1459   25.8859 H   0  0  0  0  0  0
  -20.9330  -29.8720   21.7013 H   0  0  0  0  0  0
  -26.0236  -38.2883   24.1369 H   0  0  0  0  0  0
  -30.4243  -19.1938   17.8546 H   0  0  0  0  0  0
  -31.0363  -22.0062   22.3370 H   0  0  0  0  0  0
  -30.4958  -22.7240   20.8495 H   0  0  0  0  0  0
  -27.4367  -22.1064   20.4411 H   0  0  0  0  0  0
  -26.8564  -21.2255   21.8003 H   0  0  0  0  0  0
  -30.5235  -24.4243   22.6177 H   0  0  0  0  0  0
  -29.5495  -23.4414   23.6676 H   0  0  0  0  0  0
  -27.2709  -23.0862   23.3269 H   0  0  0  0  0  0
  -26.3999  -23.7016   21.9464 H   0  0  0  0  0  0
  -28.9300  -21.1320   22.8574 H   0  0  0  0  0  0
  -30.4850  -21.7843   18.3725 H   0  0  0  0  0  0
  -29.0613  -22.3092   19.2165 H   0  0  0  0  0  0
  -28.8991  -21.2200   17.8575 H   0  0  0  0  0  0
  -28.4832  -19.1741   23.4046 H   0  0  0  0  0  0
  -30.2133  -19.3390   23.7646 H   0  0  0  0  0  0
  -29.4295  -17.7655   23.5414 H   0  0  0  0  0  0
  -31.6025  -17.5605   16.9854 H   0  0  0  0  0  0
  -30.1739  -16.5524   17.3570 H   0  0  0  0  0  0
  -31.7903  -15.8508   17.3373 H   0  0  0  0  0  0
  -31.0373  -16.7247   22.8044 H   0  0  0  0  0  0
  -32.0380  -16.5404   21.4574 H   0  0  0  0  0  0
  -27.1508  -25.8500   22.2798 H   0  0  0  0  0  0
  -28.5043  -25.8035   23.3629 H   0  0  0  0  0  0
  -30.0074  -26.1273   21.1834 H   0  0  0  0  0  0
  -29.2248  -27.5037   21.8457 H   0  0  0  0  0  0
  -29.3823  -15.1939   21.8444 H   0  0  0  0  0  0
  -28.6223  -24.1958   21.0030 H   0  0  0  0  0  0
  1 25  1  0  0  0
  1 30  2  0  0  0
  1 88  1  0  0  0
  2  3  1  0  0  0
  2 25  1  0  0  0
  2 91  1  0  0  0
  2 92  1  0  0  0
  3  4  1  0  0  0
  3 93  1  0  0  0
  3 94  1  0  0  0
  4  5  1  0  0  0
  4 95  1  0  0  0
  4 96  1  0  0  0
  5  6  1  0  0  0
  5 26  1  0  0  0
  5 97  1  0  0  0
  6 25  1  0  0  0
  6 98  1  0  0  0
  6 99  1  0  0  0
  7  8  2  0  0  0
  7 26  1  0  0  0
  7 29  1  0  0  0
  8  9  1  0  0  0
  8 22  1  0  0  0
  9 10  1  0  0  0
  9 27  2  0  0  0
 10 11  2  0  0  0
 10 15  1  0  0  0
 11 12  1  0  0  0
 11100  1  0  0  0
 12 13  2  0  0  0
 12101  1  0  0  0
 13 14  1  0  0  0
 13 31  1  0  0  0
 14 15  2  0  0  0
 14102  1  0  0  0
 15103  1  0  0  0
 16 17  2  0  0  0
 16 21  1  0  0  0
 16 31  1  0  0  0
 17 18  1  0  0  0
 17104  1  0  0  0
 18 19  2  0  0  0
 18105  1  0  0  0
 19 20  1  0  0  0
 19 24  1  0  0  0
 20 21  2  0  0  0
 20106  1  0  0  0
 21 23  1  0  0  0
 22 28  1  0  0  0
 22 32  2  0  0  0
 26 27  1  0  0  0
 28107  1  0  0  0
 28108  1  0  0  0
 29109  1  0  0  0
 29110  1  0  0  0
 33 34  1  0  0  0
 33 66  1  0  0  0
 33 70  2  0  0  0
 34 36  1  0  0  0
 34 59  1  0  0  0
 34111  1  0  0  0
 35 44  2  0  0  0
 35 45  1  0  0  0
 35 68  1  0  0  0
 36 56  1  0  0  0
 36112  1  0  0  0
 37 39  1  0  0  0
 37 47  1  0  0  0
 37 66  1  0  0  0
 37113  1  0  0  0
 38 43  2  0  0  0
 38 46  1  0  0  0
 38 47  1  0  0  0
 39 64  1  0  0  0
 39 67  2  0  0  0
 40 52  1  0  0  0
 40 53  2  0  0  0
 40 58  1  0  0  0
 41114  1  0  0  0
 41115  1  0  0  0
 41116  1  0  0  0
 41 48  1  0  0  0
 42 43  1  0  0  0
 42 66  1  0  0  0
 42117  1  0  0  0
 42118  1  0  0  0
 43 44  1  0  0  0
 44119  1  0  0  0
 45 46  2  0  0  0
 45120  1  0  0  0
 46121  1  0  0  0
 47122  1  0  0  0
 47123  1  0  0  0
 48 56  1  0  0  0
 48 65  1  0  0  0
 48124  1  0  0  0
 49 50  1  0  0  0
 49 53  1  0  0  0
 49 64  1  0  0  0
 49125  1  0  0  0
 50 51  1  0  0  0
 50126  1  0  0  0
 50127  1  0  0  0
 51 52  1  0  0  0
 51128  1  0  0  0
 51129  1  0  0  0
 52130  1  0  0  0
 52131  1  0  0  0
 53 54  1  0  0  0
 54 55  2  0  0  0
 54132  1  0  0  0
 55 57  1  0  0  0
 55133  1  0  0  0
 56 69  2  0  0  0
 57 58  2  0  0  0
 57134  1  0  0  0
 58135  1  0  0  0
 59 60  1  0  0  0
 59 61  1  0  0  0
 59 62  1  0  0  0
 60136  1  0  0  0
 60137  1  0  0  0
 60138  1  0  0  0
 61139  1  0  0  0
 61140  1  0  0  0
 61141  1  0  0  0
 62142  1  0  0  0
 62143  1  0  0  0
 62144  1  0  0  0
 63 65  1  0  0  0
 63145  1  0  0  0
 63146  1  0  0  0
 63147  1  0  0  0
 64148  1  0  0  0
 65149  1  0  0  0
 68 87  1  0  0  0
 71 73  2  0  0  0
 71 76  1  0  0  0
 71150  1  0  0  0
 72 73  1  0  0  0
 72 74  2  0  0  0
 72 81  1  0  0  0
 73 82  1  0  0  0
 74 75  1  0  0  0
 74 83  1  0  0  0
 75 76  2  0  0  0
 75 85  1  0  0  0
 76 90  1  0  0  0
 77 79  1  0  0  0
 77 81  1  0  0  0
 77151  1  0  0  0
 77152  1  0  0  0
 78 80  1  0  0  0
 78 81  1  0  0  0
 78153  1  0  0  0
 78154  1  0  0  0
 79 89  1  0  0  0
 79155  1  0  0  0
 79156  1  0  0  0
 80 89  1  0  0  0
 80157  1  0  0  0
 80158  1  0  0  0
 81159  1  0  0  0
 82160  1  0  0  0
 82161  1  0  0  0
 82162  1  0  0  0
 83163  1  0  0  0
 83164  1  0  0  0
 83165  1  0  0  0
 84 90  1  0  0  0
 84166  1  0  0  0
 84167  1  0  0  0
 84168  1  0  0  0
 85 88  1  0  0  0
 85169  1  0  0  0
 85170  1  0  0  0
 86 87  1  0  0  0
 86171  1  0  0  0
 86172  1  0  0  0
 86 89  1  0  0  0
 87173  1  0  0  0
 87174  1  0  0  0
 88175  1  0  0  0
 89176  1  0  0  0
M  CHG  1  89   1
M  ISO  4   1 100  68 101  87 101  88 100
M  END
> <chiral flag>
0

> <version>
0

> <s_m_source_file>
/data/baiqing/PycharmProjects/Reinvent-master-3.2/result/LINK_invent/BTK/process_docking_weight1_custom_sum_contain_oxygen_bond_distance_aromatic_linkinvent_7_9_3/rearranged_h_0155.sdf

> <i_m_source_file_index>
85

> <r_mmod_Potential_Energy-OPLS-2005>
-98.5188293457031

> <r_mmod_Stretch_Energy-OPLS-2005>
42.470272064209

> <r_mmod_Bend_Energy-OPLS-2005>
127.614562988281

> <r_mmod_Torsional_Energy-OPLS-2005>
264.021484375

> <r_mmod_Improper_Torsional_Energy-OPLS-2005>
2.75167870521545

> <r_mmod_Van_der_Waal_Energy-OPLS-2005>
184.374755859375

> <r_mmod_Electrostatic_Energy-OPLS-2005>
-303.003875732422

> <r_mmod_Solvation_Energy-OPLS-2005>
-427.873779296875

> <b_mmod_Minimization_Converged-OPLS-2005>
0

> <r_mmod_RMS_Derivative-OPLS-2005>
5.35883665084839

$$$$
85
                    3D
 Structure written by MMmdl.
169179  0  0  1  0            999 V2000
  -30.6980  -14.5406   20.5492 C   0  0  0  0  0  0
  -30.4412  -12.3516   19.4425 C   0  0  0  0  0  0
  -29.5155  -12.5192   18.2233 C   0  0  0  0  0  0
  -28.0357  -12.3624   18.6275 C   0  0  0  0  0  0
  -27.6607  -13.1997   19.8800 C   0  0  2  0  0  0
  -28.7077  -13.0493   21.0098 C   0  0  0  0  0  0
  -25.2710  -13.8217   20.5735 C   0  0  0  0  0  0
  -24.1884  -13.0494   20.9123 C   0  0  0  0  0  0
  -24.6424  -11.6969   20.8708 C   0  0  0  0  0  0
  -23.9057  -10.4401   21.0355 C   0  0  0  0  0  0
  -24.3642   -9.4341   21.9113 C   0  0  0  0  0  0
  -23.6333   -8.2339   22.0706 C   0  0  0  0  0  0
  -22.4347   -8.0329   21.3501 C   0  0  0  0  0  0
  -21.9949   -9.0296   20.4613 C   0  0  0  0  0  0
  -22.7230  -10.2190   20.3000 C   0  0  0  0  0  0
  -21.6920   -6.0790   22.5261 C   0  0  0  0  0  0
  -21.4066   -6.5679   23.8199 C   0  0  0  0  0  0
  -21.3605   -5.6810   24.9133 C   0  0  0  0  0  0
  -21.6033   -4.3078   24.7197 C   0  0  0  0  0  0
  -21.8826   -3.8192   23.4318 C   0  0  0  0  0  0
  -21.9226   -4.7011   22.3380 C   0  0  0  0  0  0
  -22.7971  -13.5348   21.1822 C   0  0  0  0  0  0
  -22.1708   -4.2222   21.0948 F   0  0  0  0  0  0
  -21.5557   -3.4543   25.7687 F   0  0  0  0  0  0
  -30.0276  -13.3603   20.4372 N   0  0  0  0  0  0
  -26.3023  -12.9277   20.3367 N   0  0  0  0  0  0
  -25.9325  -11.6489   20.5742 N   0  0  0  0  0  0
  -22.0588  -12.8245   22.0293 N   0  0  0  0  0  0
  -25.4574  -15.1891   20.4222 N   0  0  0  0  0  0
  -31.8583  -14.6814   20.1478 O   0  0  0  0  0  0
  -21.6677   -6.8932   21.4235 O   0  0  0  0  0  0
  -22.3656  -14.5725   20.6763 O   0  0  0  0  0  0
  -24.6176  -31.8644   23.2097 C   0  0  0  0  0  0
  -25.9035  -32.4857   23.8408 C   0  0  1  0  0  0
  -27.1802  -27.3961   20.1004 C   0  0  0  0  0  0
  -25.5887  -33.8660   24.2349 N   0  0  0  0  0  0
  -23.4175  -30.4981   21.5344 C   0  0  2  0  0  0
  -24.8606  -28.9974   20.0906 C   0  0  0  0  0  0
  -22.7449  -29.4671   22.4684 C   0  0  0  0  0  0
  -18.0377  -28.1708   22.8190 C   0  0  0  0  0  0
  -24.1473  -36.7297   23.2618 C   0  0  0  0  0  0
  -25.9557  -30.8431   21.3742 C   0  0  0  0  0  0
  -26.0278  -29.4797   20.7066 C   0  0  0  0  0  0
  -27.1965  -28.6747   20.7246 C   0  0  0  0  0  0
  -26.0218  -27.0049   19.3810 C   0  0  0  0  0  0
  -24.8515  -27.7639   19.4302 C   0  0  0  0  0  0
  -23.6300  -29.8620   20.1423 C   0  0  0  0  0  0
  -25.4093  -36.3125   24.0330 C   0  0  1  0  0  0
  -20.5926  -28.3819   23.1312 C   0  0  2  0  0  0
  -20.6716  -26.9540   22.5656 C   0  0  0  0  0  0
  -19.5962  -26.6424   21.5234 C   0  0  0  0  0  0
  -18.1956  -26.8349   22.1096 C   0  0  0  0  0  0
  -19.1623  -28.9020   23.2875 C   0  0  0  0  0  0
  -18.9482  -30.1412   23.9258 C   0  0  0  0  0  0
  -17.6479  -30.6410   24.1107 C   0  0  0  0  0  0
  -25.9001  -34.9492   23.5093 C   0  0  0  0  0  0
  -16.5404  -29.9203   23.6303 C   0  0  0  0  0  0
  -16.7437  -28.6881   22.9886 C   0  0  0  0  0  0
  -26.4527  -31.6645   25.0726 C   0  0  0  0  0  0
  -25.3776  -31.3788   26.1434 C   0  0  0  0  0  0
  -27.0373  -30.3058   24.6146 C   0  0  0  0  0  0
  -27.6085  -32.4376   25.7502 C   0  0  0  0  0  0
  -27.5584  -37.1812   24.8465 C   0  0  0  0  0  0
  -21.4244  -29.2824   22.3233 N   0  0  0  0  0  0
  -26.4294  -37.3842   23.9406 N   0  0  0  0  0  0
  -24.6816  -31.0809   22.0958 N   0  0  0  0  0  0
  -23.4005  -28.8361   23.2983 O   0  0  0  0  0  0
  -28.1838  -26.4558   20.2891 O   0  0  0  0  0  0
  -26.5625  -34.8903   22.4717 O   0  0  0  0  0  0
  -23.5377  -32.1418   23.7400 O   0  0  0  0  0  0
  -25.7506  -21.5993   20.7137 C   0  0  0  0  0  0
  -27.0458  -21.7185   21.1859 C   0  0  0  0  0  0
  -27.5486  -20.3928   20.9631 C   0  0  0  0  0  0
  -26.6495  -23.8642   22.5715 C   0  0  0  0  0  0
  -27.0042  -25.3050   22.1834 C   0  0  0  0  0  0
  -30.0964  -17.8639   22.1705 C   0  0  0  0  0  0
  -29.4269  -17.9780   19.8180 C   0  0  0  0  0  0
  -28.5030  -23.9185   20.9285 C   0  0  0  0  0  0
  -30.0467  -16.3036   22.1703 C   0  0  0  0  0  0
  -29.3636  -16.4359   19.7169 C   0  0  0  0  0  0
  -27.6874  -22.9544   21.8543 C   0  0  2  0  0  0
  -29.0414  -18.4429   21.2253 C   0  0  0  0  0  0
  -27.6321  -25.1808   20.7882 C   0  0  2  0  0  0
  -24.3226  -19.6442   19.8594 C   0  0  0  0  0  0
  -26.6600  -19.5724   20.4164 N   0  0  0  0  0  0
  -25.5403  -20.2961   20.3136 N   0  0  0  0  0  0
  -29.9475  -15.6486   20.8403 N   0  0  0  0  0  0
  -28.8231  -19.8990   21.3122 N   0  0  0  0  0  0
  -31.4824  -12.4707   19.1541 H   0  0  0  0  0  0
  -30.3626  -11.3463   19.8598 H   0  0  0  0  0  0
  -29.7736  -11.7968   17.4510 H   0  0  0  0  0  0
  -29.6748  -13.5063   17.7836 H   0  0  0  0  0  0
  -27.8470  -11.3029   18.8040 H   0  0  0  0  0  0
  -27.3909  -12.6463   17.7910 H   0  0  0  0  0  0
  -27.6732  -14.2313   19.5517 H   0  0  0  0  0  0
  -28.4718  -13.6997   21.8576 H   0  0  0  0  0  0
  -28.7025  -12.0319   21.4105 H   0  0  0  0  0  0
  -25.2772   -9.5886   22.4720 H   0  0  0  0  0  0
  -24.0052   -7.4802   22.7539 H   0  0  0  0  0  0
  -21.0814   -8.8803   19.9038 H   0  0  0  0  0  0
  -22.3592  -10.9726   19.6143 H   0  0  0  0  0  0
  -21.2136   -7.6211   23.9690 H   0  0  0  0  0  0
  -21.1362   -6.0556   25.9010 H   0  0  0  0  0  0
  -22.0664   -2.7677   23.2768 H   0  0  0  0  0  0
  -22.4140  -11.9802   22.4576 H   0  0  0  0  0  0
  -21.1278  -13.1371   22.2553 H   0  0  0  0  0  0
  -24.7346  -15.8802   20.6125 H   0  0  0  0  0  0
  -26.3506  -15.6107   20.1876 H   0  0  0  0  0  0
  -26.7099  -32.5544   23.1158 H   0  0  0  0  0  0
  -25.0040  -33.9934   25.0465 H   0  0  0  0  0  0
  -22.7128  -31.3170   21.3958 H   0  0  0  0  0  0
  -23.3782  -35.9610   23.3332 H   0  0  0  0  0  0
  -24.3496  -36.8877   22.2028 H   0  0  0  0  0  0
  -23.7233  -37.6491   23.6630 H   0  0  0  0  0  0
  -26.1045  -31.6387   20.6410 H   0  0  0  0  0  0
  -26.8346  -30.8659   22.0045 H   0  0  0  0  0  0
  -28.0705  -28.9904   21.2775 H   0  0  0  0  0  0
  -25.9692  -26.0780   18.8271 H   0  0  0  0  0  0
  -23.9530  -27.4140   18.9361 H   0  0  0  0  0  0
  -23.7506  -30.6462   19.3949 H   0  0  0  0  0  0
  -22.7596  -29.2938   19.8154 H   0  0  0  0  0  0
  -25.1310  -36.2011   25.0869 H   0  0  0  0  0  0
  -21.0065  -28.3706   24.1453 H   0  0  0  0  0  0
  -20.5274  -26.2672   23.3983 H   0  0  0  0  0  0
  -21.6666  -26.7341   22.1765 H   0  0  0  0  0  0
  -19.7203  -25.6188   21.1833 H   0  0  0  0  0  0
  -19.7344  -27.2857   20.6513 H   0  0  0  0  0  0
  -17.4743  -26.7553   21.2945 H   0  0  0  0  0  0
  -17.9446  -26.0387   22.8089 H   0  0  0  0  0  0
  -19.7841  -30.7185   24.2885 H   0  0  0  0  0  0
  -17.4933  -31.5814   24.6318 H   0  0  0  0  0  0
  -15.5411  -30.3036   23.7562 H   0  0  0  0  0  0
  -15.8874  -28.1535   22.5936 H   0  0  0  0  0  0
  -24.5899  -30.7229   25.7734 H   0  0  0  0  0  0
  -24.9028  -32.2969   26.4905 H   0  0  0  0  0  0
  -25.8052  -30.8911   27.0175 H   0  0  0  0  0  0
  -26.2935  -29.6768   24.1224 H   0  0  0  0  0  0
  -27.4165  -29.7361   25.4642 H   0  0  0  0  0  0
  -27.8790  -30.4353   23.9316 H   0  0  0  0  0  0
  -27.2693  -33.3621   26.2168 H   0  0  0  0  0  0
  -28.3854  -32.7004   25.0326 H   0  0  0  0  0  0
  -28.0794  -31.8430   26.5333 H   0  0  0  0  0  0
  -28.2633  -38.0083   24.7523 H   0  0  0  0  0  0
  -28.1043  -36.2614   24.6305 H   0  0  0  0  0  0
  -27.2253  -37.1488   25.8852 H   0  0  0  0  0  0
  -20.9809  -29.7245   21.5306 H   0  0  0  0  0  0
  -26.0165  -38.2905   24.1506 H   0  0  0  0  0  0
  -24.9315  -22.3032   20.6583 H   0  0  0  0  0  0
  -25.6333  -23.6948   22.2199 H   0  0  0  0  0  0
  -26.5956  -23.7013   23.6524 H   0  0  0  0  0  0
  -27.7159  -25.7340   22.8884 H   0  0  0  0  0  0
  -26.1244  -25.9525   22.1712 H   0  0  0  0  0  0
  -31.0961  -18.1998   21.8834 H   0  0  0  0  0  0
  -29.9317  -18.2425   23.1826 H   0  0  0  0  0  0
  -28.7508  -18.4081   19.0755 H   0  0  0  0  0  0
  -30.4192  -18.3533   19.5629 H   0  0  0  0  0  0
  -28.7475  -23.4657   19.9650 H   0  0  0  0  0  0
  -29.4441  -24.1702   21.4287 H   0  0  0  0  0  0
  -29.1680  -15.9845   22.7352 H   0  0  0  0  0  0
  -30.9014  -15.9228   22.7308 H   0  0  0  0  0  0
  -29.7563  -16.1207   18.7505 H   0  0  0  0  0  0
  -28.3024  -16.2135   19.6785 H   0  0  0  0  0  0
  -28.3856  -22.6124   22.6246 H   0  0  0  0  0  0
  -28.1009  -17.9714   21.5088 H   0  0  0  0  0  0
  -26.8610  -24.8117   20.1123 H   0  0  0  0  0  0
  -23.5843  -20.3846   19.5529 H   0  0  0  0  0  0
  -23.8983  -19.0421   20.6684 H   0  0  0  0  0  0
  -24.5406  -18.9904   19.0103 H   0  0  0  0  0  0
  -29.4521  -20.4695   21.8664 H   0  0  0  0  0  0
  1 25  1  0  0  0
  1 30  2  0  0  0
  1 87  1  0  0  0
  2  3  1  0  0  0
  2 25  1  0  0  0
  2 89  1  0  0  0
  2 90  1  0  0  0
  3  4  1  0  0  0
  3 91  1  0  0  0
  3 92  1  0  0  0
  4  5  1  0  0  0
  4 93  1  0  0  0
  4 94  1  0  0  0
  5  6  1  0  0  0
  5 26  1  0  0  0
  5 95  1  0  0  0
  6 25  1  0  0  0
  6 96  1  0  0  0
  6 97  1  0  0  0
  7  8  2  0  0  0
  7 26  1  0  0  0
  7 29  1  0  0  0
  8  9  1  0  0  0
  8 22  1  0  0  0
  9 10  1  0  0  0
  9 27  2  0  0  0
 10 11  2  0  0  0
 10 15  1  0  0  0
 11 12  1  0  0  0
 11 98  1  0  0  0
 12 13  2  0  0  0
 12 99  1  0  0  0
 13 14  1  0  0  0
 13 31  1  0  0  0
 14 15  2  0  0  0
 14100  1  0  0  0
 15101  1  0  0  0
 16 17  2  0  0  0
 16 21  1  0  0  0
 16 31  1  0  0  0
 17 18  1  0  0  0
 17102  1  0  0  0
 18 19  2  0  0  0
 18103  1  0  0  0
 19 20  1  0  0  0
 19 24  1  0  0  0
 20 21  2  0  0  0
 20104  1  0  0  0
 21 23  1  0  0  0
 22 28  1  0  0  0
 22 32  2  0  0  0
 26 27  1  0  0  0
 28105  1  0  0  0
 28106  1  0  0  0
 29107  1  0  0  0
 29108  1  0  0  0
 33 34  1  0  0  0
 33 66  1  0  0  0
 33 70  2  0  0  0
 34 36  1  0  0  0
 34 59  1  0  0  0
 34109  1  0  0  0
 35 44  2  0  0  0
 35 45  1  0  0  0
 35 68  1  0  0  0
 36 56  1  0  0  0
 36110  1  0  0  0
 37 39  1  0  0  0
 37 47  1  0  0  0
 37 66  1  0  0  0
 37111  1  0  0  0
 38 43  2  0  0  0
 38 46  1  0  0  0
 38 47  1  0  0  0
 39 64  1  0  0  0
 39 67  2  0  0  0
 40 52  1  0  0  0
 40 53  2  0  0  0
 40 58  1  0  0  0
 41112  1  0  0  0
 41113  1  0  0  0
 41114  1  0  0  0
 41 48  1  0  0  0
 42 43  1  0  0  0
 42 66  1  0  0  0
 42115  1  0  0  0
 42116  1  0  0  0
 43 44  1  0  0  0
 44117  1  0  0  0
 45 46  2  0  0  0
 45118  1  0  0  0
 46119  1  0  0  0
 47120  1  0  0  0
 47121  1  0  0  0
 48 56  1  0  0  0
 48 65  1  0  0  0
 48122  1  0  0  0
 49 50  1  0  0  0
 49 53  1  0  0  0
 49 64  1  0  0  0
 49123  1  0  0  0
 50 51  1  0  0  0
 50124  1  0  0  0
 50125  1  0  0  0
 51 52  1  0  0  0
 51126  1  0  0  0
 51127  1  0  0  0
 52128  1  0  0  0
 52129  1  0  0  0
 53 54  1  0  0  0
 54 55  2  0  0  0
 54130  1  0  0  0
 55 57  1  0  0  0
 55131  1  0  0  0
 56 69  2  0  0  0
 57 58  2  0  0  0
 57132  1  0  0  0
 58133  1  0  0  0
 59 60  1  0  0  0
 59 61  1  0  0  0
 59 62  1  0  0  0
 60134  1  0  0  0
 60135  1  0  0  0
 60136  1  0  0  0
 61137  1  0  0  0
 61138  1  0  0  0
 61139  1  0  0  0
 62140  1  0  0  0
 62141  1  0  0  0
 62142  1  0  0  0
 63 65  1  0  0  0
 63143  1  0  0  0
 63144  1  0  0  0
 63145  1  0  0  0
 64146  1  0  0  0
 65147  1  0  0  0
 68 83  1  0  0  0
 71 72  2  0  0  0
 71 86  1  0  0  0
 71148  1  0  0  0
 72 73  1  0  0  0
 72 81  1  0  0  0
 73 85  2  0  0  0
 73 88  1  0  0  0
 74 75  1  0  0  0
 74 81  1  0  0  0
 74149  1  0  0  0
 74150  1  0  0  0
 75 83  1  0  0  0
 75151  1  0  0  0
 75152  1  0  0  0
 76 79  1  0  0  0
 76 82  1  0  0  0
 76153  1  0  0  0
 76154  1  0  0  0
 77 80  1  0  0  0
 77 82  1  0  0  0
 77155  1  0  0  0
 77156  1  0  0  0
 78 81  1  0  0  0
 78 83  1  0  0  0
 78157  1  0  0  0
 78158  1  0  0  0
 79 87  1  0  0  0
 79159  1  0  0  0
 79160  1  0  0  0
 80 87  1  0  0  0
 80161  1  0  0  0
 80162  1  0  0  0
 81163  1  0  0  0
 82 88  1  0  0  0
 82164  1  0  0  0
 83165  1  0  0  0
 84 86  1  0  0  0
 84166  1  0  0  0
 84167  1  0  0  0
 84168  1  0  0  0
 85 86  1  0  0  0
 88169  1  0  0  0
M  ISO  4   1 100  68 101  83 101  87 100
M  END
> <chiral flag>
0

> <version>
0

> <s_m_source_file>
/data/baiqing/PycharmProjects/Reinvent-master-3.2/result/LINK_invent/BTK/process_docking_weight1_custom_sum_contain_oxygen_bond_distance_aromatic_linkinvent_7_9_3/rearranged_h_0155.sdf

> <i_m_source_file_index>
86

> <r_mmod_Potential_Energy-OPLS-2005>
226.664199829102

> <r_mmod_Stretch_Energy-OPLS-2005>
54.5286979675293

> <r_mmod_Bend_Energy-OPLS-2005>
165.858047485352

> <r_mmod_Torsional_Energy-OPLS-2005>
402.377471923828

> <r_mmod_Improper_Torsional_Energy-OPLS-2005>
9.83461380004883

> <r_mmod_Van_der_Waal_Energy-OPLS-2005>
141.878295898438

> <r_mmod_Electrostatic_Energy-OPLS-2005>
-383.366088867188

> <r_mmod_Solvation_Energy-OPLS-2005>
-213.014724731445

> <b_mmod_Minimization_Converged-OPLS-2005>
0

> <r_mmod_RMS_Derivative-OPLS-2005>
13.3037385940552

$$$$
86
                    3D
 Structure written by MMmdl.
183193  0  0  1  0            999 V2000
  -30.6417  -14.4434   20.6204 C   0  0  0  0  0  0
  -30.4329  -12.3184   19.3779 C   0  0  0  0  0  0
  -29.4869  -12.5318   18.1766 C   0  0  0  0  0  0
  -28.0094  -12.3680   18.5962 C   0  0  0  0  0  0
  -27.6564  -13.1827   19.8720 C   0  0  2  0  0  0
  -28.6992  -12.9043   20.9745 C   0  0  0  0  0  0
  -25.2581  -13.8038   20.5683 C   0  0  0  0  0  0
  -24.1843  -13.0354   20.9251 C   0  0  0  0  0  0
  -24.6397  -11.6816   20.8818 C   0  0  0  0  0  0
  -23.9058  -10.4227   21.0462 C   0  0  0  0  0  0
  -24.3607   -9.4145   21.9240 C   0  0  0  0  0  0
  -23.6287   -8.2173   22.0742 C   0  0  0  0  0  0
  -22.4279   -8.0252   21.3526 C   0  0  0  0  0  0
  -21.9916   -9.0229   20.4628 C   0  0  0  0  0  0
  -22.7251  -10.2117   20.3089 C   0  0  0  0  0  0
  -21.6831   -6.0750   22.5281 C   0  0  0  0  0  0
  -21.4020   -6.5631   23.8224 C   0  0  0  0  0  0
  -21.3660   -5.6778   24.9184 C   0  0  0  0  0  0
  -21.6031   -4.3028   24.7221 C   0  0  0  0  0  0
  -21.8816   -3.8145   23.4337 C   0  0  0  0  0  0
  -21.9198   -4.6967   22.3404 C   0  0  0  0  0  0
  -22.7873  -13.5209   21.1881 C   0  0  0  0  0  0
  -22.1662   -4.2150   21.0988 F   0  0  0  0  0  0
  -21.5633   -3.4522   25.7738 F   0  0  0  0  0  0
  -30.0173  -13.2535   20.4205 N   0  0  0  0  0  0
  -26.2984  -12.9188   20.3331 N   0  0  0  0  0  0
  -25.9291  -11.6350   20.5729 N   0  0  0  0  0  0
  -22.0461  -12.8287   22.0435 N   0  0  0  0  0  0
  -25.4203  -15.1767   20.4112 N   0  0  0  0  0  0
  -31.8092  -14.6820   20.2993 O   0  0  0  0  0  0
  -21.6592   -6.8892   21.4248 O   0  0  0  0  0  0
  -22.3623  -14.5510   20.6655 O   0  0  0  0  0  0
  -24.5895  -31.8723   23.2185 C   0  0  0  0  0  0
  -25.8853  -32.4874   23.8411 C   0  0  1  0  0  0
  -27.2466  -27.5331   20.0873 C   0  0  0  0  0  0
  -25.5802  -33.8680   24.2386 N   0  0  0  0  0  0
  -23.3725  -30.5054   21.5403 C   0  0  2  0  0  0
  -24.8224  -28.9584   20.1321 C   0  0  0  0  0  0
  -22.7238  -29.4733   22.4871 C   0  0  0  0  0  0
  -18.0284  -28.1330   22.8451 C   0  0  0  0  0  0
  -24.1512  -36.7419   23.2629 C   0  0  0  0  0  0
  -25.8900  -30.8621   21.3607 C   0  0  0  0  0  0
  -25.9656  -29.4932   20.7372 C   0  0  0  0  0  0
  -27.1678  -28.7751   20.7459 C   0  0  0  0  0  0
  -26.0851  -26.9750   19.5189 C   0  0  0  0  0  0
  -24.8654  -27.6847   19.5355 C   0  0  0  0  0  0
  -23.5905  -29.8345   20.1557 C   0  0  0  0  0  0
  -25.4114  -36.3212   24.0359 C   0  0  1  0  0  0
  -20.5853  -28.3601   23.1283 C   0  0  2  0  0  0
  -20.6747  -26.9336   22.5395 C   0  0  0  0  0  0
  -19.5793  -26.6418   21.5097 C   0  0  0  0  0  0
  -18.1984  -26.7873   22.1545 C   0  0  0  0  0  0
  -19.1533  -28.8764   23.2920 C   0  0  0  0  0  0
  -18.9461  -30.1374   23.8929 C   0  0  0  0  0  0
  -17.6482  -30.6549   24.0601 C   0  0  0  0  0  0
  -25.8994  -34.9527   23.5176 C   0  0  0  0  0  0
  -16.5369  -29.9061   23.6329 C   0  0  0  0  0  0
  -16.7282  -28.6497   23.0279 C   0  0  0  0  0  0
  -26.4408  -31.6572   25.0639 C   0  0  0  0  0  0
  -25.3827  -31.3488   26.1460 C   0  0  0  0  0  0
  -27.0152  -30.3061   24.5863 C   0  0  0  0  0  0
  -27.6061  -32.4147   25.7412 C   0  0  0  0  0  0
  -27.5631  -37.1885   24.8470 C   0  0  0  0  0  0
  -21.3995  -29.2994   22.3602 N   0  0  0  0  0  0
  -26.4332  -37.3873   23.9417 N   0  0  0  0  0  0
  -24.6341  -31.0978   22.1017 N   0  0  0  0  0  0
  -23.4095  -28.8329   23.2874 O   0  0  0  0  0  0
  -28.4494  -26.8962   19.9148 O   0  0  0  0  0  0
  -26.5611  -34.8944   22.4787 O   0  0  0  0  0  0
  -23.5104  -32.1412   23.7667 O   0  0  0  0  0  0
  -30.6541  -22.1123   23.6453 C   0  0  0  0  0  0
  -30.4673  -21.9429   21.2374 C   0  0  0  0  0  0
  -30.9118  -22.6462   22.3733 C   0  0  0  0  0  0
  -29.8258  -20.0354   22.6342 C   0  0  0  0  0  0
  -30.1060  -20.8210   23.7916 C   0  0  0  0  0  0
  -29.9159  -20.6427   21.3570 C   0  0  0  0  0  0
  -28.1559  -17.9908   22.3415 C   0  0  0  0  0  0
  -28.3668  -16.5004   22.6421 C   0  0  0  0  0  0
  -32.5522  -24.1460   21.0209 C   0  0  0  0  0  0
  -30.7037  -25.1693   22.5160 C   0  0  0  0  0  0
  -30.4842  -17.5805   22.0492 C   0  0  0  0  0  0
  -31.9266  -24.9082   19.8302 C   0  0  0  0  0  0
  -31.0634  -26.3738   21.6469 C   0  0  0  0  0  0
  -31.6459  -23.9773   22.2692 C   0  0  1  0  0  0
  -29.5174  -18.5344   22.7679 C   0  0  1  0  0  0
  -29.8242  -16.1950   22.2072 C   0  0  2  0  0  0
  -29.8291  -20.3337   25.2070 C   0  0  0  0  0  0
  -29.0108  -20.6945   19.1503 C   0  0  0  0  0  0
  -30.7745  -27.0209   19.2401 C   0  0  0  0  0  0
  -29.4988  -27.8025   19.5213 C   0  0  0  0  0  0
  -29.7828  -15.4042   20.9829 N   0  0  0  0  0  0
  -30.9388  -25.9382   20.2333 N   0  3  1  0  0  0
  -29.4869  -19.9362   20.2578 O   0  0  0  0  0  0
  -31.4692  -12.4815   19.0775 H   0  0  0  0  0  0
  -30.3788  -11.2909   19.7415 H   0  0  0  0  0  0
  -29.7356  -11.8430   17.3689 H   0  0  0  0  0  0
  -29.6278  -13.5385   17.7827 H   0  0  0  0  0  0
  -27.8452  -11.3071   18.7780 H   0  0  0  0  0  0
  -27.3433  -12.6521   17.7757 H   0  0  0  0  0  0
  -27.7051  -14.2389   19.6000 H   0  0  0  0  0  0
  -28.6834  -11.8482   21.2549 H   0  0  0  0  0  0
  -28.4648  -13.4438   21.8950 H   0  0  0  0  0  0
  -25.2746   -9.5573   22.4857 H   0  0  0  0  0  0
  -23.9967   -7.4522   22.7444 H   0  0  0  0  0  0
  -21.0842   -8.8785   19.8914 H   0  0  0  0  0  0
  -22.3738  -10.9689   19.6195 H   0  0  0  0  0  0
  -21.2018   -7.6140   23.9744 H   0  0  0  0  0  0
  -21.1481   -6.0498   25.9091 H   0  0  0  0  0  0
  -22.0605   -2.7604   23.2824 H   0  0  0  0  0  0
  -22.4048  -11.9981   22.4900 H   0  0  0  0  0  0
  -21.1018  -13.1238   22.2465 H   0  0  0  0  0  0
  -24.6281  -15.8015   20.5209 H   0  0  0  0  0  0
  -26.2550  -15.6425   20.0794 H   0  0  0  0  0  0
  -26.6891  -32.5694   23.1125 H   0  0  0  0  0  0
  -24.9947  -33.9876   25.0518 H   0  0  0  0  0  0
  -22.6563  -31.3127   21.3853 H   0  0  0  0  0  0
  -23.3756  -35.9780   23.3297 H   0  0  0  0  0  0
  -24.3621  -36.9016   22.2048 H   0  0  0  0  0  0
  -23.7243  -37.6628   23.6597 H   0  0  0  0  0  0
  -25.9808  -31.6091   20.5727 H   0  0  0  0  0  0
  -26.7825  -30.9383   21.9680 H   0  0  0  0  0  0
  -28.0183  -29.2088   21.2495 H   0  0  0  0  0  0
  -26.1460  -26.0206   19.0192 H   0  0  0  0  0  0
  -23.9873  -27.2541   19.0701 H   0  0  0  0  0  0
  -22.7091  -29.2724   19.8338 H   0  0  0  0  0  0
  -23.7424  -30.6100   19.4038 H   0  0  0  0  0  0
  -25.1288  -36.2114   25.0854 H   0  0  0  0  0  0
  -21.0034  -28.3173   24.1371 H   0  0  0  0  0  0
  -20.5466  -26.2232   23.3563 H   0  0  0  0  0  0
  -21.6662  -26.7293   22.1319 H   0  0  0  0  0  0
  -19.6972  -25.6350   21.1050 H   0  0  0  0  0  0
  -19.6771  -27.3307   20.6688 H   0  0  0  0  0  0
  -17.4192  -26.6504   21.4032 H   0  0  0  0  0  0
  -18.0583  -26.0009   22.8975 H   0  0  0  0  0  0
  -19.7964  -30.7191   24.2284 H   0  0  0  0  0  0
  -17.5051  -31.6232   24.5202 H   0  0  0  0  0  0
  -15.5372  -30.2976   23.7637 H   0  0  0  0  0  0
  -15.8673  -28.0883   22.6860 H   0  0  0  0  0  0
  -24.6057  -30.6755   25.7840 H   0  0  0  0  0  0
  -24.8966  -32.2515   26.5143 H   0  0  0  0  0  0
  -25.8363  -30.8559   27.0064 H   0  0  0  0  0  0
  -26.2540  -29.6822   24.1146 H   0  0  0  0  0  0
  -27.4166  -29.7313   25.4200 H   0  0  0  0  0  0
  -27.8323  -30.4413   23.8766 H   0  0  0  0  0  0
  -27.2778  -33.3322   26.2290 H   0  0  0  0  0  0
  -28.3776  -32.6819   25.0196 H   0  0  0  0  0  0
  -28.0844  -31.8048   26.5082 H   0  0  0  0  0  0
  -28.2653  -38.0177   24.7506 H   0  0  0  0  0  0
  -28.1092  -36.2680   24.6296 H   0  0  0  0  0  0
  -27.2352  -37.1616   25.8876 H   0  0  0  0  0  0
  -20.8979  -29.8695   21.6913 H   0  0  0  0  0  0
  -26.0253  -38.2986   24.1366 H   0  0  0  0  0  0
  -30.9073  -22.6968   24.5187 H   0  0  0  0  0  0
  -30.5945  -22.3863   20.2618 H   0  0  0  0  0  0
  -27.3188  -18.4314   22.8810 H   0  0  0  0  0  0
  -27.9737  -18.1254   21.2738 H   0  0  0  0  0  0
  -27.6099  -15.8571   22.1948 H   0  0  0  0  0  0
  -28.2830  -16.3516   23.7215 H   0  0  0  0  0  0
  -33.4088  -24.7408   21.3361 H   0  0  0  0  0  0
  -32.9907  -23.1999   20.6987 H   0  0  0  0  0  0
  -29.6762  -24.8803   22.2866 H   0  0  0  0  0  0
  -30.6906  -25.4374   23.5723 H   0  0  0  0  0  0
  -31.4926  -17.6261   22.4583 H   0  0  0  0  0  0
  -30.5515  -17.8288   20.9897 H   0  0  0  0  0  0
  -31.4429  -24.2141   19.1458 H   0  0  0  0  0  0
  -32.7266  -25.3835   19.2608 H   0  0  0  0  0  0
  -32.0654  -26.7561   21.8564 H   0  0  0  0  0  0
  -30.3711  -27.1763   21.8984 H   0  0  0  0  0  0
  -32.3489  -23.9719   23.1031 H   0  0  0  0  0  0
  -29.6091  -18.2856   23.8199 H   0  0  0  0  0  0
  -30.3280  -15.6310   22.9940 H   0  0  0  0  0  0
  -30.4688  -19.5007   25.5044 H   0  0  0  0  0  0
  -28.7905  -20.0082   25.2863 H   0  0  0  0  0  0
  -29.9865  -21.1337   25.9319 H   0  0  0  0  0  0
  -28.2205  -21.3829   19.4706 H   0  0  0  0  0  0
  -28.5819  -20.0126   18.4192 H   0  0  0  0  0  0
  -29.8025  -21.2376   18.6265 H   0  0  0  0  0  0
  -31.6450  -27.6809   19.2248 H   0  0  0  0  0  0
  -30.6931  -26.5813   18.2461 H   0  0  0  0  0  0
  -29.2062  -28.3710   18.6367 H   0  0  0  0  0  0
  -29.7337  -28.5326   20.2957 H   0  0  0  0  0  0
  -28.8392  -15.1704   20.7110 H   0  0  0  0  0  0
  -30.0389  -25.4786   20.2100 H   0  0  0  0  0  0
  1 25  1  0  0  0
  1 30  2  0  0  0
  1 91  1  0  0  0
  2  3  1  0  0  0
  2 25  1  0  0  0
  2 94  1  0  0  0
  2 95  1  0  0  0
  3  4  1  0  0  0
  3 96  1  0  0  0
  3 97  1  0  0  0
  4  5  1  0  0  0
  4 98  1  0  0  0
  4 99  1  0  0  0
  5  6  1  0  0  0
  5 26  1  0  0  0
  5100  1  0  0  0
  6 25  1  0  0  0
  6101  1  0  0  0
  6102  1  0  0  0
  7  8  2  0  0  0
  7 26  1  0  0  0
  7 29  1  0  0  0
  8  9  1  0  0  0
  8 22  1  0  0  0
  9 10  1  0  0  0
  9 27  2  0  0  0
 10 11  2  0  0  0
 10 15  1  0  0  0
 11 12  1  0  0  0
 11103  1  0  0  0
 12 13  2  0  0  0
 12104  1  0  0  0
 13 14  1  0  0  0
 13 31  1  0  0  0
 14 15  2  0  0  0
 14105  1  0  0  0
 15106  1  0  0  0
 16 17  2  0  0  0
 16 21  1  0  0  0
 16 31  1  0  0  0
 17 18  1  0  0  0
 17107  1  0  0  0
 18 19  2  0  0  0
 18108  1  0  0  0
 19 20  1  0  0  0
 19 24  1  0  0  0
 20 21  2  0  0  0
 20109  1  0  0  0
 21 23  1  0  0  0
 22 28  1  0  0  0
 22 32  2  0  0  0
 26 27  1  0  0  0
 28110  1  0  0  0
 28111  1  0  0  0
 29112  1  0  0  0
 29113  1  0  0  0
 33 34  1  0  0  0
 33 66  1  0  0  0
 33 70  2  0  0  0
 34 36  1  0  0  0
 34 59  1  0  0  0
 34114  1  0  0  0
 35 44  2  0  0  0
 35 45  1  0  0  0
 35 68  1  0  0  0
 36 56  1  0  0  0
 36115  1  0  0  0
 37 39  1  0  0  0
 37 47  1  0  0  0
 37 66  1  0  0  0
 37116  1  0  0  0
 38 43  2  0  0  0
 38 46  1  0  0  0
 38 47  1  0  0  0
 39 64  1  0  0  0
 39 67  2  0  0  0
 40 52  1  0  0  0
 40 53  2  0  0  0
 40 58  1  0  0  0
 41117  1  0  0  0
 41118  1  0  0  0
 41119  1  0  0  0
 41 48  1  0  0  0
 42 43  1  0  0  0
 42 66  1  0  0  0
 42120  1  0  0  0
 42121  1  0  0  0
 43 44  1  0  0  0
 44122  1  0  0  0
 45 46  2  0  0  0
 45123  1  0  0  0
 46124  1  0  0  0
 47125  1  0  0  0
 47126  1  0  0  0
 48 56  1  0  0  0
 48 65  1  0  0  0
 48127  1  0  0  0
 49 50  1  0  0  0
 49 53  1  0  0  0
 49 64  1  0  0  0
 49128  1  0  0  0
 50 51  1  0  0  0
 50129  1  0  0  0
 50130  1  0  0  0
 51 52  1  0  0  0
 51131  1  0  0  0
 51132  1  0  0  0
 52133  1  0  0  0
 52134  1  0  0  0
 53 54  1  0  0  0
 54 55  2  0  0  0
 54135  1  0  0  0
 55 57  1  0  0  0
 55136  1  0  0  0
 56 69  2  0  0  0
 57 58  2  0  0  0
 57137  1  0  0  0
 58138  1  0  0  0
 59 60  1  0  0  0
 59 61  1  0  0  0
 59 62  1  0  0  0
 60139  1  0  0  0
 60140  1  0  0  0
 60141  1  0  0  0
 61142  1  0  0  0
 61143  1  0  0  0
 61144  1  0  0  0
 62145  1  0  0  0
 62146  1  0  0  0
 62147  1  0  0  0
 63 65  1  0  0  0
 63148  1  0  0  0
 63149  1  0  0  0
 63150  1  0  0  0
 64151  1  0  0  0
 65152  1  0  0  0
 68 90  1  0  0  0
 71 73  2  0  0  0
 71 75  1  0  0  0
 71153  1  0  0  0
 72 73  1  0  0  0
 72 76  2  0  0  0
 72154  1  0  0  0
 73 84  1  0  0  0
 74 75  2  0  0  0
 74 76  1  0  0  0
 74 85  1  0  0  0
 75 87  1  0  0  0
 76 93  1  0  0  0
 77 78  1  0  0  0
 77 85  1  0  0  0
 77155  1  0  0  0
 77156  1  0  0  0
 78 86  1  0  0  0
 78157  1  0  0  0
 78158  1  0  0  0
 79 82  1  0  0  0
 79 84  1  0  0  0
 79159  1  0  0  0
 79160  1  0  0  0
 80 83  1  0  0  0
 80 84  1  0  0  0
 80161  1  0  0  0
 80162  1  0  0  0
 81 85  1  0  0  0
 81 86  1  0  0  0
 81163  1  0  0  0
 81164  1  0  0  0
 82 92  1  0  0  0
 82165  1  0  0  0
 82166  1  0  0  0
 83 92  1  0  0  0
 83167  1  0  0  0
 83168  1  0  0  0
 84169  1  0  0  0
 85170  1  0  0  0
 86 91  1  0  0  0
 86171  1  0  0  0
 87172  1  0  0  0
 87173  1  0  0  0
 87174  1  0  0  0
 88 93  1  0  0  0
 88175  1  0  0  0
 88176  1  0  0  0
 88177  1  0  0  0
 89 90  1  0  0  0
 89178  1  0  0  0
 89179  1  0  0  0
 89 92  1  0  0  0
 90180  1  0  0  0
 90181  1  0  0  0
 91182  1  0  0  0
 92183  1  0  0  0
M  CHG  1  92   1
M  ISO  4   1 100  68 101  90 101  91 100
M  END
> <chiral flag>
0

> <version>
0

> <s_m_source_file>
/data/baiqing/PycharmProjects/Reinvent-master-3.2/result/LINK_invent/BTK/process_docking_weight1_custom_sum_contain_oxygen_bond_distance_aromatic_linkinvent_7_9_3/rearranged_h_0155.sdf

> <i_m_source_file_index>
87

> <r_mmod_Potential_Energy-OPLS-2005>
75.2677993774414

> <r_mmod_Stretch_Energy-OPLS-2005>
36.9555130004883

> <r_mmod_Bend_Energy-OPLS-2005>
163.069213867188

> <r_mmod_Torsional_Energy-OPLS-2005>
378.060546875

> <r_mmod_Improper_Torsional_Energy-OPLS-2005>
8.67966079711914

> <r_mmod_Van_der_Waal_Energy-OPLS-2005>
180.843017578125

> <r_mmod_Electrostatic_Energy-OPLS-2005>
-298.446014404297

> <r_mmod_Solvation_Energy-OPLS-2005>
-413.403259277344

> <b_mmod_Minimization_Converged-OPLS-2005>
0

> <r_mmod_RMS_Derivative-OPLS-2005>
8.10729598999023

$$$$
87
                    3D
 Structure written by MMmdl.
165174  0  0  1  0            999 V2000
  -30.6666  -14.8159   20.4379 C   0  0  0  0  0  0
  -30.4091  -12.5119   19.4783 C   0  0  0  0  0  0
  -29.4963  -12.5036   18.2361 C   0  0  0  0  0  0
  -28.0310  -12.3055   18.6602 C   0  0  0  0  0  0
  -27.6223  -13.2361   19.8305 C   0  0  2  0  0  0
  -28.6719  -13.2669   20.9649 C   0  0  0  0  0  0
  -25.2410  -13.8181   20.5705 C   0  0  0  0  0  0
  -24.1741  -13.0417   20.9253 C   0  0  0  0  0  0
  -24.6359  -11.6905   20.8796 C   0  0  0  0  0  0
  -23.9052  -10.4284   21.0439 C   0  0  0  0  0  0
  -24.3614   -9.4195   21.9206 C   0  0  0  0  0  0
  -23.6290   -8.2228   22.0766 C   0  0  0  0  0  0
  -22.4270   -8.0272   21.3547 C   0  0  0  0  0  0
  -21.9907   -9.0246   20.4644 C   0  0  0  0  0  0
  -22.7237  -10.2125   20.3067 C   0  0  0  0  0  0
  -21.6844   -6.0732   22.5287 C   0  0  0  0  0  0
  -21.4009   -6.5641   23.8220 C   0  0  0  0  0  0
  -21.3657   -5.6796   24.9182 C   0  0  0  0  0  0
  -21.6046   -4.3059   24.7231 C   0  0  0  0  0  0
  -21.8819   -3.8143   23.4352 C   0  0  0  0  0  0
  -21.9188   -4.6960   22.3408 C   0  0  0  0  0  0
  -22.7765  -13.5195   21.1897 C   0  0  0  0  0  0
  -22.1664   -4.2146   21.0987 F   0  0  0  0  0  0
  -21.5625   -3.4542   25.7742 F   0  0  0  0  0  0
  -29.9573  -13.6266   20.3550 N   0  0  0  0  0  0
  -26.2837  -12.9406   20.3247 N   0  0  0  0  0  0
  -25.9285  -11.6549   20.5780 N   0  0  0  0  0  0
  -22.0414  -12.8186   22.0449 N   0  0  0  0  0  0
  -25.4013  -15.1910   20.4083 N   0  0  0  0  0  0
  -31.8780  -14.7579   20.2050 O   0  0  0  0  0  0
  -21.6627   -6.8872   21.4247 O   0  0  0  0  0  0
  -22.3455  -14.5502   20.6740 O   0  0  0  0  0  0
  -24.6338  -31.8534   23.1957 C   0  0  0  0  0  0
  -25.9157  -32.4742   23.8314 C   0  0  1  0  0  0
  -27.2201  -27.2349   20.1185 C   0  0  0  0  0  0
  -25.5950  -33.8545   24.2242 N   0  0  0  0  0  0
  -23.4316  -30.4751   21.5410 C   0  0  2  0  0  0
  -24.8778  -28.9190   20.1077 C   0  0  0  0  0  0
  -22.7520  -29.4591   22.4910 C   0  0  0  0  0  0
  -18.0295  -28.1384   22.8487 C   0  0  0  0  0  0
  -24.1496  -36.7270   23.2639 C   0  0  0  0  0  0
  -25.9803  -30.7567   21.3800 C   0  0  0  0  0  0
  -26.0510  -29.3775   20.7185 C   0  0  0  0  0  0
  -27.2207  -28.5455   20.7177 C   0  0  0  0  0  0
  -26.0113  -26.8430   19.4991 C   0  0  0  0  0  0
  -24.8639  -27.6602   19.4903 C   0  0  0  0  0  0
  -23.6499  -29.8091   20.1571 C   0  0  0  0  0  0
  -25.4123  -36.3060   24.0324 C   0  0  1  0  0  0
  -20.5902  -28.3701   23.1271 C   0  0  2  0  0  0
  -20.6786  -26.9417   22.5410 C   0  0  0  0  0  0
  -19.5761  -26.6379   21.5217 C   0  0  0  0  0  0
  -18.1936  -26.7928   22.1622 C   0  0  0  0  0  0
  -19.1548  -28.8860   23.2871 C   0  0  0  0  0  0
  -18.9466  -30.1461   23.8889 C   0  0  0  0  0  0
  -17.6464  -30.6590   24.0556 C   0  0  0  0  0  0
  -25.9068  -34.9435   23.5087 C   0  0  0  0  0  0
  -16.5357  -29.9082   23.6333 C   0  0  0  0  0  0
  -16.7279  -28.6495   23.0365 C   0  0  0  0  0  0
  -26.4505  -31.6574   25.0718 C   0  0  0  0  0  0
  -25.3711  -31.3734   26.1427 C   0  0  0  0  0  0
  -27.0358  -30.2989   24.6225 C   0  0  0  0  0  0
  -27.6051  -32.4315   25.7507 C   0  0  0  0  0  0
  -27.5582  -37.1796   24.8465 C   0  0  0  0  0  0
  -21.4222  -29.3045   22.3660 N   0  0  0  0  0  0
  -26.4295  -37.3761   23.9407 N   0  0  0  0  0  0
  -24.7014  -31.0472   22.0949 N   0  0  0  0  0  0
  -23.4208  -28.8134   23.3020 O   0  0  0  0  0  0
  -28.3063  -26.3220   20.2133 O   0  0  0  0  0  0
  -26.5638  -34.8913   22.4654 O   0  0  0  0  0  0
  -23.5483  -32.1372   23.7236 O   0  0  0  0  0  0
  -29.2803  -21.5929   21.1180 C   0  0  0  0  0  0
  -29.0331  -23.0082   20.9276 C   0  0  0  0  0  0
  -28.4114  -22.5539   18.6578 C   0  0  0  0  0  0
  -28.5908  -23.5558   19.6813 C   0  0  0  0  0  0
  -28.7147  -21.1444   18.8443 C   0  0  0  0  0  0
  -29.1367  -20.5944   20.1001 C   0  0  0  0  0  0
  -30.4093  -18.6750   21.2619 C   0  0  0  0  0  0
  -28.3687  -18.1392   20.1810 C   0  0  0  0  0  0
  -31.0102  -17.2526   20.9118 C   0  0  0  0  0  0
  -28.7842  -16.5862   20.1105 C   0  0  0  0  0  0
  -29.2648  -23.9512   22.0940 C   0  0  0  0  0  0
  -27.8952  -23.0269   17.2947 C   0  0  0  0  0  0
  -28.6635  -20.2125   17.6310 C   0  0  0  0  0  0
  -28.4637  -25.1366   19.2977 C   0  0  0  0  0  0
  -29.4341  -19.1632   20.2819 N   0  0  0  0  0  0
  -30.0910  -16.0927   20.6495 N   0  0  0  0  0  0
  -31.4502  -12.6091   19.1671 H   0  0  0  0  0  0
  -30.3480  -11.5600   20.0075 H   0  0  0  0  0  0
  -29.7960  -11.7124   17.5477 H   0  0  0  0  0  0
  -29.6005  -13.4432   17.6907 H   0  0  0  0  0  0
  -27.9154  -11.2636   18.9607 H   0  0  0  0  0  0
  -27.3648  -12.4529   17.8086 H   0  0  0  0  0  0
  -27.5771  -14.2257   19.3830 H   0  0  0  0  0  0
  -28.7355  -12.2996   21.4651 H   0  0  0  0  0  0
  -28.3936  -13.9924   21.7308 H   0  0  0  0  0  0
  -25.2760   -9.5676   22.4777 H   0  0  0  0  0  0
  -23.9996   -7.4615   22.7480 H   0  0  0  0  0  0
  -21.0845   -8.8764   19.8940 H   0  0  0  0  0  0
  -22.3703  -10.9667   19.6174 H   0  0  0  0  0  0
  -21.2008   -7.6152   23.9720 H   0  0  0  0  0  0
  -21.1482   -6.0528   25.9084 H   0  0  0  0  0  0
  -22.0598   -2.7600   23.2853 H   0  0  0  0  0  0
  -22.4036  -11.9850   22.4844 H   0  0  0  0  0  0
  -21.1029  -13.1202   22.2650 H   0  0  0  0  0  0
  -24.6250  -15.8352   20.5149 H   0  0  0  0  0  0
  -26.2362  -15.6313   20.0480 H   0  0  0  0  0  0
  -26.7224  -32.5374   23.1051 H   0  0  0  0  0  0
  -25.0106  -33.9686   25.0393 H   0  0  0  0  0  0
  -22.7286  -31.2980   21.3944 H   0  0  0  0  0  0
  -23.3774  -35.9590   23.3291 H   0  0  0  0  0  0
  -24.3580  -36.8900   22.2055 H   0  0  0  0  0  0
  -23.7242  -37.6460   23.6673 H   0  0  0  0  0  0
  -26.1264  -31.5183   20.6126 H   0  0  0  0  0  0
  -26.8553  -30.8023   22.0165 H   0  0  0  0  0  0
  -28.1166  -28.8893   21.2165 H   0  0  0  0  0  0
  -25.8979  -25.8627   19.0628 H   0  0  0  0  0  0
  -23.9580  -27.2952   19.0255 H   0  0  0  0  0  0
  -23.7742  -30.5858   19.4017 H   0  0  0  0  0  0
  -22.7670  -29.2442   19.8523 H   0  0  0  0  0  0
  -25.1309  -36.1899   25.0818 H   0  0  0  0  0  0
  -20.9988  -28.3276   24.1396 H   0  0  0  0  0  0
  -20.5694  -26.2306   23.3610 H   0  0  0  0  0  0
  -21.6653  -26.7442   22.1201 H   0  0  0  0  0  0
  -19.6926  -25.6285   21.1257 H   0  0  0  0  0  0
  -19.6703  -27.3180   20.6738 H   0  0  0  0  0  0
  -17.4211  -26.6684   21.4016 H   0  0  0  0  0  0
  -18.0328  -26.0065   22.9011 H   0  0  0  0  0  0
  -19.7941  -30.7277   24.2259 H   0  0  0  0  0  0
  -17.5020  -31.6272   24.5152 H   0  0  0  0  0  0
  -15.5356  -30.2984   23.7659 H   0  0  0  0  0  0
  -15.8677  -28.0801   22.7105 H   0  0  0  0  0  0
  -24.5895  -30.7077   25.7743 H   0  0  0  0  0  0
  -24.8893  -32.2908   26.4823 H   0  0  0  0  0  0
  -25.8013  -30.8923   27.0221 H   0  0  0  0  0  0
  -26.2953  -29.6736   24.1229 H   0  0  0  0  0  0
  -27.4009  -29.7253   25.4753 H   0  0  0  0  0  0
  -27.8843  -30.4256   23.9499 H   0  0  0  0  0  0
  -27.2658  -33.3625   26.2062 H   0  0  0  0  0  0
  -28.3886  -32.6854   25.0355 H   0  0  0  0  0  0
  -28.0696  -31.8451   26.5445 H   0  0  0  0  0  0
  -28.2592  -38.0100   24.7517 H   0  0  0  0  0  0
  -28.1088  -36.2631   24.6291 H   0  0  0  0  0  0
  -27.2296  -37.1436   25.8865 H   0  0  0  0  0  0
  -20.9411  -29.8759   21.6851 H   0  0  0  0  0  0
  -26.0172  -38.2834   24.1398 H   0  0  0  0  0  0
  -29.6127  -21.2666   22.0929 H   0  0  0  0  0  0
  -31.2232  -19.3965   21.3443 H   0  0  0  0  0  0
  -29.9349  -18.6400   22.2440 H   0  0  0  0  0  0
  -27.7439  -18.2714   21.0651 H   0  0  0  0  0  0
  -27.7059  -18.3685   19.3463 H   0  0  0  0  0  0
  -31.6889  -16.9718   21.7198 H   0  0  0  0  0  0
  -31.6421  -17.3715   20.0289 H   0  0  0  0  0  0
  -28.7485  -16.2837   19.0623 H   0  0  0  0  0  0
  -27.9967  -16.0313   20.6132 H   0  0  0  0  0  0
  -29.5812  -23.4175   22.9907 H   0  0  0  0  0  0
  -28.3466  -24.4898   22.3324 H   0  0  0  0  0  0
  -30.0349  -24.6829   21.8473 H   0  0  0  0  0  0
  -26.9696  -23.5901   17.4163 H   0  0  0  0  0  0
  -27.6347  -22.2364   16.5955 H   0  0  0  0  0  0
  -28.6318  -23.6653   16.8053 H   0  0  0  0  0  0
  -29.1404  -20.6735   16.7656 H   0  0  0  0  0  0
  -27.6322  -19.9648   17.3774 H   0  0  0  0  0  0
  -29.2079  -19.2813   17.7776 H   0  0  0  0  0  0
  -27.7862  -25.2663   18.4621 H   0  0  0  0  0  0
  -29.4286  -25.3359   18.8309 H   0  0  0  0  0  0
  1 25  1  0  0  0
  1 30  2  0  0  0
  1 86  1  0  0  0
  2  3  1  0  0  0
  2 25  1  0  0  0
  2 87  1  0  0  0
  2 88  1  0  0  0
  3  4  1  0  0  0
  3 89  1  0  0  0
  3 90  1  0  0  0
  4  5  1  0  0  0
  4 91  1  0  0  0
  4 92  1  0  0  0
  5  6  1  0  0  0
  5 26  1  0  0  0
  5 93  1  0  0  0
  6 25  1  0  0  0
  6 94  1  0  0  0
  6 95  1  0  0  0
  7  8  2  0  0  0
  7 26  1  0  0  0
  7 29  1  0  0  0
  8  9  1  0  0  0
  8 22  1  0  0  0
  9 10  1  0  0  0
  9 27  2  0  0  0
 10 11  2  0  0  0
 10 15  1  0  0  0
 11 12  1  0  0  0
 11 96  1  0  0  0
 12 13  2  0  0  0
 12 97  1  0  0  0
 13 14  1  0  0  0
 13 31  1  0  0  0
 14 15  2  0  0  0
 14 98  1  0  0  0
 15 99  1  0  0  0
 16 17  2  0  0  0
 16 21  1  0  0  0
 16 31  1  0  0  0
 17 18  1  0  0  0
 17100  1  0  0  0
 18 19  2  0  0  0
 18101  1  0  0  0
 19 20  1  0  0  0
 19 24  1  0  0  0
 20 21  2  0  0  0
 20102  1  0  0  0
 21 23  1  0  0  0
 22 28  1  0  0  0
 22 32  2  0  0  0
 26 27  1  0  0  0
 28103  1  0  0  0
 28104  1  0  0  0
 29105  1  0  0  0
 29106  1  0  0  0
 33 34  1  0  0  0
 33 66  1  0  0  0
 33 70  2  0  0  0
 34 36  1  0  0  0
 34 59  1  0  0  0
 34107  1  0  0  0
 35 44  2  0  0  0
 35 45  1  0  0  0
 35 68  1  0  0  0
 36 56  1  0  0  0
 36108  1  0  0  0
 37 39  1  0  0  0
 37 47  1  0  0  0
 37 66  1  0  0  0
 37109  1  0  0  0
 38 43  2  0  0  0
 38 46  1  0  0  0
 38 47  1  0  0  0
 39 64  1  0  0  0
 39 67  2  0  0  0
 40 52  1  0  0  0
 40 53  2  0  0  0
 40 58  1  0  0  0
 41110  1  0  0  0
 41111  1  0  0  0
 41112  1  0  0  0
 41 48  1  0  0  0
 42 43  1  0  0  0
 42 66  1  0  0  0
 42113  1  0  0  0
 42114  1  0  0  0
 43 44  1  0  0  0
 44115  1  0  0  0
 45 46  2  0  0  0
 45116  1  0  0  0
 46117  1  0  0  0
 47118  1  0  0  0
 47119  1  0  0  0
 48 56  1  0  0  0
 48 65  1  0  0  0
 48120  1  0  0  0
 49 50  1  0  0  0
 49 53  1  0  0  0
 49 64  1  0  0  0
 49121  1  0  0  0
 50 51  1  0  0  0
 50122  1  0  0  0
 50123  1  0  0  0
 51 52  1  0  0  0
 51124  1  0  0  0
 51125  1  0  0  0
 52126  1  0  0  0
 52127  1  0  0  0
 53 54  1  0  0  0
 54 55  2  0  0  0
 54128  1  0  0  0
 55 57  1  0  0  0
 55129  1  0  0  0
 56 69  2  0  0  0
 57 58  2  0  0  0
 57130  1  0  0  0
 58131  1  0  0  0
 59 60  1  0  0  0
 59 61  1  0  0  0
 59 62  1  0  0  0
 60132  1  0  0  0
 60133  1  0  0  0
 60134  1  0  0  0
 61135  1  0  0  0
 61136  1  0  0  0
 61137  1  0  0  0
 62138  1  0  0  0
 62139  1  0  0  0
 62140  1  0  0  0
 63 65  1  0  0  0
 63141  1  0  0  0
 63142  1  0  0  0
 63143  1  0  0  0
 64144  1  0  0  0
 65145  1  0  0  0
 68 84  1  0  0  0
 71 72  2  0  0  0
 71 76  1  0  0  0
 71146  1  0  0  0
 72 74  1  0  0  0
 72 81  1  0  0  0
 73 74  2  0  0  0
 73 75  1  0  0  0
 73 82  1  0  0  0
 74 84  1  0  0  0
 75 76  2  0  0  0
 75 83  1  0  0  0
 76 85  1  0  0  0
 77 79  1  0  0  0
 77 85  1  0  0  0
 77147  1  0  0  0
 77148  1  0  0  0
 78 80  1  0  0  0
 78 85  1  0  0  0
 78149  1  0  0  0
 78150  1  0  0  0
 79 86  1  0  0  0
 79151  1  0  0  0
 79152  1  0  0  0
 80 86  1  0  0  0
 80153  1  0  0  0
 80154  1  0  0  0
 81155  1  0  0  0
 81156  1  0  0  0
 81157  1  0  0  0
 82158  1  0  0  0
 82159  1  0  0  0
 82160  1  0  0  0
 83161  1  0  0  0
 83162  1  0  0  0
 83163  1  0  0  0
 84164  1  0  0  0
 84165  1  0  0  0
M  ISO  4   1 100  68 101  84 101  86 100
M  END
> <chiral flag>
0

> <version>
0

> <s_m_source_file>
/data/baiqing/PycharmProjects/Reinvent-master-3.2/result/LINK_invent/BTK/process_docking_weight1_custom_sum_contain_oxygen_bond_distance_aromatic_linkinvent_7_9_3/rearranged_h_0155.sdf

> <i_m_source_file_index>
88

> <r_mmod_Potential_Energy-OPLS-2005>
485.895416259766

> <r_mmod_Stretch_Energy-OPLS-2005>
148.79182434082

> <r_mmod_Bend_Energy-OPLS-2005>
247.378219604492

> <r_mmod_Torsional_Energy-OPLS-2005>
351.676361083984

> <r_mmod_Improper_Torsional_Energy-OPLS-2005>
8.49076461791992

> <r_mmod_Van_der_Waal_Energy-OPLS-2005>
162.521697998047

> <r_mmod_Electrostatic_Energy-OPLS-2005>
-337.885772705078

> <r_mmod_Solvation_Energy-OPLS-2005>
-213.599945068359

> <b_mmod_Minimization_Converged-OPLS-2005>
0

> <r_mmod_RMS_Derivative-OPLS-2005>
1.15158271789551

$$$$
88
                    3D
 Structure written by MMmdl.
160169  0  0  1  0            999 V2000
  -30.4291  -15.3326   20.3643 C   0  0  0  0  0  0
  -30.4314  -12.8625   19.5129 C   0  0  0  0  0  0
  -29.5312  -12.5856   18.2833 C   0  0  0  0  0  0
  -28.0859  -12.2941   18.7211 C   0  0  0  0  0  0
  -27.6041  -13.2810   19.8127 C   0  0  2  0  0  0
  -28.6383  -13.4972   20.9373 C   0  0  0  0  0  0
  -25.2368  -13.8251   20.5758 C   0  0  0  0  0  0
  -24.1729  -13.0432   20.9269 C   0  0  0  0  0  0
  -24.6395  -11.6933   20.8763 C   0  0  0  0  0  0
  -23.9095  -10.4289   21.0404 C   0  0  0  0  0  0
  -24.3638   -9.4202   21.9181 C   0  0  0  0  0  0
  -23.6306   -8.2241   22.0752 C   0  0  0  0  0  0
  -22.4289   -8.0278   21.3542 C   0  0  0  0  0  0
  -21.9931   -9.0254   20.4645 C   0  0  0  0  0  0
  -22.7266  -10.2130   20.3053 C   0  0  0  0  0  0
  -21.6857   -6.0735   22.5278 C   0  0  0  0  0  0
  -21.4016   -6.5639   23.8210 C   0  0  0  0  0  0
  -21.3662   -5.6792   24.9172 C   0  0  0  0  0  0
  -21.6045   -4.3053   24.7224 C   0  0  0  0  0  0
  -21.8820   -3.8146   23.4344 C   0  0  0  0  0  0
  -21.9193   -4.6962   22.3401 C   0  0  0  0  0  0
  -22.7745  -13.5179   21.1912 C   0  0  0  0  0  0
  -22.1660   -4.2147   21.0979 F   0  0  0  0  0  0
  -21.5633   -3.4538   25.7739 F   0  0  0  0  0  0
  -29.8525  -14.0252   20.2902 N   0  0  0  0  0  0
  -26.2791  -12.9537   20.3205 N   0  0  0  0  0  0
  -25.9332  -11.6636   20.5710 N   0  0  0  0  0  0
  -22.0407  -12.8157   22.0465 N   0  0  0  0  0  0
  -25.3991  -15.1987   20.4192 N   0  0  0  0  0  0
  -31.6602  -15.2743   20.2276 O   0  0  0  0  0  0
  -21.6646   -6.8880   21.4241 O   0  0  0  0  0  0
  -22.3421  -14.5478   20.6750 O   0  0  0  0  0  0
  -24.6679  -31.8196   23.1665 C   0  0  0  0  0  0
  -25.9337  -32.4569   23.8152 C   0  0  1  0  0  0
  -27.2167  -26.8808   20.1979 C   0  0  0  0  0  0
  -25.5984  -33.8384   24.2053 N   0  0  0  0  0  0
  -23.4844  -30.4290   21.5180 C   0  0  2  0  0  0
  -24.9372  -28.8031   20.1207 C   0  0  0  0  0  0
  -22.7688  -29.4423   22.4779 C   0  0  0  0  0  0
  -18.0325  -28.1416   22.8466 C   0  0  0  0  0  0
  -24.1493  -36.7195   23.2648 C   0  0  0  0  0  0
  -26.0570  -30.6113   21.4030 C   0  0  0  0  0  0
  -26.1248  -29.1943   20.7525 C   0  0  0  0  0  0
  -27.2614  -28.2582   20.7583 C   0  0  0  0  0  0
  -25.9975  -26.6510   19.5219 C   0  0  0  0  0  0
  -24.9012  -27.5525   19.4842 C   0  0  0  0  0  0
  -23.7274  -29.7388   20.1476 C   0  0  0  0  0  0
  -25.4137  -36.2954   24.0298 C   0  0  1  0  0  0
  -20.5952  -28.3765   23.1178 C   0  0  2  0  0  0
  -20.6801  -26.9442   22.5402 C   0  0  0  0  0  0
  -19.5774  -26.6381   21.5216 C   0  0  0  0  0  0
  -18.1956  -26.7948   22.1622 C   0  0  0  0  0  0
  -19.1587  -28.8911   23.2807 C   0  0  0  0  0  0
  -18.9497  -30.1499   23.8847 C   0  0  0  0  0  0
  -17.6489  -30.6603   24.0555 C   0  0  0  0  0  0
  -25.9107  -34.9339   23.4999 C   0  0  0  0  0  0
  -16.5380  -29.9090   23.6345 C   0  0  0  0  0  0
  -16.7305  -28.6510   23.0365 C   0  0  0  0  0  0
  -26.4570  -31.6529   25.0699 C   0  0  0  0  0  0
  -25.3681  -31.3788   26.1341 C   0  0  0  0  0  0
  -27.0476  -30.2892   24.6462 C   0  0  0  0  0  0
  -27.6055  -32.4346   25.7502 C   0  0  0  0  0  0
  -27.5571  -37.1755   24.8467 C   0  0  0  0  0  0
  -21.4354  -29.3046   22.3525 N   0  0  0  0  0  0
  -26.4278  -37.3697   23.9409 N   0  0  0  0  0  0
  -24.7586  -30.9813   22.0827 N   0  0  0  0  0  0
  -23.4212  -28.8001   23.3044 O   0  0  0  0  0  0
  -28.2185  -25.7593   20.1961 O   0  0  0  0  0  0
  -26.5725  -34.8882   22.4600 O   0  0  0  0  0  0
  -23.5738  -32.1188   23.6728 O   0  0  0  0  0  0
  -29.5656  -21.3345   18.0358 C   0  0  0  0  0  0
  -28.8518  -21.1987   20.6412 C   0  0  0  0  0  0
  -29.7434  -20.0856   18.6974 C   0  0  0  0  0  0
  -29.3687  -19.8559   20.0410 C   0  0  0  0  0  0
  -29.0542  -22.5281   18.6266 C   0  0  0  0  0  0
  -28.6705  -22.6066   19.9899 C   0  0  0  0  0  0
  -30.5103  -18.9741   17.9957 C   0  0  0  0  0  0
  -31.7174  -18.4691   18.8329 C   0  0  0  0  0  0
  -29.9732  -18.3037   20.6649 C   0  0  2  0  0  0
  -31.4889  -18.4600   20.3727 C   0  0  2  0  0  0
  -28.9268  -23.7587   17.7444 C   0  0  0  0  0  0
  -32.1322  -19.6906   21.0487 C   0  0  0  0  0  0
  -27.9676  -24.1418   20.5354 C   0  0  0  0  0  0
  -29.6918  -16.6461   20.3991 N   0  0  0  0  0  0
  -31.4443  -13.0758   19.1688 H   0  0  0  0  0  0
  -30.5178  -11.9738   20.1406 H   0  0  0  0  0  0
  -29.9248  -11.7512   17.7010 H   0  0  0  0  0  0
  -29.5437  -13.4546   17.6238 H   0  0  0  0  0  0
  -28.0592  -11.2761   19.1119 H   0  0  0  0  0  0
  -27.4144  -12.3104   17.8617 H   0  0  0  0  0  0
  -27.5034  -14.2358   19.2944 H   0  0  0  0  0  0
  -28.8302  -12.5774   21.4922 H   0  0  0  0  0  0
  -28.2654  -14.2262   21.6589 H   0  0  0  0  0  0
  -25.2779   -9.5679   22.4760 H   0  0  0  0  0  0
  -24.0013   -7.4634   22.7474 H   0  0  0  0  0  0
  -21.0863   -8.8777   19.8950 H   0  0  0  0  0  0
  -22.3723  -10.9669   19.6165 H   0  0  0  0  0  0
  -21.2003   -7.6146   23.9713 H   0  0  0  0  0  0
  -21.1487   -6.0521   25.9076 H   0  0  0  0  0  0
  -22.0595   -2.7607   23.2846 H   0  0  0  0  0  0
  -22.4047  -11.9835   22.4866 H   0  0  0  0  0  0
  -21.1014  -13.1152   22.2662 H   0  0  0  0  0  0
  -24.6287  -15.8484   20.5349 H   0  0  0  0  0  0
  -26.2386  -15.6416   20.0709 H   0  0  0  0  0  0
  -26.7410  -32.5095   23.0868 H   0  0  0  0  0  0
  -25.0068  -33.9453   25.0163 H   0  0  0  0  0  0
  -22.8003  -31.2617   21.3418 H   0  0  0  0  0  0
  -23.3772  -35.9508   23.3278 H   0  0  0  0  0  0
  -24.3567  -36.8878   22.2069 H   0  0  0  0  0  0
  -23.7234  -37.6366   23.6730 H   0  0  0  0  0  0
  -26.2404  -31.3476   20.6193 H   0  0  0  0  0  0
  -26.9156  -30.6727   22.0595 H   0  0  0  0  0  0
  -28.1666  -28.5634   21.2645 H   0  0  0  0  0  0
  -25.8674  -25.6994   19.0263 H   0  0  0  0  0  0
  -24.0009  -27.2463   18.9694 H   0  0  0  0  0  0
  -23.8906  -30.5040   19.3878 H   0  0  0  0  0  0
  -22.8356  -29.1971   19.8277 H   0  0  0  0  0  0
  -25.1338  -36.1748   25.0790 H   0  0  0  0  0  0
  -21.0035  -28.3377   24.1303 H   0  0  0  0  0  0
  -20.5683  -26.2386   23.3649 H   0  0  0  0  0  0
  -21.6665  -26.7418   22.1208 H   0  0  0  0  0  0
  -19.6935  -25.6278   21.1282 H   0  0  0  0  0  0
  -19.6712  -27.3161   20.6721 H   0  0  0  0  0  0
  -17.4226  -26.6691   21.4025 H   0  0  0  0  0  0
  -18.0349  -26.0103   22.9031 H   0  0  0  0  0  0
  -19.7971  -30.7328   24.2198 H   0  0  0  0  0  0
  -17.5039  -31.6277   24.5167 H   0  0  0  0  0  0
  -15.5377  -30.2975   23.7698 H   0  0  0  0  0  0
  -15.8707  -28.0808   22.7115 H   0  0  0  0  0  0
  -24.5884  -30.7118   25.7641 H   0  0  0  0  0  0
  -24.8846  -32.2990   26.4631 H   0  0  0  0  0  0
  -25.7898  -30.9041   27.0210 H   0  0  0  0  0  0
  -26.3155  -29.6552   24.1448 H   0  0  0  0  0  0
  -27.3971  -29.7274   25.5135 H   0  0  0  0  0  0
  -27.9109  -30.4063   23.9909 H   0  0  0  0  0  0
  -27.2626  -33.3698   26.1938 H   0  0  0  0  0  0
  -28.3940  -32.6824   25.0384 H   0  0  0  0  0  0
  -28.0643  -31.8568   26.5536 H   0  0  0  0  0  0
  -28.2567  -38.0070   24.7518 H   0  0  0  0  0  0
  -28.1088  -36.2597   24.6293 H   0  0  0  0  0  0
  -27.2285  -37.1391   25.8867 H   0  0  0  0  0  0
  -20.9627  -29.8719   21.6629 H   0  0  0  0  0  0
  -26.0126  -38.2754   24.1418 H   0  0  0  0  0  0
  -29.8830  -21.3899   17.0034 H   0  0  0  0  0  0
  -28.6034  -21.1556   21.6925 H   0  0  0  0  0  0
  -30.8483  -19.2905   17.0079 H   0  0  0  0  0  0
  -29.8147  -18.1513   17.8228 H   0  0  0  0  0  0
  -32.5871  -19.0875   18.6081 H   0  0  0  0  0  0
  -31.9819  -17.4694   18.4866 H   0  0  0  0  0  0
  -29.8306  -18.3943   21.7425 H   0  0  0  0  0  0
  -32.0347  -17.6238   20.8038 H   0  0  0  0  0  0
  -29.2135  -23.5505   16.7133 H   0  0  0  0  0  0
  -29.5682  -24.5608   18.1104 H   0  0  0  0  0  0
  -27.8976  -24.1188   17.7308 H   0  0  0  0  0  0
  -31.8172  -20.6338   20.6023 H   0  0  0  0  0  0
  -33.2189  -19.6508   20.9685 H   0  0  0  0  0  0
  -31.8889  -19.7272   22.1110 H   0  0  0  0  0  0
  -28.0646  -24.0933   21.6198 H   0  0  0  0  0  0
  -26.9010  -23.9961   20.3668 H   0  0  0  0  0  0
  -28.6992  -16.4692   20.3644 H   0  0  0  0  0  0
  1 25  1  0  0  0
  1 30  2  0  0  0
  1 84  1  0  0  0
  2  3  1  0  0  0
  2 25  1  0  0  0
  2 85  1  0  0  0
  2 86  1  0  0  0
  3  4  1  0  0  0
  3 87  1  0  0  0
  3 88  1  0  0  0
  4  5  1  0  0  0
  4 89  1  0  0  0
  4 90  1  0  0  0
  5  6  1  0  0  0
  5 26  1  0  0  0
  5 91  1  0  0  0
  6 25  1  0  0  0
  6 92  1  0  0  0
  6 93  1  0  0  0
  7  8  2  0  0  0
  7 26  1  0  0  0
  7 29  1  0  0  0
  8  9  1  0  0  0
  8 22  1  0  0  0
  9 10  1  0  0  0
  9 27  2  0  0  0
 10 11  2  0  0  0
 10 15  1  0  0  0
 11 12  1  0  0  0
 11 94  1  0  0  0
 12 13  2  0  0  0
 12 95  1  0  0  0
 13 14  1  0  0  0
 13 31  1  0  0  0
 14 15  2  0  0  0
 14 96  1  0  0  0
 15 97  1  0  0  0
 16 17  2  0  0  0
 16 21  1  0  0  0
 16 31  1  0  0  0
 17 18  1  0  0  0
 17 98  1  0  0  0
 18 19  2  0  0  0
 18 99  1  0  0  0
 19 20  1  0  0  0
 19 24  1  0  0  0
 20 21  2  0  0  0
 20100  1  0  0  0
 21 23  1  0  0  0
 22 28  1  0  0  0
 22 32  2  0  0  0
 26 27  1  0  0  0
 28101  1  0  0  0
 28102  1  0  0  0
 29103  1  0  0  0
 29104  1  0  0  0
 33 34  1  0  0  0
 33 66  1  0  0  0
 33 70  2  0  0  0
 34 36  1  0  0  0
 34 59  1  0  0  0
 34105  1  0  0  0
 35 44  2  0  0  0
 35 45  1  0  0  0
 35 68  1  0  0  0
 36 56  1  0  0  0
 36106  1  0  0  0
 37 39  1  0  0  0
 37 47  1  0  0  0
 37 66  1  0  0  0
 37107  1  0  0  0
 38 43  2  0  0  0
 38 46  1  0  0  0
 38 47  1  0  0  0
 39 64  1  0  0  0
 39 67  2  0  0  0
 40 52  1  0  0  0
 40 53  2  0  0  0
 40 58  1  0  0  0
 41108  1  0  0  0
 41109  1  0  0  0
 41110  1  0  0  0
 41 48  1  0  0  0
 42 43  1  0  0  0
 42 66  1  0  0  0
 42111  1  0  0  0
 42112  1  0  0  0
 43 44  1  0  0  0
 44113  1  0  0  0
 45 46  2  0  0  0
 45114  1  0  0  0
 46115  1  0  0  0
 47116  1  0  0  0
 47117  1  0  0  0
 48 56  1  0  0  0
 48 65  1  0  0  0
 48118  1  0  0  0
 49 50  1  0  0  0
 49 53  1  0  0  0
 49 64  1  0  0  0
 49119  1  0  0  0
 50 51  1  0  0  0
 50120  1  0  0  0
 50121  1  0  0  0
 51 52  1  0  0  0
 51122  1  0  0  0
 51123  1  0  0  0
 52124  1  0  0  0
 52125  1  0  0  0
 53 54  1  0  0  0
 54 55  2  0  0  0
 54126  1  0  0  0
 55 57  1  0  0  0
 55127  1  0  0  0
 56 69  2  0  0  0
 57 58  2  0  0  0
 57128  1  0  0  0
 58129  1  0  0  0
 59 60  1  0  0  0
 59 61  1  0  0  0
 59 62  1  0  0  0
 60130  1  0  0  0
 60131  1  0  0  0
 60132  1  0  0  0
 61133  1  0  0  0
 61134  1  0  0  0
 61135  1  0  0  0
 62136  1  0  0  0
 62137  1  0  0  0
 62138  1  0  0  0
 63 65  1  0  0  0
 63139  1  0  0  0
 63140  1  0  0  0
 63141  1  0  0  0
 64142  1  0  0  0
 65143  1  0  0  0
 68 83  1  0  0  0
 71 73  2  0  0  0
 71 75  1  0  0  0
 71144  1  0  0  0
 72 74  2  0  0  0
 72 76  1  0  0  0
 72145  1  0  0  0
 73 74  1  0  0  0
 73 77  1  0  0  0
 74 79  1  0  0  0
 75 76  2  0  0  0
 75 81  1  0  0  0
 76 83  1  0  0  0
 77 78  1  0  0  0
 77146  1  0  0  0
 77147  1  0  0  0
 78 80  1  0  0  0
 78148  1  0  0  0
 78149  1  0  0  0
 79 80  1  0  0  0
 79 84  1  0  0  0
 79150  1  0  0  0
 80 82  1  0  0  0
 80151  1  0  0  0
 81152  1  0  0  0
 81153  1  0  0  0
 81154  1  0  0  0
 82155  1  0  0  0
 82156  1  0  0  0
 82157  1  0  0  0
 83158  1  0  0  0
 83159  1  0  0  0
 84160  1  0  0  0
M  ISO  4   1 100  68 101  83 101  84 100
M  END
> <chiral flag>
0

> <version>
0

> <s_m_source_file>
/data/baiqing/PycharmProjects/Reinvent-master-3.2/result/LINK_invent/BTK/process_docking_weight1_custom_sum_contain_oxygen_bond_distance_aromatic_linkinvent_7_9_3/rearranged_h_0155.sdf

> <i_m_source_file_index>
89

> <r_mmod_Potential_Energy-OPLS-2005>
1466.73559570312

> <r_mmod_Stretch_Energy-OPLS-2005>
662.840148925781

> <r_mmod_Bend_Energy-OPLS-2005>
470.946624755859

> <r_mmod_Torsional_Energy-OPLS-2005>
261.383941650391

> <r_mmod_Improper_Torsional_Energy-OPLS-2005>
8.82429885864258

> <r_mmod_Van_der_Waal_Energy-OPLS-2005>
139.557388305664

> <r_mmod_Electrostatic_Energy-OPLS-2005>
-399.823394775391

> <r_mmod_Solvation_Energy-OPLS-2005>
-202.59635925293

> <b_mmod_Minimization_Converged-OPLS-2005>
0

> <r_mmod_RMS_Derivative-OPLS-2005>
0.540374338626862

$$$$
89
                    3D
 Structure written by MMmdl.
172181  0  0  1  0            999 V2000
  -30.7790  -14.3169   20.6154 C   0  0  0  0  0  0
  -30.4006  -12.2308   19.3859 C   0  0  0  0  0  0
  -29.4651  -12.4670   18.1880 C   0  0  0  0  0  0
  -27.9921  -12.3541   18.6190 C   0  0  0  0  0  0
  -27.6683  -13.1865   19.8869 C   0  0  2  0  0  0
  -28.7111  -12.9310   21.0008 C   0  0  0  0  0  0
  -25.2610  -13.8131   20.5669 C   0  0  0  0  0  0
  -24.1841  -13.0466   20.9186 C   0  0  0  0  0  0
  -24.6374  -11.6896   20.8846 C   0  0  0  0  0  0
  -23.9041  -10.4292   21.0532 C   0  0  0  0  0  0
  -24.3600   -9.4147   21.9277 C   0  0  0  0  0  0
  -23.6276   -8.2193   22.0788 C   0  0  0  0  0  0
  -22.4246   -8.0263   21.3584 C   0  0  0  0  0  0
  -21.9908   -9.0253   20.4675 C   0  0  0  0  0  0
  -22.7253  -10.2131   20.3127 C   0  0  0  0  0  0
  -21.6822   -6.0726   22.5292 C   0  0  0  0  0  0
  -21.4002   -6.5646   23.8213 C   0  0  0  0  0  0
  -21.3666   -5.6800   24.9179 C   0  0  0  0  0  0
  -21.6047   -4.3059   24.7239 C   0  0  0  0  0  0
  -21.8805   -3.8148   23.4364 C   0  0  0  0  0  0
  -21.9166   -4.6972   22.3405 C   0  0  0  0  0  0
  -22.7860  -13.5275   21.1827 C   0  0  0  0  0  0
  -22.1649   -4.2161   21.0986 F   0  0  0  0  0  0
  -21.5632   -3.4541   25.7758 F   0  0  0  0  0  0
  -30.0522  -13.1883   20.4430 N   0  0  0  0  0  0
  -26.3046  -12.9279   20.3447 N   0  0  0  0  0  0
  -25.9296  -11.6448   20.5913 N   0  0  0  0  0  0
  -22.0470  -12.8327   22.0353 N   0  0  0  0  0  0
  -25.4385  -15.1864   20.4051 N   0  0  0  0  0  0
  -31.8106  -14.5600   19.9843 O   0  0  0  0  0  0
  -21.6623   -6.8873   21.4244 O   0  0  0  0  0  0
  -22.3602  -14.5627   20.6699 O   0  0  0  0  0  0
  -24.6124  -31.8703   23.2164 C   0  0  0  0  0  0
  -25.9045  -32.4840   23.8425 C   0  0  1  0  0  0
  -27.2545  -27.4699   20.0604 C   0  0  0  0  0  0
  -25.5901  -33.8644   24.2350 N   0  0  0  0  0  0
  -23.4020  -30.4916   21.5564 C   0  0  2  0  0  0
  -24.8507  -28.9523   20.1300 C   0  0  0  0  0  0
  -22.7394  -29.4657   22.5029 C   0  0  0  0  0  0
  -18.0262  -28.1387   22.8493 C   0  0  0  0  0  0
  -24.1483  -36.7314   23.2626 C   0  0  0  0  0  0
  -25.9301  -30.8310   21.3766 C   0  0  0  0  0  0
  -26.0090  -29.4659   20.7275 C   0  0  0  0  0  0
  -27.2141  -28.7281   20.6977 C   0  0  0  0  0  0
  -26.0798  -26.9665   19.4623 C   0  0  0  0  0  0
  -24.8767  -27.6958   19.5023 C   0  0  0  0  0  0
  -23.6131  -29.8194   20.1739 C   0  0  0  0  0  0
  -25.4112  -36.3133   24.0325 C   0  0  1  0  0  0
  -20.5856  -28.3671   23.1314 C   0  0  2  0  0  0
  -20.6754  -26.9413   22.5432 C   0  0  0  0  0  0
  -19.5743  -26.6398   21.5211 C   0  0  0  0  0  0
  -18.1906  -26.7937   22.1616 C   0  0  0  0  0  0
  -19.1515  -28.8848   23.2902 C   0  0  0  0  0  0
  -18.9433  -30.1436   23.8946 C   0  0  0  0  0  0
  -17.6439  -30.6605   24.0560 C   0  0  0  0  0  0
  -25.9037  -34.9486   23.5141 C   0  0  0  0  0  0
  -16.5336  -29.9105   23.6320 C   0  0  0  0  0  0
  -16.7245  -28.6507   23.0371 C   0  0  0  0  0  0
  -26.4492  -31.6639   25.0757 C   0  0  0  0  0  0
  -25.3760  -31.3730   26.1505 C   0  0  0  0  0  0
  -27.0306  -30.3077   24.6149 C   0  0  0  0  0  0
  -27.6095  -32.4363   25.7460 C   0  0  0  0  0  0
  -27.5591  -37.1818   24.8460 C   0  0  0  0  0  0
  -21.4129  -29.3034   22.3751 N   0  0  0  0  0  0
  -26.4315  -37.3810   23.9382 N   0  0  0  0  0  0
  -24.6652  -31.0774   22.1081 N   0  0  0  0  0  0
  -23.4165  -28.8210   23.3078 O   0  0  0  0  0  0
  -28.4482  -26.8135   19.8696 O   0  0  0  0  0  0
  -26.5599  -34.8923   22.4700 O   0  0  0  0  0  0
  -23.5319  -32.1454   23.7571 O   0  0  0  0  0  0
  -28.7919  -17.5916   22.7174 C   0  0  0  0  0  0
  -29.8909  -18.6259   20.8173 C   0  0  0  0  0  0
  -29.8073  -17.5790   21.7476 C   0  0  0  0  0  0
  -27.9799  -18.7386   22.8727 C   0  0  0  0  0  0
  -29.0855  -19.7714   20.9378 C   0  0  0  0  0  0
  -28.2109  -19.8902   22.0617 C   0  0  0  0  0  0
  -25.6080  -23.6684   22.4789 C   0  0  0  0  0  0
  -26.9748  -24.2552   22.8414 C   0  0  0  0  0  0
  -25.9023  -22.5097   21.5083 C   0  0  0  0  0  0
  -27.9762  -23.6198   21.8686 C   0  0  2  0  0  0
  -26.8906  -18.7076   23.9444 C   0  0  0  0  0  0
  -29.2674  -20.8299   19.8509 C   0  0  0  0  0  0
  -30.8579  -16.4947   21.7241 C   0  0  0  0  0  0
  -27.7292  -21.2553   22.5806 C   0  0  0  0  0  0
  -28.1742  -24.4800   20.5930 C   0  0  0  0  0  0
  -28.8443  -25.8568   20.8397 C   0  0  0  0  0  0
  -30.2999  -15.1744   21.5107 N   0  0  0  0  0  0
  -27.3664  -22.2898   21.5770 N   0  3  1  0  0  0
  -31.4446  -12.3076   19.0680 H   0  0  0  0  0  0
  -30.2827  -11.2093   19.7591 H   0  0  0  0  0  0
  -29.6709  -11.7368   17.4030 H   0  0  0  0  0  0
  -29.6452  -13.4480   17.7451 H   0  0  0  0  0  0
  -27.7772  -11.2998   18.7920 H   0  0  0  0  0  0
  -27.3365  -12.6577   17.8059 H   0  0  0  0  0  0
  -27.7360  -14.2365   19.6057 H   0  0  0  0  0  0
  -28.6702  -11.8976   21.3464 H   0  0  0  0  0  0
  -28.4765  -13.5308   21.8806 H   0  0  0  0  0  0
  -25.2755   -9.5591   22.4864 H   0  0  0  0  0  0
  -23.9956   -7.4564   22.7479 H   0  0  0  0  0  0
  -21.0848   -8.8809   19.8982 H   0  0  0  0  0  0
  -22.3756  -10.9702   19.6236 H   0  0  0  0  0  0
  -21.2018   -7.6162   23.9747 H   0  0  0  0  0  0
  -21.1524   -6.0533   25.9080 H   0  0  0  0  0  0
  -22.0594   -2.7630   23.2866 H   0  0  0  0  0  0
  -22.4064  -11.9991   22.4789 H   0  0  0  0  0  0
  -21.1118  -13.1455   22.2534 H   0  0  0  0  0  0
  -24.6916  -15.8544   20.5488 H   0  0  0  0  0  0
  -26.3083  -15.6279   20.1355 H   0  0  0  0  0  0
  -26.7111  -32.5569   23.1186 H   0  0  0  0  0  0
  -25.0017  -33.9816   25.0475 H   0  0  0  0  0  0
  -22.6926  -31.3108   21.4177 H   0  0  0  0  0  0
  -23.3750  -35.9643   23.3330 H   0  0  0  0  0  0
  -24.3570  -36.8881   22.2030 H   0  0  0  0  0  0
  -23.7236  -37.6532   23.6608 H   0  0  0  0  0  0
  -26.0547  -31.5972   20.6105 H   0  0  0  0  0  0
  -26.8155  -30.8791   21.9997 H   0  0  0  0  0  0
  -28.1198  -29.1447   21.1135 H   0  0  0  0  0  0
  -26.1016  -26.0380   18.9132 H   0  0  0  0  0  0
  -23.9911  -27.3069   19.0218 H   0  0  0  0  0  0
  -23.7286  -30.5929   19.4134 H   0  0  0  0  0  0
  -22.7352  -29.2385   19.8829 H   0  0  0  0  0  0
  -25.1304  -36.2004   25.0821 H   0  0  0  0  0  0
  -20.9927  -28.3247   24.1446 H   0  0  0  0  0  0
  -20.5609  -26.2304   23.3617 H   0  0  0  0  0  0
  -21.6610  -26.7441   22.1245 H   0  0  0  0  0  0
  -19.6890  -25.6301   21.1241 H   0  0  0  0  0  0
  -19.6667  -27.3202   20.6724 H   0  0  0  0  0  0
  -17.4173  -26.6691   21.4024 H   0  0  0  0  0  0
  -18.0308  -26.0061   22.9002 H   0  0  0  0  0  0
  -19.7908  -30.7224   24.2361 H   0  0  0  0  0  0
  -17.4999  -31.6279   24.5162 H   0  0  0  0  0  0
  -15.5345  -30.3028   23.7600 H   0  0  0  0  0  0
  -15.8636  -28.0815   22.7112 H   0  0  0  0  0  0
  -24.5938  -30.7086   25.7822 H   0  0  0  0  0  0
  -24.8960  -32.2869   26.4985 H   0  0  0  0  0  0
  -25.8115  -30.8859   27.0234 H   0  0  0  0  0  0
  -26.2834  -29.6835   24.1243 H   0  0  0  0  0  0
  -27.4085  -29.7348   25.4622 H   0  0  0  0  0  0
  -27.8673  -30.4367   23.9289 H   0  0  0  0  0  0
  -27.2749  -33.3647   26.2082 H   0  0  0  0  0  0
  -28.3830  -32.6963   25.0232 H   0  0  0  0  0  0
  -28.0845  -31.8480   26.5305 H   0  0  0  0  0  0
  -28.2635  -38.0097   24.7500 H   0  0  0  0  0  0
  -28.1077  -36.2627   24.6325 H   0  0  0  0  0  0
  -27.2297  -37.1517   25.8867 H   0  0  0  0  0  0
  -20.9328  -29.8743   21.6945 H   0  0  0  0  0  0
  -26.0213  -38.2888   24.1417 H   0  0  0  0  0  0
  -28.6936  -16.7462   23.3892 H   0  0  0  0  0  0
  -30.6362  -18.5770   20.0352 H   0  0  0  0  0  0
  -24.9541  -24.4072   22.0047 H   0  0  0  0  0  0
  -25.1247  -23.3251   23.3952 H   0  0  0  0  0  0
  -27.2520  -23.9636   23.8555 H   0  0  0  0  0  0
  -26.9583  -25.3432   22.8269 H   0  0  0  0  0  0
  -25.6505  -22.8273   20.4958 H   0  0  0  0  0  0
  -25.3110  -21.6092   21.6988 H   0  0  0  0  0  0
  -28.9629  -23.5264   22.3318 H   0  0  0  0  0  0
  -26.7816  -17.7211   24.3973 H   0  0  0  0  0  0
  -25.9288  -18.9418   23.4848 H   0  0  0  0  0  0
  -27.0648  -19.4144   24.7597 H   0  0  0  0  0  0
  -28.3346  -21.2919   19.5275 H   0  0  0  0  0  0
  -29.6524  -20.3740   18.9386 H   0  0  0  0  0  0
  -30.0012  -21.5860   20.1407 H   0  0  0  0  0  0
  -31.3933  -16.5001   22.6714 H   0  0  0  0  0  0
  -31.6053  -16.7499   20.9668 H   0  0  0  0  0  0
  -28.5754  -21.6025   23.1711 H   0  0  0  0  0  0
  -26.9260  -21.1647   23.3139 H   0  0  0  0  0  0
  -27.2063  -24.6213   20.1180 H   0  0  0  0  0  0
  -28.7812  -23.9375   19.8679 H   0  0  0  0  0  0
  -29.9281  -25.7533   20.7449 H   0  0  0  0  0  0
  -28.6735  -26.2606   21.8369 H   0  0  0  0  0  0
  -29.4617  -14.9250   22.0099 H   0  0  0  0  0  0
  -27.7098  -21.9329   20.6973 H   0  0  0  0  0  0
  1 25  1  0  0  0
  1 30  2  0  0  0
  1 87  1  0  0  0
  2  3  1  0  0  0
  2 25  1  0  0  0
  2 89  1  0  0  0
  2 90  1  0  0  0
  3  4  1  0  0  0
  3 91  1  0  0  0
  3 92  1  0  0  0
  4  5  1  0  0  0
  4 93  1  0  0  0
  4 94  1  0  0  0
  5  6  1  0  0  0
  5 26  1  0  0  0
  5 95  1  0  0  0
  6 25  1  0  0  0
  6 96  1  0  0  0
  6 97  1  0  0  0
  7  8  2  0  0  0
  7 26  1  0  0  0
  7 29  1  0  0  0
  8  9  1  0  0  0
  8 22  1  0  0  0
  9 10  1  0  0  0
  9 27  2  0  0  0
 10 11  2  0  0  0
 10 15  1  0  0  0
 11 12  1  0  0  0
 11 98  1  0  0  0
 12 13  2  0  0  0
 12 99  1  0  0  0
 13 14  1  0  0  0
 13 31  1  0  0  0
 14 15  2  0  0  0
 14100  1  0  0  0
 15101  1  0  0  0
 16 17  2  0  0  0
 16 21  1  0  0  0
 16 31  1  0  0  0
 17 18  1  0  0  0
 17102  1  0  0  0
 18 19  2  0  0  0
 18103  1  0  0  0
 19 20  1  0  0  0
 19 24  1  0  0  0
 20 21  2  0  0  0
 20104  1  0  0  0
 21 23  1  0  0  0
 22 28  1  0  0  0
 22 32  2  0  0  0
 26 27  1  0  0  0
 28105  1  0  0  0
 28106  1  0  0  0
 29107  1  0  0  0
 29108  1  0  0  0
 33 34  1  0  0  0
 33 66  1  0  0  0
 33 70  2  0  0  0
 34 36  1  0  0  0
 34 59  1  0  0  0
 34109  1  0  0  0
 35 44  2  0  0  0
 35 45  1  0  0  0
 35 68  1  0  0  0
 36 56  1  0  0  0
 36110  1  0  0  0
 37 39  1  0  0  0
 37 47  1  0  0  0
 37 66  1  0  0  0
 37111  1  0  0  0
 38 43  2  0  0  0
 38 46  1  0  0  0
 38 47  1  0  0  0
 39 64  1  0  0  0
 39 67  2  0  0  0
 40 52  1  0  0  0
 40 53  2  0  0  0
 40 58  1  0  0  0
 41112  1  0  0  0
 41113  1  0  0  0
 41114  1  0  0  0
 41 48  1  0  0  0
 42 43  1  0  0  0
 42 66  1  0  0  0
 42115  1  0  0  0
 42116  1  0  0  0
 43 44  1  0  0  0
 44117  1  0  0  0
 45 46  2  0  0  0
 45118  1  0  0  0
 46119  1  0  0  0
 47120  1  0  0  0
 47121  1  0  0  0
 48 56  1  0  0  0
 48 65  1  0  0  0
 48122  1  0  0  0
 49 50  1  0  0  0
 49 53  1  0  0  0
 49 64  1  0  0  0
 49123  1  0  0  0
 50 51  1  0  0  0
 50124  1  0  0  0
 50125  1  0  0  0
 51 52  1  0  0  0
 51126  1  0  0  0
 51127  1  0  0  0
 52128  1  0  0  0
 52129  1  0  0  0
 53 54  1  0  0  0
 54 55  2  0  0  0
 54130  1  0  0  0
 55 57  1  0  0  0
 55131  1  0  0  0
 56 69  2  0  0  0
 57 58  2  0  0  0
 57132  1  0  0  0
 58133  1  0  0  0
 59 60  1  0  0  0
 59 61  1  0  0  0
 59 62  1  0  0  0
 60134  1  0  0  0
 60135  1  0  0  0
 60136  1  0  0  0
 61137  1  0  0  0
 61138  1  0  0  0
 61139  1  0  0  0
 62140  1  0  0  0
 62141  1  0  0  0
 62142  1  0  0  0
 63 65  1  0  0  0
 63143  1  0  0  0
 63144  1  0  0  0
 63145  1  0  0  0
 64146  1  0  0  0
 65147  1  0  0  0
 68 86  1  0  0  0
 71 73  2  0  0  0
 71 74  1  0  0  0
 71148  1  0  0  0
 72 73  1  0  0  0
 72 75  2  0  0  0
 72149  1  0  0  0
 73 83  1  0  0  0
 74 76  2  0  0  0
 74 81  1  0  0  0
 75 76  1  0  0  0
 75 82  1  0  0  0
 76 84  1  0  0  0
 77 78  1  0  0  0
 77 79  1  0  0  0
 77150  1  0  0  0
 77151  1  0  0  0
 78 80  1  0  0  0
 78152  1  0  0  0
 78153  1  0  0  0
 79 88  1  0  0  0
 79154  1  0  0  0
 79155  1  0  0  0
 80 85  1  0  0  0
 80 88  1  0  0  0
 80156  1  0  0  0
 81157  1  0  0  0
 81158  1  0  0  0
 81159  1  0  0  0
 82160  1  0  0  0
 82161  1  0  0  0
 82162  1  0  0  0
 83 87  1  0  0  0
 83163  1  0  0  0
 83164  1  0  0  0
 84165  1  0  0  0
 84166  1  0  0  0
 84 88  1  0  0  0
 85 86  1  0  0  0
 85167  1  0  0  0
 85168  1  0  0  0
 86169  1  0  0  0
 86170  1  0  0  0
 87171  1  0  0  0
 88172  1  0  0  0
M  CHG  1  88   1
M  ISO  4   1 100  68 101  86 101  87 100
M  END
> <chiral flag>
0

> <version>
0

> <s_m_source_file>
/data/baiqing/PycharmProjects/Reinvent-master-3.2/result/LINK_invent/BTK/process_docking_weight1_custom_sum_contain_oxygen_bond_distance_aromatic_linkinvent_7_9_3/rearranged_h_0155.sdf

> <i_m_source_file_index>
90

> <r_mmod_Potential_Energy-OPLS-2005>
-61.7353401184082

> <r_mmod_Stretch_Energy-OPLS-2005>
36.6899833679199

> <r_mmod_Bend_Energy-OPLS-2005>
128.779861450195

> <r_mmod_Torsional_Energy-OPLS-2005>
335.154327392578

> <r_mmod_Improper_Torsional_Energy-OPLS-2005>
4.3140664100647

> <r_mmod_Van_der_Waal_Energy-OPLS-2005>
161.746139526367

> <r_mmod_Electrostatic_Energy-OPLS-2005>
-317.403015136719

> <r_mmod_Solvation_Energy-OPLS-2005>
-423.764617919922

> <b_mmod_Minimization_Converged-OPLS-2005>
0

> <r_mmod_RMS_Derivative-OPLS-2005>
7.29050159454346

$$$$
90
                    3D
 Structure written by MMmdl.
166175  0  0  1  0            999 V2000
  -30.6828  -14.5242   20.5110 C   0  0  0  0  0  0
  -30.4189  -12.3198   19.4383 C   0  0  0  0  0  0
  -29.4936  -12.4863   18.2144 C   0  0  0  0  0  0
  -28.0150  -12.3533   18.6283 C   0  0  0  0  0  0
  -27.6545  -13.2122   19.8708 C   0  0  2  0  0  0
  -28.6988  -13.0354   20.9956 C   0  0  0  0  0  0
  -25.2556  -13.8181   20.5709 C   0  0  0  0  0  0
  -24.1814  -13.0443   20.9190 C   0  0  0  0  0  0
  -24.6383  -11.6916   20.8755 C   0  0  0  0  0  0
  -23.9055  -10.4294   21.0421 C   0  0  0  0  0  0
  -24.3616   -9.4204   21.9193 C   0  0  0  0  0  0
  -23.6290   -8.2242   22.0760 C   0  0  0  0  0  0
  -22.4273   -8.0284   21.3545 C   0  0  0  0  0  0
  -21.9908   -9.0254   20.4646 C   0  0  0  0  0  0
  -22.7236  -10.2131   20.3068 C   0  0  0  0  0  0
  -21.6844   -6.0741   22.5280 C   0  0  0  0  0  0
  -21.4010   -6.5649   23.8212 C   0  0  0  0  0  0
  -21.3655   -5.6803   24.9175 C   0  0  0  0  0  0
  -21.6042   -4.3064   24.7225 C   0  0  0  0  0  0
  -21.8818   -3.8154   23.4344 C   0  0  0  0  0  0
  -21.9188   -4.6970   22.3403 C   0  0  0  0  0  0
  -22.7828  -13.5225   21.1849 C   0  0  0  0  0  0
  -22.1657   -4.2157   21.0980 F   0  0  0  0  0  0
  -21.5633   -3.4547   25.7737 F   0  0  0  0  0  0
  -30.0194  -13.3368   20.4257 N   0  0  0  0  0  0
  -26.2990  -12.9354   20.3381 N   0  0  0  0  0  0
  -25.9310  -11.6513   20.5793 N   0  0  0  0  0  0
  -22.0486  -12.8202   22.0410 N   0  0  0  0  0  0
  -25.4304  -15.1896   20.4152 N   0  0  0  0  0  0
  -31.8626  -14.6314   20.1579 O   0  0  0  0  0  0
  -21.6636   -6.8884   21.4243 O   0  0  0  0  0  0
  -22.3492  -14.5515   20.6691 O   0  0  0  0  0  0
  -24.6180  -31.8675   23.2090 C   0  0  0  0  0  0
  -25.9062  -32.4817   23.8394 C   0  0  1  0  0  0
  -27.2200  -27.4006   20.0921 C   0  0  0  0  0  0
  -25.5907  -33.8618   24.2321 N   0  0  0  0  0  0
  -23.4055  -30.4936   21.5520 C   0  0  2  0  0  0
  -24.8472  -28.9594   20.1134 C   0  0  0  0  0  0
  -22.7423  -29.4662   22.4981 C   0  0  0  0  0  0
  -18.0279  -28.1371   22.8496 C   0  0  0  0  0  0
  -24.1489  -36.7308   23.2635 C   0  0  0  0  0  0
  -25.9401  -30.8227   21.3668 C   0  0  0  0  0  0
  -26.0136  -29.4574   20.7075 C   0  0  0  0  0  0
  -27.2045  -28.6880   20.6877 C   0  0  0  0  0  0
  -26.0293  -26.9299   19.4896 C   0  0  0  0  0  0
  -24.8516  -27.6969   19.5014 C   0  0  0  0  0  0
  -23.6133  -29.8320   20.1652 C   0  0  0  0  0  0
  -25.4112  -36.3107   24.0334 C   0  0  1  0  0  0
  -20.5873  -28.3664   23.1308 C   0  0  2  0  0  0
  -20.6769  -26.9400   22.5411 C   0  0  0  0  0  0
  -19.5743  -26.6382   21.5211 C   0  0  0  0  0  0
  -18.1923  -26.7920   22.1624 C   0  0  0  0  0  0
  -19.1531  -28.8836   23.2900 C   0  0  0  0  0  0
  -18.9454  -30.1441   23.8910 C   0  0  0  0  0  0
  -17.6456  -30.6581   24.0563 C   0  0  0  0  0  0
  -25.9045  -34.9475   23.5125 C   0  0  0  0  0  0
  -16.5346  -29.9081   23.6323 C   0  0  0  0  0  0
  -16.7269  -28.6494   23.0355 C   0  0  0  0  0  0
  -26.4480  -31.6601   25.0731 C   0  0  0  0  0  0
  -25.3742  -31.3707   26.1470 C   0  0  0  0  0  0
  -27.0314  -30.3040   24.6120 C   0  0  0  0  0  0
  -27.6050  -32.4326   25.7496 C   0  0  0  0  0  0
  -27.5589  -37.1804   24.8464 C   0  0  0  0  0  0
  -21.4151  -29.3031   22.3714 N   0  0  0  0  0  0
  -26.4298  -37.3793   23.9415 N   0  0  0  0  0  0
  -24.6732  -31.0756   22.1001 N   0  0  0  0  0  0
  -23.4190  -28.8197   23.3025 O   0  0  0  0  0  0
  -28.3738  -26.6303   20.1182 O   0  0  0  0  0  0
  -26.5607  -34.8925   22.4687 O   0  0  0  0  0  0
  -23.5363  -32.1441   23.7465 O   0  0  0  0  0  0
  -28.7073  -22.1108   19.5034 C   0  0  0  0  0  0
  -28.6397  -20.6990   19.5687 C   0  0  0  0  0  0
  -29.7918  -20.7400   21.6858 C   0  0  0  0  0  0
  -29.3263  -22.8667   20.5253 C   0  0  0  0  0  0
  -29.2106  -19.9721   20.6442 C   0  0  0  0  0  0
  -29.8534  -22.1659   21.6439 C   0  0  0  0  0  0
  -29.0527  -17.7718   19.4344 C   0  0  0  0  0  0
  -29.6796  -17.7895   21.8445 C   0  0  0  0  0  0
  -30.0302  -16.5762   19.3784 C   0  0  0  0  0  0
  -29.3930  -16.2588   21.7527 C   0  0  0  0  0  0
  -30.6365  -24.7188   19.4064 C   0  0  0  0  0  0
  -30.9022  -22.2664   23.8163 C   0  0  0  0  0  0
  -28.2154  -25.1929   19.9999 C   0  0  0  0  0  0
  -29.4973  -24.4046   20.3891 C   0  0  1  0  0  0
  -29.2078  -18.5417   20.6721 N   0  0  0  0  0  0
  -29.8916  -15.6346   20.5091 N   0  0  0  0  0  0
  -30.4351  -22.9205   22.6430 O   0  0  0  0  0  0
  -31.4637  -12.4118   19.1364 H   0  0  0  0  0  0
  -30.3192  -11.3208   19.8662 H   0  0  0  0  0  0
  -29.7349  -11.7409   17.4554 H   0  0  0  0  0  0
  -29.6596  -13.4602   17.7519 H   0  0  0  0  0  0
  -27.8288  -11.3000   18.8414 H   0  0  0  0  0  0
  -27.3643  -12.6136   17.7927 H   0  0  0  0  0  0
  -27.6833  -14.2525   19.5476 H   0  0  0  0  0  0
  -28.6826  -12.0142   21.3782 H   0  0  0  0  0  0
  -28.4691  -13.6755   21.8474 H   0  0  0  0  0  0
  -25.2775   -9.5669   22.4748 H   0  0  0  0  0  0
  -24.0002   -7.4623   22.7469 H   0  0  0  0  0  0
  -21.0852   -8.8768   19.8933 H   0  0  0  0  0  0
  -22.3714  -10.9665   19.6173 H   0  0  0  0  0  0
  -21.2004   -7.6154   23.9720 H   0  0  0  0  0  0
  -21.1476   -6.0538   25.9082 H   0  0  0  0  0  0
  -22.0599   -2.7614   23.2853 H   0  0  0  0  0  0
  -22.4144  -11.9869   22.4776 H   0  0  0  0  0  0
  -21.1102  -13.1202   22.2641 H   0  0  0  0  0  0
  -24.6723  -15.8518   20.5357 H   0  0  0  0  0  0
  -26.2979  -15.6256   20.1303 H   0  0  0  0  0  0
  -26.7127  -32.5514   23.1150 H   0  0  0  0  0  0
  -25.0066  -33.9786   25.0469 H   0  0  0  0  0  0
  -22.6949  -31.3117   21.4153 H   0  0  0  0  0  0
  -23.3756  -35.9633   23.3291 H   0  0  0  0  0  0
  -24.3576  -36.8934   22.2049 H   0  0  0  0  0  0
  -23.7231  -37.6504   23.6656 H   0  0  0  0  0  0
  -26.0622  -31.5912   20.6020 H   0  0  0  0  0  0
  -26.8241  -30.8686   21.9916 H   0  0  0  0  0  0
  -28.1055  -29.0683   21.1485 H   0  0  0  0  0  0
  -25.9824  -25.9671   19.0041 H   0  0  0  0  0  0
  -23.9536  -27.3086   19.0408 H   0  0  0  0  0  0
  -23.7277  -30.6104   19.4098 H   0  0  0  0  0  0
  -22.7338  -29.2595   19.8644 H   0  0  0  0  0  0
  -25.1285  -36.1972   25.0824 H   0  0  0  0  0  0
  -20.9972  -28.3227   24.1425 H   0  0  0  0  0  0
  -20.5674  -26.2271   23.3597 H   0  0  0  0  0  0
  -21.6640  -26.7438   22.1203 H   0  0  0  0  0  0
  -19.6906  -25.6297   21.1230 H   0  0  0  0  0  0
  -19.6680  -27.3201   20.6746 H   0  0  0  0  0  0
  -17.4194  -26.6680   21.4023 H   0  0  0  0  0  0
  -18.0319  -26.0054   22.9010 H   0  0  0  0  0  0
  -19.7929  -30.7258   24.2287 H   0  0  0  0  0  0
  -17.5008  -31.6262   24.5162 H   0  0  0  0  0  0
  -15.5347  -30.2989   23.7631 H   0  0  0  0  0  0
  -15.8669  -28.0811   22.7073 H   0  0  0  0  0  0
  -24.5906  -30.7072   25.7792 H   0  0  0  0  0  0
  -24.8950  -32.2867   26.4933 H   0  0  0  0  0  0
  -25.8089  -30.8853   27.0218 H   0  0  0  0  0  0
  -26.2863  -29.6801   24.1166 H   0  0  0  0  0  0
  -27.4068  -29.7270   25.4584 H   0  0  0  0  0  0
  -27.8707  -30.4346   23.9286 H   0  0  0  0  0  0
  -27.2656  -33.3609   26.2104 H   0  0  0  0  0  0
  -28.3842  -32.6920   25.0318 H   0  0  0  0  0  0
  -28.0740  -31.8441   26.5392 H   0  0  0  0  0  0
  -28.2592  -38.0117   24.7535 H   0  0  0  0  0  0
  -28.1103  -36.2649   24.6262 H   0  0  0  0  0  0
  -27.2309  -37.1420   25.8867 H   0  0  0  0  0  0
  -20.9306  -29.8766   21.6950 H   0  0  0  0  0  0
  -26.0187  -38.2869   24.1426 H   0  0  0  0  0  0
  -28.2936  -22.6092   18.6391 H   0  0  0  0  0  0
  -28.1429  -20.1875   18.7575 H   0  0  0  0  0  0
  -30.2241  -20.2169   22.5230 H   0  0  0  0  0  0
  -28.0211  -17.4241   19.3588 H   0  0  0  0  0  0
  -29.2423  -18.3866   18.5542 H   0  0  0  0  0  0
  -30.7540  -17.9477   21.9532 H   0  0  0  0  0  0
  -29.2119  -18.1834   22.7485 H   0  0  0  0  0  0
  -31.0534  -16.9558   19.3421 H   0  0  0  0  0  0
  -29.8758  -16.0329   18.4442 H   0  0  0  0  0  0
  -28.3174  -16.0886   21.8071 H   0  0  0  0  0  0
  -29.8187  -15.7631   22.6271 H   0  0  0  0  0  0
  -31.5629  -24.2284   19.7060 H   0  0  0  0  0  0
  -30.8327  -25.7902   19.3638 H   0  0  0  0  0  0
  -30.3936  -24.3872   18.3958 H   0  0  0  0  0  0
  -31.2729  -23.0104   24.5215 H   0  0  0  0  0  0
  -31.7264  -21.5874   23.5954 H   0  0  0  0  0  0
  -30.1036  -21.7159   24.3151 H   0  0  0  0  0  0
  -27.4037  -24.8683   20.6540 H   0  0  0  0  0  0
  -27.9332  -24.9379   18.9775 H   0  0  0  0  0  0
  -29.7933  -24.7996   21.3602 H   0  0  0  0  0  0
  1 25  1  0  0  0
  1 30  2  0  0  0
  1 86  1  0  0  0
  2  3  1  0  0  0
  2 25  1  0  0  0
  2 88  1  0  0  0
  2 89  1  0  0  0
  3  4  1  0  0  0
  3 90  1  0  0  0
  3 91  1  0  0  0
  4  5  1  0  0  0
  4 92  1  0  0  0
  4 93  1  0  0  0
  5  6  1  0  0  0
  5 26  1  0  0  0
  5 94  1  0  0  0
  6 25  1  0  0  0
  6 95  1  0  0  0
  6 96  1  0  0  0
  7  8  2  0  0  0
  7 26  1  0  0  0
  7 29  1  0  0  0
  8  9  1  0  0  0
  8 22  1  0  0  0
  9 10  1  0  0  0
  9 27  2  0  0  0
 10 11  2  0  0  0
 10 15  1  0  0  0
 11 12  1  0  0  0
 11 97  1  0  0  0
 12 13  2  0  0  0
 12 98  1  0  0  0
 13 14  1  0  0  0
 13 31  1  0  0  0
 14 15  2  0  0  0
 14 99  1  0  0  0
 15100  1  0  0  0
 16 17  2  0  0  0
 16 21  1  0  0  0
 16 31  1  0  0  0
 17 18  1  0  0  0
 17101  1  0  0  0
 18 19  2  0  0  0
 18102  1  0  0  0
 19 20  1  0  0  0
 19 24  1  0  0  0
 20 21  2  0  0  0
 20103  1  0  0  0
 21 23  1  0  0  0
 22 28  1  0  0  0
 22 32  2  0  0  0
 26 27  1  0  0  0
 28104  1  0  0  0
 28105  1  0  0  0
 29106  1  0  0  0
 29107  1  0  0  0
 33 34  1  0  0  0
 33 66  1  0  0  0
 33 70  2  0  0  0
 34 36  1  0  0  0
 34 59  1  0  0  0
 34108  1  0  0  0
 35 44  2  0  0  0
 35 45  1  0  0  0
 35 68  1  0  0  0
 36 56  1  0  0  0
 36109  1  0  0  0
 37 39  1  0  0  0
 37 47  1  0  0  0
 37 66  1  0  0  0
 37110  1  0  0  0
 38 43  2  0  0  0
 38 46  1  0  0  0
 38 47  1  0  0  0
 39 64  1  0  0  0
 39 67  2  0  0  0
 40 52  1  0  0  0
 40 53  2  0  0  0
 40 58  1  0  0  0
 41111  1  0  0  0
 41112  1  0  0  0
 41113  1  0  0  0
 41 48  1  0  0  0
 42 43  1  0  0  0
 42 66  1  0  0  0
 42114  1  0  0  0
 42115  1  0  0  0
 43 44  1  0  0  0
 44116  1  0  0  0
 45 46  2  0  0  0
 45117  1  0  0  0
 46118  1  0  0  0
 47119  1  0  0  0
 47120  1  0  0  0
 48 56  1  0  0  0
 48 65  1  0  0  0
 48121  1  0  0  0
 49 50  1  0  0  0
 49 53  1  0  0  0
 49 64  1  0  0  0
 49122  1  0  0  0
 50 51  1  0  0  0
 50123  1  0  0  0
 50124  1  0  0  0
 51 52  1  0  0  0
 51125  1  0  0  0
 51126  1  0  0  0
 52127  1  0  0  0
 52128  1  0  0  0
 53 54  1  0  0  0
 54 55  2  0  0  0
 54129  1  0  0  0
 55 57  1  0  0  0
 55130  1  0  0  0
 56 69  2  0  0  0
 57 58  2  0  0  0
 57131  1  0  0  0
 58132  1  0  0  0
 59 60  1  0  0  0
 59 61  1  0  0  0
 59 62  1  0  0  0
 60133  1  0  0  0
 60134  1  0  0  0
 60135  1  0  0  0
 61136  1  0  0  0
 61137  1  0  0  0
 61138  1  0  0  0
 62139  1  0  0  0
 62140  1  0  0  0
 62141  1  0  0  0
 63 65  1  0  0  0
 63142  1  0  0  0
 63143  1  0  0  0
 63144  1  0  0  0
 64145  1  0  0  0
 65146  1  0  0  0
 68 83  1  0  0  0
 71 72  2  0  0  0
 71 74  1  0  0  0
 71147  1  0  0  0
 72 75  1  0  0  0
 72148  1  0  0  0
 73 75  2  0  0  0
 73 76  1  0  0  0
 73149  1  0  0  0
 74 76  2  0  0  0
 74 84  1  0  0  0
 75 85  1  0  0  0
 76 87  1  0  0  0
 77 79  1  0  0  0
 77 85  1  0  0  0
 77150  1  0  0  0
 77151  1  0  0  0
 78 80  1  0  0  0
 78 85  1  0  0  0
 78152  1  0  0  0
 78153  1  0  0  0
 79 86  1  0  0  0
 79154  1  0  0  0
 79155  1  0  0  0
 80 86  1  0  0  0
 80156  1  0  0  0
 80157  1  0  0  0
 81158  1  0  0  0
 81159  1  0  0  0
 81160  1  0  0  0
 81 84  1  0  0  0
 82 87  1  0  0  0
 82161  1  0  0  0
 82162  1  0  0  0
 82163  1  0  0  0
 83 84  1  0  0  0
 83164  1  0  0  0
 83165  1  0  0  0
 84166  1  0  0  0
M  ISO  4   1 100  68 101  83 101  86 100
M  END
> <chiral flag>
0

> <version>
0

> <s_m_source_file>
/data/baiqing/PycharmProjects/Reinvent-master-3.2/result/LINK_invent/BTK/process_docking_weight1_custom_sum_contain_oxygen_bond_distance_aromatic_linkinvent_7_9_3/rearranged_h_0155.sdf

> <i_m_source_file_index>
91

> <r_mmod_Potential_Energy-OPLS-2005>
185.431167602539

> <r_mmod_Stretch_Energy-OPLS-2005>
51.5371017456055

> <r_mmod_Bend_Energy-OPLS-2005>
121.772613525391

> <r_mmod_Torsional_Energy-OPLS-2005>
345.582977294922

> <r_mmod_Improper_Torsional_Energy-OPLS-2005>
17.8596248626709

> <r_mmod_Van_der_Waal_Energy-OPLS-2005>
173.441162109375

> <r_mmod_Electrostatic_Energy-OPLS-2005>
-333.184967041016

> <r_mmod_Solvation_Energy-OPLS-2005>
-214.341903686523

> <b_mmod_Minimization_Converged-OPLS-2005>
0

> <r_mmod_RMS_Derivative-OPLS-2005>
1.34884941577911

$$$$
91
                    3D
 Structure written by MMmdl.
178188  0  0  1  0            999 V2000
  -30.7007  -14.5377   20.5381 C   0  0  0  0  0  0
  -30.4173  -12.3419   19.4386 C   0  0  0  0  0  0
  -29.4925  -12.4936   18.2128 C   0  0  0  0  0  0
  -28.0160  -12.3412   18.6275 C   0  0  0  0  0  0
  -27.6460  -13.2081   19.8593 C   0  0  2  0  0  0
  -28.6912  -13.0672   20.9879 C   0  0  0  0  0  0
  -25.2504  -13.8101   20.5648 C   0  0  0  0  0  0
  -24.1779  -13.0392   20.9186 C   0  0  0  0  0  0
  -24.6352  -11.6872   20.8746 C   0  0  0  0  0  0
  -23.9024  -10.4271   21.0423 C   0  0  0  0  0  0
  -24.3580   -9.4192   21.9198 C   0  0  0  0  0  0
  -23.6268   -8.2221   22.0754 C   0  0  0  0  0  0
  -22.4259   -8.0257   21.3538 C   0  0  0  0  0  0
  -21.9887   -9.0240   20.4648 C   0  0  0  0  0  0
  -22.7202  -10.2127   20.3068 C   0  0  0  0  0  0
  -21.6851   -6.0698   22.5269 C   0  0  0  0  0  0
  -21.4009   -6.5604   23.8197 C   0  0  0  0  0  0
  -21.3661   -5.6766   24.9163 C   0  0  0  0  0  0
  -21.6067   -4.3031   24.7221 C   0  0  0  0  0  0
  -21.8825   -3.8111   23.4342 C   0  0  0  0  0  0
  -21.9186   -4.6924   22.3391 C   0  0  0  0  0  0
  -22.7808  -13.5222   21.1854 C   0  0  0  0  0  0
  -22.1659   -4.2104   21.0974 F   0  0  0  0  0  0
  -21.5651   -3.4522   25.7740 F   0  0  0  0  0  0
  -30.0154  -13.3619   20.4221 N   0  0  0  0  0  0
  -26.2941  -12.9284   20.3310 N   0  0  0  0  0  0
  -25.9280  -11.6447   20.5766 N   0  0  0  0  0  0
  -22.0446  -12.8247   22.0429 N   0  0  0  0  0  0
  -25.4151  -15.1796   20.3996 N   0  0  0  0  0  0
  -31.8686  -14.6531   20.1540 O   0  0  0  0  0  0
  -21.6642   -6.8843   21.4225 O   0  0  0  0  0  0
  -22.3504  -14.5531   20.6704 O   0  0  0  0  0  0
  -24.6153  -31.8665   23.2075 C   0  0  0  0  0  0
  -25.9053  -32.4797   23.8358 C   0  0  1  0  0  0
  -27.2365  -27.4083   20.0918 C   0  0  0  0  0  0
  -25.5930  -33.8596   24.2302 N   0  0  0  0  0  0
  -23.4016  -30.4884   21.5501 C   0  0  2  0  0  0
  -24.8470  -28.9482   20.1159 C   0  0  0  0  0  0
  -22.7407  -29.4654   22.5006 C   0  0  0  0  0  0
  -18.0289  -28.1350   22.8471 C   0  0  0  0  0  0
  -24.1496  -36.7279   23.2631 C   0  0  0  0  0  0
  -25.9318  -30.8230   21.3629 C   0  0  0  0  0  0
  -26.0083  -29.4545   20.7105 C   0  0  0  0  0  0
  -27.2007  -28.6920   20.6957 C   0  0  0  0  0  0
  -26.0466  -26.9184   19.5039 C   0  0  0  0  0  0
  -24.8610  -27.6791   19.5140 C   0  0  0  0  0  0
  -23.6095  -29.8182   20.1652 C   0  0  0  0  0  0
  -25.4115  -36.3074   24.0322 C   0  0  1  0  0  0
  -20.5867  -28.3654   23.1326 C   0  0  2  0  0  0
  -20.6815  -26.9384   22.5449 C   0  0  0  0  0  0
  -19.5807  -26.6346   21.5240 C   0  0  0  0  0  0
  -18.1954  -26.7900   22.1595 C   0  0  0  0  0  0
  -19.1523  -28.8821   23.2901 C   0  0  0  0  0  0
  -18.9437  -30.1423   23.8914 C   0  0  0  0  0  0
  -17.6431  -30.6566   24.0534 C   0  0  0  0  0  0
  -25.9051  -34.9455   23.5109 C   0  0  0  0  0  0
  -16.5335  -29.9049   23.6302 C   0  0  0  0  0  0
  -16.7275  -28.6462   23.0341 C   0  0  0  0  0  0
  -26.4477  -31.6587   25.0693 C   0  0  0  0  0  0
  -25.3735  -31.3728   26.1445 C   0  0  0  0  0  0
  -27.0313  -30.3022   24.6086 C   0  0  0  0  0  0
  -27.6041  -32.4311   25.7463 C   0  0  0  0  0  0
  -27.5580  -37.1788   24.8459 C   0  0  0  0  0  0
  -21.4133  -29.3015   22.3734 N   0  0  0  0  0  0
  -26.4294  -37.3764   23.9404 N   0  0  0  0  0  0
  -24.6676  -31.0743   22.0988 N   0  0  0  0  0  0
  -23.4170  -28.8228   23.3085 O   0  0  0  0  0  0
  -28.4249  -26.6909   20.1155 O   0  0  0  0  0  0
  -26.5601  -34.8911   22.4663 O   0  0  0  0  0  0
  -23.5349  -32.1456   23.7468 O   0  0  0  0  0  0
  -25.1595  -20.0663   23.4203 C   0  0  0  0  0  0
  -26.0309  -20.9229   22.7313 C   0  0  0  0  0  0
  -26.6073  -18.2069   22.8677 C   0  0  0  0  0  0
  -27.5134  -19.0503   22.1739 C   0  0  0  0  0  0
  -25.4411  -18.6953   23.4808 C   0  0  0  0  0  0
  -27.2195  -20.4586   22.1002 C   0  0  0  0  0  0
  -29.5771  -17.5344   22.5404 C   0  0  0  0  0  0
  -28.2745  -17.3795   20.3946 C   0  0  0  0  0  0
  -27.9766  -22.9079   19.3613 C   0  0  0  0  0  0
  -28.9867  -23.7613   21.4306 C   0  0  0  0  0  0
  -30.6162  -16.5737   21.8958 C   0  0  0  0  0  0
  -29.4087  -16.4719   19.8582 C   0  0  0  0  0  0
  -27.3065  -21.7563   20.1380 C   0  0  0  0  0  0
  -28.3693  -22.5790   22.2206 C   0  0  0  0  0  0
  -28.7282  -18.3465   21.5163 C   0  0  0  0  0  0
  -28.1000  -24.1767   20.2330 C   0  0  0  0  0  0
  -24.4872  -17.7435   24.1748 C   0  0  0  0  0  0
  -30.0418  -25.3444   18.9919 C   0  0  0  0  0  0
  -28.5694  -25.4327   19.4201 C   0  0  2  0  0  0
  -28.0022  -21.4090   21.3882 N   0  0  0  0  0  0
  -29.9987  -15.6433   20.9289 N   0  0  0  0  0  0
  -31.4620  -12.4347   19.1369 H   0  0  0  0  0  0
  -30.3227  -11.3452   19.8701 H   0  0  0  0  0  0
  -29.7453  -11.7514   17.4539 H   0  0  0  0  0  0
  -29.6468  -13.4679   17.7473 H   0  0  0  0  0  0
  -27.8422  -11.2872   18.8504 H   0  0  0  0  0  0
  -27.3636  -12.5872   17.7884 H   0  0  0  0  0  0
  -27.6512  -14.2392   19.5190 H   0  0  0  0  0  0
  -28.6771  -12.0578   21.3995 H   0  0  0  0  0  0
  -28.4454  -13.7362   21.8138 H   0  0  0  0  0  0
  -25.2712   -9.5681   22.4776 H   0  0  0  0  0  0
  -23.9971   -7.4608   22.7471 H   0  0  0  0  0  0
  -21.0813   -8.8777   19.8947 H   0  0  0  0  0  0
  -22.3661  -10.9674   19.6185 H   0  0  0  0  0  0
  -21.2006   -7.6115   23.9684 H   0  0  0  0  0  0
  -21.1477   -6.0497   25.9068 H   0  0  0  0  0  0
  -22.0606   -2.7565   23.2860 H   0  0  0  0  0  0
  -22.4053  -11.9909   22.4819 H   0  0  0  0  0  0
  -21.1065  -13.1287   22.2616 H   0  0  0  0  0  0
  -24.6492  -15.8330   20.5159 H   0  0  0  0  0  0
  -26.2659  -15.6144   20.0697 H   0  0  0  0  0  0
  -26.7105  -32.5479   23.1100 H   0  0  0  0  0  0
  -25.0115  -33.9760   25.0467 H   0  0  0  0  0  0
  -22.6888  -31.3044   21.4100 H   0  0  0  0  0  0
  -23.3748  -35.9625   23.3327 H   0  0  0  0  0  0
  -24.3591  -36.8868   22.2040 H   0  0  0  0  0  0
  -23.7274  -37.6497   23.6638 H   0  0  0  0  0  0
  -26.0512  -31.5902   20.5969 H   0  0  0  0  0  0
  -26.8145  -30.8716   21.9881 H   0  0  0  0  0  0
  -28.0989  -29.0855   21.1522 H   0  0  0  0  0  0
  -26.0023  -25.9418   19.0456 H   0  0  0  0  0  0
  -23.9622  -27.2786   19.0660 H   0  0  0  0  0  0
  -23.7180  -30.5921   19.4051 H   0  0  0  0  0  0
  -22.7311  -29.2398   19.8717 H   0  0  0  0  0  0
  -25.1299  -36.1917   25.0811 H   0  0  0  0  0  0
  -20.9916  -28.3231   24.1464 H   0  0  0  0  0  0
  -20.5785  -26.2241   23.3640 H   0  0  0  0  0  0
  -21.6675  -26.7507   22.1203 H   0  0  0  0  0  0
  -19.7017  -25.6256   21.1297 H   0  0  0  0  0  0
  -19.6819  -27.3136   20.6770 H   0  0  0  0  0  0
  -17.4264  -26.6668   21.3949 H   0  0  0  0  0  0
  -18.0309  -26.0041   22.8977 H   0  0  0  0  0  0
  -19.7909  -30.7244   24.2291 H   0  0  0  0  0  0
  -17.4982  -31.6259   24.5094 H   0  0  0  0  0  0
  -15.5330  -30.2952   23.7601 H   0  0  0  0  0  0
  -15.8679  -28.0773   22.7044 H   0  0  0  0  0  0
  -24.5885  -30.7098   25.7807 H   0  0  0  0  0  0
  -24.8948  -32.2902   26.4873 H   0  0  0  0  0  0
  -25.8080  -30.8914   27.0212 H   0  0  0  0  0  0
  -26.2877  -29.6780   24.1118 H   0  0  0  0  0  0
  -27.4070  -29.7266   25.4553 H   0  0  0  0  0  0
  -27.8714  -30.4341   23.9261 H   0  0  0  0  0  0
  -27.2640  -33.3589   26.2075 H   0  0  0  0  0  0
  -28.3837  -32.6908   25.0290 H   0  0  0  0  0  0
  -28.0720  -31.8407   26.5354 H   0  0  0  0  0  0
  -28.2583  -38.0093   24.7507 H   0  0  0  0  0  0
  -28.1092  -36.2628   24.6289 H   0  0  0  0  0  0
  -27.2302  -37.1434   25.8861 H   0  0  0  0  0  0
  -20.9299  -29.8646   21.6875 H   0  0  0  0  0  0
  -26.0175  -38.2833   24.1427 H   0  0  0  0  0  0
  -24.2669  -20.4685   23.8811 H   0  0  0  0  0  0
  -25.7385  -21.9611   22.6760 H   0  0  0  0  0  0
  -26.7915  -17.1436   22.9196 H   0  0  0  0  0  0
  -30.0792  -18.2267   23.2178 H   0  0  0  0  0  0
  -28.9351  -16.9245   23.1750 H   0  0  0  0  0  0
  -27.4921  -16.7308   20.7776 H   0  0  0  0  0  0
  -27.8261  -17.9476   19.5785 H   0  0  0  0  0  0
  -27.3958  -23.1209   18.4633 H   0  0  0  0  0  0
  -28.9604  -22.5873   19.0145 H   0  0  0  0  0  0
  -29.9832  -23.4785   21.0902 H   0  0  0  0  0  0
  -29.1247  -24.6125   22.1001 H   0  0  0  0  0  0
  -31.1164  -16.0063   22.6833 H   0  0  0  0  0  0
  -31.3977  -17.1574   21.4034 H   0  0  0  0  0  0
  -30.1859  -17.0846   19.3951 H   0  0  0  0  0  0
  -29.0247  -15.8481   19.0512 H   0  0  0  0  0  0
  -27.2575  -20.8719   19.4986 H   0  0  0  0  0  0
  -26.2745  -22.0454   20.3454 H   0  0  0  0  0  0
  -27.5160  -22.9819   22.7634 H   0  0  0  0  0  0
  -29.0727  -22.2525   22.9875 H   0  0  0  0  0  0
  -29.3715  -19.1076   21.0720 H   0  0  0  0  0  0
  -27.1053  -24.4076   20.6161 H   0  0  0  0  0  0
  -23.5345  -18.2262   24.3953 H   0  0  0  0  0  0
  -24.9120  -17.3847   25.1129 H   0  0  0  0  0  0
  -24.2806  -16.8815   23.5386 H   0  0  0  0  0  0
  -30.2406  -24.4327   18.4296 H   0  0  0  0  0  0
  -30.7120  -25.3627   19.8503 H   0  0  0  0  0  0
  -30.3106  -26.1805   18.3480 H   0  0  0  0  0  0
  -28.0092  -25.4756   18.4851 H   0  0  0  0  0  0
  1 25  1  0  0  0
  1 30  2  0  0  0
  1 91  1  0  0  0
  2  3  1  0  0  0
  2 25  1  0  0  0
  2 92  1  0  0  0
  2 93  1  0  0  0
  3  4  1  0  0  0
  3 94  1  0  0  0
  3 95  1  0  0  0
  4  5  1  0  0  0
  4 96  1  0  0  0
  4 97  1  0  0  0
  5  6  1  0  0  0
  5 26  1  0  0  0
  5 98  1  0  0  0
  6 25  1  0  0  0
  6 99  1  0  0  0
  6100  1  0  0  0
  7  8  2  0  0  0
  7 26  1  0  0  0
  7 29  1  0  0  0
  8  9  1  0  0  0
  8 22  1  0  0  0
  9 10  1  0  0  0
  9 27  2  0  0  0
 10 11  2  0  0  0
 10 15  1  0  0  0
 11 12  1  0  0  0
 11101  1  0  0  0
 12 13  2  0  0  0
 12102  1  0  0  0
 13 14  1  0  0  0
 13 31  1  0  0  0
 14 15  2  0  0  0
 14103  1  0  0  0
 15104  1  0  0  0
 16 17  2  0  0  0
 16 21  1  0  0  0
 16 31  1  0  0  0
 17 18  1  0  0  0
 17105  1  0  0  0
 18 19  2  0  0  0
 18106  1  0  0  0
 19 20  1  0  0  0
 19 24  1  0  0  0
 20 21  2  0  0  0
 20107  1  0  0  0
 21 23  1  0  0  0
 22 28  1  0  0  0
 22 32  2  0  0  0
 26 27  1  0  0  0
 28108  1  0  0  0
 28109  1  0  0  0
 29110  1  0  0  0
 29111  1  0  0  0
 33 34  1  0  0  0
 33 66  1  0  0  0
 33 70  2  0  0  0
 34 36  1  0  0  0
 34 59  1  0  0  0
 34112  1  0  0  0
 35 44  2  0  0  0
 35 45  1  0  0  0
 35 68  1  0  0  0
 36 56  1  0  0  0
 36113  1  0  0  0
 37 39  1  0  0  0
 37 47  1  0  0  0
 37 66  1  0  0  0
 37114  1  0  0  0
 38 43  2  0  0  0
 38 46  1  0  0  0
 38 47  1  0  0  0
 39 64  1  0  0  0
 39 67  2  0  0  0
 40 52  1  0  0  0
 40 53  2  0  0  0
 40 58  1  0  0  0
 41115  1  0  0  0
 41116  1  0  0  0
 41117  1  0  0  0
 41 48  1  0  0  0
 42 43  1  0  0  0
 42 66  1  0  0  0
 42118  1  0  0  0
 42119  1  0  0  0
 43 44  1  0  0  0
 44120  1  0  0  0
 45 46  2  0  0  0
 45121  1  0  0  0
 46122  1  0  0  0
 47123  1  0  0  0
 47124  1  0  0  0
 48 56  1  0  0  0
 48 65  1  0  0  0
 48125  1  0  0  0
 49 50  1  0  0  0
 49 53  1  0  0  0
 49 64  1  0  0  0
 49126  1  0  0  0
 50 51  1  0  0  0
 50127  1  0  0  0
 50128  1  0  0  0
 51 52  1  0  0  0
 51129  1  0  0  0
 51130  1  0  0  0
 52131  1  0  0  0
 52132  1  0  0  0
 53 54  1  0  0  0
 54 55  2  0  0  0
 54133  1  0  0  0
 55 57  1  0  0  0
 55134  1  0  0  0
 56 69  2  0  0  0
 57 58  2  0  0  0
 57135  1  0  0  0
 58136  1  0  0  0
 59 60  1  0  0  0
 59 61  1  0  0  0
 59 62  1  0  0  0
 60137  1  0  0  0
 60138  1  0  0  0
 60139  1  0  0  0
 61140  1  0  0  0
 61141  1  0  0  0
 61142  1  0  0  0
 62143  1  0  0  0
 62144  1  0  0  0
 62145  1  0  0  0
 63 65  1  0  0  0
 63146  1  0  0  0
 63147  1  0  0  0
 63148  1  0  0  0
 64149  1  0  0  0
 65150  1  0  0  0
 68 89  1  0  0  0
 71 72  2  0  0  0
 71 75  1  0  0  0
 71151  1  0  0  0
 72 76  1  0  0  0
 72152  1  0  0  0
 73 74  1  0  0  0
 73 75  2  0  0  0
 73153  1  0  0  0
 74 76  2  0  0  0
 74 85  1  0  0  0
 75 87  1  0  0  0
 76 90  1  0  0  0
 77 81  1  0  0  0
 77 85  1  0  0  0
 77154  1  0  0  0
 77155  1  0  0  0
 78 82  1  0  0  0
 78 85  1  0  0  0
 78156  1  0  0  0
 78157  1  0  0  0
 79 83  1  0  0  0
 79158  1  0  0  0
 79159  1  0  0  0
 79 86  1  0  0  0
 80 84  1  0  0  0
 80 86  1  0  0  0
 80160  1  0  0  0
 80161  1  0  0  0
 81 91  1  0  0  0
 81162  1  0  0  0
 81163  1  0  0  0
 82 91  1  0  0  0
 82164  1  0  0  0
 82165  1  0  0  0
 83 90  1  0  0  0
 83166  1  0  0  0
 83167  1  0  0  0
 84 90  1  0  0  0
 84168  1  0  0  0
 84169  1  0  0  0
 85170  1  0  0  0
 86 89  1  0  0  0
 86171  1  0  0  0
 87172  1  0  0  0
 87173  1  0  0  0
 87174  1  0  0  0
 88175  1  0  0  0
 88176  1  0  0  0
 88177  1  0  0  0
 88 89  1  0  0  0
 89178  1  0  0  0
M  ISO  4   1 100  68 101  89 101  91 100
M  END
> <chiral flag>
0

> <version>
0

> <s_m_source_file>
/data/baiqing/PycharmProjects/Reinvent-master-3.2/result/LINK_invent/BTK/process_docking_weight1_custom_sum_contain_oxygen_bond_distance_aromatic_linkinvent_7_9_3/rearranged_h_0155.sdf

> <i_m_source_file_index>
92

> <r_mmod_Potential_Energy-OPLS-2005>
225.424652099609

> <r_mmod_Stretch_Energy-OPLS-2005>
54.5322875976562

> <r_mmod_Bend_Energy-OPLS-2005>
133.015090942383

> <r_mmod_Torsional_Energy-OPLS-2005>
363.966064453125

> <r_mmod_Improper_Torsional_Energy-OPLS-2005>
13.942587852478

> <r_mmod_Van_der_Waal_Energy-OPLS-2005>
160.887725830078

> <r_mmod_Electrostatic_Energy-OPLS-2005>
-329.438079833984

> <r_mmod_Solvation_Energy-OPLS-2005>
-193.998580932617

> <b_mmod_Minimization_Converged-OPLS-2005>
0

> <r_mmod_RMS_Derivative-OPLS-2005>
2.47599411010742

$$$$
92
                    3D
 Structure written by MMmdl.
160169  0  0  1  0            999 V2000
  -30.4790  -15.2991   20.3273 C   0  0  0  0  0  0
  -30.4263  -12.8342   19.5068 C   0  0  0  0  0  0
  -29.5261  -12.5998   18.2721 C   0  0  0  0  0  0
  -28.0825  -12.3075   18.7077 C   0  0  0  0  0  0
  -27.6093  -13.2813   19.8177 C   0  0  2  0  0  0
  -28.6528  -13.4925   20.9405 C   0  0  0  0  0  0
  -25.2364  -13.8241   20.5749 C   0  0  0  0  0  0
  -24.1735  -13.0437   20.9289 C   0  0  0  0  0  0
  -24.6396  -11.6940   20.8794 C   0  0  0  0  0  0
  -23.9082  -10.4296   21.0388 C   0  0  0  0  0  0
  -24.3630   -9.4210   21.9170 C   0  0  0  0  0  0
  -23.6318   -8.2237   22.0742 C   0  0  0  0  0  0
  -22.4296   -8.0273   21.3530 C   0  0  0  0  0  0
  -21.9919   -9.0248   20.4626 C   0  0  0  0  0  0
  -22.7240  -10.2132   20.3028 C   0  0  0  0  0  0
  -21.6850   -6.0721   22.5265 C   0  0  0  0  0  0
  -21.4014   -6.5619   23.8212 C   0  0  0  0  0  0
  -21.3677   -5.6774   24.9163 C   0  0  0  0  0  0
  -21.6065   -4.3039   24.7202 C   0  0  0  0  0  0
  -21.8824   -3.8118   23.4330 C   0  0  0  0  0  0
  -21.9199   -4.6949   22.3387 C   0  0  0  0  0  0
  -22.7765  -13.5234   21.1900 C   0  0  0  0  0  0
  -22.1671   -4.2130   21.0963 F   0  0  0  0  0  0
  -21.5647   -3.4521   25.7721 F   0  0  0  0  0  0
  -29.8686  -14.0070   20.2840 N   0  0  0  0  0  0
  -26.2824  -12.9539   20.3231 N   0  0  0  0  0  0
  -25.9353  -11.6636   20.5742 N   0  0  0  0  0  0
  -22.0357  -12.8265   22.0448 N   0  0  0  0  0  0
  -25.3924  -15.1962   20.4125 N   0  0  0  0  0  0
  -31.7023  -15.2242   20.1286 O   0  0  0  0  0  0
  -21.6670   -6.8863   21.4224 O   0  0  0  0  0  0
  -22.3476  -14.5530   20.6689 O   0  0  0  0  0  0
  -24.6667  -31.8219   23.1699 C   0  0  0  0  0  0
  -25.9359  -32.4564   23.8164 C   0  0  1  0  0  0
  -27.2136  -26.8984   20.1537 C   0  0  0  0  0  0
  -25.6052  -33.8383   24.2088 N   0  0  0  0  0  0
  -23.4820  -30.4337   21.5212 C   0  0  2  0  0  0
  -24.9305  -28.8159   20.1098 C   0  0  0  0  0  0
  -22.7681  -29.4443   22.4800 C   0  0  0  0  0  0
  -18.0331  -28.1391   22.8467 C   0  0  0  0  0  0
  -24.1506  -36.7172   23.2636 C   0  0  0  0  0  0
  -26.0541  -30.6102   21.4079 C   0  0  0  0  0  0
  -26.1197  -29.1995   20.7441 C   0  0  0  0  0  0
  -27.2538  -28.2614   20.7442 C   0  0  0  0  0  0
  -25.9945  -26.6794   19.4719 C   0  0  0  0  0  0
  -24.8953  -27.5752   19.4553 C   0  0  0  0  0  0
  -23.7204  -29.7500   20.1479 C   0  0  0  0  0  0
  -25.4148  -36.2952   24.0298 C   0  0  1  0  0  0
  -20.5958  -28.3746   23.1171 C   0  0  2  0  0  0
  -20.6802  -26.9429   22.5406 C   0  0  0  0  0  0
  -19.5782  -26.6370   21.5209 C   0  0  0  0  0  0
  -18.1956  -26.7932   22.1608 C   0  0  0  0  0  0
  -19.1587  -28.8895   23.2803 C   0  0  0  0  0  0
  -18.9500  -30.1479   23.8846 C   0  0  0  0  0  0
  -17.6486  -30.6589   24.0538 C   0  0  0  0  0  0
  -25.9124  -34.9330   23.5008 C   0  0  0  0  0  0
  -16.5378  -29.9063   23.6348 C   0  0  0  0  0  0
  -16.7306  -28.6479   23.0377 C   0  0  0  0  0  0
  -26.4601  -31.6499   25.0686 C   0  0  0  0  0  0
  -25.3736  -31.3792   26.1363 C   0  0  0  0  0  0
  -27.0475  -30.2842   24.6459 C   0  0  0  0  0  0
  -27.6131  -32.4278   25.7464 C   0  0  0  0  0  0
  -27.5585  -37.1741   24.8463 C   0  0  0  0  0  0
  -21.4358  -29.3033   22.3525 N   0  0  0  0  0  0
  -26.4302  -37.3689   23.9399 N   0  0  0  0  0  0
  -24.7567  -30.9825   22.0873 N   0  0  0  0  0  0
  -23.4219  -28.8026   23.3063 O   0  0  0  0  0  0
  -28.1929  -25.7588   20.2049 O   0  0  0  0  0  0
  -26.5700  -34.8887   22.4579 O   0  0  0  0  0  0
  -23.5725  -32.1250   23.6768 O   0  0  0  0  0  0
  -28.0046  -21.2767   20.4447 C   0  0  0  0  0  0
  -29.9200  -22.1934   19.5123 C   0  0  0  0  0  0
  -28.5705  -19.8769   20.3748 C   0  0  0  0  0  0
  -29.8667  -19.5980   19.8936 C   0  0  0  0  0  0
  -28.6280  -22.5780   20.0512 C   0  0  0  0  0  0
  -30.5085  -20.8304   19.4270 C   0  0  0  0  0  0
  -27.8072  -18.5352   20.6630 C   0  0  0  0  0  0
  -30.4886  -18.0339   19.8306 C   0  0  0  0  0  0
  -28.5449  -17.0913   20.9394 C   0  0  0  0  0  0
  -32.7885  -21.9126   18.7690 C   0  0  0  0  0  0
  -31.7469  -20.1888   17.2773 C   0  0  0  0  0  0
  -27.8294  -24.1576   19.9533 C   0  0  0  0  0  0
  -31.8809  -20.6684   18.7357 C   0  0  0  0  0  0
  -29.8279  -16.6551   20.2789 N   0  0  0  0  0  0
  -31.4470  -13.0193   19.1735 H   0  0  0  0  0  0
  -30.4856  -11.9367   20.1264 H   0  0  0  0  0  0
  -29.9170  -11.7860   17.6636 H   0  0  0  0  0  0
  -29.5417  -13.4873   17.6357 H   0  0  0  0  0  0
  -28.0488  -11.2855   19.0823 H   0  0  0  0  0  0
  -27.4071  -12.3367   17.8527 H   0  0  0  0  0  0
  -27.5107  -14.2415   19.3117 H   0  0  0  0  0  0
  -28.8437  -12.5759   21.5000 H   0  0  0  0  0  0
  -28.2940  -14.2237   21.6646 H   0  0  0  0  0  0
  -25.2729   -9.5753   22.4798 H   0  0  0  0  0  0
  -24.0027   -7.4642   22.7483 H   0  0  0  0  0  0
  -21.0827   -8.8756   19.8963 H   0  0  0  0  0  0
  -22.3632  -10.9695   19.6183 H   0  0  0  0  0  0
  -21.1987   -7.6131   23.9715 H   0  0  0  0  0  0
  -21.1518   -6.0487   25.9087 H   0  0  0  0  0  0
  -22.0592   -2.7576   23.2811 H   0  0  0  0  0  0
  -22.3907  -11.9970   22.4916 H   0  0  0  0  0  0
  -21.0964  -13.1333   22.2546 H   0  0  0  0  0  0
  -24.6184  -15.8405   20.5246 H   0  0  0  0  0  0
  -26.2245  -15.6307   20.0374 H   0  0  0  0  0  0
  -26.7424  -32.5079   23.0861 H   0  0  0  0  0  0
  -25.0223  -33.9474   25.0259 H   0  0  0  0  0  0
  -22.7986  -31.2684   21.3527 H   0  0  0  0  0  0
  -23.3807  -35.9474   23.3279 H   0  0  0  0  0  0
  -24.3583  -36.8833   22.2062 H   0  0  0  0  0  0
  -23.7243  -37.6339   23.6701 H   0  0  0  0  0  0
  -26.2498  -31.3550   20.6351 H   0  0  0  0  0  0
  -26.9091  -30.6551   22.0712 H   0  0  0  0  0  0
  -28.1504  -28.5502   21.2768 H   0  0  0  0  0  0
  -25.8458  -25.7378   18.9623 H   0  0  0  0  0  0
  -23.9913  -27.2798   18.9371 H   0  0  0  0  0  0
  -23.8741  -30.5219   19.3930 H   0  0  0  0  0  0
  -22.8262  -29.2099   19.8313 H   0  0  0  0  0  0
  -25.1351  -36.1740   25.0793 H   0  0  0  0  0  0
  -21.0038  -28.3339   24.1291 H   0  0  0  0  0  0
  -20.5652  -26.2372   23.3648 H   0  0  0  0  0  0
  -21.6664  -26.7375   22.1224 H   0  0  0  0  0  0
  -19.6937  -25.6266   21.1270 H   0  0  0  0  0  0
  -19.6720  -27.3149   20.6716 H   0  0  0  0  0  0
  -17.4242  -26.6697   21.3995 H   0  0  0  0  0  0
  -18.0317  -26.0066   22.8981 H   0  0  0  0  0  0
  -19.7977  -30.7295   24.2196 H   0  0  0  0  0  0
  -17.5045  -31.6275   24.5112 H   0  0  0  0  0  0
  -15.5369  -30.2929   23.7721 H   0  0  0  0  0  0
  -15.8711  -28.0763   22.7124 H   0  0  0  0  0  0
  -24.5931  -30.7118   25.7682 H   0  0  0  0  0  0
  -24.8934  -32.3021   26.4636 H   0  0  0  0  0  0
  -25.7987  -30.9066   27.0237 H   0  0  0  0  0  0
  -26.3152  -29.6511   24.1453 H   0  0  0  0  0  0
  -27.3948  -29.7198   25.5120 H   0  0  0  0  0  0
  -27.9132  -30.3959   23.9933 H   0  0  0  0  0  0
  -27.2766  -33.3648   26.1920 H   0  0  0  0  0  0
  -28.4027  -32.6718   25.0333 H   0  0  0  0  0  0
  -28.0735  -31.8479   26.5478 H   0  0  0  0  0  0
  -28.2584  -38.0047   24.7509 H   0  0  0  0  0  0
  -28.1107  -36.2582   24.6299 H   0  0  0  0  0  0
  -27.2313  -37.1383   25.8867 H   0  0  0  0  0  0
  -20.9608  -29.8703   21.6640 H   0  0  0  0  0  0
  -26.0145  -38.2756   24.1382 H   0  0  0  0  0  0
  -26.9812  -21.3473   20.7867 H   0  0  0  0  0  0
  -30.4775  -23.0117   19.0840 H   0  0  0  0  0  0
  -27.1578  -18.3936   19.7984 H   0  0  0  0  0  0
  -27.1200  -18.7240   21.4884 H   0  0  0  0  0  0
  -31.4409  -18.0778   20.3585 H   0  0  0  0  0  0
  -30.7590  -17.8539   18.7935 H   0  0  0  0  0  0
  -27.8110  -16.3097   20.7531 H   0  0  0  0  0  0
  -28.7515  -17.0380   22.0083 H   0  0  0  0  0  0
  -32.9317  -22.2823   19.7834 H   0  0  0  0  0  0
  -32.3960  -22.7222   18.1543 H   0  0  0  0  0  0
  -33.7748  -21.6728   18.3683 H   0  0  0  0  0  0
  -31.2678  -19.2164   17.1976 H   0  0  0  0  0  0
  -32.7253  -20.0970   16.8031 H   0  0  0  0  0  0
  -31.1609  -20.8865   16.6802 H   0  0  0  0  0  0
  -26.9168  -24.0159   20.5318 H   0  0  0  0  0  0
  -27.4898  -24.1517   18.9161 H   0  0  0  0  0  0
  -32.4233  -19.8958   19.2812 H   0  0  0  0  0  0
  1 25  1  0  0  0
  1 30  2  0  0  0
  1 84  1  0  0  0
  2  3  1  0  0  0
  2 25  1  0  0  0
  2 85  1  0  0  0
  2 86  1  0  0  0
  3  4  1  0  0  0
  3 87  1  0  0  0
  3 88  1  0  0  0
  4  5  1  0  0  0
  4 89  1  0  0  0
  4 90  1  0  0  0
  5  6  1  0  0  0
  5 26  1  0  0  0
  5 91  1  0  0  0
  6 25  1  0  0  0
  6 92  1  0  0  0
  6 93  1  0  0  0
  7  8  2  0  0  0
  7 26  1  0  0  0
  7 29  1  0  0  0
  8  9  1  0  0  0
  8 22  1  0  0  0
  9 10  1  0  0  0
  9 27  2  0  0  0
 10 11  2  0  0  0
 10 15  1  0  0  0
 11 12  1  0  0  0
 11 94  1  0  0  0
 12 13  2  0  0  0
 12 95  1  0  0  0
 13 14  1  0  0  0
 13 31  1  0  0  0
 14 15  2  0  0  0
 14 96  1  0  0  0
 15 97  1  0  0  0
 16 17  2  0  0  0
 16 21  1  0  0  0
 16 31  1  0  0  0
 17 18  1  0  0  0
 17 98  1  0  0  0
 18 19  2  0  0  0
 18 99  1  0  0  0
 19 20  1  0  0  0
 19 24  1  0  0  0
 20 21  2  0  0  0
 20100  1  0  0  0
 21 23  1  0  0  0
 22 28  1  0  0  0
 22 32  2  0  0  0
 26 27  1  0  0  0
 28101  1  0  0  0
 28102  1  0  0  0
 29103  1  0  0  0
 29104  1  0  0  0
 33 34  1  0  0  0
 33 66  1  0  0  0
 33 70  2  0  0  0
 34 36  1  0  0  0
 34 59  1  0  0  0
 34105  1  0  0  0
 35 44  2  0  0  0
 35 45  1  0  0  0
 35 68  1  0  0  0
 36 56  1  0  0  0
 36106  1  0  0  0
 37 39  1  0  0  0
 37 47  1  0  0  0
 37 66  1  0  0  0
 37107  1  0  0  0
 38 43  2  0  0  0
 38 46  1  0  0  0
 38 47  1  0  0  0
 39 64  1  0  0  0
 39 67  2  0  0  0
 40 52  1  0  0  0
 40 53  2  0  0  0
 40 58  1  0  0  0
 41108  1  0  0  0
 41109  1  0  0  0
 41110  1  0  0  0
 41 48  1  0  0  0
 42 43  1  0  0  0
 42 66  1  0  0  0
 42111  1  0  0  0
 42112  1  0  0  0
 43 44  1  0  0  0
 44113  1  0  0  0
 45 46  2  0  0  0
 45114  1  0  0  0
 46115  1  0  0  0
 47116  1  0  0  0
 47117  1  0  0  0
 48 56  1  0  0  0
 48 65  1  0  0  0
 48118  1  0  0  0
 49 50  1  0  0  0
 49 53  1  0  0  0
 49 64  1  0  0  0
 49119  1  0  0  0
 50 51  1  0  0  0
 50120  1  0  0  0
 50121  1  0  0  0
 51 52  1  0  0  0
 51122  1  0  0  0
 51123  1  0  0  0
 52124  1  0  0  0
 52125  1  0  0  0
 53 54  1  0  0  0
 54 55  2  0  0  0
 54126  1  0  0  0
 55 57  1  0  0  0
 55127  1  0  0  0
 56 69  2  0  0  0
 57 58  2  0  0  0
 57128  1  0  0  0
 58129  1  0  0  0
 59 60  1  0  0  0
 59 61  1  0  0  0
 59 62  1  0  0  0
 60130  1  0  0  0
 60131  1  0  0  0
 60132  1  0  0  0
 61133  1  0  0  0
 61134  1  0  0  0
 61135  1  0  0  0
 62136  1  0  0  0
 62137  1  0  0  0
 62138  1  0  0  0
 63 65  1  0  0  0
 63139  1  0  0  0
 63140  1  0  0  0
 63141  1  0  0  0
 64142  1  0  0  0
 65143  1  0  0  0
 68 82  1  0  0  0
 71 73  2  0  0  0
 71 75  1  0  0  0
 71144  1  0  0  0
 72 75  2  0  0  0
 72 76  1  0  0  0
 72145  1  0  0  0
 73 74  1  0  0  0
 73 77  1  0  0  0
 74 76  2  0  0  0
 74 78  1  0  0  0
 75 82  1  0  0  0
 76 83  1  0  0  0
 77 79  1  0  0  0
 77146  1  0  0  0
 77147  1  0  0  0
 78 84  1  0  0  0
 78148  1  0  0  0
 78149  1  0  0  0
 79 84  1  0  0  0
 79150  1  0  0  0
 79151  1  0  0  0
 80152  1  0  0  0
 80153  1  0  0  0
 80154  1  0  0  0
 80 83  1  0  0  0
 81 83  1  0  0  0
 81155  1  0  0  0
 81156  1  0  0  0
 81157  1  0  0  0
 82158  1  0  0  0
 82159  1  0  0  0
 83160  1  0  0  0
M  ISO  4   1 100  68 101  82 101  84 100
M  END
> <chiral flag>
0

> <version>
0

> <s_m_source_file>
/data/baiqing/PycharmProjects/Reinvent-master-3.2/result/LINK_invent/BTK/process_docking_weight1_custom_sum_contain_oxygen_bond_distance_aromatic_linkinvent_7_9_3/rearranged_h_0155.sdf

> <i_m_source_file_index>
93

> <r_mmod_Potential_Energy-OPLS-2005>
1368.18762207031

> <r_mmod_Stretch_Energy-OPLS-2005>
526.221740722656

> <r_mmod_Bend_Energy-OPLS-2005>
451.679290771484

> <r_mmod_Torsional_Energy-OPLS-2005>
280.301879882812

> <r_mmod_Improper_Torsional_Energy-OPLS-2005>
10.8874454498291

> <r_mmod_Van_der_Waal_Energy-OPLS-2005>
130.72282409668

> <r_mmod_Electrostatic_Energy-OPLS-2005>
-322.378082275391

> <r_mmod_Solvation_Energy-OPLS-2005>
-205.186141967773

> <b_mmod_Minimization_Converged-OPLS-2005>
0

> <r_mmod_RMS_Derivative-OPLS-2005>
4.73704481124878

$$$$
93
                    3D
 Structure written by MMmdl.
186196  0  0  1  0            999 V2000
  -30.7036  -14.4389   20.5290 C   0  0  0  0  0  0
  -30.4227  -12.2799   19.4084 C   0  0  0  0  0  0
  -29.4947  -12.5033   18.1993 C   0  0  0  0  0  0
  -28.0141  -12.3674   18.6090 C   0  0  0  0  0  0
  -27.6562  -13.1855   19.8787 C   0  0  2  0  0  0
  -28.7078  -12.9784   20.9939 C   0  0  0  0  0  0
  -25.2606  -13.8067   20.5711 C   0  0  0  0  0  0
  -24.1828  -13.0391   20.9207 C   0  0  0  0  0  0
  -24.6342  -11.6851   20.8783 C   0  0  0  0  0  0
  -23.8997  -10.4282   21.0461 C   0  0  0  0  0  0
  -24.3563   -9.4175   21.9206 C   0  0  0  0  0  0
  -23.6239   -8.2218   22.0736 C   0  0  0  0  0  0
  -22.4241   -8.0264   21.3524 C   0  0  0  0  0  0
  -21.9882   -9.0254   20.4650 C   0  0  0  0  0  0
  -22.7190  -10.2135   20.3080 C   0  0  0  0  0  0
  -21.6829   -6.0730   22.5278 C   0  0  0  0  0  0
  -21.4022   -6.5630   23.8222 C   0  0  0  0  0  0
  -21.3656   -5.6774   24.9183 C   0  0  0  0  0  0
  -21.6027   -4.3037   24.7228 C   0  0  0  0  0  0
  -21.8809   -3.8133   23.4351 C   0  0  0  0  0  0
  -21.9201   -4.6959   22.3411 C   0  0  0  0  0  0
  -22.7854  -13.5245   21.1837 C   0  0  0  0  0  0
  -22.1637   -4.2143   21.0987 F   0  0  0  0  0  0
  -21.5639   -3.4500   25.7731 F   0  0  0  0  0  0
  -30.0347  -13.2646   20.4253 N   0  0  0  0  0  0
  -26.3001  -12.9173   20.3423 N   0  0  0  0  0  0
  -25.9262  -11.6362   20.5796 N   0  0  0  0  0  0
  -22.0416  -12.8337   22.0398 N   0  0  0  0  0  0
  -25.4341  -15.1774   20.4092 N   0  0  0  0  0  0
  -31.8767  -14.5864   20.1779 O   0  0  0  0  0  0
  -21.6559   -6.8887   21.4253 O   0  0  0  0  0  0
  -22.3607  -14.5550   20.6629 O   0  0  0  0  0  0
  -24.6080  -31.8691   23.2141 C   0  0  0  0  0  0
  -25.9001  -32.4831   23.8380 C   0  0  1  0  0  0
  -27.2472  -27.4788   20.0722 C   0  0  0  0  0  0
  -25.5897  -33.8623   24.2331 N   0  0  0  0  0  0
  -23.3967  -30.4862   21.5552 C   0  0  2  0  0  0
  -24.8453  -28.9540   20.1241 C   0  0  0  0  0  0
  -22.7368  -29.4608   22.5051 C   0  0  0  0  0  0
  -18.0262  -28.1357   22.8478 C   0  0  0  0  0  0
  -24.1505  -36.7292   23.2628 C   0  0  0  0  0  0
  -25.9190  -30.8398   21.3662 C   0  0  0  0  0  0
  -26.0010  -29.4726   20.7241 C   0  0  0  0  0  0
  -27.2010  -28.7337   20.7161 C   0  0  0  0  0  0
  -26.0788  -26.9545   19.4895 C   0  0  0  0  0  0
  -24.8751  -27.6865   19.5141 C   0  0  0  0  0  0
  -23.6038  -29.8133   20.1729 C   0  0  0  0  0  0
  -25.4122  -36.3096   24.0340 C   0  0  1  0  0  0
  -20.5828  -28.3626   23.1355 C   0  0  2  0  0  0
  -20.6760  -26.9384   22.5425 C   0  0  0  0  0  0
  -19.5759  -26.6367   21.5206 C   0  0  0  0  0  0
  -18.1927  -26.7895   22.1606 C   0  0  0  0  0  0
  -19.1493  -28.8822   23.2892 C   0  0  0  0  0  0
  -18.9429  -30.1437   23.8896 C   0  0  0  0  0  0
  -17.6429  -30.6579   24.0559 C   0  0  0  0  0  0
  -25.9049  -34.9465   23.5127 C   0  0  0  0  0  0
  -16.5330  -29.9086   23.6315 C   0  0  0  0  0  0
  -16.7243  -28.6492   23.0354 C   0  0  0  0  0  0
  -26.4458  -31.6605   25.0685 C   0  0  0  0  0  0
  -25.3716  -31.3726   26.1435 C   0  0  0  0  0  0
  -27.0293  -30.3058   24.6018 C   0  0  0  0  0  0
  -27.6073  -32.4292   25.7431 C   0  0  0  0  0  0
  -27.5595  -37.1786   24.8450 C   0  0  0  0  0  0
  -21.4110  -29.2992   22.3767 N   0  0  0  0  0  0
  -26.4305  -37.3781   23.9403 N   0  0  0  0  0  0
  -24.6596  -31.0774   22.1048 N   0  0  0  0  0  0
  -23.4155  -28.8126   23.3064 O   0  0  0  0  0  0
  -28.4368  -26.8009   19.9788 O   0  0  0  0  0  0
  -26.5573  -34.8913   22.4673 O   0  0  0  0  0  0
  -23.5287  -32.1442   23.7527 O   0  0  0  0  0  0
  -33.9242  -18.7273   16.7078 C   0  0  0  0  0  0
  -33.0016  -18.3906   17.7190 C   0  0  0  0  0  0
  -34.3337  -20.8633   17.7893 C   0  0  0  0  0  0
  -34.5956  -19.9653   16.7428 C   0  0  0  0  0  0
  -33.4000  -20.5459   18.7978 C   0  0  0  0  0  0
  -32.7275  -19.2997   18.7751 C   0  0  0  0  0  0
  -31.1407  -17.5834   21.5603 C   0  0  0  0  0  0
  -30.0609  -17.5125   19.2671 C   0  0  0  0  0  0
  -31.9955  -23.6785   20.6530 C   0  0  0  0  0  0
  -31.8209  -23.0145   18.2562 C   0  0  0  0  0  0
  -30.2370  -16.3853   21.9495 C   0  0  0  0  0  0
  -29.2856  -16.2505   19.7099 C   0  0  0  0  0  0
  -31.6675  -25.1286   20.2692 C   0  0  0  0  0  0
  -31.4894  -24.4722   17.8965 C   0  0  0  0  0  0
  -32.7264  -22.9487   19.5072 C   0  0  2  0  0  0
  -31.3690  -17.7366   20.0453 C   0  0  0  0  0  0
  -35.5890  -20.3545   15.6701 C   0  0  0  0  0  0
  -34.4846  -21.6040   20.7771 C   0  0  0  0  0  0
  -30.4661  -26.5851   18.6780 C   0  0  0  0  0  0
  -28.9438  -26.7552   18.6425 C   0  0  0  0  0  0
  -33.1928  -21.5330   19.9471 C   0  0  2  0  0  0
  -29.9304  -15.5131   20.8133 N   0  0  0  0  0  0
  -30.8504  -25.1934   19.0331 N   0  3  2  0  0  0
  -31.8481  -19.0502   19.8096 O   0  0  0  0  0  0
  -31.4683  -12.3833   19.1095 H   0  0  0  0  0  0
  -30.3270  -11.2664   19.8031 H   0  0  0  0  0  0
  -29.7328  -11.7929   17.4063 H   0  0  0  0  0  0
  -29.6724  -13.4962   17.7784 H   0  0  0  0  0  0
  -27.8201  -11.3090   18.7817 H   0  0  0  0  0  0
  -27.3721  -12.6694   17.7795 H   0  0  0  0  0  0
  -27.6734  -14.2244   19.5781 H   0  0  0  0  0  0
  -28.6849  -11.9491   21.3539 H   0  0  0  0  0  0
  -28.4905  -13.6065   21.8605 H   0  0  0  0  0  0
  -25.2728   -9.5569   22.4768 H   0  0  0  0  0  0
  -23.9908   -7.4601   22.7441 H   0  0  0  0  0  0
  -21.0816   -8.8801   19.8971 H   0  0  0  0  0  0
  -22.3684  -10.9678   19.6179 H   0  0  0  0  0  0
  -21.1976   -7.6130   23.9742 H   0  0  0  0  0  0
  -21.1491   -6.0488   25.9092 H   0  0  0  0  0  0
  -22.0591   -2.7598   23.2840 H   0  0  0  0  0  0
  -22.3947  -12.0008   22.4877 H   0  0  0  0  0  0
  -21.1034  -13.1461   22.2505 H   0  0  0  0  0  0
  -24.6715  -15.8353   20.5262 H   0  0  0  0  0  0
  -26.2961  -15.6164   20.1130 H   0  0  0  0  0  0
  -26.7059  -32.5551   23.1136 H   0  0  0  0  0  0
  -25.0124  -33.9812   25.0518 H   0  0  0  0  0  0
  -22.6823  -31.3003   21.4149 H   0  0  0  0  0  0
  -23.3778  -35.9615   23.3277 H   0  0  0  0  0  0
  -24.3611  -36.8904   22.2045 H   0  0  0  0  0  0
  -23.7269  -37.6499   23.6648 H   0  0  0  0  0  0
  -26.0221  -31.6041   20.5936 H   0  0  0  0  0  0
  -26.8110  -30.8981   21.9787 H   0  0  0  0  0  0
  -28.0924  -29.1330   21.1808 H   0  0  0  0  0  0
  -26.0959  -25.9870   19.0071 H   0  0  0  0  0  0
  -23.9840  -27.2756   19.0559 H   0  0  0  0  0  0
  -23.6997  -30.5866   19.4113 H   0  0  0  0  0  0
  -22.7296  -29.2242   19.8855 H   0  0  0  0  0  0
  -25.1313  -36.1948   25.0838 H   0  0  0  0  0  0
  -20.9905  -28.3199   24.1482 H   0  0  0  0  0  0
  -20.5695  -26.2240   23.3601 H   0  0  0  0  0  0
  -21.6636  -26.7466   22.1207 H   0  0  0  0  0  0
  -19.6949  -25.6288   21.1235 H   0  0  0  0  0  0
  -19.6729  -27.3174   20.6743 H   0  0  0  0  0  0
  -17.4213  -26.6635   21.4000 H   0  0  0  0  0  0
  -18.0332  -26.0033   22.8999 H   0  0  0  0  0  0
  -19.7913  -30.7227   24.2281 H   0  0  0  0  0  0
  -17.5006  -31.6264   24.5152 H   0  0  0  0  0  0
  -15.5341  -30.3008   23.7635 H   0  0  0  0  0  0
  -15.8634  -28.0820   22.7100 H   0  0  0  0  0  0
  -24.5864  -30.7121   25.7731 H   0  0  0  0  0  0
  -24.8936  -32.2906   26.4867 H   0  0  0  0  0  0
  -25.8042  -30.8858   27.0184 H   0  0  0  0  0  0
  -26.2831  -29.6815   24.1097 H   0  0  0  0  0  0
  -27.4136  -29.7304   25.4451 H   0  0  0  0  0  0
  -27.8618  -30.4411   23.9112 H   0  0  0  0  0  0
  -27.2749  -33.3601   26.2032 H   0  0  0  0  0  0
  -28.3872  -32.6828   25.0233 H   0  0  0  0  0  0
  -28.0739  -31.8370   26.5309 H   0  0  0  0  0  0
  -28.2586  -38.0109   24.7547 H   0  0  0  0  0  0
  -28.1132  -36.2646   24.6240 H   0  0  0  0  0  0
  -27.2305  -37.1370   25.8847 H   0  0  0  0  0  0
  -20.9274  -29.8694   21.6961 H   0  0  0  0  0  0
  -26.0188  -38.2854   24.1428 H   0  0  0  0  0  0
  -34.1138  -18.0267   15.9064 H   0  0  0  0  0  0
  -32.5176  -17.4259   17.6545 H   0  0  0  0  0  0
  -34.8532  -21.8115   17.8159 H   0  0  0  0  0  0
  -32.1068  -17.4903   22.0585 H   0  0  0  0  0  0
  -30.6942  -18.5028   21.9372 H   0  0  0  0  0  0
  -29.4110  -18.3785   19.3950 H   0  0  0  0  0  0
  -30.2631  -17.4665   18.1962 H   0  0  0  0  0  0
  -31.0800  -23.1438   20.9146 H   0  0  0  0  0  0
  -32.6067  -23.6820   21.5554 H   0  0  0  0  0  0
  -32.3100  -22.5593   17.3923 H   0  0  0  0  0  0
  -30.8980  -22.4537   18.4146 H   0  0  0  0  0  0
  -29.2898  -16.7466   22.3513 H   0  0  0  0  0  0
  -30.6973  -15.8097   22.7561 H   0  0  0  0  0  0
  -29.1470  -15.6165   18.8336 H   0  0  0  0  0  0
  -28.2794  -16.5323   20.0271 H   0  0  0  0  0  0
  -32.5965  -25.6858   20.1252 H   0  0  0  0  0  0
  -31.1322  -25.6183   21.0846 H   0  0  0  0  0  0
  -30.8344  -24.4975   17.0244 H   0  0  0  0  0  0
  -32.4076  -24.9900   17.6134 H   0  0  0  0  0  0
  -33.6294  -23.5085   19.2546 H   0  0  0  0  0  0
  -32.1207  -17.0034   19.7604 H   0  0  0  0  0  0
  -35.9439  -19.4918   15.1056 H   0  0  0  0  0  0
  -36.4554  -20.8512   16.1111 H   0  0  0  0  0  0
  -35.1206  -21.0484   14.9718 H   0  0  0  0  0  0
  -34.7720  -20.6137   21.1328 H   0  0  0  0  0  0
  -34.3793  -22.2443   21.6498 H   0  0  0  0  0  0
  -35.3131  -21.9855   20.1799 H   0  0  0  0  0  0
  -30.9021  -27.3080   19.3689 H   0  0  0  0  0  0
  -30.8727  -26.8431   17.6989 H   0  0  0  0  0  0
  -28.4725  -25.9525   18.0752 H   0  0  0  0  0  0
  -28.7201  -27.6862   18.1172 H   0  0  0  0  0  0
  -32.4206  -21.1455   20.6111 H   0  0  0  0  0  0
  -29.9901  -24.7067   19.2455 H   0  0  0  0  0  0
  1 25  1  0  0  0
  1 30  2  0  0  0
  1 92  1  0  0  0
  2  3  1  0  0  0
  2 25  1  0  0  0
  2 95  1  0  0  0
  2 96  1  0  0  0
  3  4  1  0  0  0
  3 97  1  0  0  0
  3 98  1  0  0  0
  4  5  1  0  0  0
  4 99  1  0  0  0
  4100  1  0  0  0
  5  6  1  0  0  0
  5 26  1  0  0  0
  5101  1  0  0  0
  6 25  1  0  0  0
  6102  1  0  0  0
  6103  1  0  0  0
  7  8  2  0  0  0
  7 26  1  0  0  0
  7 29  1  0  0  0
  8  9  1  0  0  0
  8 22  1  0  0  0
  9 10  1  0  0  0
  9 27  2  0  0  0
 10 11  2  0  0  0
 10 15  1  0  0  0
 11 12  1  0  0  0
 11104  1  0  0  0
 12 13  2  0  0  0
 12105  1  0  0  0
 13 14  1  0  0  0
 13 31  1  0  0  0
 14 15  2  0  0  0
 14106  1  0  0  0
 15107  1  0  0  0
 16 17  2  0  0  0
 16 21  1  0  0  0
 16 31  1  0  0  0
 17 18  1  0  0  0
 17108  1  0  0  0
 18 19  2  0  0  0
 18109  1  0  0  0
 19 20  1  0  0  0
 19 24  1  0  0  0
 20 21  2  0  0  0
 20110  1  0  0  0
 21 23  1  0  0  0
 22 28  1  0  0  0
 22 32  2  0  0  0
 26 27  1  0  0  0
 28111  1  0  0  0
 28112  1  0  0  0
 29113  1  0  0  0
 29114  1  0  0  0
 33 34  1  0  0  0
 33 66  1  0  0  0
 33 70  2  0  0  0
 34 36  1  0  0  0
 34 59  1  0  0  0
 34115  1  0  0  0
 35 44  2  0  0  0
 35 45  1  0  0  0
 35 68  1  0  0  0
 36 56  1  0  0  0
 36116  1  0  0  0
 37 39  1  0  0  0
 37 47  1  0  0  0
 37 66  1  0  0  0
 37117  1  0  0  0
 38 43  2  0  0  0
 38 46  1  0  0  0
 38 47  1  0  0  0
 39 64  1  0  0  0
 39 67  2  0  0  0
 40 52  1  0  0  0
 40 53  2  0  0  0
 40 58  1  0  0  0
 41118  1  0  0  0
 41119  1  0  0  0
 41120  1  0  0  0
 41 48  1  0  0  0
 42 43  1  0  0  0
 42 66  1  0  0  0
 42121  1  0  0  0
 42122  1  0  0  0
 43 44  1  0  0  0
 44123  1  0  0  0
 45 46  2  0  0  0
 45124  1  0  0  0
 46125  1  0  0  0
 47126  1  0  0  0
 47127  1  0  0  0
 48 56  1  0  0  0
 48 65  1  0  0  0
 48128  1  0  0  0
 49 50  1  0  0  0
 49 53  1  0  0  0
 49 64  1  0  0  0
 49129  1  0  0  0
 50 51  1  0  0  0
 50130  1  0  0  0
 50131  1  0  0  0
 51 52  1  0  0  0
 51132  1  0  0  0
 51133  1  0  0  0
 52134  1  0  0  0
 52135  1  0  0  0
 53 54  1  0  0  0
 54 55  2  0  0  0
 54136  1  0  0  0
 55 57  1  0  0  0
 55137  1  0  0  0
 56 69  2  0  0  0
 57 58  2  0  0  0
 57138  1  0  0  0
 58139  1  0  0  0
 59 60  1  0  0  0
 59 61  1  0  0  0
 59 62  1  0  0  0
 60140  1  0  0  0
 60141  1  0  0  0
 60142  1  0  0  0
 61143  1  0  0  0
 61144  1  0  0  0
 61145  1  0  0  0
 62146  1  0  0  0
 62147  1  0  0  0
 62148  1  0  0  0
 63 65  1  0  0  0
 63149  1  0  0  0
 63150  1  0  0  0
 63151  1  0  0  0
 64152  1  0  0  0
 65153  1  0  0  0
 68 90  1  0  0  0
 71 72  2  0  0  0
 71 74  1  0  0  0
 71154  1  0  0  0
 72 76  1  0  0  0
 72155  1  0  0  0
 73 74  2  0  0  0
 73 75  1  0  0  0
 73156  1  0  0  0
 74 87  1  0  0  0
 75 76  2  0  0  0
 75 91  1  0  0  0
 76 94  1  0  0  0
 77 81  1  0  0  0
 77 86  1  0  0  0
 77157  1  0  0  0
 77158  1  0  0  0
 78 82  1  0  0  0
 78 86  1  0  0  0
 78159  1  0  0  0
 78160  1  0  0  0
 79 83  1  0  0  0
 79161  1  0  0  0
 79162  1  0  0  0
 79 85  1  0  0  0
 80 84  1  0  0  0
 80 85  1  0  0  0
 80163  1  0  0  0
 80164  1  0  0  0
 81 92  1  0  0  0
 81165  1  0  0  0
 81166  1  0  0  0
 82 92  1  0  0  0
 82167  1  0  0  0
 82168  1  0  0  0
 83 93  1  0  0  0
 83169  1  0  0  0
 83170  1  0  0  0
 84 93  1  0  0  0
 84171  1  0  0  0
 84172  1  0  0  0
 85 91  1  0  0  0
 85173  1  0  0  0
 86 94  1  0  0  0
 86174  1  0  0  0
 87175  1  0  0  0
 87176  1  0  0  0
 87177  1  0  0  0
 88178  1  0  0  0
 88179  1  0  0  0
 88180  1  0  0  0
 88 91  1  0  0  0
 89 90  1  0  0  0
 89181  1  0  0  0
 89182  1  0  0  0
 89 93  1  0  0  0
 90183  1  0  0  0
 90184  1  0  0  0
 91185  1  0  0  0
 93186  1  0  0  0
M  CHG  1  93   1
M  ISO  4   1 100  68 101  90 101  92 100
M  END
> <chiral flag>
0

> <version>
0

> <s_m_source_file>
/data/baiqing/PycharmProjects/Reinvent-master-3.2/result/LINK_invent/BTK/process_docking_weight1_custom_sum_contain_oxygen_bond_distance_aromatic_linkinvent_7_9_3/rearranged_h_0155.sdf

> <i_m_source_file_index>
94

> <r_mmod_Potential_Energy-OPLS-2005>
174.681884765625

> <r_mmod_Stretch_Energy-OPLS-2005>
36.4455604553223

> <r_mmod_Bend_Energy-OPLS-2005>
109.796890258789

> <r_mmod_Torsional_Energy-OPLS-2005>
421.867889404297

> <r_mmod_Improper_Torsional_Energy-OPLS-2005>
8.00593852996826

> <r_mmod_Van_der_Waal_Energy-OPLS-2005>
177.355224609375

> <r_mmod_Electrostatic_Energy-OPLS-2005>
-199.728240966797

> <r_mmod_Solvation_Energy-OPLS-2005>
-392.550750732422

> <b_mmod_Minimization_Converged-OPLS-2005>
0

> <r_mmod_RMS_Derivative-OPLS-2005>
5.41065311431885

$$$$
94
                    3D
 Structure written by MMmdl.
178188  0  0  1  0            999 V2000
  -30.7021  -14.5288   20.3461 C   0  0  0  0  0  0
  -30.4357  -12.2608   19.4601 C   0  0  0  0  0  0
  -29.5058  -12.2592   18.2292 C   0  0  0  0  0  0
  -28.0068  -12.2928   18.6284 C   0  0  0  0  0  0
  -27.6437  -13.1874   19.8559 C   0  0  2  0  0  0
  -28.7114  -13.1020   20.9649 C   0  0  0  0  0  0
  -25.2572  -13.8076   20.5774 C   0  0  0  0  0  0
  -24.1804  -13.0382   20.9216 C   0  0  0  0  0  0
  -24.6344  -11.6847   20.8806 C   0  0  0  0  0  0
  -23.9012  -10.4250   21.0438 C   0  0  0  0  0  0
  -24.3587   -9.4168   21.9211 C   0  0  0  0  0  0
  -23.6277   -8.2194   22.0752 C   0  0  0  0  0  0
  -22.4254   -8.0248   21.3533 C   0  0  0  0  0  0
  -21.9883   -9.0223   20.4648 C   0  0  0  0  0  0
  -22.7200  -10.2099   20.3074 C   0  0  0  0  0  0
  -21.6828   -6.0734   22.5273 C   0  0  0  0  0  0
  -21.4003   -6.5643   23.8211 C   0  0  0  0  0  0
  -21.3648   -5.6787   24.9165 C   0  0  0  0  0  0
  -21.6044   -4.3057   24.7216 C   0  0  0  0  0  0
  -21.8820   -3.8150   23.4339 C   0  0  0  0  0  0
  -21.9191   -4.6964   22.3393 C   0  0  0  0  0  0
  -22.7836  -13.5216   21.1853 C   0  0  0  0  0  0
  -22.1668   -4.2158   21.0968 F   0  0  0  0  0  0
  -21.5622   -3.4540   25.7740 F   0  0  0  0  0  0
  -30.0209  -13.3523   20.3474 N   0  0  0  0  0  0
  -26.2974  -12.9193   20.3457 N   0  0  0  0  0  0
  -25.9275  -11.6390   20.5933 N   0  0  0  0  0  0
  -22.0447  -12.8221   22.0387 N   0  0  0  0  0  0
  -25.4317  -15.1803   20.4241 N   0  0  0  0  0  0
  -31.9304  -14.5881   20.2827 O   0  0  0  0  0  0
  -21.6602   -6.8865   21.4239 O   0  0  0  0  0  0
  -22.3575  -14.5549   20.6715 O   0  0  0  0  0  0
  -24.6091  -31.8706   23.2134 C   0  0  0  0  0  0
  -25.9018  -32.4834   23.8407 C   0  0  1  0  0  0
  -27.2441  -27.4895   20.1003 C   0  0  0  0  0  0
  -25.5892  -33.8626   24.2357 N   0  0  0  0  0  0
  -23.3953  -30.4922   21.5513 C   0  0  2  0  0  0
  -24.8466  -28.9626   20.1168 C   0  0  0  0  0  0
  -22.7384  -29.4655   22.5002 C   0  0  0  0  0  0
  -18.0265  -28.1356   22.8502 C   0  0  0  0  0  0
  -24.1476  -36.7314   23.2638 C   0  0  0  0  0  0
  -25.9171  -30.8552   21.3570 C   0  0  0  0  0  0
  -26.0006  -29.4918   20.7093 C   0  0  0  0  0  0
  -27.2034  -28.7600   20.7037 C   0  0  0  0  0  0
  -26.0764  -26.9485   19.5243 C   0  0  0  0  0  0
  -24.8765  -27.6861   19.5216 C   0  0  0  0  0  0
  -23.6037  -29.8202   20.1657 C   0  0  0  0  0  0
  -25.4091  -36.3122   24.0349 C   0  0  1  0  0  0
  -20.5854  -28.3637   23.1335 C   0  0  2  0  0  0
  -20.6759  -26.9380   22.5418 C   0  0  0  0  0  0
  -19.5738  -26.6376   21.5211 C   0  0  0  0  0  0
  -18.1912  -26.7909   22.1618 C   0  0  0  0  0  0
  -19.1513  -28.8813   23.2919 C   0  0  0  0  0  0
  -18.9448  -30.1428   23.8918 C   0  0  0  0  0  0
  -17.6450  -30.6578   24.0547 C   0  0  0  0  0  0
  -25.9022  -34.9488   23.5151 C   0  0  0  0  0  0
  -16.5343  -29.9080   23.6310 C   0  0  0  0  0  0
  -16.7252  -28.6483   23.0358 C   0  0  0  0  0  0
  -26.4478  -31.6600   25.0710 C   0  0  0  0  0  0
  -25.3774  -31.3685   26.1479 C   0  0  0  0  0  0
  -27.0311  -30.3058   24.6040 C   0  0  0  0  0  0
  -27.6056  -32.4316   25.7471 C   0  0  0  0  0  0
  -27.5579  -37.1807   24.8462 C   0  0  0  0  0  0
  -21.4119  -29.3012   22.3745 N   0  0  0  0  0  0
  -26.4283  -37.3807   23.9421 N   0  0  0  0  0  0
  -24.6582  -31.0849   22.1012 N   0  0  0  0  0  0
  -23.4176  -28.8204   23.3033 O   0  0  0  0  0  0
  -28.4048  -26.7664   20.0960 O   0  0  0  0  0  0
  -26.5550  -34.8937   22.4700 O   0  0  0  0  0  0
  -23.5305  -32.1414   23.7583 O   0  0  0  0  0  0
  -28.4769  -25.4714   17.2701 C   0  0  0  0  0  0
  -30.6633  -25.0796   18.2612 C   0  0  0  0  0  0
  -29.4955  -25.8589   18.1560 C   0  0  0  0  0  0
  -28.5939  -24.2873   16.5187 C   0  0  0  0  0  0
  -30.8036  -23.8958   17.5084 C   0  0  0  0  0  0
  -29.7547  -23.4791   16.6466 C   0  0  0  0  0  0
  -28.1894  -18.9510   16.2979 C   0  0  0  0  0  0
  -28.8078  -20.0609   15.4628 C   0  0  0  0  0  0
  -29.5954  -15.6718   18.5749 C   0  0  0  0  0  0
  -30.4507  -16.9785   20.4279 C   0  0  0  0  0  0
  -29.4728  -20.4825   17.6319 C   0  0  0  0  0  0
  -28.5982  -16.7718   18.2689 C   0  0  0  0  0  0
  -29.6783  -18.2141   19.8408 C   0  0  0  0  0  0
  -28.6025  -19.2134   17.7689 C   0  0  2  0  0  0
  -27.4406  -23.9037   15.6037 C   0  0  0  0  0  0
  -32.0825  -23.0860   17.6536 C   0  0  0  0  0  0
  -29.8463  -22.1707   15.8704 C   0  0  0  0  0  0
  -29.2935  -27.0772   19.0311 C   0  0  0  0  0  0
  -29.9811  -15.6339   19.9951 N   0  0  0  0  0  0
  -28.9715  -21.1355   16.4200 N   0  0  0  0  0  0
  -29.3091  -18.0553   18.4044 N   0  3  0  0  0  0
  -31.4769  -12.3499   19.1418 H   0  0  0  0  0  0
  -30.3676  -11.3106   19.9915 H   0  0  0  0  0  0
  -29.6856  -11.3402   17.6704 H   0  0  0  0  0  0
  -29.7813  -13.0313   17.5158 H   0  0  0  0  0  0
  -27.7381  -11.2604   18.8535 H   0  0  0  0  0  0
  -27.3927  -12.5689   17.7713 H   0  0  0  0  0  0
  -27.6065  -14.2127   19.5139 H   0  0  0  0  0  0
  -28.6978  -12.1221   21.4449 H   0  0  0  0  0  0
  -28.5082  -13.8362   21.7457 H   0  0  0  0  0  0
  -25.2715   -9.5655   22.4802 H   0  0  0  0  0  0
  -23.9996   -7.4572   22.7452 H   0  0  0  0  0  0
  -21.0809   -8.8732   19.8958 H   0  0  0  0  0  0
  -22.3648  -10.9653   19.6200 H   0  0  0  0  0  0
  -21.1989   -7.6146   23.9726 H   0  0  0  0  0  0
  -21.1473   -6.0502   25.9071 H   0  0  0  0  0  0
  -22.0619   -2.7617   23.2808 H   0  0  0  0  0  0
  -22.4020  -11.9864   22.4774 H   0  0  0  0  0  0
  -21.1076  -13.1307   22.2596 H   0  0  0  0  0  0
  -24.6733  -15.8390   20.5614 H   0  0  0  0  0  0
  -26.3142  -15.6267   20.2192 H   0  0  0  0  0  0
  -26.7092  -32.5573   23.1179 H   0  0  0  0  0  0
  -25.0094  -33.9791   25.0536 H   0  0  0  0  0  0
  -22.6814  -31.3059   21.4108 H   0  0  0  0  0  0
  -23.3743  -35.9642   23.3290 H   0  0  0  0  0  0
  -24.3579  -36.8922   22.2054 H   0  0  0  0  0  0
  -23.7212  -37.6518   23.6641 H   0  0  0  0  0  0
  -26.0161  -31.6227   20.5888 H   0  0  0  0  0  0
  -26.8102  -30.9151   21.9670 H   0  0  0  0  0  0
  -28.0965  -29.1636   21.1624 H   0  0  0  0  0  0
  -26.1008  -25.9623   19.0831 H   0  0  0  0  0  0
  -23.9875  -27.2658   19.0710 H   0  0  0  0  0  0
  -23.7037  -30.5905   19.4001 H   0  0  0  0  0  0
  -22.7318  -29.2317   19.8762 H   0  0  0  0  0  0
  -25.1266  -36.1990   25.0840 H   0  0  0  0  0  0
  -20.9953  -28.3199   24.1455 H   0  0  0  0  0  0
  -20.5650  -26.2252   23.3599 H   0  0  0  0  0  0
  -21.6636  -26.7429   22.1213 H   0  0  0  0  0  0
  -19.6893  -25.6297   21.1218 H   0  0  0  0  0  0
  -19.6683  -27.3204   20.6755 H   0  0  0  0  0  0
  -17.4197  -26.6675   21.4004 H   0  0  0  0  0  0
  -18.0298  -26.0038   22.8998 H   0  0  0  0  0  0
  -19.7931  -30.7227   24.2306 H   0  0  0  0  0  0
  -17.5014  -31.6255   24.5158 H   0  0  0  0  0  0
  -15.5346  -30.2989   23.7627 H   0  0  0  0  0  0
  -15.8647  -28.0804   22.7080 H   0  0  0  0  0  0
  -24.5938  -30.7033   25.7827 H   0  0  0  0  0  0
  -24.8978  -32.2847   26.4952 H   0  0  0  0  0  0
  -25.8172  -30.8845   27.0213 H   0  0  0  0  0  0
  -26.2833  -29.6797   24.1162 H   0  0  0  0  0  0
  -27.4181  -29.7313   25.4466 H   0  0  0  0  0  0
  -27.8623  -30.4381   23.9104 H   0  0  0  0  0  0
  -27.2666  -33.3602   26.2081 H   0  0  0  0  0  0
  -28.3865  -32.6902   25.0304 H   0  0  0  0  0  0
  -28.0727  -31.8416   26.5369 H   0  0  0  0  0  0
  -28.2598  -38.0108   24.7539 H   0  0  0  0  0  0
  -28.1084  -36.2648   24.6252 H   0  0  0  0  0  0
  -27.2312  -37.1410   25.8871 H   0  0  0  0  0  0
  -20.9262  -29.8740   21.6984 H   0  0  0  0  0  0
  -26.0174  -38.2888   24.1446 H   0  0  0  0  0  0
  -27.5846  -26.0757   17.1938 H   0  0  0  0  0  0
  -31.4435  -25.3852   18.9444 H   0  0  0  0  0  0
  -28.5426  -18.0161   15.8679 H   0  0  0  0  0  0
  -27.1024  -18.9638   16.2063 H   0  0  0  0  0  0
  -28.1806  -20.3465   14.6146 H   0  0  0  0  0  0
  -29.7802  -19.7412   15.0774 H   0  0  0  0  0  0
  -30.4829  -15.7598   17.9446 H   0  0  0  0  0  0
  -29.1088  -14.7739   18.2488 H   0  0  0  0  0  0
  -30.4210  -17.0257   21.5181 H   0  0  0  0  0  0
  -31.5032  -17.0849   20.1559 H   0  0  0  0  0  0
  -30.5197  -20.2068   17.4881 H   0  0  0  0  0  0
  -29.4108  -21.1328   18.5056 H   0  0  0  0  0  0
  -27.7427  -16.7307   18.9440 H   0  0  0  0  0  0
  -28.1956  -16.5777   17.2793 H   0  0  0  0  0  0
  -30.2779  -19.1152   19.9754 H   0  0  0  0  0  0
  -28.7662  -18.3724   20.4196 H   0  0  0  0  0  0
  -27.7070  -19.4502   18.3471 H   0  0  0  0  0  0
  -26.6975  -24.7000   15.5495 H   0  0  0  0  0  0
  -26.9384  -23.0096   15.9734 H   0  0  0  0  0  0
  -27.7849  -23.7105   14.5881 H   0  0  0  0  0  0
  -32.7767  -23.5544   18.3516 H   0  0  0  0  0  0
  -32.5934  -22.9989   16.6937 H   0  0  0  0  0  0
  -31.8680  -22.0842   18.0249 H   0  0  0  0  0  0
  -30.8709  -21.8056   15.7954 H   0  0  0  0  0  0
  -29.5537  -22.3788   14.8404 H   0  0  0  0  0  0
  -28.9369  -27.9062   18.4147 H   0  0  0  0  0  0
  -30.2462  -27.3957   19.4534 H   0  0  0  0  0  0
  -30.1717  -17.9520   17.8936 H   0  0  0  0  0  0
  1 25  1  0  0  0
  1 30  2  0  0  0
  1 89  1  0  0  0
  2  3  1  0  0  0
  2 25  1  0  0  0
  2 92  1  0  0  0
  2 93  1  0  0  0
  3  4  1  0  0  0
  3 94  1  0  0  0
  3 95  1  0  0  0
  4  5  1  0  0  0
  4 96  1  0  0  0
  4 97  1  0  0  0
  5  6  1  0  0  0
  5 26  1  0  0  0
  5 98  1  0  0  0
  6 25  1  0  0  0
  6 99  1  0  0  0
  6100  1  0  0  0
  7  8  2  0  0  0
  7 26  1  0  0  0
  7 29  1  0  0  0
  8  9  1  0  0  0
  8 22  1  0  0  0
  9 10  1  0  0  0
  9 27  2  0  0  0
 10 11  2  0  0  0
 10 15  1  0  0  0
 11 12  1  0  0  0
 11101  1  0  0  0
 12 13  2  0  0  0
 12102  1  0  0  0
 13 14  1  0  0  0
 13 31  1  0  0  0
 14 15  2  0  0  0
 14103  1  0  0  0
 15104  1  0  0  0
 16 17  2  0  0  0
 16 21  1  0  0  0
 16 31  1  0  0  0
 17 18  1  0  0  0
 17105  1  0  0  0
 18 19  2  0  0  0
 18106  1  0  0  0
 19 20  1  0  0  0
 19 24  1  0  0  0
 20 21  2  0  0  0
 20107  1  0  0  0
 21 23  1  0  0  0
 22 28  1  0  0  0
 22 32  2  0  0  0
 26 27  1  0  0  0
 28108  1  0  0  0
 28109  1  0  0  0
 29110  1  0  0  0
 29111  1  0  0  0
 33 34  1  0  0  0
 33 66  1  0  0  0
 33 70  2  0  0  0
 34 36  1  0  0  0
 34 59  1  0  0  0
 34112  1  0  0  0
 35 44  2  0  0  0
 35 45  1  0  0  0
 35 68  1  0  0  0
 36 56  1  0  0  0
 36113  1  0  0  0
 37 39  1  0  0  0
 37 47  1  0  0  0
 37 66  1  0  0  0
 37114  1  0  0  0
 38 43  2  0  0  0
 38 46  1  0  0  0
 38 47  1  0  0  0
 39 64  1  0  0  0
 39 67  2  0  0  0
 40 52  1  0  0  0
 40 53  2  0  0  0
 40 58  1  0  0  0
 41115  1  0  0  0
 41116  1  0  0  0
 41117  1  0  0  0
 41 48  1  0  0  0
 42 43  1  0  0  0
 42 66  1  0  0  0
 42118  1  0  0  0
 42119  1  0  0  0
 43 44  1  0  0  0
 44120  1  0  0  0
 45 46  2  0  0  0
 45121  1  0  0  0
 46122  1  0  0  0
 47123  1  0  0  0
 47124  1  0  0  0
 48 56  1  0  0  0
 48 65  1  0  0  0
 48125  1  0  0  0
 49 50  1  0  0  0
 49 53  1  0  0  0
 49 64  1  0  0  0
 49126  1  0  0  0
 50 51  1  0  0  0
 50127  1  0  0  0
 50128  1  0  0  0
 51 52  1  0  0  0
 51129  1  0  0  0
 51130  1  0  0  0
 52131  1  0  0  0
 52132  1  0  0  0
 53 54  1  0  0  0
 54 55  2  0  0  0
 54133  1  0  0  0
 55 57  1  0  0  0
 55134  1  0  0  0
 56 69  2  0  0  0
 57 58  2  0  0  0
 57135  1  0  0  0
 58136  1  0  0  0
 59 60  1  0  0  0
 59 61  1  0  0  0
 59 62  1  0  0  0
 60137  1  0  0  0
 60138  1  0  0  0
 60139  1  0  0  0
 61140  1  0  0  0
 61141  1  0  0  0
 61142  1  0  0  0
 62143  1  0  0  0
 62144  1  0  0  0
 62145  1  0  0  0
 63 65  1  0  0  0
 63146  1  0  0  0
 63147  1  0  0  0
 63148  1  0  0  0
 64149  1  0  0  0
 65150  1  0  0  0
 68 88  1  0  0  0
 71 73  2  0  0  0
 71 74  1  0  0  0
 71151  1  0  0  0
 72 73  1  0  0  0
 72 75  2  0  0  0
 72152  1  0  0  0
 73 88  1  0  0  0
 74 76  2  0  0  0
 74 85  1  0  0  0
 75 76  1  0  0  0
 75 86  1  0  0  0
 76 87  1  0  0  0
 77 78  1  0  0  0
 77153  1  0  0  0
 77154  1  0  0  0
 77 84  1  0  0  0
 78 90  1  0  0  0
 78155  1  0  0  0
 78156  1  0  0  0
 79 82  1  0  0  0
 79 89  1  0  0  0
 79157  1  0  0  0
 79158  1  0  0  0
 80 83  1  0  0  0
 80 89  1  0  0  0
 80159  1  0  0  0
 80160  1  0  0  0
 81 84  1  0  0  0
 81 90  1  0  0  0
 81161  1  0  0  0
 81162  1  0  0  0
 82163  1  0  0  0
 82164  1  0  0  0
 82 91  1  0  0  0
 83 91  1  0  0  0
 83165  1  0  0  0
 83166  1  0  0  0
 84 91  1  0  0  0
 84167  1  0  0  0
 85168  1  0  0  0
 85169  1  0  0  0
 85170  1  0  0  0
 86171  1  0  0  0
 86172  1  0  0  0
 86173  1  0  0  0
 87 90  1  0  0  0
 87174  1  0  0  0
 87175  1  0  0  0
 88176  1  0  0  0
 88177  1  0  0  0
 91178  1  0  0  0
M  CHG  1  91   1
M  ISO  4   1 100  68 101  88 101  89 100
M  END
> <chiral flag>
0

> <version>
0

> <s_m_source_file>
/data/baiqing/PycharmProjects/Reinvent-master-3.2/result/LINK_invent/BTK/process_docking_weight1_custom_sum_contain_oxygen_bond_distance_aromatic_linkinvent_7_9_3/rearranged_h_0155.sdf

> <i_m_source_file_index>
95

> <r_mmod_Potential_Energy-OPLS-2005>
293.698852539062

> <r_mmod_Stretch_Energy-OPLS-2005>
42.2690200805664

> <r_mmod_Bend_Energy-OPLS-2005>
138.866271972656

> <r_mmod_Torsional_Energy-OPLS-2005>
510.516571044922

> <r_mmod_Improper_Torsional_Energy-OPLS-2005>
15.5950193405151

> <r_mmod_Van_der_Waal_Energy-OPLS-2005>
173.259033203125

> <r_mmod_Electrostatic_Energy-OPLS-2005>
-186.762023925781

> <r_mmod_Solvation_Energy-OPLS-2005>
-442.993499755859

> <b_mmod_Minimization_Converged-OPLS-2005>
0

> <r_mmod_RMS_Derivative-OPLS-2005>
2.34254503250122

$$$$
95
                    3D
 Structure written by MMmdl.
162171  0  0  1  0            999 V2000
  -30.6975  -14.6150   20.5288 C   0  0  0  0  0  0
  -30.4106  -12.3937   19.4501 C   0  0  0  0  0  0
  -29.4882  -12.5022   18.2190 C   0  0  0  0  0  0
  -28.0158  -12.3273   18.6345 C   0  0  0  0  0  0
  -27.6387  -13.2075   19.8536 C   0  0  2  0  0  0
  -28.6878  -13.1009   20.9870 C   0  0  0  0  0  0
  -25.2473  -13.8138   20.5652 C   0  0  0  0  0  0
  -24.1763  -13.0411   20.9205 C   0  0  0  0  0  0
  -24.6345  -11.6887   20.8766 C   0  0  0  0  0  0
  -23.9036  -10.4270   21.0417 C   0  0  0  0  0  0
  -24.3599   -9.4191   21.9191 C   0  0  0  0  0  0
  -23.6281   -8.2226   22.0753 C   0  0  0  0  0  0
  -22.4264   -8.0261   21.3540 C   0  0  0  0  0  0
  -21.9896   -9.0230   20.4644 C   0  0  0  0  0  0
  -22.7213  -10.2114   20.3059 C   0  0  0  0  0  0
  -21.6843   -6.0726   22.5281 C   0  0  0  0  0  0
  -21.4004   -6.5635   23.8215 C   0  0  0  0  0  0
  -21.3655   -5.6790   24.9178 C   0  0  0  0  0  0
  -21.6043   -4.3052   24.7226 C   0  0  0  0  0  0
  -21.8817   -3.8140   23.4350 C   0  0  0  0  0  0
  -21.9188   -4.6954   22.3404 C   0  0  0  0  0  0
  -22.7789  -13.5211   21.1857 C   0  0  0  0  0  0
  -22.1658   -4.2140   21.0982 F   0  0  0  0  0  0
  -21.5638   -3.4537   25.7742 F   0  0  0  0  0  0
  -29.9962  -13.4386   20.4130 N   0  0  0  0  0  0
  -26.2897  -12.9310   20.3301 N   0  0  0  0  0  0
  -25.9268  -11.6481   20.5790 N   0  0  0  0  0  0
  -22.0427  -12.8221   22.0424 N   0  0  0  0  0  0
  -25.4098  -15.1852   20.3969 N   0  0  0  0  0  0
  -31.8673  -14.6652   20.1356 O   0  0  0  0  0  0
  -21.6633   -6.8859   21.4240 O   0  0  0  0  0  0
  -22.3487  -14.5516   20.6694 O   0  0  0  0  0  0
  -24.6203  -31.8623   23.2045 C   0  0  0  0  0  0
  -25.9069  -32.4790   23.8363 C   0  0  1  0  0  0
  -27.2343  -27.3659   20.1013 C   0  0  0  0  0  0
  -25.5902  -33.8594   24.2289 N   0  0  0  0  0  0
  -23.4121  -30.4844   21.5458 C   0  0  2  0  0  0
  -24.8582  -28.9420   20.1113 C   0  0  0  0  0  0
  -22.7444  -29.4627   22.4956 C   0  0  0  0  0  0
  -18.0278  -28.1371   22.8492 C   0  0  0  0  0  0
  -24.1487  -36.7311   23.2639 C   0  0  0  0  0  0
  -25.9471  -30.8064   21.3673 C   0  0  0  0  0  0
  -26.0216  -29.4357   20.7129 C   0  0  0  0  0  0
  -27.2074  -28.6545   20.7052 C   0  0  0  0  0  0
  -26.0402  -26.8982   19.5040 C   0  0  0  0  0  0
  -24.8660  -27.6757   19.5038 C   0  0  0  0  0  0
  -23.6236  -29.8157   20.1611 C   0  0  0  0  0  0
  -25.4111  -36.3099   24.0331 C   0  0  1  0  0  0
  -20.5873  -28.3668   23.1298 C   0  0  2  0  0  0
  -20.6762  -26.9397   22.5413 C   0  0  0  0  0  0
  -19.5741  -26.6378   21.5212 C   0  0  0  0  0  0
  -18.1922  -26.7921   22.1621 C   0  0  0  0  0  0
  -19.1528  -28.8840   23.2894 C   0  0  0  0  0  0
  -18.9455  -30.1442   23.8903 C   0  0  0  0  0  0
  -17.6456  -30.6580   24.0561 C   0  0  0  0  0  0
  -25.9041  -34.9463   23.5113 C   0  0  0  0  0  0
  -16.5347  -29.9078   23.6326 C   0  0  0  0  0  0
  -16.7263  -28.6495   23.0352 C   0  0  0  0  0  0
  -26.4477  -31.6593   25.0720 C   0  0  0  0  0  0
  -25.3729  -31.3720   26.1465 C   0  0  0  0  0  0
  -27.0305  -30.3022   24.6135 C   0  0  0  0  0  0
  -27.6044  -32.4321   25.7488 C   0  0  0  0  0  0
  -27.5582  -37.1810   24.8460 C   0  0  0  0  0  0
  -21.4164  -29.3034   22.3706 N   0  0  0  0  0  0
  -26.4293  -37.3787   23.9405 N   0  0  0  0  0  0
  -24.6785  -31.0672   22.0970 N   0  0  0  0  0  0
  -23.4191  -28.8166   23.3018 O   0  0  0  0  0  0
  -28.3975  -26.5987   20.1564 O   0  0  0  0  0  0
  -26.5614  -34.8925   22.4681 O   0  0  0  0  0  0
  -23.5380  -32.1398   23.7402 O   0  0  0  0  0  0
  -28.1749  -22.8730   19.3431 C   0  0  0  0  0  0
  -28.4293  -21.5456   19.7849 C   0  0  0  0  0  0
  -29.7943  -22.4374   21.5602 C   0  0  0  0  0  0
  -28.7377  -24.0099   19.9831 C   0  0  0  0  0  0
  -29.2648  -21.3002   20.8999 C   0  0  0  0  0  0
  -29.5620  -23.7778   21.1147 C   0  0  0  0  0  0
  -31.0127  -18.1355   20.8422 C   0  0  0  0  0  0
  -28.5284  -17.8206   20.9997 C   0  0  0  0  0  0
  -30.9622  -16.8122   21.6706 C   0  0  0  0  0  0
  -28.8136  -16.3258   20.6090 C   0  0  0  0  0  0
  -29.6409  -18.8292   20.6186 C   0  0  0  0  0  0
  -31.0130  -24.6826   22.8122 C   0  0  0  0  0  0
  -28.5877  -25.4165   19.3214 C   0  0  0  0  0  0
  -30.1152  -15.7561   21.0555 N   0  0  0  0  0  0
  -29.5706  -20.0384   21.4249 O   0  0  0  0  0  0
  -30.1289  -24.8831   21.7167 O   0  0  0  0  0  0
  -31.4533  -12.4879   19.1425 H   0  0  0  0  0  0
  -30.3288  -11.4051   19.9046 H   0  0  0  0  0  0
  -29.7575  -11.7494   17.4774 H   0  0  0  0  0  0
  -29.6224  -13.4715   17.7361 H   0  0  0  0  0  0
  -27.8631  -11.2753   18.8766 H   0  0  0  0  0  0
  -27.3550  -12.5437   17.7941 H   0  0  0  0  0  0
  -27.6348  -14.2224   19.4677 H   0  0  0  0  0  0
  -28.7070  -12.0885   21.3926 H   0  0  0  0  0  0
  -28.4389  -13.7446   21.8305 H   0  0  0  0  0  0
  -25.2731   -9.5688   22.4785 H   0  0  0  0  0  0
  -23.9984   -7.4621   22.7479 H   0  0  0  0  0  0
  -21.0823   -8.8745   19.8952 H   0  0  0  0  0  0
  -22.3654  -10.9662   19.6187 H   0  0  0  0  0  0
  -21.1997   -7.6146   23.9718 H   0  0  0  0  0  0
  -21.1480   -6.0521   25.9085 H   0  0  0  0  0  0
  -22.0601   -2.7604   23.2851 H   0  0  0  0  0  0
  -22.4035  -11.9893   22.4840 H   0  0  0  0  0  0
  -21.1049  -13.1255   22.2620 H   0  0  0  0  0  0
  -24.6355  -15.8313   20.5026 H   0  0  0  0  0  0
  -26.2505  -15.6276   20.0510 H   0  0  0  0  0  0
  -26.7141  -32.5472   23.1122 H   0  0  0  0  0  0
  -25.0051  -33.9745   25.0435 H   0  0  0  0  0  0
  -22.7042  -31.3035   21.4025 H   0  0  0  0  0  0
  -23.3743  -35.9650   23.3307 H   0  0  0  0  0  0
  -24.3578  -36.8922   22.2050 H   0  0  0  0  0  0
  -23.7245  -37.6520   23.6653 H   0  0  0  0  0  0
  -26.0686  -31.5689   20.5972 H   0  0  0  0  0  0
  -26.8316  -30.8589   21.9906 H   0  0  0  0  0  0
  -28.1034  -29.0314   21.1787 H   0  0  0  0  0  0
  -25.9748  -25.9173   19.0598 H   0  0  0  0  0  0
  -23.9687  -27.2839   19.0446 H   0  0  0  0  0  0
  -23.7367  -30.5894   19.4009 H   0  0  0  0  0  0
  -22.7466  -29.2377   19.8639 H   0  0  0  0  0  0
  -25.1292  -36.1957   25.0824 H   0  0  0  0  0  0
  -20.9966  -28.3228   24.1418 H   0  0  0  0  0  0
  -20.5649  -26.2281   23.3608 H   0  0  0  0  0  0
  -21.6630  -26.7424   22.1204 H   0  0  0  0  0  0
  -19.6898  -25.6288   21.1240 H   0  0  0  0  0  0
  -19.6683  -27.3194   20.6745 H   0  0  0  0  0  0
  -17.4194  -26.6675   21.4020 H   0  0  0  0  0  0
  -18.0319  -26.0051   22.9007 H   0  0  0  0  0  0
  -19.7932  -30.7255   24.2274 H   0  0  0  0  0  0
  -17.5012  -31.6263   24.5156 H   0  0  0  0  0  0
  -15.5348  -30.2985   23.7641 H   0  0  0  0  0  0
  -15.8664  -28.0814   22.7066 H   0  0  0  0  0  0
  -24.5888  -30.7088   25.7798 H   0  0  0  0  0  0
  -24.8945  -32.2885   26.4924 H   0  0  0  0  0  0
  -25.8068  -30.8871   27.0218 H   0  0  0  0  0  0
  -26.2859  -29.6789   24.1170 H   0  0  0  0  0  0
  -27.4033  -29.7259   25.4612 H   0  0  0  0  0  0
  -27.8717  -30.4322   23.9321 H   0  0  0  0  0  0
  -27.2655  -33.3616   26.2074 H   0  0  0  0  0  0
  -28.3852  -32.6883   25.0316 H   0  0  0  0  0  0
  -28.0713  -31.8439   26.5398 H   0  0  0  0  0  0
  -28.2598  -38.0109   24.7508 H   0  0  0  0  0  0
  -28.1080  -36.2641   24.6286 H   0  0  0  0  0  0
  -27.2302  -37.1456   25.8864 H   0  0  0  0  0  0
  -20.9330  -29.8783   21.6949 H   0  0  0  0  0  0
  -26.0181  -38.2865   24.1402 H   0  0  0  0  0  0
  -27.5557  -23.0147   18.4685 H   0  0  0  0  0  0
  -27.9702  -20.7214   19.2578 H   0  0  0  0  0  0
  -30.4207  -22.2445   22.4175 H   0  0  0  0  0  0
  -31.4522  -17.9111   19.8693 H   0  0  0  0  0  0
  -31.7046  -18.8354   21.3120 H   0  0  0  0  0  0
  -28.3777  -17.8639   22.0792 H   0  0  0  0  0  0
  -27.5813  -18.1445   20.5662 H   0  0  0  0  0  0
  -30.5752  -17.0220   22.6691 H   0  0  0  0  0  0
  -31.9825  -16.4627   21.8402 H   0  0  0  0  0  0
  -28.7489  -16.2313   19.5238 H   0  0  0  0  0  0
  -28.0070  -15.7419   21.0406 H   0  0  0  0  0  0
  -29.5612  -19.0771   19.5595 H   0  0  0  0  0  0
  -31.3694  -25.6487   23.1692 H   0  0  0  0  0  0
  -31.8869  -24.0998   22.5175 H   0  0  0  0  0  0
  -30.5143  -24.1903   23.6480 H   0  0  0  0  0  0
  -27.8960  -25.3661   18.4835 H   0  0  0  0  0  0
  -29.5473  -25.5860   18.8322 H   0  0  0  0  0  0
  1 25  1  0  0  0
  1 30  2  0  0  0
  1 84  1  0  0  0
  2  3  1  0  0  0
  2 25  1  0  0  0
  2 87  1  0  0  0
  2 88  1  0  0  0
  3  4  1  0  0  0
  3 89  1  0  0  0
  3 90  1  0  0  0
  4  5  1  0  0  0
  4 91  1  0  0  0
  4 92  1  0  0  0
  5  6  1  0  0  0
  5 26  1  0  0  0
  5 93  1  0  0  0
  6 25  1  0  0  0
  6 94  1  0  0  0
  6 95  1  0  0  0
  7  8  2  0  0  0
  7 26  1  0  0  0
  7 29  1  0  0  0
  8  9  1  0  0  0
  8 22  1  0  0  0
  9 10  1  0  0  0
  9 27  2  0  0  0
 10 11  2  0  0  0
 10 15  1  0  0  0
 11 12  1  0  0  0
 11 96  1  0  0  0
 12 13  2  0  0  0
 12 97  1  0  0  0
 13 14  1  0  0  0
 13 31  1  0  0  0
 14 15  2  0  0  0
 14 98  1  0  0  0
 15 99  1  0  0  0
 16 17  2  0  0  0
 16 21  1  0  0  0
 16 31  1  0  0  0
 17 18  1  0  0  0
 17100  1  0  0  0
 18 19  2  0  0  0
 18101  1  0  0  0
 19 20  1  0  0  0
 19 24  1  0  0  0
 20 21  2  0  0  0
 20102  1  0  0  0
 21 23  1  0  0  0
 22 28  1  0  0  0
 22 32  2  0  0  0
 26 27  1  0  0  0
 28103  1  0  0  0
 28104  1  0  0  0
 29105  1  0  0  0
 29106  1  0  0  0
 33 34  1  0  0  0
 33 66  1  0  0  0
 33 70  2  0  0  0
 34 36  1  0  0  0
 34 59  1  0  0  0
 34107  1  0  0  0
 35 44  2  0  0  0
 35 45  1  0  0  0
 35 68  1  0  0  0
 36 56  1  0  0  0
 36108  1  0  0  0
 37 39  1  0  0  0
 37 47  1  0  0  0
 37 66  1  0  0  0
 37109  1  0  0  0
 38 43  2  0  0  0
 38 46  1  0  0  0
 38 47  1  0  0  0
 39 64  1  0  0  0
 39 67  2  0  0  0
 40 52  1  0  0  0
 40 53  2  0  0  0
 40 58  1  0  0  0
 41110  1  0  0  0
 41111  1  0  0  0
 41112  1  0  0  0
 41 48  1  0  0  0
 42 43  1  0  0  0
 42 66  1  0  0  0
 42113  1  0  0  0
 42114  1  0  0  0
 43 44  1  0  0  0
 44115  1  0  0  0
 45 46  2  0  0  0
 45116  1  0  0  0
 46117  1  0  0  0
 47118  1  0  0  0
 47119  1  0  0  0
 48 56  1  0  0  0
 48 65  1  0  0  0
 48120  1  0  0  0
 49 50  1  0  0  0
 49 53  1  0  0  0
 49 64  1  0  0  0
 49121  1  0  0  0
 50 51  1  0  0  0
 50122  1  0  0  0
 50123  1  0  0  0
 51 52  1  0  0  0
 51124  1  0  0  0
 51125  1  0  0  0
 52126  1  0  0  0
 52127  1  0  0  0
 53 54  1  0  0  0
 54 55  2  0  0  0
 54128  1  0  0  0
 55 57  1  0  0  0
 55129  1  0  0  0
 56 69  2  0  0  0
 57 58  2  0  0  0
 57130  1  0  0  0
 58131  1  0  0  0
 59 60  1  0  0  0
 59 61  1  0  0  0
 59 62  1  0  0  0
 60132  1  0  0  0
 60133  1  0  0  0
 60134  1  0  0  0
 61135  1  0  0  0
 61136  1  0  0  0
 61137  1  0  0  0
 62138  1  0  0  0
 62139  1  0  0  0
 62140  1  0  0  0
 63 65  1  0  0  0
 63141  1  0  0  0
 63142  1  0  0  0
 63143  1  0  0  0
 64144  1  0  0  0
 65145  1  0  0  0
 68 83  1  0  0  0
 71 72  2  0  0  0
 71 74  1  0  0  0
 71146  1  0  0  0
 72 75  1  0  0  0
 72147  1  0  0  0
 73 75  2  0  0  0
 73 76  1  0  0  0
 73148  1  0  0  0
 74 76  2  0  0  0
 74 83  1  0  0  0
 75 85  1  0  0  0
 76 86  1  0  0  0
 77 79  1  0  0  0
 77 81  1  0  0  0
 77149  1  0  0  0
 77150  1  0  0  0
 78 80  1  0  0  0
 78 81  1  0  0  0
 78151  1  0  0  0
 78152  1  0  0  0
 79 84  1  0  0  0
 79153  1  0  0  0
 79154  1  0  0  0
 80 84  1  0  0  0
 80155  1  0  0  0
 80156  1  0  0  0
 81 85  1  0  0  0
 81157  1  0  0  0
 82 86  1  0  0  0
 82158  1  0  0  0
 82159  1  0  0  0
 82160  1  0  0  0
 83161  1  0  0  0
 83162  1  0  0  0
M  ISO  4   1 100  68 101  83 101  84 100
M  END
> <chiral flag>
0

> <version>
0

> <s_m_source_file>
/data/baiqing/PycharmProjects/Reinvent-master-3.2/result/LINK_invent/BTK/process_docking_weight1_custom_sum_contain_oxygen_bond_distance_aromatic_linkinvent_7_9_3/rearranged_h_0155.sdf

> <i_m_source_file_index>
96

> <r_mmod_Potential_Energy-OPLS-2005>
296.669982910156

> <r_mmod_Stretch_Energy-OPLS-2005>
66.9409484863281

> <r_mmod_Bend_Energy-OPLS-2005>
161.870208740234

> <r_mmod_Torsional_Energy-OPLS-2005>
335.290802001953

> <r_mmod_Improper_Torsional_Energy-OPLS-2005>
4.18612861633301

> <r_mmod_Van_der_Waal_Energy-OPLS-2005>
165.810531616211

> <r_mmod_Electrostatic_Energy-OPLS-2005>
-260.872924804688

> <r_mmod_Solvation_Energy-OPLS-2005>
-213.409729003906

> <b_mmod_Minimization_Converged-OPLS-2005>
0

> <r_mmod_RMS_Derivative-OPLS-2005>
1.0431764125824

$$$$
96
                    3D
 Structure written by MMmdl.
162171  0  0  1  0            999 V2000
  -30.7116  -14.4406   20.6304 C   0  0  0  0  0  0
  -30.4245  -12.3124   19.4065 C   0  0  0  0  0  0
  -29.4901  -12.5223   18.1985 C   0  0  0  0  0  0
  -28.0127  -12.3764   18.6149 C   0  0  0  0  0  0
  -27.6642  -13.1999   19.8839 C   0  0  2  0  0  0
  -28.7053  -12.9533   20.9966 C   0  0  0  0  0  0
  -25.2589  -13.8135   20.5655 C   0  0  0  0  0  0
  -24.1832  -13.0424   20.9145 C   0  0  0  0  0  0
  -24.6392  -11.6894   20.8741 C   0  0  0  0  0  0
  -23.9061  -10.4281   21.0415 C   0  0  0  0  0  0
  -24.3607   -9.4198   21.9196 C   0  0  0  0  0  0
  -23.6281   -8.2238   22.0763 C   0  0  0  0  0  0
  -22.4268   -8.0278   21.3545 C   0  0  0  0  0  0
  -21.9907   -9.0255   20.4651 C   0  0  0  0  0  0
  -22.7236  -10.2132   20.3064 C   0  0  0  0  0  0
  -21.6846   -6.0735   22.5279 C   0  0  0  0  0  0
  -21.4010   -6.5637   23.8209 C   0  0  0  0  0  0
  -21.3660   -5.6797   24.9170 C   0  0  0  0  0  0
  -21.6048   -4.3065   24.7220 C   0  0  0  0  0  0
  -21.8819   -3.8147   23.4346 C   0  0  0  0  0  0
  -21.9186   -4.6964   22.3404 C   0  0  0  0  0  0
  -22.7857  -13.5234   21.1808 C   0  0  0  0  0  0
  -22.1651   -4.2154   21.0986 F   0  0  0  0  0  0
  -21.5638   -3.4548   25.7726 F   0  0  0  0  0  0
  -30.0345  -13.2748   20.4487 N   0  0  0  0  0  0
  -26.3036  -12.9301   20.3405 N   0  0  0  0  0  0
  -25.9318  -11.6467   20.5780 N   0  0  0  0  0  0
  -22.0490  -12.8246   22.0369 N   0  0  0  0  0  0
  -25.4333  -15.1841   20.4046 N   0  0  0  0  0  0
  -31.7998  -14.6724   20.0950 O   0  0  0  0  0  0
  -21.6631   -6.8873   21.4239 O   0  0  0  0  0  0
  -22.3550  -14.5551   20.6664 O   0  0  0  0  0  0
  -24.6137  -31.8681   23.2127 C   0  0  0  0  0  0
  -25.9045  -32.4825   23.8400 C   0  0  1  0  0  0
  -27.2408  -27.4454   20.1027 C   0  0  0  0  0  0
  -25.5895  -33.8621   24.2348 N   0  0  0  0  0  0
  -23.4008  -30.4894   21.5534 C   0  0  2  0  0  0
  -24.8499  -28.9525   20.1200 C   0  0  0  0  0  0
  -22.7399  -29.4628   22.5000 C   0  0  0  0  0  0
  -18.0263  -28.1355   22.8474 C   0  0  0  0  0  0
  -24.1488  -36.7306   23.2628 C   0  0  0  0  0  0
  -25.9258  -30.8372   21.3631 C   0  0  0  0  0  0
  -26.0059  -29.4666   20.7223 C   0  0  0  0  0  0
  -27.2024  -28.7167   20.7226 C   0  0  0  0  0  0
  -26.0741  -26.9482   19.4857 C   0  0  0  0  0  0
  -24.8758  -27.6883   19.5028 C   0  0  0  0  0  0
  -23.6105  -29.8189   20.1687 C   0  0  0  0  0  0
  -25.4114  -36.3131   24.0333 C   0  0  1  0  0  0
  -20.5847  -28.3644   23.1304 C   0  0  2  0  0  0
  -20.6763  -26.9375   22.5410 C   0  0  0  0  0  0
  -19.5760  -26.6368   21.5187 C   0  0  0  0  0  0
  -18.1932  -26.7909   22.1582 C   0  0  0  0  0  0
  -19.1505  -28.8811   23.2896 C   0  0  0  0  0  0
  -18.9443  -30.1413   23.8903 C   0  0  0  0  0  0
  -17.6453  -30.6574   24.0537 C   0  0  0  0  0  0
  -25.9026  -34.9478   23.5143 C   0  0  0  0  0  0
  -16.5336  -29.9068   23.6311 C   0  0  0  0  0  0
  -16.7253  -28.6485   23.0329 C   0  0  0  0  0  0
  -26.4479  -31.6593   25.0716 C   0  0  0  0  0  0
  -25.3741  -31.3653   26.1459 C   0  0  0  0  0  0
  -27.0303  -30.3054   24.6029 C   0  0  0  0  0  0
  -27.6075  -32.4292   25.7480 C   0  0  0  0  0  0
  -27.5597  -37.1820   24.8459 C   0  0  0  0  0  0
  -21.4126  -29.3018   22.3741 N   0  0  0  0  0  0
  -26.4306  -37.3822   23.9408 N   0  0  0  0  0  0
  -24.6652  -31.0783   22.1029 N   0  0  0  0  0  0
  -23.4194  -28.8152   23.3009 O   0  0  0  0  0  0
  -28.3896  -26.6941   20.0162 O   0  0  0  0  0  0
  -26.5581  -34.8913   22.4706 O   0  0  0  0  0  0
  -23.5340  -32.1421   23.7540 O   0  0  0  0  0  0
  -30.0608  -19.1427   21.9779 C   0  0  0  0  0  0
  -28.2263  -19.1535   19.8294 C   0  0  0  0  0  0
  -29.4002  -20.3265   21.6006 C   0  0  0  0  0  0
  -28.5036  -20.3280   20.5481 C   0  0  0  0  0  0
  -29.8036  -17.9323   21.2772 C   0  0  0  0  0  0
  -28.8821  -17.9373   20.1805 C   0  0  0  0  0  0
  -29.5250  -21.7030   22.2179 C   0  0  0  0  0  0
  -27.9232  -21.7017   20.3145 C   0  0  0  0  0  0
  -28.4365  -22.5563   21.5051 C   0  0  2  0  0  0
  -27.8415  -16.8035   18.3219 C   0  0  0  0  0  0
  -30.5950  -16.6919   21.7450 C   0  0  0  0  0  0
  -28.9903  -26.2789   21.2451 C   0  0  0  0  0  0
  -28.3963  -24.9468   21.7560 C   0  0  0  0  0  0
  -30.0919  -15.3561   21.3952 N   0  0  0  0  0  0
  -28.6622  -16.7646   19.4865 O   0  0  0  0  0  0
  -28.9267  -23.8230   21.0459 O   0  0  0  0  0  0
  -31.4674  -12.4220   19.1025 H   0  0  0  0  0  0
  -30.3342  -11.2942   19.7876 H   0  0  0  0  0  0
  -29.7292  -11.8081   17.4094 H   0  0  0  0  0  0
  -29.6549  -13.5141   17.7731 H   0  0  0  0  0  0
  -27.8239  -11.3176   18.8001 H   0  0  0  0  0  0
  -27.3591  -12.6619   17.7895 H   0  0  0  0  0  0
  -27.7180  -14.2519   19.6114 H   0  0  0  0  0  0
  -28.6858  -11.9074   21.3060 H   0  0  0  0  0  0
  -28.4587  -13.5224   21.8944 H   0  0  0  0  0  0
  -25.2751   -9.5670   22.4782 H   0  0  0  0  0  0
  -23.9987   -7.4627   22.7488 H   0  0  0  0  0  0
  -21.0840   -8.8780   19.8950 H   0  0  0  0  0  0
  -22.3701  -10.9681   19.6179 H   0  0  0  0  0  0
  -21.2002   -7.6145   23.9710 H   0  0  0  0  0  0
  -21.1489   -6.0529   25.9077 H   0  0  0  0  0  0
  -22.0602   -2.7613   23.2845 H   0  0  0  0  0  0
  -22.4089  -11.9883   22.4743 H   0  0  0  0  0  0
  -21.1115  -13.1282   22.2576 H   0  0  0  0  0  0
  -24.6684  -15.8424   20.5040 H   0  0  0  0  0  0
  -26.3032  -15.6210   20.1308 H   0  0  0  0  0  0
  -26.7119  -32.5543   23.1162 H   0  0  0  0  0  0
  -25.0161  -33.9781   25.0573 H   0  0  0  0  0  0
  -22.6884  -31.3058   21.4166 H   0  0  0  0  0  0
  -23.3760  -35.9629   23.3293 H   0  0  0  0  0  0
  -24.3580  -36.8908   22.2042 H   0  0  0  0  0  0
  -23.7208  -37.6494   23.6633 H   0  0  0  0  0  0
  -26.0291  -31.5981   20.5878 H   0  0  0  0  0  0
  -26.8173  -30.8994   21.9759 H   0  0  0  0  0  0
  -28.0986  -29.1202   21.1728 H   0  0  0  0  0  0
  -26.0949  -25.9860   18.9914 H   0  0  0  0  0  0
  -23.9860  -27.2860   19.0374 H   0  0  0  0  0  0
  -23.7207  -30.5917   19.4077 H   0  0  0  0  0  0
  -22.7341  -29.2389   19.8760 H   0  0  0  0  0  0
  -25.1298  -36.2018   25.0823 H   0  0  0  0  0  0
  -20.9939  -28.3212   24.1423 H   0  0  0  0  0  0
  -20.5638  -26.2244   23.3600 H   0  0  0  0  0  0
  -21.6653  -26.7429   22.1224 H   0  0  0  0  0  0
  -19.6925  -25.6285   21.1207 H   0  0  0  0  0  0
  -19.6692  -27.3175   20.6717 H   0  0  0  0  0  0
  -17.4212  -26.6605   21.3988 H   0  0  0  0  0  0
  -18.0329  -26.0043   22.8961 H   0  0  0  0  0  0
  -19.7921  -30.7218   24.2273 H   0  0  0  0  0  0
  -17.5010  -31.6241   24.5156 H   0  0  0  0  0  0
  -15.5342  -30.2979   23.7650 H   0  0  0  0  0  0
  -15.8639  -28.0828   22.7044 H   0  0  0  0  0  0
  -24.5998  -30.6890   25.7801 H   0  0  0  0  0  0
  -24.8816  -32.2775   26.4853 H   0  0  0  0  0  0
  -25.8131  -30.8906   27.0245 H   0  0  0  0  0  0
  -26.2824  -29.6812   24.1126 H   0  0  0  0  0  0
  -27.4149  -29.7290   25.4446 H   0  0  0  0  0  0
  -27.8625  -30.4386   23.9107 H   0  0  0  0  0  0
  -27.2739  -33.3616   26.2048 H   0  0  0  0  0  0
  -28.3919  -32.6796   25.0321 H   0  0  0  0  0  0
  -28.0694  -31.8386   26.5400 H   0  0  0  0  0  0
  -28.2639  -38.0112   24.7586 H   0  0  0  0  0  0
  -28.1081  -36.2654   24.6237 H   0  0  0  0  0  0
  -27.2294  -37.1427   25.8853 H   0  0  0  0  0  0
  -20.9286  -29.8739   21.6963 H   0  0  0  0  0  0
  -26.0190  -38.2889   24.1453 H   0  0  0  0  0  0
  -30.7644  -19.1615   22.7999 H   0  0  0  0  0  0
  -27.5190  -19.2145   19.0164 H   0  0  0  0  0  0
  -30.5232  -22.1028   22.0351 H   0  0  0  0  0  0
  -29.3650  -21.6650   23.2958 H   0  0  0  0  0  0
  -26.8340  -21.6754   20.2734 H   0  0  0  0  0  0
  -28.2940  -22.0813   19.3622 H   0  0  0  0  0  0
  -27.6017  -22.6756   22.1980 H   0  0  0  0  0  0
  -27.8146  -15.8144   17.8647 H   0  0  0  0  0  0
  -28.2287  -17.4962   17.5742 H   0  0  0  0  0  0
  -26.8144  -17.0795   18.5638 H   0  0  0  0  0  0
  -30.6349  -16.7179   22.8342 H   0  0  0  0  0  0
  -31.6273  -16.8181   21.4166 H   0  0  0  0  0  0
  -30.0649  -26.1685   21.0929 H   0  0  0  0  0  0
  -28.8780  -27.0481   22.0105 H   0  0  0  0  0  0
  -27.3079  -24.9678   21.6862 H   0  0  0  0  0  0
  -28.6457  -24.8340   22.8134 H   0  0  0  0  0  0
  -29.1948  -15.0957   21.7745 H   0  0  0  0  0  0
  1 25  1  0  0  0
  1 30  2  0  0  0
  1 84  1  0  0  0
  2  3  1  0  0  0
  2 25  1  0  0  0
  2 87  1  0  0  0
  2 88  1  0  0  0
  3  4  1  0  0  0
  3 89  1  0  0  0
  3 90  1  0  0  0
  4  5  1  0  0  0
  4 91  1  0  0  0
  4 92  1  0  0  0
  5  6  1  0  0  0
  5 26  1  0  0  0
  5 93  1  0  0  0
  6 25  1  0  0  0
  6 94  1  0  0  0
  6 95  1  0  0  0
  7  8  2  0  0  0
  7 26  1  0  0  0
  7 29  1  0  0  0
  8  9  1  0  0  0
  8 22  1  0  0  0
  9 10  1  0  0  0
  9 27  2  0  0  0
 10 11  2  0  0  0
 10 15  1  0  0  0
 11 12  1  0  0  0
 11 96  1  0  0  0
 12 13  2  0  0  0
 12 97  1  0  0  0
 13 14  1  0  0  0
 13 31  1  0  0  0
 14 15  2  0  0  0
 14 98  1  0  0  0
 15 99  1  0  0  0
 16 17  2  0  0  0
 16 21  1  0  0  0
 16 31  1  0  0  0
 17 18  1  0  0  0
 17100  1  0  0  0
 18 19  2  0  0  0
 18101  1  0  0  0
 19 20  1  0  0  0
 19 24  1  0  0  0
 20 21  2  0  0  0
 20102  1  0  0  0
 21 23  1  0  0  0
 22 28  1  0  0  0
 22 32  2  0  0  0
 26 27  1  0  0  0
 28103  1  0  0  0
 28104  1  0  0  0
 29105  1  0  0  0
 29106  1  0  0  0
 33 34  1  0  0  0
 33 66  1  0  0  0
 33 70  2  0  0  0
 34 36  1  0  0  0
 34 59  1  0  0  0
 34107  1  0  0  0
 35 44  2  0  0  0
 35 45  1  0  0  0
 35 68  1  0  0  0
 36 56  1  0  0  0
 36108  1  0  0  0
 37 39  1  0  0  0
 37 47  1  0  0  0
 37 66  1  0  0  0
 37109  1  0  0  0
 38 43  2  0  0  0
 38 46  1  0  0  0
 38 47  1  0  0  0
 39 64  1  0  0  0
 39 67  2  0  0  0
 40 52  1  0  0  0
 40 53  2  0  0  0
 40 58  1  0  0  0
 41110  1  0  0  0
 41111  1  0  0  0
 41112  1  0  0  0
 41 48  1  0  0  0
 42 43  1  0  0  0
 42 66  1  0  0  0
 42113  1  0  0  0
 42114  1  0  0  0
 43 44  1  0  0  0
 44115  1  0  0  0
 45 46  2  0  0  0
 45116  1  0  0  0
 46117  1  0  0  0
 47118  1  0  0  0
 47119  1  0  0  0
 48 56  1  0  0  0
 48 65  1  0  0  0
 48120  1  0  0  0
 49 50  1  0  0  0
 49 53  1  0  0  0
 49 64  1  0  0  0
 49121  1  0  0  0
 50 51  1  0  0  0
 50122  1  0  0  0
 50123  1  0  0  0
 51 52  1  0  0  0
 51124  1  0  0  0
 51125  1  0  0  0
 52126  1  0  0  0
 52127  1  0  0  0
 53 54  1  0  0  0
 54 55  2  0  0  0
 54128  1  0  0  0
 55 57  1  0  0  0
 55129  1  0  0  0
 56 69  2  0  0  0
 57 58  2  0  0  0
 57130  1  0  0  0
 58131  1  0  0  0
 59 60  1  0  0  0
 59 61  1  0  0  0
 59 62  1  0  0  0
 60132  1  0  0  0
 60133  1  0  0  0
 60134  1  0  0  0
 61135  1  0  0  0
 61136  1  0  0  0
 61137  1  0  0  0
 62138  1  0  0  0
 62139  1  0  0  0
 62140  1  0  0  0
 63 65  1  0  0  0
 63141  1  0  0  0
 63142  1  0  0  0
 63143  1  0  0  0
 64144  1  0  0  0
 65145  1  0  0  0
 68 82  1  0  0  0
 71 73  2  0  0  0
 71 75  1  0  0  0
 71146  1  0  0  0
 72 74  2  0  0  0
 72 76  1  0  0  0
 72147  1  0  0  0
 73 74  1  0  0  0
 73 77  1  0  0  0
 74 78  1  0  0  0
 75 76  2  0  0  0
 75 81  1  0  0  0
 76 85  1  0  0  0
 77 79  1  0  0  0
 77148  1  0  0  0
 77149  1  0  0  0
 78 79  1  0  0  0
 78150  1  0  0  0
 78151  1  0  0  0
 79 86  1  0  0  0
 79152  1  0  0  0
 80 85  1  0  0  0
 80153  1  0  0  0
 80154  1  0  0  0
 80155  1  0  0  0
 81 84  1  0  0  0
 81156  1  0  0  0
 81157  1  0  0  0
 82 83  1  0  0  0
 82158  1  0  0  0
 82159  1  0  0  0
 83 86  1  0  0  0
 83160  1  0  0  0
 83161  1  0  0  0
 84162  1  0  0  0
M  ISO  4   1 100  68 101  82 101  84 100
M  END
> <chiral flag>
0

> <version>
0

> <s_m_source_file>
/data/baiqing/PycharmProjects/Reinvent-master-3.2/result/LINK_invent/BTK/process_docking_weight1_custom_sum_contain_oxygen_bond_distance_aromatic_linkinvent_7_9_3/rearranged_h_0155.sdf

> <i_m_source_file_index>
97

> <r_mmod_Potential_Energy-OPLS-2005>
-46.8111457824707

> <r_mmod_Stretch_Energy-OPLS-2005>
40.7995948791504

> <r_mmod_Bend_Energy-OPLS-2005>
141.103546142578

> <r_mmod_Torsional_Energy-OPLS-2005>
220.847763061523

> <r_mmod_Improper_Torsional_Energy-OPLS-2005>
1.95694267749786

> <r_mmod_Van_der_Waal_Energy-OPLS-2005>
146.522155761719

> <r_mmod_Electrostatic_Energy-OPLS-2005>
-390.386444091797

> <r_mmod_Solvation_Energy-OPLS-2005>
-216.190002441406

> <b_mmod_Minimization_Converged-OPLS-2005>
0

> <r_mmod_RMS_Derivative-OPLS-2005>
2.68949818611145

$$$$
97
                    3D
 Structure written by MMmdl.
169179  0  0  1  0            999 V2000
  -30.7193  -14.4567   20.5640 C   0  0  0  0  0  0
  -30.4185  -12.2951   19.4240 C   0  0  0  0  0  0
  -29.4919  -12.4979   18.2085 C   0  0  0  0  0  0
  -28.0134  -12.3598   18.6217 C   0  0  0  0  0  0
  -27.6603  -13.1989   19.8784 C   0  0  2  0  0  0
  -28.7054  -12.9980   20.9999 C   0  0  0  0  0  0
  -25.2602  -13.8140   20.5716 C   0  0  0  0  0  0
  -24.1843  -13.0429   20.9183 C   0  0  0  0  0  0
  -24.6384  -11.6893   20.8744 C   0  0  0  0  0  0
  -23.9045  -10.4293   21.0416 C   0  0  0  0  0  0
  -24.3598   -9.4211   21.9188 C   0  0  0  0  0  0
  -23.6281   -8.2240   22.0754 C   0  0  0  0  0  0
  -22.4263   -8.0281   21.3543 C   0  0  0  0  0  0
  -21.9901   -9.0256   20.4647 C   0  0  0  0  0  0
  -22.7222  -10.2138   20.3063 C   0  0  0  0  0  0
  -21.6853   -6.0736   22.5280 C   0  0  0  0  0  0
  -21.4014   -6.5640   23.8212 C   0  0  0  0  0  0
  -21.3661   -5.6793   24.9175 C   0  0  0  0  0  0
  -21.6044   -4.3055   24.7225 C   0  0  0  0  0  0
  -21.8820   -3.8149   23.4348 C   0  0  0  0  0  0
  -21.9193   -4.6964   22.3402 C   0  0  0  0  0  0
  -22.7870  -13.5233   21.1847 C   0  0  0  0  0  0
  -22.1656   -4.2148   21.0978 F   0  0  0  0  0  0
  -21.5632   -3.4540   25.7737 F   0  0  0  0  0  0
  -30.0359  -13.2870   20.4388 N   0  0  0  0  0  0
  -26.3028  -12.9290   20.3419 N   0  0  0  0  0  0
  -25.9315  -11.6457   20.5811 N   0  0  0  0  0  0
  -22.0503  -12.8229   22.0397 N   0  0  0  0  0  0
  -25.4340  -15.1862   20.4150 N   0  0  0  0  0  0
  -31.8576  -14.6223   20.1165 O   0  0  0  0  0  0
  -21.6631   -6.8879   21.4243 O   0  0  0  0  0  0
  -22.3561  -14.5551   20.6715 O   0  0  0  0  0  0
  -24.6131  -31.8692   23.2114 C   0  0  0  0  0  0
  -25.9032  -32.4831   23.8398 C   0  0  1  0  0  0
  -27.2379  -27.4488   20.0809 C   0  0  0  0  0  0
  -25.5901  -33.8629   24.2332 N   0  0  0  0  0  0
  -23.3996  -30.4933   21.5517 C   0  0  2  0  0  0
  -24.8442  -28.9604   20.1148 C   0  0  0  0  0  0
  -22.7398  -29.4667   22.4998 C   0  0  0  0  0  0
  -18.0271  -28.1370   22.8499 C   0  0  0  0  0  0
  -24.1487  -36.7319   23.2629 C   0  0  0  0  0  0
  -25.9272  -30.8372   21.3632 C   0  0  0  0  0  0
  -26.0030  -29.4720   20.7109 C   0  0  0  0  0  0
  -27.1972  -28.7192   20.6987 C   0  0  0  0  0  0
  -26.0503  -26.9368   19.5075 C   0  0  0  0  0  0
  -24.8613  -27.6900   19.5159 C   0  0  0  0  0  0
  -23.6063  -29.8258   20.1655 C   0  0  0  0  0  0
  -25.4104  -36.3118   24.0337 C   0  0  1  0  0  0
  -20.5860  -28.3656   23.1326 C   0  0  2  0  0  0
  -20.6765  -26.9397   22.5416 C   0  0  0  0  0  0
  -19.5743  -26.6382   21.5212 C   0  0  0  0  0  0
  -18.1921  -26.7919   22.1624 C   0  0  0  0  0  0
  -19.1520  -28.8831   23.2910 C   0  0  0  0  0  0
  -18.9449  -30.1441   23.8913 C   0  0  0  0  0  0
  -17.6453  -30.6581   24.0566 C   0  0  0  0  0  0
  -25.9037  -34.9482   23.5130 C   0  0  0  0  0  0
  -16.5344  -29.9082   23.6328 C   0  0  0  0  0  0
  -16.7263  -28.6498   23.0354 C   0  0  0  0  0  0
  -26.4465  -31.6606   25.0719 C   0  0  0  0  0  0
  -25.3741  -31.3719   26.1479 C   0  0  0  0  0  0
  -27.0282  -30.3049   24.6081 C   0  0  0  0  0  0
  -27.6050  -32.4316   25.7477 C   0  0  0  0  0  0
  -27.5603  -37.1788   24.8441 C   0  0  0  0  0  0
  -21.4129  -29.3028   22.3735 N   0  0  0  0  0  0
  -26.4283  -37.3815   23.9434 N   0  0  0  0  0  0
  -24.6650  -31.0802   22.1011 N   0  0  0  0  0  0
  -23.4178  -28.8207   23.3033 O   0  0  0  0  0  0
  -28.4271  -26.7499   20.1089 O   0  0  0  0  0  0
  -26.5596  -34.8933   22.4691 O   0  0  0  0  0  0
  -23.5328  -32.1437   23.7521 O   0  0  0  0  0  0
  -30.7833  -23.1510   20.9197 C   0  0  0  0  0  0
  -30.2075  -24.3957   20.6031 C   0  0  0  0  0  0
  -29.3195  -22.1586   19.2824 C   0  0  0  0  0  0
  -30.3669  -21.9987   20.2142 C   0  0  0  0  0  0
  -29.2244  -24.4617   19.5983 C   0  0  0  0  0  0
  -33.0144  -20.6114   21.8463 C   0  0  0  0  0  0
  -32.6299  -20.8140   20.3799 C   0  0  0  0  0  0
  -29.4606  -17.9587   20.3573 C   0  0  0  0  0  0
  -30.6928  -17.4142   22.4619 C   0  0  0  0  0  0
  -29.6065  -16.5076   19.8539 C   0  0  0  0  0  0
  -29.9699  -16.0471   22.2838 C   0  0  0  0  0  0
  -31.7148  -20.2184   22.5605 C   0  0  0  0  0  0
  -31.1008  -20.6487   20.3219 C   0  0  1  0  0  0
  -30.6806  -18.3464   21.2154 C   0  0  0  0  0  0
  -28.7273  -25.8076   19.0727 C   0  0  0  0  0  0
  -28.7610  -23.3526   18.9792 N   0  0  0  0  0  0
  -29.9700  -15.5333   20.9046 N   0  0  0  0  0  0
  -30.7366  -19.8228   21.5125 N   0  3  1  0  0  0
  -31.4624  -12.3848   19.1214 H   0  0  0  0  0  0
  -30.3102  -11.2869   19.8267 H   0  0  0  0  0  0
  -29.7297  -11.7733   17.4287 H   0  0  0  0  0  0
  -29.6625  -13.4834   17.7726 H   0  0  0  0  0  0
  -27.8232  -11.3045   18.8164 H   0  0  0  0  0  0
  -27.3644  -12.6360   17.7898 H   0  0  0  0  0  0
  -27.6928  -14.2414   19.5734 H   0  0  0  0  0  0
  -28.6775  -11.9716   21.3690 H   0  0  0  0  0  0
  -28.4750  -13.6286   21.8600 H   0  0  0  0  0  0
  -25.2746   -9.5683   22.4758 H   0  0  0  0  0  0
  -23.9995   -7.4627   22.7473 H   0  0  0  0  0  0
  -21.0836   -8.8783   19.8940 H   0  0  0  0  0  0
  -22.3694  -10.9679   19.6171 H   0  0  0  0  0  0
  -21.2002   -7.6147   23.9715 H   0  0  0  0  0  0
  -21.1481   -6.0523   25.9075 H   0  0  0  0  0  0
  -22.0595   -2.7612   23.2856 H   0  0  0  0  0  0
  -22.4111  -11.9874   22.4760 H   0  0  0  0  0  0
  -21.1127  -13.1276   22.2609 H   0  0  0  0  0  0
  -24.6753  -15.8486   20.5348 H   0  0  0  0  0  0
  -26.3034  -15.6244   20.1395 H   0  0  0  0  0  0
  -26.7103  -32.5544   23.1162 H   0  0  0  0  0  0
  -25.0068  -33.9792   25.0488 H   0  0  0  0  0  0
  -22.6883  -31.3103   21.4137 H   0  0  0  0  0  0
  -23.3771  -35.9625   23.3234 H   0  0  0  0  0  0
  -24.3604  -36.8993   22.2057 H   0  0  0  0  0  0
  -23.7197  -37.6490   23.6677 H   0  0  0  0  0  0
  -26.0364  -31.6033   20.5941 H   0  0  0  0  0  0
  -26.8170  -30.8909   21.9791 H   0  0  0  0  0  0
  -28.0931  -29.1125   21.1589 H   0  0  0  0  0  0
  -26.0069  -25.9493   19.0729 H   0  0  0  0  0  0
  -23.9642  -27.2818   19.0708 H   0  0  0  0  0  0
  -23.7131  -30.6003   19.4053 H   0  0  0  0  0  0
  -22.7304  -29.2445   19.8717 H   0  0  0  0  0  0
  -25.1266  -36.1976   25.0826 H   0  0  0  0  0  0
  -20.9953  -28.3215   24.1446 H   0  0  0  0  0  0
  -20.5680  -26.2256   23.3594 H   0  0  0  0  0  0
  -21.6635  -26.7449   22.1202 H   0  0  0  0  0  0
  -19.6907  -25.6296   21.1232 H   0  0  0  0  0  0
  -19.6686  -27.3201   20.6750 H   0  0  0  0  0  0
  -17.4193  -26.6679   21.4023 H   0  0  0  0  0  0
  -18.0322  -26.0049   22.9007 H   0  0  0  0  0  0
  -19.7924  -30.7256   24.2286 H   0  0  0  0  0  0
  -17.5006  -31.6265   24.5162 H   0  0  0  0  0  0
  -15.5345  -30.2992   23.7642 H   0  0  0  0  0  0
  -15.8662  -28.0825   22.7061 H   0  0  0  0  0  0
  -24.5880  -30.7108   25.7816 H   0  0  0  0  0  0
  -24.8976  -32.2884   26.4969 H   0  0  0  0  0  0
  -25.8096  -30.8846   27.0211 H   0  0  0  0  0  0
  -26.2812  -29.6824   24.1142 H   0  0  0  0  0  0
  -27.4061  -29.7274   25.4528 H   0  0  0  0  0  0
  -27.8645  -30.4367   23.9212 H   0  0  0  0  0  0
  -27.2677  -33.3606   26.2086 H   0  0  0  0  0  0
  -28.3845  -32.6893   25.0295 H   0  0  0  0  0  0
  -28.0731  -31.8416   26.5367 H   0  0  0  0  0  0
  -28.2536  -38.0171   24.7632 H   0  0  0  0  0  0
  -28.1185  -36.2715   24.6079 H   0  0  0  0  0  0
  -27.2346  -37.1209   25.8843 H   0  0  0  0  0  0
  -20.9282  -29.8749   21.6962 H   0  0  0  0  0  0
  -26.0168  -38.2873   24.1520 H   0  0  0  0  0  0
  -31.5795  -23.1055   21.6475 H   0  0  0  0  0  0
  -30.5571  -25.3004   21.0824 H   0  0  0  0  0  0
  -28.9556  -21.3163   18.7117 H   0  0  0  0  0  0
  -33.4455  -21.5135   22.2830 H   0  0  0  0  0  0
  -33.7586  -19.8191   21.9351 H   0  0  0  0  0  0
  -33.0982  -20.0259   19.7882 H   0  0  0  0  0  0
  -32.9808  -21.7597   19.9659 H   0  0  0  0  0  0
  -28.5444  -18.0649   20.9410 H   0  0  0  0  0  0
  -29.3347  -18.6083   19.4925 H   0  0  0  0  0  0
  -31.7304  -17.2316   22.7471 H   0  0  0  0  0  0
  -30.2267  -17.9104   23.3141 H   0  0  0  0  0  0
  -30.3592  -16.4952   19.0611 H   0  0  0  0  0  0
  -28.6796  -16.1995   19.3750 H   0  0  0  0  0  0
  -30.3886  -15.3145   22.9778 H   0  0  0  0  0  0
  -28.9256  -16.1551   22.5773 H   0  0  0  0  0  0
  -31.3103  -21.0956   23.0654 H   0  0  0  0  0  0
  -31.8921  -19.4880   23.3472 H   0  0  0  0  0  0
  -30.8742  -20.1180   19.3975 H   0  0  0  0  0  0
  -31.5776  -18.1060   20.6401 H   0  0  0  0  0  0
  -27.9376  -25.6594   18.3388 H   0  0  0  0  0  0
  -29.5482  -26.2378   18.4987 H   0  0  0  0  0  0
  -29.8181  -20.0865   21.8373 H   0  0  0  0  0  0
  1 25  1  0  0  0
  1 30  2  0  0  0
  1 87  1  0  0  0
  2  3  1  0  0  0
  2 25  1  0  0  0
  2 89  1  0  0  0
  2 90  1  0  0  0
  3  4  1  0  0  0
  3 91  1  0  0  0
  3 92  1  0  0  0
  4  5  1  0  0  0
  4 93  1  0  0  0
  4 94  1  0  0  0
  5  6  1  0  0  0
  5 26  1  0  0  0
  5 95  1  0  0  0
  6 25  1  0  0  0
  6 96  1  0  0  0
  6 97  1  0  0  0
  7  8  2  0  0  0
  7 26  1  0  0  0
  7 29  1  0  0  0
  8  9  1  0  0  0
  8 22  1  0  0  0
  9 10  1  0  0  0
  9 27  2  0  0  0
 10 11  2  0  0  0
 10 15  1  0  0  0
 11 12  1  0  0  0
 11 98  1  0  0  0
 12 13  2  0  0  0
 12 99  1  0  0  0
 13 14  1  0  0  0
 13 31  1  0  0  0
 14 15  2  0  0  0
 14100  1  0  0  0
 15101  1  0  0  0
 16 17  2  0  0  0
 16 21  1  0  0  0
 16 31  1  0  0  0
 17 18  1  0  0  0
 17102  1  0  0  0
 18 19  2  0  0  0
 18103  1  0  0  0
 19 20  1  0  0  0
 19 24  1  0  0  0
 20 21  2  0  0  0
 20104  1  0  0  0
 21 23  1  0  0  0
 22 28  1  0  0  0
 22 32  2  0  0  0
 26 27  1  0  0  0
 28105  1  0  0  0
 28106  1  0  0  0
 29107  1  0  0  0
 29108  1  0  0  0
 33 34  1  0  0  0
 33 66  1  0  0  0
 33 70  2  0  0  0
 34 36  1  0  0  0
 34 59  1  0  0  0
 34109  1  0  0  0
 35 44  2  0  0  0
 35 45  1  0  0  0
 35 68  1  0  0  0
 36 56  1  0  0  0
 36110  1  0  0  0
 37 39  1  0  0  0
 37 47  1  0  0  0
 37 66  1  0  0  0
 37111  1  0  0  0
 38 43  2  0  0  0
 38 46  1  0  0  0
 38 47  1  0  0  0
 39 64  1  0  0  0
 39 67  2  0  0  0
 40 52  1  0  0  0
 40 53  2  0  0  0
 40 58  1  0  0  0
 41112  1  0  0  0
 41113  1  0  0  0
 41114  1  0  0  0
 41 48  1  0  0  0
 42 43  1  0  0  0
 42 66  1  0  0  0
 42115  1  0  0  0
 42116  1  0  0  0
 43 44  1  0  0  0
 44117  1  0  0  0
 45 46  2  0  0  0
 45118  1  0  0  0
 46119  1  0  0  0
 47120  1  0  0  0
 47121  1  0  0  0
 48 56  1  0  0  0
 48 65  1  0  0  0
 48122  1  0  0  0
 49 50  1  0  0  0
 49 53  1  0  0  0
 49 64  1  0  0  0
 49123  1  0  0  0
 50 51  1  0  0  0
 50124  1  0  0  0
 50125  1  0  0  0
 51 52  1  0  0  0
 51126  1  0  0  0
 51127  1  0  0  0
 52128  1  0  0  0
 52129  1  0  0  0
 53 54  1  0  0  0
 54 55  2  0  0  0
 54130  1  0  0  0
 55 57  1  0  0  0
 55131  1  0  0  0
 56 69  2  0  0  0
 57 58  2  0  0  0
 57132  1  0  0  0
 58133  1  0  0  0
 59 60  1  0  0  0
 59 61  1  0  0  0
 59 62  1  0  0  0
 60134  1  0  0  0
 60135  1  0  0  0
 60136  1  0  0  0
 61137  1  0  0  0
 61138  1  0  0  0
 61139  1  0  0  0
 62140  1  0  0  0
 62141  1  0  0  0
 62142  1  0  0  0
 63 65  1  0  0  0
 63143  1  0  0  0
 63144  1  0  0  0
 63145  1  0  0  0
 64146  1  0  0  0
 65147  1  0  0  0
 68 85  1  0  0  0
 71 72  2  0  0  0
 71 74  1  0  0  0
 71148  1  0  0  0
 72 75  1  0  0  0
 72149  1  0  0  0
 73 74  2  0  0  0
 73 86  1  0  0  0
 73150  1  0  0  0
 74 83  1  0  0  0
 75 85  1  0  0  0
 75 86  2  0  0  0
 76 77  1  0  0  0
 76 82  1  0  0  0
 76151  1  0  0  0
 76152  1  0  0  0
 77 83  1  0  0  0
 77153  1  0  0  0
 77154  1  0  0  0
 78 80  1  0  0  0
 78155  1  0  0  0
 78156  1  0  0  0
 78 84  1  0  0  0
 79 81  1  0  0  0
 79 84  1  0  0  0
 79157  1  0  0  0
 79158  1  0  0  0
 80 87  1  0  0  0
 80159  1  0  0  0
 80160  1  0  0  0
 81 87  1  0  0  0
 81161  1  0  0  0
 81162  1  0  0  0
 82163  1  0  0  0
 82164  1  0  0  0
 82 88  1  0  0  0
 83 88  1  0  0  0
 83165  1  0  0  0
 84 88  1  0  0  0
 84166  1  0  0  0
 85167  1  0  0  0
 85168  1  0  0  0
 88169  1  0  0  0
M  CHG  1  88   1
M  ISO  4   1 100  68 101  85 101  87 100
M  END
> <chiral flag>
0

> <version>
0

> <s_m_source_file>
/data/baiqing/PycharmProjects/Reinvent-master-3.2/result/LINK_invent/BTK/process_docking_weight1_custom_sum_contain_oxygen_bond_distance_aromatic_linkinvent_7_9_3/rearranged_h_0155.sdf

> <i_m_source_file_index>
98

> <r_mmod_Potential_Energy-OPLS-2005>
122.493621826172

> <r_mmod_Stretch_Energy-OPLS-2005>
41.2155876159668

> <r_mmod_Bend_Energy-OPLS-2005>
131.688232421875

> <r_mmod_Torsional_Energy-OPLS-2005>
432.674774169922

> <r_mmod_Improper_Torsional_Energy-OPLS-2005>
10.3683376312256

> <r_mmod_Van_der_Waal_Energy-OPLS-2005>
164.720809936523

> <r_mmod_Electrostatic_Energy-OPLS-2005>
-244.938110351562

> <r_mmod_Solvation_Energy-OPLS-2005>
-425.91015625

> <b_mmod_Minimization_Converged-OPLS-2005>
0

> <r_mmod_RMS_Derivative-OPLS-2005>
1.26313960552216

$$$$
