0
                    3D
 Structure written by MMmdl.
158166  0  0  1  0            999 V2000
  -30.4832  -15.0274   20.4138 C   0  0  0  0  0  0
  -30.4491  -12.6399   19.5042 C   0  0  0  0  0  0
  -29.5219  -12.5482   18.2650 C   0  0  0  0  0  0
  -28.0607  -12.3120   18.6854 C   0  0  0  0  0  0
  -27.6316  -13.2469   19.8436 C   0  0  2  0  0  0
  -28.6745  -13.2788   20.9816 C   0  0  0  0  0  0
  -25.2448  -13.8208   20.5700 C   0  0  0  0  0  0
  -24.1765  -13.0437   20.9240 C   0  0  0  0  0  0
  -24.6391  -11.6921   20.8747 C   0  0  0  0  0  0
  -23.9068  -10.4295   21.0412 C   0  0  0  0  0  0
  -24.3613   -9.4197   21.9191 C   0  0  0  0  0  0
  -23.6285   -8.2224   22.0743 C   0  0  0  0  0  0
  -22.4269   -8.0269   21.3531 C   0  0  0  0  0  0
  -21.9915   -9.0248   20.4632 C   0  0  0  0  0  0
  -22.7239  -10.2134   20.3060 C   0  0  0  0  0  0
  -21.6839   -6.0729   22.5291 C   0  0  0  0  0  0
  -21.4006   -6.5638   23.8212 C   0  0  0  0  0  0
  -21.3664   -5.6784   24.9175 C   0  0  0  0  0  0
  -21.6050   -4.3054   24.7224 C   0  0  0  0  0  0
  -21.8812   -3.8149   23.4343 C   0  0  0  0  0  0
  -21.9179   -4.6964   22.3397 C   0  0  0  0  0  0
  -22.7784  -13.5213   21.1879 C   0  0  0  0  0  0
  -22.1655   -4.2156   21.0980 F   0  0  0  0  0  0
  -21.5621   -3.4526   25.7740 F   0  0  0  0  0  0
  -29.9445  -13.7307   20.3943 N   0  0  0  0  0  0
  -26.2885  -12.9436   20.3268 N   0  0  0  0  0  0
  -25.9324  -11.6589   20.5746 N   0  0  0  0  0  0
  -22.0439  -12.8206   22.0441 N   0  0  0  0  0  0
  -25.4111  -15.1925   20.4092 N   0  0  0  0  0  0
  -31.6653  -15.1333   20.0705 O   0  0  0  0  0  0
  -21.6625   -6.8882   21.4257 O   0  0  0  0  0  0
  -22.3487  -14.5507   20.6712 O   0  0  0  0  0  0
  -24.6466  -31.8375   23.1833 C   0  0  0  0  0  0
  -25.9216  -32.4672   23.8231 C   0  0  1  0  0  0
  -27.2236  -27.0847   20.1804 C   0  0  0  0  0  0
  -25.5957  -33.8485   24.2148 N   0  0  0  0  0  0
  -23.4536  -30.4537   21.5296 C   0  0  2  0  0  0
  -24.9077  -28.8665   20.1183 C   0  0  0  0  0  0
  -22.7582  -29.4506   22.4846 C   0  0  0  0  0  0
  -18.0295  -28.1400   22.8460 C   0  0  0  0  0  0
  -24.1492  -36.7257   23.2641 C   0  0  0  0  0  0
  -26.0111  -30.6999   21.3876 C   0  0  0  0  0  0
  -26.0862  -29.3035   20.7371 C   0  0  0  0  0  0
  -27.2461  -28.4311   20.7432 C   0  0  0  0  0  0
  -26.0186  -26.7600   19.5213 C   0  0  0  0  0  0
  -24.8893  -27.6109   19.4917 C   0  0  0  0  0  0
  -23.6863  -29.7750   20.1530 C   0  0  0  0  0  0
  -25.4124  -36.3021   24.0305 C   0  0  1  0  0  0
  -20.5909  -28.3735   23.1240 C   0  0  2  0  0  0
  -20.6773  -26.9430   22.5425 C   0  0  0  0  0  0
  -19.5774  -26.6389   21.5201 C   0  0  0  0  0  0
  -18.1940  -26.7939   22.1591 C   0  0  0  0  0  0
  -19.1542  -28.8880   23.2846 C   0  0  0  0  0  0
  -18.9465  -30.1459   23.8889 C   0  0  0  0  0  0
  -17.6455  -30.6582   24.0563 C   0  0  0  0  0  0
  -25.9078  -34.9398   23.5039 C   0  0  0  0  0  0
  -16.5346  -29.9071   23.6330 C   0  0  0  0  0  0
  -16.7280  -28.6492   23.0347 C   0  0  0  0  0  0
  -26.4521  -31.6556   25.0686 C   0  0  0  0  0  0
  -25.3681  -31.3780   26.1364 C   0  0  0  0  0  0
  -27.0390  -30.2939   24.6316 C   0  0  0  0  0  0
  -27.6048  -32.4325   25.7483 C   0  0  0  0  0  0
  -27.5571  -37.1780   24.8461 C   0  0  0  0  0  0
  -21.4259  -29.3062   22.3614 N   0  0  0  0  0  0
  -26.4283  -37.3741   23.9400 N   0  0  0  0  0  0
  -24.7242  -31.0204   22.0883 N   0  0  0  0  0  0
  -23.4185  -28.8047   23.3024 O   0  0  0  0  0  0
  -28.2743  -26.0795   20.2076 O   0  0  0  0  0  0
  -26.5678  -34.8902   22.4618 O   0  0  0  0  0  0
  -23.5579  -32.1279   23.7013 O   0  0  0  0  0  0
  -28.1528  -17.9983   19.7353 C   0  0  0  0  0  0
  -29.8672  -18.9303   20.7493 C   0  0  0  0  0  0
  -29.3854  -17.6397   20.3620 C   0  0  0  0  0  0
  -27.8788  -19.3556   19.8480 C   0  0  0  0  0  0
  -25.5609  -19.7429   20.7290 C   0  0  0  0  0  0
  -25.9389  -19.6071   18.2370 C   0  0  0  0  0  0
  -28.9410  -21.6089   20.8876 C   0  0  0  0  0  0
  -28.0289  -24.5526   20.5537 C   0  0  0  0  0  0
  -26.5507  -20.0190   19.5830 C   0  0  0  0  0  0
  -28.7974  -23.1000   20.0210 C   0  0  2  0  0  0
  -28.9583  -20.0527   20.4239 N   0  0  0  0  0  0
  -29.6550  -16.1526   20.7491 N   0  0  0  0  0  0
  -28.2810  -22.8335   18.7263 O   0  0  0  0  0  0
  -31.4750  -12.8235   19.1825 H   0  0  0  0  0  0
  -30.4729  -11.6919   20.0452 H   0  0  0  0  0  0
  -29.8558  -11.7520   17.5997 H   0  0  0  0  0  0
  -29.5818  -13.4770   17.6943 H   0  0  0  0  0  0
  -27.9755  -11.2691   18.9969 H   0  0  0  0  0  0
  -27.3927  -12.4300   17.8314 H   0  0  0  0  0  0
  -27.5931  -14.2459   19.4111 H   0  0  0  0  0  0
  -28.7799  -12.2923   21.4366 H   0  0  0  0  0  0
  -28.3512  -13.9514   21.7755 H   0  0  0  0  0  0
  -25.2770   -9.5656   22.4774 H   0  0  0  0  0  0
  -23.9980   -7.4615   22.7470 H   0  0  0  0  0  0
  -21.0835   -8.8770   19.8946 H   0  0  0  0  0  0
  -22.3699  -10.9665   19.6165 H   0  0  0  0  0  0
  -21.2003   -7.6146   23.9732 H   0  0  0  0  0  0
  -21.1501   -6.0512   25.9083 H   0  0  0  0  0  0
  -22.0587   -2.7615   23.2837 H   0  0  0  0  0  0
  -22.4050  -11.9882   22.4845 H   0  0  0  0  0  0
  -21.1054  -13.1240   22.2659 H   0  0  0  0  0  0
  -24.6350  -15.8381   20.5132 H   0  0  0  0  0  0
  -26.2437  -15.6296   20.0394 H   0  0  0  0  0  0
  -26.7285  -32.5275   23.0969 H   0  0  0  0  0  0
  -25.0070  -33.9586   25.0277 H   0  0  0  0  0  0
  -22.7580  -31.2796   21.3679 H   0  0  0  0  0  0
  -23.3751  -35.9592   23.3285 H   0  0  0  0  0  0
  -24.3584  -36.8910   22.2060 H   0  0  0  0  0  0
  -23.7245  -37.6446   23.6693 H   0  0  0  0  0  0
  -26.1671  -31.4457   20.6079 H   0  0  0  0  0  0
  -26.8812  -30.7605   22.0289 H   0  0  0  0  0  0
  -28.1465  -28.7651   21.2384 H   0  0  0  0  0  0
  -25.9333  -25.8009   19.0339 H   0  0  0  0  0  0
  -23.9913  -27.2739   18.9913 H   0  0  0  0  0  0
  -23.8306  -30.5459   19.3955 H   0  0  0  0  0  0
  -22.8009  -29.2195   19.8376 H   0  0  0  0  0  0
  -25.1317  -36.1837   25.0800 H   0  0  0  0  0  0
  -20.9987  -28.3338   24.1371 H   0  0  0  0  0  0
  -20.5625  -26.2354   23.3648 H   0  0  0  0  0  0
  -21.6653  -26.7412   22.1268 H   0  0  0  0  0  0
  -19.6940  -25.6294   21.1238 H   0  0  0  0  0  0
  -19.6726  -27.3195   20.6727 H   0  0  0  0  0  0
  -17.4225  -26.6694   21.3977 H   0  0  0  0  0  0
  -18.0333  -26.0075   22.8983 H   0  0  0  0  0  0
  -19.7933  -30.7267   24.2284 H   0  0  0  0  0  0
  -17.5004  -31.6264   24.5154 H   0  0  0  0  0  0
  -15.5346  -30.2965   23.7653 H   0  0  0  0  0  0
  -15.8683  -28.0799   22.7080 H   0  0  0  0  0  0
  -24.5883  -30.7115   25.7670 H   0  0  0  0  0  0
  -24.8850  -32.2981   26.4667 H   0  0  0  0  0  0
  -25.7931  -30.9025   27.0212 H   0  0  0  0  0  0
  -26.3018  -29.6658   24.1310 H   0  0  0  0  0  0
  -27.3957  -29.7259   25.4916 H   0  0  0  0  0  0
  -27.8949  -30.4151   23.9674 H   0  0  0  0  0  0
  -27.2643  -33.3653   26.1997 H   0  0  0  0  0  0
  -28.3904  -32.6835   25.0340 H   0  0  0  0  0  0
  -28.0676  -31.8487   26.5455 H   0  0  0  0  0  0
  -28.2574  -38.0090   24.7503 H   0  0  0  0  0  0
  -28.1073  -36.2609   24.6283 H   0  0  0  0  0  0
  -27.2293  -37.1439   25.8869 H   0  0  0  0  0  0
  -20.9445  -29.8803   21.6833 H   0  0  0  0  0  0
  -26.0142  -38.2805   24.1406 H   0  0  0  0  0  0
  -27.4307  -17.2942   19.3442 H   0  0  0  0  0  0
  -30.7486  -19.1534   21.3361 H   0  0  0  0  0  0
  -25.9465  -20.0998   21.6849 H   0  0  0  0  0  0
  -25.3613  -18.6760   20.8359 H   0  0  0  0  0  0
  -24.6034  -20.2364   20.5585 H   0  0  0  0  0  0
  -26.6353  -19.7920   17.4194 H   0  0  0  0  0  0
  -25.0302  -20.1736   18.0313 H   0  0  0  0  0  0
  -25.6732  -18.5497   18.2200 H   0  0  0  0  0  0
  -28.1472  -21.6478   21.6333 H   0  0  0  0  0  0
  -29.8396  -21.7243   21.4946 H   0  0  0  0  0  0
  -28.2098  -24.5519   21.6296 H   0  0  0  0  0  0
  -26.9568  -24.3753   20.4828 H   0  0  0  0  0  0
  -26.6790  -21.0959   19.5549 H   0  0  0  0  0  0
  -29.8359  -23.3885   19.8579 H   0  0  0  0  0  0
  -28.8047  -15.7449   21.1141 H   0  0  0  0  0  0
  -27.3360  -22.7626   18.7975 H   0  0  0  0  0  0
  1 25  1  0  0  0
  1 30  2  0  0  0
  1 82  1  0  0  0
  2  3  1  0  0  0
  2 25  1  0  0  0
  2 84  1  0  0  0
  2 85  1  0  0  0
  3  4  1  0  0  0
  3 86  1  0  0  0
  3 87  1  0  0  0
  4  5  1  0  0  0
  4 88  1  0  0  0
  4 89  1  0  0  0
  5  6  1  0  0  0
  5 26  1  0  0  0
  5 90  1  0  0  0
  6 25  1  0  0  0
  6 91  1  0  0  0
  6 92  1  0  0  0
  7  8  2  0  0  0
  7 26  1  0  0  0
  7 29  1  0  0  0
  8  9  1  0  0  0
  8 22  1  0  0  0
  9 10  1  0  0  0
  9 27  2  0  0  0
 10 11  2  0  0  0
 10 15  1  0  0  0
 11 12  1  0  0  0
 11 93  1  0  0  0
 12 13  2  0  0  0
 12 94  1  0  0  0
 13 14  1  0  0  0
 13 31  1  0  0  0
 14 15  2  0  0  0
 14 95  1  0  0  0
 15 96  1  0  0  0
 16 17  2  0  0  0
 16 21  1  0  0  0
 16 31  1  0  0  0
 17 18  1  0  0  0
 17 97  1  0  0  0
 18 19  2  0  0  0
 18 98  1  0  0  0
 19 20  1  0  0  0
 19 24  1  0  0  0
 20 21  2  0  0  0
 20 99  1  0  0  0
 21 23  1  0  0  0
 22 28  1  0  0  0
 22 32  2  0  0  0
 26 27  1  0  0  0
 28100  1  0  0  0
 28101  1  0  0  0
 29102  1  0  0  0
 29103  1  0  0  0
 33 34  1  0  0  0
 33 66  1  0  0  0
 33 70  2  0  0  0
 34 36  1  0  0  0
 34 59  1  0  0  0
 34104  1  0  0  0
 35 44  2  0  0  0
 35 45  1  0  0  0
 35 68  1  0  0  0
 36 56  1  0  0  0
 36105  1  0  0  0
 37 39  1  0  0  0
 37 47  1  0  0  0
 37 66  1  0  0  0
 37106  1  0  0  0
 38 43  2  0  0  0
 38 46  1  0  0  0
 38 47  1  0  0  0
 39 64  1  0  0  0
 39 67  2  0  0  0
 40 52  1  0  0  0
 40 53  2  0  0  0
 40 58  1  0  0  0
 41107  1  0  0  0
 41108  1  0  0  0
 41109  1  0  0  0
 41 48  1  0  0  0
 42 43  1  0  0  0
 42 66  1  0  0  0
 42110  1  0  0  0
 42111  1  0  0  0
 43 44  1  0  0  0
 44112  1  0  0  0
 45 46  2  0  0  0
 45113  1  0  0  0
 46114  1  0  0  0
 47115  1  0  0  0
 47116  1  0  0  0
 48 56  1  0  0  0
 48 65  1  0  0  0
 48117  1  0  0  0
 49 50  1  0  0  0
 49 53  1  0  0  0
 49 64  1  0  0  0
 49118  1  0  0  0
 50 51  1  0  0  0
 50119  1  0  0  0
 50120  1  0  0  0
 51 52  1  0  0  0
 51121  1  0  0  0
 51122  1  0  0  0
 52123  1  0  0  0
 52124  1  0  0  0
 53 54  1  0  0  0
 54 55  2  0  0  0
 54125  1  0  0  0
 55 57  1  0  0  0
 55126  1  0  0  0
 56 69  2  0  0  0
 57 58  2  0  0  0
 57127  1  0  0  0
 58128  1  0  0  0
 59 60  1  0  0  0
 59 61  1  0  0  0
 59 62  1  0  0  0
 60129  1  0  0  0
 60130  1  0  0  0
 60131  1  0  0  0
 61132  1  0  0  0
 61133  1  0  0  0
 61134  1  0  0  0
 62135  1  0  0  0
 62136  1  0  0  0
 62137  1  0  0  0
 63 65  1  0  0  0
 63138  1  0  0  0
 63139  1  0  0  0
 63140  1  0  0  0
 64141  1  0  0  0
 65142  1  0  0  0
 68 78  1  0  0  0
 71 73  1  0  0  0
 71 74  2  0  0  0
 71143  1  0  0  0
 72 73  2  0  0  0
 72 81  1  0  0  0
 72144  1  0  0  0
 73 82  1  0  0  0
 74 79  1  0  0  0
 74 81  1  0  0  0
 75145  1  0  0  0
 75146  1  0  0  0
 75147  1  0  0  0
 75 79  1  0  0  0
 76 79  1  0  0  0
 76148  1  0  0  0
 76149  1  0  0  0
 76150  1  0  0  0
 77 80  1  0  0  0
 77 81  1  0  0  0
 77151  1  0  0  0
 77152  1  0  0  0
 78 80  1  0  0  0
 78153  1  0  0  0
 78154  1  0  0  0
 79155  1  0  0  0
 80 83  1  0  0  0
 80156  1  0  0  0
 82157  1  0  0  0
 83158  1  0  0  0
M  ISO  4   1 100  68 101  78 101  82 100
M  END
> <chiral flag>
0

> <version>
0

> <s_m_source_file>
/data/baiqing/PycharmProjects/Reinvent-master-3.2/result/LINK_invent/BTK/process_docking_weight1_custom_sum_contain_oxygen_bond_distance_aromatic_linkinvent_7_9_3/rearranged_h_0112.sdf

> <i_m_source_file_index>
1

> <r_mmod_Potential_Energy-OPLS-2005>
751.207702636719

> <r_mmod_Stretch_Energy-OPLS-2005>
334.70263671875

> <r_mmod_Bend_Energy-OPLS-2005>
348.075469970703

> <r_mmod_Torsional_Energy-OPLS-2005>
288.773193359375

> <r_mmod_Improper_Torsional_Energy-OPLS-2005>
12.4381523132324

> <r_mmod_Van_der_Waal_Energy-OPLS-2005>
100.245704650879

> <r_mmod_Electrostatic_Energy-OPLS-2005>
-339.186737060547

> <r_mmod_Solvation_Energy-OPLS-2005>
-238.456527709961

> <b_mmod_Minimization_Converged-OPLS-2005>
0

> <r_mmod_RMS_Derivative-OPLS-2005>
4.05184984207153

$$$$
1
                    3D
 Structure written by MMmdl.
152159  0  0  1  0            999 V2000
  -30.5347  -14.9124   20.4963 C   0  0  0  0  0  0
  -30.4506  -12.5761   19.4928 C   0  0  0  0  0  0
  -29.5243  -12.5441   18.2529 C   0  0  0  0  0  0
  -28.0530  -12.3293   18.6617 C   0  0  0  0  0  0
  -27.6391  -13.2295   19.8574 C   0  0  2  0  0  0
  -28.6840  -13.1419   20.9840 C   0  0  0  0  0  0
  -25.2501  -13.8162   20.5689 C   0  0  0  0  0  0
  -24.1767  -13.0414   20.9190 C   0  0  0  0  0  0
  -24.6346  -11.6897   20.8693 C   0  0  0  0  0  0
  -23.9017  -10.4274   21.0364 C   0  0  0  0  0  0
  -24.3576   -9.4212   21.9156 C   0  0  0  0  0  0
  -23.6269   -8.2242   22.0738 C   0  0  0  0  0  0
  -22.4257   -8.0264   21.3539 C   0  0  0  0  0  0
  -21.9875   -9.0222   20.4641 C   0  0  0  0  0  0
  -22.7180  -10.2112   20.3031 C   0  0  0  0  0  0
  -21.6861   -6.0709   22.5282 C   0  0  0  0  0  0
  -21.4008   -6.5613   23.8210 C   0  0  0  0  0  0
  -21.3669   -5.6773   24.9180 C   0  0  0  0  0  0
  -21.6067   -4.3039   24.7232 C   0  0  0  0  0  0
  -21.8820   -3.8124   23.4354 C   0  0  0  0  0  0
  -21.9193   -4.6938   22.3411 C   0  0  0  0  0  0
  -22.7803  -13.5232   21.1850 C   0  0  0  0  0  0
  -22.1662   -4.2112   21.0995 F   0  0  0  0  0  0
  -21.5650   -3.4529   25.7756 F   0  0  0  0  0  0
  -29.9520  -13.6392   20.4201 N   0  0  0  0  0  0
  -26.2914  -12.9350   20.3271 N   0  0  0  0  0  0
  -25.9286  -11.6495   20.5706 N   0  0  0  0  0  0
  -22.0435  -12.8238   22.0417 N   0  0  0  0  0  0
  -25.4209  -15.1874   20.4140 N   0  0  0  0  0  0
  -31.6976  -15.0017   20.0804 O   0  0  0  0  0  0
  -21.6657   -6.8846   21.4244 O   0  0  0  0  0  0
  -22.3528  -14.5561   20.6734 O   0  0  0  0  0  0
  -24.6463  -31.8454   23.1868 C   0  0  0  0  0  0
  -25.9230  -32.4701   23.8270 C   0  0  1  0  0  0
  -27.2162  -27.1384   20.1430 C   0  0  0  0  0  0
  -25.5993  -33.8504   24.2203 N   0  0  0  0  0  0
  -23.4475  -30.4641   21.5328 C   0  0  2  0  0  0
  -24.8961  -28.8900   20.1112 C   0  0  0  0  0  0
  -22.7589  -29.4539   22.4857 C   0  0  0  0  0  0
  -18.0328  -28.1381   22.8495 C   0  0  0  0  0  0
  -24.1488  -36.7251   23.2639 C   0  0  0  0  0  0
  -26.0034  -30.7182   21.3864 C   0  0  0  0  0  0
  -26.0746  -29.3294   20.7283 C   0  0  0  0  0  0
  -27.2370  -28.4701   20.7234 C   0  0  0  0  0  0
  -26.0167  -26.8056   19.4796 C   0  0  0  0  0  0
  -24.8813  -27.6433   19.4691 C   0  0  0  0  0  0
  -23.6736  -29.7936   20.1523 C   0  0  0  0  0  0
  -25.4120  -36.3031   24.0322 C   0  0  1  0  0  0
  -20.5938  -28.3713   23.1260 C   0  0  2  0  0  0
  -20.6816  -26.9410   22.5409 C   0  0  0  0  0  0
  -19.5770  -26.6363   21.5236 C   0  0  0  0  0  0
  -18.1949  -26.7925   22.1645 C   0  0  0  0  0  0
  -19.1576  -28.8863   23.2880 C   0  0  0  0  0  0
  -18.9480  -30.1455   23.8889 C   0  0  0  0  0  0
  -17.6474  -30.6564   24.0545 C   0  0  0  0  0  0
  -25.9083  -34.9414   23.5073 C   0  0  0  0  0  0
  -16.5368  -29.9065   23.6302 C   0  0  0  0  0  0
  -16.7304  -28.6471   23.0363 C   0  0  0  0  0  0
  -26.4541  -31.6565   25.0702 C   0  0  0  0  0  0
  -25.3726  -31.3761   26.1404 C   0  0  0  0  0  0
  -27.0405  -30.2959   24.6274 C   0  0  0  0  0  0
  -27.6065  -32.4334   25.7492 C   0  0  0  0  0  0
  -27.5569  -37.1789   24.8466 C   0  0  0  0  0  0
  -21.4273  -29.3062   22.3658 N   0  0  0  0  0  0
  -26.4278  -37.3747   23.9418 N   0  0  0  0  0  0
  -24.7181  -31.0322   22.0892 N   0  0  0  0  0  0
  -23.4247  -28.8051   23.2971 O   0  0  0  0  0  0
  -28.2775  -26.1615   20.1635 O   0  0  0  0  0  0
  -26.5640  -34.8916   22.4627 O   0  0  0  0  0  0
  -23.5586  -32.1327   23.7092 O   0  0  0  0  0  0
  -28.9857  -16.1140   22.0170 C   0  0  0  0  0  0
  -28.9383  -23.2959   20.0306 C   0  0  0  0  0  0
  -30.0658  -17.5905   20.2915 C   0  0  0  0  0  0
  -28.6076  -21.7111   20.5238 C   0  0  0  0  0  0
  -29.1528  -18.9722   20.6719 C   0  0  0  0  0  0
  -28.0081  -24.6465   20.4333 C   0  0  0  0  0  0
  -29.7878  -16.1063   20.7871 N   0  0  0  0  0  0
  -29.4879  -20.4373   20.1613 N   0  3  0  0  0  0
  -31.4821  -12.7480   19.1797 H   0  0  0  0  0  0
  -30.4599  -11.6003   19.9817 H   0  0  0  0  0  0
  -29.8395  -11.7578   17.5650 H   0  0  0  0  0  0
  -29.6147  -13.4863   17.7121 H   0  0  0  0  0  0
  -27.9424  -11.2806   18.9400 H   0  0  0  0  0  0
  -27.3905  -12.4920   17.8102 H   0  0  0  0  0  0
  -27.6364  -14.2553   19.4891 H   0  0  0  0  0  0
  -28.7864  -12.1051   21.3089 H   0  0  0  0  0  0
  -28.3611  -13.6598   21.8787 H   0  0  0  0  0  0
  -25.2711   -9.5752   22.4722 H   0  0  0  0  0  0
  -24.0002   -7.4657   22.7465 H   0  0  0  0  0  0
  -21.0796   -8.8724   19.8960 H   0  0  0  0  0  0
  -22.3592  -10.9640   19.6149 H   0  0  0  0  0  0
  -21.1970   -7.6111   23.9721 H   0  0  0  0  0  0
  -21.1501   -6.0490   25.9094 H   0  0  0  0  0  0
  -22.0577   -2.7578   23.2873 H   0  0  0  0  0  0
  -22.4058  -11.9914   22.4826 H   0  0  0  0  0  0
  -21.1061  -13.1284   22.2622 H   0  0  0  0  0  0
  -24.6572  -15.8402   20.5462 H   0  0  0  0  0  0
  -26.2757  -15.6296   20.0985 H   0  0  0  0  0  0
  -26.7290  -32.5283   23.1001 H   0  0  0  0  0  0
  -25.0147  -33.9612   25.0359 H   0  0  0  0  0  0
  -22.7487  -31.2875   21.3794 H   0  0  0  0  0  0
  -23.3751  -35.9577   23.3291 H   0  0  0  0  0  0
  -24.3571  -36.8887   22.2049 H   0  0  0  0  0  0
  -23.7244  -37.6454   23.6672 H   0  0  0  0  0  0
  -26.1618  -31.4712   20.6141 H   0  0  0  0  0  0
  -26.8722  -30.7639   22.0304 H   0  0  0  0  0  0
  -28.1385  -28.8016   21.2163 H   0  0  0  0  0  0
  -25.9342  -25.8643   18.9553 H   0  0  0  0  0  0
  -23.9898  -27.3080   18.9569 H   0  0  0  0  0  0
  -23.8128  -30.5667   19.3945 H   0  0  0  0  0  0
  -22.7873  -29.2358   19.8423 H   0  0  0  0  0  0
  -25.1308  -36.1851   25.0813 H   0  0  0  0  0  0
  -21.0046  -28.3263   24.1379 H   0  0  0  0  0  0
  -20.5756  -26.2284   23.3610 H   0  0  0  0  0  0
  -21.6668  -26.7446   22.1149 H   0  0  0  0  0  0
  -19.6907  -25.6273   21.1263 H   0  0  0  0  0  0
  -19.6688  -27.3151   20.6745 H   0  0  0  0  0  0
  -17.4243  -26.6738   21.4017 H   0  0  0  0  0  0
  -18.0297  -26.0048   22.9012 H   0  0  0  0  0  0
  -19.7950  -30.7280   24.2275 H   0  0  0  0  0  0
  -17.5001  -31.6243   24.5146 H   0  0  0  0  0  0
  -15.5354  -30.2962   23.7591 H   0  0  0  0  0  0
  -15.8721  -28.0758   22.7105 H   0  0  0  0  0  0
  -24.5882  -30.7149   25.7711 H   0  0  0  0  0  0
  -24.8957  -32.2953   26.4812 H   0  0  0  0  0  0
  -25.8016  -30.8928   27.0192 H   0  0  0  0  0  0
  -26.3026  -29.6676   24.1275 H   0  0  0  0  0  0
  -27.4015  -29.7266   25.4850 H   0  0  0  0  0  0
  -27.8935  -30.4202   23.9595 H   0  0  0  0  0  0
  -27.2648  -33.3631   26.2063 H   0  0  0  0  0  0
  -28.3884  -32.6919   25.0333 H   0  0  0  0  0  0
  -28.0730  -31.8471   26.5428 H   0  0  0  0  0  0
  -28.2591  -38.0078   24.7504 H   0  0  0  0  0  0
  -28.1070  -36.2620   24.6307 H   0  0  0  0  0  0
  -27.2294  -37.1440   25.8868 H   0  0  0  0  0  0
  -20.9455  -29.8910   21.6973 H   0  0  0  0  0  0
  -26.0145  -38.2818   24.1408 H   0  0  0  0  0  0
  -28.9932  -17.0779   22.5165 H   0  0  0  0  0  0
  -29.3850  -15.4210   22.7610 H   0  0  0  0  0  0
  -27.9457  -15.8498   21.8226 H   0  0  0  0  0  0
  -28.9723  -23.2756   18.9414 H   0  0  0  0  0  0
  -29.9620  -23.5147   20.3345 H   0  0  0  0  0  0
  -31.0935  -17.7994   20.5860 H   0  0  0  0  0  0
  -30.0982  -17.5253   19.2038 H   0  0  0  0  0  0
  -27.5974  -21.4815   20.1821 H   0  0  0  0  0  0
  -28.5387  -21.7301   21.6118 H   0  0  0  0  0  0
  -29.1197  -19.0738   21.7554 H   0  0  0  0  0  0
  -28.1224  -18.7697   20.3773 H   0  0  0  0  0  0
  -27.9171  -24.6016   21.5190 H   0  0  0  0  0  0
  -27.0043  -24.4077   20.0883 H   0  0  0  0  0  0
  -30.4212  -20.6392   20.4833 H   0  0  0  0  0  0
  -29.5473  -20.3900   19.1576 H   0  0  0  0  0  0
  1 25  1  0  0  0
  1 30  2  0  0  0
  1 77  1  0  0  0
  2  3  1  0  0  0
  2 25  1  0  0  0
  2 79  1  0  0  0
  2 80  1  0  0  0
  3  4  1  0  0  0
  3 81  1  0  0  0
  3 82  1  0  0  0
  4  5  1  0  0  0
  4 83  1  0  0  0
  4 84  1  0  0  0
  5  6  1  0  0  0
  5 26  1  0  0  0
  5 85  1  0  0  0
  6 25  1  0  0  0
  6 86  1  0  0  0
  6 87  1  0  0  0
  7  8  2  0  0  0
  7 26  1  0  0  0
  7 29  1  0  0  0
  8  9  1  0  0  0
  8 22  1  0  0  0
  9 10  1  0  0  0
  9 27  2  0  0  0
 10 11  2  0  0  0
 10 15  1  0  0  0
 11 12  1  0  0  0
 11 88  1  0  0  0
 12 13  2  0  0  0
 12 89  1  0  0  0
 13 14  1  0  0  0
 13 31  1  0  0  0
 14 15  2  0  0  0
 14 90  1  0  0  0
 15 91  1  0  0  0
 16 17  2  0  0  0
 16 21  1  0  0  0
 16 31  1  0  0  0
 17 18  1  0  0  0
 17 92  1  0  0  0
 18 19  2  0  0  0
 18 93  1  0  0  0
 19 20  1  0  0  0
 19 24  1  0  0  0
 20 21  2  0  0  0
 20 94  1  0  0  0
 21 23  1  0  0  0
 22 28  1  0  0  0
 22 32  2  0  0  0
 26 27  1  0  0  0
 28 95  1  0  0  0
 28 96  1  0  0  0
 29 97  1  0  0  0
 29 98  1  0  0  0
 33 34  1  0  0  0
 33 66  1  0  0  0
 33 70  2  0  0  0
 34 36  1  0  0  0
 34 59  1  0  0  0
 34 99  1  0  0  0
 35 44  2  0  0  0
 35 45  1  0  0  0
 35 68  1  0  0  0
 36 56  1  0  0  0
 36100  1  0  0  0
 37 39  1  0  0  0
 37 47  1  0  0  0
 37 66  1  0  0  0
 37101  1  0  0  0
 38 43  2  0  0  0
 38 46  1  0  0  0
 38 47  1  0  0  0
 39 64  1  0  0  0
 39 67  2  0  0  0
 40 52  1  0  0  0
 40 53  2  0  0  0
 40 58  1  0  0  0
 41102  1  0  0  0
 41103  1  0  0  0
 41104  1  0  0  0
 41 48  1  0  0  0
 42 43  1  0  0  0
 42 66  1  0  0  0
 42105  1  0  0  0
 42106  1  0  0  0
 43 44  1  0  0  0
 44107  1  0  0  0
 45 46  2  0  0  0
 45108  1  0  0  0
 46109  1  0  0  0
 47110  1  0  0  0
 47111  1  0  0  0
 48 56  1  0  0  0
 48 65  1  0  0  0
 48112  1  0  0  0
 49 50  1  0  0  0
 49 53  1  0  0  0
 49 64  1  0  0  0
 49113  1  0  0  0
 50 51  1  0  0  0
 50114  1  0  0  0
 50115  1  0  0  0
 51 52  1  0  0  0
 51116  1  0  0  0
 51117  1  0  0  0
 52118  1  0  0  0
 52119  1  0  0  0
 53 54  1  0  0  0
 54 55  2  0  0  0
 54120  1  0  0  0
 55 57  1  0  0  0
 55121  1  0  0  0
 56 69  2  0  0  0
 57 58  2  0  0  0
 57122  1  0  0  0
 58123  1  0  0  0
 59 60  1  0  0  0
 59 61  1  0  0  0
 59 62  1  0  0  0
 60124  1  0  0  0
 60125  1  0  0  0
 60126  1  0  0  0
 61127  1  0  0  0
 61128  1  0  0  0
 61129  1  0  0  0
 62130  1  0  0  0
 62131  1  0  0  0
 62132  1  0  0  0
 63 65  1  0  0  0
 63133  1  0  0  0
 63134  1  0  0  0
 63135  1  0  0  0
 64136  1  0  0  0
 65137  1  0  0  0
 68 76  1  0  0  0
 71 77  1  0  0  0
 71138  1  0  0  0
 71139  1  0  0  0
 71140  1  0  0  0
 72 74  1  0  0  0
 72 76  1  0  0  0
 72141  1  0  0  0
 72142  1  0  0  0
 73 75  1  0  0  0
 73 77  1  0  0  0
 73143  1  0  0  0
 73144  1  0  0  0
 74 78  1  0  0  0
 74145  1  0  0  0
 74146  1  0  0  0
 75 78  1  0  0  0
 75147  1  0  0  0
 75148  1  0  0  0
 76149  1  0  0  0
 76150  1  0  0  0
 78151  1  0  0  0
 78152  1  0  0  0
M  CHG  1  78   1
M  ISO  4   1 100  68 101  76 101  77 100
M  END
> <chiral flag>
0

> <version>
0

> <s_m_source_file>
/data/baiqing/PycharmProjects/Reinvent-master-3.2/result/LINK_invent/BTK/process_docking_weight1_custom_sum_contain_oxygen_bond_distance_aromatic_linkinvent_7_9_3/rearranged_h_0112.sdf

> <i_m_source_file_index>
2

> <r_mmod_Potential_Energy-OPLS-2005>
432.817718505859

> <r_mmod_Stretch_Energy-OPLS-2005>
278.815368652344

> <r_mmod_Bend_Energy-OPLS-2005>
267.926574707031

> <r_mmod_Torsional_Energy-OPLS-2005>
271.502197265625

> <r_mmod_Improper_Torsional_Energy-OPLS-2005>
6.77880001068115

> <r_mmod_Van_der_Waal_Energy-OPLS-2005>
124.339912414551

> <r_mmod_Electrostatic_Energy-OPLS-2005>
-206.113540649414

> <r_mmod_Solvation_Energy-OPLS-2005>
-477.874481201172

> <b_mmod_Minimization_Converged-OPLS-2005>
0

> <r_mmod_RMS_Derivative-OPLS-2005>
4.10970544815063

$$$$
2
                    3D
 Structure written by MMmdl.
153161  0  0  1  0            999 V2000
  -30.4343  -15.1873   20.3802 C   0  0  0  0  0  0
  -30.4492  -12.7505   19.5171 C   0  0  0  0  0  0
  -29.5364  -12.5641   18.2787 C   0  0  0  0  0  0
  -28.0792  -12.3026   18.7032 C   0  0  0  0  0  0
  -27.6193  -13.2641   19.8278 C   0  0  2  0  0  0
  -28.6568  -13.3866   20.9637 C   0  0  0  0  0  0
  -25.2421  -13.8229   20.5725 C   0  0  0  0  0  0
  -24.1762  -13.0433   20.9248 C   0  0  0  0  0  0
  -24.6403  -11.6926   20.8761 C   0  0  0  0  0  0
  -23.9092  -10.4291   21.0407 C   0  0  0  0  0  0
  -24.3635   -9.4203   21.9183 C   0  0  0  0  0  0
  -23.6302   -8.2242   22.0756 C   0  0  0  0  0  0
  -22.4282   -8.0285   21.3546 C   0  0  0  0  0  0
  -21.9923   -9.0260   20.4648 C   0  0  0  0  0  0
  -22.7262  -10.2133   20.3056 C   0  0  0  0  0  0
  -21.6854   -6.0739   22.5280 C   0  0  0  0  0  0
  -21.4017   -6.5641   23.8214 C   0  0  0  0  0  0
  -21.3659   -5.6792   24.9175 C   0  0  0  0  0  0
  -21.6042   -4.3055   24.7225 C   0  0  0  0  0  0
  -21.8818   -3.8148   23.4345 C   0  0  0  0  0  0
  -21.9193   -4.6967   22.3403 C   0  0  0  0  0  0
  -22.7779  -13.5194   21.1896 C   0  0  0  0  0  0
  -22.1661   -4.2153   21.0980 F   0  0  0  0  0  0
  -21.5627   -3.4539   25.7737 F   0  0  0  0  0  0
  -29.9004  -13.8759   20.3485 N   0  0  0  0  0  0
  -26.2847  -12.9485   20.3213 N   0  0  0  0  0  0
  -25.9336  -11.6602   20.5719 N   0  0  0  0  0  0
  -22.0433  -12.8181   22.0452 N   0  0  0  0  0  0
  -25.4045  -15.1964   20.4145 N   0  0  0  0  0  0
  -31.6516  -15.2435   20.1533 O   0  0  0  0  0  0
  -21.6643   -6.8884   21.4242 O   0  0  0  0  0  0
  -22.3459  -14.5496   20.6736 O   0  0  0  0  0  0
  -24.6581  -31.8280   23.1738 C   0  0  0  0  0  0
  -25.9283  -32.4610   23.8186 C   0  0  1  0  0  0
  -27.2210  -26.9783   20.1794 C   0  0  0  0  0  0
  -25.5969  -33.8422   24.2095 N   0  0  0  0  0  0
  -23.4703  -30.4409   21.5220 C   0  0  2  0  0  0
  -24.9228  -28.8349   20.1127 C   0  0  0  0  0  0
  -22.7640  -29.4466   22.4796 C   0  0  0  0  0  0
  -18.0318  -28.1407   22.8466 C   0  0  0  0  0  0
  -24.1494  -36.7219   23.2647 C   0  0  0  0  0  0
  -26.0359  -30.6517   21.3952 C   0  0  0  0  0  0
  -26.1052  -29.2460   20.7402 C   0  0  0  0  0  0
  -27.2508  -28.3386   20.7475 C   0  0  0  0  0  0
  -26.0084  -26.7031   19.5098 C   0  0  0  0  0  0
  -24.8965  -27.5825   19.4780 C   0  0  0  0  0  0
  -23.7071  -29.7578   20.1472 C   0  0  0  0  0  0
  -25.4132  -36.2981   24.0302 C   0  0  1  0  0  0
  -20.5940  -28.3749   23.1199 C   0  0  2  0  0  0
  -20.6798  -26.9436   22.5403 C   0  0  0  0  0  0
  -19.5772  -26.6380   21.5213 C   0  0  0  0  0  0
  -18.1954  -26.7940   22.1621 C   0  0  0  0  0  0
  -19.1578  -28.8898   23.2821 C   0  0  0  0  0  0
  -18.9490  -30.1487   23.8857 C   0  0  0  0  0  0
  -17.6484  -30.6598   24.0557 C   0  0  0  0  0  0
  -25.9094  -34.9361   23.5019 C   0  0  0  0  0  0
  -16.5375  -29.9087   23.6341 C   0  0  0  0  0  0
  -16.7300  -28.6508   23.0359 C   0  0  0  0  0  0
  -26.4551  -31.6539   25.0696 C   0  0  0  0  0  0
  -25.3692  -31.3774   26.1362 C   0  0  0  0  0  0
  -27.0444  -30.2914   24.6394 C   0  0  0  0  0  0
  -27.6048  -32.4340   25.7497 C   0  0  0  0  0  0
  -27.5571  -37.1767   24.8465 C   0  0  0  0  0  0
  -21.4316  -29.3046   22.3549 N   0  0  0  0  0  0
  -26.4282  -37.3712   23.9407 N   0  0  0  0  0  0
  -24.7424  -30.9992   22.0845 N   0  0  0  0  0  0
  -23.4210  -28.8034   23.3021 O   0  0  0  0  0  0
  -28.2472  -25.9138   20.2481 O   0  0  0  0  0  0
  -26.5703  -34.8890   22.4614 O   0  0  0  0  0  0
  -23.5663  -32.1225   23.6864 O   0  0  0  0  0  0
  -28.8995  -20.2740   19.2621 C   0  0  0  0  0  0
  -29.1016  -18.8011   19.2906 C   0  0  0  0  0  0
  -29.5691  -20.3861   21.4587 C   0  0  0  0  0  0
  -29.1046  -21.2166   20.3525 C   0  0  0  0  0  0
  -29.7823  -18.9139   21.4959 C   0  0  0  0  0  0
  -29.5885  -17.9804   20.3948 C   0  0  0  0  0  0
  -30.2261  -18.3143   22.8168 C   0  0  0  0  0  0
  -30.2970  -23.2982   19.3383 C   0  0  0  0  0  0
  -28.0188  -24.2994   20.1569 C   0  0  0  0  0  0
  -29.1667  -22.9566   20.3173 C   0  0  1  0  0  0
  -29.5796  -16.3776   20.4685 N   0  0  0  0  0  0
  -31.4698  -12.9568   19.1911 H   0  0  0  0  0  0
  -30.5066  -11.8299   20.1002 H   0  0  0  0  0  0
  -29.8998  -11.7444   17.6575 H   0  0  0  0  0  0
  -29.5795  -13.4611   17.6589 H   0  0  0  0  0  0
  -28.0198  -11.2726   19.0572 H   0  0  0  0  0  0
  -27.4118  -12.3698   17.8433 H   0  0  0  0  0  0
  -27.5498  -14.2428   19.3517 H   0  0  0  0  0  0
  -28.8043  -12.4333   21.4735 H   0  0  0  0  0  0
  -28.3128  -14.0929   21.7209 H   0  0  0  0  0  0
  -25.2777   -9.5679   22.4762 H   0  0  0  0  0  0
  -24.0008   -7.4633   22.7477 H   0  0  0  0  0  0
  -21.0853   -8.8785   19.8953 H   0  0  0  0  0  0
  -22.3722  -10.9674   19.6168 H   0  0  0  0  0  0
  -21.2012   -7.6149   23.9718 H   0  0  0  0  0  0
  -21.1481   -6.0523   25.9078 H   0  0  0  0  0  0
  -22.0597   -2.7611   23.2844 H   0  0  0  0  0  0
  -22.4062  -11.9851   22.4844 H   0  0  0  0  0  0
  -21.1046  -13.1193   22.2657 H   0  0  0  0  0  0
  -24.6279  -15.8398   20.5225 H   0  0  0  0  0  0
  -26.2323  -15.6401   20.0402 H   0  0  0  0  0  0
  -26.7351  -32.5164   23.0903 H   0  0  0  0  0  0
  -25.0062  -33.9505   25.0209 H   0  0  0  0  0  0
  -22.7811  -31.2713   21.3544 H   0  0  0  0  0  0
  -23.3764  -35.9541   23.3281 H   0  0  0  0  0  0
  -24.3573  -36.8891   22.2067 H   0  0  0  0  0  0
  -23.7244  -37.6397   23.6718 H   0  0  0  0  0  0
  -26.2092  -31.3955   20.6164 H   0  0  0  0  0  0
  -26.8987  -30.7082   22.0471 H   0  0  0  0  0  0
  -28.1489  -28.6525   21.2607 H   0  0  0  0  0  0
  -25.8893  -25.7449   19.0257 H   0  0  0  0  0  0
  -23.9963  -27.2618   18.9717 H   0  0  0  0  0  0
  -23.8597  -30.5270   19.3892 H   0  0  0  0  0  0
  -22.8175  -29.2102   19.8309 H   0  0  0  0  0  0
  -25.1330  -36.1782   25.0793 H   0  0  0  0  0  0
  -21.0027  -28.3355   24.1322 H   0  0  0  0  0  0
  -20.5682  -26.2366   23.3638 H   0  0  0  0  0  0
  -21.6663  -26.7418   22.1209 H   0  0  0  0  0  0
  -19.6934  -25.6279   21.1272 H   0  0  0  0  0  0
  -19.6712  -27.3166   20.6723 H   0  0  0  0  0  0
  -17.4221  -26.6677   21.4026 H   0  0  0  0  0  0
  -18.0353  -26.0095   22.9030 H   0  0  0  0  0  0
  -19.7967  -30.7313   24.2209 H   0  0  0  0  0  0
  -17.5038  -31.6273   24.5168 H   0  0  0  0  0  0
  -15.5374  -30.2977   23.7690 H   0  0  0  0  0  0
  -15.8700  -28.0814   22.7096 H   0  0  0  0  0  0
  -24.5883  -30.7114   25.7672 H   0  0  0  0  0  0
  -24.8870  -32.2970   26.4686 H   0  0  0  0  0  0
  -25.7935  -30.9007   27.0207 H   0  0  0  0  0  0
  -26.3101  -29.6595   24.1387 H   0  0  0  0  0  0
  -27.3983  -29.7270   25.5032 H   0  0  0  0  0  0
  -27.9036  -30.4109   23.9792 H   0  0  0  0  0  0
  -27.2618  -33.3675   26.1970 H   0  0  0  0  0  0
  -28.3915  -32.6846   25.0368 H   0  0  0  0  0  0
  -28.0655  -31.8538   26.5502 H   0  0  0  0  0  0
  -28.2572  -38.0078   24.7512 H   0  0  0  0  0  0
  -28.1083  -36.2604   24.6293 H   0  0  0  0  0  0
  -27.2287  -37.1410   25.8868 H   0  0  0  0  0  0
  -20.9560  -29.8733   21.6682 H   0  0  0  0  0  0
  -26.0131  -38.2771   24.1416 H   0  0  0  0  0  0
  -28.5875  -20.6956   18.3169 H   0  0  0  0  0  0
  -28.8537  -18.2750   18.3794 H   0  0  0  0  0  0
  -29.8112  -20.9252   22.3640 H   0  0  0  0  0  0
  -30.5644  -19.0784   23.5169 H   0  0  0  0  0  0
  -31.0503  -17.6171   22.6635 H   0  0  0  0  0  0
  -29.4018  -17.7709   23.2792 H   0  0  0  0  0  0
  -31.2069  -22.7471   19.5773 H   0  0  0  0  0  0
  -30.5410  -24.3606   19.3693 H   0  0  0  0  0  0
  -30.0155  -23.0515   18.3146 H   0  0  0  0  0  0
  -27.2357  -24.1009   20.8891 H   0  0  0  0  0  0
  -27.5347  -24.1435   19.1931 H   0  0  0  0  0  0
  -29.5778  -23.1558   21.3075 H   0  0  0  0  0  0
  -28.6329  -16.0463   20.5733 H   0  0  0  0  0  0
  1 25  1  0  0  0
  1 30  2  0  0  0
  1 81  1  0  0  0
  2  3  1  0  0  0
  2 25  1  0  0  0
  2 82  1  0  0  0
  2 83  1  0  0  0
  3  4  1  0  0  0
  3 84  1  0  0  0
  3 85  1  0  0  0
  4  5  1  0  0  0
  4 86  1  0  0  0
  4 87  1  0  0  0
  5  6  1  0  0  0
  5 26  1  0  0  0
  5 88  1  0  0  0
  6 25  1  0  0  0
  6 89  1  0  0  0
  6 90  1  0  0  0
  7  8  2  0  0  0
  7 26  1  0  0  0
  7 29  1  0  0  0
  8  9  1  0  0  0
  8 22  1  0  0  0
  9 10  1  0  0  0
  9 27  2  0  0  0
 10 11  2  0  0  0
 10 15  1  0  0  0
 11 12  1  0  0  0
 11 91  1  0  0  0
 12 13  2  0  0  0
 12 92  1  0  0  0
 13 14  1  0  0  0
 13 31  1  0  0  0
 14 15  2  0  0  0
 14 93  1  0  0  0
 15 94  1  0  0  0
 16 17  2  0  0  0
 16 21  1  0  0  0
 16 31  1  0  0  0
 17 18  1  0  0  0
 17 95  1  0  0  0
 18 19  2  0  0  0
 18 96  1  0  0  0
 19 20  1  0  0  0
 19 24  1  0  0  0
 20 21  2  0  0  0
 20 97  1  0  0  0
 21 23  1  0  0  0
 22 28  1  0  0  0
 22 32  2  0  0  0
 26 27  1  0  0  0
 28 98  1  0  0  0
 28 99  1  0  0  0
 29100  1  0  0  0
 29101  1  0  0  0
 33 34  1  0  0  0
 33 66  1  0  0  0
 33 70  2  0  0  0
 34 36  1  0  0  0
 34 59  1  0  0  0
 34102  1  0  0  0
 35 44  2  0  0  0
 35 45  1  0  0  0
 35 68  1  0  0  0
 36 56  1  0  0  0
 36103  1  0  0  0
 37 39  1  0  0  0
 37 47  1  0  0  0
 37 66  1  0  0  0
 37104  1  0  0  0
 38 43  2  0  0  0
 38 46  1  0  0  0
 38 47  1  0  0  0
 39 64  1  0  0  0
 39 67  2  0  0  0
 40 52  1  0  0  0
 40 53  2  0  0  0
 40 58  1  0  0  0
 41105  1  0  0  0
 41106  1  0  0  0
 41107  1  0  0  0
 41 48  1  0  0  0
 42 43  1  0  0  0
 42 66  1  0  0  0
 42108  1  0  0  0
 42109  1  0  0  0
 43 44  1  0  0  0
 44110  1  0  0  0
 45 46  2  0  0  0
 45111  1  0  0  0
 46112  1  0  0  0
 47113  1  0  0  0
 47114  1  0  0  0
 48 56  1  0  0  0
 48 65  1  0  0  0
 48115  1  0  0  0
 49 50  1  0  0  0
 49 53  1  0  0  0
 49 64  1  0  0  0
 49116  1  0  0  0
 50 51  1  0  0  0
 50117  1  0  0  0
 50118  1  0  0  0
 51 52  1  0  0  0
 51119  1  0  0  0
 51120  1  0  0  0
 52121  1  0  0  0
 52122  1  0  0  0
 53 54  1  0  0  0
 54 55  2  0  0  0
 54123  1  0  0  0
 55 57  1  0  0  0
 55124  1  0  0  0
 56 69  2  0  0  0
 57 58  2  0  0  0
 57125  1  0  0  0
 58126  1  0  0  0
 59 60  1  0  0  0
 59 61  1  0  0  0
 59 62  1  0  0  0
 60127  1  0  0  0
 60128  1  0  0  0
 60129  1  0  0  0
 61130  1  0  0  0
 61131  1  0  0  0
 61132  1  0  0  0
 62133  1  0  0  0
 62134  1  0  0  0
 62135  1  0  0  0
 63 65  1  0  0  0
 63136  1  0  0  0
 63137  1  0  0  0
 63138  1  0  0  0
 64139  1  0  0  0
 65140  1  0  0  0
 68 79  1  0  0  0
 71 72  2  0  0  0
 71 74  1  0  0  0
 71141  1  0  0  0
 72 76  1  0  0  0
 72142  1  0  0  0
 73 74  2  0  0  0
 73 75  1  0  0  0
 73143  1  0  0  0
 74 80  1  0  0  0
 75 76  2  0  0  0
 75 77  1  0  0  0
 76 81  1  0  0  0
 77144  1  0  0  0
 77145  1  0  0  0
 77146  1  0  0  0
 78147  1  0  0  0
 78148  1  0  0  0
 78149  1  0  0  0
 78 80  1  0  0  0
 79 80  1  0  0  0
 79150  1  0  0  0
 79151  1  0  0  0
 80152  1  0  0  0
 81153  1  0  0  0
M  ISO  4   1 100  68 101  79 101  81 100
M  END
> <chiral flag>
0

> <version>
0

> <s_m_source_file>
/data/baiqing/PycharmProjects/Reinvent-master-3.2/result/LINK_invent/BTK/process_docking_weight1_custom_sum_contain_oxygen_bond_distance_aromatic_linkinvent_7_9_3/rearranged_h_0112.sdf

> <i_m_source_file_index>
3

> <r_mmod_Potential_Energy-OPLS-2005>
1034.98120117188

> <r_mmod_Stretch_Energy-OPLS-2005>
454.260131835938

> <r_mmod_Bend_Energy-OPLS-2005>
397.091674804688

> <r_mmod_Torsional_Energy-OPLS-2005>
253.500762939453

> <r_mmod_Improper_Torsional_Energy-OPLS-2005>
8.97966766357422

> <r_mmod_Van_der_Waal_Energy-OPLS-2005>
124.594291687012

> <r_mmod_Electrostatic_Energy-OPLS-2005>
-379.774505615234

> <r_mmod_Solvation_Energy-OPLS-2005>
-206.03239440918

> <b_mmod_Minimization_Converged-OPLS-2005>
0

> <r_mmod_RMS_Derivative-OPLS-2005>
0.380248248577118

$$$$
3
                    3D
 Structure written by MMmdl.
159167  0  0  1  0            999 V2000
  -30.4909  -15.0205   20.3933 C   0  0  0  0  0  0
  -30.4399  -12.6249   19.5267 C   0  0  0  0  0  0
  -29.5260  -12.5457   18.2801 C   0  0  0  0  0  0
  -28.0594  -12.3244   18.6879 C   0  0  0  0  0  0
  -27.6287  -13.2566   19.8498 C   0  0  2  0  0  0
  -28.6662  -13.3003   20.9929 C   0  0  0  0  0  0
  -25.2499  -13.8270   20.5808 C   0  0  0  0  0  0
  -24.1806  -13.0497   20.9225 C   0  0  0  0  0  0
  -24.6415  -11.6964   20.8795 C   0  0  0  0  0  0
  -23.9109  -10.4323   21.0446 C   0  0  0  0  0  0
  -24.3650   -9.4215   21.9213 C   0  0  0  0  0  0
  -23.6313   -8.2258   22.0787 C   0  0  0  0  0  0
  -22.4303   -8.0287   21.3567 C   0  0  0  0  0  0
  -21.9932   -9.0278   20.4680 C   0  0  0  0  0  0
  -22.7274  -10.2149   20.3095 C   0  0  0  0  0  0
  -21.6843   -6.0724   22.5270 C   0  0  0  0  0  0
  -21.4007   -6.5630   23.8201 C   0  0  0  0  0  0
  -21.3703   -5.6795   24.9167 C   0  0  0  0  0  0
  -21.6058   -4.3059   24.7213 C   0  0  0  0  0  0
  -21.8841   -3.8141   23.4334 C   0  0  0  0  0  0
  -21.9208   -4.6959   22.3382 C   0  0  0  0  0  0
  -22.7823  -13.5237   21.1858 C   0  0  0  0  0  0
  -22.1667   -4.2153   21.0962 F   0  0  0  0  0  0
  -21.5652   -3.4536   25.7731 F   0  0  0  0  0  0
  -29.9425  -13.7314   20.4022 N   0  0  0  0  0  0
  -26.2898  -12.9490   20.3316 N   0  0  0  0  0  0
  -25.9338  -11.6620   20.5783 N   0  0  0  0  0  0
  -22.0486  -12.8207   22.0400 N   0  0  0  0  0  0
  -25.4254  -15.2016   20.4384 N   0  0  0  0  0  0
  -31.6768  -15.1038   20.0455 O   0  0  0  0  0  0
  -21.6655   -6.8877   21.4251 O   0  0  0  0  0  0
  -22.3527  -14.5543   20.6677 O   0  0  0  0  0  0
  -24.6520  -31.8404   23.1794 C   0  0  0  0  0  0
  -25.9283  -32.4665   23.8201 C   0  0  1  0  0  0
  -27.2337  -27.0844   20.1712 C   0  0  0  0  0  0
  -25.6041  -33.8461   24.2162 N   0  0  0  0  0  0
  -23.4575  -30.4528   21.5309 C   0  0  2  0  0  0
  -24.9081  -28.8591   20.1195 C   0  0  0  0  0  0
  -22.7591  -29.4574   22.4898 C   0  0  0  0  0  0
  -18.0317  -28.1402   22.8435 C   0  0  0  0  0  0
  -24.1513  -36.7228   23.2630 C   0  0  0  0  0  0
  -26.0144  -30.6993   21.3824 C   0  0  0  0  0  0
  -26.0861  -29.2998   20.7339 C   0  0  0  0  0  0
  -27.2516  -28.4338   20.7336 C   0  0  0  0  0  0
  -26.0218  -26.7492   19.5316 C   0  0  0  0  0  0
  -24.8905  -27.5985   19.5003 C   0  0  0  0  0  0
  -23.6803  -29.7611   20.1576 C   0  0  0  0  0  0
  -25.4141  -36.2994   24.0293 C   0  0  1  0  0  0
  -20.5918  -28.3740   23.1191 C   0  0  2  0  0  0
  -20.6873  -26.9486   22.5234 C   0  0  0  0  0  0
  -19.5806  -26.6459   21.5073 C   0  0  0  0  0  0
  -18.1944  -26.8020   22.1428 C   0  0  0  0  0  0
  -19.1565  -28.8866   23.2853 C   0  0  0  0  0  0
  -18.9443  -30.1449   23.8906 C   0  0  0  0  0  0
  -17.6416  -30.6532   24.0583 C   0  0  0  0  0  0
  -25.9102  -34.9380   23.5032 C   0  0  0  0  0  0
  -16.5322  -29.9010   23.6333 C   0  0  0  0  0  0
  -16.7287  -28.6467   23.0301 C   0  0  0  0  0  0
  -26.4570  -31.6544   25.0658 C   0  0  0  0  0  0
  -25.3723  -31.3769   26.1329 C   0  0  0  0  0  0
  -27.0455  -30.2932   24.6261 C   0  0  0  0  0  0
  -27.6112  -32.4297   25.7458 C   0  0  0  0  0  0
  -27.5582  -37.1770   24.8460 C   0  0  0  0  0  0
  -21.4276  -29.3142   22.3657 N   0  0  0  0  0  0
  -26.4296  -37.3718   23.9397 N   0  0  0  0  0  0
  -24.7289  -31.0201   22.0850 N   0  0  0  0  0  0
  -23.4198  -28.8096   23.3044 O   0  0  0  0  0  0
  -28.3026  -26.0981   20.1352 O   0  0  0  0  0  0
  -26.5642  -34.8910   22.4586 O   0  0  0  0  0  0
  -23.5639  -32.1316   23.7021 O   0  0  0  0  0  0
  -28.9050  -19.5194   18.9962 C   0  0  0  0  0  0
  -29.5690  -18.8997   20.9947 C   0  0  0  0  0  0
  -29.1237  -18.1360   18.9662 C   0  0  0  0  0  0
  -29.5972  -17.6797   20.2502 C   0  0  0  0  0  0
  -28.8160  -17.3637   17.7307 C   0  0  0  0  0  0
  -27.8883  -18.0052   16.7023 C   0  0  0  0  0  0
  -28.8388  -24.7139   22.0154 C   0  0  0  0  0  0
  -28.8273  -21.6028   20.7523 C   0  0  0  0  0  0
  -28.7435  -23.1278   19.9311 C   0  0  2  0  0  0
  -28.1784  -24.6020   20.6347 C   0  0  2  0  0  0
  -29.1442  -20.0935   20.2497 N   0  0  0  0  0  0
  -29.7086  -16.1878   20.7051 N   0  0  0  0  0  0
  -28.0449  -22.9810   18.6354 N   0  3  0  0  0  0
  -29.2430  -16.2221   17.5384 O   0  0  0  0  0  0
  -31.4744  -12.7801   19.2203 H   0  0  0  0  0  0
  -30.4347  -11.6757   20.0668 H   0  0  0  0  0  0
  -29.8558  -11.7501   17.6143 H   0  0  0  0  0  0
  -29.6086  -13.4721   17.7131 H   0  0  0  0  0  0
  -27.9458  -11.2822   18.9908 H   0  0  0  0  0  0
  -27.3999  -12.4646   17.8327 H   0  0  0  0  0  0
  -27.5798  -14.2541   19.4185 H   0  0  0  0  0  0
  -28.7532  -12.3266   21.4744 H   0  0  0  0  0  0
  -28.3551  -13.9936   21.7765 H   0  0  0  0  0  0
  -25.2817   -9.5658   22.4760 H   0  0  0  0  0  0
  -24.0044   -7.4649   22.7479 H   0  0  0  0  0  0
  -21.0876   -8.8801   19.8947 H   0  0  0  0  0  0
  -22.3770  -10.9694   19.6197 H   0  0  0  0  0  0
  -21.1965   -7.6129   23.9699 H   0  0  0  0  0  0
  -21.1518   -6.0505   25.9066 H   0  0  0  0  0  0
  -22.0585   -2.7596   23.2811 H   0  0  0  0  0  0
  -22.4068  -11.9845   22.4782 H   0  0  0  0  0  0
  -21.1135  -13.1265   22.2632 H   0  0  0  0  0  0
  -24.6691  -15.8603   20.5883 H   0  0  0  0  0  0
  -26.2828  -15.6527   20.1474 H   0  0  0  0  0  0
  -26.7350  -32.5250   23.0935 H   0  0  0  0  0  0
  -25.0267  -33.9554   25.0362 H   0  0  0  0  0  0
  -22.7640  -31.2797   21.3666 H   0  0  0  0  0  0
  -23.3782  -35.9558   23.3264 H   0  0  0  0  0  0
  -24.3623  -36.8881   22.2057 H   0  0  0  0  0  0
  -23.7264  -37.6413   23.6687 H   0  0  0  0  0  0
  -26.1681  -31.4512   20.6093 H   0  0  0  0  0  0
  -26.8853  -30.7604   22.0220 H   0  0  0  0  0  0
  -28.1561  -28.7801   21.2124 H   0  0  0  0  0  0
  -25.9369  -25.7836   19.0514 H   0  0  0  0  0  0
  -23.9924  -27.2581   19.0047 H   0  0  0  0  0  0
  -23.7986  -30.5207   19.3841 H   0  0  0  0  0  0
  -22.7981  -29.1868   19.8698 H   0  0  0  0  0  0
  -25.1345  -36.1792   25.0778 H   0  0  0  0  0  0
  -20.9974  -28.3296   24.1315 H   0  0  0  0  0  0
  -20.5960  -26.2268   23.3350 H   0  0  0  0  0  0
  -21.6704  -26.7690   22.0861 H   0  0  0  0  0  0
  -19.6732  -27.3293   20.6611 H   0  0  0  0  0  0
  -19.6972  -25.6417   21.1018 H   0  0  0  0  0  0
  -17.4337  -26.7086   21.3654 H   0  0  0  0  0  0
  -18.0103  -26.0036   22.8650 H   0  0  0  0  0  0
  -19.7883  -30.7310   24.2265 H   0  0  0  0  0  0
  -17.4891  -31.6165   24.5229 H   0  0  0  0  0  0
  -15.5297  -30.2851   23.7619 H   0  0  0  0  0  0
  -15.8737  -28.0786   22.6868 H   0  0  0  0  0  0
  -24.5933  -30.7088   25.7630 H   0  0  0  0  0  0
  -24.8879  -32.2977   26.4601 H   0  0  0  0  0  0
  -25.7980  -30.9040   27.0187 H   0  0  0  0  0  0
  -26.3098  -29.6613   24.1269 H   0  0  0  0  0  0
  -27.4080  -29.7257   25.4845 H   0  0  0  0  0  0
  -27.9005  -30.4175   23.9596 H   0  0  0  0  0  0
  -27.2738  -33.3640   26.1954 H   0  0  0  0  0  0
  -28.3986  -32.6760   25.0322 H   0  0  0  0  0  0
  -28.0716  -31.8446   26.5430 H   0  0  0  0  0  0
  -28.2566  -38.0087   24.7523 H   0  0  0  0  0  0
  -28.1105  -36.2623   24.6285 H   0  0  0  0  0  0
  -27.2303  -37.1417   25.8855 H   0  0  0  0  0  0
  -20.9537  -29.8869   21.6820 H   0  0  0  0  0  0
  -26.0146  -38.2781   24.1381 H   0  0  0  0  0  0
  -28.5273  -20.1505   18.2068 H   0  0  0  0  0  0
  -29.7696  -19.0274   22.0503 H   0  0  0  0  0  0
  -27.0136  -18.4308   17.1930 H   0  0  0  0  0  0
  -27.5475  -17.2671   15.9792 H   0  0  0  0  0  0
  -28.4059  -18.7982   16.1669 H   0  0  0  0  0  0
  -29.9251  -24.7536   21.9230 H   0  0  0  0  0  0
  -28.5818  -23.8716   22.6528 H   0  0  0  0  0  0
  -28.5223  -25.6176   22.5339 H   0  0  0  0  0  0
  -27.8805  -21.5102   21.2844 H   0  0  0  0  0  0
  -29.5579  -21.7734   21.5442 H   0  0  0  0  0  0
  -29.7820  -23.3347   19.6676 H   0  0  0  0  0  0
  -27.1136  -24.4513   20.8167 H   0  0  0  0  0  0
  -28.8817  -15.9005   21.2098 H   0  0  0  0  0  0
  -27.0704  -22.7619   18.7498 H   0  0  0  0  0  0
  -28.4785  -22.2832   18.0609 H   0  0  0  0  0  0
  -28.1052  -23.8451   18.1257 H   0  0  0  0  0  0
  1 25  1  0  0  0
  1 30  2  0  0  0
  1 82  1  0  0  0
  2  3  1  0  0  0
  2 25  1  0  0  0
  2 85  1  0  0  0
  2 86  1  0  0  0
  3  4  1  0  0  0
  3 87  1  0  0  0
  3 88  1  0  0  0
  4  5  1  0  0  0
  4 89  1  0  0  0
  4 90  1  0  0  0
  5  6  1  0  0  0
  5 26  1  0  0  0
  5 91  1  0  0  0
  6 25  1  0  0  0
  6 92  1  0  0  0
  6 93  1  0  0  0
  7  8  2  0  0  0
  7 26  1  0  0  0
  7 29  1  0  0  0
  8  9  1  0  0  0
  8 22  1  0  0  0
  9 10  1  0  0  0
  9 27  2  0  0  0
 10 11  2  0  0  0
 10 15  1  0  0  0
 11 12  1  0  0  0
 11 94  1  0  0  0
 12 13  2  0  0  0
 12 95  1  0  0  0
 13 14  1  0  0  0
 13 31  1  0  0  0
 14 15  2  0  0  0
 14 96  1  0  0  0
 15 97  1  0  0  0
 16 17  2  0  0  0
 16 21  1  0  0  0
 16 31  1  0  0  0
 17 18  1  0  0  0
 17 98  1  0  0  0
 18 19  2  0  0  0
 18 99  1  0  0  0
 19 20  1  0  0  0
 19 24  1  0  0  0
 20 21  2  0  0  0
 20100  1  0  0  0
 21 23  1  0  0  0
 22 28  1  0  0  0
 22 32  2  0  0  0
 26 27  1  0  0  0
 28101  1  0  0  0
 28102  1  0  0  0
 29103  1  0  0  0
 29104  1  0  0  0
 33 34  1  0  0  0
 33 66  1  0  0  0
 33 70  2  0  0  0
 34 36  1  0  0  0
 34 59  1  0  0  0
 34105  1  0  0  0
 35 44  2  0  0  0
 35 45  1  0  0  0
 35 68  1  0  0  0
 36 56  1  0  0  0
 36106  1  0  0  0
 37 39  1  0  0  0
 37 47  1  0  0  0
 37 66  1  0  0  0
 37107  1  0  0  0
 38 43  2  0  0  0
 38 46  1  0  0  0
 38 47  1  0  0  0
 39 64  1  0  0  0
 39 67  2  0  0  0
 40 52  1  0  0  0
 40 53  2  0  0  0
 40 58  1  0  0  0
 41108  1  0  0  0
 41109  1  0  0  0
 41110  1  0  0  0
 41 48  1  0  0  0
 42 43  1  0  0  0
 42 66  1  0  0  0
 42111  1  0  0  0
 42112  1  0  0  0
 43 44  1  0  0  0
 44113  1  0  0  0
 45 46  2  0  0  0
 45114  1  0  0  0
 46115  1  0  0  0
 47116  1  0  0  0
 47117  1  0  0  0
 48 56  1  0  0  0
 48 65  1  0  0  0
 48118  1  0  0  0
 49 50  1  0  0  0
 49 53  1  0  0  0
 49 64  1  0  0  0
 49119  1  0  0  0
 50 51  1  0  0  0
 50120  1  0  0  0
 50121  1  0  0  0
 51 52  1  0  0  0
 51122  1  0  0  0
 51123  1  0  0  0
 52124  1  0  0  0
 52125  1  0  0  0
 53 54  1  0  0  0
 54 55  2  0  0  0
 54126  1  0  0  0
 55 57  1  0  0  0
 55127  1  0  0  0
 56 69  2  0  0  0
 57 58  2  0  0  0
 57128  1  0  0  0
 58129  1  0  0  0
 59 60  1  0  0  0
 59 61  1  0  0  0
 59 62  1  0  0  0
 60130  1  0  0  0
 60131  1  0  0  0
 60132  1  0  0  0
 61133  1  0  0  0
 61134  1  0  0  0
 61135  1  0  0  0
 62136  1  0  0  0
 62137  1  0  0  0
 62138  1  0  0  0
 63 65  1  0  0  0
 63139  1  0  0  0
 63140  1  0  0  0
 63141  1  0  0  0
 64142  1  0  0  0
 65143  1  0  0  0
 68 80  1  0  0  0
 71 73  2  0  0  0
 71 81  1  0  0  0
 71144  1  0  0  0
 72 74  2  0  0  0
 72 81  1  0  0  0
 72145  1  0  0  0
 73 74  1  0  0  0
 73 75  1  0  0  0
 74 82  1  0  0  0
 75 76  1  0  0  0
 75 84  2  0  0  0
 76146  1  0  0  0
 76147  1  0  0  0
 76148  1  0  0  0
 77149  1  0  0  0
 77150  1  0  0  0
 77151  1  0  0  0
 77 80  1  0  0  0
 78 79  1  0  0  0
 78 81  1  0  0  0
 78152  1  0  0  0
 78153  1  0  0  0
 79 80  1  0  0  0
 79 83  1  0  0  0
 79154  1  0  0  0
 80155  1  0  0  0
 82156  1  0  0  0
 83157  1  0  0  0
 83158  1  0  0  0
 83159  1  0  0  0
M  CHG  1  83   1
M  ISO  4   1 100  68 101  80 101  82 100
M  END
> <chiral flag>
0

> <version>
0

> <s_m_source_file>
/data/baiqing/PycharmProjects/Reinvent-master-3.2/result/LINK_invent/BTK/process_docking_weight1_custom_sum_contain_oxygen_bond_distance_aromatic_linkinvent_7_9_3/rearranged_h_0112.sdf

> <i_m_source_file_index>
4

> <r_mmod_Potential_Energy-OPLS-2005>
520.118591308594

> <r_mmod_Stretch_Energy-OPLS-2005>
335.487731933594

> <r_mmod_Bend_Energy-OPLS-2005>
320.190551757812

> <r_mmod_Torsional_Energy-OPLS-2005>
315.053680419922

> <r_mmod_Improper_Torsional_Energy-OPLS-2005>
7.42156457901001

> <r_mmod_Van_der_Waal_Energy-OPLS-2005>
95.4150543212891

> <r_mmod_Electrostatic_Energy-OPLS-2005>
-244.905532836914

> <r_mmod_Solvation_Energy-OPLS-2005>
-546.656799316406

> <b_mmod_Minimization_Converged-OPLS-2005>
0

> <r_mmod_RMS_Derivative-OPLS-2005>
5.21302652359009

$$$$
4
                    3D
 Structure written by MMmdl.
163171  0  0  1  0            999 V2000
  -30.6068  -14.5342   20.5879 C   0  0  0  0  0  0
  -30.4516  -12.3523   19.4063 C   0  0  0  0  0  0
  -29.5001  -12.5186   18.1993 C   0  0  0  0  0  0
  -28.0205  -12.3676   18.6141 C   0  0  0  0  0  0
  -27.6662  -13.1934   19.8783 C   0  0  2  0  0  0
  -28.7090  -12.9251   20.9850 C   0  0  0  0  0  0
  -25.2627  -13.8114   20.5666 C   0  0  0  0  0  0
  -24.1855  -13.0413   20.9163 C   0  0  0  0  0  0
  -24.6383  -11.6877   20.8724 C   0  0  0  0  0  0
  -23.9040  -10.4272   21.0398 C   0  0  0  0  0  0
  -24.3601   -9.4198   21.9180 C   0  0  0  0  0  0
  -23.6280   -8.2235   22.0750 C   0  0  0  0  0  0
  -22.4264   -8.0268   21.3542 C   0  0  0  0  0  0
  -21.9894   -9.0240   20.4648 C   0  0  0  0  0  0
  -22.7213  -10.2117   20.3054 C   0  0  0  0  0  0
  -21.6846   -6.0724   22.5275 C   0  0  0  0  0  0
  -21.4009   -6.5633   23.8206 C   0  0  0  0  0  0
  -21.3658   -5.6794   24.9171 C   0  0  0  0  0  0
  -21.6046   -4.3050   24.7224 C   0  0  0  0  0  0
  -21.8822   -3.8140   23.4345 C   0  0  0  0  0  0
  -21.9193   -4.6959   22.3401 C   0  0  0  0  0  0
  -22.7885  -13.5235   21.1836 C   0  0  0  0  0  0
  -22.1664   -4.2139   21.0977 F   0  0  0  0  0  0
  -21.5630   -3.4539   25.7737 F   0  0  0  0  0  0
  -30.0342  -13.3013   20.4523 N   0  0  0  0  0  0
  -26.3045  -12.9261   20.3366 N   0  0  0  0  0  0
  -25.9308  -11.6431   20.5758 N   0  0  0  0  0  0
  -22.0529  -12.8232   22.0396 N   0  0  0  0  0  0
  -25.4373  -15.1829   20.4039 N   0  0  0  0  0  0
  -31.7040  -14.8210   20.0924 O   0  0  0  0  0  0
  -21.6633   -6.8863   21.4232 O   0  0  0  0  0  0
  -22.3573  -14.5543   20.6682 O   0  0  0  0  0  0
  -24.6188  -31.8602   23.2050 C   0  0  0  0  0  0
  -25.9054  -32.4778   23.8357 C   0  0  1  0  0  0
  -27.2346  -27.3826   20.1073 C   0  0  0  0  0  0
  -25.5892  -33.8576   24.2287 N   0  0  0  0  0  0
  -23.4111  -30.4827   21.5455 C   0  0  2  0  0  0
  -24.8580  -28.9334   20.1203 C   0  0  0  0  0  0
  -22.7431  -29.4624   22.4942 C   0  0  0  0  0  0
  -18.0282  -28.1392   22.8467 C   0  0  0  0  0  0
  -24.1495  -36.7288   23.2648 C   0  0  0  0  0  0
  -25.9449  -30.8100   21.3653 C   0  0  0  0  0  0
  -26.0212  -29.4391   20.7146 C   0  0  0  0  0  0
  -27.2161  -28.6737   20.6960 C   0  0  0  0  0  0
  -26.0541  -26.8959   19.5117 C   0  0  0  0  0  0
  -24.8699  -27.6622   19.5170 C   0  0  0  0  0  0
  -23.6248  -29.8114   20.1626 C   0  0  0  0  0  0
  -25.4111  -36.3063   24.0339 C   0  0  1  0  0  0
  -20.5876  -28.3679   23.1286 C   0  0  2  0  0  0
  -20.6774  -26.9407   22.5407 C   0  0  0  0  0  0
  -19.5766  -26.6375   21.5202 C   0  0  0  0  0  0
  -18.1937  -26.7930   22.1605 C   0  0  0  0  0  0
  -19.1531  -28.8845   23.2876 C   0  0  0  0  0  0
  -18.9470  -30.1450   23.8893 C   0  0  0  0  0  0
  -17.6479  -30.6586   24.0573 C   0  0  0  0  0  0
  -25.9024  -34.9443   23.5099 C   0  0  0  0  0  0
  -16.5367  -29.9100   23.6345 C   0  0  0  0  0  0
  -16.7274  -28.6527   23.0340 C   0  0  0  0  0  0
  -26.4473  -31.6596   25.0717 C   0  0  0  0  0  0
  -25.3734  -31.3731   26.1475 C   0  0  0  0  0  0
  -27.0329  -30.3046   24.6111 C   0  0  0  0  0  0
  -27.6035  -32.4329   25.7479 C   0  0  0  0  0  0
  -27.5582  -37.1791   24.8470 C   0  0  0  0  0  0
  -21.4145  -29.3051   22.3699 N   0  0  0  0  0  0
  -26.4287  -37.3755   23.9418 N   0  0  0  0  0  0
  -24.6768  -31.0661   22.0971 N   0  0  0  0  0  0
  -23.4190  -28.8152   23.2988 O   0  0  0  0  0  0
  -28.4035  -26.6393   20.0110 O   0  0  0  0  0  0
  -26.5585  -34.8903   22.4664 O   0  0  0  0  0  0
  -23.5364  -32.1390   23.7415 O   0  0  0  0  0  0
  -30.2501  -17.7794   20.5851 C   0  0  0  0  0  0
  -28.7558  -18.7011   21.9861 C   0  0  0  0  0  0
  -29.6896  -19.0372   21.0368 C   0  0  0  0  0  0
  -29.6552  -16.7647   21.3014 C   0  0  0  0  0  0
  -27.9316  -25.6278   22.2284 C   0  0  0  0  0  0
  -30.1914  -25.7616   21.1525 C   0  0  0  0  0  0
  -27.8411  -16.6125   23.0624 C   0  0  0  0  0  0
  -30.0976  -20.4763   20.6463 C   0  0  0  0  0  0
  -28.4802  -24.0794   20.2347 C   0  0  0  0  0  0
  -29.3089  -22.8782   20.8562 C   0  0  0  0  0  0
  -28.6947  -25.5105   20.8906 C   0  0  0  0  0  0
  -28.7147  -17.3256   22.1454 N   0  0  0  0  0  0
  -29.8281  -15.4014   21.2797 N   0  0  0  0  0  0
  -28.9994  -21.4731   20.4043 N   0  3  0  0  0  0
  -31.4857  -12.5138   19.0963 H   0  0  0  0  0  0
  -30.4119  -11.3305   19.7864 H   0  0  0  0  0  0
  -29.7433  -11.7880   17.4257 H   0  0  0  0  0  0
  -29.6525  -13.5003   17.7475 H   0  0  0  0  0  0
  -27.8346  -11.3093   18.8024 H   0  0  0  0  0  0
  -27.3661  -12.6461   17.7865 H   0  0  0  0  0  0
  -27.7207  -14.2475   19.6032 H   0  0  0  0  0  0
  -28.7100  -11.8655   21.2446 H   0  0  0  0  0  0
  -28.4480  -13.4328   21.9140 H   0  0  0  0  0  0
  -25.2742   -9.5671   22.4758 H   0  0  0  0  0  0
  -23.9987   -7.4621   22.7463 H   0  0  0  0  0  0
  -21.0828   -8.8744   19.8955 H   0  0  0  0  0  0
  -22.3662  -10.9655   19.6166 H   0  0  0  0  0  0
  -21.1999   -7.6140   23.9702 H   0  0  0  0  0  0
  -21.1481   -6.0523   25.9070 H   0  0  0  0  0  0
  -22.0606   -2.7601   23.2847 H   0  0  0  0  0  0
  -22.4135  -11.9888   22.4787 H   0  0  0  0  0  0
  -21.1150  -13.1257   22.2606 H   0  0  0  0  0  0
  -24.6694  -15.8379   20.4964 H   0  0  0  0  0  0
  -26.2874  -15.6147   20.0637 H   0  0  0  0  0  0
  -26.7113  -32.5469   23.1108 H   0  0  0  0  0  0
  -25.0096  -33.9731   25.0470 H   0  0  0  0  0  0
  -22.7042  -31.3026   21.3994 H   0  0  0  0  0  0
  -23.3739  -35.9642   23.3305 H   0  0  0  0  0  0
  -24.3592  -36.8895   22.2065 H   0  0  0  0  0  0
  -23.7270  -37.6503   23.6653 H   0  0  0  0  0  0
  -26.0632  -31.5744   20.5960 H   0  0  0  0  0  0
  -26.8320  -30.8636   21.9848 H   0  0  0  0  0  0
  -28.1234  -29.0658   21.1312 H   0  0  0  0  0  0
  -26.0540  -25.9266   19.0338 H   0  0  0  0  0  0
  -23.9760  -27.2667   19.0545 H   0  0  0  0  0  0
  -23.7437  -30.5874   19.4047 H   0  0  0  0  0  0
  -22.7476  -29.2368   19.8611 H   0  0  0  0  0  0
  -25.1293  -36.1918   25.0829 H   0  0  0  0  0  0
  -20.9980  -28.3240   24.1397 H   0  0  0  0  0  0
  -20.5654  -26.2286   23.3594 H   0  0  0  0  0  0
  -21.6643  -26.7416   22.1212 H   0  0  0  0  0  0
  -19.6933  -25.6280   21.1237 H   0  0  0  0  0  0
  -19.6728  -27.3174   20.6719 H   0  0  0  0  0  0
  -17.4209  -26.6669   21.4008 H   0  0  0  0  0  0
  -18.0342  -26.0080   22.9004 H   0  0  0  0  0  0
  -19.7955  -30.7260   24.2255 H   0  0  0  0  0  0
  -17.5051  -31.6269   24.5179 H   0  0  0  0  0  0
  -15.5378  -30.3024   23.7668 H   0  0  0  0  0  0
  -15.8661  -28.0861   22.7053 H   0  0  0  0  0  0
  -24.5871  -30.7109   25.7807 H   0  0  0  0  0  0
  -24.8979  -32.2924   26.4911 H   0  0  0  0  0  0
  -25.8083  -30.8891   27.0234 H   0  0  0  0  0  0
  -26.2893  -29.6785   24.1153 H   0  0  0  0  0  0
  -27.4125  -29.7278   25.4551 H   0  0  0  0  0  0
  -27.8696  -30.4382   23.9247 H   0  0  0  0  0  0
  -27.2635  -33.3618   26.2070 H   0  0  0  0  0  0
  -28.3836  -32.6919   25.0306 H   0  0  0  0  0  0
  -28.0721  -31.8465   26.5397 H   0  0  0  0  0  0
  -28.2570  -38.0104   24.7487 H   0  0  0  0  0  0
  -28.1094  -36.2627   24.6306 H   0  0  0  0  0  0
  -27.2300  -37.1448   25.8870 H   0  0  0  0  0  0
  -20.9307  -29.8788   21.6927 H   0  0  0  0  0  0
  -26.0167  -38.2822   24.1424 H   0  0  0  0  0  0
  -31.0258  -17.6464   19.8438 H   0  0  0  0  0  0
  -28.1155  -19.3260   22.5949 H   0  0  0  0  0  0
  -28.2343  -24.8536   22.9328 H   0  0  0  0  0  0
  -26.8543  -25.5337   22.0870 H   0  0  0  0  0  0
  -28.1146  -26.5926   22.7032 H   0  0  0  0  0  0
  -30.7719  -25.6894   20.2322 H   0  0  0  0  0  0
  -30.6135  -25.0576   21.8692 H   0  0  0  0  0  0
  -30.3579  -26.7607   21.5572 H   0  0  0  0  0  0
  -27.1436  -17.2989   23.5431 H   0  0  0  0  0  0
  -28.4375  -16.1216   23.8308 H   0  0  0  0  0  0
  -27.2670  -15.8584   22.5239 H   0  0  0  0  0  0
  -30.7364  -20.4397   19.7627 H   0  0  0  0  0  0
  -30.7359  -20.8362   21.4553 H   0  0  0  0  0  0
  -27.4168  -23.8417   20.2557 H   0  0  0  0  0  0
  -28.7402  -24.1463   19.1788 H   0  0  0  0  0  0
  -29.2086  -22.8915   21.9416 H   0  0  0  0  0  0
  -30.3632  -23.0600   20.6471 H   0  0  0  0  0  0
  -29.0923  -14.9024   21.7531 H   0  0  0  0  0  0
  -28.1684  -21.1564   20.8746 H   0  0  0  0  0  0
  -28.8050  -21.4601   19.4166 H   0  0  0  0  0  0
  1 25  1  0  0  0
  1 30  2  0  0  0
  1 83  1  0  0  0
  2  3  1  0  0  0
  2 25  1  0  0  0
  2 85  1  0  0  0
  2 86  1  0  0  0
  3  4  1  0  0  0
  3 87  1  0  0  0
  3 88  1  0  0  0
  4  5  1  0  0  0
  4 89  1  0  0  0
  4 90  1  0  0  0
  5  6  1  0  0  0
  5 26  1  0  0  0
  5 91  1  0  0  0
  6 25  1  0  0  0
  6 92  1  0  0  0
  6 93  1  0  0  0
  7  8  2  0  0  0
  7 26  1  0  0  0
  7 29  1  0  0  0
  8  9  1  0  0  0
  8 22  1  0  0  0
  9 10  1  0  0  0
  9 27  2  0  0  0
 10 11  2  0  0  0
 10 15  1  0  0  0
 11 12  1  0  0  0
 11 94  1  0  0  0
 12 13  2  0  0  0
 12 95  1  0  0  0
 13 14  1  0  0  0
 13 31  1  0  0  0
 14 15  2  0  0  0
 14 96  1  0  0  0
 15 97  1  0  0  0
 16 17  2  0  0  0
 16 21  1  0  0  0
 16 31  1  0  0  0
 17 18  1  0  0  0
 17 98  1  0  0  0
 18 19  2  0  0  0
 18 99  1  0  0  0
 19 20  1  0  0  0
 19 24  1  0  0  0
 20 21  2  0  0  0
 20100  1  0  0  0
 21 23  1  0  0  0
 22 28  1  0  0  0
 22 32  2  0  0  0
 26 27  1  0  0  0
 28101  1  0  0  0
 28102  1  0  0  0
 29103  1  0  0  0
 29104  1  0  0  0
 33 34  1  0  0  0
 33 66  1  0  0  0
 33 70  2  0  0  0
 34 36  1  0  0  0
 34 59  1  0  0  0
 34105  1  0  0  0
 35 44  2  0  0  0
 35 45  1  0  0  0
 35 68  1  0  0  0
 36 56  1  0  0  0
 36106  1  0  0  0
 37 39  1  0  0  0
 37 47  1  0  0  0
 37 66  1  0  0  0
 37107  1  0  0  0
 38 43  2  0  0  0
 38 46  1  0  0  0
 38 47  1  0  0  0
 39 64  1  0  0  0
 39 67  2  0  0  0
 40 52  1  0  0  0
 40 53  2  0  0  0
 40 58  1  0  0  0
 41108  1  0  0  0
 41109  1  0  0  0
 41110  1  0  0  0
 41 48  1  0  0  0
 42 43  1  0  0  0
 42 66  1  0  0  0
 42111  1  0  0  0
 42112  1  0  0  0
 43 44  1  0  0  0
 44113  1  0  0  0
 45 46  2  0  0  0
 45114  1  0  0  0
 46115  1  0  0  0
 47116  1  0  0  0
 47117  1  0  0  0
 48 56  1  0  0  0
 48 65  1  0  0  0
 48118  1  0  0  0
 49 50  1  0  0  0
 49 53  1  0  0  0
 49 64  1  0  0  0
 49119  1  0  0  0
 50 51  1  0  0  0
 50120  1  0  0  0
 50121  1  0  0  0
 51 52  1  0  0  0
 51122  1  0  0  0
 51123  1  0  0  0
 52124  1  0  0  0
 52125  1  0  0  0
 53 54  1  0  0  0
 54 55  2  0  0  0
 54126  1  0  0  0
 55 57  1  0  0  0
 55127  1  0  0  0
 56 69  2  0  0  0
 57 58  2  0  0  0
 57128  1  0  0  0
 58129  1  0  0  0
 59 60  1  0  0  0
 59 61  1  0  0  0
 59 62  1  0  0  0
 60130  1  0  0  0
 60131  1  0  0  0
 60132  1  0  0  0
 61133  1  0  0  0
 61134  1  0  0  0
 61135  1  0  0  0
 62136  1  0  0  0
 62137  1  0  0  0
 62138  1  0  0  0
 63 65  1  0  0  0
 63139  1  0  0  0
 63140  1  0  0  0
 63141  1  0  0  0
 64142  1  0  0  0
 65143  1  0  0  0
 68 81  1  0  0  0
 71 73  1  0  0  0
 71 74  2  0  0  0
 71144  1  0  0  0
 72 73  2  0  0  0
 72 82  1  0  0  0
 72145  1  0  0  0
 73 78  1  0  0  0
 74 82  1  0  0  0
 74 83  1  0  0  0
 75146  1  0  0  0
 75147  1  0  0  0
 75148  1  0  0  0
 75 81  1  0  0  0
 76 81  1  0  0  0
 76149  1  0  0  0
 76150  1  0  0  0
 76151  1  0  0  0
 77 82  1  0  0  0
 77152  1  0  0  0
 77153  1  0  0  0
 77154  1  0  0  0
 78 84  1  0  0  0
 78155  1  0  0  0
 78156  1  0  0  0
 79 80  1  0  0  0
 79 81  1  0  0  0
 79157  1  0  0  0
 79158  1  0  0  0
 80 84  1  0  0  0
 80159  1  0  0  0
 80160  1  0  0  0
 83161  1  0  0  0
 84162  1  0  0  0
 84163  1  0  0  0
M  CHG  1  84   1
M  ISO  4   1 100  68 101  81 101  83 100
M  END
> <chiral flag>
0

> <version>
0

> <s_m_source_file>
/data/baiqing/PycharmProjects/Reinvent-master-3.2/result/LINK_invent/BTK/process_docking_weight1_custom_sum_contain_oxygen_bond_distance_aromatic_linkinvent_7_9_3/rearranged_h_0112.sdf

> <i_m_source_file_index>
5

> <r_mmod_Potential_Energy-OPLS-2005>
-202.959701538086

> <r_mmod_Stretch_Energy-OPLS-2005>
54.2998008728027

> <r_mmod_Bend_Energy-OPLS-2005>
155.418563842773

> <r_mmod_Torsional_Energy-OPLS-2005>
244.908599853516

> <r_mmod_Improper_Torsional_Energy-OPLS-2005>
3.46647047996521

> <r_mmod_Van_der_Waal_Energy-OPLS-2005>
118.757034301758

> <r_mmod_Electrostatic_Energy-OPLS-2005>
-338.162719726562

> <r_mmod_Solvation_Energy-OPLS-2005>
-464.388214111328

> <b_mmod_Minimization_Converged-OPLS-2005>
0

> <r_mmod_RMS_Derivative-OPLS-2005>
2.44596338272095

$$$$
5
                    3D
 Structure written by MMmdl.
165173  0  0  1  0            999 V2000
  -30.7166  -14.4321   20.5761 C   0  0  0  0  0  0
  -30.4165  -12.2834   19.4162 C   0  0  0  0  0  0
  -29.4911  -12.5018   18.2016 C   0  0  0  0  0  0
  -28.0111  -12.3737   18.6129 C   0  0  0  0  0  0
  -27.6641  -13.2050   19.8778 C   0  0  2  0  0  0
  -28.7040  -12.9680   20.9968 C   0  0  0  0  0  0
  -25.2596  -13.8163   20.5678 C   0  0  0  0  0  0
  -24.1840  -13.0438   20.9177 C   0  0  0  0  0  0
  -24.6391  -11.6904   20.8722 C   0  0  0  0  0  0
  -23.9059  -10.4292   21.0395 C   0  0  0  0  0  0
  -24.3613   -9.4209   21.9177 C   0  0  0  0  0  0
  -23.6291   -8.2243   22.0752 C   0  0  0  0  0  0
  -22.4275   -8.0280   21.3544 C   0  0  0  0  0  0
  -21.9902   -9.0248   20.4648 C   0  0  0  0  0  0
  -22.7226  -10.2134   20.3050 C   0  0  0  0  0  0
  -21.6852   -6.0731   22.5275 C   0  0  0  0  0  0
  -21.4013   -6.5636   23.8210 C   0  0  0  0  0  0
  -21.3662   -5.6793   24.9174 C   0  0  0  0  0  0
  -21.6038   -4.3051   24.7231 C   0  0  0  0  0  0
  -21.8825   -3.8142   23.4351 C   0  0  0  0  0  0
  -21.9196   -4.6959   22.3402 C   0  0  0  0  0  0
  -22.7864  -13.5236   21.1829 C   0  0  0  0  0  0
  -22.1663   -4.2142   21.0981 F   0  0  0  0  0  0
  -21.5631   -3.4540   25.7746 F   0  0  0  0  0  0
  -30.0393  -13.2614   20.4486 N   0  0  0  0  0  0
  -26.3030  -12.9329   20.3372 N   0  0  0  0  0  0
  -25.9317  -11.6486   20.5757 N   0  0  0  0  0  0
  -22.0507  -12.8237   22.0404 N   0  0  0  0  0  0
  -25.4301  -15.1878   20.4082 N   0  0  0  0  0  0
  -31.8363  -14.5962   20.0855 O   0  0  0  0  0  0
  -21.6636   -6.8875   21.4237 O   0  0  0  0  0  0
  -22.3549  -14.5541   20.6681 O   0  0  0  0  0  0
  -24.6124  -31.8674   23.2119 C   0  0  0  0  0  0
  -25.9036  -32.4802   23.8389 C   0  0  1  0  0  0
  -27.2309  -27.4462   20.0998 C   0  0  0  0  0  0
  -25.5924  -33.8599   24.2327 N   0  0  0  0  0  0
  -23.3983  -30.4942   21.5475 C   0  0  2  0  0  0
  -24.8460  -28.9631   20.1121 C   0  0  0  0  0  0
  -22.7391  -29.4668   22.4956 C   0  0  0  0  0  0
  -18.0274  -28.1368   22.8462 C   0  0  0  0  0  0
  -24.1499  -36.7314   23.2641 C   0  0  0  0  0  0
  -25.9253  -30.8383   21.3640 C   0  0  0  0  0  0
  -26.0039  -29.4746   20.7104 C   0  0  0  0  0  0
  -27.1996  -28.7228   20.7032 C   0  0  0  0  0  0
  -26.0569  -26.9554   19.4804 C   0  0  0  0  0  0
  -24.8654  -27.7015   19.4955 C   0  0  0  0  0  0
  -23.6076  -29.8279   20.1611 C   0  0  0  0  0  0
  -25.4113  -36.3090   24.0334 C   0  0  1  0  0  0
  -20.5860  -28.3661   23.1301 C   0  0  2  0  0  0
  -20.6757  -26.9391   22.5416 C   0  0  0  0  0  0
  -19.5760  -26.6374   21.5183 C   0  0  0  0  0  0
  -18.1926  -26.7915   22.1580 C   0  0  0  0  0  0
  -19.1520  -28.8824   23.2881 C   0  0  0  0  0  0
  -18.9460  -30.1430   23.8897 C   0  0  0  0  0  0
  -17.6470  -30.6577   24.0562 C   0  0  0  0  0  0
  -25.9025  -34.9453   23.5112 C   0  0  0  0  0  0
  -16.5359  -29.9080   23.6320 C   0  0  0  0  0  0
  -16.7266  -28.6501   23.0317 C   0  0  0  0  0  0
  -26.4481  -31.6587   25.0707 C   0  0  0  0  0  0
  -25.3750  -31.3724   26.1465 C   0  0  0  0  0  0
  -27.0317  -30.3028   24.6089 C   0  0  0  0  0  0
  -27.6068  -32.4307   25.7455 C   0  0  0  0  0  0
  -27.5595  -37.1801   24.8451 C   0  0  0  0  0  0
  -21.4124  -29.3042   22.3707 N   0  0  0  0  0  0
  -26.4305  -37.3772   23.9395 N   0  0  0  0  0  0
  -24.6624  -31.0802   22.1005 N   0  0  0  0  0  0
  -23.4169  -28.8203   23.2991 O   0  0  0  0  0  0
  -28.3971  -26.7112   20.1426 O   0  0  0  0  0  0
  -26.5579  -34.8914   22.4669 O   0  0  0  0  0  0
  -23.5326  -32.1425   23.7533 O   0  0  0  0  0  0
  -29.1361  -19.0486   21.0039 C   0  0  0  0  0  0
  -29.0689  -17.6584   21.2320 C   0  0  0  0  0  0
  -31.4036  -17.4497   20.5962 C   0  0  0  0  0  0
  -30.3264  -19.6430   20.5344 C   0  0  0  0  0  0
  -31.4718  -18.8343   20.3389 C   0  0  0  0  0  0
  -30.1934  -16.8357   21.0045 C   0  0  0  0  0  0
  -32.7768  -19.4155   19.8162 C   0  0  0  0  0  0
  -31.2897  -25.4596   19.7233 C   0  0  0  0  0  0
  -30.3517  -21.1338   20.2196 C   0  0  0  0  0  0
  -30.9147  -21.9870   21.3717 C   0  0  0  0  0  0
  -31.5053  -23.3457   20.9257 C   0  0  0  0  0  0
  -29.3555  -24.6123   21.0096 C   0  0  0  0  0  0
  -28.2391  -25.2872   20.1900 C   0  0  0  0  0  0
  -30.0373  -15.4256   21.1824 N   0  0  0  0  0  0
  -30.5667  -24.2614   20.2161 N   0  3  1  0  0  0
  -31.4624  -12.3675   19.1149 H   0  0  0  0  0  0
  -30.3036  -11.2701   19.8044 H   0  0  0  0  0  0
  -29.7216  -11.7778   17.4188 H   0  0  0  0  0  0
  -29.6721  -13.4875   17.7701 H   0  0  0  0  0  0
  -27.8092  -11.3181   18.7960 H   0  0  0  0  0  0
  -27.3660  -12.6649   17.7836 H   0  0  0  0  0  0
  -27.7150  -14.2561   19.5931 H   0  0  0  0  0  0
  -28.6706  -11.9285   21.3262 H   0  0  0  0  0  0
  -28.4691  -13.5581   21.8829 H   0  0  0  0  0  0
  -25.2760   -9.5686   22.4746 H   0  0  0  0  0  0
  -24.0002   -7.4637   22.7470 H   0  0  0  0  0  0
  -21.0830   -8.8765   19.8954 H   0  0  0  0  0  0
  -22.3676  -10.9672   19.6159 H   0  0  0  0  0  0
  -21.2003   -7.6148   23.9711 H   0  0  0  0  0  0
  -21.1477   -6.0525   25.9079 H   0  0  0  0  0  0
  -22.0603   -2.7606   23.2856 H   0  0  0  0  0  0
  -22.4132  -11.9913   22.4809 H   0  0  0  0  0  0
  -21.1112  -13.1248   22.2585 H   0  0  0  0  0  0
  -24.6581  -15.8383   20.5042 H   0  0  0  0  0  0
  -26.2791  -15.6272   20.0754 H   0  0  0  0  0  0
  -26.7107  -32.5535   23.1151 H   0  0  0  0  0  0
  -25.0106  -33.9760   25.0492 H   0  0  0  0  0  0
  -22.6869  -31.3106   21.4071 H   0  0  0  0  0  0
  -23.3750  -35.9659   23.3273 H   0  0  0  0  0  0
  -24.3611  -36.8947   22.2065 H   0  0  0  0  0  0
  -23.7252  -37.6508   23.6674 H   0  0  0  0  0  0
  -26.0365  -31.6081   20.5983 H   0  0  0  0  0  0
  -26.8121  -30.8909   21.9828 H   0  0  0  0  0  0
  -28.0907  -29.1045   21.1826 H   0  0  0  0  0  0
  -26.0426  -25.9980   18.9802 H   0  0  0  0  0  0
  -23.9758  -27.3051   19.0246 H   0  0  0  0  0  0
  -23.7164  -30.6001   19.3981 H   0  0  0  0  0  0
  -22.7336  -29.2429   19.8682 H   0  0  0  0  0  0
  -25.1287  -36.1955   25.0828 H   0  0  0  0  0  0
  -20.9955  -28.3260   24.1418 H   0  0  0  0  0  0
  -20.5614  -26.2286   23.3616 H   0  0  0  0  0  0
  -21.6647  -26.7409   22.1257 H   0  0  0  0  0  0
  -19.6924  -25.6278   21.1227 H   0  0  0  0  0  0
  -19.6730  -27.3175   20.6705 H   0  0  0  0  0  0
  -17.4201  -26.6670   21.3971 H   0  0  0  0  0  0
  -18.0328  -26.0051   22.8972 H   0  0  0  0  0  0
  -19.7949  -30.7215   24.2303 H   0  0  0  0  0  0
  -17.5036  -31.6260   24.5170 H   0  0  0  0  0  0
  -15.5362  -30.2981   23.7642 H   0  0  0  0  0  0
  -15.8669  -28.0835   22.7005 H   0  0  0  0  0  0
  -24.5927  -30.7050   25.7824 H   0  0  0  0  0  0
  -24.8945  -32.2907   26.4874 H   0  0  0  0  0  0
  -25.8114  -30.8938   27.0242 H   0  0  0  0  0  0
  -26.2863  -29.6758   24.1185 H   0  0  0  0  0  0
  -27.4123  -29.7300   25.4554 H   0  0  0  0  0  0
  -27.8679  -30.4322   23.9208 H   0  0  0  0  0  0
  -27.2688  -33.3593   26.2066 H   0  0  0  0  0  0
  -28.3860  -32.6881   25.0264 H   0  0  0  0  0  0
  -28.0749  -31.8403   26.5337 H   0  0  0  0  0  0
  -28.2589  -38.0126   24.7513 H   0  0  0  0  0  0
  -28.1114  -36.2651   24.6239 H   0  0  0  0  0  0
  -27.2328  -37.1408   25.8863 H   0  0  0  0  0  0
  -20.9268  -29.8804   21.6972 H   0  0  0  0  0  0
  -26.0190  -38.2840   24.1425 H   0  0  0  0  0  0
  -28.2535  -19.6534   21.1651 H   0  0  0  0  0  0
  -28.1323  -17.2297   21.5611 H   0  0  0  0  0  0
  -32.3013  -16.8700   20.4447 H   0  0  0  0  0  0
  -33.5883  -18.6902   19.8756 H   0  0  0  0  0  0
  -33.0844  -20.2939   20.3816 H   0  0  0  0  0  0
  -32.6682  -19.7027   18.7696 H   0  0  0  0  0  0
  -32.1301  -25.1769   19.0884 H   0  0  0  0  0  0
  -31.6812  -26.0467   20.5550 H   0  0  0  0  0  0
  -30.6497  -26.1042   19.1228 H   0  0  0  0  0  0
  -29.3425  -21.4693   19.9743 H   0  0  0  0  0  0
  -30.9356  -21.2880   19.3119 H   0  0  0  0  0  0
  -31.7307  -21.4410   21.8462 H   0  0  0  0  0  0
  -30.1743  -22.0997   22.1634 H   0  0  0  0  0  0
  -32.3518  -23.1435   20.2675 H   0  0  0  0  0  0
  -31.9190  -23.8606   21.7928 H   0  0  0  0  0  0
  -28.9116  -23.6932   21.3896 H   0  0  0  0  0  0
  -29.6141  -25.2058   21.8869 H   0  0  0  0  0  0
  -27.3028  -25.0320   20.6911 H   0  0  0  0  0  0
  -28.1803  -24.8745   19.1824 H   0  0  0  0  0  0
  -29.1546  -15.1308   21.5707 H   0  0  0  0  0  0
  -30.2576  -23.7688   19.3898 H   0  0  0  0  0  0
  1 25  1  0  0  0
  1 30  2  0  0  0
  1 84  1  0  0  0
  2  3  1  0  0  0
  2 25  1  0  0  0
  2 86  1  0  0  0
  2 87  1  0  0  0
  3  4  1  0  0  0
  3 88  1  0  0  0
  3 89  1  0  0  0
  4  5  1  0  0  0
  4 90  1  0  0  0
  4 91  1  0  0  0
  5  6  1  0  0  0
  5 26  1  0  0  0
  5 92  1  0  0  0
  6 25  1  0  0  0
  6 93  1  0  0  0
  6 94  1  0  0  0
  7  8  2  0  0  0
  7 26  1  0  0  0
  7 29  1  0  0  0
  8  9  1  0  0  0
  8 22  1  0  0  0
  9 10  1  0  0  0
  9 27  2  0  0  0
 10 11  2  0  0  0
 10 15  1  0  0  0
 11 12  1  0  0  0
 11 95  1  0  0  0
 12 13  2  0  0  0
 12 96  1  0  0  0
 13 14  1  0  0  0
 13 31  1  0  0  0
 14 15  2  0  0  0
 14 97  1  0  0  0
 15 98  1  0  0  0
 16 17  2  0  0  0
 16 21  1  0  0  0
 16 31  1  0  0  0
 17 18  1  0  0  0
 17 99  1  0  0  0
 18 19  2  0  0  0
 18100  1  0  0  0
 19 20  1  0  0  0
 19 24  1  0  0  0
 20 21  2  0  0  0
 20101  1  0  0  0
 21 23  1  0  0  0
 22 28  1  0  0  0
 22 32  2  0  0  0
 26 27  1  0  0  0
 28102  1  0  0  0
 28103  1  0  0  0
 29104  1  0  0  0
 29105  1  0  0  0
 33 34  1  0  0  0
 33 66  1  0  0  0
 33 70  2  0  0  0
 34 36  1  0  0  0
 34 59  1  0  0  0
 34106  1  0  0  0
 35 44  2  0  0  0
 35 45  1  0  0  0
 35 68  1  0  0  0
 36 56  1  0  0  0
 36107  1  0  0  0
 37 39  1  0  0  0
 37 47  1  0  0  0
 37 66  1  0  0  0
 37108  1  0  0  0
 38 43  2  0  0  0
 38 46  1  0  0  0
 38 47  1  0  0  0
 39 64  1  0  0  0
 39 67  2  0  0  0
 40 52  1  0  0  0
 40 53  2  0  0  0
 40 58  1  0  0  0
 41109  1  0  0  0
 41110  1  0  0  0
 41111  1  0  0  0
 41 48  1  0  0  0
 42 43  1  0  0  0
 42 66  1  0  0  0
 42112  1  0  0  0
 42113  1  0  0  0
 43 44  1  0  0  0
 44114  1  0  0  0
 45 46  2  0  0  0
 45115  1  0  0  0
 46116  1  0  0  0
 47117  1  0  0  0
 47118  1  0  0  0
 48 56  1  0  0  0
 48 65  1  0  0  0
 48119  1  0  0  0
 49 50  1  0  0  0
 49 53  1  0  0  0
 49 64  1  0  0  0
 49120  1  0  0  0
 50 51  1  0  0  0
 50121  1  0  0  0
 50122  1  0  0  0
 51 52  1  0  0  0
 51123  1  0  0  0
 51124  1  0  0  0
 52125  1  0  0  0
 52126  1  0  0  0
 53 54  1  0  0  0
 54 55  2  0  0  0
 54127  1  0  0  0
 55 57  1  0  0  0
 55128  1  0  0  0
 56 69  2  0  0  0
 57 58  2  0  0  0
 57129  1  0  0  0
 58130  1  0  0  0
 59 60  1  0  0  0
 59 61  1  0  0  0
 59 62  1  0  0  0
 60131  1  0  0  0
 60132  1  0  0  0
 60133  1  0  0  0
 61134  1  0  0  0
 61135  1  0  0  0
 61136  1  0  0  0
 62137  1  0  0  0
 62138  1  0  0  0
 62139  1  0  0  0
 63 65  1  0  0  0
 63140  1  0  0  0
 63141  1  0  0  0
 63142  1  0  0  0
 64143  1  0  0  0
 65144  1  0  0  0
 68 83  1  0  0  0
 71 72  2  0  0  0
 71 74  1  0  0  0
 71145  1  0  0  0
 72 76  1  0  0  0
 72146  1  0  0  0
 73 75  1  0  0  0
 73 76  2  0  0  0
 73147  1  0  0  0
 74 75  2  0  0  0
 74 79  1  0  0  0
 75 77  1  0  0  0
 76 84  1  0  0  0
 77148  1  0  0  0
 77149  1  0  0  0
 77150  1  0  0  0
 78151  1  0  0  0
 78152  1  0  0  0
 78153  1  0  0  0
 78 85  1  0  0  0
 79 80  1  0  0  0
 79154  1  0  0  0
 79155  1  0  0  0
 80 81  1  0  0  0
 80156  1  0  0  0
 80157  1  0  0  0
 81 85  1  0  0  0
 81158  1  0  0  0
 81159  1  0  0  0
 82 83  1  0  0  0
 82 85  1  0  0  0
 82160  1  0  0  0
 82161  1  0  0  0
 83162  1  0  0  0
 83163  1  0  0  0
 84164  1  0  0  0
 85165  1  0  0  0
M  CHG  1  85   1
M  ISO  4   1 100  68 101  83 101  84 100
M  END
> <chiral flag>
0

> <version>
0

> <s_m_source_file>
/data/baiqing/PycharmProjects/Reinvent-master-3.2/result/LINK_invent/BTK/process_docking_weight1_custom_sum_contain_oxygen_bond_distance_aromatic_linkinvent_7_9_3/rearranged_h_0112.sdf

> <i_m_source_file_index>
6

> <r_mmod_Potential_Energy-OPLS-2005>
-122.75365447998

> <r_mmod_Stretch_Energy-OPLS-2005>
35.6794357299805

> <r_mmod_Bend_Energy-OPLS-2005>
99.9422912597656

> <r_mmod_Torsional_Energy-OPLS-2005>
236.948318481445

> <r_mmod_Improper_Torsional_Energy-OPLS-2005>
3.81066179275513

> <r_mmod_Van_der_Waal_Energy-OPLS-2005>
167.076217651367

> <r_mmod_Electrostatic_Energy-OPLS-2005>
-253.227066040039

> <r_mmod_Solvation_Energy-OPLS-2005>
-424.542419433594

> <b_mmod_Minimization_Converged-OPLS-2005>
0

> <r_mmod_RMS_Derivative-OPLS-2005>
2.16360354423523

$$$$
6
                    3D
 Structure written by MMmdl.
162170  0  0  1  0            999 V2000
  -30.6695  -14.5204   20.5215 C   0  0  0  0  0  0
  -30.4298  -12.3220   19.4344 C   0  0  0  0  0  0
  -29.5065  -12.4956   18.2108 C   0  0  0  0  0  0
  -28.0313  -12.3283   18.6262 C   0  0  0  0  0  0
  -27.6578  -13.2021   19.8561 C   0  0  2  0  0  0
  -28.6977  -13.0235   20.9893 C   0  0  0  0  0  0
  -25.2581  -13.8155   20.5613 C   0  0  0  0  0  0
  -24.1833  -13.0447   20.9163 C   0  0  0  0  0  0
  -24.6371  -11.6906   20.8690 C   0  0  0  0  0  0
  -23.9027  -10.4293   21.0368 C   0  0  0  0  0  0
  -24.3595   -9.4211   21.9144 C   0  0  0  0  0  0
  -23.6281   -8.2237   22.0725 C   0  0  0  0  0  0
  -22.4246   -8.0264   21.3538 C   0  0  0  0  0  0
  -21.9873   -9.0222   20.4639 C   0  0  0  0  0  0
  -22.7188  -10.2108   20.3024 C   0  0  0  0  0  0
  -21.6855   -6.0714   22.5281 C   0  0  0  0  0  0
  -21.4024   -6.5629   23.8217 C   0  0  0  0  0  0
  -21.3665   -5.6779   24.9177 C   0  0  0  0  0  0
  -21.6044   -4.3044   24.7226 C   0  0  0  0  0  0
  -21.8829   -3.8127   23.4358 C   0  0  0  0  0  0
  -21.9200   -4.6939   22.3402 C   0  0  0  0  0  0
  -22.7862  -13.5250   21.1810 C   0  0  0  0  0  0
  -22.1665   -4.2135   21.0975 F   0  0  0  0  0  0
  -21.5620   -3.4521   25.7740 F   0  0  0  0  0  0
  -30.0248  -13.3270   20.4323 N   0  0  0  0  0  0
  -26.2993  -12.9314   20.3223 N   0  0  0  0  0  0
  -25.9287  -11.6480   20.5673 N   0  0  0  0  0  0
  -22.0504  -12.8272   22.0401 N   0  0  0  0  0  0
  -25.4275  -15.1871   20.3981 N   0  0  0  0  0  0
  -31.8176  -14.6899   20.1058 O   0  0  0  0  0  0
  -21.6640   -6.8842   21.4232 O   0  0  0  0  0  0
  -22.3558  -14.5546   20.6627 O   0  0  0  0  0  0
  -24.6085  -31.8703   23.2124 C   0  0  0  0  0  0
  -25.8976  -32.4847   23.8428 C   0  0  1  0  0  0
  -27.2355  -27.4622   20.1134 C   0  0  0  0  0  0
  -25.5824  -33.8641   24.2331 N   0  0  0  0  0  0
  -23.3976  -30.4942   21.5484 C   0  0  2  0  0  0
  -24.8497  -28.9641   20.1149 C   0  0  0  0  0  0
  -22.7400  -29.4677   22.4978 C   0  0  0  0  0  0
  -18.0263  -28.1412   22.8496 C   0  0  0  0  0  0
  -24.1475  -36.7345   23.2645 C   0  0  0  0  0  0
  -25.9236  -30.8448   21.3627 C   0  0  0  0  0  0
  -26.0056  -29.4827   20.7116 C   0  0  0  0  0  0
  -27.2065  -28.7419   20.7017 C   0  0  0  0  0  0
  -26.0676  -26.9462   19.5137 C   0  0  0  0  0  0
  -24.8744  -27.6938   19.5089 C   0  0  0  0  0  0
  -23.6098  -29.8262   20.1626 C   0  0  0  0  0  0
  -25.4098  -36.3136   24.0338 C   0  0  1  0  0  0
  -20.5846  -28.3683   23.1320 C   0  0  2  0  0  0
  -20.6747  -26.9413   22.5436 C   0  0  0  0  0  0
  -19.5728  -26.6416   21.5220 C   0  0  0  0  0  0
  -18.1908  -26.7963   22.1630 C   0  0  0  0  0  0
  -19.1509  -28.8854   23.2914 C   0  0  0  0  0  0
  -18.9454  -30.1464   23.8935 C   0  0  0  0  0  0
  -17.6457  -30.6610   24.0577 C   0  0  0  0  0  0
  -25.9017  -34.9502   23.5151 C   0  0  0  0  0  0
  -16.5348  -29.9132   23.6326 C   0  0  0  0  0  0
  -16.7251  -28.6548   23.0343 C   0  0  0  0  0  0
  -26.4436  -31.6643   25.0765 C   0  0  0  0  0  0
  -25.3730  -31.3752   26.1547 C   0  0  0  0  0  0
  -27.0234  -30.3071   24.6150 C   0  0  0  0  0  0
  -27.6037  -32.4382   25.7469 C   0  0  0  0  0  0
  -27.5581  -37.1823   24.8454 C   0  0  0  0  0  0
  -21.4123  -29.3053   22.3726 N   0  0  0  0  0  0
  -26.4294  -37.3817   23.9404 N   0  0  0  0  0  0
  -24.6613  -31.0858   22.0997 N   0  0  0  0  0  0
  -23.4192  -28.8207   23.2992 O   0  0  0  0  0  0
  -28.3943  -26.7272   20.1117 O   0  0  0  0  0  0
  -26.5631  -34.8937   22.4740 O   0  0  0  0  0  0
  -23.5290  -32.1425   23.7546 O   0  0  0  0  0  0
  -30.0223  -20.6953   17.8979 C   0  0  0  0  0  0
  -29.8204  -19.4125   18.4437 C   0  0  0  0  0  0
  -29.7371  -21.8456   18.6533 C   0  0  0  0  0  0
  -28.9462  -20.4301   20.4741 C   0  0  0  0  0  0
  -29.2653  -19.2603   19.7329 C   0  0  0  0  0  0
  -29.2130  -21.7353   19.9628 C   0  0  0  0  0  0
  -30.5717  -24.8315   19.9114 C   0  0  0  0  0  0
  -28.9635  -17.8427   20.2559 C   0  0  0  0  0  0
  -30.2054  -17.0025   20.6845 C   0  0  0  0  0  0
  -28.3413  -25.5179   20.8796 C   0  0  0  0  0  0
  -28.9692  -22.9841   20.8466 C   0  0  2  0  0  0
  -29.1065  -24.3857   20.1484 C   0  0  2  0  0  0
  -29.8989  -15.5692   20.8919 N   0  0  0  0  0  0
  -29.8613  -22.9048   22.0122 N   0  3  0  0  0  0
  -31.4777  -12.4165   19.1466 H   0  0  0  0  0  0
  -30.3302  -11.3194   19.8526 H   0  0  0  0  0  0
  -29.7646  -11.7725   17.4357 H   0  0  0  0  0  0
  -29.6558  -13.4810   17.7670 H   0  0  0  0  0  0
  -27.8764  -11.2743   18.8649 H   0  0  0  0  0  0
  -27.3749  -12.5453   17.7833 H   0  0  0  0  0  0
  -27.6886  -14.2384   19.5167 H   0  0  0  0  0  0
  -28.6820  -12.0009   21.3734 H   0  0  0  0  0  0
  -28.4589  -13.6621   21.8412 H   0  0  0  0  0  0
  -25.2753   -9.5728   22.4676 H   0  0  0  0  0  0
  -24.0021   -7.4662   22.7442 H   0  0  0  0  0  0
  -21.0806   -8.8723   19.8968 H   0  0  0  0  0  0
  -22.3634  -10.9611   19.6112 H   0  0  0  0  0  0
  -21.2012   -7.6139   23.9734 H   0  0  0  0  0  0
  -21.1472   -6.0492   25.9094 H   0  0  0  0  0  0
  -22.0595   -2.7584   23.2849 H   0  0  0  0  0  0
  -22.4119  -11.9984   22.4898 H   0  0  0  0  0  0
  -21.1102  -13.1288   22.2505 H   0  0  0  0  0  0
  -24.6450  -15.8280   20.4713 H   0  0  0  0  0  0
  -26.2647  -15.6252   20.0351 H   0  0  0  0  0  0
  -26.7050  -32.5577   23.1198 H   0  0  0  0  0  0
  -24.9827  -33.9787   25.0372 H   0  0  0  0  0  0
  -22.6862  -31.3103   21.4082 H   0  0  0  0  0  0
  -23.3732  -35.9684   23.3326 H   0  0  0  0  0  0
  -24.3550  -36.8965   22.2054 H   0  0  0  0  0  0
  -23.7242  -37.6556   23.6670 H   0  0  0  0  0  0
  -26.0371  -31.6138   20.5963 H   0  0  0  0  0  0
  -26.8093  -30.8960   21.9859 H   0  0  0  0  0  0
  -28.0994  -29.1432   21.1639 H   0  0  0  0  0  0
  -26.0850  -25.9671   19.0590 H   0  0  0  0  0  0
  -23.9869  -27.2890   19.0448 H   0  0  0  0  0  0
  -23.7177  -30.5981   19.4006 H   0  0  0  0  0  0
  -22.7370  -29.2424   19.8678 H   0  0  0  0  0  0
  -25.1269  -36.2016   25.0835 H   0  0  0  0  0  0
  -20.9943  -28.3274   24.1429 H   0  0  0  0  0  0
  -20.5640  -26.2286   23.3627 H   0  0  0  0  0  0
  -21.6618  -26.7464   22.1229 H   0  0  0  0  0  0
  -19.6882  -25.6337   21.1223 H   0  0  0  0  0  0
  -19.6680  -27.3241   20.6762 H   0  0  0  0  0  0
  -17.4178  -26.6717   21.4032 H   0  0  0  0  0  0
  -18.0309  -26.0104   22.9026 H   0  0  0  0  0  0
  -19.7930  -30.7266   24.2337 H   0  0  0  0  0  0
  -17.5020  -31.6282   24.5210 H   0  0  0  0  0  0
  -15.5353  -30.3061   23.7628 H   0  0  0  0  0  0
  -15.8649  -28.0898   22.7037 H   0  0  0  0  0  0
  -24.5825  -30.7178   25.7890 H   0  0  0  0  0  0
  -24.8999  -32.2912   26.5114 H   0  0  0  0  0  0
  -25.8098  -30.8824   27.0241 H   0  0  0  0  0  0
  -26.2736  -29.6853   24.1231 H   0  0  0  0  0  0
  -27.3981  -29.7315   25.4624 H   0  0  0  0  0  0
  -27.8606  -30.4356   23.9279 H   0  0  0  0  0  0
  -27.2663  -33.3660   26.2100 H   0  0  0  0  0  0
  -28.3775  -32.7003   25.0239 H   0  0  0  0  0  0
  -28.0791  -31.8500   26.5328 H   0  0  0  0  0  0
  -28.2626  -38.0096   24.7491 H   0  0  0  0  0  0
  -28.1056  -36.2636   24.6294 H   0  0  0  0  0  0
  -27.2299  -37.1491   25.8858 H   0  0  0  0  0  0
  -20.9291  -29.8783   21.6950 H   0  0  0  0  0  0
  -26.0197  -38.2898   24.1430 H   0  0  0  0  0  0
  -30.4083  -20.8031   16.8919 H   0  0  0  0  0  0
  -30.0760  -18.5428   17.8549 H   0  0  0  0  0  0
  -29.9349  -22.8067   18.1966 H   0  0  0  0  0  0
  -28.4944  -20.3219   21.4511 H   0  0  0  0  0  0
  -30.6211  -25.5818   19.1223 H   0  0  0  0  0  0
  -31.2329  -24.0171   19.6179 H   0  0  0  0  0  0
  -31.0008  -25.2945   20.8021 H   0  0  0  0  0  0
  -28.4298  -17.3139   19.4641 H   0  0  0  0  0  0
  -28.2504  -17.9061   21.0787 H   0  0  0  0  0  0
  -30.6337  -17.4151   21.5988 H   0  0  0  0  0  0
  -30.9783  -17.0989   19.9203 H   0  0  0  0  0  0
  -28.7950  -25.7227   21.8504 H   0  0  0  0  0  0
  -27.3170  -25.2089   21.0970 H   0  0  0  0  0  0
  -27.9412  -22.8959   21.2074 H   0  0  0  0  0  0
  -28.6104  -24.3084   19.1808 H   0  0  0  0  0  0
  -28.9776  -15.3438   21.2331 H   0  0  0  0  0  0
  -30.8115  -23.0066   21.7056 H   0  0  0  0  0  0
  -29.7642  -22.0094   22.4542 H   0  0  0  0  0  0
  -29.6467  -23.6136   22.6903 H   0  0  0  0  0  0
  1 25  1  0  0  0
  1 30  2  0  0  0
  1 83  1  0  0  0
  2  3  1  0  0  0
  2 25  1  0  0  0
  2 85  1  0  0  0
  2 86  1  0  0  0
  3  4  1  0  0  0
  3 87  1  0  0  0
  3 88  1  0  0  0
  4  5  1  0  0  0
  4 89  1  0  0  0
  4 90  1  0  0  0
  5  6  1  0  0  0
  5 26  1  0  0  0
  5 91  1  0  0  0
  6 25  1  0  0  0
  6 92  1  0  0  0
  6 93  1  0  0  0
  7  8  2  0  0  0
  7 26  1  0  0  0
  7 29  1  0  0  0
  8  9  1  0  0  0
  8 22  1  0  0  0
  9 10  1  0  0  0
  9 27  2  0  0  0
 10 11  2  0  0  0
 10 15  1  0  0  0
 11 12  1  0  0  0
 11 94  1  0  0  0
 12 13  2  0  0  0
 12 95  1  0  0  0
 13 14  1  0  0  0
 13 31  1  0  0  0
 14 15  2  0  0  0
 14 96  1  0  0  0
 15 97  1  0  0  0
 16 17  2  0  0  0
 16 21  1  0  0  0
 16 31  1  0  0  0
 17 18  1  0  0  0
 17 98  1  0  0  0
 18 19  2  0  0  0
 18 99  1  0  0  0
 19 20  1  0  0  0
 19 24  1  0  0  0
 20 21  2  0  0  0
 20100  1  0  0  0
 21 23  1  0  0  0
 22 28  1  0  0  0
 22 32  2  0  0  0
 26 27  1  0  0  0
 28101  1  0  0  0
 28102  1  0  0  0
 29103  1  0  0  0
 29104  1  0  0  0
 33 34  1  0  0  0
 33 66  1  0  0  0
 33 70  2  0  0  0
 34 36  1  0  0  0
 34 59  1  0  0  0
 34105  1  0  0  0
 35 44  2  0  0  0
 35 45  1  0  0  0
 35 68  1  0  0  0
 36 56  1  0  0  0
 36106  1  0  0  0
 37 39  1  0  0  0
 37 47  1  0  0  0
 37 66  1  0  0  0
 37107  1  0  0  0
 38 43  2  0  0  0
 38 46  1  0  0  0
 38 47  1  0  0  0
 39 64  1  0  0  0
 39 67  2  0  0  0
 40 52  1  0  0  0
 40 53  2  0  0  0
 40 58  1  0  0  0
 41108  1  0  0  0
 41109  1  0  0  0
 41110  1  0  0  0
 41 48  1  0  0  0
 42 43  1  0  0  0
 42 66  1  0  0  0
 42111  1  0  0  0
 42112  1  0  0  0
 43 44  1  0  0  0
 44113  1  0  0  0
 45 46  2  0  0  0
 45114  1  0  0  0
 46115  1  0  0  0
 47116  1  0  0  0
 47117  1  0  0  0
 48 56  1  0  0  0
 48 65  1  0  0  0
 48118  1  0  0  0
 49 50  1  0  0  0
 49 53  1  0  0  0
 49 64  1  0  0  0
 49119  1  0  0  0
 50 51  1  0  0  0
 50120  1  0  0  0
 50121  1  0  0  0
 51 52  1  0  0  0
 51122  1  0  0  0
 51123  1  0  0  0
 52124  1  0  0  0
 52125  1  0  0  0
 53 54  1  0  0  0
 54 55  2  0  0  0
 54126  1  0  0  0
 55 57  1  0  0  0
 55127  1  0  0  0
 56 69  2  0  0  0
 57 58  2  0  0  0
 57128  1  0  0  0
 58129  1  0  0  0
 59 60  1  0  0  0
 59 61  1  0  0  0
 59 62  1  0  0  0
 60130  1  0  0  0
 60131  1  0  0  0
 60132  1  0  0  0
 61133  1  0  0  0
 61134  1  0  0  0
 61135  1  0  0  0
 62136  1  0  0  0
 62137  1  0  0  0
 62138  1  0  0  0
 63 65  1  0  0  0
 63139  1  0  0  0
 63140  1  0  0  0
 63141  1  0  0  0
 64142  1  0  0  0
 65143  1  0  0  0
 68 80  1  0  0  0
 71 72  2  0  0  0
 71 73  1  0  0  0
 71144  1  0  0  0
 72 75  1  0  0  0
 72145  1  0  0  0
 73 76  2  0  0  0
 73146  1  0  0  0
 74 75  2  0  0  0
 74 76  1  0  0  0
 74147  1  0  0  0
 75 78  1  0  0  0
 76 81  1  0  0  0
 77148  1  0  0  0
 77149  1  0  0  0
 77150  1  0  0  0
 77 82  1  0  0  0
 78 79  1  0  0  0
 78151  1  0  0  0
 78152  1  0  0  0
 79 83  1  0  0  0
 79153  1  0  0  0
 79154  1  0  0  0
 80 82  1  0  0  0
 80155  1  0  0  0
 80156  1  0  0  0
 81 82  1  0  0  0
 81 84  1  0  0  0
 81157  1  0  0  0
 82158  1  0  0  0
 83159  1  0  0  0
 84160  1  0  0  0
 84161  1  0  0  0
 84162  1  0  0  0
M  CHG  1  84   1
M  ISO  4   1 100  68 101  80 101  83 100
M  END
> <chiral flag>
0

> <version>
0

> <s_m_source_file>
/data/baiqing/PycharmProjects/Reinvent-master-3.2/result/LINK_invent/BTK/process_docking_weight1_custom_sum_contain_oxygen_bond_distance_aromatic_linkinvent_7_9_3/rearranged_h_0112.sdf

> <i_m_source_file_index>
7

> <r_mmod_Potential_Energy-OPLS-2005>
-316.401611328125

> <r_mmod_Stretch_Energy-OPLS-2005>
42.6023330688477

> <r_mmod_Bend_Energy-OPLS-2005>
93.6805725097656

> <r_mmod_Torsional_Energy-OPLS-2005>
239.315139770508

> <r_mmod_Improper_Torsional_Energy-OPLS-2005>
5.49832201004028

> <r_mmod_Van_der_Waal_Energy-OPLS-2005>
150.612289428711

> <r_mmod_Electrostatic_Energy-OPLS-2005>
-373.142059326172

> <r_mmod_Solvation_Energy-OPLS-2005>
-491.82177734375

> <b_mmod_Minimization_Converged-OPLS-2005>
0

> <r_mmod_RMS_Derivative-OPLS-2005>
4.55186414718628

$$$$
7
                    3D
 Structure written by MMmdl.
162170  0  0  1  0            999 V2000
  -30.5726  -14.8124   20.4478 C   0  0  0  0  0  0
  -30.4404  -12.4946   19.4921 C   0  0  0  0  0  0
  -29.5192  -12.5187   18.2502 C   0  0  0  0  0  0
  -28.0461  -12.3300   18.6600 C   0  0  0  0  0  0
  -27.6420  -13.2352   19.8538 C   0  0  2  0  0  0
  -28.6841  -13.1862   20.9938 C   0  0  0  0  0  0
  -25.2508  -13.8200   20.5703 C   0  0  0  0  0  0
  -24.1801  -13.0441   20.9213 C   0  0  0  0  0  0
  -24.6395  -11.6919   20.8749 C   0  0  0  0  0  0
  -23.9072  -10.4294   21.0406 C   0  0  0  0  0  0
  -24.3623   -9.4211   21.9183 C   0  0  0  0  0  0
  -23.6299   -8.2245   22.0753 C   0  0  0  0  0  0
  -22.4281   -8.0282   21.3544 C   0  0  0  0  0  0
  -21.9915   -9.0255   20.4645 C   0  0  0  0  0  0
  -22.7244  -10.2135   20.3055 C   0  0  0  0  0  0
  -21.6854   -6.0735   22.5278 C   0  0  0  0  0  0
  -21.4015   -6.5638   23.8210 C   0  0  0  0  0  0
  -21.3663   -5.6792   24.9174 C   0  0  0  0  0  0
  -21.6046   -4.3054   24.7225 C   0  0  0  0  0  0
  -21.8819   -3.8145   23.4346 C   0  0  0  0  0  0
  -21.9194   -4.6963   22.3401 C   0  0  0  0  0  0
  -22.7821  -13.5221   21.1870 C   0  0  0  0  0  0
  -22.1662   -4.2149   21.0978 F   0  0  0  0  0  0
  -21.5632   -3.4537   25.7737 F   0  0  0  0  0  0
  -29.9824  -13.5614   20.4181 N   0  0  0  0  0  0
  -26.2936  -12.9411   20.3288 N   0  0  0  0  0  0
  -25.9329  -11.6550   20.5752 N   0  0  0  0  0  0
  -22.0469  -12.8210   22.0425 N   0  0  0  0  0  0
  -25.4197  -15.1925   20.4115 N   0  0  0  0  0  0
  -31.7465  -14.9320   20.0854 O   0  0  0  0  0  0
  -21.6646   -6.8879   21.4239 O   0  0  0  0  0  0
  -22.3505  -14.5526   20.6717 O   0  0  0  0  0  0
  -24.6360  -31.8514   23.1954 C   0  0  0  0  0  0
  -25.9165  -32.4733   23.8315 C   0  0  1  0  0  0
  -27.2162  -27.2038   20.1313 C   0  0  0  0  0  0
  -25.5940  -33.8538   24.2229 N   0  0  0  0  0  0
  -23.4353  -30.4737   21.5395 C   0  0  2  0  0  0
  -24.8830  -28.9162   20.1072 C   0  0  0  0  0  0
  -22.7529  -29.4581   22.4890 C   0  0  0  0  0  0
  -18.0298  -28.1393   22.8483 C   0  0  0  0  0  0
  -24.1490  -36.7270   23.2642 C   0  0  0  0  0  0
  -25.9866  -30.7434   21.3876 C   0  0  0  0  0  0
  -26.0558  -29.3618   20.7281 C   0  0  0  0  0  0
  -27.2192  -28.5167   20.7340 C   0  0  0  0  0  0
  -26.0233  -26.8566   19.4541 C   0  0  0  0  0  0
  -24.8762  -27.6740   19.4588 C   0  0  0  0  0  0
  -23.6566  -29.8095   20.1557 C   0  0  0  0  0  0
  -25.4119  -36.3053   24.0322 C   0  0  1  0  0  0
  -20.5905  -28.3707   23.1257 C   0  0  2  0  0  0
  -20.6783  -26.9419   22.5407 C   0  0  0  0  0  0
  -19.5757  -26.6384   21.5216 C   0  0  0  0  0  0
  -18.1939  -26.7933   22.1629 C   0  0  0  0  0  0
  -19.1553  -28.8868   23.2866 C   0  0  0  0  0  0
  -18.9473  -30.1467   23.8887 C   0  0  0  0  0  0
  -17.6470  -30.6593   24.0560 C   0  0  0  0  0  0
  -25.9064  -34.9428   23.5079 C   0  0  0  0  0  0
  -16.5361  -29.9087   23.6334 C   0  0  0  0  0  0
  -16.7284  -28.6505   23.0356 C   0  0  0  0  0  0
  -26.4508  -31.6581   25.0730 C   0  0  0  0  0  0
  -25.3704  -31.3757   26.1431 C   0  0  0  0  0  0
  -27.0366  -30.2986   24.6270 C   0  0  0  0  0  0
  -27.6048  -32.4335   25.7508 C   0  0  0  0  0  0
  -27.5576  -37.1791   24.8466 C   0  0  0  0  0  0
  -21.4231  -29.3045   22.3636 N   0  0  0  0  0  0
  -26.4287  -37.3759   23.9408 N   0  0  0  0  0  0
  -24.7051  -31.0426   22.0961 N   0  0  0  0  0  0
  -23.4206  -28.8123   23.3009 O   0  0  0  0  0  0
  -28.2960  -26.2723   20.2369 O   0  0  0  0  0  0
  -26.5646  -34.8909   22.4655 O   0  0  0  0  0  0
  -23.5497  -32.1366   23.7213 O   0  0  0  0  0  0
  -28.4895  -18.0646   19.8519 C   0  0  0  0  0  0
  -30.3575  -18.5084   21.2972 C   0  0  0  0  0  0
  -28.4953  -19.5821   19.3656 C   0  0  0  0  0  0
  -30.3743  -20.0453   20.8065 C   0  0  0  0  0  0
  -29.8655  -17.4300   20.2565 C   0  0  1  0  0  0
  -30.1294  -23.8876   21.2679 C   0  0  0  0  0  0
  -30.2038  -22.2668   18.6602 C   0  0  0  0  0  0
  -28.2187  -24.8160   19.7689 C   0  0  0  0  0  0
  -28.8374  -23.4863   20.5372 C   0  0  1  0  0  0
  -29.0511  -22.0853   19.6741 C   0  0  2  0  0  0
  -29.7654  -15.9331   20.6745 N   0  0  0  0  0  0
  -29.0687  -20.6316   20.2987 N   0  3  1  0  0  0
  -31.4797  -12.6320   19.1899 H   0  0  0  0  0  0
  -30.4003  -11.5214   19.9842 H   0  0  0  0  0  0
  -29.8136  -11.7397   17.5460 H   0  0  0  0  0  0
  -29.6358  -13.4678   17.7243 H   0  0  0  0  0  0
  -27.9128  -11.2821   18.9311 H   0  0  0  0  0  0
  -27.3890  -12.5093   17.8082 H   0  0  0  0  0  0
  -27.6307  -14.2537   19.4649 H   0  0  0  0  0  0
  -28.7322  -12.1895   21.4343 H   0  0  0  0  0  0
  -28.4043  -13.8636   21.8021 H   0  0  0  0  0  0
  -25.2769   -9.5690   22.4758 H   0  0  0  0  0  0
  -24.0012   -7.4635   22.7471 H   0  0  0  0  0  0
  -21.0847   -8.8771   19.8949 H   0  0  0  0  0  0
  -22.3700  -10.9675   19.6164 H   0  0  0  0  0  0
  -21.2004   -7.6146   23.9714 H   0  0  0  0  0  0
  -21.1487   -6.0522   25.9079 H   0  0  0  0  0  0
  -22.0595   -2.7607   23.2846 H   0  0  0  0  0  0
  -22.4090  -11.9874   22.4815 H   0  0  0  0  0  0
  -21.1082  -13.1222   22.2622 H   0  0  0  0  0  0
  -24.6488  -15.8431   20.5179 H   0  0  0  0  0  0
  -26.2594  -15.6297   20.0562 H   0  0  0  0  0  0
  -26.7228  -32.5357   23.1047 H   0  0  0  0  0  0
  -25.0058  -33.9670   25.0353 H   0  0  0  0  0  0
  -22.7343  -31.2979   21.3920 H   0  0  0  0  0  0
  -23.3757  -35.9597   23.3294 H   0  0  0  0  0  0
  -24.3580  -36.8907   22.2058 H   0  0  0  0  0  0
  -23.7239  -37.6463   23.6679 H   0  0  0  0  0  0
  -26.1367  -31.5016   20.6178 H   0  0  0  0  0  0
  -26.8602  -30.7895   22.0263 H   0  0  0  0  0  0
  -28.1094  -28.8490   21.2496 H   0  0  0  0  0  0
  -25.9225  -25.9297   18.9151 H   0  0  0  0  0  0
  -23.9830  -27.3335   18.9532 H   0  0  0  0  0  0
  -23.7864  -30.5872   19.4024 H   0  0  0  0  0  0
  -22.7734  -29.2477   19.8467 H   0  0  0  0  0  0
  -25.1304  -36.1890   25.0814 H   0  0  0  0  0  0
  -20.9999  -28.3289   24.1378 H   0  0  0  0  0  0
  -20.5685  -26.2319   23.3618 H   0  0  0  0  0  0
  -21.6650  -26.7437   22.1200 H   0  0  0  0  0  0
  -19.6916  -25.6291   21.1256 H   0  0  0  0  0  0
  -19.6695  -27.3186   20.6739 H   0  0  0  0  0  0
  -17.4207  -26.6682   21.4033 H   0  0  0  0  0  0
  -18.0337  -26.0081   22.9030 H   0  0  0  0  0  0
  -19.7947  -30.7290   24.2252 H   0  0  0  0  0  0
  -17.5022  -31.6272   24.5162 H   0  0  0  0  0  0
  -15.5360  -30.2986   23.7663 H   0  0  0  0  0  0
  -15.8685  -28.0822   22.7074 H   0  0  0  0  0  0
  -24.5891  -30.7096   25.7754 H   0  0  0  0  0  0
  -24.8882  -32.2936   26.4805 H   0  0  0  0  0  0
  -25.7994  -30.8969   27.0242 H   0  0  0  0  0  0
  -26.2971  -29.6722   24.1268 H   0  0  0  0  0  0
  -27.3990  -29.7269   25.4824 H   0  0  0  0  0  0
  -27.8876  -30.4242   23.9571 H   0  0  0  0  0  0
  -27.2650  -33.3654   26.2045 H   0  0  0  0  0  0
  -28.3881  -32.6869   25.0349 H   0  0  0  0  0  0
  -28.0692  -31.8488   26.5460 H   0  0  0  0  0  0
  -28.2587  -38.0093   24.7509 H   0  0  0  0  0  0
  -28.1078  -36.2623   24.6295 H   0  0  0  0  0  0
  -27.2296  -37.1439   25.8869 H   0  0  0  0  0  0
  -20.9426  -29.8763   21.6831 H   0  0  0  0  0  0
  -26.0161  -38.2829   24.1408 H   0  0  0  0  0  0
  -28.0544  -17.4612   19.0542 H   0  0  0  0  0  0
  -27.7941  -17.9757   20.6882 H   0  0  0  0  0  0
  -29.7449  -18.4401   22.1972 H   0  0  0  0  0  0
  -31.3653  -18.2426   21.6179 H   0  0  0  0  0  0
  -27.4708  -19.8640   19.1200 H   0  0  0  0  0  0
  -29.0414  -19.6180   18.4233 H   0  0  0  0  0  0
  -31.1210  -20.1218   20.0165 H   0  0  0  0  0  0
  -30.7370  -20.6745   21.6186 H   0  0  0  0  0  0
  -30.5297  -17.4673   19.3910 H   0  0  0  0  0  0
  -29.9399  -24.7046   21.9647 H   0  0  0  0  0  0
  -30.8961  -24.2302   20.5726 H   0  0  0  0  0  0
  -30.5412  -23.0592   21.8438 H   0  0  0  0  0  0
  -30.0889  -23.1878   18.0903 H   0  0  0  0  0  0
  -30.2468  -21.4574   17.9332 H   0  0  0  0  0  0
  -31.1743  -22.3154   19.1535 H   0  0  0  0  0  0
  -27.1828  -24.5312   19.6162 H   0  0  0  0  0  0
  -28.6467  -24.8407   18.7674 H   0  0  0  0  0  0
  -28.1137  -23.2486   21.3174 H   0  0  0  0  0  0
  -28.1433  -22.0685   19.0693 H   0  0  0  0  0  0
  -28.8534  -15.6711   21.0179 H   0  0  0  0  0  0
  -28.4398  -20.6650   21.0882 H   0  0  0  0  0  0
  1 25  1  0  0  0
  1 30  2  0  0  0
  1 81  1  0  0  0
  2  3  1  0  0  0
  2 25  1  0  0  0
  2 83  1  0  0  0
  2 84  1  0  0  0
  3  4  1  0  0  0
  3 85  1  0  0  0
  3 86  1  0  0  0
  4  5  1  0  0  0
  4 87  1  0  0  0
  4 88  1  0  0  0
  5  6  1  0  0  0
  5 26  1  0  0  0
  5 89  1  0  0  0
  6 25  1  0  0  0
  6 90  1  0  0  0
  6 91  1  0  0  0
  7  8  2  0  0  0
  7 26  1  0  0  0
  7 29  1  0  0  0
  8  9  1  0  0  0
  8 22  1  0  0  0
  9 10  1  0  0  0
  9 27  2  0  0  0
 10 11  2  0  0  0
 10 15  1  0  0  0
 11 12  1  0  0  0
 11 92  1  0  0  0
 12 13  2  0  0  0
 12 93  1  0  0  0
 13 14  1  0  0  0
 13 31  1  0  0  0
 14 15  2  0  0  0
 14 94  1  0  0  0
 15 95  1  0  0  0
 16 17  2  0  0  0
 16 21  1  0  0  0
 16 31  1  0  0  0
 17 18  1  0  0  0
 17 96  1  0  0  0
 18 19  2  0  0  0
 18 97  1  0  0  0
 19 20  1  0  0  0
 19 24  1  0  0  0
 20 21  2  0  0  0
 20 98  1  0  0  0
 21 23  1  0  0  0
 22 28  1  0  0  0
 22 32  2  0  0  0
 26 27  1  0  0  0
 28 99  1  0  0  0
 28100  1  0  0  0
 29101  1  0  0  0
 29102  1  0  0  0
 33 34  1  0  0  0
 33 66  1  0  0  0
 33 70  2  0  0  0
 34 36  1  0  0  0
 34 59  1  0  0  0
 34103  1  0  0  0
 35 44  2  0  0  0
 35 45  1  0  0  0
 35 68  1  0  0  0
 36 56  1  0  0  0
 36104  1  0  0  0
 37 39  1  0  0  0
 37 47  1  0  0  0
 37 66  1  0  0  0
 37105  1  0  0  0
 38 43  2  0  0  0
 38 46  1  0  0  0
 38 47  1  0  0  0
 39 64  1  0  0  0
 39 67  2  0  0  0
 40 52  1  0  0  0
 40 53  2  0  0  0
 40 58  1  0  0  0
 41106  1  0  0  0
 41107  1  0  0  0
 41108  1  0  0  0
 41 48  1  0  0  0
 42 43  1  0  0  0
 42 66  1  0  0  0
 42109  1  0  0  0
 42110  1  0  0  0
 43 44  1  0  0  0
 44111  1  0  0  0
 45 46  2  0  0  0
 45112  1  0  0  0
 46113  1  0  0  0
 47114  1  0  0  0
 47115  1  0  0  0
 48 56  1  0  0  0
 48 65  1  0  0  0
 48116  1  0  0  0
 49 50  1  0  0  0
 49 53  1  0  0  0
 49 64  1  0  0  0
 49117  1  0  0  0
 50 51  1  0  0  0
 50118  1  0  0  0
 50119  1  0  0  0
 51 52  1  0  0  0
 51120  1  0  0  0
 51121  1  0  0  0
 52122  1  0  0  0
 52123  1  0  0  0
 53 54  1  0  0  0
 54 55  2  0  0  0
 54124  1  0  0  0
 55 57  1  0  0  0
 55125  1  0  0  0
 56 69  2  0  0  0
 57 58  2  0  0  0
 57126  1  0  0  0
 58127  1  0  0  0
 59 60  1  0  0  0
 59 61  1  0  0  0
 59 62  1  0  0  0
 60128  1  0  0  0
 60129  1  0  0  0
 60130  1  0  0  0
 61131  1  0  0  0
 61132  1  0  0  0
 61133  1  0  0  0
 62134  1  0  0  0
 62135  1  0  0  0
 62136  1  0  0  0
 63 65  1  0  0  0
 63137  1  0  0  0
 63138  1  0  0  0
 63139  1  0  0  0
 64140  1  0  0  0
 65141  1  0  0  0
 68 78  1  0  0  0
 71 73  1  0  0  0
 71 75  1  0  0  0
 71142  1  0  0  0
 71143  1  0  0  0
 72 74  1  0  0  0
 72 75  1  0  0  0
 72144  1  0  0  0
 72145  1  0  0  0
 73146  1  0  0  0
 73147  1  0  0  0
 73 82  1  0  0  0
 74 82  1  0  0  0
 74148  1  0  0  0
 74149  1  0  0  0
 75 81  1  0  0  0
 75150  1  0  0  0
 76151  1  0  0  0
 76152  1  0  0  0
 76153  1  0  0  0
 76 79  1  0  0  0
 77154  1  0  0  0
 77155  1  0  0  0
 77156  1  0  0  0
 77 80  1  0  0  0
 78 79  1  0  0  0
 78157  1  0  0  0
 78158  1  0  0  0
 79 80  1  0  0  0
 79159  1  0  0  0
 80 82  1  0  0  0
 80160  1  0  0  0
 81161  1  0  0  0
 82162  1  0  0  0
M  CHG  1  82   1
M  ISO  4   1 100  68 101  78 101  81 100
M  END
> <chiral flag>
0

> <version>
0

> <s_m_source_file>
/data/baiqing/PycharmProjects/Reinvent-master-3.2/result/LINK_invent/BTK/process_docking_weight1_custom_sum_contain_oxygen_bond_distance_aromatic_linkinvent_7_9_3/rearranged_h_0112.sdf

> <i_m_source_file_index>
8

> <r_mmod_Potential_Energy-OPLS-2005>
251.614028930664

> <r_mmod_Stretch_Energy-OPLS-2005>
175.758850097656

> <r_mmod_Bend_Energy-OPLS-2005>
231.617462158203

> <r_mmod_Torsional_Energy-OPLS-2005>
262.955017089844

> <r_mmod_Improper_Torsional_Energy-OPLS-2005>
5.53205347061157

> <r_mmod_Van_der_Waal_Energy-OPLS-2005>
122.984565734863

> <r_mmod_Electrostatic_Energy-OPLS-2005>
-213.529830932617

> <r_mmod_Solvation_Energy-OPLS-2005>
-455.295959472656

> <b_mmod_Minimization_Converged-OPLS-2005>
0

> <r_mmod_RMS_Derivative-OPLS-2005>
0.489298731088638

$$$$
8
                    3D
 Structure written by MMmdl.
168175  0  0  1  0            999 V2000
  -30.6812  -14.4942   20.5628 C   0  0  0  0  0  0
  -30.4311  -12.3177   19.4302 C   0  0  0  0  0  0
  -29.4989  -12.4956   18.2124 C   0  0  0  0  0  0
  -28.0207  -12.3485   18.6193 C   0  0  0  0  0  0
  -27.6621  -13.1972   19.8685 C   0  0  2  0  0  0
  -28.7025  -12.9933   20.9932 C   0  0  0  0  0  0
  -25.2628  -13.8148   20.5651 C   0  0  0  0  0  0
  -24.1865  -13.0446   20.9162 C   0  0  0  0  0  0
  -24.6395  -11.6910   20.8730 C   0  0  0  0  0  0
  -23.9052  -10.4303   21.0407 C   0  0  0  0  0  0
  -24.3610   -9.4226   21.9179 C   0  0  0  0  0  0
  -23.6293   -8.2264   22.0763 C   0  0  0  0  0  0
  -22.4279   -8.0294   21.3560 C   0  0  0  0  0  0
  -21.9904   -9.0265   20.4659 C   0  0  0  0  0  0
  -22.7222  -10.2140   20.3055 C   0  0  0  0  0  0
  -21.6862   -6.0743   22.5284 C   0  0  0  0  0  0
  -21.4021   -6.5651   23.8217 C   0  0  0  0  0  0
  -21.3648   -5.6805   24.9177 C   0  0  0  0  0  0
  -21.6038   -4.3064   24.7224 C   0  0  0  0  0  0
  -21.8824   -3.8164   23.4338 C   0  0  0  0  0  0
  -21.9198   -4.6987   22.3402 C   0  0  0  0  0  0
  -22.7900  -13.5282   21.1805 C   0  0  0  0  0  0
  -22.1669   -4.2174   21.0978 F   0  0  0  0  0  0
  -21.5614   -3.4534   25.7725 F   0  0  0  0  0  0
  -30.0319  -13.3039   20.4450 N   0  0  0  0  0  0
  -26.3031  -12.9289   20.3313 N   0  0  0  0  0  0
  -25.9310  -11.6466   20.5743 N   0  0  0  0  0  0
  -22.0525  -12.8273   22.0365 N   0  0  0  0  0  0
  -25.4365  -15.1863   20.4039 N   0  0  0  0  0  0
  -31.8087  -14.6958   20.1053 O   0  0  0  0  0  0
  -21.6651   -6.8887   21.4242 O   0  0  0  0  0  0
  -22.3576  -14.5576   20.6655 O   0  0  0  0  0  0
  -24.6151  -31.8692   23.2127 C   0  0  0  0  0  0
  -25.9051  -32.4826   23.8418 C   0  0  1  0  0  0
  -27.2248  -27.4385   20.0882 C   0  0  0  0  0  0
  -25.5911  -33.8620   24.2347 N   0  0  0  0  0  0
  -23.4028  -30.4946   21.5533 C   0  0  2  0  0  0
  -24.8473  -28.9664   20.1105 C   0  0  0  0  0  0
  -22.7413  -29.4666   22.4991 C   0  0  0  0  0  0
  -18.0278  -28.1385   22.8488 C   0  0  0  0  0  0
  -24.1488  -36.7323   23.2638 C   0  0  0  0  0  0
  -25.9331  -30.8342   21.3662 C   0  0  0  0  0  0
  -26.0087  -29.4716   20.7088 C   0  0  0  0  0  0
  -27.2048  -28.7141   20.6949 C   0  0  0  0  0  0
  -26.0503  -26.9575   19.4683 C   0  0  0  0  0  0
  -24.8625  -27.7081   19.4858 C   0  0  0  0  0  0
  -23.6096  -29.8327   20.1653 C   0  0  0  0  0  0
  -25.4107  -36.3117   24.0340 C   0  0  1  0  0  0
  -20.5866  -28.3674   23.1313 C   0  0  2  0  0  0
  -20.6772  -26.9409   22.5414 C   0  0  0  0  0  0
  -19.5751  -26.6389   21.5211 C   0  0  0  0  0  0
  -18.1927  -26.7930   22.1618 C   0  0  0  0  0  0
  -19.1524  -28.8841   23.2897 C   0  0  0  0  0  0
  -18.9455  -30.1449   23.8912 C   0  0  0  0  0  0
  -17.6458  -30.6586   24.0570 C   0  0  0  0  0  0
  -25.9032  -34.9479   23.5134 C   0  0  0  0  0  0
  -16.5350  -29.9094   23.6326 C   0  0  0  0  0  0
  -16.7265  -28.6511   23.0338 C   0  0  0  0  0  0
  -26.4477  -31.6598   25.0742 C   0  0  0  0  0  0
  -25.3750  -31.3695   26.1494 C   0  0  0  0  0  0
  -27.0302  -30.3042   24.6111 C   0  0  0  0  0  0
  -27.6056  -32.4309   25.7500 C   0  0  0  0  0  0
  -27.5578  -37.1822   24.8467 C   0  0  0  0  0  0
  -21.4140  -29.3046   22.3722 N   0  0  0  0  0  0
  -26.4299  -37.3797   23.9402 N   0  0  0  0  0  0
  -24.6689  -31.0791   22.1024 N   0  0  0  0  0  0
  -23.4184  -28.8204   23.3028 O   0  0  0  0  0  0
  -28.3601  -26.6548   20.1109 O   0  0  0  0  0  0
  -26.5583  -34.8926   22.4692 O   0  0  0  0  0  0
  -23.5341  -32.1444   23.7520 O   0  0  0  0  0  0
  -28.1767  -20.1378   20.6379 C   0  0  0  0  0  0
  -25.5235  -20.7431   16.9703 C   0  0  0  0  0  0
  -25.4254  -22.6379   18.6313 C   0  0  0  0  0  0
  -29.3618  -24.4380   20.7441 C   0  0  0  0  0  0
  -27.5661  -21.2329   18.3925 C   0  0  0  0  0  0
  -28.9621  -17.8147   21.0405 C   0  0  0  0  0  0
  -30.2384  -16.9379   20.9355 C   0  0  0  0  0  0
  -29.5092  -23.5716   19.4652 C   0  0  0  0  0  0
  -28.1464  -25.3883   20.7584 C   0  0  0  0  0  0
  -28.1933  -21.4497   19.8037 C   0  0  2  0  0  0
  -26.0172  -21.2437   18.3391 C   0  0  0  0  0  0
  -29.0723  -19.1490   20.4160 N   0  0  0  0  0  0
  -29.9338  -15.5023   21.0518 N   0  0  0  0  0  0
  -29.5273  -22.0965   19.7195 N   0  3  0  0  0  0
  -27.3113  -20.0128   21.5060 O   0  0  0  0  0  0
  -31.4762  -12.4314   19.1348 H   0  0  0  0  0  0
  -30.3418  -11.3115   19.8409 H   0  0  0  0  0  0
  -29.7494  -11.7599   17.4481 H   0  0  0  0  0  0
  -29.6551  -13.4775   17.7595 H   0  0  0  0  0  0
  -27.8415  -11.2926   18.8207 H   0  0  0  0  0  0
  -27.3687  -12.6133   17.7867 H   0  0  0  0  0  0
  -27.7054  -14.2404   19.5554 H   0  0  0  0  0  0
  -28.6875  -11.9641   21.3507 H   0  0  0  0  0  0
  -28.4563  -13.6039   21.8623 H   0  0  0  0  0  0
  -25.2762   -9.5712   22.4729 H   0  0  0  0  0  0
  -24.0019   -7.4669   22.7482 H   0  0  0  0  0  0
  -21.0836   -8.8777   19.8961 H   0  0  0  0  0  0
  -22.3695  -10.9671   19.6159 H   0  0  0  0  0  0
  -21.2027   -7.6160   23.9728 H   0  0  0  0  0  0
  -21.1452   -6.0522   25.9070 H   0  0  0  0  0  0
  -22.0610   -2.7620   23.2832 H   0  0  0  0  0  0
  -22.4148  -11.9936   22.4742 H   0  0  0  0  0  0
  -21.1136  -13.1314   22.2579 H   0  0  0  0  0  0
  -24.6603  -15.8339   20.4855 H   0  0  0  0  0  0
  -26.2779  -15.6172   20.0417 H   0  0  0  0  0  0
  -26.7121  -32.5534   23.1179 H   0  0  0  0  0  0
  -25.0093  -33.9793   25.0509 H   0  0  0  0  0  0
  -22.6921  -31.3133   21.4168 H   0  0  0  0  0  0
  -23.3746  -35.9660   23.3307 H   0  0  0  0  0  0
  -24.3584  -36.8930   22.2052 H   0  0  0  0  0  0
  -23.7247  -37.6532   23.6646 H   0  0  0  0  0  0
  -26.0485  -31.6034   20.6018 H   0  0  0  0  0  0
  -26.8196  -30.8832   21.9871 H   0  0  0  0  0  0
  -28.0986  -29.0943   21.1678 H   0  0  0  0  0  0
  -26.0464  -26.0009   18.9658 H   0  0  0  0  0  0
  -23.9720  -27.3189   19.0121 H   0  0  0  0  0  0
  -23.7195  -30.6117   19.4094 H   0  0  0  0  0  0
  -22.7333  -29.2545   19.8663 H   0  0  0  0  0  0
  -25.1282  -36.1990   25.0835 H   0  0  0  0  0  0
  -20.9956  -28.3245   24.1433 H   0  0  0  0  0  0
  -20.5683  -26.2286   23.3600 H   0  0  0  0  0  0
  -21.6644  -26.7464   22.1203 H   0  0  0  0  0  0
  -19.6919  -25.6303   21.1235 H   0  0  0  0  0  0
  -19.6695  -27.3205   20.6743 H   0  0  0  0  0  0
  -17.4201  -26.6679   21.4016 H   0  0  0  0  0  0
  -18.0331  -26.0068   22.9010 H   0  0  0  0  0  0
  -19.7930  -30.7258   24.2290 H   0  0  0  0  0  0
  -17.5014  -31.6266   24.5178 H   0  0  0  0  0  0
  -15.5349  -30.3002   23.7642 H   0  0  0  0  0  0
  -15.8663  -28.0841   22.7038 H   0  0  0  0  0  0
  -24.5940  -30.7016   25.7843 H   0  0  0  0  0  0
  -24.8923  -32.2841   26.4943 H   0  0  0  0  0  0
  -25.8123  -30.8879   27.0250 H   0  0  0  0  0  0
  -26.2845  -29.6805   24.1170 H   0  0  0  0  0  0
  -27.4078  -29.7272   25.4562 H   0  0  0  0  0  0
  -27.8676  -30.4357   23.9257 H   0  0  0  0  0  0
  -27.2691  -33.3613   26.2080 H   0  0  0  0  0  0
  -28.3866  -32.6854   25.0326 H   0  0  0  0  0  0
  -28.0718  -31.8429   26.5411 H   0  0  0  0  0  0
  -28.2615  -38.0100   24.7486 H   0  0  0  0  0  0
  -28.1057  -36.2631   24.6326 H   0  0  0  0  0  0
  -27.2295  -37.1514   25.8872 H   0  0  0  0  0  0
  -20.9301  -29.8779   21.6951 H   0  0  0  0  0  0
  -26.0191  -38.2882   24.1380 H   0  0  0  0  0  0
  -24.4338  -20.6975   16.9337 H   0  0  0  0  0  0
  -25.8939  -19.7400   16.7570 H   0  0  0  0  0  0
  -25.8530  -21.3967   16.1630 H   0  0  0  0  0  0
  -24.3419  -22.6380   18.5103 H   0  0  0  0  0  0
  -25.8293  -23.3983   17.9600 H   0  0  0  0  0  0
  -25.6186  -22.9631   19.6526 H   0  0  0  0  0  0
  -30.2694  -25.0171   20.9166 H   0  0  0  0  0  0
  -29.2732  -23.7837   21.6122 H   0  0  0  0  0  0
  -27.9275  -20.2847   17.9858 H   0  0  0  0  0  0
  -27.9267  -21.9843   17.6898 H   0  0  0  0  0  0
  -28.6879  -17.9059   22.0931 H   0  0  0  0  0  0
  -28.1268  -17.3096   20.5530 H   0  0  0  0  0  0
  -30.7363  -17.1248   19.9827 H   0  0  0  0  0  0
  -30.9497  -17.2237   21.7135 H   0  0  0  0  0  0
  -30.4508  -23.8388   18.9842 H   0  0  0  0  0  0
  -28.7411  -23.8319   18.7365 H   0  0  0  0  0  0
  -27.8905  -25.6019   21.8001 H   0  0  0  0  0  0
  -27.2914  -24.8500   20.3508 H   0  0  0  0  0  0
  -27.5711  -22.1478   20.3605 H   0  0  0  0  0  0
  -25.6323  -20.5491   19.0883 H   0  0  0  0  0  0
  -29.7608  -19.2583   19.6860 H   0  0  0  0  0  0
  -29.0315  -15.2475   21.4234 H   0  0  0  0  0  0
  -30.0444  -21.6529   18.9774 H   0  0  0  0  0  0
  -30.0309  -21.9126   20.5736 H   0  0  0  0  0  0
  1 25  1  0  0  0
  1 30  2  0  0  0
  1 83  1  0  0  0
  2  3  1  0  0  0
  2 25  1  0  0  0
  2 86  1  0  0  0
  2 87  1  0  0  0
  3  4  1  0  0  0
  3 88  1  0  0  0
  3 89  1  0  0  0
  4  5  1  0  0  0
  4 90  1  0  0  0
  4 91  1  0  0  0
  5  6  1  0  0  0
  5 26  1  0  0  0
  5 92  1  0  0  0
  6 25  1  0  0  0
  6 93  1  0  0  0
  6 94  1  0  0  0
  7  8  2  0  0  0
  7 26  1  0  0  0
  7 29  1  0  0  0
  8  9  1  0  0  0
  8 22  1  0  0  0
  9 10  1  0  0  0
  9 27  2  0  0  0
 10 11  2  0  0  0
 10 15  1  0  0  0
 11 12  1  0  0  0
 11 95  1  0  0  0
 12 13  2  0  0  0
 12 96  1  0  0  0
 13 14  1  0  0  0
 13 31  1  0  0  0
 14 15  2  0  0  0
 14 97  1  0  0  0
 15 98  1  0  0  0
 16 17  2  0  0  0
 16 21  1  0  0  0
 16 31  1  0  0  0
 17 18  1  0  0  0
 17 99  1  0  0  0
 18 19  2  0  0  0
 18100  1  0  0  0
 19 20  1  0  0  0
 19 24  1  0  0  0
 20 21  2  0  0  0
 20101  1  0  0  0
 21 23  1  0  0  0
 22 28  1  0  0  0
 22 32  2  0  0  0
 26 27  1  0  0  0
 28102  1  0  0  0
 28103  1  0  0  0
 29104  1  0  0  0
 29105  1  0  0  0
 33 34  1  0  0  0
 33 66  1  0  0  0
 33 70  2  0  0  0
 34 36  1  0  0  0
 34 59  1  0  0  0
 34106  1  0  0  0
 35 44  2  0  0  0
 35 45  1  0  0  0
 35 68  1  0  0  0
 36 56  1  0  0  0
 36107  1  0  0  0
 37 39  1  0  0  0
 37 47  1  0  0  0
 37 66  1  0  0  0
 37108  1  0  0  0
 38 43  2  0  0  0
 38 46  1  0  0  0
 38 47  1  0  0  0
 39 64  1  0  0  0
 39 67  2  0  0  0
 40 52  1  0  0  0
 40 53  2  0  0  0
 40 58  1  0  0  0
 41109  1  0  0  0
 41110  1  0  0  0
 41111  1  0  0  0
 41 48  1  0  0  0
 42 43  1  0  0  0
 42 66  1  0  0  0
 42112  1  0  0  0
 42113  1  0  0  0
 43 44  1  0  0  0
 44114  1  0  0  0
 45 46  2  0  0  0
 45115  1  0  0  0
 46116  1  0  0  0
 47117  1  0  0  0
 47118  1  0  0  0
 48 56  1  0  0  0
 48 65  1  0  0  0
 48119  1  0  0  0
 49 50  1  0  0  0
 49 53  1  0  0  0
 49 64  1  0  0  0
 49120  1  0  0  0
 50 51  1  0  0  0
 50121  1  0  0  0
 50122  1  0  0  0
 51 52  1  0  0  0
 51123  1  0  0  0
 51124  1  0  0  0
 52125  1  0  0  0
 52126  1  0  0  0
 53 54  1  0  0  0
 54 55  2  0  0  0
 54127  1  0  0  0
 55 57  1  0  0  0
 55128  1  0  0  0
 56 69  2  0  0  0
 57 58  2  0  0  0
 57129  1  0  0  0
 58130  1  0  0  0
 59 60  1  0  0  0
 59 61  1  0  0  0
 59 62  1  0  0  0
 60131  1  0  0  0
 60132  1  0  0  0
 60133  1  0  0  0
 61134  1  0  0  0
 61135  1  0  0  0
 61136  1  0  0  0
 62137  1  0  0  0
 62138  1  0  0  0
 62139  1  0  0  0
 63 65  1  0  0  0
 63140  1  0  0  0
 63141  1  0  0  0
 63142  1  0  0  0
 64143  1  0  0  0
 65144  1  0  0  0
 68 79  1  0  0  0
 71 80  1  0  0  0
 71 82  1  0  0  0
 71 85  2  0  0  0
 72145  1  0  0  0
 72146  1  0  0  0
 72147  1  0  0  0
 72 81  1  0  0  0
 73 81  1  0  0  0
 73148  1  0  0  0
 73149  1  0  0  0
 73150  1  0  0  0
 74 78  1  0  0  0
 74 79  1  0  0  0
 74151  1  0  0  0
 74152  1  0  0  0
 75 81  1  0  0  0
 75153  1  0  0  0
 75154  1  0  0  0
 75 80  1  0  0  0
 76 77  1  0  0  0
 76 82  1  0  0  0
 76155  1  0  0  0
 76156  1  0  0  0
 77 83  1  0  0  0
 77157  1  0  0  0
 77158  1  0  0  0
 78 84  1  0  0  0
 78159  1  0  0  0
 78160  1  0  0  0
 79161  1  0  0  0
 79162  1  0  0  0
 80 84  1  0  0  0
 80163  1  0  0  0
 81164  1  0  0  0
 82165  1  0  0  0
 83166  1  0  0  0
 84167  1  0  0  0
 84168  1  0  0  0
M  CHG  1  84   1
M  ISO  4   1 100  68 101  79 101  83 100
M  END
> <chiral flag>
0

> <version>
0

> <s_m_source_file>
/data/baiqing/PycharmProjects/Reinvent-master-3.2/result/LINK_invent/BTK/process_docking_weight1_custom_sum_contain_oxygen_bond_distance_aromatic_linkinvent_7_9_3/rearranged_h_0112.sdf

> <i_m_source_file_index>
9

> <r_mmod_Potential_Energy-OPLS-2005>
-332.526245117188

> <r_mmod_Stretch_Energy-OPLS-2005>
39.1123237609863

> <r_mmod_Bend_Energy-OPLS-2005>
97.934211730957

> <r_mmod_Torsional_Energy-OPLS-2005>
267.560974121094

> <r_mmod_Improper_Torsional_Energy-OPLS-2005>
4.6592869758606

> <r_mmod_Van_der_Waal_Energy-OPLS-2005>
128.809158325195

> <r_mmod_Electrostatic_Energy-OPLS-2005>
-383.173492431641

> <r_mmod_Solvation_Energy-OPLS-2005>
-502.795074462891

> <b_mmod_Minimization_Converged-OPLS-2005>
0

> <r_mmod_RMS_Derivative-OPLS-2005>
3.74324941635132

$$$$
9
                    3D
 Structure written by MMmdl.
173181  0  0  1  0            999 V2000
  -30.6821  -14.4765   20.5887 C   0  0  0  0  0  0
  -30.4344  -12.3127   19.4211 C   0  0  0  0  0  0
  -29.4997  -12.5072   18.2067 C   0  0  0  0  0  0
  -28.0206  -12.3625   18.6180 C   0  0  0  0  0  0
  -27.6652  -13.1994   19.8759 C   0  0  2  0  0  0
  -28.7064  -12.9670   20.9948 C   0  0  0  0  0  0
  -25.2613  -13.8134   20.5670 C   0  0  0  0  0  0
  -24.1852  -13.0428   20.9173 C   0  0  0  0  0  0
  -24.6395  -11.6893   20.8729 C   0  0  0  0  0  0
  -23.9056  -10.4292   21.0407 C   0  0  0  0  0  0
  -24.3614   -9.4209   21.9181 C   0  0  0  0  0  0
  -23.6293   -8.2243   22.0753 C   0  0  0  0  0  0
  -22.4273   -8.0288   21.3544 C   0  0  0  0  0  0
  -21.9906   -9.0261   20.4641 C   0  0  0  0  0  0
  -22.7233  -10.2139   20.3047 C   0  0  0  0  0  0
  -21.6853   -6.0741   22.5279 C   0  0  0  0  0  0
  -21.4020   -6.5638   23.8216 C   0  0  0  0  0  0
  -21.3656   -5.6786   24.9171 C   0  0  0  0  0  0
  -21.6040   -4.3052   24.7224 C   0  0  0  0  0  0
  -21.8816   -3.8146   23.4344 C   0  0  0  0  0  0
  -21.9197   -4.6965   22.3401 C   0  0  0  0  0  0
  -22.7872  -13.5240   21.1839 C   0  0  0  0  0  0
  -22.1660   -4.2150   21.0980 F   0  0  0  0  0  0
  -21.5631   -3.4537   25.7737 F   0  0  0  0  0  0
  -30.0393  -13.2859   20.4495 N   0  0  0  0  0  0
  -26.3046  -12.9284   20.3354 N   0  0  0  0  0  0
  -25.9323  -11.6456   20.5743 N   0  0  0  0  0  0
  -22.0513  -12.8238   22.0403 N   0  0  0  0  0  0
  -25.4355  -15.1856   20.4074 N   0  0  0  0  0  0
  -31.7965  -14.7110   20.1128 O   0  0  0  0  0  0
  -21.6633   -6.8891   21.4243 O   0  0  0  0  0  0
  -22.3564  -14.5562   20.6703 O   0  0  0  0  0  0
  -24.6145  -31.8686   23.2127 C   0  0  0  0  0  0
  -25.9039  -32.4829   23.8412 C   0  0  1  0  0  0
  -27.2292  -27.4317   20.1021 C   0  0  0  0  0  0
  -25.5901  -33.8629   24.2344 N   0  0  0  0  0  0
  -23.4028  -30.4928   21.5530 C   0  0  2  0  0  0
  -24.8505  -28.9597   20.1178 C   0  0  0  0  0  0
  -22.7409  -29.4665   22.5003 C   0  0  0  0  0  0
  -18.0273  -28.1372   22.8488 C   0  0  0  0  0  0
  -24.1488  -36.7321   23.2638 C   0  0  0  0  0  0
  -25.9324  -30.8306   21.3701 C   0  0  0  0  0  0
  -26.0096  -29.4638   20.7215 C   0  0  0  0  0  0
  -27.2037  -28.7043   20.7179 C   0  0  0  0  0  0
  -26.0647  -26.9597   19.4644 C   0  0  0  0  0  0
  -24.8726  -27.7046   19.4861 C   0  0  0  0  0  0
  -23.6125  -29.8261   20.1676 C   0  0  0  0  0  0
  -25.4106  -36.3119   24.0342 C   0  0  1  0  0  0
  -20.5863  -28.3660   23.1315 C   0  0  2  0  0  0
  -20.6769  -26.9399   22.5410 C   0  0  0  0  0  0
  -19.5749  -26.6381   21.5207 C   0  0  0  0  0  0
  -18.1926  -26.7918   22.1619 C   0  0  0  0  0  0
  -19.1521  -28.8832   23.2898 C   0  0  0  0  0  0
  -18.9451  -30.1440   23.8910 C   0  0  0  0  0  0
  -17.6454  -30.6580   24.0564 C   0  0  0  0  0  0
  -25.9036  -34.9480   23.5141 C   0  0  0  0  0  0
  -16.5344  -29.9084   23.6325 C   0  0  0  0  0  0
  -16.7262  -28.6499   23.0347 C   0  0  0  0  0  0
  -26.4471  -31.6594   25.0727 C   0  0  0  0  0  0
  -25.3743  -31.3684   26.1478 C   0  0  0  0  0  0
  -27.0300  -30.3033   24.6095 C   0  0  0  0  0  0
  -27.6057  -32.4298   25.7486 C   0  0  0  0  0  0
  -27.5580  -37.1817   24.8466 C   0  0  0  0  0  0
  -21.4138  -29.3034   22.3733 N   0  0  0  0  0  0
  -26.4295  -37.3795   23.9409 N   0  0  0  0  0  0
  -24.6679  -31.0784   22.1035 N   0  0  0  0  0  0
  -23.4176  -28.8210   23.3050 O   0  0  0  0  0  0
  -28.3642  -26.6489   20.0894 O   0  0  0  0  0  0
  -26.5590  -34.8924   22.4700 O   0  0  0  0  0  0
  -23.5340  -32.1449   23.7513 O   0  0  0  0  0  0
  -26.8197  -23.2428   19.7908 C   0  0  0  0  0  0
  -26.6889  -20.8914   19.3124 C   0  0  0  0  0  0
  -26.0594  -22.1412   19.3747 C   0  0  0  0  0  0
  -28.1751  -23.0719   20.1337 C   0  0  0  0  0  0
  -28.0431  -20.7682   19.6787 C   0  0  0  0  0  0
  -24.6057  -22.3014   18.9797 C   0  0  0  0  0  0
  -31.9023  -20.8663   19.8724 C   0  0  0  0  0  0
  -30.6461  -20.4185   17.6816 C   0  0  0  0  0  0
  -29.0889  -26.1097   22.3030 C   0  0  0  0  0  0
  -29.0652  -24.2699   20.5168 C   0  0  0  0  0  0
  -28.6621  -19.3638   19.5444 C   0  0  0  0  0  0
  -30.1649  -16.9025   21.2229 C   0  0  0  0  0  0
  -30.3345  -17.5984   19.8432 C   0  0  0  0  0  0
  -31.1346  -19.8333   19.0261 C   0  0  0  0  0  0
  -28.3733  -25.5726   21.0539 C   0  0  2  0  0  0
  -28.7671  -21.8406   20.1012 N   0  0  0  0  0  0
  -29.9326  -15.4467   21.1424 N   0  0  0  0  0  0
  -30.1066  -19.0927   19.8444 N   0  3  1  0  0  0
  -31.4790  -12.4249   19.1227 H   0  0  0  0  0  0
  -30.3437  -11.2995   19.8162 H   0  0  0  0  0  0
  -29.7431  -11.7855   17.4261 H   0  0  0  0  0  0
  -29.6599  -13.4939   17.7703 H   0  0  0  0  0  0
  -27.8348  -11.3061   18.8135 H   0  0  0  0  0  0
  -27.3672  -12.6346   17.7879 H   0  0  0  0  0  0
  -27.7110  -14.2480   19.5819 H   0  0  0  0  0  0
  -28.6861  -11.9254   21.3183 H   0  0  0  0  0  0
  -28.4590  -13.5478   21.8849 H   0  0  0  0  0  0
  -25.2768   -9.5677   22.4741 H   0  0  0  0  0  0
  -24.0003   -7.4630   22.7462 H   0  0  0  0  0  0
  -21.0839   -8.8768   19.8950 H   0  0  0  0  0  0
  -22.3695  -10.9670   19.6143 H   0  0  0  0  0  0
  -21.2006   -7.6146   23.9720 H   0  0  0  0  0  0
  -21.1480   -6.0515   25.9075 H   0  0  0  0  0  0
  -22.0601   -2.7611   23.2838 H   0  0  0  0  0  0
  -22.4135  -11.9890   22.4766 H   0  0  0  0  0  0
  -21.1133  -13.1259   22.2609 H   0  0  0  0  0  0
  -24.6674  -15.8401   20.5069 H   0  0  0  0  0  0
  -26.2849  -15.6202   20.0710 H   0  0  0  0  0  0
  -26.7108  -32.5546   23.1178 H   0  0  0  0  0  0
  -25.0045  -33.9789   25.0484 H   0  0  0  0  0  0
  -22.6912  -31.3100   21.4151 H   0  0  0  0  0  0
  -23.3740  -35.9663   23.3316 H   0  0  0  0  0  0
  -24.3584  -36.8916   22.2050 H   0  0  0  0  0  0
  -23.7247  -37.6535   23.6638 H   0  0  0  0  0  0
  -26.0438  -31.5944   20.5990 H   0  0  0  0  0  0
  -26.8211  -30.8871   21.9876 H   0  0  0  0  0  0
  -28.0971  -29.0840   21.1946 H   0  0  0  0  0  0
  -26.0792  -26.0248   18.9287 H   0  0  0  0  0  0
  -23.9876  -27.3179   19.0001 H   0  0  0  0  0  0
  -23.7206  -30.6019   19.4089 H   0  0  0  0  0  0
  -22.7362  -29.2467   19.8712 H   0  0  0  0  0  0
  -25.1281  -36.1993   25.0834 H   0  0  0  0  0  0
  -20.9948  -28.3225   24.1437 H   0  0  0  0  0  0
  -20.5679  -26.2269   23.3593 H   0  0  0  0  0  0
  -21.6642  -26.7454   22.1202 H   0  0  0  0  0  0
  -19.6916  -25.6297   21.1228 H   0  0  0  0  0  0
  -19.6688  -27.3197   20.6741 H   0  0  0  0  0  0
  -17.4197  -26.6663   21.4020 H   0  0  0  0  0  0
  -18.0335  -26.0054   22.9010 H   0  0  0  0  0  0
  -19.7928  -30.7248   24.2289 H   0  0  0  0  0  0
  -17.5012  -31.6264   24.5159 H   0  0  0  0  0  0
  -15.5347  -30.2991   23.7641 H   0  0  0  0  0  0
  -15.8660  -28.0822   22.7056 H   0  0  0  0  0  0
  -24.5924  -30.7024   25.7809 H   0  0  0  0  0  0
  -24.8926  -32.2832   26.4936 H   0  0  0  0  0  0
  -25.8104  -30.8845   27.0225 H   0  0  0  0  0  0
  -26.2845  -29.6797   24.1147 H   0  0  0  0  0  0
  -27.4065  -29.7256   25.4546 H   0  0  0  0  0  0
  -27.8682  -30.4340   23.9248 H   0  0  0  0  0  0
  -27.2689  -33.3580   26.2101 H   0  0  0  0  0  0
  -28.3846  -32.6875   25.0302 H   0  0  0  0  0  0
  -28.0747  -31.8395   26.5364 H   0  0  0  0  0  0
  -28.2611  -38.0098   24.7501 H   0  0  0  0  0  0
  -28.1063  -36.2635   24.6310 H   0  0  0  0  0  0
  -27.2302  -37.1491   25.8868 H   0  0  0  0  0  0
  -20.9302  -29.8747   21.6946 H   0  0  0  0  0  0
  -26.0192  -38.2880   24.1389 H   0  0  0  0  0  0
  -26.3485  -24.2074   19.8352 H   0  0  0  0  0  0
  -26.1321  -20.0259   18.9763 H   0  0  0  0  0  0
  -24.0436  -21.3875   19.1752 H   0  0  0  0  0  0
  -24.5273  -22.5278   17.9165 H   0  0  0  0  0  0
  -24.1366  -23.1119   19.5387 H   0  0  0  0  0  0
  -32.7132  -21.3095   19.2928 H   0  0  0  0  0  0
  -32.3557  -20.4005   20.7476 H   0  0  0  0  0  0
  -31.2807  -21.6881   20.2219 H   0  0  0  0  0  0
  -31.4892  -20.8239   17.1218 H   0  0  0  0  0  0
  -29.9386  -21.2371   17.7957 H   0  0  0  0  0  0
  -30.1930  -19.6557   17.0487 H   0  0  0  0  0  0
  -29.1121  -25.3594   23.0942 H   0  0  0  0  0  0
  -28.5812  -26.9856   22.7072 H   0  0  0  0  0  0
  -30.1176  -26.3926   22.0795 H   0  0  0  0  0  0
  -29.6920  -24.5215   19.6612 H   0  0  0  0  0  0
  -29.7570  -23.8985   21.2734 H   0  0  0  0  0  0
  -28.4453  -19.0142   18.5342 H   0  0  0  0  0  0
  -28.0599  -18.7293   20.1973 H   0  0  0  0  0  0
  -31.0443  -17.0890   21.8408 H   0  0  0  0  0  0
  -29.3158  -17.3247   21.7600 H   0  0  0  0  0  0
  -29.6793  -17.1344   19.1047 H   0  0  0  0  0  0
  -31.3385  -17.3386   19.5088 H   0  0  0  0  0  0
  -31.9159  -19.1351   18.7289 H   0  0  0  0  0  0
  -27.3628  -25.3333   21.3857 H   0  0  0  0  0  0
  -29.0412  -15.1287   21.4946 H   0  0  0  0  0  0
  -30.2430  -19.4204   20.7889 H   0  0  0  0  0  0
  1 25  1  0  0  0
  1 30  2  0  0  0
  1 87  1  0  0  0
  2  3  1  0  0  0
  2 25  1  0  0  0
  2 89  1  0  0  0
  2 90  1  0  0  0
  3  4  1  0  0  0
  3 91  1  0  0  0
  3 92  1  0  0  0
  4  5  1  0  0  0
  4 93  1  0  0  0
  4 94  1  0  0  0
  5  6  1  0  0  0
  5 26  1  0  0  0
  5 95  1  0  0  0
  6 25  1  0  0  0
  6 96  1  0  0  0
  6 97  1  0  0  0
  7  8  2  0  0  0
  7 26  1  0  0  0
  7 29  1  0  0  0
  8  9  1  0  0  0
  8 22  1  0  0  0
  9 10  1  0  0  0
  9 27  2  0  0  0
 10 11  2  0  0  0
 10 15  1  0  0  0
 11 12  1  0  0  0
 11 98  1  0  0  0
 12 13  2  0  0  0
 12 99  1  0  0  0
 13 14  1  0  0  0
 13 31  1  0  0  0
 14 15  2  0  0  0
 14100  1  0  0  0
 15101  1  0  0  0
 16 17  2  0  0  0
 16 21  1  0  0  0
 16 31  1  0  0  0
 17 18  1  0  0  0
 17102  1  0  0  0
 18 19  2  0  0  0
 18103  1  0  0  0
 19 20  1  0  0  0
 19 24  1  0  0  0
 20 21  2  0  0  0
 20104  1  0  0  0
 21 23  1  0  0  0
 22 28  1  0  0  0
 22 32  2  0  0  0
 26 27  1  0  0  0
 28105  1  0  0  0
 28106  1  0  0  0
 29107  1  0  0  0
 29108  1  0  0  0
 33 34  1  0  0  0
 33 66  1  0  0  0
 33 70  2  0  0  0
 34 36  1  0  0  0
 34 59  1  0  0  0
 34109  1  0  0  0
 35 44  2  0  0  0
 35 45  1  0  0  0
 35 68  1  0  0  0
 36 56  1  0  0  0
 36110  1  0  0  0
 37 39  1  0  0  0
 37 47  1  0  0  0
 37 66  1  0  0  0
 37111  1  0  0  0
 38 43  2  0  0  0
 38 46  1  0  0  0
 38 47  1  0  0  0
 39 64  1  0  0  0
 39 67  2  0  0  0
 40 52  1  0  0  0
 40 53  2  0  0  0
 40 58  1  0  0  0
 41112  1  0  0  0
 41113  1  0  0  0
 41114  1  0  0  0
 41 48  1  0  0  0
 42 43  1  0  0  0
 42 66  1  0  0  0
 42115  1  0  0  0
 42116  1  0  0  0
 43 44  1  0  0  0
 44117  1  0  0  0
 45 46  2  0  0  0
 45118  1  0  0  0
 46119  1  0  0  0
 47120  1  0  0  0
 47121  1  0  0  0
 48 56  1  0  0  0
 48 65  1  0  0  0
 48122  1  0  0  0
 49 50  1  0  0  0
 49 53  1  0  0  0
 49 64  1  0  0  0
 49123  1  0  0  0
 50 51  1  0  0  0
 50124  1  0  0  0
 50125  1  0  0  0
 51 52  1  0  0  0
 51126  1  0  0  0
 51127  1  0  0  0
 52128  1  0  0  0
 52129  1  0  0  0
 53 54  1  0  0  0
 54 55  2  0  0  0
 54130  1  0  0  0
 55 57  1  0  0  0
 55131  1  0  0  0
 56 69  2  0  0  0
 57 58  2  0  0  0
 57132  1  0  0  0
 58133  1  0  0  0
 59 60  1  0  0  0
 59 61  1  0  0  0
 59 62  1  0  0  0
 60134  1  0  0  0
 60135  1  0  0  0
 60136  1  0  0  0
 61137  1  0  0  0
 61138  1  0  0  0
 61139  1  0  0  0
 62140  1  0  0  0
 62141  1  0  0  0
 62142  1  0  0  0
 63 65  1  0  0  0
 63143  1  0  0  0
 63144  1  0  0  0
 63145  1  0  0  0
 64146  1  0  0  0
 65147  1  0  0  0
 68 85  1  0  0  0
 71 73  2  0  0  0
 71 74  1  0  0  0
 71148  1  0  0  0
 72 73  1  0  0  0
 72 75  2  0  0  0
 72149  1  0  0  0
 73 76  1  0  0  0
 74 80  1  0  0  0
 74 86  2  0  0  0
 75 81  1  0  0  0
 75 86  1  0  0  0
 76150  1  0  0  0
 76151  1  0  0  0
 76152  1  0  0  0
 77153  1  0  0  0
 77154  1  0  0  0
 77155  1  0  0  0
 77 84  1  0  0  0
 78 84  1  0  0  0
 78156  1  0  0  0
 78157  1  0  0  0
 78158  1  0  0  0
 79159  1  0  0  0
 79160  1  0  0  0
 79161  1  0  0  0
 79 85  1  0  0  0
 80 85  1  0  0  0
 80162  1  0  0  0
 80163  1  0  0  0
 81164  1  0  0  0
 81165  1  0  0  0
 81 88  1  0  0  0
 82 83  1  0  0  0
 82 87  1  0  0  0
 82166  1  0  0  0
 82167  1  0  0  0
 83 88  1  0  0  0
 83168  1  0  0  0
 83169  1  0  0  0
 84 88  1  0  0  0
 84170  1  0  0  0
 85171  1  0  0  0
 87172  1  0  0  0
 88173  1  0  0  0
M  CHG  1  88   1
M  ISO  4   1 100  68 101  85 101  87 100
M  END
> <chiral flag>
0

> <version>
0

> <s_m_source_file>
/data/baiqing/PycharmProjects/Reinvent-master-3.2/result/LINK_invent/BTK/process_docking_weight1_custom_sum_contain_oxygen_bond_distance_aromatic_linkinvent_7_9_3/rearranged_h_0112.sdf

> <i_m_source_file_index>
10

> <r_mmod_Potential_Energy-OPLS-2005>
-305.405120849609

> <r_mmod_Stretch_Energy-OPLS-2005>
46.7908554077148

> <r_mmod_Bend_Energy-OPLS-2005>
133.239532470703

> <r_mmod_Torsional_Energy-OPLS-2005>
250.342864990234

> <r_mmod_Improper_Torsional_Energy-OPLS-2005>
3.93029451370239

> <r_mmod_Van_der_Waal_Energy-OPLS-2005>
156.598480224609

> <r_mmod_Electrostatic_Energy-OPLS-2005>
-483.626800537109

> <r_mmod_Solvation_Energy-OPLS-2005>
-425.966369628906

> <b_mmod_Minimization_Converged-OPLS-2005>
0

> <r_mmod_RMS_Derivative-OPLS-2005>
1.53471755981445

$$$$
10
                    3D
 Structure written by MMmdl.
158166  0  0  1  0            999 V2000
  -30.4321  -15.2142   20.3698 C   0  0  0  0  0  0
  -30.4416  -12.7733   19.5129 C   0  0  0  0  0  0
  -29.5312  -12.5547   18.2779 C   0  0  0  0  0  0
  -28.0867  -12.2711   18.7302 C   0  0  0  0  0  0
  -27.6182  -13.2552   19.8297 C   0  0  2  0  0  0
  -28.6537  -13.4108   20.9628 C   0  0  0  0  0  0
  -25.2447  -13.8187   20.5786 C   0  0  0  0  0  0
  -24.1757  -13.0424   20.9276 C   0  0  0  0  0  0
  -24.6357  -11.6918   20.8764 C   0  0  0  0  0  0
  -23.9041  -10.4296   21.0427 C   0  0  0  0  0  0
  -24.3592   -9.4220   21.9214 C   0  0  0  0  0  0
  -23.6285   -8.2242   22.0780 C   0  0  0  0  0  0
  -22.4273   -8.0271   21.3549 C   0  0  0  0  0  0
  -21.9896   -9.0244   20.4651 C   0  0  0  0  0  0
  -22.7213  -10.2130   20.3080 C   0  0  0  0  0  0
  -21.6855   -6.0723   22.5284 C   0  0  0  0  0  0
  -21.3998   -6.5640   23.8206 C   0  0  0  0  0  0
  -21.3649   -5.6798   24.9173 C   0  0  0  0  0  0
  -21.6050   -4.3065   24.7235 C   0  0  0  0  0  0
  -21.8818   -3.8146   23.4359 C   0  0  0  0  0  0
  -21.9194   -4.6953   22.3405 C   0  0  0  0  0  0
  -22.7782  -13.5213   21.1916 C   0  0  0  0  0  0
  -22.1674   -4.2136   21.0984 F   0  0  0  0  0  0
  -21.5626   -3.4551   25.7749 F   0  0  0  0  0  0
  -29.8847  -13.9090   20.3281 N   0  0  0  0  0  0
  -26.2849  -12.9425   20.3264 N   0  0  0  0  0  0
  -25.9292  -11.6553   20.5744 N   0  0  0  0  0  0
  -22.0395  -12.8201   22.0431 N   0  0  0  0  0  0
  -25.4121  -15.1909   20.4223 N   0  0  0  0  0  0
  -31.6576  -15.2438   20.1780 O   0  0  0  0  0  0
  -21.6652   -6.8865   21.4243 O   0  0  0  0  0  0
  -22.3516  -14.5531   20.6762 O   0  0  0  0  0  0
  -24.6651  -31.8273   23.1765 C   0  0  0  0  0  0
  -25.9362  -32.4573   23.8221 C   0  0  1  0  0  0
  -27.2043  -26.9411   20.1695 C   0  0  0  0  0  0
  -25.6114  -33.8401   24.2170 N   0  0  0  0  0  0
  -23.4779  -30.4480   21.5170 C   0  0  2  0  0  0
  -24.9235  -28.8295   20.1204 C   0  0  0  0  0  0
  -22.7678  -29.4501   22.4710 C   0  0  0  0  0  0
  -18.0358  -28.1420   22.8470 C   0  0  0  0  0  0
  -24.1492  -36.7146   23.2658 C   0  0  0  0  0  0
  -26.0501  -30.6349   21.4084 C   0  0  0  0  0  0
  -26.1105  -29.2262   20.7484 C   0  0  0  0  0  0
  -27.2462  -28.3012   20.7476 C   0  0  0  0  0  0
  -25.9772  -26.6835   19.5250 C   0  0  0  0  0  0
  -24.8768  -27.5734   19.4990 C   0  0  0  0  0  0
  -23.7281  -29.7771   20.1395 C   0  0  0  0  0  0
  -25.4137  -36.2937   24.0326 C   0  0  1  0  0  0
  -20.5995  -28.3783   23.1163 C   0  0  2  0  0  0
  -20.6832  -26.9467   22.5382 C   0  0  0  0  0  0
  -19.5788  -26.6396   21.5218 C   0  0  0  0  0  0
  -18.1967  -26.7969   22.1612 C   0  0  0  0  0  0
  -19.1618  -28.8903   23.2811 C   0  0  0  0  0  0
  -18.9540  -30.1494   23.8844 C   0  0  0  0  0  0
  -17.6533  -30.6596   24.0569 C   0  0  0  0  0  0
  -25.9114  -34.9325   23.5018 C   0  0  0  0  0  0
  -16.5421  -29.9101   23.6340 C   0  0  0  0  0  0
  -16.7337  -28.6525   23.0335 C   0  0  0  0  0  0
  -26.4689  -31.6468   25.0688 C   0  0  0  0  0  0
  -25.3865  -31.3642   26.1349 C   0  0  0  0  0  0
  -27.0662  -30.2861   24.6445 C   0  0  0  0  0  0
  -27.6212  -32.4253   25.7487 C   0  0  0  0  0  0
  -27.5567  -37.1726   24.8506 C   0  0  0  0  0  0
  -21.4343  -29.3091   22.3502 N   0  0  0  0  0  0
  -26.4269  -37.3686   23.9460 N   0  0  0  0  0  0
  -24.7508  -30.9992   22.0867 N   0  0  0  0  0  0
  -23.4244  -28.8006   23.2887 O   0  0  0  0  0  0
  -28.2456  -25.8819   20.1984 O   0  0  0  0  0  0
  -26.5608  -34.8847   22.4540 O   0  0  0  0  0  0
  -23.5724  -32.1236   23.6859 O   0  0  0  0  0  0
  -28.1938  -22.0152   18.9927 C   0  0  0  0  0  0
  -29.0107  -22.1374   21.1069 C   0  0  0  0  0  0
  -28.7625  -21.1746   20.0350 C   0  0  0  0  0  0
  -27.9547  -23.4748   18.9768 C   0  0  0  0  0  0
  -28.2242  -24.3485   20.1125 C   0  0  0  0  0  0
  -26.0374  -23.5575   17.2763 C   0  0  0  0  0  0
  -28.4289  -23.7824   16.4900 C   0  0  0  0  0  0
  -29.8399  -18.0957   20.5668 C   0  0  0  0  0  0
  -27.4511  -24.0576   17.6471 C   0  0  0  0  0  0
  -28.8656  -19.4177   19.8971 C   0  0  2  0  0  0
  -28.7902  -23.5585   21.1271 N   0  0  0  0  0  0
  -29.6333  -16.4511   20.4298 N   0  0  0  0  0  0
  -28.8302  -19.0888   18.4572 N   0  3  0  0  0  0
  -31.4620  -12.9781   19.1896 H   0  0  0  0  0  0
  -30.4992  -11.8598   20.1062 H   0  0  0  0  0  0
  -29.9029  -11.7205   17.6802 H   0  0  0  0  0  0
  -29.5538  -13.4314   17.6274 H   0  0  0  0  0  0
  -28.0752  -11.2574   19.1340 H   0  0  0  0  0  0
  -27.3987  -12.2719   17.8834 H   0  0  0  0  0  0
  -27.5400  -14.2225   19.3327 H   0  0  0  0  0  0
  -28.8202  -12.4709   21.4931 H   0  0  0  0  0  0
  -28.3034  -14.1279   21.7079 H   0  0  0  0  0  0
  -25.2716   -9.5725   22.4819 H   0  0  0  0  0  0
  -23.9996   -7.4643   22.7515 H   0  0  0  0  0  0
  -21.0835   -8.8752   19.8960 H   0  0  0  0  0  0
  -22.3655  -10.9676   19.6214 H   0  0  0  0  0  0
  -21.1978   -7.6151   23.9699 H   0  0  0  0  0  0
  -21.1469   -6.0534   25.9066 H   0  0  0  0  0  0
  -22.0596   -2.7609   23.2865 H   0  0  0  0  0  0
  -22.3999  -11.9842   22.4778 H   0  0  0  0  0  0
  -21.1036  -13.1275   22.2659 H   0  0  0  0  0  0
  -24.6403  -15.8379   20.5389 H   0  0  0  0  0  0
  -26.2401  -15.6239   20.0377 H   0  0  0  0  0  0
  -26.7390  -32.5095   23.0889 H   0  0  0  0  0  0
  -25.0580  -33.9566   25.0537 H   0  0  0  0  0  0
  -22.7922  -31.2791   21.3421 H   0  0  0  0  0  0
  -23.3788  -35.9441   23.3285 H   0  0  0  0  0  0
  -24.3606  -36.8814   22.2089 H   0  0  0  0  0  0
  -23.7214  -37.6315   23.6708 H   0  0  0  0  0  0
  -26.2545  -31.3794   20.6383 H   0  0  0  0  0  0
  -26.9022  -30.6701   22.0739 H   0  0  0  0  0  0
  -28.1548  -28.5938   21.2537 H   0  0  0  0  0  0
  -25.8202  -25.7190   19.0756 H   0  0  0  0  0  0
  -23.9644  -27.2484   19.0163 H   0  0  0  0  0  0
  -23.9464  -30.5527   19.4041 H   0  0  0  0  0  0
  -22.8298  -29.2792   19.7720 H   0  0  0  0  0  0
  -25.1342  -36.1697   25.0820 H   0  0  0  0  0  0
  -21.0125  -28.3390   24.1267 H   0  0  0  0  0  0
  -20.5783  -26.2406   23.3630 H   0  0  0  0  0  0
  -21.6689  -26.7457   22.1177 H   0  0  0  0  0  0
  -19.6967  -25.6313   21.1247 H   0  0  0  0  0  0
  -19.6720  -27.3212   20.6752 H   0  0  0  0  0  0
  -17.4276  -26.6764   21.3968 H   0  0  0  0  0  0
  -18.0293  -26.0103   22.8972 H   0  0  0  0  0  0
  -19.8024  -30.7317   24.2173 H   0  0  0  0  0  0
  -17.5100  -31.6258   24.5212 H   0  0  0  0  0  0
  -15.5427  -30.2985   23.7703 H   0  0  0  0  0  0
  -15.8722  -28.0840   22.7033 H   0  0  0  0  0  0
  -24.6113  -30.6928   25.7657 H   0  0  0  0  0  0
  -24.9001  -32.2787   26.4726 H   0  0  0  0  0  0
  -25.8167  -30.8862   27.0153 H   0  0  0  0  0  0
  -26.3343  -29.6381   24.1612 H   0  0  0  0  0  0
  -27.4414  -29.7373   25.5102 H   0  0  0  0  0  0
  -27.9195  -30.4097   23.9775 H   0  0  0  0  0  0
  -27.2882  -33.3664   26.1857 H   0  0  0  0  0  0
  -28.4154  -32.6592   25.0382 H   0  0  0  0  0  0
  -28.0701  -31.8466   26.5568 H   0  0  0  0  0  0
  -28.2551  -38.0052   24.7550 H   0  0  0  0  0  0
  -28.1069  -36.2571   24.6292 H   0  0  0  0  0  0
  -27.2283  -37.1308   25.8907 H   0  0  0  0  0  0
  -20.9543  -29.8858   21.6732 H   0  0  0  0  0  0
  -26.0081  -38.2728   24.1475 H   0  0  0  0  0  0
  -27.9115  -21.4981   18.0917 H   0  0  0  0  0  0
  -29.4093  -21.7564   22.0365 H   0  0  0  0  0  0
  -25.2928  -23.8577   18.0125 H   0  0  0  0  0  0
  -25.9835  -22.4713   17.1833 H   0  0  0  0  0  0
  -25.7152  -23.9744   16.3209 H   0  0  0  0  0  0
  -29.4194  -24.1812   16.7119 H   0  0  0  0  0  0
  -28.0915  -24.2539   15.5641 H   0  0  0  0  0  0
  -28.5298  -22.7170   16.2806 H   0  0  0  0  0  0
  -29.8336  -18.2611   21.6439 H   0  0  0  0  0  0
  -30.8731  -18.2829   20.2736 H   0  0  0  0  0  0
  -27.4107  -25.1421   17.7348 H   0  0  0  0  0  0
  -27.8723  -19.1443   20.2560 H   0  0  0  0  0  0
  -28.6590  -16.2072   20.5511 H   0  0  0  0  0  0
  -29.6217  -19.4828   17.9805 H   0  0  0  0  0  0
  -27.9899  -19.4175   18.0182 H   0  0  0  0  0  0
  -28.8649  -18.0903   18.3411 H   0  0  0  0  0  0
  1 25  1  0  0  0
  1 30  2  0  0  0
  1 82  1  0  0  0
  2  3  1  0  0  0
  2 25  1  0  0  0
  2 84  1  0  0  0
  2 85  1  0  0  0
  3  4  1  0  0  0
  3 86  1  0  0  0
  3 87  1  0  0  0
  4  5  1  0  0  0
  4 88  1  0  0  0
  4 89  1  0  0  0
  5  6  1  0  0  0
  5 26  1  0  0  0
  5 90  1  0  0  0
  6 25  1  0  0  0
  6 91  1  0  0  0
  6 92  1  0  0  0
  7  8  2  0  0  0
  7 26  1  0  0  0
  7 29  1  0  0  0
  8  9  1  0  0  0
  8 22  1  0  0  0
  9 10  1  0  0  0
  9 27  2  0  0  0
 10 11  2  0  0  0
 10 15  1  0  0  0
 11 12  1  0  0  0
 11 93  1  0  0  0
 12 13  2  0  0  0
 12 94  1  0  0  0
 13 14  1  0  0  0
 13 31  1  0  0  0
 14 15  2  0  0  0
 14 95  1  0  0  0
 15 96  1  0  0  0
 16 17  2  0  0  0
 16 21  1  0  0  0
 16 31  1  0  0  0
 17 18  1  0  0  0
 17 97  1  0  0  0
 18 19  2  0  0  0
 18 98  1  0  0  0
 19 20  1  0  0  0
 19 24  1  0  0  0
 20 21  2  0  0  0
 20 99  1  0  0  0
 21 23  1  0  0  0
 22 28  1  0  0  0
 22 32  2  0  0  0
 26 27  1  0  0  0
 28100  1  0  0  0
 28101  1  0  0  0
 29102  1  0  0  0
 29103  1  0  0  0
 33 34  1  0  0  0
 33 66  1  0  0  0
 33 70  2  0  0  0
 34 36  1  0  0  0
 34 59  1  0  0  0
 34104  1  0  0  0
 35 44  2  0  0  0
 35 45  1  0  0  0
 35 68  1  0  0  0
 36 56  1  0  0  0
 36105  1  0  0  0
 37 39  1  0  0  0
 37 47  1  0  0  0
 37 66  1  0  0  0
 37106  1  0  0  0
 38 43  2  0  0  0
 38 46  1  0  0  0
 38 47  1  0  0  0
 39 64  1  0  0  0
 39 67  2  0  0  0
 40 52  1  0  0  0
 40 53  2  0  0  0
 40 58  1  0  0  0
 41107  1  0  0  0
 41108  1  0  0  0
 41109  1  0  0  0
 41 48  1  0  0  0
 42 43  1  0  0  0
 42 66  1  0  0  0
 42110  1  0  0  0
 42111  1  0  0  0
 43 44  1  0  0  0
 44112  1  0  0  0
 45 46  2  0  0  0
 45113  1  0  0  0
 46114  1  0  0  0
 47115  1  0  0  0
 47116  1  0  0  0
 48 56  1  0  0  0
 48 65  1  0  0  0
 48117  1  0  0  0
 49 50  1  0  0  0
 49 53  1  0  0  0
 49 64  1  0  0  0
 49118  1  0  0  0
 50 51  1  0  0  0
 50119  1  0  0  0
 50120  1  0  0  0
 51 52  1  0  0  0
 51121  1  0  0  0
 51122  1  0  0  0
 52123  1  0  0  0
 52124  1  0  0  0
 53 54  1  0  0  0
 54 55  2  0  0  0
 54125  1  0  0  0
 55 57  1  0  0  0
 55126  1  0  0  0
 56 69  2  0  0  0
 57 58  2  0  0  0
 57127  1  0  0  0
 58128  1  0  0  0
 59 60  1  0  0  0
 59 61  1  0  0  0
 59 62  1  0  0  0
 60129  1  0  0  0
 60130  1  0  0  0
 60131  1  0  0  0
 61132  1  0  0  0
 61133  1  0  0  0
 61134  1  0  0  0
 62135  1  0  0  0
 62136  1  0  0  0
 62137  1  0  0  0
 63 65  1  0  0  0
 63138  1  0  0  0
 63139  1  0  0  0
 63140  1  0  0  0
 64141  1  0  0  0
 65142  1  0  0  0
 68 75  1  0  0  0
 71 73  2  0  0  0
 71 74  1  0  0  0
 71143  1  0  0  0
 72 73  1  0  0  0
 72 81  2  0  0  0
 72144  1  0  0  0
 73 80  1  0  0  0
 74 75  2  0  0  0
 74 79  1  0  0  0
 75 81  1  0  0  0
 76145  1  0  0  0
 76146  1  0  0  0
 76147  1  0  0  0
 76 79  1  0  0  0
 77 79  1  0  0  0
 77148  1  0  0  0
 77149  1  0  0  0
 77150  1  0  0  0
 78 80  1  0  0  0
 78 82  1  0  0  0
 78151  1  0  0  0
 78152  1  0  0  0
 79153  1  0  0  0
 80 83  1  0  0  0
 80154  1  0  0  0
 82155  1  0  0  0
 83156  1  0  0  0
 83157  1  0  0  0
 83158  1  0  0  0
M  CHG  1  83   1
M  ISO  4   1 100  68 101  75 101  82 100
M  END
> <chiral flag>
0

> <version>
0

> <s_m_source_file>
/data/baiqing/PycharmProjects/Reinvent-master-3.2/result/LINK_invent/BTK/process_docking_weight1_custom_sum_contain_oxygen_bond_distance_aromatic_linkinvent_7_9_3/rearranged_h_0112.sdf

> <i_m_source_file_index>
11

> <r_mmod_Potential_Energy-OPLS-2005>
710.101501464844

> <r_mmod_Stretch_Energy-OPLS-2005>
477.841644287109

> <r_mmod_Bend_Energy-OPLS-2005>
434.689056396484

> <r_mmod_Torsional_Energy-OPLS-2005>
251.232406616211

> <r_mmod_Improper_Torsional_Energy-OPLS-2005>
6.41016721725464

> <r_mmod_Van_der_Waal_Energy-OPLS-2005>
129.613754272461

> <r_mmod_Electrostatic_Energy-OPLS-2005>
-460.338989257812

> <r_mmod_Solvation_Energy-OPLS-2005>
-545.054931640625

> <b_mmod_Minimization_Converged-OPLS-2005>
0

> <r_mmod_RMS_Derivative-OPLS-2005>
4.87612199783325

$$$$
11
                    3D
 Structure written by MMmdl.
150158  0  0  1  0            999 V2000
  -30.2898  -15.6691   20.3270 C   0  0  0  0  0  0
  -30.4217  -13.1066   19.5406 C   0  0  0  0  0  0
  -29.5518  -12.6640   18.3280 C   0  0  0  0  0  0
  -28.1277  -12.2997   18.7727 C   0  0  0  0  0  0
  -27.5942  -13.3108   19.8119 C   0  0  2  0  0  0
  -28.6077  -13.6599   20.9285 C   0  0  0  0  0  0
  -25.2315  -13.8287   20.5798 C   0  0  0  0  0  0
  -24.1708  -13.0432   20.9292 C   0  0  0  0  0  0
  -24.6414  -11.6945   20.8765 C   0  0  0  0  0  0
  -23.9119  -10.4291   21.0396 C   0  0  0  0  0  0
  -24.3653   -9.4205   21.9180 C   0  0  0  0  0  0
  -23.6315   -8.2246   22.0754 C   0  0  0  0  0  0
  -22.4295   -8.0287   21.3544 C   0  0  0  0  0  0
  -21.9942   -9.0262   20.4643 C   0  0  0  0  0  0
  -22.7284  -10.2134   20.3049 C   0  0  0  0  0  0
  -21.6858   -6.0742   22.5279 C   0  0  0  0  0  0
  -21.4018   -6.5644   23.8213 C   0  0  0  0  0  0
  -21.3660   -5.6794   24.9174 C   0  0  0  0  0  0
  -21.6044   -4.3057   24.7223 C   0  0  0  0  0  0
  -21.8818   -3.8150   23.4343 C   0  0  0  0  0  0
  -21.9194   -4.6969   22.3401 C   0  0  0  0  0  0
  -22.7720  -13.5160   21.1925 C   0  0  0  0  0  0
  -22.1662   -4.2155   21.0978 F   0  0  0  0  0  0
  -21.5628   -3.4540   25.7735 F   0  0  0  0  0  0
  -29.7762  -14.2940   20.2709 N   0  0  0  0  0  0
  -26.2766  -12.9624   20.3236 N   0  0  0  0  0  0
  -25.9362  -11.6692   20.5698 N   0  0  0  0  0  0
  -22.0386  -12.8134   22.0475 N   0  0  0  0  0  0
  -25.3901  -15.2029   20.4236 N   0  0  0  0  0  0
  -31.5254  -15.6037   20.1722 O   0  0  0  0  0  0
  -21.6650   -6.8889   21.4243 O   0  0  0  0  0  0
  -22.3395  -14.5459   20.6762 O   0  0  0  0  0  0
  -24.6874  -31.7953   23.1480 C   0  0  0  0  0  0
  -25.9435  -32.4444   23.8043 C   0  0  1  0  0  0
  -27.2272  -26.6635   20.2208 C   0  0  0  0  0  0
  -25.5999  -33.8271   24.1929 N   0  0  0  0  0  0
  -23.5154  -30.3954   21.5028 C   0  0  2  0  0  0
  -24.9734  -28.7281   20.1196 C   0  0  0  0  0  0
  -22.7783  -29.4290   22.4698 C   0  0  0  0  0  0
  -18.0341  -28.1426   22.8453 C   0  0  0  0  0  0
  -24.1496  -36.7143   23.2656 C   0  0  0  0  0  0
  -26.0975  -30.5157   21.4181 C   0  0  0  0  0  0
  -26.1629  -29.0759   20.7701 C   0  0  0  0  0  0
  -27.2734  -28.0732   20.7861 C   0  0  0  0  0  0
  -26.0056  -26.5373   19.5081 C   0  0  0  0  0  0
  -24.9362  -27.4850   19.4641 C   0  0  0  0  0  0
  -23.7717  -29.6882   20.1401 C   0  0  0  0  0  0
  -25.4148  -36.2881   24.0280 C   0  0  1  0  0  0
  -20.5979  -28.3786   23.1136 C   0  0  2  0  0  0
  -20.6806  -26.9442   22.5405 C   0  0  0  0  0  0
  -19.5783  -26.6371   21.5218 C   0  0  0  0  0  0
  -18.1965  -26.7952   22.1619 C   0  0  0  0  0  0
  -19.1609  -28.8930   23.2775 C   0  0  0  0  0  0
  -18.9514  -30.1512   23.8824 C   0  0  0  0  0  0
  -17.6504  -30.6607   24.0549 C   0  0  0  0  0  0
  -25.9128  -34.9272   23.4945 C   0  0  0  0  0  0
  -16.5393  -29.9089   23.6352 C   0  0  0  0  0  0
  -16.7321  -28.6511   23.0369 C   0  0  0  0  0  0
  -26.4601  -31.6493   25.0680 C   0  0  0  0  0  0
  -25.3657  -31.3821   26.1287 C   0  0  0  0  0  0
  -27.0540  -30.2827   24.6607 C   0  0  0  0  0  0
  -27.6044  -32.4360   25.7501 C   0  0  0  0  0  0
  -27.5558  -37.1734   24.8471 C   0  0  0  0  0  0
  -21.4426  -29.3025   22.3450 N   0  0  0  0  0  0
  -26.4273  -37.3643   23.9402 N   0  0  0  0  0  0
  -24.7907  -30.9361   22.0754 N   0  0  0  0  0  0
  -23.4207  -28.7897   23.3061 O   0  0  0  0  0  0
  -28.1895  -25.4295   20.2922 O   0  0  0  0  0  0
  -26.5774  -34.8857   22.4565 O   0  0  0  0  0  0
  -23.5884  -32.1044   23.6410 O   0  0  0  0  0  0
  -28.6212  -20.2137   19.7218 C   0  0  0  0  0  0
  -29.7084  -19.7619   21.6346 C   0  0  0  0  0  0
  -29.6322  -18.8426   20.3056 C   0  0  1  0  0  0
  -28.9220  -21.9145   20.2345 C   0  0  1  0  0  0
  -26.8862  -23.4688   21.2926 C   0  0  0  0  0  0
  -27.9871  -23.6563   20.2440 C   0  0  1  0  0  0
  -29.5236  -17.0407   20.3693 N   0  0  0  0  0  0
  -29.5487  -21.3324   21.4997 N   0  3  0  0  0  0
  -31.4120  -13.3744   19.1708 H   0  0  0  0  0  0
  -30.5920  -12.2704   20.2210 H   0  0  0  0  0  0
  -30.0136  -11.8219   17.8110 H   0  0  0  0  0  0
  -29.5065  -13.4803   17.6056 H   0  0  0  0  0  0
  -28.1608  -11.3046   19.2181 H   0  0  0  0  0  0
  -27.4588  -12.2326   17.9138 H   0  0  0  0  0  0
  -27.4515  -14.2268   19.2368 H   0  0  0  0  0  0
  -28.8761  -12.7848   21.5225 H   0  0  0  0  0  0
  -28.1667  -14.3774   21.6220 H   0  0  0  0  0  0
  -25.2792   -9.5681   22.4765 H   0  0  0  0  0  0
  -24.0016   -7.4639   22.7478 H   0  0  0  0  0  0
  -21.0872   -8.8788   19.8949 H   0  0  0  0  0  0
  -22.3741  -10.9675   19.6162 H   0  0  0  0  0  0
  -21.2011   -7.6151   23.9718 H   0  0  0  0  0  0
  -21.1483   -6.0524   25.9077 H   0  0  0  0  0  0
  -22.0596   -2.7613   23.2842 H   0  0  0  0  0  0
  -22.4029  -11.9808   22.4865 H   0  0  0  0  0  0
  -21.0991  -13.1124   22.2674 H   0  0  0  0  0  0
  -24.6155  -15.8487   20.5327 H   0  0  0  0  0  0
  -26.2263  -15.6445   20.0656 H   0  0  0  0  0  0
  -26.7520  -32.4909   23.0757 H   0  0  0  0  0  0
  -25.0054  -33.9303   25.0021 H   0  0  0  0  0  0
  -22.8430  -31.2337   21.3089 H   0  0  0  0  0  0
  -23.3773  -35.9459   23.3278 H   0  0  0  0  0  0
  -24.3559  -36.8845   22.2077 H   0  0  0  0  0  0
  -23.7247  -37.6307   23.6759 H   0  0  0  0  0  0
  -26.3034  -31.2369   20.6261 H   0  0  0  0  0  0
  -26.9475  -30.5861   22.0843 H   0  0  0  0  0  0
  -28.1679  -28.3475   21.3275 H   0  0  0  0  0  0
  -25.8337  -25.6006   18.9974 H   0  0  0  0  0  0
  -24.0407  -27.2103   18.9236 H   0  0  0  0  0  0
  -23.9505  -30.4460   19.3764 H   0  0  0  0  0  0
  -22.8758  -29.1563   19.8152 H   0  0  0  0  0  0
  -25.1362  -36.1640   25.0771 H   0  0  0  0  0  0
  -21.0060  -28.3415   24.1263 H   0  0  0  0  0  0
  -20.5665  -26.2411   23.3670 H   0  0  0  0  0  0
  -21.6667  -26.7380   22.1226 H   0  0  0  0  0  0
  -19.6939  -25.6262   21.1297 H   0  0  0  0  0  0
  -19.6729  -27.3139   20.6715 H   0  0  0  0  0  0
  -17.4235  -26.6694   21.4022 H   0  0  0  0  0  0
  -18.0352  -26.0115   22.9034 H   0  0  0  0  0  0
  -19.7989  -30.7345   24.2164 H   0  0  0  0  0  0
  -17.5056  -31.6280   24.5165 H   0  0  0  0  0  0
  -15.5390  -30.2969   23.7720 H   0  0  0  0  0  0
  -15.8721  -28.0804   22.7130 H   0  0  0  0  0  0
  -24.5873  -30.7138   25.7585 H   0  0  0  0  0  0
  -24.8812  -32.3044   26.4499 H   0  0  0  0  0  0
  -25.7823  -30.9124   27.0206 H   0  0  0  0  0  0
  -26.3264  -29.6428   24.1605 H   0  0  0  0  0  0
  -27.3959  -29.7290   25.5362 H   0  0  0  0  0  0
  -27.9246  -30.3945   24.0144 H   0  0  0  0  0  0
  -27.2583  -33.3737   26.1861 H   0  0  0  0  0  0
  -28.3966  -32.6799   25.0411 H   0  0  0  0  0  0
  -28.0590  -31.8636   26.5598 H   0  0  0  0  0  0
  -28.2559  -38.0042   24.7488 H   0  0  0  0  0  0
  -28.1069  -36.2560   24.6340 H   0  0  0  0  0  0
  -27.2266  -37.1420   25.8873 H   0  0  0  0  0  0
  -20.9738  -29.8679   21.6509 H   0  0  0  0  0  0
  -26.0098  -38.2694   24.1394 H   0  0  0  0  0  0
  -27.5955  -19.9878   20.0185 H   0  0  0  0  0  0
  -28.5949  -20.1855   18.6323 H   0  0  0  0  0  0
  -30.6291  -19.5501   22.1788 H   0  0  0  0  0  0
  -28.9071  -19.4356   22.2987 H   0  0  0  0  0  0
  -30.5851  -18.9795   19.7933 H   0  0  0  0  0  0
  -29.7842  -22.1674   19.6169 H   0  0  0  0  0  0
  -26.4775  -22.4592   21.2548 H   0  0  0  0  0  0
  -26.0589  -24.1594   21.1355 H   0  0  0  0  0  0
  -27.2749  -23.6372   22.2962 H   0  0  0  0  0  0
  -27.4919  -23.5916   19.2748 H   0  0  0  0  0  0
  -28.5464  -16.8004   20.4566 H   0  0  0  0  0  0
  -30.4626  -21.7455   21.5994 H   0  0  0  0  0  0
  -29.0199  -21.6455   22.2983 H   0  0  0  0  0  0
  1 25  1  0  0  0
  1 30  2  0  0  0
  1 77  1  0  0  0
  2  3  1  0  0  0
  2 25  1  0  0  0
  2 79  1  0  0  0
  2 80  1  0  0  0
  3  4  1  0  0  0
  3 81  1  0  0  0
  3 82  1  0  0  0
  4  5  1  0  0  0
  4 83  1  0  0  0
  4 84  1  0  0  0
  5  6  1  0  0  0
  5 26  1  0  0  0
  5 85  1  0  0  0
  6 25  1  0  0  0
  6 86  1  0  0  0
  6 87  1  0  0  0
  7  8  2  0  0  0
  7 26  1  0  0  0
  7 29  1  0  0  0
  8  9  1  0  0  0
  8 22  1  0  0  0
  9 10  1  0  0  0
  9 27  2  0  0  0
 10 11  2  0  0  0
 10 15  1  0  0  0
 11 12  1  0  0  0
 11 88  1  0  0  0
 12 13  2  0  0  0
 12 89  1  0  0  0
 13 14  1  0  0  0
 13 31  1  0  0  0
 14 15  2  0  0  0
 14 90  1  0  0  0
 15 91  1  0  0  0
 16 17  2  0  0  0
 16 21  1  0  0  0
 16 31  1  0  0  0
 17 18  1  0  0  0
 17 92  1  0  0  0
 18 19  2  0  0  0
 18 93  1  0  0  0
 19 20  1  0  0  0
 19 24  1  0  0  0
 20 21  2  0  0  0
 20 94  1  0  0  0
 21 23  1  0  0  0
 22 28  1  0  0  0
 22 32  2  0  0  0
 26 27  1  0  0  0
 28 95  1  0  0  0
 28 96  1  0  0  0
 29 97  1  0  0  0
 29 98  1  0  0  0
 33 34  1  0  0  0
 33 66  1  0  0  0
 33 70  2  0  0  0
 34 36  1  0  0  0
 34 59  1  0  0  0
 34 99  1  0  0  0
 35 44  2  0  0  0
 35 45  1  0  0  0
 35 68  1  0  0  0
 36 56  1  0  0  0
 36100  1  0  0  0
 37 39  1  0  0  0
 37 47  1  0  0  0
 37 66  1  0  0  0
 37101  1  0  0  0
 38 43  2  0  0  0
 38 46  1  0  0  0
 38 47  1  0  0  0
 39 64  1  0  0  0
 39 67  2  0  0  0
 40 52  1  0  0  0
 40 53  2  0  0  0
 40 58  1  0  0  0
 41102  1  0  0  0
 41103  1  0  0  0
 41104  1  0  0  0
 41 48  1  0  0  0
 42 43  1  0  0  0
 42 66  1  0  0  0
 42105  1  0  0  0
 42106  1  0  0  0
 43 44  1  0  0  0
 44107  1  0  0  0
 45 46  2  0  0  0
 45108  1  0  0  0
 46109  1  0  0  0
 47110  1  0  0  0
 47111  1  0  0  0
 48 56  1  0  0  0
 48 65  1  0  0  0
 48112  1  0  0  0
 49 50  1  0  0  0
 49 53  1  0  0  0
 49 64  1  0  0  0
 49113  1  0  0  0
 50 51  1  0  0  0
 50114  1  0  0  0
 50115  1  0  0  0
 51 52  1  0  0  0
 51116  1  0  0  0
 51117  1  0  0  0
 52118  1  0  0  0
 52119  1  0  0  0
 53 54  1  0  0  0
 54 55  2  0  0  0
 54120  1  0  0  0
 55 57  1  0  0  0
 55121  1  0  0  0
 56 69  2  0  0  0
 57 58  2  0  0  0
 57122  1  0  0  0
 58123  1  0  0  0
 59 60  1  0  0  0
 59 61  1  0  0  0
 59 62  1  0  0  0
 60124  1  0  0  0
 60125  1  0  0  0
 60126  1  0  0  0
 61127  1  0  0  0
 61128  1  0  0  0
 61129  1  0  0  0
 62130  1  0  0  0
 62131  1  0  0  0
 62132  1  0  0  0
 63 65  1  0  0  0
 63133  1  0  0  0
 63134  1  0  0  0
 63135  1  0  0  0
 64136  1  0  0  0
 65137  1  0  0  0
 68 76  1  0  0  0
 71 73  1  0  0  0
 71138  1  0  0  0
 71139  1  0  0  0
 71 74  1  0  0  0
 72 73  1  0  0  0
 72 78  1  0  0  0
 72140  1  0  0  0
 72141  1  0  0  0
 73 77  1  0  0  0
 73142  1  0  0  0
 74 76  1  0  0  0
 74 78  1  0  0  0
 74143  1  0  0  0
 75144  1  0  0  0
 75145  1  0  0  0
 75146  1  0  0  0
 75 76  1  0  0  0
 76147  1  0  0  0
 77148  1  0  0  0
 78149  1  0  0  0
 78150  1  0  0  0
M  CHG  1  78   1
M  ISO  4   1 100  68 101  76 101  77 100
M  END
> <chiral flag>
0

> <version>
0

> <s_m_source_file>
/data/baiqing/PycharmProjects/Reinvent-master-3.2/result/LINK_invent/BTK/process_docking_weight1_custom_sum_contain_oxygen_bond_distance_aromatic_linkinvent_7_9_3/rearranged_h_0112.sdf

> <i_m_source_file_index>
12

> <r_mmod_Potential_Energy-OPLS-2005>
2459.44897460938

> <r_mmod_Stretch_Energy-OPLS-2005>
1127.40466308594

> <r_mmod_Bend_Energy-OPLS-2005>
748.398864746094

> <r_mmod_Torsional_Energy-OPLS-2005>
277.345794677734

> <r_mmod_Improper_Torsional_Energy-OPLS-2005>
3.6983482837677

> <r_mmod_Van_der_Waal_Energy-OPLS-2005>
105.60823059082

> <r_mmod_Electrostatic_Energy-OPLS-2005>
-290.405334472656

> <r_mmod_Solvation_Energy-OPLS-2005>
-478.351379394531

> <b_mmod_Minimization_Converged-OPLS-2005>
0

> <r_mmod_RMS_Derivative-OPLS-2005>
0.249229341745377

$$$$
12
                    3D
 Structure written by MMmdl.
167176  0  0  1  0            999 V2000
  -30.5612  -14.7892   20.4372 C   0  0  0  0  0  0
  -30.4412  -12.4863   19.4437 C   0  0  0  0  0  0
  -29.5050  -12.5027   18.2161 C   0  0  0  0  0  0
  -28.0326  -12.3210   18.6374 C   0  0  0  0  0  0
  -27.6363  -13.2240   19.8358 C   0  0  2  0  0  0
  -28.6876  -13.1724   20.9613 C   0  0  0  0  0  0
  -25.2523  -13.8181   20.5695 C   0  0  0  0  0  0
  -24.1836  -13.0443   20.9250 C   0  0  0  0  0  0
  -24.6418  -11.6911   20.8781 C   0  0  0  0  0  0
  -23.9089  -10.4297   21.0434 C   0  0  0  0  0  0
  -24.3631   -9.4210   21.9212 C   0  0  0  0  0  0
  -23.6302   -8.2242   22.0765 C   0  0  0  0  0  0
  -22.4288   -8.0289   21.3538 C   0  0  0  0  0  0
  -21.9939   -9.0275   20.4647 C   0  0  0  0  0  0
  -22.7270  -10.2150   20.3078 C   0  0  0  0  0  0
  -21.6858   -6.0758   22.5296 C   0  0  0  0  0  0
  -21.4006   -6.5650   23.8230 C   0  0  0  0  0  0
  -21.3654   -5.6796   24.9185 C   0  0  0  0  0  0
  -21.6042   -4.3061   24.7233 C   0  0  0  0  0  0
  -21.8812   -3.8162   23.4350 C   0  0  0  0  0  0
  -21.9190   -4.6984   22.3413 C   0  0  0  0  0  0
  -22.7852  -13.5228   21.1897 C   0  0  0  0  0  0
  -22.1664   -4.2161   21.0987 F   0  0  0  0  0  0
  -21.5631   -3.4546   25.7746 F   0  0  0  0  0  0
  -29.9685  -13.5508   20.3542 N   0  0  0  0  0  0
  -26.2922  -12.9372   20.3232 N   0  0  0  0  0  0
  -25.9334  -11.6525   20.5746 N   0  0  0  0  0  0
  -22.0478  -12.8218   22.0422 N   0  0  0  0  0  0
  -25.4197  -15.1914   20.4069 N   0  0  0  0  0  0
  -31.7787  -14.9036   20.2834 O   0  0  0  0  0  0
  -21.6641   -6.8894   21.4251 O   0  0  0  0  0  0
  -22.3553  -14.5540   20.6739 O   0  0  0  0  0  0
  -24.6339  -31.8530   23.1951 C   0  0  0  0  0  0
  -25.9152  -32.4731   23.8316 C   0  0  1  0  0  0
  -27.2212  -27.2416   20.1419 C   0  0  0  0  0  0
  -25.5943  -33.8541   24.2240 N   0  0  0  0  0  0
  -23.4322  -30.4723   21.5387 C   0  0  2  0  0  0
  -24.8788  -28.9053   20.1216 C   0  0  0  0  0  0
  -22.7525  -29.4598   22.4913 C   0  0  0  0  0  0
  -18.0311  -28.1396   22.8493 C   0  0  0  0  0  0
  -24.1495  -36.7273   23.2640 C   0  0  0  0  0  0
  -25.9780  -30.7592   21.3779 C   0  0  0  0  0  0
  -26.0504  -29.3738   20.7318 C   0  0  0  0  0  0
  -27.2275  -28.5555   20.7264 C   0  0  0  0  0  0
  -26.0296  -26.8362   19.5109 C   0  0  0  0  0  0
  -24.8723  -27.6438   19.5008 C   0  0  0  0  0  0
  -23.6534  -29.7996   20.1575 C   0  0  0  0  0  0
  -25.4129  -36.3056   24.0317 C   0  0  1  0  0  0
  -20.5911  -28.3712   23.1266 C   0  0  2  0  0  0
  -20.6794  -26.9428   22.5407 C   0  0  0  0  0  0
  -19.5767  -26.6394   21.5219 C   0  0  0  0  0  0
  -18.1953  -26.7936   22.1634 C   0  0  0  0  0  0
  -19.1563  -28.8880   23.2865 C   0  0  0  0  0  0
  -18.9468  -30.1477   23.8886 C   0  0  0  0  0  0
  -17.6460  -30.6583   24.0575 C   0  0  0  0  0  0
  -25.9063  -34.9428   23.5075 C   0  0  0  0  0  0
  -16.5359  -29.9081   23.6327 C   0  0  0  0  0  0
  -16.7293  -28.6511   23.0336 C   0  0  0  0  0  0
  -26.4520  -31.6551   25.0705 C   0  0  0  0  0  0
  -25.3747  -31.3680   26.1422 C   0  0  0  0  0  0
  -27.0385  -30.2979   24.6178 C   0  0  0  0  0  0
  -27.6069  -32.4304   25.7472 C   0  0  0  0  0  0
  -27.5581  -37.1799   24.8469 C   0  0  0  0  0  0
  -21.4236  -29.3048   22.3650 N   0  0  0  0  0  0
  -26.4299  -37.3759   23.9399 N   0  0  0  0  0  0
  -24.7001  -31.0490   22.0924 N   0  0  0  0  0  0
  -23.4205  -28.8161   23.3041 O   0  0  0  0  0  0
  -28.3423  -26.3940   20.0137 O   0  0  0  0  0  0
  -26.5641  -34.8900   22.4647 O   0  0  0  0  0  0
  -23.5486  -32.1374   23.7229 O   0  0  0  0  0  0
  -26.6669  -23.4537   20.6390 C   0  0  0  0  0  0
  -26.1309  -22.1548   20.6395 C   0  0  0  0  0  0
  -28.8579  -22.4665   20.2683 C   0  0  0  0  0  0
  -28.0477  -23.6710   20.4854 C   0  0  0  0  0  0
  -28.3271  -21.0938   20.2110 C   0  0  0  0  0  0
  -26.9279  -21.0072   20.4571 C   0  0  0  0  0  0
  -29.7320  -20.0099   18.3581 C   0  0  0  0  0  0
  -30.5897  -19.5709   21.8369 C   0  0  0  0  0  0
  -29.9078  -19.2041   23.1794 C   0  0  0  0  0  0
  -28.6102  -17.3026   22.2140 C   0  0  0  0  0  0
  -30.0672  -18.7624   20.6215 C   0  0  1  0  0  0
  -29.7749  -17.2429   21.1940 C   0  0  1  0  0  0
  -28.5790  -25.1459   20.8183 C   0  0  0  0  0  0
  -29.0759  -19.7225   19.7274 C   0  0  1  0  0  0
  -30.7258  -20.8907   18.3094 N   0  0  0  0  0  0
  -29.7211  -15.9032   20.4429 N   0  0  0  0  0  0
  -28.5838  -18.5701   22.9858 N   0  3  0  0  0  0
  -29.3490  -19.4417   17.3375 O   0  0  0  0  0  0
  -26.1134  -19.4844   20.5653 Cl  0  0  0  0  0  0
  -31.4736  -12.6551   19.1292 H   0  0  0  0  0  0
  -30.4261  -11.5159   19.9397 H   0  0  0  0  0  0
  -29.7907  -11.7215   17.5090 H   0  0  0  0  0  0
  -29.6176  -13.4493   17.6865 H   0  0  0  0  0  0
  -27.8915  -11.2724   18.9009 H   0  0  0  0  0  0
  -27.3703  -12.5105   17.7901 H   0  0  0  0  0  0
  -27.6198  -14.2419   19.4448 H   0  0  0  0  0  0
  -28.7471  -12.1762   21.4044 H   0  0  0  0  0  0
  -28.4207  -13.8550   21.7693 H   0  0  0  0  0  0
  -25.2778   -9.5680   22.4789 H   0  0  0  0  0  0
  -24.0013   -7.4630   22.7491 H   0  0  0  0  0  0
  -21.0869   -8.8812   19.8953 H   0  0  0  0  0  0
  -22.3752  -10.9698   19.6189 H   0  0  0  0  0  0
  -21.1997   -7.6159   23.9733 H   0  0  0  0  0  0
  -21.1477   -6.0531   25.9083 H   0  0  0  0  0  0
  -22.0594   -2.7627   23.2858 H   0  0  0  0  0  0
  -22.4072  -11.9846   22.4776 H   0  0  0  0  0  0
  -21.1104  -13.1252   22.2615 H   0  0  0  0  0  0
  -24.6313  -15.8234   20.4918 H   0  0  0  0  0  0
  -26.2093  -15.6159   19.9415 H   0  0  0  0  0  0
  -26.7237  -32.5383   23.1072 H   0  0  0  0  0  0
  -25.0115  -33.9677   25.0403 H   0  0  0  0  0  0
  -22.7313  -31.2964   21.3871 H   0  0  0  0  0  0
  -23.3749  -35.9607   23.3307 H   0  0  0  0  0  0
  -24.3589  -36.8906   22.2055 H   0  0  0  0  0  0
  -23.7255  -37.6474   23.6681 H   0  0  0  0  0  0
  -26.1192  -31.5147   20.6040 H   0  0  0  0  0  0
  -26.8541  -30.8129   22.0122 H   0  0  0  0  0  0
  -28.1379  -28.9242   21.1809 H   0  0  0  0  0  0
  -25.9999  -25.8808   19.0062 H   0  0  0  0  0  0
  -23.9800  -27.2875   19.0051 H   0  0  0  0  0  0
  -23.7882  -30.5715   19.3982 H   0  0  0  0  0  0
  -22.7715  -29.2361   19.8502 H   0  0  0  0  0  0
  -25.1320  -36.1898   25.0813 H   0  0  0  0  0  0
  -21.0013  -28.3290   24.1377 H   0  0  0  0  0  0
  -20.5722  -26.2327   23.3612 H   0  0  0  0  0  0
  -21.6656  -26.7462   22.1180 H   0  0  0  0  0  0
  -19.6920  -25.6310   21.1245 H   0  0  0  0  0  0
  -19.6669  -27.3217   20.6760 H   0  0  0  0  0  0
  -17.4209  -26.6691   21.4037 H   0  0  0  0  0  0
  -18.0330  -26.0080   22.9038 H   0  0  0  0  0  0
  -19.7939  -30.7312   24.2224 H   0  0  0  0  0  0
  -17.5003  -31.6250   24.5200 H   0  0  0  0  0  0
  -15.5356  -30.2970   23.7640 H   0  0  0  0  0  0
  -15.8702  -28.0826   22.7015 H   0  0  0  0  0  0
  -24.5889  -30.7078   25.7725 H   0  0  0  0  0  0
  -24.8970  -32.2837   26.4915 H   0  0  0  0  0  0
  -25.8051  -30.8783   27.0164 H   0  0  0  0  0  0
  -26.2963  -29.6692   24.1232 H   0  0  0  0  0  0
  -27.4136  -29.7267   25.4685 H   0  0  0  0  0  0
  -27.8815  -30.4284   23.9382 H   0  0  0  0  0  0
  -27.2678  -33.3616   26.2024 H   0  0  0  0  0  0
  -28.3871  -32.6847   25.0282 H   0  0  0  0  0  0
  -28.0744  -31.8448   26.5401 H   0  0  0  0  0  0
  -28.2595  -38.0099   24.7516 H   0  0  0  0  0  0
  -28.1083  -36.2631   24.6306 H   0  0  0  0  0  0
  -27.2297  -37.1454   25.8870 H   0  0  0  0  0  0
  -20.9441  -29.8748   21.6818 H   0  0  0  0  0  0
  -26.0170  -38.2829   24.1388 H   0  0  0  0  0  0
  -26.0116  -24.2883   20.8430 H   0  0  0  0  0  0
  -25.0703  -22.0324   20.8113 H   0  0  0  0  0  0
  -29.9205  -22.6123   20.1538 H   0  0  0  0  0  0
  -31.6625  -19.4029   21.9406 H   0  0  0  0  0  0
  -30.5022  -20.6413   21.6621 H   0  0  0  0  0  0
  -29.8023  -20.0921   23.8046 H   0  0  0  0  0  0
  -30.5416  -18.5115   23.7386 H   0  0  0  0  0  0
  -28.6948  -16.4691   22.9138 H   0  0  0  0  0  0
  -27.6455  -17.1894   21.7162 H   0  0  0  0  0  0
  -30.9461  -18.6021   19.9936 H   0  0  0  0  0  0
  -30.6658  -17.0541   21.7975 H   0  0  0  0  0  0
  -29.6627  -25.0589   20.9168 H   0  0  0  0  0  0
  -28.2355  -25.3719   21.8274 H   0  0  0  0  0  0
  -28.2941  -19.0304   19.4257 H   0  0  0  0  0  0
  -31.0378  -21.3487   19.1511 H   0  0  0  0  0  0
  -31.1550  -21.1345   17.4278 H   0  0  0  0  0  0
  -28.7751  -15.6419   20.2129 H   0  0  0  0  0  0
  -27.9762  -19.2250   22.5183 H   0  0  0  0  0  0
  -28.1755  -18.3859   23.8895 H   0  0  0  0  0  0
  1 25  1  0  0  0
  1 30  2  0  0  0
  1 86  1  0  0  0
  2  3  1  0  0  0
  2 25  1  0  0  0
  2 90  1  0  0  0
  2 91  1  0  0  0
  3  4  1  0  0  0
  3 92  1  0  0  0
  3 93  1  0  0  0
  4  5  1  0  0  0
  4 94  1  0  0  0
  4 95  1  0  0  0
  5  6  1  0  0  0
  5 26  1  0  0  0
  5 96  1  0  0  0
  6 25  1  0  0  0
  6 97  1  0  0  0
  6 98  1  0  0  0
  7  8  2  0  0  0
  7 26  1  0  0  0
  7 29  1  0  0  0
  8  9  1  0  0  0
  8 22  1  0  0  0
  9 10  1  0  0  0
  9 27  2  0  0  0
 10 11  2  0  0  0
 10 15  1  0  0  0
 11 12  1  0  0  0
 11 99  1  0  0  0
 12 13  2  0  0  0
 12100  1  0  0  0
 13 14  1  0  0  0
 13 31  1  0  0  0
 14 15  2  0  0  0
 14101  1  0  0  0
 15102  1  0  0  0
 16 17  2  0  0  0
 16 21  1  0  0  0
 16 31  1  0  0  0
 17 18  1  0  0  0
 17103  1  0  0  0
 18 19  2  0  0  0
 18104  1  0  0  0
 19 20  1  0  0  0
 19 24  1  0  0  0
 20 21  2  0  0  0
 20105  1  0  0  0
 21 23  1  0  0  0
 22 28  1  0  0  0
 22 32  2  0  0  0
 26 27  1  0  0  0
 28106  1  0  0  0
 28107  1  0  0  0
 29108  1  0  0  0
 29109  1  0  0  0
 33 34  1  0  0  0
 33 66  1  0  0  0
 33 70  2  0  0  0
 34 36  1  0  0  0
 34 59  1  0  0  0
 34110  1  0  0  0
 35 44  2  0  0  0
 35 45  1  0  0  0
 35 68  1  0  0  0
 36 56  1  0  0  0
 36111  1  0  0  0
 37 39  1  0  0  0
 37 47  1  0  0  0
 37 66  1  0  0  0
 37112  1  0  0  0
 38 43  2  0  0  0
 38 46  1  0  0  0
 38 47  1  0  0  0
 39 64  1  0  0  0
 39 67  2  0  0  0
 40 52  1  0  0  0
 40 53  2  0  0  0
 40 58  1  0  0  0
 41113  1  0  0  0
 41114  1  0  0  0
 41115  1  0  0  0
 41 48  1  0  0  0
 42 43  1  0  0  0
 42 66  1  0  0  0
 42116  1  0  0  0
 42117  1  0  0  0
 43 44  1  0  0  0
 44118  1  0  0  0
 45 46  2  0  0  0
 45119  1  0  0  0
 46120  1  0  0  0
 47121  1  0  0  0
 47122  1  0  0  0
 48 56  1  0  0  0
 48 65  1  0  0  0
 48123  1  0  0  0
 49 50  1  0  0  0
 49 53  1  0  0  0
 49 64  1  0  0  0
 49124  1  0  0  0
 50 51  1  0  0  0
 50125  1  0  0  0
 50126  1  0  0  0
 51 52  1  0  0  0
 51127  1  0  0  0
 51128  1  0  0  0
 52129  1  0  0  0
 52130  1  0  0  0
 53 54  1  0  0  0
 54 55  2  0  0  0
 54131  1  0  0  0
 55 57  1  0  0  0
 55132  1  0  0  0
 56 69  2  0  0  0
 57 58  2  0  0  0
 57133  1  0  0  0
 58134  1  0  0  0
 59 60  1  0  0  0
 59 61  1  0  0  0
 59 62  1  0  0  0
 60135  1  0  0  0
 60136  1  0  0  0
 60137  1  0  0  0
 61138  1  0  0  0
 61139  1  0  0  0
 61140  1  0  0  0
 62141  1  0  0  0
 62142  1  0  0  0
 62143  1  0  0  0
 63 65  1  0  0  0
 63144  1  0  0  0
 63145  1  0  0  0
 63146  1  0  0  0
 64147  1  0  0  0
 65148  1  0  0  0
 68 83  1  0  0  0
 71 72  2  0  0  0
 71 74  1  0  0  0
 71149  1  0  0  0
 72 76  1  0  0  0
 72150  1  0  0  0
 73 74  2  0  0  0
 73 75  1  0  0  0
 73151  1  0  0  0
 74 83  1  0  0  0
 75 76  2  0  0  0
 75 84  1  0  0  0
 76 89  1  0  0  0
 77 85  1  0  0  0
 77 88  2  0  0  0
 77 84  1  0  0  0
 78 79  1  0  0  0
 78152  1  0  0  0
 78153  1  0  0  0
 78 81  1  0  0  0
 79 87  1  0  0  0
 79154  1  0  0  0
 79155  1  0  0  0
 80 82  1  0  0  0
 80 87  1  0  0  0
 80156  1  0  0  0
 80157  1  0  0  0
 81 82  1  0  0  0
 81 84  1  0  0  0
 81158  1  0  0  0
 82 86  1  0  0  0
 82159  1  0  0  0
 83160  1  0  0  0
 83161  1  0  0  0
 84162  1  0  0  0
 85163  1  0  0  0
 85164  1  0  0  0
 86165  1  0  0  0
 87166  1  0  0  0
 87167  1  0  0  0
M  CHG  1  87   1
M  ISO  4   1 100  68 101  83 101  86 100
M  END
> <chiral flag>
0

> <version>
0

> <s_m_source_file>
/data/baiqing/PycharmProjects/Reinvent-master-3.2/result/LINK_invent/BTK/process_docking_weight1_custom_sum_contain_oxygen_bond_distance_aromatic_linkinvent_7_9_3/rearranged_h_0112.sdf

> <i_m_source_file_index>
13

> <r_mmod_Potential_Energy-OPLS-2005>
110.172630310059

> <r_mmod_Stretch_Energy-OPLS-2005>
159.191497802734

> <r_mmod_Bend_Energy-OPLS-2005>
274.096954345703

> <r_mmod_Torsional_Energy-OPLS-2005>
347.228668212891

> <r_mmod_Improper_Torsional_Energy-OPLS-2005>
10.6935997009277

> <r_mmod_Van_der_Waal_Energy-OPLS-2005>
134.720474243164

> <r_mmod_Electrostatic_Energy-OPLS-2005>
-399.386138916016

> <r_mmod_Solvation_Energy-OPLS-2005>
-517.867614746094

> <b_mmod_Minimization_Converged-OPLS-2005>
0

> <r_mmod_RMS_Derivative-OPLS-2005>
3.34343719482422

$$$$
13
                    3D
 Structure written by MMmdl.
166174  0  0  1  0            999 V2000
  -30.7516  -14.3410   20.7340 C   0  0  0  0  0  0
  -30.4263  -12.3086   19.3740 C   0  0  0  0  0  0
  -29.4776  -12.5552   18.1843 C   0  0  0  0  0  0
  -28.0020  -12.4053   18.6042 C   0  0  0  0  0  0
  -27.6689  -13.1974   19.8925 C   0  0  2  0  0  0
  -28.7048  -12.8944   20.9958 C   0  0  0  0  0  0
  -25.2611  -13.8124   20.5664 C   0  0  0  0  0  0
  -24.1851  -13.0443   20.9107 C   0  0  0  0  0  0
  -24.6381  -11.6890   20.8731 C   0  0  0  0  0  0
  -23.9026  -10.4304   21.0389 C   0  0  0  0  0  0
  -24.3577   -9.4215   21.9166 C   0  0  0  0  0  0
  -23.6276   -8.2236   22.0723 C   0  0  0  0  0  0
  -22.4247   -8.0265   21.3516 C   0  0  0  0  0  0
  -21.9884   -9.0243   20.4635 C   0  0  0  0  0  0
  -22.7190  -10.2132   20.3060 C   0  0  0  0  0  0
  -21.6819   -6.0746   22.5288 C   0  0  0  0  0  0
  -21.3996   -6.5646   23.8229 C   0  0  0  0  0  0
  -21.3646   -5.6802   24.9192 C   0  0  0  0  0  0
  -21.6049   -4.3069   24.7249 C   0  0  0  0  0  0
  -21.8802   -3.8155   23.4364 C   0  0  0  0  0  0
  -21.9158   -4.6972   22.3419 C   0  0  0  0  0  0
  -22.7888  -13.5235   21.1767 C   0  0  0  0  0  0
  -22.1630   -4.2167   21.1003 F   0  0  0  0  0  0
  -21.5644   -3.4542   25.7757 F   0  0  0  0  0  0
  -30.0500  -13.2107   20.4696 N   0  0  0  0  0  0
  -26.3068  -12.9274   20.3452 N   0  0  0  0  0  0
  -25.9306  -11.6433   20.5810 N   0  0  0  0  0  0
  -22.0526  -12.8259   22.0327 N   0  0  0  0  0  0
  -25.4394  -15.1841   20.4071 N   0  0  0  0  0  0
  -31.7340  -14.7123   20.0812 O   0  0  0  0  0  0
  -21.6600   -6.8866   21.4234 O   0  0  0  0  0  0
  -22.3597  -14.5549   20.6604 O   0  0  0  0  0  0
  -24.6097  -31.8720   23.2137 C   0  0  0  0  0  0
  -25.9029  -32.4839   23.8424 C   0  0  1  0  0  0
  -27.2494  -27.4775   20.0815 C   0  0  0  0  0  0
  -25.5914  -33.8633   24.2358 N   0  0  0  0  0  0
  -23.3968  -30.4920   21.5528 C   0  0  2  0  0  0
  -24.8475  -28.9563   20.1272 C   0  0  0  0  0  0
  -22.7385  -29.4652   22.5012 C   0  0  0  0  0  0
  -18.0267  -28.1390   22.8518 C   0  0  0  0  0  0
  -24.1475  -36.7309   23.2633 C   0  0  0  0  0  0
  -25.9218  -30.8444   21.3679 C   0  0  0  0  0  0
  -26.0041  -29.4797   20.7187 C   0  0  0  0  0  0
  -27.2087  -28.7479   20.6915 C   0  0  0  0  0  0
  -26.0768  -26.9547   19.4968 C   0  0  0  0  0  0
  -24.8743  -27.6865   19.5237 C   0  0  0  0  0  0
  -23.6086  -29.8188   20.1705 C   0  0  0  0  0  0
  -25.4096  -36.3111   24.0333 C   0  0  1  0  0  0
  -20.5850  -28.3656   23.1350 C   0  0  2  0  0  0
  -20.6746  -26.9398   22.5425 C   0  0  0  0  0  0
  -19.5729  -26.6399   21.5218 C   0  0  0  0  0  0
  -18.1913  -26.7945   22.1632 C   0  0  0  0  0  0
  -19.1518  -28.8840   23.2934 C   0  0  0  0  0  0
  -18.9438  -30.1446   23.8933 C   0  0  0  0  0  0
  -17.6443  -30.6591   24.0576 C   0  0  0  0  0  0
  -25.9024  -34.9476   23.5126 C   0  0  0  0  0  0
  -16.5335  -29.9096   23.6333 C   0  0  0  0  0  0
  -16.7257  -28.6511   23.0359 C   0  0  0  0  0  0
  -26.4480  -31.6610   25.0737 C   0  0  0  0  0  0
  -25.3759  -31.3715   26.1501 C   0  0  0  0  0  0
  -27.0305  -30.3047   24.6100 C   0  0  0  0  0  0
  -27.6063  -32.4325   25.7489 C   0  0  0  0  0  0
  -27.5574  -37.1803   24.8466 C   0  0  0  0  0  0
  -21.4118  -29.3016   22.3752 N   0  0  0  0  0  0
  -26.4284  -37.3796   23.9420 N   0  0  0  0  0  0
  -24.6592  -31.0843   22.1024 N   0  0  0  0  0  0
  -23.4187  -28.8190   23.3024 O   0  0  0  0  0  0
  -28.4488  -26.8123   20.0036 O   0  0  0  0  0  0
  -26.5565  -34.8932   22.4677 O   0  0  0  0  0  0
  -23.5289  -32.1491   23.7536 O   0  0  0  0  0  0
  -28.2105  -16.7618   25.1400 C   0  0  0  0  0  0
  -29.2423  -16.2376   24.3365 C   0  0  0  0  0  0
  -27.5411  -17.9376   24.7501 C   0  0  0  0  0  0
  -28.9258  -18.0526   22.7398 C   0  0  0  0  0  0
  -29.6124  -16.8888   23.1412 C   0  0  0  0  0  0
  -27.8968  -18.5848   23.5464 C   0  0  0  0  0  0
  -26.8360  -22.9229   24.6474 C   0  0  0  0  0  0
  -30.7198  -16.3070   22.2810 C   0  0  0  0  0  0
  -27.2059  -19.8724   23.1381 C   0  0  0  0  0  0
  -28.4757  -25.4687   20.4746 C   0  0  0  0  0  0
  -28.8614  -25.4739   21.9648 C   0  0  0  0  0  0
  -28.5180  -23.2793   22.7624 C   0  0  0  0  0  0
  -27.4391  -22.3529   23.3504 C   0  0  1  0  0  0
  -30.3068  -15.0003   21.8058 N   0  0  0  0  0  0
  -28.0191  -21.0122   23.5948 N   0  3  0  0  0  0
  -28.0164  -24.6040   22.7001 O   0  0  0  0  0  0
  -31.4619  -12.4517   19.0619 H   0  0  0  0  0  0
  -30.3630  -11.2742   19.7155 H   0  0  0  0  0  0
  -29.6985  -11.8625   17.3717 H   0  0  0  0  0  0
  -29.6432  -13.5569   17.7824 H   0  0  0  0  0  0
  -27.7914  -11.3459   18.7522 H   0  0  0  0  0  0
  -27.3544  -12.7384   17.7934 H   0  0  0  0  0  0
  -27.7314  -14.2572   19.6401 H   0  0  0  0  0  0
  -28.6724  -11.8355   21.2621 H   0  0  0  0  0  0
  -28.4313  -13.4221   21.9103 H   0  0  0  0  0  0
  -25.2713   -9.5707   22.4744 H   0  0  0  0  0  0
  -23.9983   -7.4611   22.7425 H   0  0  0  0  0  0
  -21.0807   -8.8748   19.8964 H   0  0  0  0  0  0
  -22.3579  -10.9650   19.6199 H   0  0  0  0  0  0
  -21.1986   -7.6158   23.9741 H   0  0  0  0  0  0
  -21.1477   -6.0534   25.9094 H   0  0  0  0  0  0
  -22.0588   -2.7620   23.2867 H   0  0  0  0  0  0
  -22.4150  -11.9963   22.4799 H   0  0  0  0  0  0
  -21.1169  -13.1360   22.2545 H   0  0  0  0  0  0
  -24.6682  -15.8416   20.4298 H   0  0  0  0  0  0
  -26.3251  -15.6157   20.1742 H   0  0  0  0  0  0
  -26.7109  -32.5605   23.1206 H   0  0  0  0  0  0
  -25.0097  -33.9810   25.0516 H   0  0  0  0  0  0
  -22.6798  -31.3017   21.4092 H   0  0  0  0  0  0
  -23.3735  -35.9644   23.3313 H   0  0  0  0  0  0
  -24.3563  -36.8909   22.2043 H   0  0  0  0  0  0
  -23.7241  -37.6516   23.6641 H   0  0  0  0  0  0
  -26.0304  -31.6103   20.5992 H   0  0  0  0  0  0
  -26.8056  -30.9000   21.9903 H   0  0  0  0  0  0
  -28.1073  -29.1510   21.1374 H   0  0  0  0  0  0
  -26.0923  -25.9959   18.9983 H   0  0  0  0  0  0
  -23.9850  -27.2709   19.0721 H   0  0  0  0  0  0
  -23.7234  -30.5880   19.4060 H   0  0  0  0  0  0
  -22.7372  -29.2338   19.8741 H   0  0  0  0  0  0
  -25.1278  -36.1962   25.0823 H   0  0  0  0  0  0
  -20.9956  -28.3201   24.1469 H   0  0  0  0  0  0
  -20.5650  -26.2248   23.3595 H   0  0  0  0  0  0
  -21.6619  -26.7445   22.1220 H   0  0  0  0  0  0
  -19.6885  -25.6319   21.1223 H   0  0  0  0  0  0
  -19.6673  -27.3214   20.6755 H   0  0  0  0  0  0
  -17.4182  -26.6714   21.4026 H   0  0  0  0  0  0
  -18.0309  -26.0057   22.8991 H   0  0  0  0  0  0
  -19.7898  -30.7260   24.2315 H   0  0  0  0  0  0
  -17.4987  -31.6280   24.5162 H   0  0  0  0  0  0
  -15.5334  -30.3016   23.7627 H   0  0  0  0  0  0
  -15.8656  -28.0840   22.7076 H   0  0  0  0  0  0
  -24.5936  -30.7049   25.7858 H   0  0  0  0  0  0
  -24.8954  -32.2869   26.4959 H   0  0  0  0  0  0
  -25.8144  -30.8898   27.0253 H   0  0  0  0  0  0
  -26.2844  -29.6814   24.1155 H   0  0  0  0  0  0
  -27.4072  -29.7293   25.4566 H   0  0  0  0  0  0
  -27.8687  -30.4352   23.9252 H   0  0  0  0  0  0
  -27.2686  -33.3614   26.2104 H   0  0  0  0  0  0
  -28.3850  -32.6904   25.0294 H   0  0  0  0  0  0
  -28.0757  -31.8429   26.5380 H   0  0  0  0  0  0
  -28.2590  -38.0097   24.7497 H   0  0  0  0  0  0
  -28.1066  -36.2625   24.6298 H   0  0  0  0  0  0
  -27.2297  -37.1468   25.8871 H   0  0  0  0  0  0
  -20.9273  -29.8754   21.6993 H   0  0  0  0  0  0
  -26.0171  -38.2869   24.1438 H   0  0  0  0  0  0
  -27.9334  -16.2592   26.0577 H   0  0  0  0  0  0
  -29.7511  -15.3338   24.6410 H   0  0  0  0  0  0
  -26.7539  -18.3400   25.3751 H   0  0  0  0  0  0
  -29.1941  -18.5425   21.8122 H   0  0  0  0  0  0
  -26.3078  -23.8582   24.4549 H   0  0  0  0  0  0
  -27.6115  -23.1331   25.3850 H   0  0  0  0  0  0
  -26.1170  -22.2372   25.0977 H   0  0  0  0  0  0
  -30.9533  -16.9775   21.4518 H   0  0  0  0  0  0
  -31.6307  -16.2060   22.8729 H   0  0  0  0  0  0
  -26.2026  -19.9248   23.5639 H   0  0  0  0  0  0
  -27.0881  -19.8990   22.0534 H   0  0  0  0  0  0
  -27.5275  -24.9507   20.3261 H   0  0  0  0  0  0
  -29.2133  -24.9077   19.8997 H   0  0  0  0  0  0
  -28.7135  -26.4731   22.3767 H   0  0  0  0  0  0
  -29.9203  -25.2470   22.1041 H   0  0  0  0  0  0
  -28.7854  -22.9303   21.7633 H   0  0  0  0  0  0
  -29.4243  -23.2620   23.3718 H   0  0  0  0  0  0
  -26.6395  -22.2722   22.6124 H   0  0  0  0  0  0
  -29.5493  -14.5692   22.3129 H   0  0  0  0  0  0
  -28.9102  -20.9483   23.1297 H   0  0  0  0  0  0
  -28.1924  -20.8900   24.5795 H   0  0  0  0  0  0
  1 25  1  0  0  0
  1 30  2  0  0  0
  1 84  1  0  0  0
  2  3  1  0  0  0
  2 25  1  0  0  0
  2 87  1  0  0  0
  2 88  1  0  0  0
  3  4  1  0  0  0
  3 89  1  0  0  0
  3 90  1  0  0  0
  4  5  1  0  0  0
  4 91  1  0  0  0
  4 92  1  0  0  0
  5  6  1  0  0  0
  5 26  1  0  0  0
  5 93  1  0  0  0
  6 25  1  0  0  0
  6 94  1  0  0  0
  6 95  1  0  0  0
  7  8  2  0  0  0
  7 26  1  0  0  0
  7 29  1  0  0  0
  8  9  1  0  0  0
  8 22  1  0  0  0
  9 10  1  0  0  0
  9 27  2  0  0  0
 10 11  2  0  0  0
 10 15  1  0  0  0
 11 12  1  0  0  0
 11 96  1  0  0  0
 12 13  2  0  0  0
 12 97  1  0  0  0
 13 14  1  0  0  0
 13 31  1  0  0  0
 14 15  2  0  0  0
 14 98  1  0  0  0
 15 99  1  0  0  0
 16 17  2  0  0  0
 16 21  1  0  0  0
 16 31  1  0  0  0
 17 18  1  0  0  0
 17100  1  0  0  0
 18 19  2  0  0  0
 18101  1  0  0  0
 19 20  1  0  0  0
 19 24  1  0  0  0
 20 21  2  0  0  0
 20102  1  0  0  0
 21 23  1  0  0  0
 22 28  1  0  0  0
 22 32  2  0  0  0
 26 27  1  0  0  0
 28103  1  0  0  0
 28104  1  0  0  0
 29105  1  0  0  0
 29106  1  0  0  0
 33 34  1  0  0  0
 33 66  1  0  0  0
 33 70  2  0  0  0
 34 36  1  0  0  0
 34 59  1  0  0  0
 34107  1  0  0  0
 35 44  2  0  0  0
 35 45  1  0  0  0
 35 68  1  0  0  0
 36 56  1  0  0  0
 36108  1  0  0  0
 37 39  1  0  0  0
 37 47  1  0  0  0
 37 66  1  0  0  0
 37109  1  0  0  0
 38 43  2  0  0  0
 38 46  1  0  0  0
 38 47  1  0  0  0
 39 64  1  0  0  0
 39 67  2  0  0  0
 40 52  1  0  0  0
 40 53  2  0  0  0
 40 58  1  0  0  0
 41110  1  0  0  0
 41111  1  0  0  0
 41112  1  0  0  0
 41 48  1  0  0  0
 42 43  1  0  0  0
 42 66  1  0  0  0
 42113  1  0  0  0
 42114  1  0  0  0
 43 44  1  0  0  0
 44115  1  0  0  0
 45 46  2  0  0  0
 45116  1  0  0  0
 46117  1  0  0  0
 47118  1  0  0  0
 47119  1  0  0  0
 48 56  1  0  0  0
 48 65  1  0  0  0
 48120  1  0  0  0
 49 50  1  0  0  0
 49 53  1  0  0  0
 49 64  1  0  0  0
 49121  1  0  0  0
 50 51  1  0  0  0
 50122  1  0  0  0
 50123  1  0  0  0
 51 52  1  0  0  0
 51124  1  0  0  0
 51125  1  0  0  0
 52126  1  0  0  0
 52127  1  0  0  0
 53 54  1  0  0  0
 54 55  2  0  0  0
 54128  1  0  0  0
 55 57  1  0  0  0
 55129  1  0  0  0
 56 69  2  0  0  0
 57 58  2  0  0  0
 57130  1  0  0  0
 58131  1  0  0  0
 59 60  1  0  0  0
 59 61  1  0  0  0
 59 62  1  0  0  0
 60132  1  0  0  0
 60133  1  0  0  0
 60134  1  0  0  0
 61135  1  0  0  0
 61136  1  0  0  0
 61137  1  0  0  0
 62138  1  0  0  0
 62139  1  0  0  0
 62140  1  0  0  0
 63 65  1  0  0  0
 63141  1  0  0  0
 63142  1  0  0  0
 63143  1  0  0  0
 64144  1  0  0  0
 65145  1  0  0  0
 68 80  1  0  0  0
 71 72  2  0  0  0
 71 73  1  0  0  0
 71146  1  0  0  0
 72 75  1  0  0  0
 72147  1  0  0  0
 73 76  2  0  0  0
 73148  1  0  0  0
 74 75  2  0  0  0
 74 76  1  0  0  0
 74149  1  0  0  0
 75 78  1  0  0  0
 76 79  1  0  0  0
 77150  1  0  0  0
 77151  1  0  0  0
 77152  1  0  0  0
 77 83  1  0  0  0
 78 84  1  0  0  0
 78153  1  0  0  0
 78154  1  0  0  0
 79 85  1  0  0  0
 79155  1  0  0  0
 79156  1  0  0  0
 80 81  1  0  0  0
 80157  1  0  0  0
 80158  1  0  0  0
 81 86  1  0  0  0
 81159  1  0  0  0
 81160  1  0  0  0
 82 83  1  0  0  0
 82 86  1  0  0  0
 82161  1  0  0  0
 82162  1  0  0  0
 83 85  1  0  0  0
 83163  1  0  0  0
 84164  1  0  0  0
 85165  1  0  0  0
 85166  1  0  0  0
M  CHG  1  85   1
M  ISO  4   1 100  68 101  80 101  84 100
M  END
> <chiral flag>
0

> <version>
0

> <s_m_source_file>
/data/baiqing/PycharmProjects/Reinvent-master-3.2/result/LINK_invent/BTK/process_docking_weight1_custom_sum_contain_oxygen_bond_distance_aromatic_linkinvent_7_9_3/rearranged_h_0112.sdf

> <i_m_source_file_index>
14

> <r_mmod_Potential_Energy-OPLS-2005>
-260.711761474609

> <r_mmod_Stretch_Energy-OPLS-2005>
30.6521663665771

> <r_mmod_Bend_Energy-OPLS-2005>
88.1792449951172

> <r_mmod_Torsional_Energy-OPLS-2005>
222.489776611328

> <r_mmod_Improper_Torsional_Energy-OPLS-2005>
2.06417107582092

> <r_mmod_Van_der_Waal_Energy-OPLS-2005>
150.847213745117

> <r_mmod_Electrostatic_Energy-OPLS-2005>
-309.195861816406

> <r_mmod_Solvation_Energy-OPLS-2005>
-454.28955078125

> <b_mmod_Minimization_Converged-OPLS-2005>
0

> <r_mmod_RMS_Derivative-OPLS-2005>
4.01225137710571

$$$$
14
                    3D
 Structure written by MMmdl.
162169  0  0  1  0            999 V2000
  -30.6086  -14.7132   20.4581 C   0  0  0  0  0  0
  -30.4290  -12.4327   19.4684 C   0  0  0  0  0  0
  -29.5074  -12.5045   18.2315 C   0  0  0  0  0  0
  -28.0317  -12.3338   18.6443 C   0  0  0  0  0  0
  -27.6416  -13.2286   19.8505 C   0  0  2  0  0  0
  -28.6853  -13.1478   20.9850 C   0  0  0  0  0  0
  -25.2525  -13.8192   20.5701 C   0  0  0  0  0  0
  -24.1812  -13.0434   20.9218 C   0  0  0  0  0  0
  -24.6404  -11.6918   20.8761 C   0  0  0  0  0  0
  -23.9080  -10.4295   21.0424 C   0  0  0  0  0  0
  -24.3632   -9.4205   21.9201 C   0  0  0  0  0  0
  -23.6307   -8.2233   22.0750 C   0  0  0  0  0  0
  -22.4283   -8.0280   21.3535 C   0  0  0  0  0  0
  -21.9926   -9.0259   20.4639 C   0  0  0  0  0  0
  -22.7255  -10.2142   20.3065 C   0  0  0  0  0  0
  -21.6858   -6.0748   22.5287 C   0  0  0  0  0  0
  -21.4014   -6.5649   23.8218 C   0  0  0  0  0  0
  -21.3658   -5.6797   24.9179 C   0  0  0  0  0  0
  -21.6040   -4.3059   24.7228 C   0  0  0  0  0  0
  -21.8816   -3.8155   23.4346 C   0  0  0  0  0  0
  -21.9191   -4.6976   22.3404 C   0  0  0  0  0  0
  -22.7836  -13.5224   21.1876 C   0  0  0  0  0  0
  -22.1661   -4.2166   21.0981 F   0  0  0  0  0  0
  -21.5626   -3.4539   25.7738 F   0  0  0  0  0  0
  -29.9881  -13.4896   20.4040 N   0  0  0  0  0  0
  -26.2943  -12.9389   20.3290 N   0  0  0  0  0  0
  -25.9336  -11.6537   20.5774 N   0  0  0  0  0  0
  -22.0486  -12.8201   22.0428 N   0  0  0  0  0  0
  -25.4210  -15.1908   20.4100 N   0  0  0  0  0  0
  -31.7979  -14.8227   20.1502 O   0  0  0  0  0  0
  -21.6628   -6.8889   21.4244 O   0  0  0  0  0  0
  -22.3522  -14.5524   20.6724 O   0  0  0  0  0  0
  -24.6311  -31.8557   23.1971 C   0  0  0  0  0  0
  -25.9136  -32.4758   23.8315 C   0  0  1  0  0  0
  -27.2187  -27.2671   20.1126 C   0  0  0  0  0  0
  -25.5931  -33.8553   24.2239 N   0  0  0  0  0  0
  -23.4258  -30.4798   21.5418 C   0  0  2  0  0  0
  -24.8679  -28.9233   20.1135 C   0  0  0  0  0  0
  -22.7500  -29.4595   22.4908 C   0  0  0  0  0  0
  -18.0287  -28.1400   22.8488 C   0  0  0  0  0  0
  -24.1482  -36.7267   23.2641 C   0  0  0  0  0  0
  -25.9708  -30.7727   21.3702 C   0  0  0  0  0  0
  -26.0415  -29.3950   20.7112 C   0  0  0  0  0  0
  -27.2171  -28.5805   20.6942 C   0  0  0  0  0  0
  -26.0041  -26.8426   19.5318 C   0  0  0  0  0  0
  -24.8522  -27.6538   19.5162 C   0  0  0  0  0  0
  -23.6435  -29.8142   20.1578 C   0  0  0  0  0  0
  -25.4112  -36.3061   24.0324 C   0  0  1  0  0  0
  -20.5890  -28.3696   23.1276 C   0  0  2  0  0  0
  -20.6786  -26.9422   22.5405 C   0  0  0  0  0  0
  -19.5758  -26.6395   21.5219 C   0  0  0  0  0  0
  -18.1929  -26.7935   22.1634 C   0  0  0  0  0  0
  -19.1540  -28.8867   23.2875 C   0  0  0  0  0  0
  -18.9479  -30.1475   23.8891 C   0  0  0  0  0  0
  -17.6479  -30.6604   24.0574 C   0  0  0  0  0  0
  -25.9061  -34.9437   23.5083 C   0  0  0  0  0  0
  -16.5369  -29.9104   23.6342 C   0  0  0  0  0  0
  -16.7275  -28.6524   23.0349 C   0  0  0  0  0  0
  -26.4507  -31.6583   25.0699 C   0  0  0  0  0  0
  -25.3721  -31.3749   26.1411 C   0  0  0  0  0  0
  -27.0346  -30.3000   24.6166 C   0  0  0  0  0  0
  -27.6060  -32.4326   25.7472 C   0  0  0  0  0  0
  -27.5571  -37.1784   24.8473 C   0  0  0  0  0  0
  -21.4204  -29.3038   22.3660 N   0  0  0  0  0  0
  -26.4287  -37.3767   23.9420 N   0  0  0  0  0  0
  -24.6961  -31.0529   22.0935 N   0  0  0  0  0  0
  -23.4197  -28.8141   23.3018 O   0  0  0  0  0  0
  -28.3678  -26.4453   20.1425 O   0  0  0  0  0  0
  -26.5634  -34.8917   22.4652 O   0  0  0  0  0  0
  -23.5468  -32.1366   23.7271 O   0  0  0  0  0  0
  -30.5601  -20.1363   21.8725 C   0  0  0  0  0  0
  -28.4133  -18.3822   19.1246 C   0  0  0  0  0  0
  -28.0443  -24.8276   18.1866 C   0  0  0  0  0  0
  -28.2705  -23.7458   20.5985 C   0  0  0  0  0  0
  -30.2304  -17.3069   20.6342 C   0  0  0  0  0  0
  -28.1098  -22.2143   20.0591 C   0  0  0  0  0  0
  -29.2840  -19.9983   21.0277 C   0  0  2  0  0  0
  -29.0796  -18.4498   20.5106 C   0  0  1  0  0  0
  -28.5081  -25.0287   19.6425 C   0  0  1  0  0  0
  -31.6920  -20.4854   21.2615 N   0  0  0  0  0  0
  -29.8238  -15.8354   20.6523 N   0  0  0  0  0  0
  -29.2560  -21.1932   20.0693 N   0  3  0  0  0  0
  -30.5308  -19.9742   23.0914 O   0  0  0  0  0  0
  -31.4731  -12.5493   19.1721 H   0  0  0  0  0  0
  -30.3597  -11.4544   19.9447 H   0  0  0  0  0  0
  -29.7826  -11.7364   17.5079 H   0  0  0  0  0  0
  -29.6395  -13.4651   17.7305 H   0  0  0  0  0  0
  -27.8838  -11.2844   18.9025 H   0  0  0  0  0  0
  -27.3748  -12.5348   17.7975 H   0  0  0  0  0  0
  -27.6395  -14.2524   19.4754 H   0  0  0  0  0  0
  -28.7149  -12.1472   21.4186 H   0  0  0  0  0  0
  -28.4281  -13.8268   21.8001 H   0  0  0  0  0  0
  -25.2783   -9.5666   22.4783 H   0  0  0  0  0  0
  -24.0018   -7.4612   22.7460 H   0  0  0  0  0  0
  -21.0860   -8.8783   19.8943 H   0  0  0  0  0  0
  -22.3728  -10.9684   19.6171 H   0  0  0  0  0  0
  -21.2006   -7.6159   23.9731 H   0  0  0  0  0  0
  -21.1485   -6.0526   25.9084 H   0  0  0  0  0  0
  -22.0598   -2.7622   23.2839 H   0  0  0  0  0  0
  -22.4108  -11.9863   22.4806 H   0  0  0  0  0  0
  -21.1107  -13.1214   22.2645 H   0  0  0  0  0  0
  -24.6492  -15.8416   20.5039 H   0  0  0  0  0  0
  -26.2616  -15.6263   20.0544 H   0  0  0  0  0  0
  -26.7187  -32.5412   23.1048 H   0  0  0  0  0  0
  -25.0082  -33.9700   25.0386 H   0  0  0  0  0  0
  -22.7206  -31.3013   21.3948 H   0  0  0  0  0  0
  -23.3759  -35.9591   23.3315 H   0  0  0  0  0  0
  -24.3564  -36.8880   22.2056 H   0  0  0  0  0  0
  -23.7219  -37.6465   23.6656 H   0  0  0  0  0  0
  -26.1015  -31.5339   20.5993 H   0  0  0  0  0  0
  -26.8517  -30.8234   21.9992 H   0  0  0  0  0  0
  -28.1238  -28.9458   21.1564 H   0  0  0  0  0  0
  -25.8951  -25.8598   19.1118 H   0  0  0  0  0  0
  -23.9444  -27.2772   19.0638 H   0  0  0  0  0  0
  -23.7714  -30.5899   19.4015 H   0  0  0  0  0  0
  -22.7614  -29.2494   19.8537 H   0  0  0  0  0  0
  -25.1289  -36.1910   25.0820 H   0  0  0  0  0  0
  -20.9986  -28.3285   24.1398 H   0  0  0  0  0  0
  -20.5705  -26.2313   23.3605 H   0  0  0  0  0  0
  -21.6646  -26.7452   22.1190 H   0  0  0  0  0  0
  -19.6914  -25.6303   21.1251 H   0  0  0  0  0  0
  -19.6701  -27.3212   20.6752 H   0  0  0  0  0  0
  -17.4199  -26.6694   21.4034 H   0  0  0  0  0  0
  -18.0326  -26.0082   22.9033 H   0  0  0  0  0  0
  -19.7961  -30.7295   24.2249 H   0  0  0  0  0  0
  -17.5039  -31.6282   24.5182 H   0  0  0  0  0  0
  -15.5369  -30.3017   23.7669 H   0  0  0  0  0  0
  -15.8673  -28.0862   22.7052 H   0  0  0  0  0  0
  -24.5908  -30.7083   25.7753 H   0  0  0  0  0  0
  -24.8894  -32.2923   26.4790 H   0  0  0  0  0  0
  -25.8016  -30.8969   27.0216 H   0  0  0  0  0  0
  -26.2922  -29.6757   24.1182 H   0  0  0  0  0  0
  -27.4035  -29.7257   25.4676 H   0  0  0  0  0  0
  -27.8789  -30.4296   23.9394 H   0  0  0  0  0  0
  -27.2670  -33.3642   26.2019 H   0  0  0  0  0  0
  -28.3876  -32.6863   25.0298 H   0  0  0  0  0  0
  -28.0709  -31.8462   26.5411 H   0  0  0  0  0  0
  -28.2585  -38.0079   24.7511 H   0  0  0  0  0  0
  -28.1054  -36.2607   24.6301 H   0  0  0  0  0  0
  -27.2282  -37.1441   25.8872 H   0  0  0  0  0  0
  -20.9388  -29.8766   21.6872 H   0  0  0  0  0  0
  -26.0160  -38.2834   24.1454 H   0  0  0  0  0  0
  -29.0846  -18.7378   18.3428 H   0  0  0  0  0  0
  -27.5003  -18.9786   19.0933 H   0  0  0  0  0  0
  -28.1328  -17.3592   18.8687 H   0  0  0  0  0  0
  -27.0220  -24.4632   18.1071 H   0  0  0  0  0  0
  -28.6633  -24.0798   17.6904 H   0  0  0  0  0  0
  -28.1320  -25.7469   17.6079 H   0  0  0  0  0  0
  -28.9964  -23.7656   21.4127 H   0  0  0  0  0  0
  -27.3226  -23.9615   21.0942 H   0  0  0  0  0  0
  -30.8085  -17.4534   21.5469 H   0  0  0  0  0  0
  -30.9433  -17.4524   19.8210 H   0  0  0  0  0  0
  -27.7256  -22.2425   19.0389 H   0  0  0  0  0  0
  -27.2902  -21.7616   20.6172 H   0  0  0  0  0  0
  -28.4724  -20.1889   21.7315 H   0  0  0  0  0  0
  -28.3149  -18.0820   21.1972 H   0  0  0  0  0  0
  -29.5927  -25.0103   19.5258 H   0  0  0  0  0  0
  -31.7871  -20.5061   20.2555 H   0  0  0  0  0  0
  -32.5260  -20.6155   21.8180 H   0  0  0  0  0  0
  -28.8506  -15.6474   20.8399 H   0  0  0  0  0  0
  -29.3649  -20.8360   19.1358 H   0  0  0  0  0  0
  -30.1049  -21.6883   20.2970 H   0  0  0  0  0  0
  1 25  1  0  0  0
  1 30  2  0  0  0
  1 81  1  0  0  0
  2  3  1  0  0  0
  2 25  1  0  0  0
  2 84  1  0  0  0
  2 85  1  0  0  0
  3  4  1  0  0  0
  3 86  1  0  0  0
  3 87  1  0  0  0
  4  5  1  0  0  0
  4 88  1  0  0  0
  4 89  1  0  0  0
  5  6  1  0  0  0
  5 26  1  0  0  0
  5 90  1  0  0  0
  6 25  1  0  0  0
  6 91  1  0  0  0
  6 92  1  0  0  0
  7  8  2  0  0  0
  7 26  1  0  0  0
  7 29  1  0  0  0
  8  9  1  0  0  0
  8 22  1  0  0  0
  9 10  1  0  0  0
  9 27  2  0  0  0
 10 11  2  0  0  0
 10 15  1  0  0  0
 11 12  1  0  0  0
 11 93  1  0  0  0
 12 13  2  0  0  0
 12 94  1  0  0  0
 13 14  1  0  0  0
 13 31  1  0  0  0
 14 15  2  0  0  0
 14 95  1  0  0  0
 15 96  1  0  0  0
 16 17  2  0  0  0
 16 21  1  0  0  0
 16 31  1  0  0  0
 17 18  1  0  0  0
 17 97  1  0  0  0
 18 19  2  0  0  0
 18 98  1  0  0  0
 19 20  1  0  0  0
 19 24  1  0  0  0
 20 21  2  0  0  0
 20 99  1  0  0  0
 21 23  1  0  0  0
 22 28  1  0  0  0
 22 32  2  0  0  0
 26 27  1  0  0  0
 28100  1  0  0  0
 28101  1  0  0  0
 29102  1  0  0  0
 29103  1  0  0  0
 33 34  1  0  0  0
 33 66  1  0  0  0
 33 70  2  0  0  0
 34 36  1  0  0  0
 34 59  1  0  0  0
 34104  1  0  0  0
 35 44  2  0  0  0
 35 45  1  0  0  0
 35 68  1  0  0  0
 36 56  1  0  0  0
 36105  1  0  0  0
 37 39  1  0  0  0
 37 47  1  0  0  0
 37 66  1  0  0  0
 37106  1  0  0  0
 38 43  2  0  0  0
 38 46  1  0  0  0
 38 47  1  0  0  0
 39 64  1  0  0  0
 39 67  2  0  0  0
 40 52  1  0  0  0
 40 53  2  0  0  0
 40 58  1  0  0  0
 41107  1  0  0  0
 41108  1  0  0  0
 41109  1  0  0  0
 41 48  1  0  0  0
 42 43  1  0  0  0
 42 66  1  0  0  0
 42110  1  0  0  0
 42111  1  0  0  0
 43 44  1  0  0  0
 44112  1  0  0  0
 45 46  2  0  0  0
 45113  1  0  0  0
 46114  1  0  0  0
 47115  1  0  0  0
 47116  1  0  0  0
 48 56  1  0  0  0
 48 65  1  0  0  0
 48117  1  0  0  0
 49 50  1  0  0  0
 49 53  1  0  0  0
 49 64  1  0  0  0
 49118  1  0  0  0
 50 51  1  0  0  0
 50119  1  0  0  0
 50120  1  0  0  0
 51 52  1  0  0  0
 51121  1  0  0  0
 51122  1  0  0  0
 52123  1  0  0  0
 52124  1  0  0  0
 53 54  1  0  0  0
 54 55  2  0  0  0
 54125  1  0  0  0
 55 57  1  0  0  0
 55126  1  0  0  0
 56 69  2  0  0  0
 57 58  2  0  0  0
 57127  1  0  0  0
 58128  1  0  0  0
 59 60  1  0  0  0
 59 61  1  0  0  0
 59 62  1  0  0  0
 60129  1  0  0  0
 60130  1  0  0  0
 60131  1  0  0  0
 61132  1  0  0  0
 61133  1  0  0  0
 61134  1  0  0  0
 62135  1  0  0  0
 62136  1  0  0  0
 62137  1  0  0  0
 63 65  1  0  0  0
 63138  1  0  0  0
 63139  1  0  0  0
 63140  1  0  0  0
 64141  1  0  0  0
 65142  1  0  0  0
 68 79  1  0  0  0
 71 77  1  0  0  0
 71 80  1  0  0  0
 71 83  2  0  0  0
 72143  1  0  0  0
 72144  1  0  0  0
 72145  1  0  0  0
 72 78  1  0  0  0
 73146  1  0  0  0
 73147  1  0  0  0
 73148  1  0  0  0
 73 79  1  0  0  0
 74 76  1  0  0  0
 74 79  1  0  0  0
 74149  1  0  0  0
 74150  1  0  0  0
 75 78  1  0  0  0
 75 81  1  0  0  0
 75151  1  0  0  0
 75152  1  0  0  0
 76 82  1  0  0  0
 76153  1  0  0  0
 76154  1  0  0  0
 77 78  1  0  0  0
 77 82  1  0  0  0
 77155  1  0  0  0
 78156  1  0  0  0
 79157  1  0  0  0
 80158  1  0  0  0
 80159  1  0  0  0
 81160  1  0  0  0
 82161  1  0  0  0
 82162  1  0  0  0
M  CHG  1  82   1
M  ISO  4   1 100  68 101  79 101  81 100
M  END
> <chiral flag>
0

> <version>
0

> <s_m_source_file>
/data/baiqing/PycharmProjects/Reinvent-master-3.2/result/LINK_invent/BTK/process_docking_weight1_custom_sum_contain_oxygen_bond_distance_aromatic_linkinvent_7_9_3/rearranged_h_0112.sdf

> <i_m_source_file_index>
15

> <r_mmod_Potential_Energy-OPLS-2005>
-124.66577911377

> <r_mmod_Stretch_Energy-OPLS-2005>
126.587791442871

> <r_mmod_Bend_Energy-OPLS-2005>
232.443618774414

> <r_mmod_Torsional_Energy-OPLS-2005>
260.364044189453

> <r_mmod_Improper_Torsional_Energy-OPLS-2005>
5.06140184402466

> <r_mmod_Van_der_Waal_Energy-OPLS-2005>
120.825485229492

> <r_mmod_Electrostatic_Energy-OPLS-2005>
-412.203643798828

> <r_mmod_Solvation_Energy-OPLS-2005>
-529.929931640625

> <b_mmod_Minimization_Converged-OPLS-2005>
0

> <r_mmod_RMS_Derivative-OPLS-2005>
2.28308415412903

$$$$
15
                    3D
 Structure written by MMmdl.
158166  0  0  1  0            999 V2000
  -30.4418  -15.2098   20.3638 C   0  0  0  0  0  0
  -30.4383  -12.7580   19.5418 C   0  0  0  0  0  0
  -29.5394  -12.5698   18.2936 C   0  0  0  0  0  0
  -28.0810  -12.3082   18.7086 C   0  0  0  0  0  0
  -27.6154  -13.2719   19.8296 C   0  0  2  0  0  0
  -28.6458  -13.4145   20.9716 C   0  0  0  0  0  0
  -25.2399  -13.8244   20.5738 C   0  0  0  0  0  0
  -24.1749  -13.0436   20.9256 C   0  0  0  0  0  0
  -24.6394  -11.6932   20.8750 C   0  0  0  0  0  0
  -23.9081  -10.4295   21.0400 C   0  0  0  0  0  0
  -24.3632   -9.4211   21.9175 C   0  0  0  0  0  0
  -23.6311   -8.2243   22.0747 C   0  0  0  0  0  0
  -22.4291   -8.0276   21.3544 C   0  0  0  0  0  0
  -21.9927   -9.0246   20.4639 C   0  0  0  0  0  0
  -22.7254  -10.2128   20.3052 C   0  0  0  0  0  0
  -21.6855   -6.0736   22.5283 C   0  0  0  0  0  0
  -21.4015   -6.5641   23.8213 C   0  0  0  0  0  0
  -21.3668   -5.6791   24.9178 C   0  0  0  0  0  0
  -21.6045   -4.3056   24.7226 C   0  0  0  0  0  0
  -21.8820   -3.8148   23.4345 C   0  0  0  0  0  0
  -21.9192   -4.6966   22.3402 C   0  0  0  0  0  0
  -22.7767  -13.5184   21.1913 C   0  0  0  0  0  0
  -22.1663   -4.2150   21.0978 F   0  0  0  0  0  0
  -21.5633   -3.4537   25.7738 F   0  0  0  0  0  0
  -29.8933  -13.9000   20.3617 N   0  0  0  0  0  0
  -26.2822  -12.9512   20.3211 N   0  0  0  0  0  0
  -25.9326  -11.6619   20.5710 N   0  0  0  0  0  0
  -22.0428  -12.8157   22.0465 N   0  0  0  0  0  0
  -25.4034  -15.1981   20.4186 N   0  0  0  0  0  0
  -31.6506  -15.2319   20.0933 O   0  0  0  0  0  0
  -21.6648   -6.8881   21.4247 O   0  0  0  0  0  0
  -22.3432  -14.5479   20.6755 O   0  0  0  0  0  0
  -24.6579  -31.8284   23.1745 C   0  0  0  0  0  0
  -25.9275  -32.4613   23.8203 C   0  0  1  0  0  0
  -27.2176  -26.9736   20.1781 C   0  0  0  0  0  0
  -25.5962  -33.8430   24.2111 N   0  0  0  0  0  0
  -23.4705  -30.4406   21.5223 C   0  0  2  0  0  0
  -24.9239  -28.8373   20.1069 C   0  0  0  0  0  0
  -22.7645  -29.4458   22.4797 C   0  0  0  0  0  0
  -18.0322  -28.1402   22.8469 C   0  0  0  0  0  0
  -24.1491  -36.7224   23.2647 C   0  0  0  0  0  0
  -26.0359  -30.6481   21.3998 C   0  0  0  0  0  0
  -26.1030  -29.2431   20.7436 C   0  0  0  0  0  0
  -27.2426  -28.3281   20.7606 C   0  0  0  0  0  0
  -26.0173  -26.7153   19.4787 C   0  0  0  0  0  0
  -24.9041  -27.5940   19.4539 C   0  0  0  0  0  0
  -23.7071  -29.7590   20.1461 C   0  0  0  0  0  0
  -25.4130  -36.2990   24.0308 C   0  0  1  0  0  0
  -20.5941  -28.3744   23.1200 C   0  0  2  0  0  0
  -20.6794  -26.9431   22.5403 C   0  0  0  0  0  0
  -19.5768  -26.6376   21.5214 C   0  0  0  0  0  0
  -18.1950  -26.7936   22.1624 C   0  0  0  0  0  0
  -19.1580  -28.8893   23.2820 C   0  0  0  0  0  0
  -18.9492  -30.1482   23.8860 C   0  0  0  0  0  0
  -17.6485  -30.6595   24.0556 C   0  0  0  0  0  0
  -25.9087  -34.9366   23.5028 C   0  0  0  0  0  0
  -16.5377  -29.9085   23.6341 C   0  0  0  0  0  0
  -16.7303  -28.6503   23.0364 C   0  0  0  0  0  0
  -26.4542  -31.6546   25.0716 C   0  0  0  0  0  0
  -25.3685  -31.3790   26.1390 C   0  0  0  0  0  0
  -27.0418  -30.2913   24.6413 C   0  0  0  0  0  0
  -27.6047  -32.4343   25.7508 C   0  0  0  0  0  0
  -27.5574  -37.1765   24.8463 C   0  0  0  0  0  0
  -21.4321  -29.3041   22.3552 N   0  0  0  0  0  0
  -26.4278  -37.3720   23.9409 N   0  0  0  0  0  0
  -24.7420  -30.9989   22.0862 N   0  0  0  0  0  0
  -23.4214  -28.8030   23.3024 O   0  0  0  0  0  0
  -28.2301  -25.8990   20.3058 O   0  0  0  0  0  0
  -26.5701  -34.8891   22.4624 O   0  0  0  0  0  0
  -23.5657  -32.1239   23.6859 O   0  0  0  0  0  0
  -29.3638  -19.6160   20.6111 C   0  0  0  0  0  0
  -31.1656  -22.7629   19.3725 C   0  0  0  0  0  0
  -31.2681  -22.9342   20.8941 C   0  0  0  0  0  0
  -30.3168  -21.5322   18.9753 C   0  0  0  0  0  0
  -29.8966  -23.1706   21.5513 C   0  0  0  0  0  0
  -29.1080  -21.2078   19.9067 C   0  0  2  0  0  0
  -28.7103  -22.7921   20.6399 C   0  0  2  0  0  0
  -30.7546  -18.1033   18.7902 C   0  0  0  0  0  0
  -28.1325  -24.3175   19.9095 C   0  0  0  0  0  0
  -29.6384  -18.0073   19.8419 C   0  0  1  0  0  0
  -29.6369  -16.4455   20.4266 N   0  0  0  0  0  0
  -29.3415  -19.6139   21.8432 O   0  0  0  0  0  0
  -31.4663  -12.9419   19.2266 H   0  0  0  0  0  0
  -30.4741  -11.8409   20.1321 H   0  0  0  0  0  0
  -29.9078  -11.7481   17.6782 H   0  0  0  0  0  0
  -29.5883  -13.4656   17.6729 H   0  0  0  0  0  0
  -28.0196  -11.2776   19.0606 H   0  0  0  0  0  0
  -27.4198  -12.3763   17.8431 H   0  0  0  0  0  0
  -27.5416  -14.2468   19.3464 H   0  0  0  0  0  0
  -28.7910  -12.4690   21.4962 H   0  0  0  0  0  0
  -28.2922  -14.1306   21.7154 H   0  0  0  0  0  0
  -25.2771   -9.5685   22.4755 H   0  0  0  0  0  0
  -24.0020   -7.4628   22.7459 H   0  0  0  0  0  0
  -21.0858   -8.8760   19.8936 H   0  0  0  0  0  0
  -22.3706  -10.9665   19.6163 H   0  0  0  0  0  0
  -21.2009   -7.6148   23.9718 H   0  0  0  0  0  0
  -21.1493   -6.0525   25.9080 H   0  0  0  0  0  0
  -22.0592   -2.7609   23.2845 H   0  0  0  0  0  0
  -22.4070  -11.9828   22.4856 H   0  0  0  0  0  0
  -21.1036  -13.1150   22.2673 H   0  0  0  0  0  0
  -24.6295  -15.8451   20.5272 H   0  0  0  0  0  0
  -26.2372  -15.6394   20.0536 H   0  0  0  0  0  0
  -26.7343  -32.5163   23.0924 H   0  0  0  0  0  0
  -25.0053  -33.9519   25.0222 H   0  0  0  0  0  0
  -22.7811  -31.2707   21.3551 H   0  0  0  0  0  0
  -23.3765  -35.9538   23.3272 H   0  0  0  0  0  0
  -24.3572  -36.8906   22.2068 H   0  0  0  0  0  0
  -23.7228  -37.6395   23.6723 H   0  0  0  0  0  0
  -26.2103  -31.3908   20.6202 H   0  0  0  0  0  0
  -26.8986  -30.7045   22.0521 H   0  0  0  0  0  0
  -28.1316  -28.6306   21.2955 H   0  0  0  0  0  0
  -25.8969  -25.7713   18.9700 H   0  0  0  0  0  0
  -24.0090  -27.2822   18.9335 H   0  0  0  0  0  0
  -23.8581  -30.5294   19.3893 H   0  0  0  0  0  0
  -22.8182  -29.2101   19.8303 H   0  0  0  0  0  0
  -25.1321  -36.1797   25.0798 H   0  0  0  0  0  0
  -21.0028  -28.3344   24.1325 H   0  0  0  0  0  0
  -20.5670  -26.2366   23.3639 H   0  0  0  0  0  0
  -21.6658  -26.7408   22.1213 H   0  0  0  0  0  0
  -19.6927  -25.6275   21.1272 H   0  0  0  0  0  0
  -19.6704  -27.3163   20.6721 H   0  0  0  0  0  0
  -17.4219  -26.6683   21.4026 H   0  0  0  0  0  0
  -18.0346  -26.0088   22.9029 H   0  0  0  0  0  0
  -19.7967  -30.7303   24.2220 H   0  0  0  0  0  0
  -17.5041  -31.6272   24.5161 H   0  0  0  0  0  0
  -15.5374  -30.2975   23.7682 H   0  0  0  0  0  0
  -15.8704  -28.0803   22.7109 H   0  0  0  0  0  0
  -24.5855  -30.7156   25.7706 H   0  0  0  0  0  0
  -24.8890  -32.2992   26.4736 H   0  0  0  0  0  0
  -25.7928  -30.9005   27.0228 H   0  0  0  0  0  0
  -26.3066  -29.6610   24.1404 H   0  0  0  0  0  0
  -27.3942  -29.7259   25.5050 H   0  0  0  0  0  0
  -27.9018  -30.4099   23.9820 H   0  0  0  0  0  0
  -27.2625  -33.3680   26.1987 H   0  0  0  0  0  0
  -28.3908  -32.6852   25.0372 H   0  0  0  0  0  0
  -28.0666  -31.8542   26.5507 H   0  0  0  0  0  0
  -28.2569  -38.0083   24.7520 H   0  0  0  0  0  0
  -28.1094  -36.2611   24.6275 H   0  0  0  0  0  0
  -27.2298  -37.1394   25.8868 H   0  0  0  0  0  0
  -20.9568  -29.8742   21.6698 H   0  0  0  0  0  0
  -26.0137  -38.2778   24.1420 H   0  0  0  0  0  0
  -32.1649  -22.6710   18.9447 H   0  0  0  0  0  0
  -30.7512  -23.6703   18.9319 H   0  0  0  0  0  0
  -31.9405  -23.7592   21.1366 H   0  0  0  0  0  0
  -31.7265  -22.0411   21.3206 H   0  0  0  0  0  0
  -31.0129  -20.7012   18.9451 H   0  0  0  0  0  0
  -29.9644  -21.6639   17.9511 H   0  0  0  0  0  0
  -29.8062  -24.2139   21.8577 H   0  0  0  0  0  0
  -29.8497  -22.5955   22.4776 H   0  0  0  0  0  0
  -28.2617  -21.0051   19.2505 H   0  0  0  0  0  0
  -27.9016  -22.5527   21.3306 H   0  0  0  0  0  0
  -31.7104  -18.3547   19.2492 H   0  0  0  0  0  0
  -30.5195  -18.8463   18.0300 H   0  0  0  0  0  0
  -30.8790  -17.1676   18.2461 H   0  0  0  0  0  0
  -27.0728  -24.1302   19.7474 H   0  0  0  0  0  0
  -28.5410  -24.3101   18.8999 H   0  0  0  0  0  0
  -28.7402  -17.9294   19.2279 H   0  0  0  0  0  0
  -28.7159  -16.2203   20.7745 H   0  0  0  0  0  0
  1 25  1  0  0  0
  1 30  2  0  0  0
  1 81  1  0  0  0
  2  3  1  0  0  0
  2 25  1  0  0  0
  2 83  1  0  0  0
  2 84  1  0  0  0
  3  4  1  0  0  0
  3 85  1  0  0  0
  3 86  1  0  0  0
  4  5  1  0  0  0
  4 87  1  0  0  0
  4 88  1  0  0  0
  5  6  1  0  0  0
  5 26  1  0  0  0
  5 89  1  0  0  0
  6 25  1  0  0  0
  6 90  1  0  0  0
  6 91  1  0  0  0
  7  8  2  0  0  0
  7 26  1  0  0  0
  7 29  1  0  0  0
  8  9  1  0  0  0
  8 22  1  0  0  0
  9 10  1  0  0  0
  9 27  2  0  0  0
 10 11  2  0  0  0
 10 15  1  0  0  0
 11 12  1  0  0  0
 11 92  1  0  0  0
 12 13  2  0  0  0
 12 93  1  0  0  0
 13 14  1  0  0  0
 13 31  1  0  0  0
 14 15  2  0  0  0
 14 94  1  0  0  0
 15 95  1  0  0  0
 16 17  2  0  0  0
 16 21  1  0  0  0
 16 31  1  0  0  0
 17 18  1  0  0  0
 17 96  1  0  0  0
 18 19  2  0  0  0
 18 97  1  0  0  0
 19 20  1  0  0  0
 19 24  1  0  0  0
 20 21  2  0  0  0
 20 98  1  0  0  0
 21 23  1  0  0  0
 22 28  1  0  0  0
 22 32  2  0  0  0
 26 27  1  0  0  0
 28 99  1  0  0  0
 28100  1  0  0  0
 29101  1  0  0  0
 29102  1  0  0  0
 33 34  1  0  0  0
 33 66  1  0  0  0
 33 70  2  0  0  0
 34 36  1  0  0  0
 34 59  1  0  0  0
 34103  1  0  0  0
 35 44  2  0  0  0
 35 45  1  0  0  0
 35 68  1  0  0  0
 36 56  1  0  0  0
 36104  1  0  0  0
 37 39  1  0  0  0
 37 47  1  0  0  0
 37 66  1  0  0  0
 37105  1  0  0  0
 38 43  2  0  0  0
 38 46  1  0  0  0
 38 47  1  0  0  0
 39 64  1  0  0  0
 39 67  2  0  0  0
 40 52  1  0  0  0
 40 53  2  0  0  0
 40 58  1  0  0  0
 41106  1  0  0  0
 41107  1  0  0  0
 41108  1  0  0  0
 41 48  1  0  0  0
 42 43  1  0  0  0
 42 66  1  0  0  0
 42109  1  0  0  0
 42110  1  0  0  0
 43 44  1  0  0  0
 44111  1  0  0  0
 45 46  2  0  0  0
 45112  1  0  0  0
 46113  1  0  0  0
 47114  1  0  0  0
 47115  1  0  0  0
 48 56  1  0  0  0
 48 65  1  0  0  0
 48116  1  0  0  0
 49 50  1  0  0  0
 49 53  1  0  0  0
 49 64  1  0  0  0
 49117  1  0  0  0
 50 51  1  0  0  0
 50118  1  0  0  0
 50119  1  0  0  0
 51 52  1  0  0  0
 51120  1  0  0  0
 51121  1  0  0  0
 52122  1  0  0  0
 52123  1  0  0  0
 53 54  1  0  0  0
 54 55  2  0  0  0
 54124  1  0  0  0
 55 57  1  0  0  0
 55125  1  0  0  0
 56 69  2  0  0  0
 57 58  2  0  0  0
 57126  1  0  0  0
 58127  1  0  0  0
 59 60  1  0  0  0
 59 61  1  0  0  0
 59 62  1  0  0  0
 60128  1  0  0  0
 60129  1  0  0  0
 60130  1  0  0  0
 61131  1  0  0  0
 61132  1  0  0  0
 61133  1  0  0  0
 62134  1  0  0  0
 62135  1  0  0  0
 62136  1  0  0  0
 63 65  1  0  0  0
 63137  1  0  0  0
 63138  1  0  0  0
 63139  1  0  0  0
 64140  1  0  0  0
 65141  1  0  0  0
 68 79  1  0  0  0
 71 80  1  0  0  0
 71 82  2  0  0  0
 71 76  1  0  0  0
 72 73  1  0  0  0
 72 74  1  0  0  0
 72142  1  0  0  0
 72143  1  0  0  0
 73 75  1  0  0  0
 73144  1  0  0  0
 73145  1  0  0  0
 74 76  1  0  0  0
 74146  1  0  0  0
 74147  1  0  0  0
 75 77  1  0  0  0
 75148  1  0  0  0
 75149  1  0  0  0
 76 77  1  0  0  0
 76150  1  0  0  0
 77 79  1  0  0  0
 77151  1  0  0  0
 78152  1  0  0  0
 78153  1  0  0  0
 78154  1  0  0  0
 78 80  1  0  0  0
 79155  1  0  0  0
 79156  1  0  0  0
 80 81  1  0  0  0
 80157  1  0  0  0
 81158  1  0  0  0
M  ISO  4   1 100  68 101  79 101  81 100
M  END
> <chiral flag>
0

> <version>
0

> <s_m_source_file>
/data/baiqing/PycharmProjects/Reinvent-master-3.2/result/LINK_invent/BTK/process_docking_weight1_custom_sum_contain_oxygen_bond_distance_aromatic_linkinvent_7_9_3/rearranged_h_0112.sdf

> <i_m_source_file_index>
16

> <r_mmod_Potential_Energy-OPLS-2005>
1238.802734375

> <r_mmod_Stretch_Energy-OPLS-2005>
587.136657714844

> <r_mmod_Bend_Energy-OPLS-2005>
435.821228027344

> <r_mmod_Torsional_Energy-OPLS-2005>
281.439361572266

> <r_mmod_Improper_Torsional_Energy-OPLS-2005>
6.0827522277832

> <r_mmod_Van_der_Waal_Energy-OPLS-2005>
117.955657958984

> <r_mmod_Electrostatic_Energy-OPLS-2005>
-361.539916992188

> <r_mmod_Solvation_Energy-OPLS-2005>
-227.458374023438

> <b_mmod_Minimization_Converged-OPLS-2005>
0

> <r_mmod_RMS_Derivative-OPLS-2005>
1.33610248565674

$$$$
16
                    3D
 Structure written by MMmdl.
155162  0  0  1  0            999 V2000
  -30.4343  -15.2431   20.3762 C   0  0  0  0  0  0
  -30.4406  -12.7879   19.5444 C   0  0  0  0  0  0
  -29.5441  -12.5893   18.2954 C   0  0  0  0  0  0
  -28.0880  -12.3153   18.7091 C   0  0  0  0  0  0
  -27.6173  -13.2760   19.8303 C   0  0  2  0  0  0
  -28.6454  -13.4288   20.9733 C   0  0  0  0  0  0
  -25.2406  -13.8251   20.5730 C   0  0  0  0  0  0
  -24.1760  -13.0439   20.9249 C   0  0  0  0  0  0
  -24.6414  -11.6936   20.8744 C   0  0  0  0  0  0
  -23.9104  -10.4293   21.0397 C   0  0  0  0  0  0
  -24.3646   -9.4210   21.9178 C   0  0  0  0  0  0
  -23.6310   -8.2248   22.0753 C   0  0  0  0  0  0
  -22.4290   -8.0289   21.3548 C   0  0  0  0  0  0
  -21.9931   -9.0262   20.4645 C   0  0  0  0  0  0
  -22.7272  -10.2135   20.3046 C   0  0  0  0  0  0
  -21.6860   -6.0743   22.5282 C   0  0  0  0  0  0
  -21.4019   -6.5643   23.8221 C   0  0  0  0  0  0
  -21.3662   -5.6792   24.9178 C   0  0  0  0  0  0
  -21.6045   -4.3055   24.7226 C   0  0  0  0  0  0
  -21.8819   -3.8150   23.4345 C   0  0  0  0  0  0
  -21.9196   -4.6970   22.3405 C   0  0  0  0  0  0
  -22.7776  -13.5192   21.1898 C   0  0  0  0  0  0
  -22.1663   -4.2159   21.0980 F   0  0  0  0  0  0
  -21.5627   -3.4539   25.7736 F   0  0  0  0  0  0
  -29.8906  -13.9273   20.3689 N   0  0  0  0  0  0
  -26.2842  -12.9527   20.3210 N   0  0  0  0  0  0
  -25.9356  -11.6632   20.5699 N   0  0  0  0  0  0
  -22.0423  -12.8179   22.0450 N   0  0  0  0  0  0
  -25.4024  -15.1988   20.4176 N   0  0  0  0  0  0
  -31.6340  -15.2711   20.0678 O   0  0  0  0  0  0
  -21.6653   -6.8888   21.4245 O   0  0  0  0  0  0
  -22.3459  -14.5495   20.6736 O   0  0  0  0  0  0
  -24.6613  -31.8247   23.1724 C   0  0  0  0  0  0
  -25.9295  -32.4602   23.8181 C   0  0  1  0  0  0
  -27.2143  -26.9281   20.1901 C   0  0  0  0  0  0
  -25.5967  -33.8418   24.2086 N   0  0  0  0  0  0
  -23.4773  -30.4353   21.5213 C   0  0  2  0  0  0
  -24.9342  -28.8289   20.1085 C   0  0  0  0  0  0
  -22.7667  -29.4429   22.4785 C   0  0  0  0  0  0
  -18.0316  -28.1400   22.8471 C   0  0  0  0  0  0
  -24.1492  -36.7217   23.2646 C   0  0  0  0  0  0
  -26.0461  -30.6297   21.4081 C   0  0  0  0  0  0
  -26.1136  -29.2203   20.7531 C   0  0  0  0  0  0
  -27.2463  -28.2885   20.7754 C   0  0  0  0  0  0
  -26.0261  -26.7156   19.4533 C   0  0  0  0  0  0
  -24.9166  -27.5976   19.4356 C   0  0  0  0  0  0
  -23.7183  -29.7526   20.1465 C   0  0  0  0  0  0
  -25.4136  -36.2983   24.0298 C   0  0  1  0  0  0
  -20.5941  -28.3740   23.1195 C   0  0  2  0  0  0
  -20.6789  -26.9423   22.5404 C   0  0  0  0  0  0
  -19.5763  -26.6371   21.5214 C   0  0  0  0  0  0
  -18.1947  -26.7932   22.1624 C   0  0  0  0  0  0
  -19.1579  -28.8892   23.2821 C   0  0  0  0  0  0
  -18.9486  -30.1481   23.8859 C   0  0  0  0  0  0
  -17.6476  -30.6591   24.0550 C   0  0  0  0  0  0
  -25.9097  -34.9362   23.5015 C   0  0  0  0  0  0
  -16.5370  -29.9078   23.6338 C   0  0  0  0  0  0
  -16.7299  -28.6493   23.0365 C   0  0  0  0  0  0
  -26.4553  -31.6541   25.0706 C   0  0  0  0  0  0
  -25.3668  -31.3790   26.1349 C   0  0  0  0  0  0
  -27.0437  -30.2899   24.6445 C   0  0  0  0  0  0
  -27.6052  -32.4341   25.7504 C   0  0  0  0  0  0
  -27.5572  -37.1772   24.8465 C   0  0  0  0  0  0
  -21.4333  -29.3033   22.3546 N   0  0  0  0  0  0
  -26.4288  -37.3712   23.9398 N   0  0  0  0  0  0
  -24.7491  -30.9903   22.0871 N   0  0  0  0  0  0
  -23.4220  -28.7992   23.3019 O   0  0  0  0  0  0
  -28.2000  -25.8086   20.3079 O   0  0  0  0  0  0
  -26.5714  -34.8886   22.4615 O   0  0  0  0  0  0
  -23.5683  -32.1221   23.6809 O   0  0  0  0  0  0
  -28.5199  -22.2334   23.0950 C   0  0  0  0  0  0
  -26.6408  -23.9216   20.9699 C   0  0  0  0  0  0
  -29.4923  -22.7395   22.0156 C   0  0  0  0  0  0
  -29.6637  -18.0824   20.0183 C   0  0  0  0  0  0
  -29.2106  -19.6563   20.7655 C   0  0  0  0  0  0
  -28.9726  -22.7127   20.5578 C   0  0  2  0  0  0
  -27.9506  -24.1677   20.1983 C   0  0  2  0  0  0
  -29.6520  -16.4902   20.5377 N   0  0  0  0  0  0
  -28.8133  -21.1200   20.0566 N   0  3  0  0  0  0
  -31.4661  -12.9797   19.2263 H   0  0  0  0  0  0
  -30.4893  -11.8700   20.1325 H   0  0  0  0  0  0
  -29.9209  -11.7725   17.6784 H   0  0  0  0  0  0
  -29.5868  -13.4864   17.6752 H   0  0  0  0  0  0
  -28.0339  -11.2845   19.0609 H   0  0  0  0  0  0
  -27.4276  -12.3804   17.8435 H   0  0  0  0  0  0
  -27.5393  -14.2505   19.3471 H   0  0  0  0  0  0
  -28.7983  -12.4860   21.5011 H   0  0  0  0  0  0
  -28.2843  -14.1448   21.7133 H   0  0  0  0  0  0
  -25.2786   -9.5692   22.4765 H   0  0  0  0  0  0
  -24.0020   -7.4641   22.7476 H   0  0  0  0  0  0
  -21.0863   -8.8782   19.8949 H   0  0  0  0  0  0
  -22.3726  -10.9675   19.6160 H   0  0  0  0  0  0
  -21.2009   -7.6149   23.9728 H   0  0  0  0  0  0
  -21.1484   -6.0517   25.9083 H   0  0  0  0  0  0
  -22.0593   -2.7610   23.2845 H   0  0  0  0  0  0
  -22.4042  -11.9854   22.4850 H   0  0  0  0  0  0
  -21.1024  -13.1190   22.2624 H   0  0  0  0  0  0
  -24.6231  -15.8405   20.5181 H   0  0  0  0  0  0
  -26.2371  -15.6427   20.0577 H   0  0  0  0  0  0
  -26.7364  -32.5147   23.0896 H   0  0  0  0  0  0
  -25.0038  -33.9503   25.0184 H   0  0  0  0  0  0
  -22.7901  -31.2665   21.3505 H   0  0  0  0  0  0
  -23.3761  -35.9541   23.3297 H   0  0  0  0  0  0
  -24.3557  -36.8878   22.2062 H   0  0  0  0  0  0
  -23.7243  -37.6401   23.6709 H   0  0  0  0  0  0
  -26.2273  -31.3707   20.6285 H   0  0  0  0  0  0
  -26.9061  -30.6883   22.0631 H   0  0  0  0  0  0
  -28.1323  -28.5804   21.3213 H   0  0  0  0  0  0
  -25.9173  -25.7943   18.9016 H   0  0  0  0  0  0
  -24.0288  -27.3026   18.8933 H   0  0  0  0  0  0
  -23.8717  -30.5216   19.3886 H   0  0  0  0  0  0
  -22.8304  -29.2025   19.8296 H   0  0  0  0  0  0
  -25.1337  -36.1791   25.0790 H   0  0  0  0  0  0
  -21.0027  -28.3337   24.1318 H   0  0  0  0  0  0
  -20.5654  -26.2359   23.3641 H   0  0  0  0  0  0
  -21.6653  -26.7388   22.1218 H   0  0  0  0  0  0
  -19.6918  -25.6268   21.1275 H   0  0  0  0  0  0
  -19.6699  -27.3155   20.6721 H   0  0  0  0  0  0
  -17.4214  -26.6677   21.4029 H   0  0  0  0  0  0
  -18.0341  -26.0081   22.9026 H   0  0  0  0  0  0
  -19.7957  -30.7308   24.2219 H   0  0  0  0  0  0
  -17.5023  -31.6268   24.5154 H   0  0  0  0  0  0
  -15.5365  -30.2964   23.7676 H   0  0  0  0  0  0
  -15.8699  -28.0791   22.7113 H   0  0  0  0  0  0
  -24.5872  -30.7128   25.7638 H   0  0  0  0  0  0
  -24.8832  -32.2989   26.4644 H   0  0  0  0  0  0
  -25.7879  -30.9030   27.0212 H   0  0  0  0  0  0
  -26.3093  -29.6577   24.1445 H   0  0  0  0  0  0
  -27.3943  -29.7271   25.5105 H   0  0  0  0  0  0
  -27.9055  -30.4062   23.9871 H   0  0  0  0  0  0
  -27.2632  -33.3683   26.1968 H   0  0  0  0  0  0
  -28.3922  -32.6836   25.0375 H   0  0  0  0  0  0
  -28.0655  -31.8544   26.5515 H   0  0  0  0  0  0
  -28.2588  -38.0069   24.7499 H   0  0  0  0  0  0
  -28.1072  -36.2597   24.6315 H   0  0  0  0  0  0
  -27.2281  -37.1441   25.8866 H   0  0  0  0  0  0
  -20.9585  -29.8734   21.6684 H   0  0  0  0  0  0
  -26.0144  -38.2779   24.1382 H   0  0  0  0  0  0
  -29.0537  -22.0543   24.0286 H   0  0  0  0  0  0
  -28.0317  -21.3011   22.8162 H   0  0  0  0  0  0
  -27.7422  -22.9597   23.3207 H   0  0  0  0  0  0
  -26.4371  -22.8568   21.0745 H   0  0  0  0  0  0
  -25.7678  -24.3385   20.4778 H   0  0  0  0  0  0
  -26.6878  -24.3573   21.9665 H   0  0  0  0  0  0
  -30.4024  -22.1408   22.0695 H   0  0  0  0  0  0
  -29.8068  -23.7529   22.2692 H   0  0  0  0  0  0
  -30.6694  -18.2310   19.6247 H   0  0  0  0  0  0
  -29.0433  -18.0295   19.1236 H   0  0  0  0  0  0
  -30.0221  -19.8858   21.4548 H   0  0  0  0  0  0
  -28.3665  -19.4367   21.4192 H   0  0  0  0  0  0
  -29.8638  -22.9705   19.9842 H   0  0  0  0  0  0
  -27.7154  -24.0442   19.1413 H   0  0  0  0  0  0
  -28.7383  -16.2545   20.8989 H   0  0  0  0  0  0
  -27.8418  -21.0141   19.8105 H   0  0  0  0  0  0
  -29.2906  -21.0989   19.1694 H   0  0  0  0  0  0
  1 25  1  0  0  0
  1 30  2  0  0  0
  1 78  1  0  0  0
  2  3  1  0  0  0
  2 25  1  0  0  0
  2 80  1  0  0  0
  2 81  1  0  0  0
  3  4  1  0  0  0
  3 82  1  0  0  0
  3 83  1  0  0  0
  4  5  1  0  0  0
  4 84  1  0  0  0
  4 85  1  0  0  0
  5  6  1  0  0  0
  5 26  1  0  0  0
  5 86  1  0  0  0
  6 25  1  0  0  0
  6 87  1  0  0  0
  6 88  1  0  0  0
  7  8  2  0  0  0
  7 26  1  0  0  0
  7 29  1  0  0  0
  8  9  1  0  0  0
  8 22  1  0  0  0
  9 10  1  0  0  0
  9 27  2  0  0  0
 10 11  2  0  0  0
 10 15  1  0  0  0
 11 12  1  0  0  0
 11 89  1  0  0  0
 12 13  2  0  0  0
 12 90  1  0  0  0
 13 14  1  0  0  0
 13 31  1  0  0  0
 14 15  2  0  0  0
 14 91  1  0  0  0
 15 92  1  0  0  0
 16 17  2  0  0  0
 16 21  1  0  0  0
 16 31  1  0  0  0
 17 18  1  0  0  0
 17 93  1  0  0  0
 18 19  2  0  0  0
 18 94  1  0  0  0
 19 20  1  0  0  0
 19 24  1  0  0  0
 20 21  2  0  0  0
 20 95  1  0  0  0
 21 23  1  0  0  0
 22 28  1  0  0  0
 22 32  2  0  0  0
 26 27  1  0  0  0
 28 96  1  0  0  0
 28 97  1  0  0  0
 29 98  1  0  0  0
 29 99  1  0  0  0
 33 34  1  0  0  0
 33 66  1  0  0  0
 33 70  2  0  0  0
 34 36  1  0  0  0
 34 59  1  0  0  0
 34100  1  0  0  0
 35 44  2  0  0  0
 35 45  1  0  0  0
 35 68  1  0  0  0
 36 56  1  0  0  0
 36101  1  0  0  0
 37 39  1  0  0  0
 37 47  1  0  0  0
 37 66  1  0  0  0
 37102  1  0  0  0
 38 43  2  0  0  0
 38 46  1  0  0  0
 38 47  1  0  0  0
 39 64  1  0  0  0
 39 67  2  0  0  0
 40 52  1  0  0  0
 40 53  2  0  0  0
 40 58  1  0  0  0
 41103  1  0  0  0
 41104  1  0  0  0
 41105  1  0  0  0
 41 48  1  0  0  0
 42 43  1  0  0  0
 42 66  1  0  0  0
 42106  1  0  0  0
 42107  1  0  0  0
 43 44  1  0  0  0
 44108  1  0  0  0
 45 46  2  0  0  0
 45109  1  0  0  0
 46110  1  0  0  0
 47111  1  0  0  0
 47112  1  0  0  0
 48 56  1  0  0  0
 48 65  1  0  0  0
 48113  1  0  0  0
 49 50  1  0  0  0
 49 53  1  0  0  0
 49 64  1  0  0  0
 49114  1  0  0  0
 50 51  1  0  0  0
 50115  1  0  0  0
 50116  1  0  0  0
 51 52  1  0  0  0
 51117  1  0  0  0
 51118  1  0  0  0
 52119  1  0  0  0
 52120  1  0  0  0
 53 54  1  0  0  0
 54 55  2  0  0  0
 54121  1  0  0  0
 55 57  1  0  0  0
 55122  1  0  0  0
 56 69  2  0  0  0
 57 58  2  0  0  0
 57123  1  0  0  0
 58124  1  0  0  0
 59 60  1  0  0  0
 59 61  1  0  0  0
 59 62  1  0  0  0
 60125  1  0  0  0
 60126  1  0  0  0
 60127  1  0  0  0
 61128  1  0  0  0
 61129  1  0  0  0
 61130  1  0  0  0
 62131  1  0  0  0
 62132  1  0  0  0
 62133  1  0  0  0
 63 65  1  0  0  0
 63134  1  0  0  0
 63135  1  0  0  0
 63136  1  0  0  0
 64137  1  0  0  0
 65138  1  0  0  0
 68 77  1  0  0  0
 71 73  1  0  0  0
 71139  1  0  0  0
 71140  1  0  0  0
 71141  1  0  0  0
 72142  1  0  0  0
 72143  1  0  0  0
 72144  1  0  0  0
 72 77  1  0  0  0
 73145  1  0  0  0
 73146  1  0  0  0
 73 76  1  0  0  0
 74 75  1  0  0  0
 74 78  1  0  0  0
 74147  1  0  0  0
 74148  1  0  0  0
 75 79  1  0  0  0
 75149  1  0  0  0
 75150  1  0  0  0
 76 77  1  0  0  0
 76 79  1  0  0  0
 76151  1  0  0  0
 77152  1  0  0  0
 78153  1  0  0  0
 79154  1  0  0  0
 79155  1  0  0  0
M  CHG  1  79   1
M  ISO  4   1 100  68 101  77 101  78 100
M  END
> <chiral flag>
0

> <version>
0

> <s_m_source_file>
/data/baiqing/PycharmProjects/Reinvent-master-3.2/result/LINK_invent/BTK/process_docking_weight1_custom_sum_contain_oxygen_bond_distance_aromatic_linkinvent_7_9_3/rearranged_h_0112.sdf

> <i_m_source_file_index>
17

> <r_mmod_Potential_Energy-OPLS-2005>
1151.41748046875

> <r_mmod_Stretch_Energy-OPLS-2005>
616.583435058594

> <r_mmod_Bend_Energy-OPLS-2005>
455.720672607422

> <r_mmod_Torsional_Energy-OPLS-2005>
259.941864013672

> <r_mmod_Improper_Torsional_Energy-OPLS-2005>
4.62638521194458

> <r_mmod_Van_der_Waal_Energy-OPLS-2005>
111.723495483398

> <r_mmod_Electrostatic_Energy-OPLS-2005>
-271.389923095703

> <r_mmod_Solvation_Energy-OPLS-2005>
-474.948944091797

> <b_mmod_Minimization_Converged-OPLS-2005>
0

> <r_mmod_RMS_Derivative-OPLS-2005>
1.0788756608963

$$$$
17
                    3D
 Structure written by MMmdl.
154163  0  0  1  0            999 V2000
  -30.4198  -15.3405   20.3775 C   0  0  0  0  0  0
  -30.4415  -12.8570   19.5405 C   0  0  0  0  0  0
  -29.5550  -12.6049   18.2946 C   0  0  0  0  0  0
  -28.0997  -12.3229   18.7098 C   0  0  0  0  0  0
  -27.6136  -13.2891   19.8190 C   0  0  2  0  0  0
  -28.6434  -13.4861   20.9518 C   0  0  0  0  0  0
  -25.2394  -13.8276   20.5738 C   0  0  0  0  0  0
  -24.1756  -13.0440   20.9232 C   0  0  0  0  0  0
  -24.6439  -11.6954   20.8723 C   0  0  0  0  0  0
  -23.9131  -10.4305   21.0385 C   0  0  0  0  0  0
  -24.3674   -9.4228   21.9175 C   0  0  0  0  0  0
  -23.6322   -8.2275   22.0757 C   0  0  0  0  0  0
  -22.4298   -8.0302   21.3547 C   0  0  0  0  0  0
  -21.9944   -9.0285   20.4644 C   0  0  0  0  0  0
  -22.7297  -10.2143   20.3043 C   0  0  0  0  0  0
  -21.6860   -6.0746   22.5290 C   0  0  0  0  0  0
  -21.4016   -6.5643   23.8223 C   0  0  0  0  0  0
  -21.3653   -5.6795   24.9172 C   0  0  0  0  0  0
  -21.6039   -4.3057   24.7229 C   0  0  0  0  0  0
  -21.8822   -3.8150   23.4350 C   0  0  0  0  0  0
  -21.9195   -4.6969   22.3403 C   0  0  0  0  0  0
  -22.7768  -13.5179   21.1884 C   0  0  0  0  0  0
  -22.1669   -4.2168   21.0983 F   0  0  0  0  0  0
  -21.5618   -3.4533   25.7730 F   0  0  0  0  0  0
  -29.8660  -14.0195   20.3239 N   0  0  0  0  0  0
  -26.2833  -12.9579   20.3170 N   0  0  0  0  0  0
  -25.9374  -11.6667   20.5651 N   0  0  0  0  0  0
  -22.0425  -12.8177   22.0434 N   0  0  0  0  0  0
  -25.4017  -15.2017   20.4200 N   0  0  0  0  0  0
  -31.6462  -15.3269   20.1907 O   0  0  0  0  0  0
  -21.6649   -6.8903   21.4256 O   0  0  0  0  0  0
  -22.3457  -14.5488   20.6724 O   0  0  0  0  0  0
  -24.6711  -31.8169   23.1661 C   0  0  0  0  0  0
  -25.9369  -32.4563   23.8153 C   0  0  1  0  0  0
  -27.2239  -26.8555   20.2084 C   0  0  0  0  0  0
  -25.6031  -33.8370   24.2083 N   0  0  0  0  0  0
  -23.4898  -30.4248   21.5171 C   0  0  2  0  0  0
  -24.9453  -28.7933   20.1254 C   0  0  0  0  0  0
  -22.7706  -29.4411   22.4778 C   0  0  0  0  0  0
  -18.0334  -28.1404   22.8457 C   0  0  0  0  0  0
  -24.1493  -36.7142   23.2635 C   0  0  0  0  0  0
  -26.0620  -30.6041   21.4002 C   0  0  0  0  0  0
  -26.1341  -29.1815   20.7581 C   0  0  0  0  0  0
  -27.2696  -28.2382   20.7653 C   0  0  0  0  0  0
  -26.0015  -26.6334   19.5360 C   0  0  0  0  0  0
  -24.9084  -27.5382   19.4957 C   0  0  0  0  0  0
  -23.7375  -29.7308   20.1499 C   0  0  0  0  0  0
  -25.4141  -36.2945   24.0309 C   0  0  1  0  0  0
  -20.5958  -28.3752   23.1152 C   0  0  2  0  0  0
  -20.6785  -26.9415   22.5392 C   0  0  0  0  0  0
  -19.5763  -26.6366   21.5189 C   0  0  0  0  0  0
  -18.1958  -26.7929   22.1611 C   0  0  0  0  0  0
  -19.1595  -28.8894   23.2787 C   0  0  0  0  0  0
  -18.9503  -30.1485   23.8826 C   0  0  0  0  0  0
  -17.6489  -30.6579   24.0549 C   0  0  0  0  0  0
  -25.9108  -34.9351   23.5023 C   0  0  0  0  0  0
  -16.5386  -29.9070   23.6336 C   0  0  0  0  0  0
  -16.7309  -28.6498   23.0346 C   0  0  0  0  0  0
  -26.4624  -31.6501   25.0676 C   0  0  0  0  0  0
  -25.3754  -31.3746   26.1336 C   0  0  0  0  0  0
  -27.0521  -30.2873   24.6381 C   0  0  0  0  0  0
  -27.6154  -32.4277   25.7450 C   0  0  0  0  0  0
  -27.5579  -37.1739   24.8477 C   0  0  0  0  0  0
  -21.4372  -29.3046   22.3505 N   0  0  0  0  0  0
  -26.4280  -37.3700   23.9429 N   0  0  0  0  0  0
  -24.7637  -30.9753   22.0834 N   0  0  0  0  0  0
  -23.4215  -28.7975   23.3043 O   0  0  0  0  0  0
  -28.2286  -25.7253   20.1940 O   0  0  0  0  0  0
  -26.5698  -34.8889   22.4598 O   0  0  0  0  0  0
  -23.5771  -32.1177   23.6701 O   0  0  0  0  0  0
  -28.7204  -22.3864   18.6580 C   0  0  0  0  0  0
  -28.9790  -21.1122   17.9863 C   0  0  0  0  0  0
  -28.6342  -22.5348   19.9949 C   0  0  0  0  0  0
  -29.1757  -19.9212   18.6139 C   0  0  0  0  0  0
  -28.9479  -21.0949   20.7222 C   0  0  0  0  0  0
  -28.4852  -17.4493   17.8452 C   0  0  0  0  0  0
  -28.3512  -18.3836   16.6754 C   0  0  0  0  0  0
  -29.3542  -18.6893   17.7781 C   0  0  0  0  0  0
  -28.0300  -24.1015   20.5984 C   0  0  0  0  0  0
  -29.9086  -18.3144   20.5998 C   0  0  0  0  0  0
  -29.2274  -19.7832   20.0329 N   0  0  0  0  0  0
  -29.6540  -16.6321   20.4576 N   0  0  0  0  0  0
  -28.9928  -21.0725   21.9560 O   0  0  0  0  0  0
  -31.4674  -13.0606   19.2278 H   0  0  0  0  0  0
  -30.5024  -11.9561   20.1531 H   0  0  0  0  0  0
  -29.9471  -11.7773   17.7011 H   0  0  0  0  0  0
  -29.5951  -13.4857   17.6515 H   0  0  0  0  0  0
  -28.0546  -11.2960   19.0752 H   0  0  0  0  0  0
  -27.4407  -12.3756   17.8418 H   0  0  0  0  0  0
  -27.5220  -14.2559   19.3237 H   0  0  0  0  0  0
  -28.8231  -12.5544   21.4911 H   0  0  0  0  0  0
  -28.2746  -14.2023   21.6860 H   0  0  0  0  0  0
  -25.2828   -9.5699   22.4738 H   0  0  0  0  0  0
  -24.0017   -7.4669   22.7480 H   0  0  0  0  0  0
  -21.0871   -8.8812   19.8952 H   0  0  0  0  0  0
  -22.3768  -10.9675   19.6139 H   0  0  0  0  0  0
  -21.2017   -7.6157   23.9730 H   0  0  0  0  0  0
  -21.1452   -6.0518   25.9077 H   0  0  0  0  0  0
  -22.0597   -2.7614   23.2846 H   0  0  0  0  0  0
  -22.4017  -11.9863   22.4890 H   0  0  0  0  0  0
  -21.1015  -13.1181   22.2560 H   0  0  0  0  0  0
  -24.6311  -15.8497   20.5388 H   0  0  0  0  0  0
  -26.2370  -15.6462   20.0654 H   0  0  0  0  0  0
  -26.7437  -32.5112   23.0854 H   0  0  0  0  0  0
  -25.0257  -33.9426   25.0291 H   0  0  0  0  0  0
  -22.8079  -31.2593   21.3372 H   0  0  0  0  0  0
  -23.3818  -35.9407   23.3264 H   0  0  0  0  0  0
  -24.3553  -36.8798   22.2047 H   0  0  0  0  0  0
  -23.7173  -37.6299   23.6684 H   0  0  0  0  0  0
  -26.2345  -31.3358   20.6102 H   0  0  0  0  0  0
  -26.9258  -30.6790   22.0496 H   0  0  0  0  0  0
  -28.1757  -28.5440   21.2688 H   0  0  0  0  0  0
  -25.8692  -25.6774   19.0494 H   0  0  0  0  0  0
  -24.0056  -27.2271   18.9858 H   0  0  0  0  0  0
  -23.9045  -30.4936   19.3887 H   0  0  0  0  0  0
  -22.8462  -29.1908   19.8272 H   0  0  0  0  0  0
  -25.1329  -36.1752   25.0800 H   0  0  0  0  0  0
  -21.0059  -28.3357   24.1259 H   0  0  0  0  0  0
  -20.5594  -26.2372   23.3637 H   0  0  0  0  0  0
  -21.6654  -26.7322   22.1230 H   0  0  0  0  0  0
  -19.6906  -25.6260   21.1239 H   0  0  0  0  0  0
  -19.6694  -27.3153   20.6696 H   0  0  0  0  0  0
  -17.4214  -26.6661   21.4033 H   0  0  0  0  0  0
  -18.0361  -26.0070   22.9006 H   0  0  0  0  0  0
  -19.7976  -30.7327   24.2141 H   0  0  0  0  0  0
  -17.5039  -31.6241   24.5186 H   0  0  0  0  0  0
  -15.5381  -30.2953   23.7670 H   0  0  0  0  0  0
  -15.8716  -28.0791   22.7077 H   0  0  0  0  0  0
  -24.6010  -30.6998   25.7671 H   0  0  0  0  0  0
  -24.8868  -32.2937   26.4572 H   0  0  0  0  0  0
  -25.8015  -30.9077   27.0227 H   0  0  0  0  0  0
  -26.3215  -29.6556   24.1324 H   0  0  0  0  0  0
  -27.4027  -29.7193   25.5015 H   0  0  0  0  0  0
  -27.9158  -30.4079   23.9842 H   0  0  0  0  0  0
  -27.2815  -33.3676   26.1839 H   0  0  0  0  0  0
  -28.4059  -32.6634   25.0323 H   0  0  0  0  0  0
  -28.0707  -31.8491   26.5496 H   0  0  0  0  0  0
  -28.2597  -38.0040   24.7554 H   0  0  0  0  0  0
  -28.1089  -36.2580   24.6299 H   0  0  0  0  0  0
  -27.2281  -37.1364   25.8873 H   0  0  0  0  0  0
  -20.9622  -29.8759   21.6647 H   0  0  0  0  0  0
  -26.0135  -38.2756   24.1473 H   0  0  0  0  0  0
  -28.4981  -23.2465   18.0397 H   0  0  0  0  0  0
  -28.9799  -21.1176   16.9045 H   0  0  0  0  0  0
  -28.9841  -16.4945   17.6788 H   0  0  0  0  0  0
  -27.6629  -17.4227   18.5566 H   0  0  0  0  0  0
  -27.4393  -18.9786   16.6250 H   0  0  0  0  0  0
  -28.7330  -18.0435   15.7148 H   0  0  0  0  0  0
  -30.3985  -18.5531   17.4985 H   0  0  0  0  0  0
  -28.3010  -24.0780   21.6538 H   0  0  0  0  0  0
  -26.9500  -23.9610   20.6150 H   0  0  0  0  0  0
  -29.9520  -18.4667   21.6777 H   0  0  0  0  0  0
  -30.9492  -18.4156   20.2895 H   0  0  0  0  0  0
  -28.6731  -16.4207   20.5666 H   0  0  0  0  0  0
  1 25  1  0  0  0
  1 30  2  0  0  0
  1 82  1  0  0  0
  2  3  1  0  0  0
  2 25  1  0  0  0
  2 84  1  0  0  0
  2 85  1  0  0  0
  3  4  1  0  0  0
  3 86  1  0  0  0
  3 87  1  0  0  0
  4  5  1  0  0  0
  4 88  1  0  0  0
  4 89  1  0  0  0
  5  6  1  0  0  0
  5 26  1  0  0  0
  5 90  1  0  0  0
  6 25  1  0  0  0
  6 91  1  0  0  0
  6 92  1  0  0  0
  7  8  2  0  0  0
  7 26  1  0  0  0
  7 29  1  0  0  0
  8  9  1  0  0  0
  8 22  1  0  0  0
  9 10  1  0  0  0
  9 27  2  0  0  0
 10 11  2  0  0  0
 10 15  1  0  0  0
 11 12  1  0  0  0
 11 93  1  0  0  0
 12 13  2  0  0  0
 12 94  1  0  0  0
 13 14  1  0  0  0
 13 31  1  0  0  0
 14 15  2  0  0  0
 14 95  1  0  0  0
 15 96  1  0  0  0
 16 17  2  0  0  0
 16 21  1  0  0  0
 16 31  1  0  0  0
 17 18  1  0  0  0
 17 97  1  0  0  0
 18 19  2  0  0  0
 18 98  1  0  0  0
 19 20  1  0  0  0
 19 24  1  0  0  0
 20 21  2  0  0  0
 20 99  1  0  0  0
 21 23  1  0  0  0
 22 28  1  0  0  0
 22 32  2  0  0  0
 26 27  1  0  0  0
 28100  1  0  0  0
 28101  1  0  0  0
 29102  1  0  0  0
 29103  1  0  0  0
 33 34  1  0  0  0
 33 66  1  0  0  0
 33 70  2  0  0  0
 34 36  1  0  0  0
 34 59  1  0  0  0
 34104  1  0  0  0
 35 44  2  0  0  0
 35 45  1  0  0  0
 35 68  1  0  0  0
 36 56  1  0  0  0
 36105  1  0  0  0
 37 39  1  0  0  0
 37 47  1  0  0  0
 37 66  1  0  0  0
 37106  1  0  0  0
 38 43  2  0  0  0
 38 46  1  0  0  0
 38 47  1  0  0  0
 39 64  1  0  0  0
 39 67  2  0  0  0
 40 52  1  0  0  0
 40 53  2  0  0  0
 40 58  1  0  0  0
 41107  1  0  0  0
 41108  1  0  0  0
 41109  1  0  0  0
 41 48  1  0  0  0
 42 43  1  0  0  0
 42 66  1  0  0  0
 42110  1  0  0  0
 42111  1  0  0  0
 43 44  1  0  0  0
 44112  1  0  0  0
 45 46  2  0  0  0
 45113  1  0  0  0
 46114  1  0  0  0
 47115  1  0  0  0
 47116  1  0  0  0
 48 56  1  0  0  0
 48 65  1  0  0  0
 48117  1  0  0  0
 49 50  1  0  0  0
 49 53  1  0  0  0
 49 64  1  0  0  0
 49118  1  0  0  0
 50 51  1  0  0  0
 50119  1  0  0  0
 50120  1  0  0  0
 51 52  1  0  0  0
 51121  1  0  0  0
 51122  1  0  0  0
 52123  1  0  0  0
 52124  1  0  0  0
 53 54  1  0  0  0
 54 55  2  0  0  0
 54125  1  0  0  0
 55 57  1  0  0  0
 55126  1  0  0  0
 56 69  2  0  0  0
 57 58  2  0  0  0
 57127  1  0  0  0
 58128  1  0  0  0
 59 60  1  0  0  0
 59 61  1  0  0  0
 59 62  1  0  0  0
 60129  1  0  0  0
 60130  1  0  0  0
 60131  1  0  0  0
 61132  1  0  0  0
 61133  1  0  0  0
 61134  1  0  0  0
 62135  1  0  0  0
 62136  1  0  0  0
 62137  1  0  0  0
 63 65  1  0  0  0
 63138  1  0  0  0
 63139  1  0  0  0
 63140  1  0  0  0
 64141  1  0  0  0
 65142  1  0  0  0
 68 79  1  0  0  0
 71 72  1  0  0  0
 71 73  2  0  0  0
 71143  1  0  0  0
 72 74  2  0  0  0
 72144  1  0  0  0
 73 75  1  0  0  0
 73 79  1  0  0  0
 74 81  1  0  0  0
 74 78  1  0  0  0
 75 81  1  0  0  0
 75 83  2  0  0  0
 76 77  1  0  0  0
 76 78  1  0  0  0
 76145  1  0  0  0
 76146  1  0  0  0
 77 78  1  0  0  0
 77147  1  0  0  0
 77148  1  0  0  0
 78149  1  0  0  0
 79150  1  0  0  0
 79151  1  0  0  0
 80 81  1  0  0  0
 80 82  1  0  0  0
 80152  1  0  0  0
 80153  1  0  0  0
 82154  1  0  0  0
M  ISO  4   1 100  68 101  79 101  82 100
M  END
> <chiral flag>
0

> <version>
0

> <s_m_source_file>
/data/baiqing/PycharmProjects/Reinvent-master-3.2/result/LINK_invent/BTK/process_docking_weight1_custom_sum_contain_oxygen_bond_distance_aromatic_linkinvent_7_9_3/rearranged_h_0112.sdf

> <i_m_source_file_index>
18

> <r_mmod_Potential_Energy-OPLS-2005>
1582.0859375

> <r_mmod_Stretch_Energy-OPLS-2005>
723.002380371094

> <r_mmod_Bend_Energy-OPLS-2005>
485.442779541016

> <r_mmod_Torsional_Energy-OPLS-2005>
253.748229980469

> <r_mmod_Improper_Torsional_Energy-OPLS-2005>
4.68290281295776

> <r_mmod_Van_der_Waal_Energy-OPLS-2005>
125.945686340332

> <r_mmod_Electrostatic_Energy-OPLS-2005>
-334.643615722656

> <r_mmod_Solvation_Energy-OPLS-2005>
-221.738632202148

> <b_mmod_Minimization_Converged-OPLS-2005>
0

> <r_mmod_RMS_Derivative-OPLS-2005>
4.00524520874023

$$$$
18
                    3D
 Structure written by MMmdl.
161169  0  0  1  0            999 V2000
  -30.5991  -14.7650   20.4702 C   0  0  0  0  0  0
  -30.4408  -12.4746   19.4657 C   0  0  0  0  0  0
  -29.5102  -12.5094   18.2319 C   0  0  0  0  0  0
  -28.0365  -12.3342   18.6489 C   0  0  0  0  0  0
  -27.6429  -13.2319   19.8520 C   0  0  2  0  0  0
  -28.6917  -13.1616   20.9836 C   0  0  0  0  0  0
  -25.2517  -13.8193   20.5710 C   0  0  0  0  0  0
  -24.1814  -13.0446   20.9216 C   0  0  0  0  0  0
  -24.6409  -11.6920   20.8768 C   0  0  0  0  0  0
  -23.9087  -10.4296   21.0419 C   0  0  0  0  0  0
  -24.3635   -9.4198   21.9187 C   0  0  0  0  0  0
  -23.6301   -8.2236   22.0750 C   0  0  0  0  0  0
  -22.4280   -8.0293   21.3540 C   0  0  0  0  0  0
  -21.9928   -9.0269   20.4639 C   0  0  0  0  0  0
  -22.7267  -10.2144   20.3054 C   0  0  0  0  0  0
  -21.6855   -6.0746   22.5279 C   0  0  0  0  0  0
  -21.4011   -6.5641   23.8217 C   0  0  0  0  0  0
  -21.3658   -5.6789   24.9175 C   0  0  0  0  0  0
  -21.6045   -4.3053   24.7222 C   0  0  0  0  0  0
  -21.8820   -3.8154   23.4342 C   0  0  0  0  0  0
  -21.9191   -4.6971   22.3402 C   0  0  0  0  0  0
  -22.7826  -13.5215   21.1877 C   0  0  0  0  0  0
  -22.1659   -4.2160   21.0977 F   0  0  0  0  0  0
  -21.5633   -3.4535   25.7730 F   0  0  0  0  0  0
  -29.9889  -13.5311   20.4007 N   0  0  0  0  0  0
  -26.2950  -12.9408   20.3304 N   0  0  0  0  0  0
  -25.9341  -11.6550   20.5769 N   0  0  0  0  0  0
  -22.0478  -12.8198   22.0428 N   0  0  0  0  0  0
  -25.4207  -15.1925   20.4119 N   0  0  0  0  0  0
  -31.7854  -14.8849   20.1556 O   0  0  0  0  0  0
  -21.6639   -6.8900   21.4243 O   0  0  0  0  0  0
  -22.3510  -14.5526   20.6731 O   0  0  0  0  0  0
  -24.6329  -31.8505   23.2021 C   0  0  0  0  0  0
  -25.9139  -32.4733   23.8355 C   0  0  1  0  0  0
  -27.2259  -27.2424   20.1316 C   0  0  0  0  0  0
  -25.5933  -33.8538   24.2259 N   0  0  0  0  0  0
  -23.4325  -30.4760   21.5412 C   0  0  2  0  0  0
  -24.8842  -28.9233   20.1102 C   0  0  0  0  0  0
  -22.7515  -29.4578   22.4885 C   0  0  0  0  0  0
  -18.0284  -28.1385   22.8469 C   0  0  0  0  0  0
  -24.1488  -36.7274   23.2643 C   0  0  0  0  0  0
  -25.9834  -30.7578   21.3906 C   0  0  0  0  0  0
  -26.0570  -29.3813   20.7251 C   0  0  0  0  0  0
  -27.2308  -28.5547   20.7223 C   0  0  0  0  0  0
  -26.0294  -26.8651   19.4784 C   0  0  0  0  0  0
  -24.8772  -27.6746   19.4740 C   0  0  0  0  0  0
  -23.6560  -29.8120   20.1568 C   0  0  0  0  0  0
  -25.4115  -36.3054   24.0324 C   0  0  1  0  0  0
  -20.5901  -28.3694   23.1243 C   0  0  2  0  0  0
  -20.6776  -26.9405   22.5391 C   0  0  0  0  0  0
  -19.5754  -26.6376   21.5192 C   0  0  0  0  0  0
  -18.1930  -26.7931   22.1604 C   0  0  0  0  0  0
  -19.1544  -28.8859   23.2848 C   0  0  0  0  0  0
  -18.9469  -30.1470   23.8858 C   0  0  0  0  0  0
  -17.6466  -30.6585   24.0564 C   0  0  0  0  0  0
  -25.9059  -34.9421   23.5097 C   0  0  0  0  0  0
  -16.5357  -29.9082   23.6345 C   0  0  0  0  0  0
  -16.7269  -28.6511   23.0341 C   0  0  0  0  0  0
  -26.4510  -31.6582   25.0756 C   0  0  0  0  0  0
  -25.3739  -31.3724   26.1481 C   0  0  0  0  0  0
  -27.0401  -30.3000   24.6296 C   0  0  0  0  0  0
  -27.6053  -32.4347   25.7518 C   0  0  0  0  0  0
  -27.5576  -37.1787   24.8459 C   0  0  0  0  0  0
  -21.4219  -29.3041   22.3631 N   0  0  0  0  0  0
  -26.4287  -37.3747   23.9407 N   0  0  0  0  0  0
  -24.7011  -31.0465   22.0999 N   0  0  0  0  0  0
  -23.4200  -28.8087   23.2968 O   0  0  0  0  0  0
  -28.3070  -26.3212   20.2049 O   0  0  0  0  0  0
  -26.5617  -34.8893   22.4658 O   0  0  0  0  0  0
  -23.5479  -32.1321   23.7316 O   0  0  0  0  0  0
  -29.5095  -20.4405   18.2143 C   0  0  0  0  0  0
  -29.8983  -17.7177   18.3251 C   0  0  0  0  0  0
  -29.7989  -18.3931   19.5685 C   0  0  0  0  0  0
  -29.5533  -19.8644   19.5113 C   0  0  0  0  0  0
  -29.6414  -19.6771   17.0434 C   0  0  0  0  0  0
  -29.6190  -20.3104   15.6665 C   0  0  0  0  0  0
  -27.3777  -21.9235   21.5271 C   0  0  0  0  0  0
  -30.0702  -17.4025   20.7856 C   0  0  0  0  0  0
  -29.0270  -23.6055   20.4484 C   0  0  0  0  0  0
  -28.0014  -24.8390   20.1234 C   0  0  0  0  0  0
  -28.4541  -22.0688   20.4397 C   0  0  1  0  0  0
  -29.8164  -18.3522   17.1429 N   0  3  0  0  0  0
  -29.3883  -20.8554   20.5582 N   0  0  0  0  0  0
  -29.7966  -15.8815   20.6790 N   0  0  0  0  0  0
  -31.4780  -12.6164   19.1582 H   0  0  0  0  0  0
  -30.4035  -11.4987   19.9514 H   0  0  0  0  0  0
  -29.7917  -11.7279   17.5249 H   0  0  0  0  0  0
  -29.6306  -13.4568   17.7046 H   0  0  0  0  0  0
  -27.8921  -11.2857   18.9103 H   0  0  0  0  0  0
  -27.3763  -12.5274   17.8025 H   0  0  0  0  0  0
  -27.6354  -14.2541   19.4736 H   0  0  0  0  0  0
  -28.7369  -12.1563   21.4048 H   0  0  0  0  0  0
  -28.4250  -13.8256   21.8074 H   0  0  0  0  0  0
  -25.2789   -9.5662   22.4760 H   0  0  0  0  0  0
  -24.0010   -7.4622   22.7463 H   0  0  0  0  0  0
  -21.0867   -8.8809   19.8938 H   0  0  0  0  0  0
  -22.3751  -10.9691   19.6163 H   0  0  0  0  0  0
  -21.1999   -7.6148   23.9727 H   0  0  0  0  0  0
  -21.1477   -6.0513   25.9080 H   0  0  0  0  0  0
  -22.0601   -2.7616   23.2836 H   0  0  0  0  0  0
  -22.4098  -11.9852   22.4805 H   0  0  0  0  0  0
  -21.1090  -13.1218   22.2643 H   0  0  0  0  0  0
  -24.6527  -15.8451   20.5258 H   0  0  0  0  0  0
  -26.2614  -15.6327   20.0623 H   0  0  0  0  0  0
  -26.7209  -32.5367   23.1104 H   0  0  0  0  0  0
  -25.0128  -33.9661   25.0438 H   0  0  0  0  0  0
  -22.7306  -31.2994   21.3942 H   0  0  0  0  0  0
  -23.3755  -35.9602   23.3295 H   0  0  0  0  0  0
  -24.3581  -36.8904   22.2060 H   0  0  0  0  0  0
  -23.7233  -37.6465   23.6683 H   0  0  0  0  0  0
  -26.1358  -31.5241   20.6291 H   0  0  0  0  0  0
  -26.8564  -30.7980   22.0311 H   0  0  0  0  0  0
  -28.1275  -28.8945   21.2218 H   0  0  0  0  0  0
  -25.9468  -25.9142   18.9761 H   0  0  0  0  0  0
  -23.9824  -27.3224   18.9779 H   0  0  0  0  0  0
  -23.7857  -30.5894   19.4031 H   0  0  0  0  0  0
  -22.7752  -29.2466   19.8467 H   0  0  0  0  0  0
  -25.1297  -36.1907   25.0814 H   0  0  0  0  0  0
  -20.9996  -28.3297   24.1364 H   0  0  0  0  0  0
  -20.5667  -26.2302   23.3602 H   0  0  0  0  0  0
  -21.6640  -26.7409   22.1188 H   0  0  0  0  0  0
  -19.6913  -25.6275   21.1243 H   0  0  0  0  0  0
  -19.6716  -27.3172   20.6718 H   0  0  0  0  0  0
  -17.4191  -26.6659   21.4019 H   0  0  0  0  0  0
  -18.0341  -26.0078   22.9011 H   0  0  0  0  0  0
  -19.7951  -30.7286   24.2214 H   0  0  0  0  0  0
  -17.5025  -31.6274   24.5158 H   0  0  0  0  0  0
  -15.5357  -30.2969   23.7713 H   0  0  0  0  0  0
  -15.8667  -28.0843   22.7056 H   0  0  0  0  0  0
  -24.5922  -30.7059   25.7822 H   0  0  0  0  0  0
  -24.8944  -32.2894   26.4917 H   0  0  0  0  0  0
  -25.8084  -30.8914   27.0255 H   0  0  0  0  0  0
  -26.3023  -29.6693   24.1334 H   0  0  0  0  0  0
  -27.4055  -29.7313   25.4858 H   0  0  0  0  0  0
  -27.8907  -30.4264   23.9595 H   0  0  0  0  0  0
  -27.2654  -33.3665   26.2044 H   0  0  0  0  0  0
  -28.3889  -32.6855   25.0358 H   0  0  0  0  0  0
  -28.0688  -31.8503   26.5473 H   0  0  0  0  0  0
  -28.2568  -38.0108   24.7512 H   0  0  0  0  0  0
  -28.1096  -36.2628   24.6293 H   0  0  0  0  0  0
  -27.2283  -37.1422   25.8857 H   0  0  0  0  0  0
  -20.9407  -29.8774   21.6848 H   0  0  0  0  0  0
  -26.0171  -38.2813   24.1443 H   0  0  0  0  0  0
  -29.4064  -21.5063   18.0855 H   0  0  0  0  0  0
  -30.0839  -16.6577   18.2378 H   0  0  0  0  0  0
  -28.8274  -21.0573   15.5966 H   0  0  0  0  0  0
  -29.4506  -19.5681   14.8861 H   0  0  0  0  0  0
  -30.5704  -20.8047   15.4664 H   0  0  0  0  0  0
  -26.5666  -22.6382   21.3888 H   0  0  0  0  0  0
  -27.7881  -22.0800   22.5261 H   0  0  0  0  0  0
  -26.9205  -20.9332   21.5015 H   0  0  0  0  0  0
  -29.5088  -17.7801   21.6395 H   0  0  0  0  0  0
  -31.1221  -17.5193   21.0557 H   0  0  0  0  0  0
  -29.4844  -23.7910   21.4218 H   0  0  0  0  0  0
  -29.8453  -23.6666   19.7306 H   0  0  0  0  0  0
  -27.1281  -24.6890   20.7575 H   0  0  0  0  0  0
  -27.6635  -24.6503   19.1048 H   0  0  0  0  0  0
  -27.9022  -21.9672   19.5053 H   0  0  0  0  0  0
  -29.9156  -17.8000   16.2872 H   0  0  0  0  0  0
  -29.4688  -20.4735   21.4959 H   0  0  0  0  0  0
  -28.8406  -15.6338   20.8868 H   0  0  0  0  0  0
  1 25  1  0  0  0
  1 30  2  0  0  0
  1 84  1  0  0  0
  2  3  1  0  0  0
  2 25  1  0  0  0
  2 85  1  0  0  0
  2 86  1  0  0  0
  3  4  1  0  0  0
  3 87  1  0  0  0
  3 88  1  0  0  0
  4  5  1  0  0  0
  4 89  1  0  0  0
  4 90  1  0  0  0
  5  6  1  0  0  0
  5 26  1  0  0  0
  5 91  1  0  0  0
  6 25  1  0  0  0
  6 92  1  0  0  0
  6 93  1  0  0  0
  7  8  2  0  0  0
  7 26  1  0  0  0
  7 29  1  0  0  0
  8  9  1  0  0  0
  8 22  1  0  0  0
  9 10  1  0  0  0
  9 27  2  0  0  0
 10 11  2  0  0  0
 10 15  1  0  0  0
 11 12  1  0  0  0
 11 94  1  0  0  0
 12 13  2  0  0  0
 12 95  1  0  0  0
 13 14  1  0  0  0
 13 31  1  0  0  0
 14 15  2  0  0  0
 14 96  1  0  0  0
 15 97  1  0  0  0
 16 17  2  0  0  0
 16 21  1  0  0  0
 16 31  1  0  0  0
 17 18  1  0  0  0
 17 98  1  0  0  0
 18 19  2  0  0  0
 18 99  1  0  0  0
 19 20  1  0  0  0
 19 24  1  0  0  0
 20 21  2  0  0  0
 20100  1  0  0  0
 21 23  1  0  0  0
 22 28  1  0  0  0
 22 32  2  0  0  0
 26 27  1  0  0  0
 28101  1  0  0  0
 28102  1  0  0  0
 29103  1  0  0  0
 29104  1  0  0  0
 33 34  1  0  0  0
 33 66  1  0  0  0
 33 70  2  0  0  0
 34 36  1  0  0  0
 34 59  1  0  0  0
 34105  1  0  0  0
 35 44  2  0  0  0
 35 45  1  0  0  0
 35 68  1  0  0  0
 36 56  1  0  0  0
 36106  1  0  0  0
 37 39  1  0  0  0
 37 47  1  0  0  0
 37 66  1  0  0  0
 37107  1  0  0  0
 38 43  2  0  0  0
 38 46  1  0  0  0
 38 47  1  0  0  0
 39 64  1  0  0  0
 39 67  2  0  0  0
 40 52  1  0  0  0
 40 53  2  0  0  0
 40 58  1  0  0  0
 41108  1  0  0  0
 41109  1  0  0  0
 41110  1  0  0  0
 41 48  1  0  0  0
 42 43  1  0  0  0
 42 66  1  0  0  0
 42111  1  0  0  0
 42112  1  0  0  0
 43 44  1  0  0  0
 44113  1  0  0  0
 45 46  2  0  0  0
 45114  1  0  0  0
 46115  1  0  0  0
 47116  1  0  0  0
 47117  1  0  0  0
 48 56  1  0  0  0
 48 65  1  0  0  0
 48118  1  0  0  0
 49 50  1  0  0  0
 49 53  1  0  0  0
 49 64  1  0  0  0
 49119  1  0  0  0
 50 51  1  0  0  0
 50120  1  0  0  0
 50121  1  0  0  0
 51 52  1  0  0  0
 51122  1  0  0  0
 51123  1  0  0  0
 52124  1  0  0  0
 52125  1  0  0  0
 53 54  1  0  0  0
 54 55  2  0  0  0
 54126  1  0  0  0
 55 57  1  0  0  0
 55127  1  0  0  0
 56 69  2  0  0  0
 57 58  2  0  0  0
 57128  1  0  0  0
 58129  1  0  0  0
 59 60  1  0  0  0
 59 61  1  0  0  0
 59 62  1  0  0  0
 60130  1  0  0  0
 60131  1  0  0  0
 60132  1  0  0  0
 61133  1  0  0  0
 61134  1  0  0  0
 61135  1  0  0  0
 62136  1  0  0  0
 62137  1  0  0  0
 62138  1  0  0  0
 63 65  1  0  0  0
 63139  1  0  0  0
 63140  1  0  0  0
 63141  1  0  0  0
 64142  1  0  0  0
 65143  1  0  0  0
 68 80  1  0  0  0
 71 74  2  0  0  0
 71 75  1  0  0  0
 71144  1  0  0  0
 72 73  2  0  0  0
 72 82  1  0  0  0
 72145  1  0  0  0
 73 74  1  0  0  0
 73 78  1  0  0  0
 74 83  1  0  0  0
 75 76  1  0  0  0
 75 82  2  0  0  0
 76146  1  0  0  0
 76147  1  0  0  0
 76148  1  0  0  0
 77149  1  0  0  0
 77150  1  0  0  0
 77151  1  0  0  0
 77 81  1  0  0  0
 78 84  1  0  0  0
 78152  1  0  0  0
 78153  1  0  0  0
 79 80  1  0  0  0
 79 81  1  0  0  0
 79154  1  0  0  0
 79155  1  0  0  0
 80156  1  0  0  0
 80157  1  0  0  0
 81 83  1  0  0  0
 81158  1  0  0  0
 82159  1  0  0  0
 83160  1  0  0  0
 84161  1  0  0  0
M  CHG  1  82   1
M  ISO  4   1 100  68 101  80 101  84 100
M  END
> <chiral flag>
0

> <version>
0

> <s_m_source_file>
/data/baiqing/PycharmProjects/Reinvent-master-3.2/result/LINK_invent/BTK/process_docking_weight1_custom_sum_contain_oxygen_bond_distance_aromatic_linkinvent_7_9_3/rearranged_h_0112.sdf

> <i_m_source_file_index>
19

> <r_mmod_Potential_Energy-OPLS-2005>
162.43212890625

> <r_mmod_Stretch_Energy-OPLS-2005>
154.827697753906

> <r_mmod_Bend_Energy-OPLS-2005>
217.355361938477

> <r_mmod_Torsional_Energy-OPLS-2005>
202.260772705078

> <r_mmod_Improper_Torsional_Energy-OPLS-2005>
7.79713106155396

> <r_mmod_Van_der_Waal_Energy-OPLS-2005>
144.272033691406

> <r_mmod_Electrostatic_Energy-OPLS-2005>
-232.350204467773

> <r_mmod_Solvation_Energy-OPLS-2005>
-429.244750976562

> <b_mmod_Minimization_Converged-OPLS-2005>
0

> <r_mmod_RMS_Derivative-OPLS-2005>
2.05289077758789

$$$$
19
                    3D
 Structure written by MMmdl.
164172  0  0  1  0            999 V2000
  -30.7445  -14.4676   20.5997 C   0  0  0  0  0  0
  -30.4144  -12.3189   19.4219 C   0  0  0  0  0  0
  -29.4879  -12.5049   18.2046 C   0  0  0  0  0  0
  -28.0110  -12.3723   18.6169 C   0  0  0  0  0  0
  -27.6579  -13.2154   19.8711 C   0  0  2  0  0  0
  -28.7028  -13.0225   20.9941 C   0  0  0  0  0  0
  -25.2549  -13.8117   20.5674 C   0  0  0  0  0  0
  -24.1821  -13.0409   20.9183 C   0  0  0  0  0  0
  -24.6399  -11.6873   20.8738 C   0  0  0  0  0  0
  -23.9061  -10.4271   21.0395 C   0  0  0  0  0  0
  -24.3613   -9.4194   21.9179 C   0  0  0  0  0  0
  -23.6288   -8.2234   22.0739 C   0  0  0  0  0  0
  -22.4270   -8.0271   21.3535 C   0  0  0  0  0  0
  -21.9904   -9.0235   20.4638 C   0  0  0  0  0  0
  -22.7226  -10.2120   20.3048 C   0  0  0  0  0  0
  -21.6854   -6.0731   22.5271 C   0  0  0  0  0  0
  -21.4012   -6.5639   23.8206 C   0  0  0  0  0  0
  -21.3647   -5.6790   24.9167 C   0  0  0  0  0  0
  -21.6049   -4.3051   24.7219 C   0  0  0  0  0  0
  -21.8817   -3.8149   23.4340 C   0  0  0  0  0  0
  -21.9197   -4.6957   22.3406 C   0  0  0  0  0  0
  -22.7847  -13.5199   21.1858 C   0  0  0  0  0  0
  -22.1664   -4.2142   21.0980 F   0  0  0  0  0  0
  -21.5629   -3.4541   25.7741 F   0  0  0  0  0  0
  -30.0332  -13.3154   20.4384 N   0  0  0  0  0  0
  -26.3022  -12.9341   20.3374 N   0  0  0  0  0  0
  -25.9341  -11.6487   20.5782 N   0  0  0  0  0  0
  -22.0492  -12.8200   22.0402 N   0  0  0  0  0  0
  -25.4246  -15.1807   20.3992 N   0  0  0  0  0  0
  -31.8429  -14.6382   20.0670 O   0  0  0  0  0  0
  -21.6635   -6.8862   21.4235 O   0  0  0  0  0  0
  -22.3533  -14.5522   20.6701 O   0  0  0  0  0  0
  -24.6141  -31.8680   23.2060 C   0  0  0  0  0  0
  -25.9059  -32.4810   23.8395 C   0  0  1  0  0  0
  -27.2387  -27.4021   20.1572 C   0  0  0  0  0  0
  -25.5917  -33.8599   24.2329 N   0  0  0  0  0  0
  -23.4068  -30.4886   21.5389 C   0  0  2  0  0  0
  -24.8681  -28.9556   20.1097 C   0  0  0  0  0  0
  -22.7442  -29.4670   22.4898 C   0  0  0  0  0  0
  -18.0302  -28.1368   22.8475 C   0  0  0  0  0  0
  -24.1484  -36.7293   23.2621 C   0  0  0  0  0  0
  -25.9376  -30.8303   21.3663 C   0  0  0  0  0  0
  -26.0218  -29.4604   20.7200 C   0  0  0  0  0  0
  -27.2146  -28.6954   20.7351 C   0  0  0  0  0  0
  -26.0767  -26.9279   19.5143 C   0  0  0  0  0  0
  -24.8936  -27.6927   19.4959 C   0  0  0  0  0  0
  -23.6289  -29.8207   20.1548 C   0  0  0  0  0  0
  -25.4083  -36.3076   24.0341 C   0  0  1  0  0  0
  -20.5898  -28.3693   23.1254 C   0  0  2  0  0  0
  -20.6776  -26.9401   22.5403 C   0  0  0  0  0  0
  -19.5761  -26.6371   21.5196 C   0  0  0  0  0  0
  -18.1936  -26.7901   22.1601 C   0  0  0  0  0  0
  -19.1552  -28.8838   23.2875 C   0  0  0  0  0  0
  -18.9480  -30.1437   23.8901 C   0  0  0  0  0  0
  -17.6479  -30.6568   24.0570 C   0  0  0  0  0  0
  -25.9038  -34.9454   23.5128 C   0  0  0  0  0  0
  -16.5380  -29.9077   23.6326 C   0  0  0  0  0  0
  -16.7290  -28.6507   23.0330 C   0  0  0  0  0  0
  -26.4473  -31.6563   25.0714 C   0  0  0  0  0  0
  -25.3752  -31.3698   26.1496 C   0  0  0  0  0  0
  -27.0298  -30.2984   24.6111 C   0  0  0  0  0  0
  -27.6066  -32.4287   25.7466 C   0  0  0  0  0  0
  -27.5623  -37.1723   24.8419 C   0  0  0  0  0  0
  -21.4164  -29.3073   22.3662 N   0  0  0  0  0  0
  -26.4243  -37.3804   23.9500 N   0  0  0  0  0  0
  -24.6686  -31.0803   22.0946 N   0  0  0  0  0  0
  -23.4203  -28.8207   23.2941 O   0  0  0  0  0  0
  -28.3630  -26.5991   20.2268 O   0  0  0  0  0  0
  -26.5607  -34.8919   22.4697 O   0  0  0  0  0  0
  -23.5323  -32.1442   23.7426 O   0  0  0  0  0  0
  -28.8513  -18.2670   21.2332 C   0  0  0  0  0  0
  -31.0666  -19.1813   21.2029 C   0  0  0  0  0  0
  -30.2357  -18.0538   21.3577 C   0  0  0  0  0  0
  -28.3537  -19.5701   20.9545 C   0  0  0  0  0  0
  -29.2804  -20.6454   20.8579 C   0  0  0  0  0  0
  -26.2216  -20.1603   22.1574 C   0  0  0  0  0  0
  -26.0991  -18.5770   20.2054 C   0  0  0  0  0  0
  -30.8579  -16.6965   21.7398 C   0  0  0  0  0  0
  -29.4661  -23.0313   21.4904 C   0  0  0  0  0  0
  -28.1396  -25.2688   20.7754 C   0  0  0  0  0  0
  -26.8438  -19.7836   20.8065 C   0  0  0  0  0  0
  -29.4809  -24.4961   20.9286 C   0  0  1  0  0  0
  -30.6060  -20.4309   20.9662 N   0  0  0  0  0  0
  -28.8820  -21.9835   20.6326 N   0  0  0  0  0  0
  -30.1733  -15.4505   21.3298 N   0  0  0  0  0  0
  -30.2117  -25.2343   21.8918 O   0  0  0  0  0  0
  -31.4594  -12.4050   19.1155 H   0  0  0  0  0  0
  -30.3161  -11.3122   19.8330 H   0  0  0  0  0  0
  -29.7242  -11.7698   17.4354 H   0  0  0  0  0  0
  -29.6577  -13.4839   17.7558 H   0  0  0  0  0  0
  -27.8133  -11.3167   18.8102 H   0  0  0  0  0  0
  -27.3639  -12.6543   17.7859 H   0  0  0  0  0  0
  -27.6910  -14.2607   19.5628 H   0  0  0  0  0  0
  -28.6814  -11.9961   21.3615 H   0  0  0  0  0  0
  -28.4599  -13.6476   21.8543 H   0  0  0  0  0  0
  -25.2749   -9.5685   22.4759 H   0  0  0  0  0  0
  -23.9996   -7.4621   22.7457 H   0  0  0  0  0  0
  -21.0835   -8.8746   19.8947 H   0  0  0  0  0  0
  -22.3670  -10.9660   19.6170 H   0  0  0  0  0  0
  -21.1998   -7.6141   23.9705 H   0  0  0  0  0  0
  -21.1474   -6.0523   25.9063 H   0  0  0  0  0  0
  -22.0613   -2.7605   23.2848 H   0  0  0  0  0  0
  -22.4119  -11.9872   22.4807 H   0  0  0  0  0  0
  -21.1108  -13.1214   22.2598 H   0  0  0  0  0  0
  -24.6512  -15.8308   20.4793 H   0  0  0  0  0  0
  -26.2694  -15.6088   20.0459 H   0  0  0  0  0  0
  -26.7146  -32.5549   23.1173 H   0  0  0  0  0  0
  -25.0100  -33.9799   25.0494 H   0  0  0  0  0  0
  -22.6939  -31.3042   21.3893 H   0  0  0  0  0  0
  -23.3787  -35.9584   23.3153 H   0  0  0  0  0  0
  -24.3630  -36.9044   22.2072 H   0  0  0  0  0  0
  -23.7168  -37.6423   23.6720 H   0  0  0  0  0  0
  -26.0591  -31.5939   20.5945 H   0  0  0  0  0  0
  -26.8166  -30.8855   21.9962 H   0  0  0  0  0  0
  -28.0958  -29.0771   21.2315 H   0  0  0  0  0  0
  -26.0816  -25.9615   19.0314 H   0  0  0  0  0  0
  -24.0121  -27.2986   19.0084 H   0  0  0  0  0  0
  -23.7456  -30.5978   19.3992 H   0  0  0  0  0  0
  -22.7570  -29.2430   19.8481 H   0  0  0  0  0  0
  -25.1194  -36.1888   25.0815 H   0  0  0  0  0  0
  -21.0012  -28.3276   24.1362 H   0  0  0  0  0  0
  -20.5616  -26.2313   23.3613 H   0  0  0  0  0  0
  -21.6642  -26.7376   22.1221 H   0  0  0  0  0  0
  -19.6917  -25.6281   21.1229 H   0  0  0  0  0  0
  -19.6687  -27.3200   20.6729 H   0  0  0  0  0  0
  -17.4195  -26.6688   21.4012 H   0  0  0  0  0  0
  -18.0325  -26.0005   22.8950 H   0  0  0  0  0  0
  -19.7966  -30.7251   24.2260 H   0  0  0  0  0  0
  -17.5046  -31.6246   24.5177 H   0  0  0  0  0  0
  -15.5387  -30.2994   23.7622 H   0  0  0  0  0  0
  -15.8695  -28.0840   22.6994 H   0  0  0  0  0  0
  -24.5970  -30.6960   25.7890 H   0  0  0  0  0  0
  -24.8892  -32.2863   26.4871 H   0  0  0  0  0  0
  -25.8122  -30.8977   27.0316 H   0  0  0  0  0  0
  -26.2863  -29.6733   24.1157 H   0  0  0  0  0  0
  -27.4056  -29.7200   25.4572 H   0  0  0  0  0  0
  -27.8689  -30.4270   23.9267 H   0  0  0  0  0  0
  -27.2703  -33.3616   26.2015 H   0  0  0  0  0  0
  -28.3884  -32.6822   25.0282 H   0  0  0  0  0  0
  -28.0729  -31.8425   26.5405 H   0  0  0  0  0  0
  -28.2388  -38.0246   24.7782 H   0  0  0  0  0  0
  -28.1344  -36.2828   24.5772 H   0  0  0  0  0  0
  -27.2441  -37.0788   25.8812 H   0  0  0  0  0  0
  -20.9324  -29.8870   21.6950 H   0  0  0  0  0  0
  -26.0091  -38.2815   24.1720 H   0  0  0  0  0  0
  -28.1822  -17.4332   21.3833 H   0  0  0  0  0  0
  -32.1385  -19.0867   21.2890 H   0  0  0  0  0  0
  -26.6628  -21.0695   22.5655 H   0  0  0  0  0  0
  -26.3610  -19.3657   22.8919 H   0  0  0  0  0  0
  -25.1502  -20.3298   22.0557 H   0  0  0  0  0  0
  -26.5533  -18.2320   19.2764 H   0  0  0  0  0  0
  -25.0629  -18.8350   19.9867 H   0  0  0  0  0  0
  -26.0716  -17.7418   20.9034 H   0  0  0  0  0  0
  -30.9418  -16.6748   22.8262 H   0  0  0  0  0  0
  -31.8872  -16.7029   21.3817 H   0  0  0  0  0  0
  -28.9827  -22.9990   22.4680 H   0  0  0  0  0  0
  -30.5085  -22.7772   21.6853 H   0  0  0  0  0  0
  -27.6330  -25.3419   21.7414 H   0  0  0  0  0  0
  -27.4839  -24.6801   20.1321 H   0  0  0  0  0  0
  -26.6868  -20.6100   20.1110 H   0  0  0  0  0  0
  -30.0138  -24.5161   19.9781 H   0  0  0  0  0  0
  -27.8975  -22.1119   20.4431 H   0  0  0  0  0  0
  -29.2806  -15.2405   21.7522 H   0  0  0  0  0  0
  -29.9925  -26.1526   21.7558 H   0  0  0  0  0  0
  1 25  1  0  0  0
  1 30  2  0  0  0
  1 85  1  0  0  0
  2  3  1  0  0  0
  2 25  1  0  0  0
  2 87  1  0  0  0
  2 88  1  0  0  0
  3  4  1  0  0  0
  3 89  1  0  0  0
  3 90  1  0  0  0
  4  5  1  0  0  0
  4 91  1  0  0  0
  4 92  1  0  0  0
  5  6  1  0  0  0
  5 26  1  0  0  0
  5 93  1  0  0  0
  6 25  1  0  0  0
  6 94  1  0  0  0
  6 95  1  0  0  0
  7  8  2  0  0  0
  7 26  1  0  0  0
  7 29  1  0  0  0
  8  9  1  0  0  0
  8 22  1  0  0  0
  9 10  1  0  0  0
  9 27  2  0  0  0
 10 11  2  0  0  0
 10 15  1  0  0  0
 11 12  1  0  0  0
 11 96  1  0  0  0
 12 13  2  0  0  0
 12 97  1  0  0  0
 13 14  1  0  0  0
 13 31  1  0  0  0
 14 15  2  0  0  0
 14 98  1  0  0  0
 15 99  1  0  0  0
 16 17  2  0  0  0
 16 21  1  0  0  0
 16 31  1  0  0  0
 17 18  1  0  0  0
 17100  1  0  0  0
 18 19  2  0  0  0
 18101  1  0  0  0
 19 20  1  0  0  0
 19 24  1  0  0  0
 20 21  2  0  0  0
 20102  1  0  0  0
 21 23  1  0  0  0
 22 28  1  0  0  0
 22 32  2  0  0  0
 26 27  1  0  0  0
 28103  1  0  0  0
 28104  1  0  0  0
 29105  1  0  0  0
 29106  1  0  0  0
 33 34  1  0  0  0
 33 66  1  0  0  0
 33 70  2  0  0  0
 34 36  1  0  0  0
 34 59  1  0  0  0
 34107  1  0  0  0
 35 44  2  0  0  0
 35 45  1  0  0  0
 35 68  1  0  0  0
 36 56  1  0  0  0
 36108  1  0  0  0
 37 39  1  0  0  0
 37 47  1  0  0  0
 37 66  1  0  0  0
 37109  1  0  0  0
 38 43  2  0  0  0
 38 46  1  0  0  0
 38 47  1  0  0  0
 39 64  1  0  0  0
 39 67  2  0  0  0
 40 52  1  0  0  0
 40 53  2  0  0  0
 40 58  1  0  0  0
 41110  1  0  0  0
 41111  1  0  0  0
 41112  1  0  0  0
 41 48  1  0  0  0
 42 43  1  0  0  0
 42 66  1  0  0  0
 42113  1  0  0  0
 42114  1  0  0  0
 43 44  1  0  0  0
 44115  1  0  0  0
 45 46  2  0  0  0
 45116  1  0  0  0
 46117  1  0  0  0
 47118  1  0  0  0
 47119  1  0  0  0
 48 56  1  0  0  0
 48 65  1  0  0  0
 48120  1  0  0  0
 49 50  1  0  0  0
 49 53  1  0  0  0
 49 64  1  0  0  0
 49121  1  0  0  0
 50 51  1  0  0  0
 50122  1  0  0  0
 50123  1  0  0  0
 51 52  1  0  0  0
 51124  1  0  0  0
 51125  1  0  0  0
 52126  1  0  0  0
 52127  1  0  0  0
 53 54  1  0  0  0
 54 55  2  0  0  0
 54128  1  0  0  0
 55 57  1  0  0  0
 55129  1  0  0  0
 56 69  2  0  0  0
 57 58  2  0  0  0
 57130  1  0  0  0
 58131  1  0  0  0
 59 60  1  0  0  0
 59 61  1  0  0  0
 59 62  1  0  0  0
 60132  1  0  0  0
 60133  1  0  0  0
 60134  1  0  0  0
 61135  1  0  0  0
 61136  1  0  0  0
 61137  1  0  0  0
 62138  1  0  0  0
 62139  1  0  0  0
 62140  1  0  0  0
 63 65  1  0  0  0
 63141  1  0  0  0
 63142  1  0  0  0
 63143  1  0  0  0
 64144  1  0  0  0
 65145  1  0  0  0
 68 80  1  0  0  0
 71 73  2  0  0  0
 71 74  1  0  0  0
 71146  1  0  0  0
 72 73  1  0  0  0
 72 83  2  0  0  0
 72147  1  0  0  0
 73 78  1  0  0  0
 74 75  2  0  0  0
 74 81  1  0  0  0
 75 83  1  0  0  0
 75 84  1  0  0  0
 76148  1  0  0  0
 76149  1  0  0  0
 76150  1  0  0  0
 76 81  1  0  0  0
 77 81  1  0  0  0
 77151  1  0  0  0
 77152  1  0  0  0
 77153  1  0  0  0
 78 85  1  0  0  0
 78154  1  0  0  0
 78155  1  0  0  0
 79 82  1  0  0  0
 79 84  1  0  0  0
 79156  1  0  0  0
 79157  1  0  0  0
 80 82  1  0  0  0
 80158  1  0  0  0
 80159  1  0  0  0
 81160  1  0  0  0
 82 86  1  0  0  0
 82161  1  0  0  0
 84162  1  0  0  0
 85163  1  0  0  0
 86164  1  0  0  0
M  ISO  4   1 100  68 101  80 101  85 100
M  END
> <chiral flag>
0

> <version>
0

> <s_m_source_file>
/data/baiqing/PycharmProjects/Reinvent-master-3.2/result/LINK_invent/BTK/process_docking_weight1_custom_sum_contain_oxygen_bond_distance_aromatic_linkinvent_7_9_3/rearranged_h_0112.sdf

> <i_m_source_file_index>
20

> <r_mmod_Potential_Energy-OPLS-2005>
-257.789001464844

> <r_mmod_Stretch_Energy-OPLS-2005>
45.6734771728516

> <r_mmod_Bend_Energy-OPLS-2005>
111.474594116211

> <r_mmod_Torsional_Energy-OPLS-2005>
227.010101318359

> <r_mmod_Improper_Torsional_Energy-OPLS-2005>
6.1823263168335

> <r_mmod_Van_der_Waal_Energy-OPLS-2005>
156.995788574219

> <r_mmod_Electrostatic_Energy-OPLS-2005>
-573.199462890625

> <r_mmod_Solvation_Energy-OPLS-2005>
-251.510467529297

> <b_mmod_Minimization_Converged-OPLS-2005>
0

> <r_mmod_RMS_Derivative-OPLS-2005>
4.60269355773926

$$$$
20
                    3D
 Structure written by MMmdl.
156164  0  0  1  0            999 V2000
  -30.6904  -14.5096   20.5748 C   0  0  0  0  0  0
  -30.4237  -12.3358   19.4192 C   0  0  0  0  0  0
  -29.4934  -12.5094   18.2021 C   0  0  0  0  0  0
  -28.0152  -12.3640   18.6167 C   0  0  0  0  0  0
  -27.6566  -13.2110   19.8675 C   0  0  2  0  0  0
  -28.7004  -13.0108   20.9879 C   0  0  0  0  0  0
  -25.2581  -13.8170   20.5686 C   0  0  0  0  0  0
  -24.1838  -13.0442   20.9191 C   0  0  0  0  0  0
  -24.6394  -11.6910   20.8738 C   0  0  0  0  0  0
  -23.9061  -10.4292   21.0403 C   0  0  0  0  0  0
  -24.3616   -9.4208   21.9180 C   0  0  0  0  0  0
  -23.6290   -8.2246   22.0753 C   0  0  0  0  0  0
  -22.4275   -8.0284   21.3544 C   0  0  0  0  0  0
  -21.9907   -9.0256   20.4649 C   0  0  0  0  0  0
  -22.7235  -10.2134   20.3052 C   0  0  0  0  0  0
  -21.6855   -6.0738   22.5283 C   0  0  0  0  0  0
  -21.4013   -6.5640   23.8218 C   0  0  0  0  0  0
  -21.3662   -5.6792   24.9180 C   0  0  0  0  0  0
  -21.6042   -4.3054   24.7226 C   0  0  0  0  0  0
  -21.8822   -3.8148   23.4347 C   0  0  0  0  0  0
  -21.9191   -4.6965   22.3404 C   0  0  0  0  0  0
  -22.7861  -13.5237   21.1846 C   0  0  0  0  0  0
  -22.1663   -4.2151   21.0981 F   0  0  0  0  0  0
  -21.5625   -3.4537   25.7739 F   0  0  0  0  0  0
  -30.0224  -13.3305   20.4269 N   0  0  0  0  0  0
  -26.3008  -12.9340   20.3341 N   0  0  0  0  0  0
  -25.9319  -11.6497   20.5757 N   0  0  0  0  0  0
  -22.0497  -12.8239   22.0406 N   0  0  0  0  0  0
  -25.4291  -15.1887   20.4097 N   0  0  0  0  0  0
  -31.8299  -14.6841   20.1347 O   0  0  0  0  0  0
  -21.6641   -6.8882   21.4245 O   0  0  0  0  0  0
  -22.3553  -14.5546   20.6694 O   0  0  0  0  0  0
  -24.6187  -31.8657   23.2066 C   0  0  0  0  0  0
  -25.9069  -32.4812   23.8371 C   0  0  1  0  0  0
  -27.2330  -27.3989   20.0936 C   0  0  0  0  0  0
  -25.5914  -33.8612   24.2306 N   0  0  0  0  0  0
  -23.4068  -30.4896   21.5486 C   0  0  2  0  0  0
  -24.8496  -28.9491   20.1163 C   0  0  0  0  0  0
  -22.7425  -29.4654   22.4973 C   0  0  0  0  0  0
  -18.0274  -28.1387   22.8489 C   0  0  0  0  0  0
  -24.1490  -36.7304   23.2640 C   0  0  0  0  0  0
  -25.9394  -30.8207   21.3629 C   0  0  0  0  0  0
  -26.0131  -29.4524   20.7092 C   0  0  0  0  0  0
  -27.2052  -28.6876   20.6885 C   0  0  0  0  0  0
  -26.0394  -26.9119   19.5103 C   0  0  0  0  0  0
  -24.8595  -27.6797   19.5161 C   0  0  0  0  0  0
  -23.6148  -29.8217   20.1640 C   0  0  0  0  0  0
  -25.4114  -36.3102   24.0333 C   0  0  1  0  0  0
  -20.5868  -28.3678   23.1307 C   0  0  2  0  0  0
  -20.6767  -26.9410   22.5415 C   0  0  0  0  0  0
  -19.5745  -26.6390   21.5213 C   0  0  0  0  0  0
  -18.1923  -26.7934   22.1623 C   0  0  0  0  0  0
  -19.1525  -28.8848   23.2897 C   0  0  0  0  0  0
  -18.9450  -30.1453   23.8909 C   0  0  0  0  0  0
  -17.6452  -30.6592   24.0568 C   0  0  0  0  0  0
  -25.9042  -34.9471   23.5115 C   0  0  0  0  0  0
  -16.5343  -29.9093   23.6331 C   0  0  0  0  0  0
  -16.7263  -28.6513   23.0347 C   0  0  0  0  0  0
  -26.4482  -31.6609   25.0719 C   0  0  0  0  0  0
  -25.3733  -31.3725   26.1456 C   0  0  0  0  0  0
  -27.0324  -30.3049   24.6127 C   0  0  0  0  0  0
  -27.6055  -32.4335   25.7481 C   0  0  0  0  0  0
  -27.5579  -37.1808   24.8465 C   0  0  0  0  0  0
  -21.4151  -29.3040   22.3707 N   0  0  0  0  0  0
  -26.4297  -37.3788   23.9405 N   0  0  0  0  0  0
  -24.6736  -31.0733   22.0974 N   0  0  0  0  0  0
  -23.4184  -28.8196   23.3028 O   0  0  0  0  0  0
  -28.4205  -26.6789   20.0985 O   0  0  0  0  0  0
  -26.5601  -34.8926   22.4677 O   0  0  0  0  0  0
  -23.5373  -32.1420   23.7447 O   0  0  0  0  0  0
  -31.0234  -18.8977   20.3174 C   0  0  0  0  0  0
  -28.9039  -18.7770   21.4426 C   0  0  0  0  0  0
  -30.1173  -18.1423   21.0889 C   0  0  0  0  0  0
  -30.7186  -20.2395   19.9961 C   0  0  0  0  0  0
  -29.5053  -20.8038   20.4395 C   0  0  0  0  0  0
  -31.7176  -21.0818   19.2227 C   0  0  0  0  0  0
  -30.5518  -16.7792   21.6814 C   0  0  0  0  0  0
  -28.1169  -24.3043   20.8598 C   0  0  0  0  0  0
  -28.4651  -25.2830   19.7044 C   0  0  0  0  0  0
  -28.0143  -22.7797   20.5285 C   0  0  0  0  0  0
  -28.6006  -20.0651   21.1252 N   0  0  0  0  0  0
  -29.9934  -15.5189   21.1449 N   0  0  0  0  0  0
  -29.2773  -22.1631   20.2165 O   0  0  0  0  0  0
  -31.4668  -12.4435   19.1165 H   0  0  0  0  0  0
  -30.3364  -11.3277   19.8288 H   0  0  0  0  0  0
  -29.7380  -11.7764   17.4322 H   0  0  0  0  0  0
  -29.6554  -13.4905   17.7526 H   0  0  0  0  0  0
  -27.8319  -11.3085   18.8203 H   0  0  0  0  0  0
  -27.3630  -12.6285   17.7830 H   0  0  0  0  0  0
  -27.6929  -14.2566   19.5603 H   0  0  0  0  0  0
  -28.6921  -11.9772   21.3373 H   0  0  0  0  0  0
  -28.4571  -13.6153   21.8625 H   0  0  0  0  0  0
  -25.2760   -9.5691   22.4758 H   0  0  0  0  0  0
  -24.0003   -7.4639   22.7472 H   0  0  0  0  0  0
  -21.0837   -8.8772   19.8957 H   0  0  0  0  0  0
  -22.3686  -10.9673   19.6166 H   0  0  0  0  0  0
  -21.2007   -7.6148   23.9725 H   0  0  0  0  0  0
  -21.1481   -6.0519   25.9083 H   0  0  0  0  0  0
  -22.0596   -2.7609   23.2848 H   0  0  0  0  0  0
  -22.4097  -11.9893   22.4795 H   0  0  0  0  0  0
  -21.1118  -13.1279   22.2606 H   0  0  0  0  0  0
  -24.6583  -15.8406   20.5099 H   0  0  0  0  0  0
  -26.2760  -15.6273   20.0698 H   0  0  0  0  0  0
  -26.7141  -32.5498   23.1130 H   0  0  0  0  0  0
  -25.0086  -33.9772   25.0465 H   0  0  0  0  0  0
  -22.6977  -31.3080   21.4094 H   0  0  0  0  0  0
  -23.3752  -35.9636   23.3314 H   0  0  0  0  0  0
  -24.3577  -36.8906   22.2050 H   0  0  0  0  0  0
  -23.7242  -37.6512   23.6649 H   0  0  0  0  0  0
  -26.0577  -31.5863   20.5950 H   0  0  0  0  0  0
  -26.8256  -30.8713   21.9839 H   0  0  0  0  0  0
  -28.1071  -29.0809   21.1368 H   0  0  0  0  0  0
  -25.9864  -25.9393   19.0466 H   0  0  0  0  0  0
  -23.9611  -27.2828   19.0641 H   0  0  0  0  0  0
  -23.7263  -30.5967   19.4047 H   0  0  0  0  0  0
  -22.7373  -29.2443   19.8675 H   0  0  0  0  0  0
  -25.1295  -36.1962   25.0824 H   0  0  0  0  0  0
  -20.9959  -28.3246   24.1426 H   0  0  0  0  0  0
  -20.5679  -26.2281   23.3602 H   0  0  0  0  0  0
  -21.6637  -26.7455   22.1198 H   0  0  0  0  0  0
  -19.6905  -25.6303   21.1235 H   0  0  0  0  0  0
  -19.6691  -27.3210   20.6749 H   0  0  0  0  0  0
  -17.4193  -26.6681   21.4023 H   0  0  0  0  0  0
  -18.0322  -26.0079   22.9021 H   0  0  0  0  0  0
  -19.7925  -30.7265   24.2286 H   0  0  0  0  0  0
  -17.5007  -31.6272   24.5169 H   0  0  0  0  0  0
  -15.5345  -30.2999   23.7654 H   0  0  0  0  0  0
  -15.8658  -28.0838   22.7055 H   0  0  0  0  0  0
  -24.5895  -30.7095   25.7773 H   0  0  0  0  0  0
  -24.8940  -32.2890   26.4911 H   0  0  0  0  0  0
  -25.8062  -30.8870   27.0211 H   0  0  0  0  0  0
  -26.2883  -29.6800   24.1173 H   0  0  0  0  0  0
  -27.4077  -29.7298   25.4603 H   0  0  0  0  0  0
  -27.8723  -30.4362   23.9300 H   0  0  0  0  0  0
  -27.2675  -33.3624   26.2087 H   0  0  0  0  0  0
  -28.3846  -32.6917   25.0296 H   0  0  0  0  0  0
  -28.0752  -31.8448   26.5371 H   0  0  0  0  0  0
  -28.2610  -38.0094   24.7505 H   0  0  0  0  0  0
  -28.1064  -36.2626   24.6307 H   0  0  0  0  0  0
  -27.2293  -37.1475   25.8868 H   0  0  0  0  0  0
  -20.9312  -29.8757   21.6921 H   0  0  0  0  0  0
  -26.0184  -38.2866   24.1404 H   0  0  0  0  0  0
  -31.9750  -18.4732   20.0289 H   0  0  0  0  0  0
  -28.1806  -18.2609   22.0571 H   0  0  0  0  0  0
  -32.4961  -20.4657   18.7726 H   0  0  0  0  0  0
  -32.1942  -21.8067   19.8837 H   0  0  0  0  0  0
  -31.2217  -21.6284   18.4204 H   0  0  0  0  0  0
  -30.2910  -16.7994   22.7403 H   0  0  0  0  0  0
  -31.6428  -16.7353   21.6736 H   0  0  0  0  0  0
  -27.1544  -24.6138   21.2674 H   0  0  0  0  0  0
  -28.8342  -24.4388   21.6699 H   0  0  0  0  0  0
  -29.4918  -25.0822   19.3962 H   0  0  0  0  0  0
  -27.8732  -25.0835   18.8125 H   0  0  0  0  0  0
  -27.3294  -22.6229   19.6942 H   0  0  0  0  0  0
  -27.5551  -22.3033   21.3948 H   0  0  0  0  0  0
  -29.0495  -15.2909   21.4170 H   0  0  0  0  0  0
  1 25  1  0  0  0
  1 30  2  0  0  0
  1 82  1  0  0  0
  2  3  1  0  0  0
  2 25  1  0  0  0
  2 84  1  0  0  0
  2 85  1  0  0  0
  3  4  1  0  0  0
  3 86  1  0  0  0
  3 87  1  0  0  0
  4  5  1  0  0  0
  4 88  1  0  0  0
  4 89  1  0  0  0
  5  6  1  0  0  0
  5 26  1  0  0  0
  5 90  1  0  0  0
  6 25  1  0  0  0
  6 91  1  0  0  0
  6 92  1  0  0  0
  7  8  2  0  0  0
  7 26  1  0  0  0
  7 29  1  0  0  0
  8  9  1  0  0  0
  8 22  1  0  0  0
  9 10  1  0  0  0
  9 27  2  0  0  0
 10 11  2  0  0  0
 10 15  1  0  0  0
 11 12  1  0  0  0
 11 93  1  0  0  0
 12 13  2  0  0  0
 12 94  1  0  0  0
 13 14  1  0  0  0
 13 31  1  0  0  0
 14 15  2  0  0  0
 14 95  1  0  0  0
 15 96  1  0  0  0
 16 17  2  0  0  0
 16 21  1  0  0  0
 16 31  1  0  0  0
 17 18  1  0  0  0
 17 97  1  0  0  0
 18 19  2  0  0  0
 18 98  1  0  0  0
 19 20  1  0  0  0
 19 24  1  0  0  0
 20 21  2  0  0  0
 20 99  1  0  0  0
 21 23  1  0  0  0
 22 28  1  0  0  0
 22 32  2  0  0  0
 26 27  1  0  0  0
 28100  1  0  0  0
 28101  1  0  0  0
 29102  1  0  0  0
 29103  1  0  0  0
 33 34  1  0  0  0
 33 66  1  0  0  0
 33 70  2  0  0  0
 34 36  1  0  0  0
 34 59  1  0  0  0
 34104  1  0  0  0
 35 44  2  0  0  0
 35 45  1  0  0  0
 35 68  1  0  0  0
 36 56  1  0  0  0
 36105  1  0  0  0
 37 39  1  0  0  0
 37 47  1  0  0  0
 37 66  1  0  0  0
 37106  1  0  0  0
 38 43  2  0  0  0
 38 46  1  0  0  0
 38 47  1  0  0  0
 39 64  1  0  0  0
 39 67  2  0  0  0
 40 52  1  0  0  0
 40 53  2  0  0  0
 40 58  1  0  0  0
 41107  1  0  0  0
 41108  1  0  0  0
 41109  1  0  0  0
 41 48  1  0  0  0
 42 43  1  0  0  0
 42 66  1  0  0  0
 42110  1  0  0  0
 42111  1  0  0  0
 43 44  1  0  0  0
 44112  1  0  0  0
 45 46  2  0  0  0
 45113  1  0  0  0
 46114  1  0  0  0
 47115  1  0  0  0
 47116  1  0  0  0
 48 56  1  0  0  0
 48 65  1  0  0  0
 48117  1  0  0  0
 49 50  1  0  0  0
 49 53  1  0  0  0
 49 64  1  0  0  0
 49118  1  0  0  0
 50 51  1  0  0  0
 50119  1  0  0  0
 50120  1  0  0  0
 51 52  1  0  0  0
 51121  1  0  0  0
 51122  1  0  0  0
 52123  1  0  0  0
 52124  1  0  0  0
 53 54  1  0  0  0
 54 55  2  0  0  0
 54125  1  0  0  0
 55 57  1  0  0  0
 55126  1  0  0  0
 56 69  2  0  0  0
 57 58  2  0  0  0
 57127  1  0  0  0
 58128  1  0  0  0
 59 60  1  0  0  0
 59 61  1  0  0  0
 59 62  1  0  0  0
 60129  1  0  0  0
 60130  1  0  0  0
 60131  1  0  0  0
 61132  1  0  0  0
 61133  1  0  0  0
 61134  1  0  0  0
 62135  1  0  0  0
 62136  1  0  0  0
 62137  1  0  0  0
 63 65  1  0  0  0
 63138  1  0  0  0
 63139  1  0  0  0
 63140  1  0  0  0
 64141  1  0  0  0
 65142  1  0  0  0
 68 79  1  0  0  0
 71 73  2  0  0  0
 71 74  1  0  0  0
 71143  1  0  0  0
 72 73  1  0  0  0
 72 81  2  0  0  0
 72144  1  0  0  0
 73 77  1  0  0  0
 74 75  2  0  0  0
 74 76  1  0  0  0
 75 81  1  0  0  0
 75 83  1  0  0  0
 76145  1  0  0  0
 76146  1  0  0  0
 76147  1  0  0  0
 77 82  1  0  0  0
 77148  1  0  0  0
 77149  1  0  0  0
 78 79  1  0  0  0
 78 80  1  0  0  0
 78150  1  0  0  0
 78151  1  0  0  0
 79152  1  0  0  0
 79153  1  0  0  0
 80 83  1  0  0  0
 80154  1  0  0  0
 80155  1  0  0  0
 82156  1  0  0  0
M  ISO  4   1 100  68 101  79 101  82 100
M  END
> <chiral flag>
0

> <version>
0

> <s_m_source_file>
/data/baiqing/PycharmProjects/Reinvent-master-3.2/result/LINK_invent/BTK/process_docking_weight1_custom_sum_contain_oxygen_bond_distance_aromatic_linkinvent_7_9_3/rearranged_h_0112.sdf

> <i_m_source_file_index>
21

> <r_mmod_Potential_Energy-OPLS-2005>
-215.939590454102

> <r_mmod_Stretch_Energy-OPLS-2005>
45.35400390625

> <r_mmod_Bend_Energy-OPLS-2005>
125.815368652344

> <r_mmod_Torsional_Energy-OPLS-2005>
187.033676147461

> <r_mmod_Improper_Torsional_Energy-OPLS-2005>
4.14564561843872

> <r_mmod_Van_der_Waal_Energy-OPLS-2005>
155.171768188477

> <r_mmod_Electrostatic_Energy-OPLS-2005>
-533.31201171875

> <r_mmod_Solvation_Energy-OPLS-2005>
-217.804962158203

> <b_mmod_Minimization_Converged-OPLS-2005>
0

> <r_mmod_RMS_Derivative-OPLS-2005>
1.11561441421509

$$$$
21
                    3D
 Structure written by MMmdl.
159166  0  0  1  0            999 V2000
  -30.5177  -14.9702   20.4006 C   0  0  0  0  0  0
  -30.4447  -12.5919   19.5237 C   0  0  0  0  0  0
  -29.5366  -12.5421   18.2713 C   0  0  0  0  0  0
  -28.0636  -12.3337   18.6727 C   0  0  0  0  0  0
  -27.6348  -13.2547   19.8455 C   0  0  2  0  0  0
  -28.6717  -13.2725   20.9906 C   0  0  0  0  0  0
  -25.2461  -13.8232   20.5701 C   0  0  0  0  0  0
  -24.1778  -13.0446   20.9217 C   0  0  0  0  0  0
  -24.6403  -11.6930   20.8729 C   0  0  0  0  0  0
  -23.9083  -10.4298   21.0389 C   0  0  0  0  0  0
  -24.3624   -9.4213   21.9173 C   0  0  0  0  0  0
  -23.6309   -8.2243   22.0752 C   0  0  0  0  0  0
  -22.4288   -8.0275   21.3538 C   0  0  0  0  0  0
  -21.9917   -9.0255   20.4644 C   0  0  0  0  0  0
  -22.7245  -10.2135   20.3046 C   0  0  0  0  0  0
  -21.6859   -6.0732   22.5282 C   0  0  0  0  0  0
  -21.4018   -6.5633   23.8214 C   0  0  0  0  0  0
  -21.3662   -5.6787   24.9178 C   0  0  0  0  0  0
  -21.6049   -4.3048   24.7226 C   0  0  0  0  0  0
  -21.8812   -3.8138   23.4347 C   0  0  0  0  0  0
  -21.9188   -4.6954   22.3402 C   0  0  0  0  0  0
  -22.7790  -13.5210   21.1862 C   0  0  0  0  0  0
  -22.1652   -4.2137   21.0980 F   0  0  0  0  0  0
  -21.5637   -3.4538   25.7738 F   0  0  0  0  0  0
  -29.9538  -13.6913   20.4082 N   0  0  0  0  0  0
  -26.2898  -12.9478   20.3236 N   0  0  0  0  0  0
  -25.9345  -11.6598   20.5719 N   0  0  0  0  0  0
  -22.0424  -12.8223   22.0428 N   0  0  0  0  0  0
  -25.4128  -15.1962   20.4145 N   0  0  0  0  0  0
  -31.6977  -15.0513   20.0405 O   0  0  0  0  0  0
  -21.6651   -6.8874   21.4247 O   0  0  0  0  0  0
  -22.3467  -14.5500   20.6682 O   0  0  0  0  0  0
  -24.6457  -31.8416   23.1861 C   0  0  0  0  0  0
  -25.9224  -32.4675   23.8259 C   0  0  1  0  0  0
  -27.2224  -27.1076   20.1372 C   0  0  0  0  0  0
  -25.5965  -33.8487   24.2167 N   0  0  0  0  0  0
  -23.4506  -30.4603   21.5318 C   0  0  2  0  0  0
  -24.9013  -28.8841   20.1042 C   0  0  0  0  0  0
  -22.7577  -29.4536   22.4845 C   0  0  0  0  0  0
  -18.0303  -28.1397   22.8471 C   0  0  0  0  0  0
  -24.1495  -36.7242   23.2639 C   0  0  0  0  0  0
  -26.0092  -30.7016   21.3927 C   0  0  0  0  0  0
  -26.0779  -29.3123   20.7299 C   0  0  0  0  0  0
  -27.2315  -28.4374   20.7354 C   0  0  0  0  0  0
  -26.0173  -26.7930   19.4670 C   0  0  0  0  0  0
  -24.8867  -27.6389   19.4590 C   0  0  0  0  0  0
  -23.6783  -29.7887   20.1511 C   0  0  0  0  0  0
  -25.4124  -36.3012   24.0307 C   0  0  1  0  0  0
  -20.5919  -28.3731   23.1223 C   0  0  2  0  0  0
  -20.6789  -26.9434   22.5400 C   0  0  0  0  0  0
  -19.5764  -26.6379   21.5207 C   0  0  0  0  0  0
  -18.1946  -26.7934   22.1619 C   0  0  0  0  0  0
  -19.1562  -28.8881   23.2837 C   0  0  0  0  0  0
  -18.9476  -30.1474   23.8866 C   0  0  0  0  0  0
  -17.6476  -30.6594   24.0551 C   0  0  0  0  0  0
  -25.9086  -34.9395   23.5044 C   0  0  0  0  0  0
  -16.5365  -29.9084   23.6338 C   0  0  0  0  0  0
  -16.7291  -28.6502   23.0357 C   0  0  0  0  0  0
  -26.4529  -31.6562   25.0726 C   0  0  0  0  0  0
  -25.3696  -31.3772   26.1411 C   0  0  0  0  0  0
  -27.0399  -30.2946   24.6358 C   0  0  0  0  0  0
  -27.6057  -32.4332   25.7509 C   0  0  0  0  0  0
  -27.5585  -37.1760   24.8449 C   0  0  0  0  0  0
  -21.4269  -29.3043   22.3586 N   0  0  0  0  0  0
  -26.4273  -37.3743   23.9425 N   0  0  0  0  0  0
  -24.7215  -31.0236   22.0909 N   0  0  0  0  0  0
  -23.4206  -28.8091   23.3015 O   0  0  0  0  0  0
  -28.2739  -26.1146   20.2666 O   0  0  0  0  0  0
  -26.5680  -34.8900   22.4629 O   0  0  0  0  0  0
  -23.5573  -32.1312   23.7061 O   0  0  0  0  0  0
  -28.4125  -23.2389   20.4477 C   0  0  0  0  0  0
  -29.1554  -25.8329   17.4506 C   0  0  0  0  0  0
  -30.8726  -24.9825   19.1092 C   0  0  0  0  0  0
  -30.2105  -17.5526   18.5335 C   0  0  0  0  0  0
  -29.6802  -19.1430   20.5640 C   0  0  0  0  0  0
  -28.6677  -20.4689   20.1986 C   0  0  0  0  0  0
  -28.3547  -24.6906   19.6014 C   0  0  2  0  0  0
  -29.4659  -24.7694   18.5205 C   0  0  0  0  0  0
  -29.5316  -17.5729   19.9131 C   0  0  2  0  0  0
  -29.0091  -22.0158   19.9985 N   0  0  0  0  0  0
  -29.7146  -16.1373   20.6018 N   0  0  0  0  0  0
  -27.7868  -23.2048   21.5088 O   0  0  0  0  0  0
  -31.4830  -12.7379   19.2264 H   0  0  0  0  0  0
  -30.4246  -11.6385   20.0539 H   0  0  0  0  0  0
  -29.8647  -11.7464   17.6012 H   0  0  0  0  0  0
  -29.6357  -13.4742   17.7124 H   0  0  0  0  0  0
  -27.9475  -11.2903   18.9651 H   0  0  0  0  0  0
  -27.4107  -12.4819   17.8125 H   0  0  0  0  0  0
  -27.6019  -14.2620   19.4274 H   0  0  0  0  0  0
  -28.7546  -12.2911   21.4607 H   0  0  0  0  0  0
  -28.3667  -13.9636   21.7766 H   0  0  0  0  0  0
  -25.2772   -9.5709   22.4747 H   0  0  0  0  0  0
  -24.0016   -7.4644   22.7483 H   0  0  0  0  0  0
  -21.0838   -8.8785   19.8961 H   0  0  0  0  0  0
  -22.3701  -10.9678   19.6151 H   0  0  0  0  0  0
  -21.2016   -7.6143   23.9716 H   0  0  0  0  0  0
  -21.1496   -6.0518   25.9085 H   0  0  0  0  0  0
  -22.0587   -2.7599   23.2851 H   0  0  0  0  0  0
  -22.4044  -11.9928   22.4881 H   0  0  0  0  0  0
  -21.1032  -13.1255   22.2580 H   0  0  0  0  0  0
  -24.6441  -15.8497   20.5284 H   0  0  0  0  0  0
  -26.2568  -15.6363   20.0718 H   0  0  0  0  0  0
  -26.7293  -32.5259   23.0986 H   0  0  0  0  0  0
  -25.0075  -33.9603   25.0288 H   0  0  0  0  0  0
  -22.7534  -31.2862   21.3762 H   0  0  0  0  0  0
  -23.3776  -35.9551   23.3232 H   0  0  0  0  0  0
  -24.3595  -36.8949   22.2069 H   0  0  0  0  0  0
  -23.7222  -37.6402   23.6728 H   0  0  0  0  0  0
  -26.1744  -31.4561   20.6223 H   0  0  0  0  0  0
  -26.8751  -30.7468   22.0417 H   0  0  0  0  0  0
  -28.1217  -28.7564   21.2596 H   0  0  0  0  0  0
  -25.8844  -25.8450   18.9740 H   0  0  0  0  0  0
  -23.9874  -27.3054   18.9591 H   0  0  0  0  0  0
  -23.8153  -30.5623   19.3951 H   0  0  0  0  0  0
  -22.7915  -29.2330   19.8412 H   0  0  0  0  0  0
  -25.1307  -36.1816   25.0796 H   0  0  0  0  0  0
  -21.0007  -28.3330   24.1347 H   0  0  0  0  0  0
  -20.5682  -26.2354   23.3625 H   0  0  0  0  0  0
  -21.6655  -26.7441   22.1202 H   0  0  0  0  0  0
  -19.6931  -25.6279   21.1265 H   0  0  0  0  0  0
  -19.6695  -27.3161   20.6715 H   0  0  0  0  0  0
  -17.4213  -26.6665   21.4022 H   0  0  0  0  0  0
  -18.0352  -26.0087   22.9030 H   0  0  0  0  0  0
  -19.7953  -30.7291   24.2228 H   0  0  0  0  0  0
  -17.5032  -31.6276   24.5152 H   0  0  0  0  0  0
  -15.5365  -30.2972   23.7690 H   0  0  0  0  0  0
  -15.8690  -28.0811   22.7094 H   0  0  0  0  0  0
  -24.5864  -30.7143   25.7712 H   0  0  0  0  0  0
  -24.8907  -32.2968   26.4789 H   0  0  0  0  0  0
  -25.7959  -30.8954   27.0224 H   0  0  0  0  0  0
  -26.3034  -29.6651   24.1359 H   0  0  0  0  0  0
  -27.3964  -29.7271   25.4966 H   0  0  0  0  0  0
  -27.8962  -30.4141   23.9717 H   0  0  0  0  0  0
  -27.2654  -33.3650   26.2035 H   0  0  0  0  0  0
  -28.3900  -32.6868   25.0364 H   0  0  0  0  0  0
  -28.0701  -31.8501   26.5472 H   0  0  0  0  0  0
  -28.2528  -38.0131   24.7593 H   0  0  0  0  0  0
  -28.1153  -36.2667   24.6137 H   0  0  0  0  0  0
  -27.2325  -37.1234   25.8852 H   0  0  0  0  0  0
  -20.9495  -29.8742   21.6736 H   0  0  0  0  0  0
  -26.0120  -38.2789   24.1487 H   0  0  0  0  0  0
  -29.8910  -25.8118   16.6466 H   0  0  0  0  0  0
  -29.1572  -26.8390   17.8715 H   0  0  0  0  0  0
  -28.1761  -25.6660   16.9994 H   0  0  0  0  0  0
  -31.6311  -24.9612   18.3252 H   0  0  0  0  0  0
  -31.1341  -24.2069   19.8296 H   0  0  0  0  0  0
  -30.9508  -25.9449   19.6159 H   0  0  0  0  0  0
  -29.9496  -18.4371   17.9512 H   0  0  0  0  0  0
  -29.9061  -16.6814   17.9509 H   0  0  0  0  0  0
  -31.2973  -17.5283   18.6266 H   0  0  0  0  0  0
  -29.6612  -19.0412   21.6492 H   0  0  0  0  0  0
  -30.7021  -19.4644   20.3571 H   0  0  0  0  0  0
  -27.8497  -20.4364   20.9194 H   0  0  0  0  0  0
  -28.1852  -20.2008   19.2577 H   0  0  0  0  0  0
  -27.4389  -24.5431   19.0392 H   0  0  0  0  0  0
  -29.4830  -23.8126   17.9964 H   0  0  0  0  0  0
  -28.4638  -17.5359   19.6937 H   0  0  0  0  0  0
  -29.5905  -22.1675   19.1839 H   0  0  0  0  0  0
  -28.8615  -15.8682   21.0733 H   0  0  0  0  0  0
  1 25  1  0  0  0
  1 30  2  0  0  0
  1 81  1  0  0  0
  2  3  1  0  0  0
  2 25  1  0  0  0
  2 83  1  0  0  0
  2 84  1  0  0  0
  3  4  1  0  0  0
  3 85  1  0  0  0
  3 86  1  0  0  0
  4  5  1  0  0  0
  4 87  1  0  0  0
  4 88  1  0  0  0
  5  6  1  0  0  0
  5 26  1  0  0  0
  5 89  1  0  0  0
  6 25  1  0  0  0
  6 90  1  0  0  0
  6 91  1  0  0  0
  7  8  2  0  0  0
  7 26  1  0  0  0
  7 29  1  0  0  0
  8  9  1  0  0  0
  8 22  1  0  0  0
  9 10  1  0  0  0
  9 27  2  0  0  0
 10 11  2  0  0  0
 10 15  1  0  0  0
 11 12  1  0  0  0
 11 92  1  0  0  0
 12 13  2  0  0  0
 12 93  1  0  0  0
 13 14  1  0  0  0
 13 31  1  0  0  0
 14 15  2  0  0  0
 14 94  1  0  0  0
 15 95  1  0  0  0
 16 17  2  0  0  0
 16 21  1  0  0  0
 16 31  1  0  0  0
 17 18  1  0  0  0
 17 96  1  0  0  0
 18 19  2  0  0  0
 18 97  1  0  0  0
 19 20  1  0  0  0
 19 24  1  0  0  0
 20 21  2  0  0  0
 20 98  1  0  0  0
 21 23  1  0  0  0
 22 28  1  0  0  0
 22 32  2  0  0  0
 26 27  1  0  0  0
 28 99  1  0  0  0
 28100  1  0  0  0
 29101  1  0  0  0
 29102  1  0  0  0
 33 34  1  0  0  0
 33 66  1  0  0  0
 33 70  2  0  0  0
 34 36  1  0  0  0
 34 59  1  0  0  0
 34103  1  0  0  0
 35 44  2  0  0  0
 35 45  1  0  0  0
 35 68  1  0  0  0
 36 56  1  0  0  0
 36104  1  0  0  0
 37 39  1  0  0  0
 37 47  1  0  0  0
 37 66  1  0  0  0
 37105  1  0  0  0
 38 43  2  0  0  0
 38 46  1  0  0  0
 38 47  1  0  0  0
 39 64  1  0  0  0
 39 67  2  0  0  0
 40 52  1  0  0  0
 40 53  2  0  0  0
 40 58  1  0  0  0
 41106  1  0  0  0
 41107  1  0  0  0
 41108  1  0  0  0
 41 48  1  0  0  0
 42 43  1  0  0  0
 42 66  1  0  0  0
 42109  1  0  0  0
 42110  1  0  0  0
 43 44  1  0  0  0
 44111  1  0  0  0
 45 46  2  0  0  0
 45112  1  0  0  0
 46113  1  0  0  0
 47114  1  0  0  0
 47115  1  0  0  0
 48 56  1  0  0  0
 48 65  1  0  0  0
 48116  1  0  0  0
 49 50  1  0  0  0
 49 53  1  0  0  0
 49 64  1  0  0  0
 49117  1  0  0  0
 50 51  1  0  0  0
 50118  1  0  0  0
 50119  1  0  0  0
 51 52  1  0  0  0
 51120  1  0  0  0
 51121  1  0  0  0
 52122  1  0  0  0
 52123  1  0  0  0
 53 54  1  0  0  0
 54 55  2  0  0  0
 54124  1  0  0  0
 55 57  1  0  0  0
 55125  1  0  0  0
 56 69  2  0  0  0
 57 58  2  0  0  0
 57126  1  0  0  0
 58127  1  0  0  0
 59 60  1  0  0  0
 59 61  1  0  0  0
 59 62  1  0  0  0
 60128  1  0  0  0
 60129  1  0  0  0
 60130  1  0  0  0
 61131  1  0  0  0
 61132  1  0  0  0
 61133  1  0  0  0
 62134  1  0  0  0
 62135  1  0  0  0
 62136  1  0  0  0
 63 65  1  0  0  0
 63137  1  0  0  0
 63138  1  0  0  0
 63139  1  0  0  0
 64140  1  0  0  0
 65141  1  0  0  0
 68 77  1  0  0  0
 71 77  1  0  0  0
 71 80  1  0  0  0
 71 82  2  0  0  0
 72142  1  0  0  0
 72143  1  0  0  0
 72144  1  0  0  0
 72 78  1  0  0  0
 73 78  1  0  0  0
 73145  1  0  0  0
 73146  1  0  0  0
 73147  1  0  0  0
 74148  1  0  0  0
 74149  1  0  0  0
 74150  1  0  0  0
 74 79  1  0  0  0
 75 76  1  0  0  0
 75 79  1  0  0  0
 75151  1  0  0  0
 75152  1  0  0  0
 76 80  1  0  0  0
 76153  1  0  0  0
 76154  1  0  0  0
 77 78  1  0  0  0
 77155  1  0  0  0
 78156  1  0  0  0
 79 81  1  0  0  0
 79157  1  0  0  0
 80158  1  0  0  0
 81159  1  0  0  0
M  ISO  4   1 100  68 101  77 101  81 100
M  END
> <chiral flag>
0

> <version>
0

> <s_m_source_file>
/data/baiqing/PycharmProjects/Reinvent-master-3.2/result/LINK_invent/BTK/process_docking_weight1_custom_sum_contain_oxygen_bond_distance_aromatic_linkinvent_7_9_3/rearranged_h_0112.sdf

> <i_m_source_file_index>
22

> <r_mmod_Potential_Energy-OPLS-2005>
666.696838378906

> <r_mmod_Stretch_Energy-OPLS-2005>
312.555938720703

> <r_mmod_Bend_Energy-OPLS-2005>
331.749359130859

> <r_mmod_Torsional_Energy-OPLS-2005>
249.752410888672

> <r_mmod_Improper_Torsional_Energy-OPLS-2005>
8.25468921661377

> <r_mmod_Van_der_Waal_Energy-OPLS-2005>
107.650672912598

> <r_mmod_Electrostatic_Energy-OPLS-2005>
-310.142791748047

> <r_mmod_Solvation_Energy-OPLS-2005>
-246.783004760742

> <b_mmod_Minimization_Converged-OPLS-2005>
0

> <r_mmod_RMS_Derivative-OPLS-2005>
1.8765035867691

$$$$
22
                    3D
 Structure written by MMmdl.
157165  0  0  1  0            999 V2000
  -30.2448  -15.7802   20.3146 C   0  0  0  0  0  0
  -30.4157  -13.1889   19.5453 C   0  0  0  0  0  0
  -29.5609  -12.6965   18.3379 C   0  0  0  0  0  0
  -28.1444  -12.3068   18.7844 C   0  0  0  0  0  0
  -27.5922  -13.3230   19.8084 C   0  0  2  0  0  0
  -28.5962  -13.7158   20.9215 C   0  0  0  0  0  0
  -25.2303  -13.8304   20.5790 C   0  0  0  0  0  0
  -24.1714  -13.0433   20.9291 C   0  0  0  0  0  0
  -24.6436  -11.6947   20.8746 C   0  0  0  0  0  0
  -23.9137  -10.4290   21.0380 C   0  0  0  0  0  0
  -24.3666   -9.4211   21.9168 C   0  0  0  0  0  0
  -23.6314   -8.2259   22.0762 C   0  0  0  0  0  0
  -22.4289   -8.0300   21.3557 C   0  0  0  0  0  0
  -21.9938   -9.0277   20.4653 C   0  0  0  0  0  0
  -22.7300  -10.2135   20.3042 C   0  0  0  0  0  0
  -21.6860   -6.0742   22.5281 C   0  0  0  0  0  0
  -21.4030   -6.5643   23.8220 C   0  0  0  0  0  0
  -21.3663   -5.6791   24.9177 C   0  0  0  0  0  0
  -21.6046   -4.3056   24.7218 C   0  0  0  0  0  0
  -21.8814   -3.8149   23.4335 C   0  0  0  0  0  0
  -21.9191   -4.6969   22.3395 C   0  0  0  0  0  0
  -22.7719  -13.5153   21.1908 C   0  0  0  0  0  0
  -22.1653   -4.2156   21.0971 F   0  0  0  0  0  0
  -21.5622   -3.4541   25.7728 F   0  0  0  0  0  0
  -29.7493  -14.3836   20.2620 N   0  0  0  0  0  0
  -26.2770  -12.9665   20.3214 N   0  0  0  0  0  0
  -25.9386  -11.6722   20.5667 N   0  0  0  0  0  0
  -22.0375  -12.8142   22.0460 N   0  0  0  0  0  0
  -25.3834  -15.2055   20.4234 N   0  0  0  0  0  0
  -31.4815  -15.7003   20.1541 O   0  0  0  0  0  0
  -21.6645   -6.8897   21.4247 O   0  0  0  0  0  0
  -22.3402  -14.5457   20.6747 O   0  0  0  0  0  0
  -24.6937  -31.7889   23.1427 C   0  0  0  0  0  0
  -25.9474  -32.4409   23.8007 C   0  0  1  0  0  0
  -27.2272  -26.6014   20.2297 C   0  0  0  0  0  0
  -25.6012  -33.8234   24.1887 N   0  0  0  0  0  0
  -23.5228  -30.3865   21.5003 C   0  0  2  0  0  0
  -24.9805  -28.7061   20.1221 C   0  0  0  0  0  0
  -22.7805  -29.4261   22.4695 C   0  0  0  0  0  0
  -18.0338  -28.1425   22.8441 C   0  0  0  0  0  0
  -24.1501  -36.7144   23.2652 C   0  0  0  0  0  0
  -26.1078  -30.4902   21.4199 C   0  0  0  0  0  0
  -26.1722  -29.0428   20.7746 C   0  0  0  0  0  0
  -27.2768  -28.0231   20.7902 C   0  0  0  0  0  0
  -25.9999  -26.4989   19.5200 C   0  0  0  0  0  0
  -24.9395  -27.4600   19.4702 C   0  0  0  0  0  0
  -23.7813  -29.6741   20.1397 C   0  0  0  0  0  0
  -25.4150  -36.2861   24.0269 C   0  0  1  0  0  0
  -20.5980  -28.3792   23.1118 C   0  0  2  0  0  0
  -20.6801  -26.9438   22.5404 C   0  0  0  0  0  0
  -19.5783  -26.6366   21.5209 C   0  0  0  0  0  0
  -18.1963  -26.7947   22.1610 C   0  0  0  0  0  0
  -19.1609  -28.8931   23.2755 C   0  0  0  0  0  0
  -18.9515  -30.1513   23.8806 C   0  0  0  0  0  0
  -17.6507  -30.6599   24.0546 C   0  0  0  0  0  0
  -25.9138  -34.9254   23.4922 C   0  0  0  0  0  0
  -16.5391  -29.9081   23.6350 C   0  0  0  0  0  0
  -16.7322  -28.6506   23.0356 C   0  0  0  0  0  0
  -26.4607  -31.6481   25.0671 C   0  0  0  0  0  0
  -25.3652  -31.3838   26.1279 C   0  0  0  0  0  0
  -27.0544  -30.2803   24.6636 C   0  0  0  0  0  0
  -27.6027  -32.4366   25.7510 C   0  0  0  0  0  0
  -27.5562  -37.1726   24.8458 C   0  0  0  0  0  0
  -21.4443  -29.3028   22.3442 N   0  0  0  0  0  0
  -26.4268  -37.3634   23.9400 N   0  0  0  0  0  0
  -24.7993  -30.9233   22.0737 N   0  0  0  0  0  0
  -23.4208  -28.7867   23.3077 O   0  0  0  0  0  0
  -28.1790  -25.3367   20.2814 O   0  0  0  0  0  0
  -26.5789  -34.8854   22.4547 O   0  0  0  0  0  0
  -23.5937  -32.1014   23.6323 O   0  0  0  0  0  0
  -30.2761  -21.9665   19.9316 C   0  0  0  0  0  0
  -30.8539  -19.4578   19.9662 C   0  0  0  0  0  0
  -28.8985  -21.8825   20.2388 C   0  0  0  0  0  0
  -29.5743  -18.9310   20.2721 C   0  0  0  0  0  0
  -28.6357  -20.2680   20.4063 C   0  0  0  0  0  0
  -31.1720  -20.8506   19.8109 C   0  0  0  0  0  0
  -27.9398  -23.5430   20.2696 C   0  0  0  0  0  0
  -25.5066  -21.0630   21.8664 C   0  0  0  0  0  0
  -24.4084  -20.0343   21.5402 C   0  0  0  0  0  0
  -26.9053  -20.4433   21.9996 C   0  0  0  0  0  0
  -29.4654  -17.1701   20.3768 N   0  0  0  0  0  0
  -23.0764  -20.6577   21.4452 N   0  3  0  0  0  0
  -27.3467  -19.9362   20.7415 O   0  0  0  0  0  0
  -32.8108  -21.2303   19.4226 Cl  0  0  0  0  0  0
  -31.4005  -13.4691   19.1696 H   0  0  0  0  0  0
  -30.6084  -12.3709   20.2418 H   0  0  0  0  0  0
  -30.0485  -11.8569   17.8387 H   0  0  0  0  0  0
  -29.5006  -13.4968   17.5994 H   0  0  0  0  0  0
  -28.1998  -11.3194   19.2446 H   0  0  0  0  0  0
  -27.4792  -12.2132   17.9247 H   0  0  0  0  0  0
  -27.4357  -14.2257   19.2159 H   0  0  0  0  0  0
  -28.8884  -12.8578   21.5289 H   0  0  0  0  0  0
  -28.1322  -14.4299   21.6043 H   0  0  0  0  0  0
  -25.2818   -9.5681   22.4739 H   0  0  0  0  0  0
  -24.0024   -7.4651   22.7487 H   0  0  0  0  0  0
  -21.0876   -8.8810   19.8950 H   0  0  0  0  0  0
  -22.3785  -10.9666   19.6138 H   0  0  0  0  0  0
  -21.2046   -7.6156   23.9733 H   0  0  0  0  0  0
  -21.1485   -6.0514   25.9084 H   0  0  0  0  0  0
  -22.0588   -2.7609   23.2829 H   0  0  0  0  0  0
  -22.4007  -11.9840   22.4893 H   0  0  0  0  0  0
  -21.0974  -13.1150   22.2623 H   0  0  0  0  0  0
  -24.5985  -15.8402   20.5191 H   0  0  0  0  0  0
  -26.2123  -15.6521   20.0542 H   0  0  0  0  0  0
  -26.7575  -32.4862   23.0730 H   0  0  0  0  0  0
  -25.0036  -33.9252   24.9957 H   0  0  0  0  0  0
  -22.8545  -31.2274   21.3026 H   0  0  0  0  0  0
  -23.3771  -35.9466   23.3251 H   0  0  0  0  0  0
  -24.3571  -36.8879   22.2082 H   0  0  0  0  0  0
  -23.7263  -37.6298   23.6788 H   0  0  0  0  0  0
  -26.3165  -31.2065   20.6240 H   0  0  0  0  0  0
  -26.9571  -30.5654   22.0861 H   0  0  0  0  0  0
  -28.1710  -28.2935   21.3326 H   0  0  0  0  0  0
  -25.8151  -25.5623   19.0129 H   0  0  0  0  0  0
  -24.0434  -27.1883   18.9286 H   0  0  0  0  0  0
  -23.9651  -30.4302   19.3756 H   0  0  0  0  0  0
  -22.8836  -29.1467   19.8123 H   0  0  0  0  0  0
  -25.1365  -36.1601   25.0759 H   0  0  0  0  0  0
  -21.0049  -28.3428   24.1250 H   0  0  0  0  0  0
  -20.5637  -26.2418   23.3676 H   0  0  0  0  0  0
  -21.6663  -26.7360   22.1240 H   0  0  0  0  0  0
  -19.6931  -25.6253   21.1292 H   0  0  0  0  0  0
  -19.6723  -27.3129   20.6701 H   0  0  0  0  0  0
  -17.4227  -26.6676   21.4021 H   0  0  0  0  0  0
  -18.0356  -26.0117   22.9035 H   0  0  0  0  0  0
  -19.7992  -30.7351   24.2134 H   0  0  0  0  0  0
  -17.5054  -31.6268   24.5170 H   0  0  0  0  0  0
  -15.5387  -30.2950   23.7729 H   0  0  0  0  0  0
  -15.8721  -28.0797   22.7118 H   0  0  0  0  0  0
  -24.5851  -30.7166   25.7595 H   0  0  0  0  0  0
  -24.8828  -32.3076   26.4483 H   0  0  0  0  0  0
  -25.7818  -30.9150   27.0204 H   0  0  0  0  0  0
  -26.3270  -29.6396   24.1638 H   0  0  0  0  0  0
  -27.3939  -29.7282   25.5411 H   0  0  0  0  0  0
  -27.9270  -30.3897   24.0193 H   0  0  0  0  0  0
  -27.2529  -33.3739   26.1854 H   0  0  0  0  0  0
  -28.3963  -32.6812   25.0438 H   0  0  0  0  0  0
  -28.0555  -31.8651   26.5623 H   0  0  0  0  0  0
  -28.2528  -38.0065   24.7505 H   0  0  0  0  0  0
  -28.1105  -36.2583   24.6282 H   0  0  0  0  0  0
  -27.2279  -37.1362   25.8860 H   0  0  0  0  0  0
  -20.9769  -29.8695   21.6500 H   0  0  0  0  0  0
  -26.0080  -38.2677   24.1405 H   0  0  0  0  0  0
  -30.6827  -22.9538   19.7661 H   0  0  0  0  0  0
  -31.6613  -18.7524   19.8346 H   0  0  0  0  0  0
  -27.3080  -23.4107   21.1466 H   0  0  0  0  0  0
  -27.2498  -23.4129   19.4353 H   0  0  0  0  0  0
  -25.2655  -21.5582   22.8078 H   0  0  0  0  0  0
  -25.5228  -21.8399   21.1022 H   0  0  0  0  0  0
  -24.3794  -19.2582   22.3062 H   0  0  0  0  0  0
  -24.6326  -19.5362   20.5958 H   0  0  0  0  0  0
  -26.8859  -19.6240   22.7192 H   0  0  0  0  0  0
  -27.5876  -21.1850   22.4196 H   0  0  0  0  0  0
  -28.4951  -16.9217   20.5065 H   0  0  0  0  0  0
  -22.7980  -21.0544   22.3247 H   0  0  0  0  0  0
  -22.3919  -19.9692   21.1877 H   0  0  0  0  0  0
  -23.0684  -21.3811   20.7492 H   0  0  0  0  0  0
  1 25  1  0  0  0
  1 30  2  0  0  0
  1 81  1  0  0  0
  2  3  1  0  0  0
  2 25  1  0  0  0
  2 85  1  0  0  0
  2 86  1  0  0  0
  3  4  1  0  0  0
  3 87  1  0  0  0
  3 88  1  0  0  0
  4  5  1  0  0  0
  4 89  1  0  0  0
  4 90  1  0  0  0
  5  6  1  0  0  0
  5 26  1  0  0  0
  5 91  1  0  0  0
  6 25  1  0  0  0
  6 92  1  0  0  0
  6 93  1  0  0  0
  7  8  2  0  0  0
  7 26  1  0  0  0
  7 29  1  0  0  0
  8  9  1  0  0  0
  8 22  1  0  0  0
  9 10  1  0  0  0
  9 27  2  0  0  0
 10 11  2  0  0  0
 10 15  1  0  0  0
 11 12  1  0  0  0
 11 94  1  0  0  0
 12 13  2  0  0  0
 12 95  1  0  0  0
 13 14  1  0  0  0
 13 31  1  0  0  0
 14 15  2  0  0  0
 14 96  1  0  0  0
 15 97  1  0  0  0
 16 17  2  0  0  0
 16 21  1  0  0  0
 16 31  1  0  0  0
 17 18  1  0  0  0
 17 98  1  0  0  0
 18 19  2  0  0  0
 18 99  1  0  0  0
 19 20  1  0  0  0
 19 24  1  0  0  0
 20 21  2  0  0  0
 20100  1  0  0  0
 21 23  1  0  0  0
 22 28  1  0  0  0
 22 32  2  0  0  0
 26 27  1  0  0  0
 28101  1  0  0  0
 28102  1  0  0  0
 29103  1  0  0  0
 29104  1  0  0  0
 33 34  1  0  0  0
 33 66  1  0  0  0
 33 70  2  0  0  0
 34 36  1  0  0  0
 34 59  1  0  0  0
 34105  1  0  0  0
 35 44  2  0  0  0
 35 45  1  0  0  0
 35 68  1  0  0  0
 36 56  1  0  0  0
 36106  1  0  0  0
 37 39  1  0  0  0
 37 47  1  0  0  0
 37 66  1  0  0  0
 37107  1  0  0  0
 38 43  2  0  0  0
 38 46  1  0  0  0
 38 47  1  0  0  0
 39 64  1  0  0  0
 39 67  2  0  0  0
 40 52  1  0  0  0
 40 53  2  0  0  0
 40 58  1  0  0  0
 41108  1  0  0  0
 41109  1  0  0  0
 41110  1  0  0  0
 41 48  1  0  0  0
 42 43  1  0  0  0
 42 66  1  0  0  0
 42111  1  0  0  0
 42112  1  0  0  0
 43 44  1  0  0  0
 44113  1  0  0  0
 45 46  2  0  0  0
 45114  1  0  0  0
 46115  1  0  0  0
 47116  1  0  0  0
 47117  1  0  0  0
 48 56  1  0  0  0
 48 65  1  0  0  0
 48118  1  0  0  0
 49 50  1  0  0  0
 49 53  1  0  0  0
 49 64  1  0  0  0
 49119  1  0  0  0
 50 51  1  0  0  0
 50120  1  0  0  0
 50121  1  0  0  0
 51 52  1  0  0  0
 51122  1  0  0  0
 51123  1  0  0  0
 52124  1  0  0  0
 52125  1  0  0  0
 53 54  1  0  0  0
 54 55  2  0  0  0
 54126  1  0  0  0
 55 57  1  0  0  0
 55127  1  0  0  0
 56 69  2  0  0  0
 57 58  2  0  0  0
 57128  1  0  0  0
 58129  1  0  0  0
 59 60  1  0  0  0
 59 61  1  0  0  0
 59 62  1  0  0  0
 60130  1  0  0  0
 60131  1  0  0  0
 60132  1  0  0  0
 61133  1  0  0  0
 61134  1  0  0  0
 61135  1  0  0  0
 62136  1  0  0  0
 62137  1  0  0  0
 62138  1  0  0  0
 63 65  1  0  0  0
 63139  1  0  0  0
 63140  1  0  0  0
 63141  1  0  0  0
 64142  1  0  0  0
 65143  1  0  0  0
 68 77  1  0  0  0
 71 73  2  0  0  0
 71 76  1  0  0  0
 71144  1  0  0  0
 72 74  1  0  0  0
 72 76  2  0  0  0
 72145  1  0  0  0
 73 75  1  0  0  0
 73 77  1  0  0  0
 74 75  2  0  0  0
 74 81  1  0  0  0
 75 83  1  0  0  0
 76 84  1  0  0  0
 77146  1  0  0  0
 77147  1  0  0  0
 78 79  1  0  0  0
 78 80  1  0  0  0
 78148  1  0  0  0
 78149  1  0  0  0
 79 82  1  0  0  0
 79150  1  0  0  0
 79151  1  0  0  0
 80 83  1  0  0  0
 80152  1  0  0  0
 80153  1  0  0  0
 81154  1  0  0  0
 82155  1  0  0  0
 82156  1  0  0  0
 82157  1  0  0  0
M  CHG  1  82   1
M  ISO  4   1 100  68 101  77 101  81 100
M  END
> <chiral flag>
0

> <version>
0

> <s_m_source_file>
/data/baiqing/PycharmProjects/Reinvent-master-3.2/result/LINK_invent/BTK/process_docking_weight1_custom_sum_contain_oxygen_bond_distance_aromatic_linkinvent_7_9_3/rearranged_h_0112.sdf

> <i_m_source_file_index>
23

> <r_mmod_Potential_Energy-OPLS-2005>
2559.99389648438

> <r_mmod_Stretch_Energy-OPLS-2005>
1262.19787597656

> <r_mmod_Bend_Energy-OPLS-2005>
645.3935546875

> <r_mmod_Torsional_Energy-OPLS-2005>
254.379837036133

> <r_mmod_Improper_Torsional_Energy-OPLS-2005>
3.59235024452209

> <r_mmod_Van_der_Waal_Energy-OPLS-2005>
119.164291381836

> <r_mmod_Electrostatic_Energy-OPLS-2005>
-316.812530517578

> <r_mmod_Solvation_Energy-OPLS-2005>
-536.076293945312

> <b_mmod_Minimization_Converged-OPLS-2005>
0

> <r_mmod_RMS_Derivative-OPLS-2005>
1.72178256511688

$$$$
23
                    3D
 Structure written by MMmdl.
166174  0  0  1  0            999 V2000
  -30.5848  -14.5903   20.5826 C   0  0  0  0  0  0
  -30.4587  -12.3895   19.4427 C   0  0  0  0  0  0
  -29.5126  -12.5361   18.2259 C   0  0  0  0  0  0
  -28.0339  -12.3646   18.6383 C   0  0  0  0  0  0
  -27.6670  -13.2034   19.8869 C   0  0  2  0  0  0
  -28.7108  -12.9630   21.0025 C   0  0  0  0  0  0
  -25.2565  -13.7948   20.5324 C   0  0  0  0  0  0
  -24.1853  -13.0356   20.9196 C   0  0  0  0  0  0
  -24.6418  -11.6860   20.8817 C   0  0  0  0  0  0
  -23.9062  -10.4239   21.0448 C   0  0  0  0  0  0
  -24.3581   -9.4149   21.9229 C   0  0  0  0  0  0
  -23.6248   -8.2181   22.0742 C   0  0  0  0  0  0
  -22.4245   -8.0259   21.3536 C   0  0  0  0  0  0
  -21.9892   -9.0235   20.4653 C   0  0  0  0  0  0
  -22.7211  -10.2119   20.3104 C   0  0  0  0  0  0
  -21.6846   -6.0721   22.5286 C   0  0  0  0  0  0
  -21.3982   -6.5628   23.8217 C   0  0  0  0  0  0
  -21.3637   -5.6780   24.9173 C   0  0  0  0  0  0
  -21.6064   -4.3048   24.7237 C   0  0  0  0  0  0
  -21.8831   -3.8143   23.4357 C   0  0  0  0  0  0
  -21.9177   -4.6940   22.3417 C   0  0  0  0  0  0
  -22.7883  -13.5219   21.1774 C   0  0  0  0  0  0
  -22.1667   -4.2156   21.0980 F   0  0  0  0  0  0
  -21.5616   -3.4533   25.7729 F   0  0  0  0  0  0
  -30.0216  -13.3531   20.4666 N   0  0  0  0  0  0
  -26.3062  -12.9174   20.3384 N   0  0  0  0  0  0
  -25.9361  -11.6395   20.5980 N   0  0  0  0  0  0
  -22.0527  -12.8275   22.0405 N   0  0  0  0  0  0
  -25.4166  -15.1403   20.2693 N   0  0  0  0  0  0
  -31.7079  -14.8496   20.1344 O   0  0  0  0  0  0
  -21.6607   -6.8855   21.4251 O   0  0  0  0  0  0
  -22.3658  -14.5549   20.6649 O   0  0  0  0  0  0
  -24.6147  -31.8687   23.2118 C   0  0  0  0  0  0
  -25.9063  -32.4792   23.8363 C   0  0  1  0  0  0
  -27.2178  -27.3741   20.1061 C   0  0  0  0  0  0
  -25.5936  -33.8606   24.2309 N   0  0  0  0  0  0
  -23.4018  -30.4914   21.5585 C   0  0  2  0  0  0
  -24.8529  -28.9577   20.1176 C   0  0  0  0  0  0
  -22.7450  -29.4647   22.5046 C   0  0  0  0  0  0
  -18.0264  -28.1380   22.8658 C   0  0  0  0  0  0
  -24.1509  -36.7290   23.2639 C   0  0  0  0  0  0
  -25.9380  -30.8060   21.3919 C   0  0  0  0  0  0
  -26.0142  -29.4337   20.7388 C   0  0  0  0  0  0
  -27.1987  -28.6434   20.7431 C   0  0  0  0  0  0
  -26.0597  -26.9737   19.4117 C   0  0  0  0  0  0
  -24.8674  -27.7196   19.4609 C   0  0  0  0  0  0
  -23.6169  -29.8327   20.1707 C   0  0  0  0  0  0
  -25.4115  -36.3080   24.0327 C   0  0  1  0  0  0
  -20.5887  -28.3625   23.1334 C   0  0  2  0  0  0
  -20.6785  -26.9364   22.5537 C   0  0  0  0  0  0
  -19.5716  -26.6298   21.5359 C   0  0  0  0  0  0
  -18.1902  -26.7866   22.1888 C   0  0  0  0  0  0
  -19.1555  -28.8859   23.2936 C   0  0  0  0  0  0
  -18.9540  -30.1519   23.8826 C   0  0  0  0  0  0
  -17.6568  -30.6733   24.0380 C   0  0  0  0  0  0
  -25.9044  -34.9444   23.5097 C   0  0  0  0  0  0
  -16.5421  -29.9185   23.6368 C   0  0  0  0  0  0
  -16.7269  -28.6522   23.0550 C   0  0  0  0  0  0
  -26.4484  -31.6583   25.0709 C   0  0  0  0  0  0
  -25.3705  -31.3734   26.1436 C   0  0  0  0  0  0
  -27.0340  -30.2994   24.6180 C   0  0  0  0  0  0
  -27.6047  -32.4306   25.7498 C   0  0  0  0  0  0
  -27.5581  -37.1799   24.8460 C   0  0  0  0  0  0
  -21.4168  -29.2993   22.3797 N   0  0  0  0  0  0
  -26.4297  -37.3757   23.9384 N   0  0  0  0  0  0
  -24.6660  -31.0717   22.1085 N   0  0  0  0  0  0
  -23.4235  -28.8138   23.3033 O   0  0  0  0  0  0
  -28.3499  -26.5746   20.0224 O   0  0  0  0  0  0
  -26.5599  -34.8894   22.4668 O   0  0  0  0  0  0
  -23.5347  -32.1486   23.7532 O   0  0  0  0  0  0
  -25.8081  -22.0197   20.5933 C   0  0  0  0  0  0
  -28.1099  -22.7290   20.7786 C   0  0  0  0  0  0
  -25.4355  -23.3605   20.5021 C   0  0  0  0  0  0
  -27.1650  -21.6582   20.7492 C   0  0  0  0  0  0
  -27.6391  -24.0941   20.6873 C   0  0  0  0  0  0
  -27.6871  -17.5075   22.4628 C   0  0  0  0  0  0
  -25.5294  -17.8090   23.8710 C   0  0  0  0  0  0
  -25.2429  -17.9219   21.3728 C   0  0  0  0  0  0
  -27.3611  -20.1314   20.9380 C   0  0  0  0  0  0
  -28.5421  -25.3589   20.8382 C   0  0  0  0  0  0
  -29.8423  -17.0400   21.0092 C   0  0  0  0  0  0
  -26.1260  -17.3655   22.5214 C   0  0  0  0  0  0
  -28.4717  -17.8628   21.1414 C   0  0  2  0  0  0
  -26.3240  -24.3542   20.5851 N   0  0  0  0  0  0
  -29.7512  -15.5470   21.0818 N   0  0  0  0  0  0
  -28.6454  -19.3768   21.0713 N   0  3  0  0  0  0
  -28.3085  -17.3146   23.5091 O   0  0  0  0  0  0
  -31.5022  -12.5446   19.1551 H   0  0  0  0  0  0
  -30.4059  -11.3830   19.8523 H   0  0  0  0  0  0
  -29.7689  -11.8015   17.4631 H   0  0  0  0  0  0
  -29.6546  -13.5164   17.7701 H   0  0  0  0  0  0
  -27.8676  -11.3063   18.8556 H   0  0  0  0  0  0
  -27.3697  -12.6027   17.8093 H   0  0  0  0  0  0
  -27.7071  -14.2523   19.5884 H   0  0  0  0  0  0
  -28.7339  -11.9052   21.2479 H   0  0  0  0  0  0
  -28.4750  -13.4700   21.9380 H   0  0  0  0  0  0
  -25.2742   -9.5615   22.4801 H   0  0  0  0  0  0
  -23.9975   -7.4561   22.7436 H   0  0  0  0  0  0
  -21.0848   -8.8762   19.8947 H   0  0  0  0  0  0
  -22.3691  -10.9645   19.6219 H   0  0  0  0  0  0
  -21.1981   -7.6150   23.9726 H   0  0  0  0  0  0
  -21.1437   -6.0510   25.9084 H   0  0  0  0  0  0
  -22.0625   -2.7617   23.2854 H   0  0  0  0  0  0
  -22.4164  -11.9906   22.4717 H   0  0  0  0  0  0
  -21.1190  -13.1337   22.2673 H   0  0  0  0  0  0
  -24.5481  -15.6592   20.2013 H   0  0  0  0  0  0
  -26.0180  -15.3377   19.4793 H   0  0  0  0  0  0
  -26.7108  -32.5512   23.1106 H   0  0  0  0  0  0
  -25.0043  -33.9742   25.0436 H   0  0  0  0  0  0
  -22.6850  -31.3040   21.4276 H   0  0  0  0  0  0
  -23.3758  -35.9646   23.3306 H   0  0  0  0  0  0
  -24.3592  -36.8909   22.2053 H   0  0  0  0  0  0
  -23.7291  -37.6500   23.6661 H   0  0  0  0  0  0
  -26.0690  -31.5742   20.6315 H   0  0  0  0  0  0
  -26.8174  -30.8488   22.0221 H   0  0  0  0  0  0
  -28.0938  -29.0046   21.2290 H   0  0  0  0  0  0
  -26.0809  -26.0761   18.8108 H   0  0  0  0  0  0
  -23.9852  -27.3538   18.9545 H   0  0  0  0  0  0
  -23.7401  -30.6209   19.4270 H   0  0  0  0  0  0
  -22.7296  -29.2704   19.8618 H   0  0  0  0  0  0
  -25.1324  -36.1904   25.0818 H   0  0  0  0  0  0
  -21.0039  -28.3103   24.1442 H   0  0  0  0  0  0
  -20.5557  -26.2293   23.3765 H   0  0  0  0  0  0
  -21.6746  -26.7328   22.1522 H   0  0  0  0  0  0
  -19.6821  -25.6152   21.1525 H   0  0  0  0  0  0
  -19.6616  -27.2993   20.6820 H   0  0  0  0  0  0
  -17.3979  -26.6496   21.4487 H   0  0  0  0  0  0
  -18.0325  -26.0076   22.9371 H   0  0  0  0  0  0
  -19.8035  -30.7337   24.2143 H   0  0  0  0  0  0
  -17.5220  -31.6526   24.4770 H   0  0  0  0  0  0
  -15.5477  -30.3114   23.7819 H   0  0  0  0  0  0
  -15.8598  -28.0771   22.7531 H   0  0  0  0  0  0
  -24.5868  -30.7119   25.7741 H   0  0  0  0  0  0
  -24.8944  -32.2937   26.4834 H   0  0  0  0  0  0
  -25.8023  -30.8891   27.0217 H   0  0  0  0  0  0
  -26.2938  -29.6729   24.1199 H   0  0  0  0  0  0
  -27.4017  -29.7255   25.4711 H   0  0  0  0  0  0
  -27.8820  -30.4260   23.9432 H   0  0  0  0  0  0
  -27.2634  -33.3599   26.2075 H   0  0  0  0  0  0
  -28.3867  -32.6870   25.0336 H   0  0  0  0  0  0
  -28.0687  -31.8412   26.5421 H   0  0  0  0  0  0
  -28.2602  -38.0095   24.7475 H   0  0  0  0  0  0
  -28.1067  -36.2614   24.6331 H   0  0  0  0  0  0
  -27.2272  -37.1501   25.8858 H   0  0  0  0  0  0
  -20.9228  -29.8859   21.7234 H   0  0  0  0  0  0
  -26.0175  -38.2840   24.1369 H   0  0  0  0  0  0
  -25.0336  -21.2646   20.5496 H   0  0  0  0  0  0
  -29.1633  -22.5193   20.9079 H   0  0  0  0  0  0
  -24.3999  -23.6451   20.3869 H   0  0  0  0  0  0
  -26.0970  -17.4447   24.7231 H   0  0  0  0  0  0
  -24.5179  -17.4184   23.9769 H   0  0  0  0  0  0
  -25.4765  -18.8956   23.9449 H   0  0  0  0  0  0
  -25.6949  -17.8380   20.3851 H   0  0  0  0  0  0
  -24.9280  -18.9538   21.5245 H   0  0  0  0  0  0
  -24.3108  -17.3541   21.3129 H   0  0  0  0  0  0
  -26.8309  -19.6913   20.0927 H   0  0  0  0  0  0
  -26.7971  -19.9450   21.8489 H   0  0  0  0  0  0
  -29.5518  -25.0234   20.6133 H   0  0  0  0  0  0
  -28.5467  -25.6482   21.8888 H   0  0  0  0  0  0
  -30.5502  -17.3603   21.7728 H   0  0  0  0  0  0
  -30.3145  -17.2891   20.0568 H   0  0  0  0  0  0
  -26.0040  -16.2804   22.4861 H   0  0  0  0  0  0
  -27.8559  -17.5710   20.2893 H   0  0  0  0  0  0
  -28.9410  -15.1795   21.5524 H   0  0  0  0  0  0
  -29.1246  -19.6748   21.9061 H   0  0  0  0  0  0
  -29.2117  -19.6131   20.2762 H   0  0  0  0  0  0
  1 25  1  0  0  0
  1 30  2  0  0  0
  1 85  1  0  0  0
  2  3  1  0  0  0
  2 25  1  0  0  0
  2 88  1  0  0  0
  2 89  1  0  0  0
  3  4  1  0  0  0
  3 90  1  0  0  0
  3 91  1  0  0  0
  4  5  1  0  0  0
  4 92  1  0  0  0
  4 93  1  0  0  0
  5  6  1  0  0  0
  5 26  1  0  0  0
  5 94  1  0  0  0
  6 25  1  0  0  0
  6 95  1  0  0  0
  6 96  1  0  0  0
  7  8  2  0  0  0
  7 26  1  0  0  0
  7 29  1  0  0  0
  8  9  1  0  0  0
  8 22  1  0  0  0
  9 10  1  0  0  0
  9 27  2  0  0  0
 10 11  2  0  0  0
 10 15  1  0  0  0
 11 12  1  0  0  0
 11 97  1  0  0  0
 12 13  2  0  0  0
 12 98  1  0  0  0
 13 14  1  0  0  0
 13 31  1  0  0  0
 14 15  2  0  0  0
 14 99  1  0  0  0
 15100  1  0  0  0
 16 17  2  0  0  0
 16 21  1  0  0  0
 16 31  1  0  0  0
 17 18  1  0  0  0
 17101  1  0  0  0
 18 19  2  0  0  0
 18102  1  0  0  0
 19 20  1  0  0  0
 19 24  1  0  0  0
 20 21  2  0  0  0
 20103  1  0  0  0
 21 23  1  0  0  0
 22 28  1  0  0  0
 22 32  2  0  0  0
 26 27  1  0  0  0
 28104  1  0  0  0
 28105  1  0  0  0
 29106  1  0  0  0
 29107  1  0  0  0
 33 34  1  0  0  0
 33 66  1  0  0  0
 33 70  2  0  0  0
 34 36  1  0  0  0
 34 59  1  0  0  0
 34108  1  0  0  0
 35 44  2  0  0  0
 35 45  1  0  0  0
 35 68  1  0  0  0
 36 56  1  0  0  0
 36109  1  0  0  0
 37 39  1  0  0  0
 37 47  1  0  0  0
 37 66  1  0  0  0
 37110  1  0  0  0
 38 43  2  0  0  0
 38 46  1  0  0  0
 38 47  1  0  0  0
 39 64  1  0  0  0
 39 67  2  0  0  0
 40 52  1  0  0  0
 40 53  2  0  0  0
 40 58  1  0  0  0
 41111  1  0  0  0
 41112  1  0  0  0
 41113  1  0  0  0
 41 48  1  0  0  0
 42 43  1  0  0  0
 42 66  1  0  0  0
 42114  1  0  0  0
 42115  1  0  0  0
 43 44  1  0  0  0
 44116  1  0  0  0
 45 46  2  0  0  0
 45117  1  0  0  0
 46118  1  0  0  0
 47119  1  0  0  0
 47120  1  0  0  0
 48 56  1  0  0  0
 48 65  1  0  0  0
 48121  1  0  0  0
 49 50  1  0  0  0
 49 53  1  0  0  0
 49 64  1  0  0  0
 49122  1  0  0  0
 50 51  1  0  0  0
 50123  1  0  0  0
 50124  1  0  0  0
 51 52  1  0  0  0
 51125  1  0  0  0
 51126  1  0  0  0
 52127  1  0  0  0
 52128  1  0  0  0
 53 54  1  0  0  0
 54 55  2  0  0  0
 54129  1  0  0  0
 55 57  1  0  0  0
 55130  1  0  0  0
 56 69  2  0  0  0
 57 58  2  0  0  0
 57131  1  0  0  0
 58132  1  0  0  0
 59 60  1  0  0  0
 59 61  1  0  0  0
 59 62  1  0  0  0
 60133  1  0  0  0
 60134  1  0  0  0
 60135  1  0  0  0
 61136  1  0  0  0
 61137  1  0  0  0
 61138  1  0  0  0
 62139  1  0  0  0
 62140  1  0  0  0
 62141  1  0  0  0
 63 65  1  0  0  0
 63142  1  0  0  0
 63143  1  0  0  0
 63144  1  0  0  0
 64145  1  0  0  0
 65146  1  0  0  0
 68 80  1  0  0  0
 71 73  2  0  0  0
 71 74  1  0  0  0
 71147  1  0  0  0
 72 74  2  0  0  0
 72 75  1  0  0  0
 72148  1  0  0  0
 73 84  1  0  0  0
 73149  1  0  0  0
 74 79  1  0  0  0
 75 80  1  0  0  0
 75 84  2  0  0  0
 76 82  1  0  0  0
 76 83  1  0  0  0
 76 87  2  0  0  0
 77150  1  0  0  0
 77151  1  0  0  0
 77152  1  0  0  0
 77 82  1  0  0  0
 78 82  1  0  0  0
 78153  1  0  0  0
 78154  1  0  0  0
 78155  1  0  0  0
 79 86  1  0  0  0
 79156  1  0  0  0
 79157  1  0  0  0
 80158  1  0  0  0
 80159  1  0  0  0
 81 85  1  0  0  0
 81160  1  0  0  0
 81161  1  0  0  0
 81 83  1  0  0  0
 82162  1  0  0  0
 83 86  1  0  0  0
 83163  1  0  0  0
 85164  1  0  0  0
 86165  1  0  0  0
 86166  1  0  0  0
M  CHG  1  86   1
M  ISO  4   1 100  68 101  80 101  85 100
M  END
> <chiral flag>
0

> <version>
0

> <s_m_source_file>
/data/baiqing/PycharmProjects/Reinvent-master-3.2/result/LINK_invent/BTK/process_docking_weight1_custom_sum_contain_oxygen_bond_distance_aromatic_linkinvent_7_9_3/rearranged_h_0112.sdf

> <i_m_source_file_index>
24

> <r_mmod_Potential_Energy-OPLS-2005>
-321.723541259766

> <r_mmod_Stretch_Energy-OPLS-2005>
72.9030990600586

> <r_mmod_Bend_Energy-OPLS-2005>
190.485656738281

> <r_mmod_Torsional_Energy-OPLS-2005>
238.388656616211

> <r_mmod_Improper_Torsional_Energy-OPLS-2005>
10.2000913619995

> <r_mmod_Van_der_Waal_Energy-OPLS-2005>
164.300308227539

> <r_mmod_Electrostatic_Energy-OPLS-2005>
-511.827026367188

> <r_mmod_Solvation_Energy-OPLS-2005>
-522.216064453125

> <b_mmod_Minimization_Converged-OPLS-2005>
0

> <r_mmod_RMS_Derivative-OPLS-2005>
9.78157329559326

$$$$
24
                    3D
 Structure written by MMmdl.
156164  0  0  1  0            999 V2000
  -30.4690  -15.1269   20.3850 C   0  0  0  0  0  0
  -30.4427  -12.7094   19.5067 C   0  0  0  0  0  0
  -29.5308  -12.5600   18.2655 C   0  0  0  0  0  0
  -28.0682  -12.3166   18.6851 C   0  0  0  0  0  0
  -27.6196  -13.2640   19.8272 C   0  0  2  0  0  0
  -28.6601  -13.3630   20.9612 C   0  0  0  0  0  0
  -25.2427  -13.8239   20.5724 C   0  0  0  0  0  0
  -24.1765  -13.0438   20.9246 C   0  0  0  0  0  0
  -24.6399  -11.6931   20.8755 C   0  0  0  0  0  0
  -23.9091  -10.4290   21.0407 C   0  0  0  0  0  0
  -24.3634   -9.4206   21.9183 C   0  0  0  0  0  0
  -23.6302   -8.2246   22.0757 C   0  0  0  0  0  0
  -22.4283   -8.0279   21.3549 C   0  0  0  0  0  0
  -21.9925   -9.0257   20.4656 C   0  0  0  0  0  0
  -22.7263  -10.2131   20.3061 C   0  0  0  0  0  0
  -21.6853   -6.0732   22.5279 C   0  0  0  0  0  0
  -21.4020   -6.5640   23.8212 C   0  0  0  0  0  0
  -21.3662   -5.6793   24.9175 C   0  0  0  0  0  0
  -21.6040   -4.3053   24.7233 C   0  0  0  0  0  0
  -21.8822   -3.8143   23.4355 C   0  0  0  0  0  0
  -21.9199   -4.6959   22.3409 C   0  0  0  0  0  0
  -22.7784  -13.5198   21.1896 C   0  0  0  0  0  0
  -22.1668   -4.2142   21.0985 F   0  0  0  0  0  0
  -21.5628   -3.4539   25.7746 F   0  0  0  0  0  0
  -29.9078  -13.8335   20.3435 N   0  0  0  0  0  0
  -26.2846  -12.9491   20.3212 N   0  0  0  0  0  0
  -25.9331  -11.6607   20.5708 N   0  0  0  0  0  0
  -22.0445  -12.8172   22.0449 N   0  0  0  0  0  0
  -25.4076  -15.1974   20.4142 N   0  0  0  0  0  0
  -31.6873  -15.1700   20.1737 O   0  0  0  0  0  0
  -21.6649   -6.8875   21.4238 O   0  0  0  0  0  0
  -22.3461  -14.5497   20.6739 O   0  0  0  0  0  0
  -24.6551  -31.8328   23.1763 C   0  0  0  0  0  0
  -25.9272  -32.4635   23.8204 C   0  0  1  0  0  0
  -27.2219  -27.0146   20.1617 C   0  0  0  0  0  0
  -25.5976  -33.8450   24.2116 N   0  0  0  0  0  0
  -23.4659  -30.4482   21.5236 C   0  0  2  0  0  0
  -24.9181  -28.8525   20.1091 C   0  0  0  0  0  0
  -22.7636  -29.4492   22.4795 C   0  0  0  0  0  0
  -18.0322  -28.1415   22.8473 C   0  0  0  0  0  0
  -24.1496  -36.7227   23.2638 C   0  0  0  0  0  0
  -26.0301  -30.6670   21.3939 C   0  0  0  0  0  0
  -26.0998  -29.2664   20.7357 C   0  0  0  0  0  0
  -27.2471  -28.3661   20.7406 C   0  0  0  0  0  0
  -26.0066  -26.7319   19.4965 C   0  0  0  0  0  0
  -24.8917  -27.6030   19.4716 C   0  0  0  0  0  0
  -23.7018  -29.7710   20.1468 C   0  0  0  0  0  0
  -25.4135  -36.2998   24.0301 C   0  0  1  0  0  0
  -20.5941  -28.3758   23.1203 C   0  0  2  0  0  0
  -20.6803  -26.9448   22.5408 C   0  0  0  0  0  0
  -19.5772  -26.6382   21.5225 C   0  0  0  0  0  0
  -18.1952  -26.7948   22.1627 C   0  0  0  0  0  0
  -19.1581  -28.8905   23.2828 C   0  0  0  0  0  0
  -18.9489  -30.1493   23.8865 C   0  0  0  0  0  0
  -17.6484  -30.6603   24.0563 C   0  0  0  0  0  0
  -25.9096  -34.9382   23.5024 C   0  0  0  0  0  0
  -16.5376  -29.9096   23.6335 C   0  0  0  0  0  0
  -16.7306  -28.6518   23.0352 C   0  0  0  0  0  0
  -26.4554  -31.6539   25.0697 C   0  0  0  0  0  0
  -25.3709  -31.3764   26.1368 C   0  0  0  0  0  0
  -27.0426  -30.2910   24.6363 C   0  0  0  0  0  0
  -27.6060  -32.4328   25.7505 C   0  0  0  0  0  0
  -27.5577  -37.1767   24.8459 C   0  0  0  0  0  0
  -21.4311  -29.3062   22.3558 N   0  0  0  0  0  0
  -26.4281  -37.3729   23.9415 N   0  0  0  0  0  0
  -24.7377  -31.0067   22.0857 N   0  0  0  0  0  0
  -23.4228  -28.8052   23.2994 O   0  0  0  0  0  0
  -28.2525  -25.9642   20.2550 O   0  0  0  0  0  0
  -26.5701  -34.8899   22.4616 O   0  0  0  0  0  0
  -23.5640  -32.1259   23.6917 O   0  0  0  0  0  0
  -29.5242  -18.9283   19.2216 C   0  0  0  0  0  0
  -28.9058  -18.8517   21.4753 C   0  0  0  0  0  0
  -29.6156  -20.5917   19.2997 C   0  0  0  0  0  0
  -29.0067  -20.4991   21.5625 C   0  0  0  0  0  0
  -29.8388  -17.9764   20.4941 C   0  0  1  0  0  0
  -28.2820  -24.3413   18.3975 C   0  0  0  0  0  0
  -28.9971  -23.0107   20.5322 C   0  0  0  0  0  0
  -28.0996  -24.3873   19.9214 C   0  0  1  0  0  0
  -29.6624  -16.3410   20.4645 N   0  0  0  0  0  0
  -28.7831  -21.3860   20.3249 N   0  3  1  0  0  0
  -31.4694  -12.8996   19.1901 H   0  0  0  0  0  0
  -30.4769  -11.7794   20.0767 H   0  0  0  0  0  0
  -29.8800  -11.7469   17.6270 H   0  0  0  0  0  0
  -29.5909  -13.4687   17.6645 H   0  0  0  0  0  0
  -27.9844  -11.2792   19.0102 H   0  0  0  0  0  0
  -27.4067  -12.4201   17.8245 H   0  0  0  0  0  0
  -27.5562  -14.2509   19.3668 H   0  0  0  0  0  0
  -28.7955  -12.4048   21.4645 H   0  0  0  0  0  0
  -28.3307  -14.0701   21.7237 H   0  0  0  0  0  0
  -25.2781   -9.5674   22.4753 H   0  0  0  0  0  0
  -24.0012   -7.4630   22.7467 H   0  0  0  0  0  0
  -21.0862   -8.8782   19.8951 H   0  0  0  0  0  0
  -22.3729  -10.9669   19.6168 H   0  0  0  0  0  0
  -21.2012   -7.6146   23.9711 H   0  0  0  0  0  0
  -21.1482   -6.0527   25.9077 H   0  0  0  0  0  0
  -22.0599   -2.7602   23.2864 H   0  0  0  0  0  0
  -22.4082  -11.9849   22.4845 H   0  0  0  0  0  0
  -21.1051  -13.1165   22.2638 H   0  0  0  0  0  0
  -24.6346  -15.8454   20.5215 H   0  0  0  0  0  0
  -26.2393  -15.6359   20.0416 H   0  0  0  0  0  0
  -26.7344  -32.5212   23.0927 H   0  0  0  0  0  0
  -25.0090  -33.9551   25.0243 H   0  0  0  0  0  0
  -22.7746  -31.2780   21.3595 H   0  0  0  0  0  0
  -23.3775  -35.9536   23.3258 H   0  0  0  0  0  0
  -24.3575  -36.8915   22.2057 H   0  0  0  0  0  0
  -23.7227  -37.6395   23.6720 H   0  0  0  0  0  0
  -26.2012  -31.4149   20.6188 H   0  0  0  0  0  0
  -26.8936  -30.7218   22.0443 H   0  0  0  0  0  0
  -28.1429  -28.6803   21.2580 H   0  0  0  0  0  0
  -25.8738  -25.7767   19.0134 H   0  0  0  0  0  0
  -23.9906  -27.2805   18.9676 H   0  0  0  0  0  0
  -23.8549  -30.5432   19.3925 H   0  0  0  0  0  0
  -22.8133  -29.2242   19.8268 H   0  0  0  0  0  0
  -25.1325  -36.1797   25.0790 H   0  0  0  0  0  0
  -21.0036  -28.3365   24.1322 H   0  0  0  0  0  0
  -20.5690  -26.2385   23.3649 H   0  0  0  0  0  0
  -21.6667  -26.7440   22.1206 H   0  0  0  0  0  0
  -19.6934  -25.6281   21.1286 H   0  0  0  0  0  0
  -19.6697  -27.3168   20.6736 H   0  0  0  0  0  0
  -17.4223  -26.6695   21.4030 H   0  0  0  0  0  0
  -18.0339  -26.0104   22.9033 H   0  0  0  0  0  0
  -19.7963  -30.7321   24.2212 H   0  0  0  0  0  0
  -17.5036  -31.6277   24.5180 H   0  0  0  0  0  0
  -15.5372  -30.2990   23.7676 H   0  0  0  0  0  0
  -15.8708  -28.0834   22.7069 H   0  0  0  0  0  0
  -24.5908  -30.7094   25.7671 H   0  0  0  0  0  0
  -24.8883  -32.2961   26.4683 H   0  0  0  0  0  0
  -25.7962  -30.8999   27.0210 H   0  0  0  0  0  0
  -26.3060  -29.6607   24.1366 H   0  0  0  0  0  0
  -27.3974  -29.7239   25.4977 H   0  0  0  0  0  0
  -27.9005  -30.4083   23.9743 H   0  0  0  0  0  0
  -27.2632  -33.3654   26.1993 H   0  0  0  0  0  0
  -28.3930  -32.6843   25.0386 H   0  0  0  0  0  0
  -28.0675  -31.8520   26.5496 H   0  0  0  0  0  0
  -28.2558  -38.0100   24.7549 H   0  0  0  0  0  0
  -28.1114  -36.2630   24.6238 H   0  0  0  0  0  0
  -27.2308  -37.1357   25.8864 H   0  0  0  0  0  0
  -20.9546  -29.8779   21.6722 H   0  0  0  0  0  0
  -26.0131  -38.2785   24.1440 H   0  0  0  0  0  0
  -30.1876  -18.6139   18.4159 H   0  0  0  0  0  0
  -28.5264  -18.6801   18.8580 H   0  0  0  0  0  0
  -27.8655  -18.6075   21.2541 H   0  0  0  0  0  0
  -29.0606  -18.4743   22.4868 H   0  0  0  0  0  0
  -29.3733  -20.9915   18.3149 H   0  0  0  0  0  0
  -30.6615  -20.8557   19.4599 H   0  0  0  0  0  0
  -29.9912  -20.7485   21.9610 H   0  0  0  0  0  0
  -28.3009  -20.8361   22.3226 H   0  0  0  0  0  0
  -30.8766  -18.1461   20.7839 H   0  0  0  0  0  0
  -28.0222  -23.3620   17.9978 H   0  0  0  0  0  0
  -29.3208  -24.5396   18.1320 H   0  0  0  0  0  0
  -27.6717  -25.0799   17.8820 H   0  0  0  0  0  0
  -28.9298  -23.1365   21.6126 H   0  0  0  0  0  0
  -30.0494  -23.1998   20.3205 H   0  0  0  0  0  0
  -27.0584  -24.1608   20.1499 H   0  0  0  0  0  0
  -28.6923  -16.0809   20.5613 H   0  0  0  0  0  0
  -27.8132  -21.2644   20.0697 H   0  0  0  0  0  0
  1 25  1  0  0  0
  1 30  2  0  0  0
  1 79  1  0  0  0
  2  3  1  0  0  0
  2 25  1  0  0  0
  2 81  1  0  0  0
  2 82  1  0  0  0
  3  4  1  0  0  0
  3 83  1  0  0  0
  3 84  1  0  0  0
  4  5  1  0  0  0
  4 85  1  0  0  0
  4 86  1  0  0  0
  5  6  1  0  0  0
  5 26  1  0  0  0
  5 87  1  0  0  0
  6 25  1  0  0  0
  6 88  1  0  0  0
  6 89  1  0  0  0
  7  8  2  0  0  0
  7 26  1  0  0  0
  7 29  1  0  0  0
  8  9  1  0  0  0
  8 22  1  0  0  0
  9 10  1  0  0  0
  9 27  2  0  0  0
 10 11  2  0  0  0
 10 15  1  0  0  0
 11 12  1  0  0  0
 11 90  1  0  0  0
 12 13  2  0  0  0
 12 91  1  0  0  0
 13 14  1  0  0  0
 13 31  1  0  0  0
 14 15  2  0  0  0
 14 92  1  0  0  0
 15 93  1  0  0  0
 16 17  2  0  0  0
 16 21  1  0  0  0
 16 31  1  0  0  0
 17 18  1  0  0  0
 17 94  1  0  0  0
 18 19  2  0  0  0
 18 95  1  0  0  0
 19 20  1  0  0  0
 19 24  1  0  0  0
 20 21  2  0  0  0
 20 96  1  0  0  0
 21 23  1  0  0  0
 22 28  1  0  0  0
 22 32  2  0  0  0
 26 27  1  0  0  0
 28 97  1  0  0  0
 28 98  1  0  0  0
 29 99  1  0  0  0
 29100  1  0  0  0
 33 34  1  0  0  0
 33 66  1  0  0  0
 33 70  2  0  0  0
 34 36  1  0  0  0
 34 59  1  0  0  0
 34101  1  0  0  0
 35 44  2  0  0  0
 35 45  1  0  0  0
 35 68  1  0  0  0
 36 56  1  0  0  0
 36102  1  0  0  0
 37 39  1  0  0  0
 37 47  1  0  0  0
 37 66  1  0  0  0
 37103  1  0  0  0
 38 43  2  0  0  0
 38 46  1  0  0  0
 38 47  1  0  0  0
 39 64  1  0  0  0
 39 67  2  0  0  0
 40 52  1  0  0  0
 40 53  2  0  0  0
 40 58  1  0  0  0
 41104  1  0  0  0
 41105  1  0  0  0
 41106  1  0  0  0
 41 48  1  0  0  0
 42 43  1  0  0  0
 42 66  1  0  0  0
 42107  1  0  0  0
 42108  1  0  0  0
 43 44  1  0  0  0
 44109  1  0  0  0
 45 46  2  0  0  0
 45110  1  0  0  0
 46111  1  0  0  0
 47112  1  0  0  0
 47113  1  0  0  0
 48 56  1  0  0  0
 48 65  1  0  0  0
 48114  1  0  0  0
 49 50  1  0  0  0
 49 53  1  0  0  0
 49 64  1  0  0  0
 49115  1  0  0  0
 50 51  1  0  0  0
 50116  1  0  0  0
 50117  1  0  0  0
 51 52  1  0  0  0
 51118  1  0  0  0
 51119  1  0  0  0
 52120  1  0  0  0
 52121  1  0  0  0
 53 54  1  0  0  0
 54 55  2  0  0  0
 54122  1  0  0  0
 55 57  1  0  0  0
 55123  1  0  0  0
 56 69  2  0  0  0
 57 58  2  0  0  0
 57124  1  0  0  0
 58125  1  0  0  0
 59 60  1  0  0  0
 59 61  1  0  0  0
 59 62  1  0  0  0
 60126  1  0  0  0
 60127  1  0  0  0
 60128  1  0  0  0
 61129  1  0  0  0
 61130  1  0  0  0
 61131  1  0  0  0
 62132  1  0  0  0
 62133  1  0  0  0
 62134  1  0  0  0
 63 65  1  0  0  0
 63135  1  0  0  0
 63136  1  0  0  0
 63137  1  0  0  0
 64138  1  0  0  0
 65139  1  0  0  0
 68 78  1  0  0  0
 71 73  1  0  0  0
 71 75  1  0  0  0
 71140  1  0  0  0
 71141  1  0  0  0
 72 74  1  0  0  0
 72 75  1  0  0  0
 72142  1  0  0  0
 72143  1  0  0  0
 73 80  1  0  0  0
 73144  1  0  0  0
 73145  1  0  0  0
 74 80  1  0  0  0
 74146  1  0  0  0
 74147  1  0  0  0
 75 79  1  0  0  0
 75148  1  0  0  0
 76149  1  0  0  0
 76150  1  0  0  0
 76151  1  0  0  0
 76 78  1  0  0  0
 77 78  1  0  0  0
 77152  1  0  0  0
 77153  1  0  0  0
 77 80  1  0  0  0
 78154  1  0  0  0
 79155  1  0  0  0
 80156  1  0  0  0
M  CHG  1  80   1
M  ISO  4   1 100  68 101  78 101  79 100
M  END
> <chiral flag>
0

> <version>
0

> <s_m_source_file>
/data/baiqing/PycharmProjects/Reinvent-master-3.2/result/LINK_invent/BTK/process_docking_weight1_custom_sum_contain_oxygen_bond_distance_aromatic_linkinvent_7_9_3/rearranged_h_0112.sdf

> <i_m_source_file_index>
25

> <r_mmod_Potential_Energy-OPLS-2005>
817.455444335938

> <r_mmod_Stretch_Energy-OPLS-2005>
410.157257080078

> <r_mmod_Bend_Energy-OPLS-2005>
388.965515136719

> <r_mmod_Torsional_Energy-OPLS-2005>
241.642471313477

> <r_mmod_Improper_Torsional_Energy-OPLS-2005>
4.1474814414978

> <r_mmod_Van_der_Waal_Energy-OPLS-2005>
112.861526489258

> <r_mmod_Electrostatic_Energy-OPLS-2005>
-223.860961914062

> <r_mmod_Solvation_Energy-OPLS-2005>
-446.492797851562

> <b_mmod_Minimization_Converged-OPLS-2005>
0

> <r_mmod_RMS_Derivative-OPLS-2005>
1.36846733093262

$$$$
25
                    3D
 Structure written by MMmdl.
170178  0  0  1  0            999 V2000
  -30.7775  -14.4323   20.5993 C   0  0  0  0  0  0
  -30.4139  -12.2912   19.4333 C   0  0  0  0  0  0
  -29.5033  -12.4939   18.2082 C   0  0  0  0  0  0
  -28.0329  -12.3231   18.6294 C   0  0  0  0  0  0
  -27.6557  -13.2022   19.8479 C   0  0  2  0  0  0
  -28.6937  -13.0443   20.9850 C   0  0  0  0  0  0
  -25.2339  -13.8051   20.5023 C   0  0  0  0  0  0
  -24.1776  -13.0364   20.9190 C   0  0  0  0  0  0
  -24.6392  -11.6887   20.8877 C   0  0  0  0  0  0
  -23.9066  -10.4262   21.0510 C   0  0  0  0  0  0
  -24.3608   -9.4139   21.9244 C   0  0  0  0  0  0
  -23.6243   -8.2201   22.0783 C   0  0  0  0  0  0
  -22.4246   -8.0265   21.3549 C   0  0  0  0  0  0
  -21.9903   -9.0274   20.4678 C   0  0  0  0  0  0
  -22.7263  -10.2135   20.3107 C   0  0  0  0  0  0
  -21.6806   -6.0718   22.5283 C   0  0  0  0  0  0
  -21.4020   -6.5622   23.8229 C   0  0  0  0  0  0
  -21.3663   -5.6763   24.9170 C   0  0  0  0  0  0
  -21.6062   -4.3039   24.7228 C   0  0  0  0  0  0
  -21.8790   -3.8139   23.4334 C   0  0  0  0  0  0
  -21.9185   -4.6963   22.3394 C   0  0  0  0  0  0
  -22.7806  -13.5175   21.1846 C   0  0  0  0  0  0
  -22.1651   -4.2149   21.0969 F   0  0  0  0  0  0
  -21.5653   -3.4529   25.7736 F   0  0  0  0  0  0
  -30.0388  -13.3013   20.4355 N   0  0  0  0  0  0
  -26.2947  -12.9301   20.3149 N   0  0  0  0  0  0
  -25.9345  -11.6498   20.5916 N   0  0  0  0  0  0
  -22.0449  -12.8198   22.0410 N   0  0  0  0  0  0
  -25.3543  -15.1571   20.2163 N   0  0  0  0  0  0
  -31.8717  -14.6173   20.0637 O   0  0  0  0  0  0
  -21.6596   -6.8873   21.4235 O   0  0  0  0  0  0
  -22.3495  -14.5482   20.6690 O   0  0  0  0  0  0
  -24.6210  -31.8679   23.2110 C   0  0  0  0  0  0
  -25.9091  -32.4818   23.8423 C   0  0  1  0  0  0
  -27.2014  -27.3927   20.1049 C   0  0  0  0  0  0
  -25.5934  -33.8631   24.2340 N   0  0  0  0  0  0
  -23.4067  -30.4995   21.5536 C   0  0  2  0  0  0
  -24.8479  -28.9746   20.1068 C   0  0  0  0  0  0
  -22.7422  -29.4685   22.4947 C   0  0  0  0  0  0
  -18.0281  -28.1428   22.8479 C   0  0  0  0  0  0
  -24.1492  -36.7315   23.2642 C   0  0  0  0  0  0
  -25.9462  -30.8223   21.3749 C   0  0  0  0  0  0
  -26.0134  -29.4595   20.7147 C   0  0  0  0  0  0
  -27.1977  -28.6764   20.7051 C   0  0  0  0  0  0
  -26.0246  -26.9589   19.4539 C   0  0  0  0  0  0
  -24.8526  -27.7275   19.4684 C   0  0  0  0  0  0
  -23.6127  -29.8452   20.1652 C   0  0  0  0  0  0
  -25.4114  -36.3106   24.0354 C   0  0  1  0  0  0
  -20.5857  -28.3731   23.1286 C   0  0  2  0  0  0
  -20.6751  -26.9446   22.5452 C   0  0  0  0  0  0
  -19.5706  -26.6290   21.5327 C   0  0  0  0  0  0
  -18.1905  -26.7921   22.1728 C   0  0  0  0  0  0
  -19.1520  -28.8912   23.2851 C   0  0  0  0  0  0
  -18.9459  -30.1528   23.8829 C   0  0  0  0  0  0
  -17.6446  -30.6607   24.0568 C   0  0  0  0  0  0
  -25.9055  -34.9477   23.5138 C   0  0  0  0  0  0
  -16.5343  -29.9087   23.6332 C   0  0  0  0  0  0
  -16.7266  -28.6537   23.0321 C   0  0  0  0  0  0
  -26.4501  -31.6578   25.0739 C   0  0  0  0  0  0
  -25.3774  -31.3704   26.1491 C   0  0  0  0  0  0
  -27.0315  -30.2988   24.6140 C   0  0  0  0  0  0
  -27.6050  -32.4323   25.7501 C   0  0  0  0  0  0
  -27.5580  -37.1805   24.8456 C   0  0  0  0  0  0
  -21.4141  -29.3071   22.3676 N   0  0  0  0  0  0
  -26.4292  -37.3785   23.9404 N   0  0  0  0  0  0
  -24.6768  -31.0812   22.1007 N   0  0  0  0  0  0
  -23.4186  -28.8218   23.2995 O   0  0  0  0  0  0
  -28.3156  -26.5692   20.1611 O   0  0  0  0  0  0
  -26.5615  -34.8932   22.4678 O   0  0  0  0  0  0
  -23.5366  -32.1450   23.7459 O   0  0  0  0  0  0
  -26.7271  -20.5615   21.4152 C   0  0  0  0  0  0
  -27.0726  -21.7312   20.4851 C   0  0  0  0  0  0
  -28.9606  -20.4770   20.5697 C   0  0  0  0  0  0
  -28.0652  -19.8310   21.6481 C   0  0  2  0  0  0
  -27.3510  -18.5291   24.1733 C   0  0  0  0  0  0
  -26.8852  -16.3517   23.0047 C   0  0  0  0  0  0
  -29.2977  -24.2641   20.3527 C   0  0  0  0  0  0
  -29.1360  -22.8261   19.7588 C   0  0  0  0  0  0
  -29.3242  -16.3641   20.8928 C   0  0  0  0  0  0
  -29.2585  -17.6154   21.8006 C   0  0  0  0  0  0
  -28.0348  -25.1565   20.3840 C   0  0  0  0  0  0
  -27.0023  -17.8889   22.8059 C   0  0  0  0  0  0
  -28.5109  -21.8722   20.6788 N   0  0  0  0  0  0
  -30.2904  -15.3870   21.3949 N   0  0  0  0  0  0
  -27.9483  -18.3289   21.7086 N   0  3  1  0  0  0
  -31.4711  -12.3416   19.1565 H   0  0  0  0  0  0
  -30.2766  -11.2925   19.8474 H   0  0  0  0  0  0
  -29.7586  -11.7811   17.4230 H   0  0  0  0  0  0
  -29.6564  -13.4844   17.7812 H   0  0  0  0  0  0
  -27.8939  -11.2774   18.8977 H   0  0  0  0  0  0
  -27.3664  -12.5188   17.7881 H   0  0  0  0  0  0
  -27.6817  -14.2295   19.4916 H   0  0  0  0  0  0
  -28.6524  -12.0384   21.4010 H   0  0  0  0  0  0
  -28.4443  -13.7115   21.8094 H   0  0  0  0  0  0
  -25.2752   -9.5543   22.4820 H   0  0  0  0  0  0
  -23.9924   -7.4537   22.7440 H   0  0  0  0  0  0
  -21.0876   -8.8795   19.8930 H   0  0  0  0  0  0
  -22.3772  -10.9688   19.6209 H   0  0  0  0  0  0
  -21.2009   -7.6136   23.9738 H   0  0  0  0  0  0
  -21.1535   -6.0496   25.9082 H   0  0  0  0  0  0
  -22.0562   -2.7621   23.2823 H   0  0  0  0  0  0
  -22.4024  -11.9835   22.4785 H   0  0  0  0  0  0
  -21.1088  -13.1309   22.2585 H   0  0  0  0  0  0
  -24.5547  -15.7773   20.2891 H   0  0  0  0  0  0
  -26.0795  -15.5151   19.6072 H   0  0  0  0  0  0
  -26.7190  -32.5486   23.1198 H   0  0  0  0  0  0
  -25.0034  -33.9840   25.0455 H   0  0  0  0  0  0
  -22.6947  -31.3181   21.4161 H   0  0  0  0  0  0
  -23.3740  -35.9652   23.3307 H   0  0  0  0  0  0
  -24.3560  -36.8915   22.2045 H   0  0  0  0  0  0
  -23.7306  -37.6556   23.6634 H   0  0  0  0  0  0
  -26.0773  -31.5925   20.6143 H   0  0  0  0  0  0
  -26.8313  -30.8539   21.9986 H   0  0  0  0  0  0
  -28.0941  -29.0428   21.1851 H   0  0  0  0  0  0
  -25.9795  -26.0324   18.9055 H   0  0  0  0  0  0
  -23.9677  -27.3506   18.9777 H   0  0  0  0  0  0
  -23.7286  -30.6267   19.4134 H   0  0  0  0  0  0
  -22.7323  -29.2731   19.8692 H   0  0  0  0  0  0
  -25.1282  -36.1937   25.0855 H   0  0  0  0  0  0
  -20.9942  -28.3302   24.1410 H   0  0  0  0  0  0
  -21.6614  -26.7479   22.1255 H   0  0  0  0  0  0
  -20.5694  -26.2402   23.3701 H   0  0  0  0  0  0
  -19.6869  -25.6117   21.1539 H   0  0  0  0  0  0
  -19.6616  -27.2939   20.6740 H   0  0  0  0  0  0
  -17.4104  -26.6492   21.4237 H   0  0  0  0  0  0
  -18.0426  -26.0224   22.9272 H   0  0  0  0  0  0
  -19.7965  -30.7387   24.2038 H   0  0  0  0  0  0
  -17.5019  -31.6295   24.5133 H   0  0  0  0  0  0
  -15.5336  -30.2970   23.7707 H   0  0  0  0  0  0
  -15.8642  -28.0861   22.7056 H   0  0  0  0  0  0
  -24.5918  -30.7088   25.7821 H   0  0  0  0  0  0
  -24.9047  -32.2892   26.4961 H   0  0  0  0  0  0
  -25.8185  -30.8830   27.0203 H   0  0  0  0  0  0
  -26.2870  -29.6743   24.1192 H   0  0  0  0  0  0
  -27.4043  -29.7214   25.4614 H   0  0  0  0  0  0
  -27.8712  -30.4257   23.9311 H   0  0  0  0  0  0
  -27.2628  -33.3571   26.2148 H   0  0  0  0  0  0
  -28.3830  -32.7003   25.0343 H   0  0  0  0  0  0
  -28.0739  -31.8421   26.5375 H   0  0  0  0  0  0
  -28.2592  -38.0102   24.7477 H   0  0  0  0  0  0
  -28.1107  -36.2643   24.6301 H   0  0  0  0  0  0
  -27.2289  -37.1459   25.8858 H   0  0  0  0  0  0
  -20.9238  -29.8888   21.7019 H   0  0  0  0  0  0
  -26.0165  -38.2852   24.1394 H   0  0  0  0  0  0
  -25.9643  -19.9309   20.9563 H   0  0  0  0  0  0
  -26.3287  -20.9303   22.3602 H   0  0  0  0  0  0
  -26.5094  -22.6395   20.7034 H   0  0  0  0  0  0
  -26.8589  -21.4540   19.4484 H   0  0  0  0  0  0
  -28.7632  -20.0706   19.5712 H   0  0  0  0  0  0
  -30.0260  -20.3733   20.7766 H   0  0  0  0  0  0
  -28.4897  -20.1706   22.5953 H   0  0  0  0  0  0
  -26.8420  -18.0414   25.0052 H   0  0  0  0  0  0
  -27.0696  -19.5815   24.2047 H   0  0  0  0  0  0
  -28.4209  -18.4637   24.3846 H   0  0  0  0  0  0
  -26.1142  -16.0869   23.7309 H   0  0  0  0  0  0
  -27.8070  -15.8693   23.3268 H   0  0  0  0  0  0
  -26.6024  -15.8536   22.0981 H   0  0  0  0  0  0
  -30.0135  -24.7816   19.7186 H   0  0  0  0  0  0
  -29.7646  -24.2276   21.3383 H   0  0  0  0  0  0
  -30.1409  -22.4549   19.5496 H   0  0  0  0  0  0
  -28.6197  -22.8409   18.7965 H   0  0  0  0  0  0
  -29.6202  -16.6835   19.8915 H   0  0  0  0  0  0
  -28.3552  -15.8875   20.7889 H   0  0  0  0  0  0
  -30.0725  -18.2762   21.5187 H   0  0  0  0  0  0
  -29.4763  -17.3555   22.8365 H   0  0  0  0  0  0
  -27.3522  -24.7436   19.6446 H   0  0  0  0  0  0
  -27.5309  -25.0335   21.3461 H   0  0  0  0  0  0
  -26.0055  -18.2274   22.5125 H   0  0  0  0  0  0
  -31.0465  -15.8596   21.8656 H   0  0  0  0  0  0
  -27.5514  -18.0529   20.8186 H   0  0  0  0  0  0
  1 25  1  0  0  0
  1 30  2  0  0  0
  1 84  1  0  0  0
  2  3  1  0  0  0
  2 25  1  0  0  0
  2 86  1  0  0  0
  2 87  1  0  0  0
  3  4  1  0  0  0
  3 88  1  0  0  0
  3 89  1  0  0  0
  4  5  1  0  0  0
  4 90  1  0  0  0
  4 91  1  0  0  0
  5  6  1  0  0  0
  5 26  1  0  0  0
  5 92  1  0  0  0
  6 25  1  0  0  0
  6 93  1  0  0  0
  6 94  1  0  0  0
  7  8  2  0  0  0
  7 26  1  0  0  0
  7 29  1  0  0  0
  8  9  1  0  0  0
  8 22  1  0  0  0
  9 10  1  0  0  0
  9 27  2  0  0  0
 10 11  2  0  0  0
 10 15  1  0  0  0
 11 12  1  0  0  0
 11 95  1  0  0  0
 12 13  2  0  0  0
 12 96  1  0  0  0
 13 14  1  0  0  0
 13 31  1  0  0  0
 14 15  2  0  0  0
 14 97  1  0  0  0
 15 98  1  0  0  0
 16 17  2  0  0  0
 16 21  1  0  0  0
 16 31  1  0  0  0
 17 18  1  0  0  0
 17 99  1  0  0  0
 18 19  2  0  0  0
 18100  1  0  0  0
 19 20  1  0  0  0
 19 24  1  0  0  0
 20 21  2  0  0  0
 20101  1  0  0  0
 21 23  1  0  0  0
 22 28  1  0  0  0
 22 32  2  0  0  0
 26 27  1  0  0  0
 28102  1  0  0  0
 28103  1  0  0  0
 29104  1  0  0  0
 29105  1  0  0  0
 33 34  1  0  0  0
 33 66  1  0  0  0
 33 70  2  0  0  0
 34 36  1  0  0  0
 34 59  1  0  0  0
 34106  1  0  0  0
 35 44  2  0  0  0
 35 45  1  0  0  0
 35 68  1  0  0  0
 36 56  1  0  0  0
 36107  1  0  0  0
 37 39  1  0  0  0
 37 47  1  0  0  0
 37 66  1  0  0  0
 37108  1  0  0  0
 38 43  2  0  0  0
 38 46  1  0  0  0
 38 47  1  0  0  0
 39 64  1  0  0  0
 39 67  2  0  0  0
 40 52  1  0  0  0
 40 53  2  0  0  0
 40 58  1  0  0  0
 41109  1  0  0  0
 41110  1  0  0  0
 41111  1  0  0  0
 41 48  1  0  0  0
 42 43  1  0  0  0
 42 66  1  0  0  0
 42112  1  0  0  0
 42113  1  0  0  0
 43 44  1  0  0  0
 44114  1  0  0  0
 45 46  2  0  0  0
 45115  1  0  0  0
 46116  1  0  0  0
 47117  1  0  0  0
 47118  1  0  0  0
 48 56  1  0  0  0
 48 65  1  0  0  0
 48119  1  0  0  0
 49 50  1  0  0  0
 49 53  1  0  0  0
 49 64  1  0  0  0
 49120  1  0  0  0
 50 51  1  0  0  0
 50121  1  0  0  0
 50122  1  0  0  0
 51 52  1  0  0  0
 51123  1  0  0  0
 51124  1  0  0  0
 52125  1  0  0  0
 52126  1  0  0  0
 53 54  1  0  0  0
 54 55  2  0  0  0
 54127  1  0  0  0
 55 57  1  0  0  0
 55128  1  0  0  0
 56 69  2  0  0  0
 57 58  2  0  0  0
 57129  1  0  0  0
 58130  1  0  0  0
 59 60  1  0  0  0
 59 61  1  0  0  0
 59 62  1  0  0  0
 60131  1  0  0  0
 60132  1  0  0  0
 60133  1  0  0  0
 61134  1  0  0  0
 61135  1  0  0  0
 61136  1  0  0  0
 62137  1  0  0  0
 62138  1  0  0  0
 62139  1  0  0  0
 63 65  1  0  0  0
 63140  1  0  0  0
 63141  1  0  0  0
 63142  1  0  0  0
 64143  1  0  0  0
 65144  1  0  0  0
 68 81  1  0  0  0
 71 72  1  0  0  0
 71145  1  0  0  0
 71146  1  0  0  0
 71 74  1  0  0  0
 72 83  1  0  0  0
 72147  1  0  0  0
 72148  1  0  0  0
 73 74  1  0  0  0
 73 83  1  0  0  0
 73149  1  0  0  0
 73150  1  0  0  0
 74 85  1  0  0  0
 74151  1  0  0  0
 75152  1  0  0  0
 75153  1  0  0  0
 75154  1  0  0  0
 75 82  1  0  0  0
 76 82  1  0  0  0
 76155  1  0  0  0
 76156  1  0  0  0
 76157  1  0  0  0
 77 78  1  0  0  0
 77 81  1  0  0  0
 77158  1  0  0  0
 77159  1  0  0  0
 78 83  1  0  0  0
 78160  1  0  0  0
 78161  1  0  0  0
 79 80  1  0  0  0
 79 84  1  0  0  0
 79162  1  0  0  0
 79163  1  0  0  0
 80164  1  0  0  0
 80165  1  0  0  0
 80 85  1  0  0  0
 81166  1  0  0  0
 81167  1  0  0  0
 82 85  1  0  0  0
 82168  1  0  0  0
 84169  1  0  0  0
 85170  1  0  0  0
M  CHG  1  85   1
M  ISO  4   1 100  68 101  81 101  84 100
M  END
> <chiral flag>
0

> <version>
0

> <s_m_source_file>
/data/baiqing/PycharmProjects/Reinvent-master-3.2/result/LINK_invent/BTK/process_docking_weight1_custom_sum_contain_oxygen_bond_distance_aromatic_linkinvent_7_9_3/rearranged_h_0112.sdf

> <i_m_source_file_index>
26

> <r_mmod_Potential_Energy-OPLS-2005>
75.976432800293

> <r_mmod_Stretch_Energy-OPLS-2005>
45.5864677429199

> <r_mmod_Bend_Energy-OPLS-2005>
157.099960327148

> <r_mmod_Torsional_Energy-OPLS-2005>
372.075958251953

> <r_mmod_Improper_Torsional_Energy-OPLS-2005>
8.40676212310791

> <r_mmod_Van_der_Waal_Energy-OPLS-2005>
152.858001708984

> <r_mmod_Electrostatic_Energy-OPLS-2005>
-236.453002929688

> <r_mmod_Solvation_Energy-OPLS-2005>
-449.756317138672

> <b_mmod_Minimization_Converged-OPLS-2005>
0

> <r_mmod_RMS_Derivative-OPLS-2005>
7.88962078094482

$$$$
26
                    3D
 Structure written by MMmdl.
161169  0  0  1  0            999 V2000
  -30.6636  -14.6502   20.4995 C   0  0  0  0  0  0
  -30.4275  -12.4048   19.4557 C   0  0  0  0  0  0
  -29.5026  -12.5046   18.2239 C   0  0  0  0  0  0
  -28.0267  -12.3464   18.6352 C   0  0  0  0  0  0
  -27.6468  -13.2290   19.8552 C   0  0  2  0  0  0
  -28.6938  -13.1244   20.9860 C   0  0  0  0  0  0
  -25.2539  -13.8203   20.5693 C   0  0  0  0  0  0
  -24.1820  -13.0451   20.9206 C   0  0  0  0  0  0
  -24.6409  -11.6936   20.8758 C   0  0  0  0  0  0
  -23.9085  -10.4304   21.0417 C   0  0  0  0  0  0
  -24.3629   -9.4211   21.9192 C   0  0  0  0  0  0
  -23.6301   -8.2244   22.0753 C   0  0  0  0  0  0
  -22.4282   -8.0292   21.3542 C   0  0  0  0  0  0
  -21.9926   -9.0269   20.4642 C   0  0  0  0  0  0
  -22.7261  -10.2148   20.3060 C   0  0  0  0  0  0
  -21.6855   -6.0749   22.5284 C   0  0  0  0  0  0
  -21.4011   -6.5647   23.8220 C   0  0  0  0  0  0
  -21.3656   -5.6792   24.9177 C   0  0  0  0  0  0
  -21.6042   -4.3056   24.7223 C   0  0  0  0  0  0
  -21.8819   -3.8157   23.4342 C   0  0  0  0  0  0
  -21.9193   -4.6976   22.3405 C   0  0  0  0  0  0
  -22.7838  -13.5238   21.1866 C   0  0  0  0  0  0
  -22.1665   -4.2165   21.0980 F   0  0  0  0  0  0
  -21.5625   -3.4541   25.7734 F   0  0  0  0  0  0
  -30.0046  -13.4517   20.4080 N   0  0  0  0  0  0
  -26.2960  -12.9407   20.3296 N   0  0  0  0  0  0
  -25.9338  -11.6557   20.5764 N   0  0  0  0  0  0
  -22.0480  -12.8218   22.0415 N   0  0  0  0  0  0
  -25.4235  -15.1921   20.4089 N   0  0  0  0  0  0
  -31.8440  -14.7341   20.1567 O   0  0  0  0  0  0
  -21.6641   -6.8896   21.4247 O   0  0  0  0  0  0
  -22.3528  -14.5550   20.6731 O   0  0  0  0  0  0
  -24.6304  -31.8601   23.2035 C   0  0  0  0  0  0
  -25.9148  -32.4762   23.8348 C   0  0  1  0  0  0
  -27.2058  -27.2898   20.1175 C   0  0  0  0  0  0
  -25.5957  -33.8573   24.2276 N   0  0  0  0  0  0
  -23.4226  -30.4901   21.5455 C   0  0  2  0  0  0
  -24.8683  -28.9539   20.1007 C   0  0  0  0  0  0
  -22.7481  -29.4655   22.4898 C   0  0  0  0  0  0
  -18.0299  -28.1380   22.8450 C   0  0  0  0  0  0
  -24.1494  -36.7311   23.2636 C   0  0  0  0  0  0
  -25.9702  -30.7784   21.3852 C   0  0  0  0  0  0
  -26.0400  -29.4079   20.7204 C   0  0  0  0  0  0
  -27.2116  -28.5865   20.7251 C   0  0  0  0  0  0
  -26.0261  -26.9288   19.4226 C   0  0  0  0  0  0
  -24.8677  -27.7208   19.4399 C   0  0  0  0  0  0
  -23.6369  -29.8350   20.1582 C   0  0  0  0  0  0
  -25.4118  -36.3092   24.0326 C   0  0  1  0  0  0
  -20.5899  -28.3712   23.1227 C   0  0  2  0  0  0
  -20.6795  -26.9426   22.5381 C   0  0  0  0  0  0
  -19.5779  -26.6374   21.5189 C   0  0  0  0  0  0
  -18.1954  -26.7915   22.1598 C   0  0  0  0  0  0
  -19.1552  -28.8856   23.2833 C   0  0  0  0  0  0
  -18.9488  -30.1448   23.8863 C   0  0  0  0  0  0
  -17.6489  -30.6576   24.0552 C   0  0  0  0  0  0
  -25.9056  -34.9456   23.5105 C   0  0  0  0  0  0
  -16.5373  -29.9076   23.6334 C   0  0  0  0  0  0
  -16.7291  -28.6506   23.0335 C   0  0  0  0  0  0
  -26.4508  -31.6580   25.0736 C   0  0  0  0  0  0
  -25.3720  -31.3726   26.1446 C   0  0  0  0  0  0
  -27.0359  -30.2986   24.6244 C   0  0  0  0  0  0
  -27.6057  -32.4338   25.7504 C   0  0  0  0  0  0
  -27.5588  -37.1808   24.8458 C   0  0  0  0  0  0
  -21.4197  -29.3079   22.3629 N   0  0  0  0  0  0
  -26.4305  -37.3782   23.9402 N   0  0  0  0  0  0
  -24.6931  -31.0590   22.1007 N   0  0  0  0  0  0
  -23.4195  -28.8189   23.2976 O   0  0  0  0  0  0
  -28.2632  -26.3560   20.2244 O   0  0  0  0  0  0
  -26.5621  -34.8928   22.4668 O   0  0  0  0  0  0
  -23.5468  -32.1427   23.7359 O   0  0  0  0  0  0
  -29.1866  -20.9887   20.4541 C   0  0  0  0  0  0
  -28.9063  -22.2218   22.4996 C   0  0  0  0  0  0
  -29.0121  -22.2764   21.0915 C   0  0  0  0  0  0
  -29.1753  -19.7518   21.2037 C   0  0  0  0  0  0
  -28.9575  -19.8880   22.5976 C   0  0  0  0  0  0
  -28.7203  -18.7079   23.5296 C   0  0  0  0  0  0
  -31.6866  -17.6408   20.5245 C   0  0  0  0  0  0
  -27.2005  -24.8901   21.8938 C   0  0  0  0  0  0
  -28.9139  -23.6738   20.3161 C   0  0  0  0  0  0
  -29.2279  -18.3186   20.5365 C   0  0  0  0  0  0
  -30.2918  -17.2308   21.0341 C   0  0  1  0  0  0
  -27.8857  -24.9258   20.5097 C   0  0  2  0  0  0
  -28.8707  -21.0823   23.2155 N   0  0  0  0  0  0
  -29.9231  -15.7705   20.8034 N   0  0  0  0  0  0
  -31.4690  -12.5150   19.1488 H   0  0  0  0  0  0
  -30.3576  -11.4199   19.9196 H   0  0  0  0  0  0
  -29.7698  -11.7449   17.4884 H   0  0  0  0  0  0
  -29.6427  -13.4697   17.7328 H   0  0  0  0  0  0
  -27.8634  -11.2951   18.8708 H   0  0  0  0  0  0
  -27.3737  -12.5710   17.7908 H   0  0  0  0  0  0
  -27.6538  -14.2579   19.4968 H   0  0  0  0  0  0
  -28.7079  -12.1171   21.4065 H   0  0  0  0  0  0
  -28.4429  -13.7918   21.8122 H   0  0  0  0  0  0
  -25.2772   -9.5686   22.4770 H   0  0  0  0  0  0
  -24.0017   -7.4634   22.7464 H   0  0  0  0  0  0
  -21.0861   -8.8786   19.8944 H   0  0  0  0  0  0
  -22.3722  -10.9687   19.6167 H   0  0  0  0  0  0
  -21.2002   -7.6155   23.9727 H   0  0  0  0  0  0
  -21.1475   -6.0523   25.9079 H   0  0  0  0  0  0
  -22.0600   -2.7621   23.2833 H   0  0  0  0  0  0
  -22.4105  -11.9874   22.4782 H   0  0  0  0  0  0
  -21.1095  -13.1231   22.2621 H   0  0  0  0  0  0
  -24.6532  -15.8448   20.5073 H   0  0  0  0  0  0
  -26.2654  -15.6252   20.0522 H   0  0  0  0  0  0
  -26.7218  -32.5417   23.1098 H   0  0  0  0  0  0
  -25.0100  -33.9706   25.0424 H   0  0  0  0  0  0
  -22.7189  -31.3141   21.4043 H   0  0  0  0  0  0
  -23.3755  -35.9649   23.3302 H   0  0  0  0  0  0
  -24.3585  -36.8939   22.2057 H   0  0  0  0  0  0
  -23.7271  -37.6521   23.6659 H   0  0  0  0  0  0
  -26.1136  -31.5428   20.6197 H   0  0  0  0  0  0
  -26.8470  -30.8159   22.0195 H   0  0  0  0  0  0
  -28.0993  -28.9189   21.2471 H   0  0  0  0  0  0
  -25.9574  -26.0170   18.8521 H   0  0  0  0  0  0
  -23.9801  -27.3811   18.9236 H   0  0  0  0  0  0
  -23.7553  -30.6167   19.4066 H   0  0  0  0  0  0
  -22.7529  -29.2700   19.8540 H   0  0  0  0  0  0
  -25.1295  -36.1940   25.0822 H   0  0  0  0  0  0
  -20.9985  -28.3317   24.1353 H   0  0  0  0  0  0
  -20.5690  -26.2333   23.3602 H   0  0  0  0  0  0
  -21.6670  -26.7459   22.1183 H   0  0  0  0  0  0
  -19.6957  -25.6286   21.1232 H   0  0  0  0  0  0
  -19.6717  -27.3167   20.6701 H   0  0  0  0  0  0
  -17.4222  -26.6658   21.3992 H   0  0  0  0  0  0
  -18.0359  -26.0043   22.8978 H   0  0  0  0  0  0
  -19.7969  -30.7245   24.2220 H   0  0  0  0  0  0
  -17.5067  -31.6249   24.5176 H   0  0  0  0  0  0
  -15.5386  -30.2980   23.7678 H   0  0  0  0  0  0
  -15.8685  -28.0829   22.7052 H   0  0  0  0  0  0
  -24.5952  -30.6998   25.7791 H   0  0  0  0  0  0
  -24.8819  -32.2871   26.4798 H   0  0  0  0  0  0
  -25.8023  -30.8990   27.0276 H   0  0  0  0  0  0
  -26.2950  -29.6711   24.1259 H   0  0  0  0  0  0
  -27.4022  -29.7258   25.4773 H   0  0  0  0  0  0
  -27.8836  -30.4242   23.9495 H   0  0  0  0  0  0
  -27.2677  -33.3685   26.1996 H   0  0  0  0  0  0
  -28.3890  -32.6835   25.0331 H   0  0  0  0  0  0
  -28.0678  -31.8508   26.5480 H   0  0  0  0  0  0
  -28.2588  -38.0118   24.7523 H   0  0  0  0  0  0
  -28.1098  -36.2651   24.6260 H   0  0  0  0  0  0
  -27.2289  -37.1438   25.8852 H   0  0  0  0  0  0
  -20.9380  -29.8842   21.6873 H   0  0  0  0  0  0
  -26.0185  -38.2859   24.1391 H   0  0  0  0  0  0
  -29.2775  -20.9511   19.3769 H   0  0  0  0  0  0
  -28.8109  -23.1164   23.0945 H   0  0  0  0  0  0
  -29.6541  -18.3627   23.9728 H   0  0  0  0  0  0
  -28.2393  -17.8745   23.0183 H   0  0  0  0  0  0
  -28.0584  -18.9881   24.3503 H   0  0  0  0  0  0
  -31.8911  -18.6870   20.7587 H   0  0  0  0  0  0
  -31.7668  -17.5269   19.4429 H   0  0  0  0  0  0
  -32.4824  -17.0619   20.9927 H   0  0  0  0  0  0
  -26.7518  -23.9154   22.0856 H   0  0  0  0  0  0
  -26.3926  -25.6151   21.9811 H   0  0  0  0  0  0
  -27.9126  -25.1091   22.6885 H   0  0  0  0  0  0
  -29.5562  -24.0423   21.1158 H   0  0  0  0  0  0
  -27.9903  -23.0938   20.2589 H   0  0  0  0  0  0
  -29.3557  -18.4546   19.4615 H   0  0  0  0  0  0
  -28.2280  -17.8967   20.6406 H   0  0  0  0  0  0
  -30.3512  -17.2835   22.1170 H   0  0  0  0  0  0
  -27.0967  -24.6945   19.7998 H   0  0  0  0  0  0
  -28.9552  -15.5553   20.9887 H   0  0  0  0  0  0
  1 25  1  0  0  0
  1 30  2  0  0  0
  1 84  1  0  0  0
  2  3  1  0  0  0
  2 25  1  0  0  0
  2 85  1  0  0  0
  2 86  1  0  0  0
  3  4  1  0  0  0
  3 87  1  0  0  0
  3 88  1  0  0  0
  4  5  1  0  0  0
  4 89  1  0  0  0
  4 90  1  0  0  0
  5  6  1  0  0  0
  5 26  1  0  0  0
  5 91  1  0  0  0
  6 25  1  0  0  0
  6 92  1  0  0  0
  6 93  1  0  0  0
  7  8  2  0  0  0
  7 26  1  0  0  0
  7 29  1  0  0  0
  8  9  1  0  0  0
  8 22  1  0  0  0
  9 10  1  0  0  0
  9 27  2  0  0  0
 10 11  2  0  0  0
 10 15  1  0  0  0
 11 12  1  0  0  0
 11 94  1  0  0  0
 12 13  2  0  0  0
 12 95  1  0  0  0
 13 14  1  0  0  0
 13 31  1  0  0  0
 14 15  2  0  0  0
 14 96  1  0  0  0
 15 97  1  0  0  0
 16 17  2  0  0  0
 16 21  1  0  0  0
 16 31  1  0  0  0
 17 18  1  0  0  0
 17 98  1  0  0  0
 18 19  2  0  0  0
 18 99  1  0  0  0
 19 20  1  0  0  0
 19 24  1  0  0  0
 20 21  2  0  0  0
 20100  1  0  0  0
 21 23  1  0  0  0
 22 28  1  0  0  0
 22 32  2  0  0  0
 26 27  1  0  0  0
 28101  1  0  0  0
 28102  1  0  0  0
 29103  1  0  0  0
 29104  1  0  0  0
 33 34  1  0  0  0
 33 66  1  0  0  0
 33 70  2  0  0  0
 34 36  1  0  0  0
 34 59  1  0  0  0
 34105  1  0  0  0
 35 44  2  0  0  0
 35 45  1  0  0  0
 35 68  1  0  0  0
 36 56  1  0  0  0
 36106  1  0  0  0
 37 39  1  0  0  0
 37 47  1  0  0  0
 37 66  1  0  0  0
 37107  1  0  0  0
 38 43  2  0  0  0
 38 46  1  0  0  0
 38 47  1  0  0  0
 39 64  1  0  0  0
 39 67  2  0  0  0
 40 52  1  0  0  0
 40 53  2  0  0  0
 40 58  1  0  0  0
 41108  1  0  0  0
 41109  1  0  0  0
 41110  1  0  0  0
 41 48  1  0  0  0
 42 43  1  0  0  0
 42 66  1  0  0  0
 42111  1  0  0  0
 42112  1  0  0  0
 43 44  1  0  0  0
 44113  1  0  0  0
 45 46  2  0  0  0
 45114  1  0  0  0
 46115  1  0  0  0
 47116  1  0  0  0
 47117  1  0  0  0
 48 56  1  0  0  0
 48 65  1  0  0  0
 48118  1  0  0  0
 49 50  1  0  0  0
 49 53  1  0  0  0
 49 64  1  0  0  0
 49119  1  0  0  0
 50 51  1  0  0  0
 50120  1  0  0  0
 50121  1  0  0  0
 51 52  1  0  0  0
 51122  1  0  0  0
 51123  1  0  0  0
 52124  1  0  0  0
 52125  1  0  0  0
 53 54  1  0  0  0
 54 55  2  0  0  0
 54126  1  0  0  0
 55 57  1  0  0  0
 55127  1  0  0  0
 56 69  2  0  0  0
 57 58  2  0  0  0
 57128  1  0  0  0
 58129  1  0  0  0
 59 60  1  0  0  0
 59 61  1  0  0  0
 59 62  1  0  0  0
 60130  1  0  0  0
 60131  1  0  0  0
 60132  1  0  0  0
 61133  1  0  0  0
 61134  1  0  0  0
 61135  1  0  0  0
 62136  1  0  0  0
 62137  1  0  0  0
 62138  1  0  0  0
 63 65  1  0  0  0
 63139  1  0  0  0
 63140  1  0  0  0
 63141  1  0  0  0
 64142  1  0  0  0
 65143  1  0  0  0
 68 82  1  0  0  0
 71 73  2  0  0  0
 71 74  1  0  0  0
 71144  1  0  0  0
 72 73  1  0  0  0
 72 83  2  0  0  0
 72145  1  0  0  0
 73 79  1  0  0  0
 74 75  2  0  0  0
 74 80  1  0  0  0
 75 76  1  0  0  0
 75 83  1  0  0  0
 76146  1  0  0  0
 76147  1  0  0  0
 76148  1  0  0  0
 77149  1  0  0  0
 77150  1  0  0  0
 77151  1  0  0  0
 77 81  1  0  0  0
 78152  1  0  0  0
 78153  1  0  0  0
 78154  1  0  0  0
 78 82  1  0  0  0
 79 82  1  0  0  0
 79155  1  0  0  0
 79156  1  0  0  0
 80 81  1  0  0  0
 80157  1  0  0  0
 80158  1  0  0  0
 81 84  1  0  0  0
 81159  1  0  0  0
 82160  1  0  0  0
 84161  1  0  0  0
M  ISO  4   1 100  68 101  82 101  84 100
M  END
> <chiral flag>
0

> <version>
0

> <s_m_source_file>
/data/baiqing/PycharmProjects/Reinvent-master-3.2/result/LINK_invent/BTK/process_docking_weight1_custom_sum_contain_oxygen_bond_distance_aromatic_linkinvent_7_9_3/rearranged_h_0112.sdf

> <i_m_source_file_index>
27

> <r_mmod_Potential_Energy-OPLS-2005>
144.542984008789

> <r_mmod_Stretch_Energy-OPLS-2005>
109.73860168457

> <r_mmod_Bend_Energy-OPLS-2005>
372.125946044922

> <r_mmod_Torsional_Energy-OPLS-2005>
212.710510253906

> <r_mmod_Improper_Torsional_Energy-OPLS-2005>
4.79049825668335

> <r_mmod_Van_der_Waal_Energy-OPLS-2005>
171.82341003418

> <r_mmod_Electrostatic_Energy-OPLS-2005>
-574.358825683594

> <r_mmod_Solvation_Energy-OPLS-2005>
-219.459259033203

> <b_mmod_Minimization_Converged-OPLS-2005>
0

> <r_mmod_RMS_Derivative-OPLS-2005>
2.53483128547668

$$$$
27
                    3D
 Structure written by MMmdl.
165173  0  0  1  0            999 V2000
  -30.7120  -14.5197   20.5933 C   0  0  0  0  0  0
  -30.4237  -12.3453   19.4365 C   0  0  0  0  0  0
  -29.4971  -12.5167   18.2169 C   0  0  0  0  0  0
  -28.0212  -12.3678   18.6330 C   0  0  0  0  0  0
  -27.6614  -13.2181   19.8812 C   0  0  2  0  0  0
  -28.7028  -13.0357   21.0075 C   0  0  0  0  0  0
  -25.2580  -13.8185   20.5710 C   0  0  0  0  0  0
  -24.1835  -13.0440   20.9153 C   0  0  0  0  0  0
  -24.6408  -11.6922   20.8730 C   0  0  0  0  0  0
  -23.9064  -10.4300   21.0418 C   0  0  0  0  0  0
  -24.3611   -9.4209   21.9201 C   0  0  0  0  0  0
  -23.6283   -8.2245   22.0764 C   0  0  0  0  0  0
  -22.4269   -8.0278   21.3536 C   0  0  0  0  0  0
  -21.9905   -9.0259   20.4644 C   0  0  0  0  0  0
  -22.7241  -10.2142   20.3065 C   0  0  0  0  0  0
  -21.6850   -6.0734   22.5269 C   0  0  0  0  0  0
  -21.4010   -6.5629   23.8203 C   0  0  0  0  0  0
  -21.3660   -5.6775   24.9164 C   0  0  0  0  0  0
  -21.6049   -4.3044   24.7213 C   0  0  0  0  0  0
  -21.8812   -3.8147   23.4320 C   0  0  0  0  0  0
  -21.9186   -4.6965   22.3381 C   0  0  0  0  0  0
  -22.7857  -13.5241   21.1824 C   0  0  0  0  0  0
  -22.1659   -4.2155   21.0958 F   0  0  0  0  0  0
  -21.5637   -3.4535   25.7727 F   0  0  0  0  0  0
  -30.0306  -13.3431   20.4497 N   0  0  0  0  0  0
  -26.3032  -12.9380   20.3424 N   0  0  0  0  0  0
  -25.9342  -11.6520   20.5799 N   0  0  0  0  0  0
  -22.0485  -12.8239   22.0379 N   0  0  0  0  0  0
  -25.4274  -15.1912   20.4143 N   0  0  0  0  0  0
  -31.8081  -14.7081   20.0533 O   0  0  0  0  0  0
  -21.6629   -6.8885   21.4231 O   0  0  0  0  0  0
  -22.3551  -14.5562   20.6700 O   0  0  0  0  0  0
  -24.6208  -31.8649   23.2000 C   0  0  0  0  0  0
  -25.9068  -32.4795   23.8371 C   0  0  1  0  0  0
  -27.2357  -27.3769   20.1176 C   0  0  0  0  0  0
  -25.5909  -33.8595   24.2259 N   0  0  0  0  0  0
  -23.4129  -30.4830   21.5406 C   0  0  2  0  0  0
  -24.8619  -28.9395   20.1157 C   0  0  0  0  0  0
  -22.7455  -29.4652   22.4954 C   0  0  0  0  0  0
  -18.0267  -28.1417   22.8454 C   0  0  0  0  0  0
  -24.1489  -36.7330   23.2641 C   0  0  0  0  0  0
  -25.9451  -30.8134   21.3596 C   0  0  0  0  0  0
  -26.0243  -29.4404   20.7133 C   0  0  0  0  0  0
  -27.2190  -28.6719   20.7046 C   0  0  0  0  0  0
  -26.0525  -26.9069   19.5055 C   0  0  0  0  0  0
  -24.8723  -27.6732   19.5061 C   0  0  0  0  0  0
  -23.6239  -29.8097   20.1587 C   0  0  0  0  0  0
  -25.4102  -36.3081   24.0319 C   0  0  1  0  0  0
  -20.5859  -28.3721   23.1291 C   0  0  2  0  0  0
  -20.6774  -26.9444   22.5409 C   0  0  0  0  0  0
  -19.5749  -26.6396   21.5211 C   0  0  0  0  0  0
  -18.1915  -26.7951   22.1587 C   0  0  0  0  0  0
  -19.1525  -28.8878   23.2874 C   0  0  0  0  0  0
  -18.9476  -30.1478   23.8899 C   0  0  0  0  0  0
  -17.6480  -30.6612   24.0572 C   0  0  0  0  0  0
  -25.9044  -34.9460   23.5077 C   0  0  0  0  0  0
  -16.5361  -29.9116   23.6339 C   0  0  0  0  0  0
  -16.7267  -28.6551   23.0320 C   0  0  0  0  0  0
  -26.4420  -31.6642   25.0764 C   0  0  0  0  0  0
  -25.3622  -31.3811   26.1490 C   0  0  0  0  0  0
  -27.0301  -30.3086   24.6238 C   0  0  0  0  0  0
  -27.6009  -32.4384   25.7496 C   0  0  0  0  0  0
  -27.5599  -37.1782   24.8420 C   0  0  0  0  0  0
  -21.4175  -29.3095   22.3733 N   0  0  0  0  0  0
  -26.4258  -37.3805   23.9424 N   0  0  0  0  0  0
  -24.6783  -31.0710   22.0909 N   0  0  0  0  0  0
  -23.4214  -28.8216   23.3035 O   0  0  0  0  0  0
  -28.3727  -26.5772   20.1259 O   0  0  0  0  0  0
  -26.5629  -34.8917   22.4661 O   0  0  0  0  0  0
  -23.5378  -32.1432   23.7345 O   0  0  0  0  0  0
  -30.2575  -17.3587   22.8478 C   0  0  0  0  0  0
  -30.6424  -15.8952   22.5918 C   0  0  0  0  0  0
  -29.6510  -16.7939   20.6322 C   0  0  0  0  0  0
  -30.1984  -17.9911   21.4590 C   0  0  1  0  0  0
  -27.5969  -20.2394   18.0926 C   0  0  0  0  0  0
  -29.4673  -19.3891   21.4580 C   0  0  0  0  0  0
  -27.8093  -19.9033   19.5784 C   0  0  0  0  0  0
  -29.0460  -24.0971   19.9950 C   0  0  0  0  0  0
  -29.7256  -21.6388   20.0039 C   0  0  0  0  0  0
  -28.2208  -25.2358   20.6889 C   0  0  0  0  0  0
  -29.2499  -20.1282   20.0938 C   0  0  1  0  0  0
  -30.0961  -15.5248   21.2795 N   0  0  0  0  0  0
  -28.8210  -22.7066   20.5489 N   0  3  0  0  0  0
  -31.4673  -12.4419   19.1340 H   0  0  0  0  0  0
  -30.3300  -11.3393   19.8464 H   0  0  0  0  0  0
  -29.7430  -11.7823   17.4484 H   0  0  0  0  0  0
  -29.6568  -13.4967   17.7642 H   0  0  0  0  0  0
  -27.8444  -11.3121   18.8456 H   0  0  0  0  0  0
  -27.3651  -12.6235   17.7999 H   0  0  0  0  0  0
  -27.6973  -14.2635   19.5733 H   0  0  0  0  0  0
  -28.6882  -12.0118   21.3815 H   0  0  0  0  0  0
  -28.4569  -13.6637   21.8643 H   0  0  0  0  0  0
  -25.2759   -9.5683   22.4770 H   0  0  0  0  0  0
  -23.9987   -7.4640   22.7494 H   0  0  0  0  0  0
  -21.0829   -8.8764   19.8958 H   0  0  0  0  0  0
  -22.3697  -10.9669   19.6164 H   0  0  0  0  0  0
  -21.1998   -7.6141   23.9707 H   0  0  0  0  0  0
  -21.1496   -6.0517   25.9068 H   0  0  0  0  0  0
  -22.0594   -2.7614   23.2819 H   0  0  0  0  0  0
  -22.4081  -11.9899   22.4779 H   0  0  0  0  0  0
  -21.1109  -13.1293   22.2600 H   0  0  0  0  0  0
  -24.6592  -15.8426   20.5293 H   0  0  0  0  0  0
  -26.2872  -15.6356   20.1198 H   0  0  0  0  0  0
  -26.7189  -32.5434   23.1169 H   0  0  0  0  0  0
  -25.0044  -33.9779   25.0397 H   0  0  0  0  0  0
  -22.7034  -31.2989   21.3942 H   0  0  0  0  0  0
  -23.3741  -35.9670   23.3224 H   0  0  0  0  0  0
  -24.3616  -36.9037   22.2090 H   0  0  0  0  0  0
  -23.7260  -37.6501   23.6735 H   0  0  0  0  0  0
  -26.0569  -31.5686   20.5812 H   0  0  0  0  0  0
  -26.8313  -30.8711   21.9775 H   0  0  0  0  0  0
  -28.1150  -29.0555   21.1707 H   0  0  0  0  0  0
  -26.0375  -25.9372   19.0282 H   0  0  0  0  0  0
  -23.9761  -27.2812   19.0461 H   0  0  0  0  0  0
  -23.7334  -30.5790   19.3920 H   0  0  0  0  0  0
  -22.7459  -29.2325   19.8606 H   0  0  0  0  0  0
  -25.1261  -36.1913   25.0802 H   0  0  0  0  0  0
  -20.9932  -28.3316   24.1421 H   0  0  0  0  0  0
  -20.5684  -26.2352   23.3621 H   0  0  0  0  0  0
  -21.6652  -26.7475   22.1240 H   0  0  0  0  0  0
  -19.6916  -25.6288   21.1307 H   0  0  0  0  0  0
  -19.6696  -27.3173   20.6708 H   0  0  0  0  0  0
  -17.4184  -26.6701   21.3976 H   0  0  0  0  0  0
  -18.0288  -26.0074   22.8975 H   0  0  0  0  0  0
  -19.7965  -30.7288   24.2259 H   0  0  0  0  0  0
  -17.5028  -31.6275   24.5219 H   0  0  0  0  0  0
  -15.5374  -30.3019   23.7678 H   0  0  0  0  0  0
  -15.8656  -28.0893   22.7008 H   0  0  0  0  0  0
  -24.5880  -30.7027   25.7862 H   0  0  0  0  0  0
  -24.8668  -32.2959   26.4764 H   0  0  0  0  0  0
  -25.7909  -30.9171   27.0381 H   0  0  0  0  0  0
  -26.2919  -29.6831   24.1209 H   0  0  0  0  0  0
  -27.3974  -29.7344   25.4753 H   0  0  0  0  0  0
  -27.8739  -30.4383   23.9458 H   0  0  0  0  0  0
  -27.2692  -33.3761   26.1947 H   0  0  0  0  0  0
  -28.3850  -32.6838   25.0324 H   0  0  0  0  0  0
  -28.0605  -31.8574   26.5485 H   0  0  0  0  0  0
  -28.2500  -38.0195   24.7645 H   0  0  0  0  0  0
  -28.1212  -36.2756   24.5986 H   0  0  0  0  0  0
  -27.2350  -37.1121   25.8815 H   0  0  0  0  0  0
  -20.9390  -29.8861   21.6950 H   0  0  0  0  0  0
  -26.0121  -38.2838   24.1523 H   0  0  0  0  0  0
  -30.9458  -17.8654   23.5242 H   0  0  0  0  0  0
  -29.2703  -17.3893   23.3105 H   0  0  0  0  0  0
  -30.2661  -15.2344   23.3726 H   0  0  0  0  0  0
  -31.7312  -15.8001   22.5907 H   0  0  0  0  0  0
  -29.9690  -16.8595   19.5896 H   0  0  0  0  0  0
  -28.5608  -16.7995   20.6288 H   0  0  0  0  0  0
  -31.2263  -18.1643   21.1319 H   0  0  0  0  0  0
  -26.5602  -20.0532   17.8070 H   0  0  0  0  0  0
  -28.2268  -19.6230   17.4502 H   0  0  0  0  0  0
  -27.8068  -21.2853   17.8683 H   0  0  0  0  0  0
  -30.0526  -20.0450   22.1041 H   0  0  0  0  0  0
  -28.5095  -19.2896   21.9719 H   0  0  0  0  0  0
  -27.5454  -18.8538   19.7169 H   0  0  0  0  0  0
  -27.0992  -20.4629   20.1887 H   0  0  0  0  0  0
  -30.1071  -24.3394   20.0639 H   0  0  0  0  0  0
  -28.8020  -24.0854   18.9316 H   0  0  0  0  0  0
  -29.8895  -21.8610   18.9480 H   0  0  0  0  0  0
  -30.7103  -21.7437   20.4660 H   0  0  0  0  0  0
  -28.5235  -25.3060   21.7340 H   0  0  0  0  0  0
  -27.1793  -24.9209   20.7184 H   0  0  0  0  0  0
  -29.9049  -19.6042   19.3951 H   0  0  0  0  0  0
  -27.8663  -22.4410   20.3676 H   0  0  0  0  0  0
  -28.9406  -22.7255   21.5494 H   0  0  0  0  0  0
  1 25  1  0  0  0
  1 30  2  0  0  0
  1 82  1  0  0  0
  2  3  1  0  0  0
  2 25  1  0  0  0
  2 84  1  0  0  0
  2 85  1  0  0  0
  3  4  1  0  0  0
  3 86  1  0  0  0
  3 87  1  0  0  0
  4  5  1  0  0  0
  4 88  1  0  0  0
  4 89  1  0  0  0
  5  6  1  0  0  0
  5 26  1  0  0  0
  5 90  1  0  0  0
  6 25  1  0  0  0
  6 91  1  0  0  0
  6 92  1  0  0  0
  7  8  2  0  0  0
  7 26  1  0  0  0
  7 29  1  0  0  0
  8  9  1  0  0  0
  8 22  1  0  0  0
  9 10  1  0  0  0
  9 27  2  0  0  0
 10 11  2  0  0  0
 10 15  1  0  0  0
 11 12  1  0  0  0
 11 93  1  0  0  0
 12 13  2  0  0  0
 12 94  1  0  0  0
 13 14  1  0  0  0
 13 31  1  0  0  0
 14 15  2  0  0  0
 14 95  1  0  0  0
 15 96  1  0  0  0
 16 17  2  0  0  0
 16 21  1  0  0  0
 16 31  1  0  0  0
 17 18  1  0  0  0
 17 97  1  0  0  0
 18 19  2  0  0  0
 18 98  1  0  0  0
 19 20  1  0  0  0
 19 24  1  0  0  0
 20 21  2  0  0  0
 20 99  1  0  0  0
 21 23  1  0  0  0
 22 28  1  0  0  0
 22 32  2  0  0  0
 26 27  1  0  0  0
 28100  1  0  0  0
 28101  1  0  0  0
 29102  1  0  0  0
 29103  1  0  0  0
 33 34  1  0  0  0
 33 66  1  0  0  0
 33 70  2  0  0  0
 34 36  1  0  0  0
 34 59  1  0  0  0
 34104  1  0  0  0
 35 44  2  0  0  0
 35 45  1  0  0  0
 35 68  1  0  0  0
 36 56  1  0  0  0
 36105  1  0  0  0
 37 39  1  0  0  0
 37 47  1  0  0  0
 37 66  1  0  0  0
 37106  1  0  0  0
 38 43  2  0  0  0
 38 46  1  0  0  0
 38 47  1  0  0  0
 39 64  1  0  0  0
 39 67  2  0  0  0
 40 52  1  0  0  0
 40 53  2  0  0  0
 40 58  1  0  0  0
 41107  1  0  0  0
 41108  1  0  0  0
 41109  1  0  0  0
 41 48  1  0  0  0
 42 43  1  0  0  0
 42 66  1  0  0  0
 42110  1  0  0  0
 42111  1  0  0  0
 43 44  1  0  0  0
 44112  1  0  0  0
 45 46  2  0  0  0
 45113  1  0  0  0
 46114  1  0  0  0
 47115  1  0  0  0
 47116  1  0  0  0
 48 56  1  0  0  0
 48 65  1  0  0  0
 48117  1  0  0  0
 49 50  1  0  0  0
 49 53  1  0  0  0
 49 64  1  0  0  0
 49118  1  0  0  0
 50 51  1  0  0  0
 50119  1  0  0  0
 50120  1  0  0  0
 51 52  1  0  0  0
 51121  1  0  0  0
 51122  1  0  0  0
 52123  1  0  0  0
 52124  1  0  0  0
 53 54  1  0  0  0
 54 55  2  0  0  0
 54125  1  0  0  0
 55 57  1  0  0  0
 55126  1  0  0  0
 56 69  2  0  0  0
 57 58  2  0  0  0
 57127  1  0  0  0
 58128  1  0  0  0
 59 60  1  0  0  0
 59 61  1  0  0  0
 59 62  1  0  0  0
 60129  1  0  0  0
 60130  1  0  0  0
 60131  1  0  0  0
 61132  1  0  0  0
 61133  1  0  0  0
 61134  1  0  0  0
 62135  1  0  0  0
 62136  1  0  0  0
 62137  1  0  0  0
 63 65  1  0  0  0
 63138  1  0  0  0
 63139  1  0  0  0
 63140  1  0  0  0
 64141  1  0  0  0
 65142  1  0  0  0
 68 80  1  0  0  0
 71 72  1  0  0  0
 71 74  1  0  0  0
 71143  1  0  0  0
 71144  1  0  0  0
 72 82  1  0  0  0
 72145  1  0  0  0
 72146  1  0  0  0
 73 74  1  0  0  0
 73 82  1  0  0  0
 73147  1  0  0  0
 73148  1  0  0  0
 74 76  1  0  0  0
 74149  1  0  0  0
 75 77  1  0  0  0
 75150  1  0  0  0
 75151  1  0  0  0
 75152  1  0  0  0
 76153  1  0  0  0
 76154  1  0  0  0
 76 81  1  0  0  0
 77 81  1  0  0  0
 77155  1  0  0  0
 77156  1  0  0  0
 78 80  1  0  0  0
 78 83  1  0  0  0
 78157  1  0  0  0
 78158  1  0  0  0
 79 81  1  0  0  0
 79 83  1  0  0  0
 79159  1  0  0  0
 79160  1  0  0  0
 80161  1  0  0  0
 80162  1  0  0  0
 81163  1  0  0  0
 83164  1  0  0  0
 83165  1  0  0  0
M  CHG  1  83   1
M  ISO  4   1 100  68 101  80 101  82 100
M  END
> <chiral flag>
0

> <version>
0

> <s_m_source_file>
/data/baiqing/PycharmProjects/Reinvent-master-3.2/result/LINK_invent/BTK/process_docking_weight1_custom_sum_contain_oxygen_bond_distance_aromatic_linkinvent_7_9_3/rearranged_h_0112.sdf

> <i_m_source_file_index>
28

> <r_mmod_Potential_Energy-OPLS-2005>
135.204452514648

> <r_mmod_Stretch_Energy-OPLS-2005>
57.2152862548828

> <r_mmod_Bend_Energy-OPLS-2005>
146.815124511719

> <r_mmod_Torsional_Energy-OPLS-2005>
376.874786376953

> <r_mmod_Improper_Torsional_Energy-OPLS-2005>
6.14288282394409

> <r_mmod_Van_der_Waal_Energy-OPLS-2005>
115.444305419922

> <r_mmod_Electrostatic_Energy-OPLS-2005>
-163.660537719727

> <r_mmod_Solvation_Energy-OPLS-2005>
-425.527923583984

> <b_mmod_Minimization_Converged-OPLS-2005>
0

> <r_mmod_RMS_Derivative-OPLS-2005>
4.15857744216919

$$$$
28
                    3D
 Structure written by MMmdl.
164172  0  0  1  0            999 V2000
  -30.5912  -14.8732   20.4335 C   0  0  0  0  0  0
  -30.4291  -12.5388   19.4952 C   0  0  0  0  0  0
  -29.5141  -12.5183   18.2507 C   0  0  0  0  0  0
  -28.0418  -12.3291   18.6614 C   0  0  0  0  0  0
  -27.6308  -13.2486   19.8418 C   0  0  2  0  0  0
  -28.6746  -13.2553   20.9793 C   0  0  0  0  0  0
  -25.2465  -13.8231   20.5708 C   0  0  0  0  0  0
  -24.1786  -13.0449   20.9231 C   0  0  0  0  0  0
  -24.6400  -11.6935   20.8753 C   0  0  0  0  0  0
  -23.9085  -10.4303   21.0390 C   0  0  0  0  0  0
  -24.3625   -9.4221   21.9171 C   0  0  0  0  0  0
  -23.6305   -8.2254   22.0738 C   0  0  0  0  0  0
  -22.4291   -8.0281   21.3533 C   0  0  0  0  0  0
  -21.9931   -9.0254   20.4634 C   0  0  0  0  0  0
  -22.7256  -10.2138   20.3041 C   0  0  0  0  0  0
  -21.6859   -6.0741   22.5281 C   0  0  0  0  0  0
  -21.4020   -6.5640   23.8215 C   0  0  0  0  0  0
  -21.3667   -5.6788   24.9175 C   0  0  0  0  0  0
  -21.6048   -4.3050   24.7219 C   0  0  0  0  0  0
  -21.8826   -3.8148   23.4339 C   0  0  0  0  0  0
  -21.9195   -4.6968   22.3398 C   0  0  0  0  0  0
  -22.7804  -13.5203   21.1892 C   0  0  0  0  0  0
  -22.1657   -4.2151   21.0976 F   0  0  0  0  0  0
  -21.5635   -3.4529   25.7730 F   0  0  0  0  0  0
  -29.9590  -13.6373   20.3831 N   0  0  0  0  0  0
  -26.2891  -12.9464   20.3262 N   0  0  0  0  0  0
  -25.9335  -11.6594   20.5754 N   0  0  0  0  0  0
  -22.0453  -12.8180   22.0443 N   0  0  0  0  0  0
  -25.4136  -15.1962   20.4120 N   0  0  0  0  0  0
  -31.7926  -14.9132   20.1521 O   0  0  0  0  0  0
  -21.6652   -6.8881   21.4241 O   0  0  0  0  0  0
  -22.3488  -14.5504   20.6730 O   0  0  0  0  0  0
  -24.6398  -31.8460   23.1889 C   0  0  0  0  0  0
  -25.9190  -32.4688   23.8270 C   0  0  1  0  0  0
  -27.2201  -27.1710   20.1491 C   0  0  0  0  0  0
  -25.5948  -33.8497   24.2189 N   0  0  0  0  0  0
  -23.4416  -30.4657   21.5334 C   0  0  2  0  0  0
  -24.8890  -28.8944   20.1118 C   0  0  0  0  0  0
  -22.7554  -29.4560   22.4867 C   0  0  0  0  0  0
  -18.0303  -28.1384   22.8475 C   0  0  0  0  0  0
  -24.1495  -36.7270   23.2644 C   0  0  0  0  0  0
  -25.9932  -30.7303   21.3809 C   0  0  0  0  0  0
  -26.0648  -29.3441   20.7257 C   0  0  0  0  0  0
  -27.2319  -28.4990   20.7260 C   0  0  0  0  0  0
  -26.0170  -26.8094   19.5028 C   0  0  0  0  0  0
  -24.8760  -27.6392   19.4849 C   0  0  0  0  0  0
  -23.6648  -29.7927   20.1533 C   0  0  0  0  0  0
  -25.4125  -36.3028   24.0315 C   0  0  1  0  0  0
  -20.5914  -28.3711   23.1239 C   0  0  2  0  0  0
  -20.6784  -26.9420   22.5399 C   0  0  0  0  0  0
  -19.5756  -26.6372   21.5206 C   0  0  0  0  0  0
  -18.1941  -26.7923   22.1623 C   0  0  0  0  0  0
  -19.1561  -28.8866   23.2846 C   0  0  0  0  0  0
  -18.9482  -30.1463   23.8870 C   0  0  0  0  0  0
  -17.6476  -30.6577   24.0558 C   0  0  0  0  0  0
  -25.9076  -34.9402   23.5061 C   0  0  0  0  0  0
  -16.5363  -29.9073   23.6333 C   0  0  0  0  0  0
  -16.7286  -28.6494   23.0348 C   0  0  0  0  0  0
  -26.4516  -31.6544   25.0701 C   0  0  0  0  0  0
  -25.3721  -31.3730   26.1412 C   0  0  0  0  0  0
  -27.0369  -30.2939   24.6256 C   0  0  0  0  0  0
  -27.6038  -32.4311   25.7492 C   0  0  0  0  0  0
  -27.5576  -37.1790   24.8462 C   0  0  0  0  0  0
  -21.4250  -29.3041   22.3612 N   0  0  0  0  0  0
  -26.4282  -37.3745   23.9410 N   0  0  0  0  0  0
  -24.7111  -31.0361   22.0893 N   0  0  0  0  0  0
  -23.4219  -28.8119   23.3011 O   0  0  0  0  0  0
  -28.3031  -26.2322   20.2047 O   0  0  0  0  0  0
  -26.5667  -34.8900   22.4641 O   0  0  0  0  0  0
  -23.5525  -32.1309   23.7141 O   0  0  0  0  0  0
  -28.6919  -21.0426   19.4161 C   0  0  0  0  0  0
  -28.9274  -19.6138   19.4510 C   0  0  0  0  0  0
  -29.2225  -21.9565   20.3863 C   0  0  0  0  0  0
  -29.7024  -18.9869   20.4708 C   0  0  0  0  0  0
  -29.8972  -21.2232   21.4355 C   0  0  0  0  0  0
  -30.1463  -21.3485   23.9858 C   0  0  0  0  0  0
  -30.7167  -25.2666   18.6934 C   0  0  0  0  0  0
  -31.4566  -22.8818   18.7826 C   0  0  0  0  0  0
  -30.5591  -21.9238   22.6219 C   0  0  0  0  0  0
  -30.4219  -17.5171   20.3576 C   0  0  0  0  0  0
  -28.0971  -24.6989   20.1599 C   0  0  0  0  0  0
  -29.3428  -23.5911   20.1340 C   0  0  2  0  0  0
  -30.2242  -23.8155   18.8589 C   0  0  0  0  0  0
  -30.1283  -19.8500   21.4440 N   0  0  0  0  0  0
  -29.8697  -16.0755   20.5684 N   0  0  0  0  0  0
  -31.4664  -12.6722   19.1847 H   0  0  0  0  0  0
  -30.3956  -11.5817   20.0192 H   0  0  0  0  0  0
  -29.8180  -11.7211   17.5719 H   0  0  0  0  0  0
  -29.6279  -13.4538   17.6995 H   0  0  0  0  0  0
  -27.9123  -11.2837   18.9456 H   0  0  0  0  0  0
  -27.3837  -12.4942   17.8068 H   0  0  0  0  0  0
  -27.6015  -14.2576   19.4306 H   0  0  0  0  0  0
  -28.7428  -12.2770   21.4568 H   0  0  0  0  0  0
  -28.3890  -13.9629   21.7590 H   0  0  0  0  0  0
  -25.2752   -9.5699   22.4762 H   0  0  0  0  0  0
  -24.0016   -7.4643   22.7452 H   0  0  0  0  0  0
  -21.0860   -8.8771   19.8945 H   0  0  0  0  0  0
  -22.3690  -10.9676   19.6167 H   0  0  0  0  0  0
  -21.2006   -7.6145   23.9717 H   0  0  0  0  0  0
  -21.1486   -6.0513   25.9078 H   0  0  0  0  0  0
  -22.0594   -2.7611   23.2833 H   0  0  0  0  0  0
  -22.4061  -11.9845   22.4837 H   0  0  0  0  0  0
  -21.1065  -13.1209   22.2634 H   0  0  0  0  0  0
  -24.6449  -15.8483   20.5254 H   0  0  0  0  0  0
  -26.2545  -15.6360   20.0628 H   0  0  0  0  0  0
  -26.7257  -32.5305   23.1007 H   0  0  0  0  0  0
  -25.0060  -33.9607   25.0305 H   0  0  0  0  0  0
  -22.7420  -31.2894   21.3794 H   0  0  0  0  0  0
  -23.3743  -35.9616   23.3279 H   0  0  0  0  0  0
  -24.3593  -36.8924   22.2065 H   0  0  0  0  0  0
  -23.7259  -37.6464   23.6695 H   0  0  0  0  0  0
  -26.1448  -31.4822   20.6058 H   0  0  0  0  0  0
  -26.8664  -30.7812   22.0194 H   0  0  0  0  0  0
  -28.1306  -28.8415   21.2204 H   0  0  0  0  0  0
  -25.9230  -25.8533   19.0133 H   0  0  0  0  0  0
  -23.9787  -27.2890   18.9927 H   0  0  0  0  0  0
  -23.7976  -30.5629   19.3925 H   0  0  0  0  0  0
  -22.7799  -29.2303   19.8486 H   0  0  0  0  0  0
  -25.1309  -36.1855   25.0805 H   0  0  0  0  0  0
  -21.0005  -28.3294   24.1362 H   0  0  0  0  0  0
  -20.5664  -26.2338   23.3625 H   0  0  0  0  0  0
  -21.6652  -26.7418   22.1207 H   0  0  0  0  0  0
  -19.6924  -25.6280   21.1246 H   0  0  0  0  0  0
  -19.6682  -27.3175   20.6730 H   0  0  0  0  0  0
  -17.4217  -26.6660   21.4022 H   0  0  0  0  0  0
  -18.0342  -26.0062   22.9014 H   0  0  0  0  0  0
  -19.7960  -30.7280   24.2222 H   0  0  0  0  0  0
  -17.5032  -31.6255   24.5160 H   0  0  0  0  0  0
  -15.5363  -30.2963   23.7664 H   0  0  0  0  0  0
  -15.8691  -28.0799   22.7066 H   0  0  0  0  0  0
  -24.5888  -30.7085   25.7747 H   0  0  0  0  0  0
  -24.8930  -32.2914   26.4814 H   0  0  0  0  0  0
  -25.8025  -30.8919   27.0205 H   0  0  0  0  0  0
  -26.2967  -29.6667   24.1272 H   0  0  0  0  0  0
  -27.3991  -29.7226   25.4813 H   0  0  0  0  0  0
  -27.8874  -30.4161   23.9548 H   0  0  0  0  0  0
  -27.2605  -33.3612   26.2037 H   0  0  0  0  0  0
  -28.3873  -32.6873   25.0349 H   0  0  0  0  0  0
  -28.0684  -31.8467   26.5443 H   0  0  0  0  0  0
  -28.2572  -38.0102   24.7510 H   0  0  0  0  0  0
  -28.1083  -36.2632   24.6273 H   0  0  0  0  0  0
  -27.2306  -37.1427   25.8865 H   0  0  0  0  0  0
  -20.9463  -29.8770   21.6804 H   0  0  0  0  0  0
  -26.0141  -38.2811   24.1398 H   0  0  0  0  0  0
  -28.1830  -21.4498   18.5532 H   0  0  0  0  0  0
  -28.5933  -19.0138   18.6159 H   0  0  0  0  0  0
  -30.6192  -21.9064   24.7938 H   0  0  0  0  0  0
  -30.4488  -20.3062   24.0898 H   0  0  0  0  0  0
  -29.0670  -21.4044   24.1287 H   0  0  0  0  0  0
  -31.4703  -25.3467   17.9091 H   0  0  0  0  0  0
  -31.1606  -25.6507   19.6128 H   0  0  0  0  0  0
  -29.9088  -25.9347   18.3974 H   0  0  0  0  0  0
  -32.0592  -23.0968   17.8998 H   0  0  0  0  0  0
  -31.1934  -21.8274   18.7072 H   0  0  0  0  0  0
  -32.1001  -23.0023   19.6548 H   0  0  0  0  0  0
  -30.3095  -22.9788   22.6641 H   0  0  0  0  0  0
  -31.6417  -21.8703   22.5008 H   0  0  0  0  0  0
  -31.3009  -17.5782   21.0006 H   0  0  0  0  0  0
  -30.8378  -17.5063   19.3502 H   0  0  0  0  0  0
  -27.4837  -24.4670   21.0310 H   0  0  0  0  0  0
  -27.4789  -24.4586   19.2973 H   0  0  0  0  0  0
  -29.9767  -23.9585   20.9315 H   0  0  0  0  0  0
  -29.6064  -23.5855   17.9899 H   0  0  0  0  0  0
  -28.8798  -16.0032   20.7454 H   0  0  0  0  0  0
  1 25  1  0  0  0
  1 30  2  0  0  0
  1 85  1  0  0  0
  2  3  1  0  0  0
  2 25  1  0  0  0
  2 86  1  0  0  0
  2 87  1  0  0  0
  3  4  1  0  0  0
  3 88  1  0  0  0
  3 89  1  0  0  0
  4  5  1  0  0  0
  4 90  1  0  0  0
  4 91  1  0  0  0
  5  6  1  0  0  0
  5 26  1  0  0  0
  5 92  1  0  0  0
  6 25  1  0  0  0
  6 93  1  0  0  0
  6 94  1  0  0  0
  7  8  2  0  0  0
  7 26  1  0  0  0
  7 29  1  0  0  0
  8  9  1  0  0  0
  8 22  1  0  0  0
  9 10  1  0  0  0
  9 27  2  0  0  0
 10 11  2  0  0  0
 10 15  1  0  0  0
 11 12  1  0  0  0
 11 95  1  0  0  0
 12 13  2  0  0  0
 12 96  1  0  0  0
 13 14  1  0  0  0
 13 31  1  0  0  0
 14 15  2  0  0  0
 14 97  1  0  0  0
 15 98  1  0  0  0
 16 17  2  0  0  0
 16 21  1  0  0  0
 16 31  1  0  0  0
 17 18  1  0  0  0
 17 99  1  0  0  0
 18 19  2  0  0  0
 18100  1  0  0  0
 19 20  1  0  0  0
 19 24  1  0  0  0
 20 21  2  0  0  0
 20101  1  0  0  0
 21 23  1  0  0  0
 22 28  1  0  0  0
 22 32  2  0  0  0
 26 27  1  0  0  0
 28102  1  0  0  0
 28103  1  0  0  0
 29104  1  0  0  0
 29105  1  0  0  0
 33 34  1  0  0  0
 33 66  1  0  0  0
 33 70  2  0  0  0
 34 36  1  0  0  0
 34 59  1  0  0  0
 34106  1  0  0  0
 35 44  2  0  0  0
 35 45  1  0  0  0
 35 68  1  0  0  0
 36 56  1  0  0  0
 36107  1  0  0  0
 37 39  1  0  0  0
 37 47  1  0  0  0
 37 66  1  0  0  0
 37108  1  0  0  0
 38 43  2  0  0  0
 38 46  1  0  0  0
 38 47  1  0  0  0
 39 64  1  0  0  0
 39 67  2  0  0  0
 40 52  1  0  0  0
 40 53  2  0  0  0
 40 58  1  0  0  0
 41109  1  0  0  0
 41110  1  0  0  0
 41111  1  0  0  0
 41 48  1  0  0  0
 42 43  1  0  0  0
 42 66  1  0  0  0
 42112  1  0  0  0
 42113  1  0  0  0
 43 44  1  0  0  0
 44114  1  0  0  0
 45 46  2  0  0  0
 45115  1  0  0  0
 46116  1  0  0  0
 47117  1  0  0  0
 47118  1  0  0  0
 48 56  1  0  0  0
 48 65  1  0  0  0
 48119  1  0  0  0
 49 50  1  0  0  0
 49 53  1  0  0  0
 49 64  1  0  0  0
 49120  1  0  0  0
 50 51  1  0  0  0
 50121  1  0  0  0
 50122  1  0  0  0
 51 52  1  0  0  0
 51123  1  0  0  0
 51124  1  0  0  0
 52125  1  0  0  0
 52126  1  0  0  0
 53 54  1  0  0  0
 54 55  2  0  0  0
 54127  1  0  0  0
 55 57  1  0  0  0
 55128  1  0  0  0
 56 69  2  0  0  0
 57 58  2  0  0  0
 57129  1  0  0  0
 58130  1  0  0  0
 59 60  1  0  0  0
 59 61  1  0  0  0
 59 62  1  0  0  0
 60131  1  0  0  0
 60132  1  0  0  0
 60133  1  0  0  0
 61134  1  0  0  0
 61135  1  0  0  0
 61136  1  0  0  0
 62137  1  0  0  0
 62138  1  0  0  0
 62139  1  0  0  0
 63 65  1  0  0  0
 63140  1  0  0  0
 63141  1  0  0  0
 63142  1  0  0  0
 64143  1  0  0  0
 65144  1  0  0  0
 68 81  1  0  0  0
 71 72  2  0  0  0
 71 73  1  0  0  0
 71145  1  0  0  0
 72 74  1  0  0  0
 72146  1  0  0  0
 73 75  2  0  0  0
 73 82  1  0  0  0
 74 80  1  0  0  0
 74 84  2  0  0  0
 75 79  1  0  0  0
 75 84  1  0  0  0
 76 79  1  0  0  0
 76147  1  0  0  0
 76148  1  0  0  0
 76149  1  0  0  0
 77150  1  0  0  0
 77151  1  0  0  0
 77152  1  0  0  0
 77 83  1  0  0  0
 78 83  1  0  0  0
 78153  1  0  0  0
 78154  1  0  0  0
 78155  1  0  0  0
 79156  1  0  0  0
 79157  1  0  0  0
 80 85  1  0  0  0
 80158  1  0  0  0
 80159  1  0  0  0
 81160  1  0  0  0
 81161  1  0  0  0
 81 82  1  0  0  0
 82 83  1  0  0  0
 82162  1  0  0  0
 83163  1  0  0  0
 85164  1  0  0  0
M  ISO  4   1 100  68 101  81 101  85 100
M  END
> <chiral flag>
0

> <version>
0

> <s_m_source_file>
/data/baiqing/PycharmProjects/Reinvent-master-3.2/result/LINK_invent/BTK/process_docking_weight1_custom_sum_contain_oxygen_bond_distance_aromatic_linkinvent_7_9_3/rearranged_h_0112.sdf

> <i_m_source_file_index>
29

> <r_mmod_Potential_Energy-OPLS-2005>
134.158599853516

> <r_mmod_Stretch_Energy-OPLS-2005>
204.219635009766

> <r_mmod_Bend_Energy-OPLS-2005>
246.01789855957

> <r_mmod_Torsional_Energy-OPLS-2005>
229.423629760742

> <r_mmod_Improper_Torsional_Energy-OPLS-2005>
10.2293481826782

> <r_mmod_Van_der_Waal_Energy-OPLS-2005>
145.073455810547

> <r_mmod_Electrostatic_Energy-OPLS-2005>
-636.779052734375

> <r_mmod_Solvation_Energy-OPLS-2005>
-212.918487548828

> <b_mmod_Minimization_Converged-OPLS-2005>
0

> <r_mmod_RMS_Derivative-OPLS-2005>
1.75781238079071

$$$$
29
                    3D
 Structure written by MMmdl.
156164  0  0  1  0            999 V2000
  -30.6990  -14.4778   20.5838 C   0  0  0  0  0  0
  -30.4107  -12.3095   19.4307 C   0  0  0  0  0  0
  -29.4879  -12.4936   18.2115 C   0  0  0  0  0  0
  -28.0121  -12.3452   18.6231 C   0  0  0  0  0  0
  -27.6546  -13.2029   19.8659 C   0  0  2  0  0  0
  -28.6944  -13.0049   20.9914 C   0  0  0  0  0  0
  -25.2570  -13.8150   20.5665 C   0  0  0  0  0  0
  -24.1831  -13.0419   20.9206 C   0  0  0  0  0  0
  -24.6373  -11.6897   20.8748 C   0  0  0  0  0  0
  -23.9034  -10.4280   21.0410 C   0  0  0  0  0  0
  -24.3594   -9.4201   21.9181 C   0  0  0  0  0  0
  -23.6290   -8.2223   22.0749 C   0  0  0  0  0  0
  -22.4266   -8.0262   21.3565 C   0  0  0  0  0  0
  -21.9900   -9.0229   20.4661 C   0  0  0  0  0  0
  -22.7206  -10.2116   20.3067 C   0  0  0  0  0  0
  -21.6847   -6.0730   22.5289 C   0  0  0  0  0  0
  -21.4010   -6.5638   23.8218 C   0  0  0  0  0  0
  -21.3680   -5.6800   24.9195 C   0  0  0  0  0  0
  -21.6043   -4.3060   24.7244 C   0  0  0  0  0  0
  -21.8810   -3.8146   23.4368 C   0  0  0  0  0  0
  -21.9180   -4.6960   22.3420 C   0  0  0  0  0  0
  -22.7864  -13.5237   21.1871 C   0  0  0  0  0  0
  -22.1648   -4.2141   21.0997 F   0  0  0  0  0  0
  -21.5636   -3.4535   25.7760 F   0  0  0  0  0  0
  -30.0190  -13.3092   20.4339 N   0  0  0  0  0  0
  -26.2973  -12.9292   20.3297 N   0  0  0  0  0  0
  -25.9288  -11.6463   20.5752 N   0  0  0  0  0  0
  -22.0500  -12.8236   22.0437 N   0  0  0  0  0  0
  -25.4264  -15.1867   20.4050 N   0  0  0  0  0  0
  -31.8312  -14.6472   20.1213 O   0  0  0  0  0  0
  -21.6643   -6.8861   21.4250 O   0  0  0  0  0  0
  -22.3553  -14.5523   20.6698 O   0  0  0  0  0  0
  -24.6161  -31.8662   23.2082 C   0  0  0  0  0  0
  -25.9078  -32.4812   23.8366 C   0  0  1  0  0  0
  -27.2259  -27.4129   20.0855 C   0  0  0  0  0  0
  -25.5948  -33.8604   24.2305 N   0  0  0  0  0  0
  -23.4042  -30.4923   21.5487 C   0  0  2  0  0  0
  -24.8475  -28.9555   20.1124 C   0  0  0  0  0  0
  -22.7400  -29.4681   22.4962 C   0  0  0  0  0  0
  -18.0282  -28.1426   22.8475 C   0  0  0  0  0  0
  -24.1501  -36.7287   23.2630 C   0  0  0  0  0  0
  -25.9325  -30.8242   21.3637 C   0  0  0  0  0  0
  -26.0091  -29.4586   20.7079 C   0  0  0  0  0  0
  -27.1974  -28.6918   20.6951 C   0  0  0  0  0  0
  -26.0408  -26.9278   19.4859 C   0  0  0  0  0  0
  -24.8580  -27.6897   19.5017 C   0  0  0  0  0  0
  -23.6107  -29.8250   20.1621 C   0  0  0  0  0  0
  -25.4136  -36.3086   24.0313 C   0  0  1  0  0  0
  -20.5872  -28.3705   23.1307 C   0  0  2  0  0  0
  -20.6793  -26.9434   22.5427 C   0  0  0  0  0  0
  -19.5785  -26.6417   21.5213 C   0  0  0  0  0  0
  -18.1950  -26.7975   22.1605 C   0  0  0  0  0  0
  -19.1522  -28.8880   23.2899 C   0  0  0  0  0  0
  -18.9460  -30.1489   23.8910 C   0  0  0  0  0  0
  -17.6464  -30.6616   24.0585 C   0  0  0  0  0  0
  -25.9054  -34.9466   23.5092 C   0  0  0  0  0  0
  -16.5357  -29.9125   23.6336 C   0  0  0  0  0  0
  -16.7273  -28.6557   23.0320 C   0  0  0  0  0  0
  -26.4498  -31.6606   25.0702 C   0  0  0  0  0  0
  -25.3756  -31.3751   26.1448 C   0  0  0  0  0  0
  -27.0321  -30.3042   24.6099 C   0  0  0  0  0  0
  -27.6064  -32.4322   25.7488 C   0  0  0  0  0  0
  -27.5586  -37.1811   24.8458 C   0  0  0  0  0  0
  -21.4127  -29.3068   22.3688 N   0  0  0  0  0  0
  -26.4311  -37.3795   23.9382 N   0  0  0  0  0  0
  -24.6691  -31.0749   22.0998 N   0  0  0  0  0  0
  -23.4141  -28.8192   23.3012 O   0  0  0  0  0  0
  -28.4077  -26.6945   20.1025 O   0  0  0  0  0  0
  -26.5578  -34.8916   22.4630 O   0  0  0  0  0  0
  -23.5359  -32.1441   23.7478 O   0  0  0  0  0  0
  -28.4229  -18.1580   21.4861 C   0  0  0  0  0  0
  -27.8124  -19.4220   21.3329 C   0  0  0  0  0  0
  -30.5259  -19.2597   21.1012 C   0  0  0  0  0  0
  -29.8257  -18.0606   21.3746 C   0  0  0  0  0  0
  -28.5955  -20.5554   21.0443 C   0  0  0  0  0  0
  -30.9607  -16.6602   23.1302 C   0  0  0  0  0  0
  -27.9106  -24.2308   20.4080 C   0  0  0  0  0  0
  -28.4942  -25.3732   19.5280 C   0  0  0  0  0  0
  -28.7084  -22.8958   20.3244 C   0  0  0  0  0  0
  -30.6210  -16.7629   21.6381 C   0  0  2  0  0  0
  -29.9395  -20.4690   20.9223 N   0  0  0  0  0  0
  -30.0289  -15.4784   21.2016 N   0  0  0  0  0  0
  -27.9815  -21.7952   20.9002 O   0  0  0  0  0  0
  -31.4574  -12.3872   19.1352 H   0  0  0  0  0  0
  -30.2961  -11.3045   19.8402 H   0  0  0  0  0  0
  -29.7328  -11.7552   17.4463 H   0  0  0  0  0  0
  -29.6519  -13.4784   17.7729 H   0  0  0  0  0  0
  -27.8391  -11.2911   18.8452 H   0  0  0  0  0  0
  -27.3576  -12.5930   17.7854 H   0  0  0  0  0  0
  -27.6954  -14.2441   19.5467 H   0  0  0  0  0  0
  -28.6728  -11.9775   21.3577 H   0  0  0  0  0  0
  -28.4491  -13.6232   21.8530 H   0  0  0  0  0  0
  -25.2738   -9.5679   22.4761 H   0  0  0  0  0  0
  -24.0007   -7.4620   22.7471 H   0  0  0  0  0  0
  -21.0825   -8.8755   19.8976 H   0  0  0  0  0  0
  -22.3660  -10.9665   19.6188 H   0  0  0  0  0  0
  -21.1985   -7.6139   23.9739 H   0  0  0  0  0  0
  -21.1524   -6.0527   25.9109 H   0  0  0  0  0  0
  -22.0561   -2.7602   23.2881 H   0  0  0  0  0  0
  -22.4115  -11.9917   22.4853 H   0  0  0  0  0  0
  -21.1141  -13.1319   22.2647 H   0  0  0  0  0  0
  -24.6406  -15.8246   20.4745 H   0  0  0  0  0  0
  -26.2471  -15.6210   19.9989 H   0  0  0  0  0  0
  -26.7121  -32.5516   23.1103 H   0  0  0  0  0  0
  -25.0192  -33.9776   25.0509 H   0  0  0  0  0  0
  -22.6978  -31.3135   21.4117 H   0  0  0  0  0  0
  -23.3763  -35.9617   23.3309 H   0  0  0  0  0  0
  -24.3582  -36.8886   22.2035 H   0  0  0  0  0  0
  -23.7263  -37.6505   23.6636 H   0  0  0  0  0  0
  -26.0517  -31.5925   20.5982 H   0  0  0  0  0  0
  -26.8151  -30.8714   21.9899 H   0  0  0  0  0  0
  -28.0952  -29.0772   21.1576 H   0  0  0  0  0  0
  -25.9997  -25.9606   19.0071 H   0  0  0  0  0  0
  -23.9595  -27.2986   19.0425 H   0  0  0  0  0  0
  -23.7248  -30.6025   19.4042 H   0  0  0  0  0  0
  -22.7317  -29.2512   19.8636 H   0  0  0  0  0  0
  -25.1332  -36.1940   25.0809 H   0  0  0  0  0  0
  -20.9984  -28.3290   24.1420 H   0  0  0  0  0  0
  -20.5748  -26.2287   23.3604 H   0  0  0  0  0  0
  -21.6659  -26.7523   22.1192 H   0  0  0  0  0  0
  -19.6950  -25.6328   21.1245 H   0  0  0  0  0  0
  -19.6750  -27.3221   20.6734 H   0  0  0  0  0  0
  -17.4229  -26.6705   21.4000 H   0  0  0  0  0  0
  -18.0360  -26.0138   22.9024 H   0  0  0  0  0  0
  -19.7939  -30.7310   24.2255 H   0  0  0  0  0  0
  -17.5025  -31.6289   24.5207 H   0  0  0  0  0  0
  -15.5365  -30.3025   23.7691 H   0  0  0  0  0  0
  -15.8672  -28.0913   22.6979 H   0  0  0  0  0  0
  -24.5910  -30.7127   25.7785 H   0  0  0  0  0  0
  -24.8969  -32.2925   26.4879 H   0  0  0  0  0  0
  -25.8083  -30.8929   27.0214 H   0  0  0  0  0  0
  -26.2867  -29.6836   24.1109 H   0  0  0  0  0  0
  -27.4043  -29.7279   25.4577 H   0  0  0  0  0  0
  -27.8730  -30.4362   23.9284 H   0  0  0  0  0  0
  -27.2671  -33.3594   26.2132 H   0  0  0  0  0  0
  -28.3867  -32.6931   25.0322 H   0  0  0  0  0  0
  -28.0752  -31.8406   26.5375 H   0  0  0  0  0  0
  -28.2616  -38.0101   24.7502 H   0  0  0  0  0  0
  -28.1075  -36.2629   24.6304 H   0  0  0  0  0  0
  -27.2276  -37.1476   25.8857 H   0  0  0  0  0  0
  -20.9272  -29.8739   21.6878 H   0  0  0  0  0  0
  -26.0184  -38.2859   24.1419 H   0  0  0  0  0  0
  -27.8242  -17.2899   21.7229 H   0  0  0  0  0  0
  -26.7411  -19.5180   21.4344 H   0  0  0  0  0  0
  -31.6038  -19.2567   21.0452 H   0  0  0  0  0  0
  -31.4977  -17.5426   23.4759 H   0  0  0  0  0  0
  -31.5984  -15.7993   23.3313 H   0  0  0  0  0  0
  -30.0559  -16.5638   23.7324 H   0  0  0  0  0  0
  -27.8859  -24.5537   21.4491 H   0  0  0  0  0  0
  -26.8740  -24.0473   20.1217 H   0  0  0  0  0  0
  -28.0796  -25.3425   18.5172 H   0  0  0  0  0  0
  -29.5620  -25.1884   19.3892 H   0  0  0  0  0  0
  -29.6717  -23.0349   20.8189 H   0  0  0  0  0  0
  -28.9242  -22.6547   19.2848 H   0  0  0  0  0  0
  -31.5621  -16.8996   21.1010 H   0  0  0  0  0  0
  -29.0953  -15.2547   21.5139 H   0  0  0  0  0  0
  1 25  1  0  0  0
  1 30  2  0  0  0
  1 82  1  0  0  0
  2  3  1  0  0  0
  2 25  1  0  0  0
  2 84  1  0  0  0
  2 85  1  0  0  0
  3  4  1  0  0  0
  3 86  1  0  0  0
  3 87  1  0  0  0
  4  5  1  0  0  0
  4 88  1  0  0  0
  4 89  1  0  0  0
  5  6  1  0  0  0
  5 26  1  0  0  0
  5 90  1  0  0  0
  6 25  1  0  0  0
  6 91  1  0  0  0
  6 92  1  0  0  0
  7  8  2  0  0  0
  7 26  1  0  0  0
  7 29  1  0  0  0
  8  9  1  0  0  0
  8 22  1  0  0  0
  9 10  1  0  0  0
  9 27  2  0  0  0
 10 11  2  0  0  0
 10 15  1  0  0  0
 11 12  1  0  0  0
 11 93  1  0  0  0
 12 13  2  0  0  0
 12 94  1  0  0  0
 13 14  1  0  0  0
 13 31  1  0  0  0
 14 15  2  0  0  0
 14 95  1  0  0  0
 15 96  1  0  0  0
 16 17  2  0  0  0
 16 21  1  0  0  0
 16 31  1  0  0  0
 17 18  1  0  0  0
 17 97  1  0  0  0
 18 19  2  0  0  0
 18 98  1  0  0  0
 19 20  1  0  0  0
 19 24  1  0  0  0
 20 21  2  0  0  0
 20 99  1  0  0  0
 21 23  1  0  0  0
 22 28  1  0  0  0
 22 32  2  0  0  0
 26 27  1  0  0  0
 28100  1  0  0  0
 28101  1  0  0  0
 29102  1  0  0  0
 29103  1  0  0  0
 33 34  1  0  0  0
 33 66  1  0  0  0
 33 70  2  0  0  0
 34 36  1  0  0  0
 34 59  1  0  0  0
 34104  1  0  0  0
 35 44  2  0  0  0
 35 45  1  0  0  0
 35 68  1  0  0  0
 36 56  1  0  0  0
 36105  1  0  0  0
 37 39  1  0  0  0
 37 47  1  0  0  0
 37 66  1  0  0  0
 37106  1  0  0  0
 38 43  2  0  0  0
 38 46  1  0  0  0
 38 47  1  0  0  0
 39 64  1  0  0  0
 39 67  2  0  0  0
 40 52  1  0  0  0
 40 53  2  0  0  0
 40 58  1  0  0  0
 41107  1  0  0  0
 41108  1  0  0  0
 41109  1  0  0  0
 41 48  1  0  0  0
 42 43  1  0  0  0
 42 66  1  0  0  0
 42110  1  0  0  0
 42111  1  0  0  0
 43 44  1  0  0  0
 44112  1  0  0  0
 45 46  2  0  0  0
 45113  1  0  0  0
 46114  1  0  0  0
 47115  1  0  0  0
 47116  1  0  0  0
 48 56  1  0  0  0
 48 65  1  0  0  0
 48117  1  0  0  0
 49 50  1  0  0  0
 49 53  1  0  0  0
 49 64  1  0  0  0
 49118  1  0  0  0
 50 51  1  0  0  0
 50119  1  0  0  0
 50120  1  0  0  0
 51 52  1  0  0  0
 51121  1  0  0  0
 51122  1  0  0  0
 52123  1  0  0  0
 52124  1  0  0  0
 53 54  1  0  0  0
 54 55  2  0  0  0
 54125  1  0  0  0
 55 57  1  0  0  0
 55126  1  0  0  0
 56 69  2  0  0  0
 57 58  2  0  0  0
 57127  1  0  0  0
 58128  1  0  0  0
 59 60  1  0  0  0
 59 61  1  0  0  0
 59 62  1  0  0  0
 60129  1  0  0  0
 60130  1  0  0  0
 60131  1  0  0  0
 61132  1  0  0  0
 61133  1  0  0  0
 61134  1  0  0  0
 62135  1  0  0  0
 62136  1  0  0  0
 62137  1  0  0  0
 63 65  1  0  0  0
 63138  1  0  0  0
 63139  1  0  0  0
 63140  1  0  0  0
 64141  1  0  0  0
 65142  1  0  0  0
 68 78  1  0  0  0
 71 72  2  0  0  0
 71 74  1  0  0  0
 71143  1  0  0  0
 72 75  1  0  0  0
 72144  1  0  0  0
 73 74  2  0  0  0
 73 81  1  0  0  0
 73145  1  0  0  0
 74 80  1  0  0  0
 75 81  2  0  0  0
 75 83  1  0  0  0
 76146  1  0  0  0
 76147  1  0  0  0
 76148  1  0  0  0
 76 80  1  0  0  0
 77 78  1  0  0  0
 77 79  1  0  0  0
 77149  1  0  0  0
 77150  1  0  0  0
 78151  1  0  0  0
 78152  1  0  0  0
 79 83  1  0  0  0
 79153  1  0  0  0
 79154  1  0  0  0
 80 82  1  0  0  0
 80155  1  0  0  0
 82156  1  0  0  0
M  ISO  4   1 100  68 101  78 101  82 100
M  END
> <chiral flag>
0

> <version>
0

> <s_m_source_file>
/data/baiqing/PycharmProjects/Reinvent-master-3.2/result/LINK_invent/BTK/process_docking_weight1_custom_sum_contain_oxygen_bond_distance_aromatic_linkinvent_7_9_3/rearranged_h_0112.sdf

> <i_m_source_file_index>
30

> <r_mmod_Potential_Energy-OPLS-2005>
-210.445053100586

> <r_mmod_Stretch_Energy-OPLS-2005>
40.7329063415527

> <r_mmod_Bend_Energy-OPLS-2005>
114.065727233887

> <r_mmod_Torsional_Energy-OPLS-2005>
180.788986206055

> <r_mmod_Improper_Torsional_Energy-OPLS-2005>
3.13926267623901

> <r_mmod_Van_der_Waal_Energy-OPLS-2005>
158.672424316406

> <r_mmod_Electrostatic_Energy-OPLS-2005>
-511.507415771484

> <r_mmod_Solvation_Energy-OPLS-2005>
-211.609420776367

> <b_mmod_Minimization_Converged-OPLS-2005>
0

> <r_mmod_RMS_Derivative-OPLS-2005>
4.47924327850342

$$$$
30
                    3D
 Structure written by MMmdl.
155163  0  0  1  0            999 V2000
  -30.4811  -15.0805   20.4475 C   0  0  0  0  0  0
  -30.4579  -12.6822   19.5219 C   0  0  0  0  0  0
  -29.5469  -12.5747   18.2718 C   0  0  0  0  0  0
  -28.0768  -12.3317   18.6692 C   0  0  0  0  0  0
  -27.6348  -13.2427   19.8438 C   0  0  2  0  0  0
  -28.6802  -13.2272   20.9825 C   0  0  0  0  0  0
  -25.2395  -13.8139   20.5586 C   0  0  0  0  0  0
  -24.1761  -13.0363   20.9189 C   0  0  0  0  0  0
  -24.6406  -11.6870   20.8732 C   0  0  0  0  0  0
  -23.9097  -10.4250   21.0392 C   0  0  0  0  0  0
  -24.3633   -9.4179   21.9196 C   0  0  0  0  0  0
  -23.6294   -8.2223   22.0770 C   0  0  0  0  0  0
  -22.4287   -8.0263   21.3558 C   0  0  0  0  0  0
  -21.9923   -9.0228   20.4669 C   0  0  0  0  0  0
  -22.7253  -10.2101   20.3059 C   0  0  0  0  0  0
  -21.6850   -6.0732   22.5278 C   0  0  0  0  0  0
  -21.4021   -6.5635   23.8215 C   0  0  0  0  0  0
  -21.3655   -5.6788   24.9169 C   0  0  0  0  0  0
  -21.6034   -4.3048   24.7213 C   0  0  0  0  0  0
  -21.8820   -3.8146   23.4332 C   0  0  0  0  0  0
  -21.9196   -4.6964   22.3395 C   0  0  0  0  0  0
  -22.7780  -13.5155   21.1814 C   0  0  0  0  0  0
  -22.1672   -4.2154   21.0974 F   0  0  0  0  0  0
  -21.5608   -3.4535   25.7728 F   0  0  0  0  0  0
  -29.9311  -13.7723   20.4180 N   0  0  0  0  0  0
  -26.2896  -12.9407   20.3204 N   0  0  0  0  0  0
  -25.9349  -11.6532   20.5710 N   0  0  0  0  0  0
  -22.0429  -12.8212   22.0414 N   0  0  0  0  0  0
  -25.3739  -15.1869   20.3835 N   0  0  0  0  0  0
  -31.6724  -15.1078   20.1085 O   0  0  0  0  0  0
  -21.6637   -6.8879   21.4247 O   0  0  0  0  0  0
  -22.3472  -14.5438   20.6610 O   0  0  0  0  0  0
  -24.6483  -31.8382   23.1816 C   0  0  0  0  0  0
  -25.9247  -32.4643   23.8229 C   0  0  1  0  0  0
  -27.2300  -27.0706   20.1795 C   0  0  0  0  0  0
  -25.5979  -33.8461   24.2143 N   0  0  0  0  0  0
  -23.4559  -30.4532   21.5268 C   0  0  2  0  0  0
  -24.9103  -28.8576   20.1184 C   0  0  0  0  0  0
  -22.7595  -29.4520   22.4826 C   0  0  0  0  0  0
  -18.0315  -28.1393   22.8469 C   0  0  0  0  0  0
  -24.1496  -36.7236   23.2642 C   0  0  0  0  0  0
  -26.0142  -30.6865   21.3945 C   0  0  0  0  0  0
  -26.0852  -29.2864   20.7484 C   0  0  0  0  0  0
  -27.2414  -28.4095   20.7653 C   0  0  0  0  0  0
  -26.0310  -26.7540   19.5077 C   0  0  0  0  0  0
  -24.8981  -27.6042   19.4836 C   0  0  0  0  0  0
  -23.6900  -29.7712   20.1508 C   0  0  0  0  0  0
  -25.4131  -36.2996   24.0301 C   0  0  1  0  0  0
  -20.5929  -28.3730   23.1221 C   0  0  2  0  0  0
  -20.6798  -26.9425   22.5407 C   0  0  0  0  0  0
  -19.5772  -26.6370   21.5218 C   0  0  0  0  0  0
  -18.1953  -26.7930   22.1622 C   0  0  0  0  0  0
  -19.1570  -28.8882   23.2836 C   0  0  0  0  0  0
  -18.9487  -30.1480   23.8854 C   0  0  0  0  0  0
  -17.6482  -30.6590   24.0560 C   0  0  0  0  0  0
  -25.9091  -34.9377   23.5033 C   0  0  0  0  0  0
  -16.5373  -29.9079   23.6334 C   0  0  0  0  0  0
  -16.7301  -28.6501   23.0349 C   0  0  0  0  0  0
  -26.4545  -31.6529   25.0698 C   0  0  0  0  0  0
  -25.3707  -31.3761   26.1375 C   0  0  0  0  0  0
  -27.0430  -30.2910   24.6340 C   0  0  0  0  0  0
  -27.6048  -32.4310   25.7512 C   0  0  0  0  0  0
  -27.5572  -37.1785   24.8467 C   0  0  0  0  0  0
  -21.4282  -29.3042   22.3581 N   0  0  0  0  0  0
  -26.4288  -37.3716   23.9395 N   0  0  0  0  0  0
  -24.7251  -31.0182   22.0873 N   0  0  0  0  0  0
  -23.4208  -28.8086   23.3017 O   0  0  0  0  0  0
  -28.2968  -26.0794   20.1631 O   0  0  0  0  0  0
  -26.5689  -34.8890   22.4616 O   0  0  0  0  0  0
  -23.5598  -32.1298   23.6994 O   0  0  0  0  0  0
  -29.5024  -20.4983   19.8230 C   0  0  0  0  0  0
  -28.6488  -21.1944   21.6809 C   0  0  0  0  0  0
  -28.9856  -21.7546   20.4706 C   0  0  0  0  0  0
  -29.5143  -19.2892   20.5950 C   0  0  0  0  0  0
  -30.0003  -17.7872   20.3942 C   0  0  0  0  0  0
  -29.6816  -16.4317   20.7709 C   0  0  0  0  0  0
  -28.4190  -16.2914   21.5971 C   0  0  0  0  0  0
  -28.8569  -23.4543   18.4651 C   0  0  0  0  0  0
  -28.8516  -19.1330   23.0662 C   0  0  0  0  0  0
  -28.9223  -23.3912   19.9959 C   0  0  1  0  0  0
  -28.9888  -19.8195   21.7917 N   0  0  0  0  0  0
  -27.9587  -24.5271   20.5243 N   0  0  0  0  0  0
  -31.4854  -12.8688   19.2079 H   0  0  0  0  0  0
  -30.4934  -11.7237   20.0416 H   0  0  0  0  0  0
  -29.8953  -11.7727   17.6204 H   0  0  0  0  0  0
  -29.6241  -13.4949   17.6893 H   0  0  0  0  0  0
  -27.9886  -11.2869   18.9664 H   0  0  0  0  0  0
  -27.4236  -12.4632   17.8057 H   0  0  0  0  0  0
  -27.6033  -14.2466   19.4229 H   0  0  0  0  0  0
  -28.8164  -12.2059   21.3422 H   0  0  0  0  0  0
  -28.3590  -13.7593   21.8727 H   0  0  0  0  0  0
  -25.2758   -9.5639   22.4810 H   0  0  0  0  0  0
  -23.9972   -7.4616   22.7502 H   0  0  0  0  0  0
  -21.0842   -8.8721   19.9009 H   0  0  0  0  0  0
  -22.3677  -10.9628   19.6174 H   0  0  0  0  0  0
  -21.2038   -7.6148   23.9715 H   0  0  0  0  0  0
  -21.1475   -6.0522   25.9070 H   0  0  0  0  0  0
  -22.0615   -2.7613   23.2816 H   0  0  0  0  0  0
  -22.4027  -11.9890   22.4846 H   0  0  0  0  0  0
  -21.1059  -13.1288   22.2606 H   0  0  0  0  0  0
  -24.5783  -15.8085   20.4822 H   0  0  0  0  0  0
  -26.1953  -15.6490   20.0158 H   0  0  0  0  0  0
  -26.7307  -32.5233   23.0950 H   0  0  0  0  0  0
  -25.0078  -33.9567   25.0259 H   0  0  0  0  0  0
  -22.7614  -31.2794   21.3654 H   0  0  0  0  0  0
  -23.3751  -35.9578   23.3298 H   0  0  0  0  0  0
  -24.3562  -36.8880   22.2054 H   0  0  0  0  0  0
  -23.7271  -37.6437   23.6693 H   0  0  0  0  0  0
  -26.1832  -31.4309   20.6152 H   0  0  0  0  0  0
  -26.8797  -30.7408   22.0424 H   0  0  0  0  0  0
  -28.1380  -28.7419   21.2687 H   0  0  0  0  0  0
  -25.9607  -25.7948   19.0142 H   0  0  0  0  0  0
  -24.0050  -27.2685   18.9748 H   0  0  0  0  0  0
  -23.8374  -30.5424   19.3939 H   0  0  0  0  0  0
  -22.8025  -29.2200   19.8343 H   0  0  0  0  0  0
  -25.1328  -36.1803   25.0796 H   0  0  0  0  0  0
  -21.0030  -28.3322   24.1340 H   0  0  0  0  0  0
  -20.5687  -26.2347   23.3633 H   0  0  0  0  0  0
  -21.6664  -26.7415   22.1212 H   0  0  0  0  0  0
  -19.6935  -25.6270   21.1269 H   0  0  0  0  0  0
  -19.6708  -27.3159   20.6732 H   0  0  0  0  0  0
  -17.4228  -26.6674   21.4022 H   0  0  0  0  0  0
  -18.0349  -26.0077   22.9024 H   0  0  0  0  0  0
  -19.7969  -30.7321   24.2177 H   0  0  0  0  0  0
  -17.5037  -31.6262   24.5180 H   0  0  0  0  0  0
  -15.5372  -30.2973   23.7683 H   0  0  0  0  0  0
  -15.8703  -28.0824   22.7058 H   0  0  0  0  0  0
  -24.5876  -30.7122   25.7693 H   0  0  0  0  0  0
  -24.8919  -32.2968   26.4719 H   0  0  0  0  0  0
  -25.7959  -30.8976   27.0204 H   0  0  0  0  0  0
  -26.3072  -29.6604   24.1333 H   0  0  0  0  0  0
  -27.4000  -29.7236   25.4946 H   0  0  0  0  0  0
  -27.8995  -30.4119   23.9701 H   0  0  0  0  0  0
  -27.2607  -33.3620   26.2027 H   0  0  0  0  0  0
  -28.3910  -32.6850   25.0392 H   0  0  0  0  0  0
  -28.0657  -31.8479   26.5495 H   0  0  0  0  0  0
  -28.2587  -38.0083   24.7485 H   0  0  0  0  0  0
  -28.1071  -36.2609   24.6326 H   0  0  0  0  0  0
  -27.2290  -37.1466   25.8873 H   0  0  0  0  0  0
  -20.9500  -29.8741   21.6741 H   0  0  0  0  0  0
  -26.0142  -38.2784   24.1378 H   0  0  0  0  0  0
  -29.8946  -20.4975   18.8164 H   0  0  0  0  0  0
  -28.2329  -21.6891   22.5494 H   0  0  0  0  0  0
  -30.8994  -17.7995   19.7944 H   0  0  0  0  0  0
  -27.8585  -17.2205   21.6479 H   0  0  0  0  0  0
  -28.6290  -15.9423   22.6090 H   0  0  0  0  0  0
  -27.7301  -15.6203   21.1168 H   0  0  0  0  0  0
  -29.6755  -22.8899   18.0187 H   0  0  0  0  0  0
  -28.9354  -24.4758   18.0936 H   0  0  0  0  0  0
  -27.9253  -23.0306   18.0905 H   0  0  0  0  0  0
  -29.1589  -19.8006   23.8709 H   0  0  0  0  0  0
  -29.4882  -18.2508   23.1115 H   0  0  0  0  0  0
  -27.8108  -18.8562   23.2360 H   0  0  0  0  0  0
  -29.9105  -23.7599   20.2786 H   0  0  0  0  0  0
  -27.9308  -24.4825   21.5392 H   0  0  0  0  0  0
  1 25  1  0  0  0
  1 30  2  0  0  0
  1 76  1  0  0  0
  2  3  1  0  0  0
  2 25  1  0  0  0
  2 83  1  0  0  0
  2 84  1  0  0  0
  3  4  1  0  0  0
  3 85  1  0  0  0
  3 86  1  0  0  0
  4  5  1  0  0  0
  4 87  1  0  0  0
  4 88  1  0  0  0
  5  6  1  0  0  0
  5 26  1  0  0  0
  5 89  1  0  0  0
  6 25  1  0  0  0
  6 90  1  0  0  0
  6 91  1  0  0  0
  7  8  2  0  0  0
  7 26  1  0  0  0
  7 29  1  0  0  0
  8  9  1  0  0  0
  8 22  1  0  0  0
  9 10  1  0  0  0
  9 27  2  0  0  0
 10 11  2  0  0  0
 10 15  1  0  0  0
 11 12  1  0  0  0
 11 92  1  0  0  0
 12 13  2  0  0  0
 12 93  1  0  0  0
 13 14  1  0  0  0
 13 31  1  0  0  0
 14 15  2  0  0  0
 14 94  1  0  0  0
 15 95  1  0  0  0
 16 17  2  0  0  0
 16 21  1  0  0  0
 16 31  1  0  0  0
 17 18  1  0  0  0
 17 96  1  0  0  0
 18 19  2  0  0  0
 18 97  1  0  0  0
 19 20  1  0  0  0
 19 24  1  0  0  0
 20 21  2  0  0  0
 20 98  1  0  0  0
 21 23  1  0  0  0
 22 28  1  0  0  0
 22 32  2  0  0  0
 26 27  1  0  0  0
 28 99  1  0  0  0
 28100  1  0  0  0
 29101  1  0  0  0
 29102  1  0  0  0
 33 34  1  0  0  0
 33 66  1  0  0  0
 33 70  2  0  0  0
 34 36  1  0  0  0
 34 59  1  0  0  0
 34103  1  0  0  0
 35 44  2  0  0  0
 35 45  1  0  0  0
 35 68  1  0  0  0
 36 56  1  0  0  0
 36104  1  0  0  0
 37 39  1  0  0  0
 37 47  1  0  0  0
 37 66  1  0  0  0
 37105  1  0  0  0
 38 43  2  0  0  0
 38 46  1  0  0  0
 38 47  1  0  0  0
 39 64  1  0  0  0
 39 67  2  0  0  0
 40 52  1  0  0  0
 40 53  2  0  0  0
 40 58  1  0  0  0
 41106  1  0  0  0
 41107  1  0  0  0
 41108  1  0  0  0
 41 48  1  0  0  0
 42 43  1  0  0  0
 42 66  1  0  0  0
 42109  1  0  0  0
 42110  1  0  0  0
 43 44  1  0  0  0
 44111  1  0  0  0
 45 46  2  0  0  0
 45112  1  0  0  0
 46113  1  0  0  0
 47114  1  0  0  0
 47115  1  0  0  0
 48 56  1  0  0  0
 48 65  1  0  0  0
 48116  1  0  0  0
 49 50  1  0  0  0
 49 53  1  0  0  0
 49 64  1  0  0  0
 49117  1  0  0  0
 50 51  1  0  0  0
 50118  1  0  0  0
 50119  1  0  0  0
 51 52  1  0  0  0
 51120  1  0  0  0
 51121  1  0  0  0
 52122  1  0  0  0
 52123  1  0  0  0
 53 54  1  0  0  0
 54 55  2  0  0  0
 54124  1  0  0  0
 55 57  1  0  0  0
 55125  1  0  0  0
 56 69  2  0  0  0
 57 58  2  0  0  0
 57126  1  0  0  0
 58127  1  0  0  0
 59 60  1  0  0  0
 59 61  1  0  0  0
 59 62  1  0  0  0
 60128  1  0  0  0
 60129  1  0  0  0
 60130  1  0  0  0
 61131  1  0  0  0
 61132  1  0  0  0
 61133  1  0  0  0
 62134  1  0  0  0
 62135  1  0  0  0
 62136  1  0  0  0
 63 65  1  0  0  0
 63137  1  0  0  0
 63138  1  0  0  0
 63139  1  0  0  0
 64140  1  0  0  0
 65141  1  0  0  0
 68 82  1  0  0  0
 71 73  1  0  0  0
 71 74  2  0  0  0
 71142  1  0  0  0
 72 73  2  0  0  0
 72 81  1  0  0  0
 72143  1  0  0  0
 73 80  1  0  0  0
 74 75  1  0  0  0
 74 81  1  0  0  0
 75 76  2  0  0  0
 75144  1  0  0  0
 76 77  1  0  0  0
 77145  1  0  0  0
 77146  1  0  0  0
 77147  1  0  0  0
 78148  1  0  0  0
 78149  1  0  0  0
 78150  1  0  0  0
 78 80  1  0  0  0
 79 81  1  0  0  0
 79151  1  0  0  0
 79152  1  0  0  0
 79153  1  0  0  0
 80 82  1  0  0  0
 80154  1  0  0  0
 82155  1  0  0  0
M  ISO  4   1 100  68 101  76 100  82 101
M  END
> <chiral flag>
0

> <version>
0

> <s_m_source_file>
/data/baiqing/PycharmProjects/Reinvent-master-3.2/result/LINK_invent/BTK/process_docking_weight1_custom_sum_contain_oxygen_bond_distance_aromatic_linkinvent_7_9_3/rearranged_h_0112.sdf

> <i_m_source_file_index>
31

> <r_mmod_Potential_Energy-OPLS-2005>
685.665344238281

> <r_mmod_Stretch_Energy-OPLS-2005>
344.049224853516

> <r_mmod_Bend_Energy-OPLS-2005>
305.563568115234

> <r_mmod_Torsional_Energy-OPLS-2005>
207.261032104492

> <r_mmod_Improper_Torsional_Energy-OPLS-2005>
3.34155011177063

> <r_mmod_Van_der_Waal_Energy-OPLS-2005>
125.894096374512

> <r_mmod_Electrostatic_Energy-OPLS-2005>
-360.827789306641

> <r_mmod_Solvation_Energy-OPLS-2005>
-196.817169189453

> <b_mmod_Minimization_Converged-OPLS-2005>
0

> <r_mmod_RMS_Derivative-OPLS-2005>
2.47700595855713

$$$$
31
                    3D
 Structure written by MMmdl.
156163  0  0  1  0            999 V2000
  -30.5290  -14.9720   20.4589 C   0  0  0  0  0  0
  -30.4426  -12.6075   19.5148 C   0  0  0  0  0  0
  -29.5318  -12.5501   18.2648 C   0  0  0  0  0  0
  -28.0598  -12.3347   18.6646 C   0  0  0  0  0  0
  -27.6332  -13.2475   19.8425 C   0  0  2  0  0  0
  -28.6678  -13.2388   20.9832 C   0  0  0  0  0  0
  -25.2481  -13.8206   20.5702 C   0  0  0  0  0  0
  -24.1781  -13.0431   20.9201 C   0  0  0  0  0  0
  -24.6394  -11.6916   20.8721 C   0  0  0  0  0  0
  -23.9076  -10.4286   21.0386 C   0  0  0  0  0  0
  -24.3621   -9.4201   21.9169 C   0  0  0  0  0  0
  -23.6285   -8.2244   22.0749 C   0  0  0  0  0  0
  -22.4273   -8.0280   21.3539 C   0  0  0  0  0  0
  -21.9905   -9.0254   20.4647 C   0  0  0  0  0  0
  -22.7236  -10.2129   20.3042 C   0  0  0  0  0  0
  -21.6860   -6.0730   22.5266 C   0  0  0  0  0  0
  -21.4022   -6.5636   23.8199 C   0  0  0  0  0  0
  -21.3657   -5.6795   24.9162 C   0  0  0  0  0  0
  -21.6039   -4.3054   24.7219 C   0  0  0  0  0  0
  -21.8822   -3.8142   23.4344 C   0  0  0  0  0  0
  -21.9192   -4.6957   22.3394 C   0  0  0  0  0  0
  -22.7808  -13.5209   21.1866 C   0  0  0  0  0  0
  -22.1661   -4.2139   21.0974 F   0  0  0  0  0  0
  -21.5624   -3.4536   25.7734 F   0  0  0  0  0  0
  -29.9449  -13.6967   20.4128 N   0  0  0  0  0  0
  -26.2895  -12.9426   20.3219 N   0  0  0  0  0  0
  -25.9323  -11.6562   20.5692 N   0  0  0  0  0  0
  -22.0472  -12.8200   22.0445 N   0  0  0  0  0  0
  -25.4192  -15.1936   20.4192 N   0  0  0  0  0  0
  -31.6856  -15.0523   20.0246 O   0  0  0  0  0  0
  -21.6643   -6.8873   21.4231 O   0  0  0  0  0  0
  -22.3473  -14.5505   20.6707 O   0  0  0  0  0  0
  -24.6442  -31.8410   23.1831 C   0  0  0  0  0  0
  -25.9205  -32.4674   23.8233 C   0  0  1  0  0  0
  -27.2246  -27.1211   20.1418 C   0  0  0  0  0  0
  -25.5943  -33.8479   24.2164 N   0  0  0  0  0  0
  -23.4483  -30.4562   21.5285 C   0  0  2  0  0  0
  -24.8991  -28.8746   20.1029 C   0  0  0  0  0  0
  -22.7552  -29.4534   22.4842 C   0  0  0  0  0  0
  -18.0304  -28.1379   22.8454 C   0  0  0  0  0  0
  -24.1488  -36.7248   23.2643 C   0  0  0  0  0  0
  -26.0030  -30.7077   21.3817 C   0  0  0  0  0  0
  -26.0730  -29.3159   20.7249 C   0  0  0  0  0  0
  -27.2308  -28.4518   20.7306 C   0  0  0  0  0  0
  -26.0268  -26.7775   19.4814 C   0  0  0  0  0  0
  -24.8896  -27.6203   19.4673 C   0  0  0  0  0  0
  -23.6743  -29.7777   20.1486 C   0  0  0  0  0  0
  -25.4120  -36.3018   24.0312 C   0  0  1  0  0  0
  -20.5905  -28.3720   23.1220 C   0  0  2  0  0  0
  -20.6795  -26.9420   22.5400 C   0  0  0  0  0  0
  -19.5778  -26.6338   21.5211 C   0  0  0  0  0  0
  -18.1953  -26.7914   22.1607 C   0  0  0  0  0  0
  -19.1550  -28.8868   23.2827 C   0  0  0  0  0  0
  -18.9464  -30.1460   23.8853 C   0  0  0  0  0  0
  -17.6457  -30.6572   24.0534 C   0  0  0  0  0  0
  -25.9069  -34.9395   23.5051 C   0  0  0  0  0  0
  -16.5351  -29.9060   23.6306 C   0  0  0  0  0  0
  -16.7284  -28.6478   23.0327 C   0  0  0  0  0  0
  -26.4531  -31.6554   25.0687 C   0  0  0  0  0  0
  -25.3718  -31.3755   26.1387 C   0  0  0  0  0  0
  -27.0394  -30.2947   24.6270 C   0  0  0  0  0  0
  -27.6053  -32.4328   25.7476 C   0  0  0  0  0  0
  -27.5568  -37.1786   24.8469 C   0  0  0  0  0  0
  -21.4241  -29.3061   22.3598 N   0  0  0  0  0  0
  -26.4283  -37.3735   23.9408 N   0  0  0  0  0  0
  -24.7185  -31.0246   22.0869 N   0  0  0  0  0  0
  -23.4186  -28.8090   23.3005 O   0  0  0  0  0  0
  -28.2972  -26.1621   20.2593 O   0  0  0  0  0  0
  -26.5671  -34.8909   22.4640 O   0  0  0  0  0  0
  -23.5560  -32.1291   23.7048 O   0  0  0  0  0  0
  -29.2011  -21.8367   20.2405 C   0  0  0  0  0  0
  -30.9388  -19.4433   21.4014 C   0  0  0  0  0  0
  -27.4208  -20.1641   19.9799 C   0  0  0  0  0  0
  -29.2629  -16.2517   22.1415 C   0  0  0  0  0  0
  -28.2028  -23.1731   20.3805 C   0  0  0  0  0  0
  -29.6722  -17.5917   20.0572 C   0  0  0  0  0  0
  -28.4057  -24.7097   19.6818 C   0  0  0  0  0  0
  -29.5529  -19.1152   20.8223 C   0  0  2  0  0  0
  -28.8252  -20.4428   20.2776 N   0  0  0  0  0  0
  -29.7835  -16.1642   20.7740 N   0  0  0  0  0  0
  -30.3999  -22.1146   20.1813 O   0  0  0  0  0  0
  -31.4774  -12.7667   19.2067 H   0  0  0  0  0  0
  -30.4434  -11.6487   20.0357 H   0  0  0  0  0  0
  -29.8585  -11.7555   17.5928 H   0  0  0  0  0  0
  -29.6258  -13.4820   17.7050 H   0  0  0  0  0  0
  -27.9450  -11.2893   18.9514 H   0  0  0  0  0  0
  -27.4052  -12.4902   17.8058 H   0  0  0  0  0  0
  -27.6076  -14.2610   19.4408 H   0  0  0  0  0  0
  -28.7647  -12.2421   21.4161 H   0  0  0  0  0  0
  -28.3184  -13.8730   21.7924 H   0  0  0  0  0  0
  -25.2765   -9.5677   22.4736 H   0  0  0  0  0  0
  -23.9995   -7.4635   22.7463 H   0  0  0  0  0  0
  -21.0834   -8.8767   19.8956 H   0  0  0  0  0  0
  -22.3680  -10.9666   19.6153 H   0  0  0  0  0  0
  -21.2025   -7.6146   23.9697 H   0  0  0  0  0  0
  -21.1474   -6.0527   25.9066 H   0  0  0  0  0  0
  -22.0605   -2.7605   23.2845 H   0  0  0  0  0  0
  -22.4116  -11.9889   22.4854 H   0  0  0  0  0  0
  -21.1076  -13.1198   22.2635 H   0  0  0  0  0  0
  -24.6613  -15.8545   20.5524 H   0  0  0  0  0  0
  -26.2809  -15.6350   20.1264 H   0  0  0  0  0  0
  -26.7264  -32.5274   23.0952 H   0  0  0  0  0  0
  -25.0047  -33.9583   25.0281 H   0  0  0  0  0  0
  -22.7522  -31.2823   21.3694 H   0  0  0  0  0  0
  -23.3750  -35.9580   23.3297 H   0  0  0  0  0  0
  -24.3570  -36.8888   22.2058 H   0  0  0  0  0  0
  -23.7244  -37.6442   23.6687 H   0  0  0  0  0  0
  -26.1550  -31.4578   20.6040 H   0  0  0  0  0  0
  -26.8748  -30.7632   22.0217 H   0  0  0  0  0  0
  -28.1230  -28.7817   21.2437 H   0  0  0  0  0  0
  -25.9349  -25.8106   19.0085 H   0  0  0  0  0  0
  -23.9928  -27.2765   18.9712 H   0  0  0  0  0  0
  -23.8092  -30.5485   19.3891 H   0  0  0  0  0  0
  -22.7891  -29.2177   19.8415 H   0  0  0  0  0  0
  -25.1311  -36.1838   25.0804 H   0  0  0  0  0  0
  -20.9997  -28.3318   24.1339 H   0  0  0  0  0  0
  -20.5701  -26.2334   23.3623 H   0  0  0  0  0  0
  -21.6659  -26.7430   22.1194 H   0  0  0  0  0  0
  -19.6939  -25.6218   21.1316 H   0  0  0  0  0  0
  -19.6725  -27.3080   20.6690 H   0  0  0  0  0  0
  -17.4229  -26.6646   21.4001 H   0  0  0  0  0  0
  -18.0342  -26.0063   22.9013 H   0  0  0  0  0  0
  -19.7936  -30.7293   24.2211 H   0  0  0  0  0  0
  -17.4996  -31.6251   24.5135 H   0  0  0  0  0  0
  -15.5346  -30.2941   23.7631 H   0  0  0  0  0  0
  -15.8698  -28.0782   22.7043 H   0  0  0  0  0  0
  -24.5904  -30.7089   25.7721 H   0  0  0  0  0  0
  -24.8892  -32.2936   26.4744 H   0  0  0  0  0  0
  -25.7997  -30.8980   27.0206 H   0  0  0  0  0  0
  -26.3001  -29.6668   24.1277 H   0  0  0  0  0  0
  -27.4010  -29.7250   25.4839 H   0  0  0  0  0  0
  -27.8907  -30.4186   23.9572 H   0  0  0  0  0  0
  -27.2636  -33.3653   26.1986 H   0  0  0  0  0  0
  -28.3897  -32.6849   25.0327 H   0  0  0  0  0  0
  -28.0679  -31.8492   26.5447 H   0  0  0  0  0  0
  -28.2590  -38.0078   24.7493 H   0  0  0  0  0  0
  -28.1060  -36.2603   24.6321 H   0  0  0  0  0  0
  -27.2285  -37.1465   25.8874 H   0  0  0  0  0  0
  -20.9453  -29.8769   21.6769 H   0  0  0  0  0  0
  -26.0142  -38.2802   24.1404 H   0  0  0  0  0  0
  -31.3569  -18.5889   21.9343 H   0  0  0  0  0  0
  -30.8922  -20.2679   22.1131 H   0  0  0  0  0  0
  -31.6432  -19.7146   20.6142 H   0  0  0  0  0  0
  -27.2324  -19.1023   19.8260 H   0  0  0  0  0  0
  -27.1037  -20.6734   19.0683 H   0  0  0  0  0  0
  -26.7795  -20.4907   20.7992 H   0  0  0  0  0  0
  -28.1780  -16.3560   22.1286 H   0  0  0  0  0  0
  -29.6832  -17.1043   22.6707 H   0  0  0  0  0  0
  -29.5196  -15.3892   22.7587 H   0  0  0  0  0  0
  -28.1593  -23.3450   21.4550 H   0  0  0  0  0  0
  -27.1939  -22.8513   20.1296 H   0  0  0  0  0  0
  -30.4912  -17.6468   19.3406 H   0  0  0  0  0  0
  -28.7874  -17.4886   19.4300 H   0  0  0  0  0  0
  -27.8379  -24.7019   18.7515 H   0  0  0  0  0  0
  -29.4362  -24.6947   19.3266 H   0  0  0  0  0  0
  -28.9262  -18.9221   21.6924 H   0  0  0  0  0  0
  1 25  1  0  0  0
  1 30  2  0  0  0
  1 80  1  0  0  0
  2  3  1  0  0  0
  2 25  1  0  0  0
  2 82  1  0  0  0
  2 83  1  0  0  0
  3  4  1  0  0  0
  3 84  1  0  0  0
  3 85  1  0  0  0
  4  5  1  0  0  0
  4 86  1  0  0  0
  4 87  1  0  0  0
  5  6  1  0  0  0
  5 26  1  0  0  0
  5 88  1  0  0  0
  6 25  1  0  0  0
  6 89  1  0  0  0
  6 90  1  0  0  0
  7  8  2  0  0  0
  7 26  1  0  0  0
  7 29  1  0  0  0
  8  9  1  0  0  0
  8 22  1  0  0  0
  9 10  1  0  0  0
  9 27  2  0  0  0
 10 11  2  0  0  0
 10 15  1  0  0  0
 11 12  1  0  0  0
 11 91  1  0  0  0
 12 13  2  0  0  0
 12 92  1  0  0  0
 13 14  1  0  0  0
 13 31  1  0  0  0
 14 15  2  0  0  0
 14 93  1  0  0  0
 15 94  1  0  0  0
 16 17  2  0  0  0
 16 21  1  0  0  0
 16 31  1  0  0  0
 17 18  1  0  0  0
 17 95  1  0  0  0
 18 19  2  0  0  0
 18 96  1  0  0  0
 19 20  1  0  0  0
 19 24  1  0  0  0
 20 21  2  0  0  0
 20 97  1  0  0  0
 21 23  1  0  0  0
 22 28  1  0  0  0
 22 32  2  0  0  0
 26 27  1  0  0  0
 28 98  1  0  0  0
 28 99  1  0  0  0
 29100  1  0  0  0
 29101  1  0  0  0
 33 34  1  0  0  0
 33 66  1  0  0  0
 33 70  2  0  0  0
 34 36  1  0  0  0
 34 59  1  0  0  0
 34102  1  0  0  0
 35 44  2  0  0  0
 35 45  1  0  0  0
 35 68  1  0  0  0
 36 56  1  0  0  0
 36103  1  0  0  0
 37 39  1  0  0  0
 37 47  1  0  0  0
 37 66  1  0  0  0
 37104  1  0  0  0
 38 43  2  0  0  0
 38 46  1  0  0  0
 38 47  1  0  0  0
 39 64  1  0  0  0
 39 67  2  0  0  0
 40 52  1  0  0  0
 40 53  2  0  0  0
 40 58  1  0  0  0
 41105  1  0  0  0
 41106  1  0  0  0
 41107  1  0  0  0
 41 48  1  0  0  0
 42 43  1  0  0  0
 42 66  1  0  0  0
 42108  1  0  0  0
 42109  1  0  0  0
 43 44  1  0  0  0
 44110  1  0  0  0
 45 46  2  0  0  0
 45111  1  0  0  0
 46112  1  0  0  0
 47113  1  0  0  0
 47114  1  0  0  0
 48 56  1  0  0  0
 48 65  1  0  0  0
 48115  1  0  0  0
 49 50  1  0  0  0
 49 53  1  0  0  0
 49 64  1  0  0  0
 49116  1  0  0  0
 50 51  1  0  0  0
 50117  1  0  0  0
 50118  1  0  0  0
 51 52  1  0  0  0
 51119  1  0  0  0
 51120  1  0  0  0
 52121  1  0  0  0
 52122  1  0  0  0
 53 54  1  0  0  0
 54 55  2  0  0  0
 54123  1  0  0  0
 55 57  1  0  0  0
 55124  1  0  0  0
 56 69  2  0  0  0
 57 58  2  0  0  0
 57125  1  0  0  0
 58126  1  0  0  0
 59 60  1  0  0  0
 59 61  1  0  0  0
 59 62  1  0  0  0
 60127  1  0  0  0
 60128  1  0  0  0
 60129  1  0  0  0
 61130  1  0  0  0
 61131  1  0  0  0
 61132  1  0  0  0
 62133  1  0  0  0
 62134  1  0  0  0
 62135  1  0  0  0
 63 65  1  0  0  0
 63136  1  0  0  0
 63137  1  0  0  0
 63138  1  0  0  0
 64139  1  0  0  0
 65140  1  0  0  0
 68 77  1  0  0  0
 71 75  1  0  0  0
 71 79  1  0  0  0
 71 81  2  0  0  0
 72141  1  0  0  0
 72142  1  0  0  0
 72143  1  0  0  0
 72 78  1  0  0  0
 73 79  1  0  0  0
 73144  1  0  0  0
 73145  1  0  0  0
 73146  1  0  0  0
 74 80  1  0  0  0
 74147  1  0  0  0
 74148  1  0  0  0
 74149  1  0  0  0
 75 77  1  0  0  0
 75150  1  0  0  0
 75151  1  0  0  0
 76 78  1  0  0  0
 76 80  1  0  0  0
 76152  1  0  0  0
 76153  1  0  0  0
 77154  1  0  0  0
 77155  1  0  0  0
 78 79  1  0  0  0
 78156  1  0  0  0
M  ISO  4   1 100  68 101  77 101  80 100
M  END
> <chiral flag>
0

> <version>
0

> <s_m_source_file>
/data/baiqing/PycharmProjects/Reinvent-master-3.2/result/LINK_invent/BTK/process_docking_weight1_custom_sum_contain_oxygen_bond_distance_aromatic_linkinvent_7_9_3/rearranged_h_0112.sdf

> <i_m_source_file_index>
32

> <r_mmod_Potential_Energy-OPLS-2005>
766.869323730469

> <r_mmod_Stretch_Energy-OPLS-2005>
315.744171142578

> <r_mmod_Bend_Energy-OPLS-2005>
326.948455810547

> <r_mmod_Torsional_Energy-OPLS-2005>
320.898406982422

> <r_mmod_Improper_Torsional_Energy-OPLS-2005>
6.33945989608765

> <r_mmod_Van_der_Waal_Energy-OPLS-2005>
119.723114013672

> <r_mmod_Electrostatic_Energy-OPLS-2005>
-296.885101318359

> <r_mmod_Solvation_Energy-OPLS-2005>
-227.254501342773

> <b_mmod_Minimization_Converged-OPLS-2005>
0

> <r_mmod_RMS_Derivative-OPLS-2005>
1.48774838447571

$$$$
32
                    3D
 Structure written by MMmdl.
168176  0  0  1  0            999 V2000
  -30.6702  -14.7630   20.4989 C   0  0  0  0  0  0
  -30.4075  -12.4744   19.4741 C   0  0  0  0  0  0
  -29.5037  -12.5324   18.2236 C   0  0  0  0  0  0
  -28.0327  -12.3405   18.6278 C   0  0  0  0  0  0
  -27.6325  -13.2385   19.8186 C   0  0  2  0  0  0
  -28.6628  -13.2165   20.9565 C   0  0  0  0  0  0
  -25.2535  -13.8231   20.5665 C   0  0  0  0  0  0
  -24.1860  -13.0495   20.9197 C   0  0  0  0  0  0
  -24.6452  -11.6954   20.8761 C   0  0  0  0  0  0
  -23.9123  -10.4346   21.0458 C   0  0  0  0  0  0
  -24.3649   -9.4238   21.9217 C   0  0  0  0  0  0
  -23.6328   -8.2264   22.0763 C   0  0  0  0  0  0
  -22.4299   -8.0302   21.3556 C   0  0  0  0  0  0
  -21.9967   -9.0290   20.4652 C   0  0  0  0  0  0
  -22.7310  -10.2172   20.3100 C   0  0  0  0  0  0
  -21.6876   -6.0769   22.5299 C   0  0  0  0  0  0
  -21.4035   -6.5667   23.8236 C   0  0  0  0  0  0
  -21.3646   -5.6793   24.9177 C   0  0  0  0  0  0
  -21.6063   -4.3058   24.7229 C   0  0  0  0  0  0
  -21.8817   -3.8170   23.4341 C   0  0  0  0  0  0
  -21.9188   -4.6998   22.3405 C   0  0  0  0  0  0
  -22.7861  -13.5218   21.1844 C   0  0  0  0  0  0
  -22.1643   -4.2201   21.0982 F   0  0  0  0  0  0
  -21.5585   -3.4530   25.7722 F   0  0  0  0  0  0
  -29.9888  -13.5564   20.4088 N   0  0  0  0  0  0
  -26.2909  -12.9436   20.3106 N   0  0  0  0  0  0
  -25.9362  -11.6586   20.5677 N   0  0  0  0  0  0
  -22.0553  -12.8196   22.0393 N   0  0  0  0  0  0
  -25.4340  -15.1971   20.4147 N   0  0  0  0  0  0
  -31.7747  -14.8474   19.9539 O   0  0  0  0  0  0
  -21.6645   -6.8916   21.4270 O   0  0  0  0  0  0
  -22.3532  -14.5540   20.6708 O   0  0  0  0  0  0
  -24.6417  -31.8473   23.1919 C   0  0  0  0  0  0
  -25.9180  -32.4735   23.8328 C   0  0  1  0  0  0
  -27.2282  -27.1687   20.1053 C   0  0  0  0  0  0
  -25.5949  -33.8553   24.2216 N   0  0  0  0  0  0
  -23.4464  -30.4636   21.5431 C   0  0  2  0  0  0
  -24.8968  -28.9036   20.1107 C   0  0  0  0  0  0
  -22.7570  -29.4514   22.4933 C   0  0  0  0  0  0
  -18.0278  -28.1358   22.8462 C   0  0  0  0  0  0
  -24.1477  -36.7251   23.2640 C   0  0  0  0  0  0
  -26.0058  -30.7310   21.3807 C   0  0  0  0  0  0
  -26.0742  -29.3439   20.7247 C   0  0  0  0  0  0
  -27.2405  -28.4885   20.7096 C   0  0  0  0  0  0
  -26.0270  -26.8344   19.4459 C   0  0  0  0  0  0
  -24.8869  -27.6618   19.4593 C   0  0  0  0  0  0
  -23.6658  -29.7929   20.1637 C   0  0  0  0  0  0
  -25.4110  -36.3041   24.0301 C   0  0  1  0  0  0
  -20.5889  -28.3688   23.1251 C   0  0  2  0  0  0
  -20.6781  -26.9403   22.5400 C   0  0  0  0  0  0
  -19.5770  -26.6359   21.5201 C   0  0  0  0  0  0
  -18.1911  -26.7885   22.1572 C   0  0  0  0  0  0
  -19.1527  -28.8843   23.2844 C   0  0  0  0  0  0
  -18.9451  -30.1427   23.8868 C   0  0  0  0  0  0
  -17.6462  -30.6575   24.0511 C   0  0  0  0  0  0
  -25.9067  -34.9413   23.5061 C   0  0  0  0  0  0
  -16.5359  -29.9033   23.6346 C   0  0  0  0  0  0
  -16.7250  -28.6447   23.0380 C   0  0  0  0  0  0
  -26.4498  -31.6628   25.0763 C   0  0  0  0  0  0
  -25.3641  -31.3808   26.1438 C   0  0  0  0  0  0
  -27.0363  -30.3023   24.6314 C   0  0  0  0  0  0
  -27.6022  -32.4410   25.7523 C   0  0  0  0  0  0
  -27.5540  -37.1767   24.8467 C   0  0  0  0  0  0
  -21.4269  -29.3017   22.3676 N   0  0  0  0  0  0
  -26.4252  -37.3748   23.9423 N   0  0  0  0  0  0
  -24.7183  -31.0356   22.0918 N   0  0  0  0  0  0
  -23.4201  -28.8032   23.3062 O   0  0  0  0  0  0
  -28.3048  -26.2177   20.1744 O   0  0  0  0  0  0
  -26.5621  -34.8897   22.4599 O   0  0  0  0  0  0
  -23.5542  -32.1316   23.7127 O   0  0  0  0  0  0
  -28.6610  -18.1643   21.1165 C   0  0  0  0  0  0
  -30.8674  -18.4120   20.1691 C   0  0  0  0  0  0
  -28.2134  -19.5423   20.4305 C   0  0  0  0  0  0
  -30.3693  -19.7778   19.4635 C   0  0  0  0  0  0
  -29.7766  -17.2809   20.4286 C   0  0  1  0  0  0
  -30.4507  -23.8060   20.6233 C   0  0  0  0  0  0
  -30.1862  -14.7115   23.4554 C   0  0  0  0  0  0
  -31.8312  -16.4515   22.9209 C   0  0  0  0  0  0
  -28.8611  -21.9490   19.5794 C   0  0  0  0  0  0
  -28.2545  -24.7715   19.6387 C   0  0  0  0  0  0
  -28.9770  -23.4375   20.3298 C   0  0  2  0  0  0
  -30.3896  -15.9946   22.6007 C   0  0  0  0  0  0
  -30.1239  -15.8960   21.1226 N   0  0  0  0  0  0
  -29.3096  -20.5669   20.2080 N   0  3  1  0  0  0
  -31.4564  -12.5422   19.1845 H   0  0  0  0  0  0
  -30.2953  -11.5025   19.9583 H   0  0  0  0  0  0
  -29.7920  -11.7664   17.5044 H   0  0  0  0  0  0
  -29.6284  -13.4962   17.7227 H   0  0  0  0  0  0
  -27.8815  -11.2873   18.8713 H   0  0  0  0  0  0
  -27.3792  -12.5445   17.7821 H   0  0  0  0  0  0
  -27.6126  -14.2557   19.4249 H   0  0  0  0  0  0
  -28.6897  -12.2480   21.4633 H   0  0  0  0  0  0
  -28.2998  -13.9518   21.6647 H   0  0  0  0  0  0
  -25.2835   -9.5651   22.4742 H   0  0  0  0  0  0
  -24.0042   -7.4657   22.7481 H   0  0  0  0  0  0
  -21.0911   -8.8836   19.8938 H   0  0  0  0  0  0
  -22.3838  -10.9694   19.6163 H   0  0  0  0  0  0
  -21.2042   -7.6184   23.9747 H   0  0  0  0  0  0
  -21.1466   -6.0527   25.9076 H   0  0  0  0  0  0
  -22.0609   -2.7651   23.2839 H   0  0  0  0  0  0
  -22.4151  -11.9825   22.4740 H   0  0  0  0  0  0
  -21.1191  -13.1224   22.2646 H   0  0  0  0  0  0
  -24.6680  -15.8577   20.5084 H   0  0  0  0  0  0
  -26.2994  -15.6358   20.1351 H   0  0  0  0  0  0
  -26.7237  -32.5358   23.1088 H   0  0  0  0  0  0
  -25.0283  -33.9796   25.0475 H   0  0  0  0  0  0
  -22.7489  -31.2902   21.3895 H   0  0  0  0  0  0
  -23.3734  -35.9572   23.3292 H   0  0  0  0  0  0
  -24.3582  -36.8890   22.2058 H   0  0  0  0  0  0
  -23.7209  -37.6430   23.6701 H   0  0  0  0  0  0
  -26.1531  -31.4850   20.6054 H   0  0  0  0  0  0
  -26.8803  -30.7905   22.0140 H   0  0  0  0  0  0
  -28.1425  -28.8261   21.2004 H   0  0  0  0  0  0
  -25.9173  -25.9072   18.9052 H   0  0  0  0  0  0
  -23.9940  -27.3247   18.9530 H   0  0  0  0  0  0
  -23.7652  -30.5663   19.4017 H   0  0  0  0  0  0
  -22.7837  -29.2174   19.8746 H   0  0  0  0  0  0
  -25.1286  -36.1875   25.0777 H   0  0  0  0  0  0
  -20.9923  -28.3215   24.1389 H   0  0  0  0  0  0
  -20.5670  -26.2272   23.3585 H   0  0  0  0  0  0
  -21.6652  -26.7444   22.1182 H   0  0  0  0  0  0
  -19.6952  -25.6255   21.1255 H   0  0  0  0  0  0
  -19.6706  -27.3150   20.6699 H   0  0  0  0  0  0
  -17.4203  -26.6635   21.3954 H   0  0  0  0  0  0
  -18.0284  -26.0066   22.8991 H   0  0  0  0  0  0
  -19.7950  -30.7231   24.2215 H   0  0  0  0  0  0
  -17.5022  -31.6268   24.5096 H   0  0  0  0  0  0
  -15.5325  -30.2892   23.7761 H   0  0  0  0  0  0
  -15.8648  -28.0735   22.7126 H   0  0  0  0  0  0
  -24.5855  -30.7154   25.7755 H   0  0  0  0  0  0
  -24.8784  -32.2976   26.4784 H   0  0  0  0  0  0
  -25.7864  -30.9062   27.0300 H   0  0  0  0  0  0
  -26.2988  -29.6749   24.1316 H   0  0  0  0  0  0
  -27.3994  -29.7339   25.4896 H   0  0  0  0  0  0
  -27.8872  -30.4307   23.9608 H   0  0  0  0  0  0
  -27.2658  -33.3782   26.1970 H   0  0  0  0  0  0
  -28.3864  -32.6851   25.0351 H   0  0  0  0  0  0
  -28.0637  -31.8616   26.5554 H   0  0  0  0  0  0
  -28.2544  -38.0073   24.7540 H   0  0  0  0  0  0
  -28.1031  -36.2607   24.6259 H   0  0  0  0  0  0
  -27.2289  -37.1372   25.8872 H   0  0  0  0  0  0
  -20.9449  -29.8763   21.6914 H   0  0  0  0  0  0
  -26.0107  -38.2789   24.1454 H   0  0  0  0  0  0
  -27.7855  -17.5376   21.2944 H   0  0  0  0  0  0
  -29.0227  -18.4490   22.1012 H   0  0  0  0  0  0
  -31.2926  -18.7289   21.1160 H   0  0  0  0  0  0
  -31.7032  -17.9976   19.5995 H   0  0  0  0  0  0
  -27.4473  -19.9958   21.0510 H   0  0  0  0  0  0
  -27.7268  -19.3237   19.4774 H   0  0  0  0  0  0
  -29.9928  -19.5320   18.4661 H   0  0  0  0  0  0
  -31.2247  -20.4316   19.2929 H   0  0  0  0  0  0
  -29.4142  -16.9982   19.4391 H   0  0  0  0  0  0
  -30.9808  -23.0256   21.1659 H   0  0  0  0  0  0
  -30.5054  -24.7046   21.2445 H   0  0  0  0  0  0
  -30.9957  -24.0018   19.6991 H   0  0  0  0  0  0
  -30.3785  -14.9436   24.5029 H   0  0  0  0  0  0
  -30.8804  -13.9079   23.1956 H   0  0  0  0  0  0
  -29.1728  -14.3173   23.4611 H   0  0  0  0  0  0
  -31.9098  -16.7808   23.9584 H   0  0  0  0  0  0
  -32.1817  -17.2754   22.3131 H   0  0  0  0  0  0
  -32.5472  -15.6371   22.7866 H   0  0  0  0  0  0
  -29.3611  -22.0441   18.6169 H   0  0  0  0  0  0
  -27.8092  -21.8349   19.3112 H   0  0  0  0  0  0
  -27.2281  -24.4537   19.4709 H   0  0  0  0  0  0
  -28.6761  -24.8522   18.6338 H   0  0  0  0  0  0
  -28.4871  -23.3087   21.2938 H   0  0  0  0  0  0
  -29.7002  -16.7158   23.0280 H   0  0  0  0  0  0
  -29.6957  -20.7801   21.1140 H   0  0  0  0  0  0
  1 25  1  0  0  0
  1 30  2  0  0  0
  1 83  1  0  0  0
  2  3  1  0  0  0
  2 25  1  0  0  0
  2 85  1  0  0  0
  2 86  1  0  0  0
  3  4  1  0  0  0
  3 87  1  0  0  0
  3 88  1  0  0  0
  4  5  1  0  0  0
  4 89  1  0  0  0
  4 90  1  0  0  0
  5  6  1  0  0  0
  5 26  1  0  0  0
  5 91  1  0  0  0
  6 25  1  0  0  0
  6 92  1  0  0  0
  6 93  1  0  0  0
  7  8  2  0  0  0
  7 26  1  0  0  0
  7 29  1  0  0  0
  8  9  1  0  0  0
  8 22  1  0  0  0
  9 10  1  0  0  0
  9 27  2  0  0  0
 10 11  2  0  0  0
 10 15  1  0  0  0
 11 12  1  0  0  0
 11 94  1  0  0  0
 12 13  2  0  0  0
 12 95  1  0  0  0
 13 14  1  0  0  0
 13 31  1  0  0  0
 14 15  2  0  0  0
 14 96  1  0  0  0
 15 97  1  0  0  0
 16 17  2  0  0  0
 16 21  1  0  0  0
 16 31  1  0  0  0
 17 18  1  0  0  0
 17 98  1  0  0  0
 18 19  2  0  0  0
 18 99  1  0  0  0
 19 20  1  0  0  0
 19 24  1  0  0  0
 20 21  2  0  0  0
 20100  1  0  0  0
 21 23  1  0  0  0
 22 28  1  0  0  0
 22 32  2  0  0  0
 26 27  1  0  0  0
 28101  1  0  0  0
 28102  1  0  0  0
 29103  1  0  0  0
 29104  1  0  0  0
 33 34  1  0  0  0
 33 66  1  0  0  0
 33 70  2  0  0  0
 34 36  1  0  0  0
 34 59  1  0  0  0
 34105  1  0  0  0
 35 44  2  0  0  0
 35 45  1  0  0  0
 35 68  1  0  0  0
 36 56  1  0  0  0
 36106  1  0  0  0
 37 39  1  0  0  0
 37 47  1  0  0  0
 37 66  1  0  0  0
 37107  1  0  0  0
 38 43  2  0  0  0
 38 46  1  0  0  0
 38 47  1  0  0  0
 39 64  1  0  0  0
 39 67  2  0  0  0
 40 52  1  0  0  0
 40 53  2  0  0  0
 40 58  1  0  0  0
 41108  1  0  0  0
 41109  1  0  0  0
 41110  1  0  0  0
 41 48  1  0  0  0
 42 43  1  0  0  0
 42 66  1  0  0  0
 42111  1  0  0  0
 42112  1  0  0  0
 43 44  1  0  0  0
 44113  1  0  0  0
 45 46  2  0  0  0
 45114  1  0  0  0
 46115  1  0  0  0
 47116  1  0  0  0
 47117  1  0  0  0
 48 56  1  0  0  0
 48 65  1  0  0  0
 48118  1  0  0  0
 49 50  1  0  0  0
 49 53  1  0  0  0
 49 64  1  0  0  0
 49119  1  0  0  0
 50 51  1  0  0  0
 50120  1  0  0  0
 50121  1  0  0  0
 51 52  1  0  0  0
 51122  1  0  0  0
 51123  1  0  0  0
 52124  1  0  0  0
 52125  1  0  0  0
 53 54  1  0  0  0
 54 55  2  0  0  0
 54126  1  0  0  0
 55 57  1  0  0  0
 55127  1  0  0  0
 56 69  2  0  0  0
 57 58  2  0  0  0
 57128  1  0  0  0
 58129  1  0  0  0
 59 60  1  0  0  0
 59 61  1  0  0  0
 59 62  1  0  0  0
 60130  1  0  0  0
 60131  1  0  0  0
 60132  1  0  0  0
 61133  1  0  0  0
 61134  1  0  0  0
 61135  1  0  0  0
 62136  1  0  0  0
 62137  1  0  0  0
 62138  1  0  0  0
 63 65  1  0  0  0
 63139  1  0  0  0
 63140  1  0  0  0
 63141  1  0  0  0
 64142  1  0  0  0
 65143  1  0  0  0
 68 80  1  0  0  0
 71 73  1  0  0  0
 71 75  1  0  0  0
 71144  1  0  0  0
 71145  1  0  0  0
 72 74  1  0  0  0
 72 75  1  0  0  0
 72146  1  0  0  0
 72147  1  0  0  0
 73 84  1  0  0  0
 73148  1  0  0  0
 73149  1  0  0  0
 74 84  1  0  0  0
 74150  1  0  0  0
 74151  1  0  0  0
 75 83  1  0  0  0
 75152  1  0  0  0
 76153  1  0  0  0
 76154  1  0  0  0
 76155  1  0  0  0
 76 81  1  0  0  0
 77156  1  0  0  0
 77157  1  0  0  0
 77158  1  0  0  0
 77 82  1  0  0  0
 78 82  1  0  0  0
 78159  1  0  0  0
 78160  1  0  0  0
 78161  1  0  0  0
 79 81  1  0  0  0
 79162  1  0  0  0
 79163  1  0  0  0
 79 84  1  0  0  0
 80 81  1  0  0  0
 80164  1  0  0  0
 80165  1  0  0  0
 81166  1  0  0  0
 82 83  1  0  0  0
 82167  1  0  0  0
 84168  1  0  0  0
M  CHG  1  84   1
M  ISO  4   1 100  68 101  80 101  83 100
M  END
> <chiral flag>
0

> <version>
0

> <s_m_source_file>
/data/baiqing/PycharmProjects/Reinvent-master-3.2/result/LINK_invent/BTK/process_docking_weight1_custom_sum_contain_oxygen_bond_distance_aromatic_linkinvent_7_9_3/rearranged_h_0112.sdf

> <i_m_source_file_index>
33

> <r_mmod_Potential_Energy-OPLS-2005>
568.456420898438

> <r_mmod_Stretch_Energy-OPLS-2005>
216.958953857422

> <r_mmod_Bend_Energy-OPLS-2005>
266.562744140625

> <r_mmod_Torsional_Energy-OPLS-2005>
355.129272460938

> <r_mmod_Improper_Torsional_Energy-OPLS-2005>
3.44017672538757

> <r_mmod_Van_der_Waal_Energy-OPLS-2005>
128.958221435547

> <r_mmod_Electrostatic_Energy-OPLS-2005>
-97.4626235961914

> <r_mmod_Solvation_Energy-OPLS-2005>
-424.609344482422

> <b_mmod_Minimization_Converged-OPLS-2005>
0

> <r_mmod_RMS_Derivative-OPLS-2005>
8.70071411132812

$$$$
33
                    3D
 Structure written by MMmdl.
156164  0  0  1  0            999 V2000
  -30.6300  -14.6854   20.4603 C   0  0  0  0  0  0
  -30.4274  -12.4136   19.4737 C   0  0  0  0  0  0
  -29.5076  -12.4990   18.2359 C   0  0  0  0  0  0
  -28.0316  -12.3361   18.6474 C   0  0  0  0  0  0
  -27.6454  -13.2281   19.8585 C   0  0  2  0  0  0
  -28.6891  -13.1378   20.9948 C   0  0  0  0  0  0
  -25.2520  -13.8194   20.5700 C   0  0  0  0  0  0
  -24.1802  -13.0440   20.9206 C   0  0  0  0  0  0
  -24.6390  -11.6919   20.8754 C   0  0  0  0  0  0
  -23.9066  -10.4295   21.0415 C   0  0  0  0  0  0
  -24.3615   -9.4211   21.9194 C   0  0  0  0  0  0
  -23.6295   -8.2241   22.0754 C   0  0  0  0  0  0
  -22.4278   -8.0281   21.3544 C   0  0  0  0  0  0
  -21.9915   -9.0256   20.4645 C   0  0  0  0  0  0
  -22.7236  -10.2140   20.3064 C   0  0  0  0  0  0
  -21.6855   -6.0738   22.5279 C   0  0  0  0  0  0
  -21.4014   -6.5639   23.8214 C   0  0  0  0  0  0
  -21.3662   -5.6788   24.9176 C   0  0  0  0  0  0
  -21.6048   -4.3052   24.7223 C   0  0  0  0  0  0
  -21.8819   -3.8146   23.4344 C   0  0  0  0  0  0
  -21.9191   -4.6965   22.3402 C   0  0  0  0  0  0
  -22.7824  -13.5229   21.1864 C   0  0  0  0  0  0
  -22.1659   -4.2153   21.0980 F   0  0  0  0  0  0
  -21.5631   -3.4535   25.7735 F   0  0  0  0  0  0
  -29.9977  -13.4680   20.4183 N   0  0  0  0  0  0
  -26.2951  -12.9395   20.3316 N   0  0  0  0  0  0
  -25.9321  -11.6539   20.5776 N   0  0  0  0  0  0
  -22.0465  -12.8229   22.0428 N   0  0  0  0  0  0
  -25.4202  -15.1918   20.4118 N   0  0  0  0  0  0
  -31.8102  -14.7852   20.1154 O   0  0  0  0  0  0
  -21.6638   -6.8882   21.4241 O   0  0  0  0  0  0
  -22.3513  -14.5530   20.6703 O   0  0  0  0  0  0
  -24.6273  -31.8567   23.1997 C   0  0  0  0  0  0
  -25.9112  -32.4760   23.8336 C   0  0  1  0  0  0
  -27.2273  -27.2989   20.1167 C   0  0  0  0  0  0
  -25.5926  -33.8563   24.2267 N   0  0  0  0  0  0
  -23.4212  -30.4790   21.5421 C   0  0  2  0  0  0
  -24.8667  -28.9256   20.1103 C   0  0  0  0  0  0
  -22.7474  -29.4610   22.4926 C   0  0  0  0  0  0
  -18.0282  -28.1387   22.8487 C   0  0  0  0  0  0
  -24.1484  -36.7289   23.2641 C   0  0  0  0  0  0
  -25.9619  -30.7808   21.3718 C   0  0  0  0  0  0
  -26.0343  -29.4054   20.7151 C   0  0  0  0  0  0
  -27.2128  -28.6027   20.7082 C   0  0  0  0  0  0
  -26.0312  -26.8650   19.5022 C   0  0  0  0  0  0
  -24.8675  -27.6616   19.4976 C   0  0  0  0  0  0
  -23.6361  -29.8092   20.1584 C   0  0  0  0  0  0
  -25.4111  -36.3076   24.0330 C   0  0  1  0  0  0
  -20.5879  -28.3688   23.1278 C   0  0  2  0  0  0
  -20.6765  -26.9409   22.5408 C   0  0  0  0  0  0
  -19.5743  -26.6386   21.5207 C   0  0  0  0  0  0
  -18.1925  -26.7933   22.1621 C   0  0  0  0  0  0
  -19.1534  -28.8856   23.2879 C   0  0  0  0  0  0
  -18.9458  -30.1460   23.8892 C   0  0  0  0  0  0
  -17.6457  -30.6590   24.0562 C   0  0  0  0  0  0
  -25.9050  -34.9445   23.5100 C   0  0  0  0  0  0
  -16.5348  -29.9087   23.6330 C   0  0  0  0  0  0
  -16.7272  -28.6503   23.0355 C   0  0  0  0  0  0
  -26.4498  -31.6585   25.0719 C   0  0  0  0  0  0
  -25.3737  -31.3723   26.1453 C   0  0  0  0  0  0
  -27.0350  -30.3012   24.6186 C   0  0  0  0  0  0
  -27.6054  -32.4330   25.7493 C   0  0  0  0  0  0
  -27.5576  -37.1800   24.8468 C   0  0  0  0  0  0
  -21.4184  -29.3044   22.3675 N   0  0  0  0  0  0
  -26.4288  -37.3772   23.9412 N   0  0  0  0  0  0
  -24.6892  -31.0564   22.0949 N   0  0  0  0  0  0
  -23.4192  -28.8154   23.3015 O   0  0  0  0  0  0
  -28.3706  -26.4836   20.1881 O   0  0  0  0  0  0
  -26.5620  -34.8916   22.4669 O   0  0  0  0  0  0
  -23.5434  -32.1377   23.7316 O   0  0  0  0  0  0
  -28.1806  -19.6520   22.3966 C   0  0  0  0  0  0
  -28.2607  -20.8916   21.7277 C   0  0  0  0  0  0
  -28.7851  -18.4898   21.8737 C   0  0  0  0  0  0
  -28.9443  -21.0187   20.5005 C   0  0  0  0  0  0
  -29.4924  -18.5247   20.6551 C   0  0  0  0  0  0
  -29.5584  -19.8087   19.9683 C   0  0  0  0  0  0
  -28.9834  -22.4354   19.7812 C   0  0  0  0  0  0
  -30.2264  -17.2091   20.1540 C   0  0  0  0  0  0
  -28.4442  -23.7873   20.4707 C   0  0  0  0  0  0
  -28.4833  -25.1280   19.5865 C   0  0  0  0  0  0
  -30.3026  -19.8793   18.6352 C   0  0  0  0  0  0
  -29.8639  -15.8170   20.6382 N   0  0  0  0  0  0
  -29.6934  -19.1274   17.7189 F   0  0  0  0  0  0
  -31.5654  -19.4767   18.7771 F   0  0  0  0  0  0
  -31.4720  -12.5205   19.1756 H   0  0  0  0  0  0
  -30.3534  -11.4310   19.9427 H   0  0  0  0  0  0
  -29.7788  -11.7311   17.5104 H   0  0  0  0  0  0
  -29.6472  -13.4582   17.7350 H   0  0  0  0  0  0
  -27.8771  -11.2861   18.8991 H   0  0  0  0  0  0
  -27.3765  -12.5444   17.8011 H   0  0  0  0  0  0
  -27.6473  -14.2541   19.4895 H   0  0  0  0  0  0
  -28.7084  -12.1367   21.4277 H   0  0  0  0  0  0
  -28.4364  -13.8172   21.8106 H   0  0  0  0  0  0
  -25.2759   -9.5689   22.4772 H   0  0  0  0  0  0
  -24.0011   -7.4632   22.7468 H   0  0  0  0  0  0
  -21.0850   -8.8771   19.8948 H   0  0  0  0  0  0
  -22.3694  -10.9681   19.6177 H   0  0  0  0  0  0
  -21.2002   -7.6147   23.9720 H   0  0  0  0  0  0
  -21.1489   -6.0519   25.9081 H   0  0  0  0  0  0
  -22.0597   -2.7609   23.2839 H   0  0  0  0  0  0
  -22.4072  -11.9895   22.4829 H   0  0  0  0  0  0
  -21.1078  -13.1252   22.2614 H   0  0  0  0  0  0
  -24.6499  -15.8423   20.5192 H   0  0  0  0  0  0
  -26.2623  -15.6338   20.0662 H   0  0  0  0  0  0
  -26.7176  -32.5416   23.1076 H   0  0  0  0  0  0
  -25.0081  -33.9701   25.0417 H   0  0  0  0  0  0
  -22.7162  -31.3003   21.3965 H   0  0  0  0  0  0
  -23.3746  -35.9622   23.3305 H   0  0  0  0  0  0
  -24.3571  -36.8910   22.2055 H   0  0  0  0  0  0
  -23.7236  -37.6491   23.6662 H   0  0  0  0  0  0
  -26.0942  -31.5413   20.6010 H   0  0  0  0  0  0
  -26.8419  -30.8298   22.0019 H   0  0  0  0  0  0
  -28.1098  -28.9690   21.1876 H   0  0  0  0  0  0
  -25.9562  -25.8910   19.0450 H   0  0  0  0  0  0
  -23.9676  -27.2837   19.0319 H   0  0  0  0  0  0
  -23.7576  -30.5836   19.3999 H   0  0  0  0  0  0
  -22.7548  -29.2403   19.8565 H   0  0  0  0  0  0
  -25.1289  -36.1926   25.0821 H   0  0  0  0  0  0
  -20.9975  -28.3259   24.1398 H   0  0  0  0  0  0
  -20.5642  -26.2302   23.3609 H   0  0  0  0  0  0
  -21.6635  -26.7422   22.1213 H   0  0  0  0  0  0
  -19.6897  -25.6295   21.1242 H   0  0  0  0  0  0
  -19.6680  -27.3190   20.6730 H   0  0  0  0  0  0
  -17.4191  -26.6682   21.4027 H   0  0  0  0  0  0
  -18.0329  -26.0072   22.9014 H   0  0  0  0  0  0
  -19.7935  -30.7283   24.2254 H   0  0  0  0  0  0
  -17.5012  -31.6269   24.5169 H   0  0  0  0  0  0
  -15.5348  -30.2989   23.7655 H   0  0  0  0  0  0
  -15.8673  -28.0820   22.7072 H   0  0  0  0  0  0
  -24.5912  -30.7065   25.7792 H   0  0  0  0  0  0
  -24.8925  -32.2883   26.4885 H   0  0  0  0  0  0
  -25.8068  -30.8904   27.0227 H   0  0  0  0  0  0
  -26.2924  -29.6754   24.1219 H   0  0  0  0  0  0
  -27.4058  -29.7276   25.4693 H   0  0  0  0  0  0
  -27.8787  -30.4304   23.9404 H   0  0  0  0  0  0
  -27.2660  -33.3632   26.2062 H   0  0  0  0  0  0
  -28.3867  -32.6890   25.0326 H   0  0  0  0  0  0
  -28.0719  -31.8466   26.5419 H   0  0  0  0  0  0
  -28.2598  -38.0093   24.7508 H   0  0  0  0  0  0
  -28.1066  -36.2625   24.6298 H   0  0  0  0  0  0
  -27.2295  -37.1458   25.8871 H   0  0  0  0  0  0
  -20.9361  -29.8780   21.6895 H   0  0  0  0  0  0
  -26.0168  -38.2847   24.1413 H   0  0  0  0  0  0
  -27.6487  -19.5934   23.3364 H   0  0  0  0  0  0
  -27.7816  -21.7511   22.1751 H   0  0  0  0  0  0
  -28.7167  -17.5669   22.4326 H   0  0  0  0  0  0
  -28.4563  -22.3170   18.8336 H   0  0  0  0  0  0
  -30.0240  -22.6272   19.5189 H   0  0  0  0  0  0
  -31.2879  -17.3616   20.3558 H   0  0  0  0  0  0
  -30.1426  -17.1684   19.0688 H   0  0  0  0  0  0
  -29.0262  -23.9571   21.3769 H   0  0  0  0  0  0
  -27.4158  -23.6388   20.7994 H   0  0  0  0  0  0
  -29.4745  -25.1452   19.1326 H   0  0  0  0  0  0
  -27.8263  -25.0141   18.7263 H   0  0  0  0  0  0
  -30.3532  -20.8793   18.2095 H   0  0  0  0  0  0
  -28.9020  -15.6692   20.9023 H   0  0  0  0  0  0
  1 25  1  0  0  0
  1 30  2  0  0  0
  1 82  1  0  0  0
  2  3  1  0  0  0
  2 25  1  0  0  0
  2 85  1  0  0  0
  2 86  1  0  0  0
  3  4  1  0  0  0
  3 87  1  0  0  0
  3 88  1  0  0  0
  4  5  1  0  0  0
  4 89  1  0  0  0
  4 90  1  0  0  0
  5  6  1  0  0  0
  5 26  1  0  0  0
  5 91  1  0  0  0
  6 25  1  0  0  0
  6 92  1  0  0  0
  6 93  1  0  0  0
  7  8  2  0  0  0
  7 26  1  0  0  0
  7 29  1  0  0  0
  8  9  1  0  0  0
  8 22  1  0  0  0
  9 10  1  0  0  0
  9 27  2  0  0  0
 10 11  2  0  0  0
 10 15  1  0  0  0
 11 12  1  0  0  0
 11 94  1  0  0  0
 12 13  2  0  0  0
 12 95  1  0  0  0
 13 14  1  0  0  0
 13 31  1  0  0  0
 14 15  2  0  0  0
 14 96  1  0  0  0
 15 97  1  0  0  0
 16 17  2  0  0  0
 16 21  1  0  0  0
 16 31  1  0  0  0
 17 18  1  0  0  0
 17 98  1  0  0  0
 18 19  2  0  0  0
 18 99  1  0  0  0
 19 20  1  0  0  0
 19 24  1  0  0  0
 20 21  2  0  0  0
 20100  1  0  0  0
 21 23  1  0  0  0
 22 28  1  0  0  0
 22 32  2  0  0  0
 26 27  1  0  0  0
 28101  1  0  0  0
 28102  1  0  0  0
 29103  1  0  0  0
 29104  1  0  0  0
 33 34  1  0  0  0
 33 66  1  0  0  0
 33 70  2  0  0  0
 34 36  1  0  0  0
 34 59  1  0  0  0
 34105  1  0  0  0
 35 44  2  0  0  0
 35 45  1  0  0  0
 35 68  1  0  0  0
 36 56  1  0  0  0
 36106  1  0  0  0
 37 39  1  0  0  0
 37 47  1  0  0  0
 37 66  1  0  0  0
 37107  1  0  0  0
 38 43  2  0  0  0
 38 46  1  0  0  0
 38 47  1  0  0  0
 39 64  1  0  0  0
 39 67  2  0  0  0
 40 52  1  0  0  0
 40 53  2  0  0  0
 40 58  1  0  0  0
 41108  1  0  0  0
 41109  1  0  0  0
 41110  1  0  0  0
 41 48  1  0  0  0
 42 43  1  0  0  0
 42 66  1  0  0  0
 42111  1  0  0  0
 42112  1  0  0  0
 43 44  1  0  0  0
 44113  1  0  0  0
 45 46  2  0  0  0
 45114  1  0  0  0
 46115  1  0  0  0
 47116  1  0  0  0
 47117  1  0  0  0
 48 56  1  0  0  0
 48 65  1  0  0  0
 48118  1  0  0  0
 49 50  1  0  0  0
 49 53  1  0  0  0
 49 64  1  0  0  0
 49119  1  0  0  0
 50 51  1  0  0  0
 50120  1  0  0  0
 50121  1  0  0  0
 51 52  1  0  0  0
 51122  1  0  0  0
 51123  1  0  0  0
 52124  1  0  0  0
 52125  1  0  0  0
 53 54  1  0  0  0
 54 55  2  0  0  0
 54126  1  0  0  0
 55 57  1  0  0  0
 55127  1  0  0  0
 56 69  2  0  0  0
 57 58  2  0  0  0
 57128  1  0  0  0
 58129  1  0  0  0
 59 60  1  0  0  0
 59 61  1  0  0  0
 59 62  1  0  0  0
 60130  1  0  0  0
 60131  1  0  0  0
 60132  1  0  0  0
 61133  1  0  0  0
 61134  1  0  0  0
 61135  1  0  0  0
 62136  1  0  0  0
 62137  1  0  0  0
 62138  1  0  0  0
 63 65  1  0  0  0
 63139  1  0  0  0
 63140  1  0  0  0
 63141  1  0  0  0
 64142  1  0  0  0
 65143  1  0  0  0
 68 80  1  0  0  0
 71 72  2  0  0  0
 71 73  1  0  0  0
 71144  1  0  0  0
 72 74  1  0  0  0
 72145  1  0  0  0
 73 75  2  0  0  0
 73146  1  0  0  0
 74 76  2  0  0  0
 74 77  1  0  0  0
 75 76  1  0  0  0
 75 78  1  0  0  0
 76 81  1  0  0  0
 77 79  1  0  0  0
 77147  1  0  0  0
 77148  1  0  0  0
 78 82  1  0  0  0
 78149  1  0  0  0
 78150  1  0  0  0
 79 80  1  0  0  0
 79151  1  0  0  0
 79152  1  0  0  0
 80153  1  0  0  0
 80154  1  0  0  0
 81 83  1  0  0  0
 81 84  1  0  0  0
 81155  1  0  0  0
 82156  1  0  0  0
M  ISO  4   1 100  68 101  80 101  82 100
M  END
> <chiral flag>
0

> <version>
0

> <s_m_source_file>
/data/baiqing/PycharmProjects/Reinvent-master-3.2/result/LINK_invent/BTK/process_docking_weight1_custom_sum_contain_oxygen_bond_distance_aromatic_linkinvent_7_9_3/rearranged_h_0112.sdf

> <i_m_source_file_index>
34

> <r_mmod_Potential_Energy-OPLS-2005>
52.5630302429199

> <r_mmod_Stretch_Energy-OPLS-2005>
101.878196716309

> <r_mmod_Bend_Energy-OPLS-2005>
157.281112670898

> <r_mmod_Torsional_Energy-OPLS-2005>
196.601745605469

> <r_mmod_Improper_Torsional_Energy-OPLS-2005>
6.80397939682007

> <r_mmod_Van_der_Waal_Energy-OPLS-2005>
140.953140258789

> <r_mmod_Electrostatic_Energy-OPLS-2005>
-404.463989257812

> <r_mmod_Solvation_Energy-OPLS-2005>
-207.119598388672

> <b_mmod_Minimization_Converged-OPLS-2005>
0

> <r_mmod_RMS_Derivative-OPLS-2005>
0.760420858860016

$$$$
34
                    3D
 Structure written by MMmdl.
159167  0  0  1  0            999 V2000
  -30.5390  -15.0523   20.4047 C   0  0  0  0  0  0
  -30.4292  -12.6619   19.5093 C   0  0  0  0  0  0
  -29.5196  -12.5391   18.2656 C   0  0  0  0  0  0
  -28.0590  -12.3082   18.6902 C   0  0  0  0  0  0
  -27.6188  -13.2631   19.8304 C   0  0  2  0  0  0
  -28.6587  -13.3617   20.9658 C   0  0  0  0  0  0
  -25.2425  -13.8249   20.5749 C   0  0  0  0  0  0
  -24.1752  -13.0450   20.9235 C   0  0  0  0  0  0
  -24.6389  -11.6940   20.8757 C   0  0  0  0  0  0
  -23.9084  -10.4300   21.0407 C   0  0  0  0  0  0
  -24.3631   -9.4213   21.9184 C   0  0  0  0  0  0
  -23.6302   -8.2248   22.0754 C   0  0  0  0  0  0
  -22.4284   -8.0286   21.3544 C   0  0  0  0  0  0
  -21.9924   -9.0260   20.4645 C   0  0  0  0  0  0
  -22.7256  -10.2137   20.3054 C   0  0  0  0  0  0
  -21.6858   -6.0739   22.5277 C   0  0  0  0  0  0
  -21.4018   -6.5643   23.8211 C   0  0  0  0  0  0
  -21.3659   -5.6794   24.9173 C   0  0  0  0  0  0
  -21.6044   -4.3057   24.7223 C   0  0  0  0  0  0
  -21.8819   -3.8149   23.4344 C   0  0  0  0  0  0
  -21.9194   -4.6966   22.3401 C   0  0  0  0  0  0
  -22.7772  -13.5207   21.1888 C   0  0  0  0  0  0
  -22.1662   -4.2152   21.0978 F   0  0  0  0  0  0
  -21.5626   -3.4540   25.7736 F   0  0  0  0  0  0
  -29.9166  -13.7948   20.3459 N   0  0  0  0  0  0
  -26.2845  -12.9501   20.3253 N   0  0  0  0  0  0
  -25.9325  -11.6616   20.5744 N   0  0  0  0  0  0
  -22.0431  -12.8184   22.0441 N   0  0  0  0  0  0
  -25.4115  -15.1981   20.4221 N   0  0  0  0  0  0
  -31.7538  -15.0385   20.1633 O   0  0  0  0  0  0
  -21.6646   -6.8883   21.4240 O   0  0  0  0  0  0
  -22.3449  -14.5512   20.6736 O   0  0  0  0  0  0
  -24.6505  -31.8368   23.1840 C   0  0  0  0  0  0
  -25.9247  -32.4653   23.8249 C   0  0  1  0  0  0
  -27.2014  -27.0467   20.1751 C   0  0  0  0  0  0
  -25.5969  -33.8466   24.2151 N   0  0  0  0  0  0
  -23.4579  -30.4554   21.5305 C   0  0  2  0  0  0
  -24.9081  -28.8703   20.1106 C   0  0  0  0  0  0
  -22.7603  -29.4509   22.4830 C   0  0  0  0  0  0
  -18.0310  -28.1399   22.8472 C   0  0  0  0  0  0
  -24.1496  -36.7239   23.2644 C   0  0  0  0  0  0
  -26.0202  -30.6800   21.4002 C   0  0  0  0  0  0
  -26.0867  -29.2825   20.7460 C   0  0  0  0  0  0
  -27.2334  -28.3875   20.7618 C   0  0  0  0  0  0
  -26.0152  -26.7821   19.4576 C   0  0  0  0  0  0
  -24.8903  -27.6356   19.4473 C   0  0  0  0  0  0
  -23.6900  -29.7837   20.1511 C   0  0  0  0  0  0
  -25.4130  -36.3005   24.0306 C   0  0  1  0  0  0
  -20.5927  -28.3733   23.1215 C   0  0  2  0  0  0
  -20.6795  -26.9428   22.5402 C   0  0  0  0  0  0
  -19.5768  -26.6379   21.5213 C   0  0  0  0  0  0
  -18.1947  -26.7936   22.1620 C   0  0  0  0  0  0
  -19.1569  -28.8885   23.2832 C   0  0  0  0  0  0
  -18.9485  -30.1478   23.8862 C   0  0  0  0  0  0
  -17.6482  -30.6594   24.0558 C   0  0  0  0  0  0
  -25.9088  -34.9383   23.5040 C   0  0  0  0  0  0
  -16.5372  -29.9083   23.6342 C   0  0  0  0  0  0
  -16.7294  -28.6502   23.0360 C   0  0  0  0  0  0
  -26.4540  -31.6554   25.0726 C   0  0  0  0  0  0
  -25.3701  -31.3771   26.1405 C   0  0  0  0  0  0
  -27.0419  -30.2934   24.6378 C   0  0  0  0  0  0
  -27.6050  -32.4344   25.7517 C   0  0  0  0  0  0
  -27.5569  -37.1777   24.8464 C   0  0  0  0  0  0
  -21.4286  -29.3045   22.3577 N   0  0  0  0  0  0
  -26.4284  -37.3727   23.9403 N   0  0  0  0  0  0
  -24.7297  -31.0148   22.0920 N   0  0  0  0  0  0
  -23.4210  -28.8059   23.3010 O   0  0  0  0  0  0
  -28.2231  -25.9980   20.2057 O   0  0  0  0  0  0
  -26.5682  -34.8894   22.4624 O   0  0  0  0  0  0
  -23.5605  -32.1288   23.7006 O   0  0  0  0  0  0
  -29.1935  -18.7949   19.2907 C   0  0  0  0  0  0
  -29.1660  -18.7443   21.6236 C   0  0  0  0  0  0
  -29.9815  -17.3484   19.3083 C   0  0  0  0  0  0
  -29.9405  -17.2950   21.6058 C   0  0  0  0  0  0
  -29.3693  -19.8568   20.4801 C   0  0  0  0  0  0
  -26.5360  -24.1551   20.9129 C   0  0  0  0  0  0
  -28.7850  -22.9910   20.1031 C   0  0  0  0  0  0
  -28.4695  -21.3515   20.6062 C   0  0  1  0  0  0
  -28.0209  -24.4626   20.6432 C   0  0  1  0  0  0
  -29.8344  -16.3286   20.4374 N   0  0  0  0  0  0
  -27.0881  -21.0208   20.2130 N   0  3  0  0  0  0
  -31.4610  -12.8171   19.1910 H   0  0  0  0  0  0
  -30.4350  -11.7317   20.0800 H   0  0  0  0  0  0
  -29.8582  -11.7237   17.6250 H   0  0  0  0  0  0
  -29.5893  -13.4496   17.6686 H   0  0  0  0  0  0
  -27.9769  -11.2738   19.0268 H   0  0  0  0  0  0
  -27.3920  -12.4034   17.8327 H   0  0  0  0  0  0
  -27.5603  -14.2503   19.3702 H   0  0  0  0  0  0
  -28.7739  -12.4101   21.4867 H   0  0  0  0  0  0
  -28.3402  -14.0929   21.7109 H   0  0  0  0  0  0
  -25.2771   -9.5691   22.4766 H   0  0  0  0  0  0
  -24.0009   -7.4640   22.7476 H   0  0  0  0  0  0
  -21.0855   -8.8780   19.8951 H   0  0  0  0  0  0
  -22.3711  -10.9677   19.6167 H   0  0  0  0  0  0
  -21.2014   -7.6151   23.9716 H   0  0  0  0  0  0
  -21.1480   -6.0524   25.9076 H   0  0  0  0  0  0
  -22.0599   -2.7612   23.2843 H   0  0  0  0  0  0
  -22.4063  -11.9848   22.4822 H   0  0  0  0  0  0
  -21.1043  -13.1187   22.2649 H   0  0  0  0  0  0
  -24.6499  -15.8558   20.5478 H   0  0  0  0  0  0
  -26.2748  -15.6399   20.1317 H   0  0  0  0  0  0
  -26.7307  -32.5229   23.0965 H   0  0  0  0  0  0
  -25.0085  -33.9575   25.0276 H   0  0  0  0  0  0
  -22.7643  -31.2839   21.3715 H   0  0  0  0  0  0
  -23.3761  -35.9566   23.3291 H   0  0  0  0  0  0
  -24.3582  -36.8897   22.2063 H   0  0  0  0  0  0
  -23.7252  -37.6427   23.6704 H   0  0  0  0  0  0
  -26.1891  -31.4268   20.6232 H   0  0  0  0  0  0
  -26.8858  -30.7315   22.0486 H   0  0  0  0  0  0
  -28.1276  -28.6973   21.2841 H   0  0  0  0  0  0
  -25.9340  -25.8560   18.9099 H   0  0  0  0  0  0
  -24.0014  -27.3238   18.9163 H   0  0  0  0  0  0
  -23.8356  -30.5583   19.3971 H   0  0  0  0  0  0
  -22.8022  -29.2331   19.8352 H   0  0  0  0  0  0
  -25.1321  -36.1821   25.0798 H   0  0  0  0  0  0
  -21.0014  -28.3334   24.1338 H   0  0  0  0  0  0
  -20.5688  -26.2347   23.3629 H   0  0  0  0  0  0
  -21.6658  -26.7430   22.1197 H   0  0  0  0  0  0
  -19.6933  -25.6282   21.1260 H   0  0  0  0  0  0
  -19.6707  -27.3174   20.6732 H   0  0  0  0  0  0
  -17.4217  -26.6680   21.4023 H   0  0  0  0  0  0
  -18.0343  -26.0085   22.9024 H   0  0  0  0  0  0
  -19.7963  -30.7300   24.2215 H   0  0  0  0  0  0
  -17.5037  -31.6272   24.5164 H   0  0  0  0  0  0
  -15.5371  -30.2974   23.7688 H   0  0  0  0  0  0
  -15.8694  -28.0811   22.7095 H   0  0  0  0  0  0
  -24.5898  -30.7098   25.7729 H   0  0  0  0  0  0
  -24.8872  -32.2960   26.4741 H   0  0  0  0  0  0
  -25.7963  -30.9010   27.0244 H   0  0  0  0  0  0
  -26.3061  -29.6637   24.1365 H   0  0  0  0  0  0
  -27.3971  -29.7262   25.4992 H   0  0  0  0  0  0
  -27.8995  -30.4140   23.9757 H   0  0  0  0  0  0
  -27.2628  -33.3678   26.1999 H   0  0  0  0  0  0
  -28.3908  -32.6855   25.0380 H   0  0  0  0  0  0
  -28.0663  -31.8536   26.5516 H   0  0  0  0  0  0
  -28.2572  -38.0086   24.7507 H   0  0  0  0  0  0
  -28.1077  -36.2612   24.6293 H   0  0  0  0  0  0
  -27.2286  -37.1424   25.8868 H   0  0  0  0  0  0
  -20.9512  -29.8756   21.6745 H   0  0  0  0  0  0
  -26.0140  -38.2789   24.1412 H   0  0  0  0  0  0
  -28.1315  -18.5709   19.1833 H   0  0  0  0  0  0
  -29.4606  -19.3016   18.3624 H   0  0  0  0  0  0
  -29.4026  -19.2194   22.5766 H   0  0  0  0  0  0
  -28.0993  -18.5261   21.6909 H   0  0  0  0  0  0
  -31.0482  -17.5564   19.2046 H   0  0  0  0  0  0
  -29.7159  -16.8227   18.3898 H   0  0  0  0  0  0
  -29.6220  -16.7420   22.4907 H   0  0  0  0  0  0
  -31.0038  -17.4840   21.7662 H   0  0  0  0  0  0
  -30.4216  -20.1427   20.5094 H   0  0  0  0  0  0
  -26.4284  -23.2793   21.5508 H   0  0  0  0  0  0
  -25.9846  -23.9640   19.9930 H   0  0  0  0  0  0
  -26.0433  -24.9633   21.4532 H   0  0  0  0  0  0
  -28.6980  -22.9903   19.0166 H   0  0  0  0  0  0
  -29.8505  -23.1447   20.2755 H   0  0  0  0  0  0
  -28.4251  -21.4811   21.6888 H   0  0  0  0  0  0
  -28.4288  -24.5366   21.6522 H   0  0  0  0  0  0
  -27.0255  -20.8831   19.2193 H   0  0  0  0  0  0
  -26.4558  -21.7558   20.4744 H   0  0  0  0  0  0
  -26.7856  -20.1784   20.6690 H   0  0  0  0  0  0
  1 25  1  0  0  0
  1 30  2  0  0  0
  1 80  1  0  0  0
  2  3  1  0  0  0
  2 25  1  0  0  0
  2 82  1  0  0  0
  2 83  1  0  0  0
  3  4  1  0  0  0
  3 84  1  0  0  0
  3 85  1  0  0  0
  4  5  1  0  0  0
  4 86  1  0  0  0
  4 87  1  0  0  0
  5  6  1  0  0  0
  5 26  1  0  0  0
  5 88  1  0  0  0
  6 25  1  0  0  0
  6 89  1  0  0  0
  6 90  1  0  0  0
  7  8  2  0  0  0
  7 26  1  0  0  0
  7 29  1  0  0  0
  8  9  1  0  0  0
  8 22  1  0  0  0
  9 10  1  0  0  0
  9 27  2  0  0  0
 10 11  2  0  0  0
 10 15  1  0  0  0
 11 12  1  0  0  0
 11 91  1  0  0  0
 12 13  2  0  0  0
 12 92  1  0  0  0
 13 14  1  0  0  0
 13 31  1  0  0  0
 14 15  2  0  0  0
 14 93  1  0  0  0
 15 94  1  0  0  0
 16 17  2  0  0  0
 16 21  1  0  0  0
 16 31  1  0  0  0
 17 18  1  0  0  0
 17 95  1  0  0  0
 18 19  2  0  0  0
 18 96  1  0  0  0
 19 20  1  0  0  0
 19 24  1  0  0  0
 20 21  2  0  0  0
 20 97  1  0  0  0
 21 23  1  0  0  0
 22 28  1  0  0  0
 22 32  2  0  0  0
 26 27  1  0  0  0
 28 98  1  0  0  0
 28 99  1  0  0  0
 29100  1  0  0  0
 29101  1  0  0  0
 33 34  1  0  0  0
 33 66  1  0  0  0
 33 70  2  0  0  0
 34 36  1  0  0  0
 34 59  1  0  0  0
 34102  1  0  0  0
 35 44  2  0  0  0
 35 45  1  0  0  0
 35 68  1  0  0  0
 36 56  1  0  0  0
 36103  1  0  0  0
 37 39  1  0  0  0
 37 47  1  0  0  0
 37 66  1  0  0  0
 37104  1  0  0  0
 38 43  2  0  0  0
 38 46  1  0  0  0
 38 47  1  0  0  0
 39 64  1  0  0  0
 39 67  2  0  0  0
 40 52  1  0  0  0
 40 53  2  0  0  0
 40 58  1  0  0  0
 41105  1  0  0  0
 41106  1  0  0  0
 41107  1  0  0  0
 41 48  1  0  0  0
 42 43  1  0  0  0
 42 66  1  0  0  0
 42108  1  0  0  0
 42109  1  0  0  0
 43 44  1  0  0  0
 44110  1  0  0  0
 45 46  2  0  0  0
 45111  1  0  0  0
 46112  1  0  0  0
 47113  1  0  0  0
 47114  1  0  0  0
 48 56  1  0  0  0
 48 65  1  0  0  0
 48115  1  0  0  0
 49 50  1  0  0  0
 49 53  1  0  0  0
 49 64  1  0  0  0
 49116  1  0  0  0
 50 51  1  0  0  0
 50117  1  0  0  0
 50118  1  0  0  0
 51 52  1  0  0  0
 51119  1  0  0  0
 51120  1  0  0  0
 52121  1  0  0  0
 52122  1  0  0  0
 53 54  1  0  0  0
 54 55  2  0  0  0
 54123  1  0  0  0
 55 57  1  0  0  0
 55124  1  0  0  0
 56 69  2  0  0  0
 57 58  2  0  0  0
 57125  1  0  0  0
 58126  1  0  0  0
 59 60  1  0  0  0
 59 61  1  0  0  0
 59 62  1  0  0  0
 60127  1  0  0  0
 60128  1  0  0  0
 60129  1  0  0  0
 61130  1  0  0  0
 61131  1  0  0  0
 61132  1  0  0  0
 62133  1  0  0  0
 62134  1  0  0  0
 62135  1  0  0  0
 63 65  1  0  0  0
 63136  1  0  0  0
 63137  1  0  0  0
 63138  1  0  0  0
 64139  1  0  0  0
 65140  1  0  0  0
 68 79  1  0  0  0
 71 73  1  0  0  0
 71141  1  0  0  0
 71142  1  0  0  0
 71 75  1  0  0  0
 72 74  1  0  0  0
 72 75  1  0  0  0
 72143  1  0  0  0
 72144  1  0  0  0
 73 80  1  0  0  0
 73145  1  0  0  0
 73146  1  0  0  0
 74 80  1  0  0  0
 74147  1  0  0  0
 74148  1  0  0  0
 75 78  1  0  0  0
 75149  1  0  0  0
 76150  1  0  0  0
 76151  1  0  0  0
 76152  1  0  0  0
 76 79  1  0  0  0
 77 78  1  0  0  0
 77 79  1  0  0  0
 77153  1  0  0  0
 77154  1  0  0  0
 78 81  1  0  0  0
 78155  1  0  0  0
 79156  1  0  0  0
 81157  1  0  0  0
 81158  1  0  0  0
 81159  1  0  0  0
M  CHG  1  81   1
M  ISO  4   1 100  68 101  79 101  80 100
M  END
> <chiral flag>
0

> <version>
0

> <s_m_source_file>
/data/baiqing/PycharmProjects/Reinvent-master-3.2/result/LINK_invent/BTK/process_docking_weight1_custom_sum_contain_oxygen_bond_distance_aromatic_linkinvent_7_9_3/rearranged_h_0112.sdf

> <i_m_source_file_index>
35

> <r_mmod_Potential_Energy-OPLS-2005>
855.360595703125

> <r_mmod_Stretch_Energy-OPLS-2005>
380.221557617188

> <r_mmod_Bend_Energy-OPLS-2005>
390.604309082031

> <r_mmod_Torsional_Energy-OPLS-2005>
376.290618896484

> <r_mmod_Improper_Torsional_Energy-OPLS-2005>
12.067759513855

> <r_mmod_Van_der_Waal_Energy-OPLS-2005>
119.955421447754

> <r_mmod_Electrostatic_Energy-OPLS-2005>
-213.639389038086

> <r_mmod_Solvation_Energy-OPLS-2005>
-486.285736083984

> <b_mmod_Minimization_Converged-OPLS-2005>
0

> <r_mmod_RMS_Derivative-OPLS-2005>
0.430348128080368

$$$$
35
                    3D
 Structure written by MMmdl.
150158  0  0  1  0            999 V2000
  -30.2970  -15.6022   20.3263 C   0  0  0  0  0  0
  -30.4344  -13.0515   19.5481 C   0  0  0  0  0  0
  -29.5570  -12.6496   18.3279 C   0  0  0  0  0  0
  -28.1276  -12.2951   18.7666 C   0  0  0  0  0  0
  -27.6011  -13.3011   19.8151 C   0  0  2  0  0  0
  -28.6157  -13.6161   20.9394 C   0  0  0  0  0  0
  -25.2349  -13.8275   20.5778 C   0  0  0  0  0  0
  -24.1724  -13.0440   20.9278 C   0  0  0  0  0  0
  -24.6404  -11.6944   20.8754 C   0  0  0  0  0  0
  -23.9092  -10.4305   21.0391 C   0  0  0  0  0  0
  -24.3634   -9.4216   21.9169 C   0  0  0  0  0  0
  -23.6307   -8.2249   22.0748 C   0  0  0  0  0  0
  -22.4287   -8.0285   21.3545 C   0  0  0  0  0  0
  -21.9920   -9.0254   20.4644 C   0  0  0  0  0  0
  -22.7259  -10.2134   20.3050 C   0  0  0  0  0  0
  -21.6858   -6.0734   22.5280 C   0  0  0  0  0  0
  -21.4013   -6.5636   23.8211 C   0  0  0  0  0  0
  -21.3663   -5.6790   24.9172 C   0  0  0  0  0  0
  -21.6042   -4.3048   24.7223 C   0  0  0  0  0  0
  -21.8823   -3.8140   23.4348 C   0  0  0  0  0  0
  -21.9187   -4.6959   22.3401 C   0  0  0  0  0  0
  -22.7741  -13.5183   21.1911 C   0  0  0  0  0  0
  -22.1663   -4.2142   21.0983 F   0  0  0  0  0  0
  -21.5622   -3.4533   25.7737 F   0  0  0  0  0  0
  -29.8028  -14.2274   20.2985 N   0  0  0  0  0  0
  -26.2785  -12.9583   20.3212 N   0  0  0  0  0  0
  -25.9346  -11.6666   20.5684 N   0  0  0  0  0  0
  -22.0393  -12.8177   22.0464 N   0  0  0  0  0  0
  -25.3960  -15.2017   20.4226 N   0  0  0  0  0  0
  -31.5261  -15.5769   20.1202 O   0  0  0  0  0  0
  -21.6650   -6.8887   21.4247 O   0  0  0  0  0  0
  -22.3420  -14.5470   20.6730 O   0  0  0  0  0  0
  -24.6823  -31.8031   23.1526 C   0  0  0  0  0  0
  -25.9423  -32.4473   23.8061 C   0  0  1  0  0  0
  -27.2281  -26.7221   20.2013 C   0  0  0  0  0  0
  -25.6024  -33.8295   24.1954 N   0  0  0  0  0  0
  -23.5066  -30.4057   21.5066 C   0  0  2  0  0  0
  -24.9638  -28.7522   20.1125 C   0  0  0  0  0  0
  -22.7765  -29.4335   22.4721 C   0  0  0  0  0  0
  -18.0342  -28.1434   22.8461 C   0  0  0  0  0  0
  -24.1488  -36.7146   23.2650 C   0  0  0  0  0  0
  -26.0868  -30.5420   21.4135 C   0  0  0  0  0  0
  -26.1527  -29.1087   20.7595 C   0  0  0  0  0  0
  -27.2691  -28.1206   20.7744 C   0  0  0  0  0  0
  -26.0078  -26.5738   19.4952 C   0  0  0  0  0  0
  -24.9292  -27.5092   19.4576 C   0  0  0  0  0  0
  -23.7584  -29.7050   20.1398 C   0  0  0  0  0  0
  -25.4139  -36.2900   24.0283 C   0  0  1  0  0  0
  -20.5980  -28.3783   23.1158 C   0  0  2  0  0  0
  -20.6804  -26.9445   22.5417 C   0  0  0  0  0  0
  -19.5785  -26.6380   21.5228 C   0  0  0  0  0  0
  -18.1965  -26.7965   22.1621 C   0  0  0  0  0  0
  -19.1609  -28.8931   23.2790 C   0  0  0  0  0  0
  -18.9513  -30.1518   23.8822 C   0  0  0  0  0  0
  -17.6499  -30.6609   24.0554 C   0  0  0  0  0  0
  -25.9121  -34.9294   23.4948 C   0  0  0  0  0  0
  -16.5386  -29.9088   23.6358 C   0  0  0  0  0  0
  -16.7325  -28.6524   23.0362 C   0  0  0  0  0  0
  -26.4608  -31.6496   25.0667 C   0  0  0  0  0  0
  -25.3690  -31.3850   26.1304 C   0  0  0  0  0  0
  -27.0494  -30.2813   24.6557 C   0  0  0  0  0  0
  -27.6068  -32.4341   25.7475 C   0  0  0  0  0  0
  -27.5555  -37.1738   24.8470 C   0  0  0  0  0  0
  -21.4414  -29.3022   22.3471 N   0  0  0  0  0  0
  -26.4258  -37.3658   23.9412 N   0  0  0  0  0  0
  -24.7818  -30.9501   22.0766 N   0  0  0  0  0  0
  -23.4225  -28.7934   23.3057 O   0  0  0  0  0  0
  -28.1805  -25.4996   20.2938 O   0  0  0  0  0  0
  -26.5741  -34.8874   22.4549 O   0  0  0  0  0  0
  -23.5858  -32.1087   23.6517 O   0  0  0  0  0  0
  -29.6578  -21.2535   19.5778 C   0  0  0  0  0  0
  -27.9828  -20.9511   20.9913 C   0  0  0  0  0  0
  -28.6059  -22.0792   20.2560 C   0  0  0  0  0  0
  -29.9927  -19.7466   19.6285 C   0  0  0  0  0  0
  -28.2846  -19.4567   21.0565 C   0  0  0  0  0  0
  -29.3305  -18.6310   20.3797 C   0  0  0  0  0  0
  -31.1440  -19.3249   18.7354 C   0  0  0  0  0  0
  -27.3306  -18.6964   21.9609 C   0  0  0  0  0  0
  -27.9102  -23.7977   20.0057 C   0  0  0  0  0  0
  -29.4687  -16.9103   20.4446 N   0  0  0  0  0  0
  -31.4295  -13.3139   19.1873 H   0  0  0  0  0  0
  -30.5898  -12.2004   20.2128 H   0  0  0  0  0  0
  -30.0074  -11.8129   17.7917 H   0  0  0  0  0  0
  -29.5214  -13.4819   17.6248 H   0  0  0  0  0  0
  -28.1517  -11.2975   19.2060 H   0  0  0  0  0  0
  -27.4598  -12.2394   17.9066 H   0  0  0  0  0  0
  -27.4703  -14.2265   19.2514 H   0  0  0  0  0  0
  -28.8649  -12.7298   21.5242 H   0  0  0  0  0  0
  -28.1864  -14.3326   21.6411 H   0  0  0  0  0  0
  -25.2778   -9.5690   22.4739 H   0  0  0  0  0  0
  -24.0012   -7.4642   22.7467 H   0  0  0  0  0  0
  -21.0843   -8.8777   19.8958 H   0  0  0  0  0  0
  -22.3708  -10.9664   19.6155 H   0  0  0  0  0  0
  -21.2020   -7.6150   23.9716 H   0  0  0  0  0  0
  -21.1478   -6.0517   25.9075 H   0  0  0  0  0  0
  -22.0598   -2.7602   23.2842 H   0  0  0  0  0  0
  -22.4019  -11.9865   22.4897 H   0  0  0  0  0  0
  -21.0998  -13.1180   22.2638 H   0  0  0  0  0  0
  -24.6186  -15.8460   20.5247 H   0  0  0  0  0  0
  -26.2242  -15.6380   20.0388 H   0  0  0  0  0  0
  -26.7504  -32.4949   23.0782 H   0  0  0  0  0  0
  -25.0125  -33.9319   25.0080 H   0  0  0  0  0  0
  -22.8311  -31.2430   21.3200 H   0  0  0  0  0  0
  -23.3757  -35.9467   23.3303 H   0  0  0  0  0  0
  -24.3563  -36.8808   22.2067 H   0  0  0  0  0  0
  -23.7246  -37.6329   23.6718 H   0  0  0  0  0  0
  -26.2870  -31.2721   20.6278 H   0  0  0  0  0  0
  -26.9391  -30.6079   22.0773 H   0  0  0  0  0  0
  -28.1605  -28.3990   21.3179 H   0  0  0  0  0  0
  -25.8419  -25.6318   18.9929 H   0  0  0  0  0  0
  -24.0317  -27.2276   18.9239 H   0  0  0  0  0  0
  -23.9310  -30.4675   19.3794 H   0  0  0  0  0  0
  -22.8631  -29.1723   19.8153 H   0  0  0  0  0  0
  -25.1355  -36.1655   25.0769 H   0  0  0  0  0  0
  -21.0054  -28.3404   24.1289 H   0  0  0  0  0  0
  -20.5665  -26.2406   23.3683 H   0  0  0  0  0  0
  -21.6668  -26.7389   22.1242 H   0  0  0  0  0  0
  -19.6932  -25.6272   21.1306 H   0  0  0  0  0  0
  -19.6728  -27.3154   20.6737 H   0  0  0  0  0  0
  -17.4238  -26.6722   21.4016 H   0  0  0  0  0  0
  -18.0332  -26.0128   22.9035 H   0  0  0  0  0  0
  -19.7981  -30.7371   24.2140 H   0  0  0  0  0  0
  -17.5047  -31.6277   24.5181 H   0  0  0  0  0  0
  -15.5387  -30.2964   23.7732 H   0  0  0  0  0  0
  -15.8731  -28.0831   22.7091 H   0  0  0  0  0  0
  -24.5880  -30.7175   25.7657 H   0  0  0  0  0  0
  -24.8869  -32.3086   26.4518 H   0  0  0  0  0  0
  -25.7883  -30.9182   27.0224 H   0  0  0  0  0  0
  -26.3190  -29.6459   24.1524 H   0  0  0  0  0  0
  -27.3889  -29.7232   25.5299 H   0  0  0  0  0  0
  -27.9214  -30.3920   24.0099 H   0  0  0  0  0  0
  -27.2618  -33.3717   26.1857 H   0  0  0  0  0  0
  -28.3980  -32.6778   25.0366 H   0  0  0  0  0  0
  -28.0622  -31.8586   26.5551 H   0  0  0  0  0  0
  -28.2579  -38.0023   24.7473 H   0  0  0  0  0  0
  -28.1037  -36.2548   24.6340 H   0  0  0  0  0  0
  -27.2283  -37.1453   25.8877 H   0  0  0  0  0  0
  -20.9708  -29.8672   21.6537 H   0  0  0  0  0  0
  -26.0092  -38.2706   24.1397 H   0  0  0  0  0  0
  -30.2661  -21.8223   18.8880 H   0  0  0  0  0  0
  -27.1138  -21.2563   21.5592 H   0  0  0  0  0  0
  -32.0358  -19.9093   18.9595 H   0  0  0  0  0  0
  -30.8907  -19.4800   17.6868 H   0  0  0  0  0  0
  -31.3952  -18.2719   18.8693 H   0  0  0  0  0  0
  -27.3554  -19.1192   22.9652 H   0  0  0  0  0  0
  -27.5718  -17.6391   22.0484 H   0  0  0  0  0  0
  -26.3101  -18.7756   21.5859 H   0  0  0  0  0  0
  -26.9110  -23.6772   20.4226 H   0  0  0  0  0  0
  -27.7362  -23.7948   18.9291 H   0  0  0  0  0  0
  -28.5568  -16.5585   20.6949 H   0  0  0  0  0  0
  1 25  1  0  0  0
  1 30  2  0  0  0
  1 80  1  0  0  0
  2  3  1  0  0  0
  2 25  1  0  0  0
  2 81  1  0  0  0
  2 82  1  0  0  0
  3  4  1  0  0  0
  3 83  1  0  0  0
  3 84  1  0  0  0
  4  5  1  0  0  0
  4 85  1  0  0  0
  4 86  1  0  0  0
  5  6  1  0  0  0
  5 26  1  0  0  0
  5 87  1  0  0  0
  6 25  1  0  0  0
  6 88  1  0  0  0
  6 89  1  0  0  0
  7  8  2  0  0  0
  7 26  1  0  0  0
  7 29  1  0  0  0
  8  9  1  0  0  0
  8 22  1  0  0  0
  9 10  1  0  0  0
  9 27  2  0  0  0
 10 11  2  0  0  0
 10 15  1  0  0  0
 11 12  1  0  0  0
 11 90  1  0  0  0
 12 13  2  0  0  0
 12 91  1  0  0  0
 13 14  1  0  0  0
 13 31  1  0  0  0
 14 15  2  0  0  0
 14 92  1  0  0  0
 15 93  1  0  0  0
 16 17  2  0  0  0
 16 21  1  0  0  0
 16 31  1  0  0  0
 17 18  1  0  0  0
 17 94  1  0  0  0
 18 19  2  0  0  0
 18 95  1  0  0  0
 19 20  1  0  0  0
 19 24  1  0  0  0
 20 21  2  0  0  0
 20 96  1  0  0  0
 21 23  1  0  0  0
 22 28  1  0  0  0
 22 32  2  0  0  0
 26 27  1  0  0  0
 28 97  1  0  0  0
 28 98  1  0  0  0
 29 99  1  0  0  0
 29100  1  0  0  0
 33 34  1  0  0  0
 33 66  1  0  0  0
 33 70  2  0  0  0
 34 36  1  0  0  0
 34 59  1  0  0  0
 34101  1  0  0  0
 35 44  2  0  0  0
 35 45  1  0  0  0
 35 68  1  0  0  0
 36 56  1  0  0  0
 36102  1  0  0  0
 37 39  1  0  0  0
 37 47  1  0  0  0
 37 66  1  0  0  0
 37103  1  0  0  0
 38 43  2  0  0  0
 38 46  1  0  0  0
 38 47  1  0  0  0
 39 64  1  0  0  0
 39 67  2  0  0  0
 40 52  1  0  0  0
 40 53  2  0  0  0
 40 58  1  0  0  0
 41104  1  0  0  0
 41105  1  0  0  0
 41106  1  0  0  0
 41 48  1  0  0  0
 42 43  1  0  0  0
 42 66  1  0  0  0
 42107  1  0  0  0
 42108  1  0  0  0
 43 44  1  0  0  0
 44109  1  0  0  0
 45 46  2  0  0  0
 45110  1  0  0  0
 46111  1  0  0  0
 47112  1  0  0  0
 47113  1  0  0  0
 48 56  1  0  0  0
 48 65  1  0  0  0
 48114  1  0  0  0
 49 50  1  0  0  0
 49 53  1  0  0  0
 49 64  1  0  0  0
 49115  1  0  0  0
 50 51  1  0  0  0
 50116  1  0  0  0
 50117  1  0  0  0
 51 52  1  0  0  0
 51118  1  0  0  0
 51119  1  0  0  0
 52120  1  0  0  0
 52121  1  0  0  0
 53 54  1  0  0  0
 54 55  2  0  0  0
 54122  1  0  0  0
 55 57  1  0  0  0
 55123  1  0  0  0
 56 69  2  0  0  0
 57 58  2  0  0  0
 57124  1  0  0  0
 58125  1  0  0  0
 59 60  1  0  0  0
 59 61  1  0  0  0
 59 62  1  0  0  0
 60126  1  0  0  0
 60127  1  0  0  0
 60128  1  0  0  0
 61129  1  0  0  0
 61130  1  0  0  0
 61131  1  0  0  0
 62132  1  0  0  0
 62133  1  0  0  0
 62134  1  0  0  0
 63 65  1  0  0  0
 63135  1  0  0  0
 63136  1  0  0  0
 63137  1  0  0  0
 64138  1  0  0  0
 65139  1  0  0  0
 68 79  1  0  0  0
 71 73  2  0  0  0
 71 74  1  0  0  0
 71140  1  0  0  0
 72 73  1  0  0  0
 72 75  2  0  0  0
 72141  1  0  0  0
 73 79  1  0  0  0
 74 76  2  0  0  0
 74 77  1  0  0  0
 75 76  1  0  0  0
 75 78  1  0  0  0
 76 80  1  0  0  0
 77142  1  0  0  0
 77143  1  0  0  0
 77144  1  0  0  0
 78145  1  0  0  0
 78146  1  0  0  0
 78147  1  0  0  0
 79148  1  0  0  0
 79149  1  0  0  0
 80150  1  0  0  0
M  ISO  4   1 100  68 101  79 101  80 100
M  END
> <chiral flag>
0

> <version>
0

> <s_m_source_file>
/data/baiqing/PycharmProjects/Reinvent-master-3.2/result/LINK_invent/BTK/process_docking_weight1_custom_sum_contain_oxygen_bond_distance_aromatic_linkinvent_7_9_3/rearranged_h_0112.sdf

> <i_m_source_file_index>
36

> <r_mmod_Potential_Energy-OPLS-2005>
2228.138671875

> <r_mmod_Stretch_Energy-OPLS-2005>
917.705139160156

> <r_mmod_Bend_Energy-OPLS-2005>
670.249450683594

> <r_mmod_Torsional_Energy-OPLS-2005>
233.790985107422

> <r_mmod_Improper_Torsional_Energy-OPLS-2005>
7.19244623184204

> <r_mmod_Van_der_Waal_Energy-OPLS-2005>
129.548431396484

> <r_mmod_Electrostatic_Energy-OPLS-2005>
-383.336364746094

> <r_mmod_Solvation_Energy-OPLS-2005>
-209.716339111328

> <b_mmod_Minimization_Converged-OPLS-2005>
0

> <r_mmod_RMS_Derivative-OPLS-2005>
2.11817598342896

$$$$
36
                    3D
 Structure written by MMmdl.
185193  0  0  1  0            999 V2000
  -30.7073  -14.5791   20.3225 C   0  0  0  0  0  0
  -30.4094  -12.3096   19.4439 C   0  0  0  0  0  0
  -29.4834  -12.3531   18.2140 C   0  0  0  0  0  0
  -28.0021  -12.2611   18.6422 C   0  0  0  0  0  0
  -27.6246  -13.1669   19.8464 C   0  0  2  0  0  0
  -28.7042  -13.1516   20.9521 C   0  0  0  0  0  0
  -25.2557  -13.8018   20.5876 C   0  0  0  0  0  0
  -24.1757  -13.0354   20.9287 C   0  0  0  0  0  0
  -24.6275  -11.6799   20.8842 C   0  0  0  0  0  0
  -23.8964  -10.4216   21.0469 C   0  0  0  0  0  0
  -24.3540   -9.4136   21.9222 C   0  0  0  0  0  0
  -23.6245   -8.2161   22.0747 C   0  0  0  0  0  0
  -22.4216   -8.0240   21.3528 C   0  0  0  0  0  0
  -21.9855   -9.0226   20.4625 C   0  0  0  0  0  0
  -22.7179  -10.2108   20.3074 C   0  0  0  0  0  0
  -21.6838   -6.0728   22.5288 C   0  0  0  0  0  0
  -21.4032   -6.5629   23.8236 C   0  0  0  0  0  0
  -21.3652   -5.6763   24.9172 C   0  0  0  0  0  0
  -21.6026   -4.3036   24.7200 C   0  0  0  0  0  0
  -21.8831   -3.8148   23.4327 C   0  0  0  0  0  0
  -21.9177   -4.6961   22.3389 C   0  0  0  0  0  0
  -22.7796  -13.5237   21.1841 C   0  0  0  0  0  0
  -22.1644   -4.2166   21.0965 F   0  0  0  0  0  0
  -21.5575   -3.4509   25.7710 F   0  0  0  0  0  0
  -30.0041  -13.4105   20.3193 N   0  0  0  0  0  0
  -26.2888  -12.9051   20.3519 N   0  0  0  0  0  0
  -25.9184  -11.6283   20.5936 N   0  0  0  0  0  0
  -22.0352  -12.8318   22.0402 N   0  0  0  0  0  0
  -25.4327  -15.1752   20.4325 N   0  0  0  0  0  0
  -31.9334  -14.5926   20.2106 O   0  0  0  0  0  0
  -21.6583   -6.8859   21.4241 O   0  0  0  0  0  0
  -22.3569  -14.5540   20.6636 O   0  0  0  0  0  0
  -24.6096  -31.8704   23.2109 C   0  0  0  0  0  0
  -25.9005  -32.4847   23.8423 C   0  0  1  0  0  0
  -27.2508  -27.4553   20.1288 C   0  0  0  0  0  0
  -25.5866  -33.8647   24.2347 N   0  0  0  0  0  0
  -23.3979  -30.4886   21.5504 C   0  0  2  0  0  0
  -24.8491  -28.9509   20.1259 C   0  0  0  0  0  0
  -22.7384  -29.4660   22.5015 C   0  0  0  0  0  0
  -18.0261  -28.1395   22.8492 C   0  0  0  0  0  0
  -24.1482  -36.7335   23.2650 C   0  0  0  0  0  0
  -25.9209  -30.8457   21.3579 C   0  0  0  0  0  0
  -26.0039  -29.4756   20.7214 C   0  0  0  0  0  0
  -27.1991  -28.7330   20.7230 C   0  0  0  0  0  0
  -26.0846  -26.9458   19.5084 C   0  0  0  0  0  0
  -24.8851  -27.6849   19.5160 C   0  0  0  0  0  0
  -23.6087  -29.8110   20.1678 C   0  0  0  0  0  0
  -25.4103  -36.3146   24.0356 C   0  0  1  0  0  0
  -20.5834  -28.3683   23.1339 C   0  0  2  0  0  0
  -20.6730  -26.9421   22.5411 C   0  0  0  0  0  0
  -19.5711  -26.6404   21.5203 C   0  0  0  0  0  0
  -18.1902  -26.7935   22.1623 C   0  0  0  0  0  0
  -19.1513  -28.8847   23.2906 C   0  0  0  0  0  0
  -18.9448  -30.1454   23.8932 C   0  0  0  0  0  0
  -17.6452  -30.6590   24.0583 C   0  0  0  0  0  0
  -25.9026  -34.9506   23.5146 C   0  0  0  0  0  0
  -16.5334  -29.9104   23.6342 C   0  0  0  0  0  0
  -16.7249  -28.6509   23.0369 C   0  0  0  0  0  0
  -26.4454  -31.6620   25.0729 C   0  0  0  0  0  0
  -25.3726  -31.3689   26.1481 C   0  0  0  0  0  0
  -27.0275  -30.3075   24.6063 C   0  0  0  0  0  0
  -27.6058  -32.4317   25.7468 C   0  0  0  0  0  0
  -27.5580  -37.1820   24.8466 C   0  0  0  0  0  0
  -21.4111  -29.3049   22.3763 N   0  0  0  0  0  0
  -26.4283  -37.3823   23.9426 N   0  0  0  0  0  0
  -24.6617  -31.0845   22.1000 N   0  0  0  0  0  0
  -23.4158  -28.8220   23.3077 O   0  0  0  0  0  0
  -28.4577  -26.7903   20.1657 O   0  0  0  0  0  0
  -26.5599  -34.8936   22.4720 O   0  0  0  0  0  0
  -23.5288  -32.1437   23.7515 O   0  0  0  0  0  0
  -29.5736  -17.0650   18.0317 C   0  0  0  0  0  0
  -29.1111  -16.0193   19.0696 C   0  0  0  0  0  0
  -30.5713  -16.9889   20.8241 C   0  0  0  0  0  0
  -30.4387  -18.2188   18.5682 C   0  0  2  0  0  0
  -30.2686  -18.3462   20.1100 C   0  0  2  0  0  0
  -31.4266  -20.4953   17.7031 C   0  0  0  0  0  0
  -31.6773  -24.9496   21.1724 C   0  0  0  0  0  0
  -31.5277  -20.1638   22.9975 C   0  0  0  0  0  0
  -30.5126  -21.6743   21.1417 C   0  0  0  0  0  0
  -28.0565  -23.9354   22.2212 C   0  0  0  0  0  0
  -28.4955  -25.3622   20.1638 C   0  0  0  0  0  0
  -30.2621  -19.4799   17.6427 C   0  0  2  0  0  0
  -29.1228  -24.7846   21.4746 C   0  0  2  0  0  0
  -30.4544  -24.0251   21.1501 C   0  0  2  0  0  0
  -30.6382  -20.2544   21.7472 C   0  0  1  0  0  0
  -30.0125  -15.7568   20.2133 N   0  0  0  0  0  0
  -30.7162  -22.8417   21.9977 N   0  0  0  0  0  0
  -28.4782  -23.5424   23.5781 N   0  3  0  0  0  0
  -28.9348  -20.1444   17.7071 N   0  3  0  0  0  0
  -31.1824  -19.3689   20.6901 N   0  3  0  0  0  0
  -31.4540  -12.3804   19.1355 H   0  0  0  0  0  0
  -30.3118  -11.3582   19.9726 H   0  0  0  0  0  0
  -29.7196  -11.5108   17.5623 H   0  0  0  0  0  0
  -29.6724  -13.2411   17.6139 H   0  0  0  0  0  0
  -27.8282  -11.2212   18.9170 H   0  0  0  0  0  0
  -27.3475  -12.4619   17.7932 H   0  0  0  0  0  0
  -27.5294  -14.1565   19.4496 H   0  0  0  0  0  0
  -28.7189  -12.1956   21.4745 H   0  0  0  0  0  0
  -28.4918  -13.9128   21.7049 H   0  0  0  0  0  0
  -25.2673   -9.5591   22.4817 H   0  0  0  0  0  0
  -23.9922   -7.4551   22.7478 H   0  0  0  0  0  0
  -21.0778   -8.8799   19.8950 H   0  0  0  0  0  0
  -22.3688  -10.9665   19.6185 H   0  0  0  0  0  0
  -21.2103   -7.6154   23.9759 H   0  0  0  0  0  0
  -21.1426   -6.0473   25.9082 H   0  0  0  0  0  0
  -22.0619   -2.7612   23.2804 H   0  0  0  0  0  0
  -22.3936  -12.0031   22.4900 H   0  0  0  0  0  0
  -21.0990  -13.1443   22.2530 H   0  0  0  0  0  0
  -24.6730  -15.8330   20.5674 H   0  0  0  0  0  0
  -26.3012  -15.6216   20.1642 H   0  0  0  0  0  0
  -26.7079  -32.5602   23.1201 H   0  0  0  0  0  0
  -24.9979  -33.9822   25.0465 H   0  0  0  0  0  0
  -22.6859  -31.3021   21.4051 H   0  0  0  0  0  0
  -23.3719  -35.9681   23.3322 H   0  0  0  0  0  0
  -24.3552  -36.8928   22.2050 H   0  0  0  0  0  0
  -23.7216  -37.6549   23.6630 H   0  0  0  0  0  0
  -26.0124  -31.6009   20.5752 H   0  0  0  0  0  0
  -26.8140  -30.9188   21.9637 H   0  0  0  0  0  0
  -28.0853  -29.1357   21.1960 H   0  0  0  0  0  0
  -26.0782  -25.9933   19.0005 H   0  0  0  0  0  0
  -24.0047  -27.2743   19.0409 H   0  0  0  0  0  0
  -23.7165  -30.5772   19.3995 H   0  0  0  0  0  0
  -22.7371  -29.2201   19.8789 H   0  0  0  0  0  0
  -25.1252  -36.2034   25.0834 H   0  0  0  0  0  0
  -20.9934  -28.3242   24.1461 H   0  0  0  0  0  0
  -20.5648  -26.2296   23.3606 H   0  0  0  0  0  0
  -21.6622  -26.7475   22.1236 H   0  0  0  0  0  0
  -19.6892  -25.6329   21.1240 H   0  0  0  0  0  0
  -19.6664  -27.3215   20.6752 H   0  0  0  0  0  0
  -17.4181  -26.6711   21.4013 H   0  0  0  0  0  0
  -18.0306  -26.0044   22.9005 H   0  0  0  0  0  0
  -19.7923  -30.7247   24.2329 H   0  0  0  0  0  0
  -17.5019  -31.6285   24.5168 H   0  0  0  0  0  0
  -15.5345  -30.3033   23.7636 H   0  0  0  0  0  0
  -15.8646  -28.0839   22.7106 H   0  0  0  0  0  0
  -24.5903  -30.7044   25.7815 H   0  0  0  0  0  0
  -24.8919  -32.2833   26.4969 H   0  0  0  0  0  0
  -25.8098  -30.8836   27.0219 H   0  0  0  0  0  0
  -26.2824  -29.6817   24.1145 H   0  0  0  0  0  0
  -27.4096  -29.7317   25.4506 H   0  0  0  0  0  0
  -27.8625  -30.4398   23.9165 H   0  0  0  0  0  0
  -27.2706  -33.3606   26.2081 H   0  0  0  0  0  0
  -28.3828  -32.6882   25.0262 H   0  0  0  0  0  0
  -28.0752  -31.8411   26.5333 H   0  0  0  0  0  0
  -28.2621  -38.0109   24.7519 H   0  0  0  0  0  0
  -28.1051  -36.2633   24.6272 H   0  0  0  0  0  0
  -27.2304  -37.1472   25.8878 H   0  0  0  0  0  0
  -20.9288  -29.8762   21.6968 H   0  0  0  0  0  0
  -26.0179  -38.2904   24.1418 H   0  0  0  0  0  0
  -28.6753  -17.4390   17.5353 H   0  0  0  0  0  0
  -30.1252  -16.5724   17.2310 H   0  0  0  0  0  0
  -28.9572  -15.1322   18.4623 H   0  0  0  0  0  0
  -28.1336  -16.3088   19.4612 H   0  0  0  0  0  0
  -30.2111  -17.0319   21.8535 H   0  0  0  0  0  0
  -31.6542  -16.8995   20.9076 H   0  0  0  0  0  0
  -31.4663  -17.8815   18.4187 H   0  0  0  0  0  0
  -29.2300  -18.6272   20.2972 H   0  0  0  0  0  0
  -32.3761  -20.0266   17.9655 H   0  0  0  0  0  0
  -31.2457  -21.3231   18.3813 H   0  0  0  0  0  0
  -31.5734  -20.9515   16.7236 H   0  0  0  0  0  0
  -31.5218  -25.8000   20.5060 H   0  0  0  0  0  0
  -32.5702  -24.4370   20.8159 H   0  0  0  0  0  0
  -31.8817  -25.3473   22.1643 H   0  0  0  0  0  0
  -31.1056  -20.7364   23.8235 H   0  0  0  0  0  0
  -32.5385  -20.5250   22.8189 H   0  0  0  0  0  0
  -31.6040  -19.1306   23.3368 H   0  0  0  0  0  0
  -29.5449  -21.7505   20.6403 H   0  0  0  0  0  0
  -31.2768  -21.7750   20.3735 H   0  0  0  0  0  0
  -27.8410  -23.0355   21.6461 H   0  0  0  0  0  0
  -27.1185  -24.4859   22.3059 H   0  0  0  0  0  0
  -27.5298  -24.8914   19.9964 H   0  0  0  0  0  0
  -29.0883  -25.0934   19.2907 H   0  0  0  0  0  0
  -30.3113  -19.0820   16.6273 H   0  0  0  0  0  0
  -29.3624  -25.6289   22.1234 H   0  0  0  0  0  0
  -30.3931  -23.7001   20.1120 H   0  0  0  0  0  0
  -29.6435  -19.9237   22.0479 H   0  0  0  0  0  0
  -31.6974  -22.8506   22.2761 H   0  0  0  0  0  0
  -28.4741  -24.3216   24.2103 H   0  0  0  0  0  0
  -29.4207  -23.1815   23.4899 H   0  0  0  0  0  0
  -27.8809  -22.8205   23.9424 H   0  0  0  0  0  0
  -28.7015  -20.5312   18.6039 H   0  0  0  0  0  0
  -28.1909  -19.5180   17.4414 H   0  0  0  0  0  0
  -28.9173  -20.8973   17.0395 H   0  0  0  0  0  0
  -31.5300  -19.9775   19.9650 H   0  0  0  0  0  0
  -31.9907  -18.8956   21.0674 H   0  0  0  0  0  0
  1 25  1  0  0  0
  1 30  2  0  0  0
  1 86  1  0  0  0
  2  3  1  0  0  0
  2 25  1  0  0  0
  2 91  1  0  0  0
  2 92  1  0  0  0
  3  4  1  0  0  0
  3 93  1  0  0  0
  3 94  1  0  0  0
  4  5  1  0  0  0
  4 95  1  0  0  0
  4 96  1  0  0  0
  5  6  1  0  0  0
  5 26  1  0  0  0
  5 97  1  0  0  0
  6 25  1  0  0  0
  6 98  1  0  0  0
  6 99  1  0  0  0
  7  8  2  0  0  0
  7 26  1  0  0  0
  7 29  1  0  0  0
  8  9  1  0  0  0
  8 22  1  0  0  0
  9 10  1  0  0  0
  9 27  2  0  0  0
 10 11  2  0  0  0
 10 15  1  0  0  0
 11 12  1  0  0  0
 11100  1  0  0  0
 12 13  2  0  0  0
 12101  1  0  0  0
 13 14  1  0  0  0
 13 31  1  0  0  0
 14 15  2  0  0  0
 14102  1  0  0  0
 15103  1  0  0  0
 16 17  2  0  0  0
 16 21  1  0  0  0
 16 31  1  0  0  0
 17 18  1  0  0  0
 17104  1  0  0  0
 18 19  2  0  0  0
 18105  1  0  0  0
 19 20  1  0  0  0
 19 24  1  0  0  0
 20 21  2  0  0  0
 20106  1  0  0  0
 21 23  1  0  0  0
 22 28  1  0  0  0
 22 32  2  0  0  0
 26 27  1  0  0  0
 28107  1  0  0  0
 28108  1  0  0  0
 29109  1  0  0  0
 29110  1  0  0  0
 33 34  1  0  0  0
 33 66  1  0  0  0
 33 70  2  0  0  0
 34 36  1  0  0  0
 34 59  1  0  0  0
 34111  1  0  0  0
 35 44  2  0  0  0
 35 45  1  0  0  0
 35 68  1  0  0  0
 36 56  1  0  0  0
 36112  1  0  0  0
 37 39  1  0  0  0
 37 47  1  0  0  0
 37 66  1  0  0  0
 37113  1  0  0  0
 38 43  2  0  0  0
 38 46  1  0  0  0
 38 47  1  0  0  0
 39 64  1  0  0  0
 39 67  2  0  0  0
 40 52  1  0  0  0
 40 53  2  0  0  0
 40 58  1  0  0  0
 41114  1  0  0  0
 41115  1  0  0  0
 41116  1  0  0  0
 41 48  1  0  0  0
 42 43  1  0  0  0
 42 66  1  0  0  0
 42117  1  0  0  0
 42118  1  0  0  0
 43 44  1  0  0  0
 44119  1  0  0  0
 45 46  2  0  0  0
 45120  1  0  0  0
 46121  1  0  0  0
 47122  1  0  0  0
 47123  1  0  0  0
 48 56  1  0  0  0
 48 65  1  0  0  0
 48124  1  0  0  0
 49 50  1  0  0  0
 49 53  1  0  0  0
 49 64  1  0  0  0
 49125  1  0  0  0
 50 51  1  0  0  0
 50126  1  0  0  0
 50127  1  0  0  0
 51 52  1  0  0  0
 51128  1  0  0  0
 51129  1  0  0  0
 52130  1  0  0  0
 52131  1  0  0  0
 53 54  1  0  0  0
 54 55  2  0  0  0
 54132  1  0  0  0
 55 57  1  0  0  0
 55133  1  0  0  0
 56 69  2  0  0  0
 57 58  2  0  0  0
 57134  1  0  0  0
 58135  1  0  0  0
 59 60  1  0  0  0
 59 61  1  0  0  0
 59 62  1  0  0  0
 60136  1  0  0  0
 60137  1  0  0  0
 60138  1  0  0  0
 61139  1  0  0  0
 61140  1  0  0  0
 61141  1  0  0  0
 62142  1  0  0  0
 62143  1  0  0  0
 62144  1  0  0  0
 63 65  1  0  0  0
 63145  1  0  0  0
 63146  1  0  0  0
 63147  1  0  0  0
 64148  1  0  0  0
 65149  1  0  0  0
 68 81  1  0  0  0
 71 72  1  0  0  0
 71150  1  0  0  0
 71151  1  0  0  0
 71 74  1  0  0  0
 72 86  1  0  0  0
 72152  1  0  0  0
 72153  1  0  0  0
 73 75  1  0  0  0
 73 86  1  0  0  0
 73154  1  0  0  0
 73155  1  0  0  0
 74 75  1  0  0  0
 74 82  1  0  0  0
 74156  1  0  0  0
 75 90  1  0  0  0
 75157  1  0  0  0
 76158  1  0  0  0
 76159  1  0  0  0
 76160  1  0  0  0
 76 82  1  0  0  0
 77161  1  0  0  0
 77162  1  0  0  0
 77163  1  0  0  0
 77 84  1  0  0  0
 78164  1  0  0  0
 78165  1  0  0  0
 78166  1  0  0  0
 78 85  1  0  0  0
 79 85  1  0  0  0
 79 87  1  0  0  0
 79167  1  0  0  0
 79168  1  0  0  0
 80 88  1  0  0  0
 80169  1  0  0  0
 80170  1  0  0  0
 80 83  1  0  0  0
 81 83  1  0  0  0
 81171  1  0  0  0
 81172  1  0  0  0
 82 89  1  0  0  0
 82173  1  0  0  0
 83 84  1  0  0  0
 83174  1  0  0  0
 84 87  1  0  0  0
 84175  1  0  0  0
 85 90  1  0  0  0
 85176  1  0  0  0
 87177  1  0  0  0
 88178  1  0  0  0
 88179  1  0  0  0
 88180  1  0  0  0
 89181  1  0  0  0
 89182  1  0  0  0
 89183  1  0  0  0
 90184  1  0  0  0
 90185  1  0  0  0
M  CHG  3  88   1  89   1  90   1
M  ISO  4   1 100  68 101  81 101  86 100
M  END
> <chiral flag>
0

> <version>
0

> <s_m_source_file>
/data/baiqing/PycharmProjects/Reinvent-master-3.2/result/LINK_invent/BTK/process_docking_weight1_custom_sum_contain_oxygen_bond_distance_aromatic_linkinvent_7_9_3/rearranged_h_0112.sdf

> <i_m_source_file_index>
37

> <r_mmod_Potential_Energy-OPLS-2005>
-190.935745239258

> <r_mmod_Stretch_Energy-OPLS-2005>
47.9769477844238

> <r_mmod_Bend_Energy-OPLS-2005>
165.525726318359

> <r_mmod_Torsional_Energy-OPLS-2005>
465.135589599609

> <r_mmod_Improper_Torsional_Energy-OPLS-2005>
6.68784427642822

> <r_mmod_Van_der_Waal_Energy-OPLS-2005>
167.965957641602

> <r_mmod_Electrostatic_Energy-OPLS-2005>
648.031066894531

> <r_mmod_Solvation_Energy-OPLS-2005>
-1740.65478515625

> <b_mmod_Minimization_Converged-OPLS-2005>
0

> <r_mmod_RMS_Derivative-OPLS-2005>
5.64460563659668

$$$$
37
                    3D
 Structure written by MMmdl.
149157  0  0  1  0            999 V2000
  -30.4093  -15.3640   20.3498 C   0  0  0  0  0  0
  -30.4365  -12.8733   19.5459 C   0  0  0  0  0  0
  -29.5448  -12.6004   18.3059 C   0  0  0  0  0  0
  -28.0964  -12.3060   18.7298 C   0  0  0  0  0  0
  -27.6093  -13.2866   19.8241 C   0  0  2  0  0  0
  -28.6361  -13.5015   20.9592 C   0  0  0  0  0  0
  -25.2381  -13.8274   20.5787 C   0  0  0  0  0  0
  -24.1734  -13.0444   20.9258 C   0  0  0  0  0  0
  -24.6397  -11.6945   20.8749 C   0  0  0  0  0  0
  -23.9096  -10.4295   21.0402 C   0  0  0  0  0  0
  -24.3643   -9.4218   21.9187 C   0  0  0  0  0  0
  -23.6312   -8.2253   22.0746 C   0  0  0  0  0  0
  -22.4292   -8.0296   21.3531 C   0  0  0  0  0  0
  -21.9931   -9.0269   20.4632 C   0  0  0  0  0  0
  -22.7265  -10.2148   20.3049 C   0  0  0  0  0  0
  -21.6862   -6.0753   22.5278 C   0  0  0  0  0  0
  -21.4024   -6.5651   23.8215 C   0  0  0  0  0  0
  -21.3652   -5.6796   24.9170 C   0  0  0  0  0  0
  -21.6039   -4.3056   24.7215 C   0  0  0  0  0  0
  -21.8818   -3.8160   23.4330 C   0  0  0  0  0  0
  -21.9189   -4.6981   22.3397 C   0  0  0  0  0  0
  -22.7747  -13.5198   21.1902 C   0  0  0  0  0  0
  -22.1666   -4.2172   21.0973 F   0  0  0  0  0  0
  -21.5614   -3.4535   25.7723 F   0  0  0  0  0  0
  -29.8620  -14.0349   20.3362 N   0  0  0  0  0  0
  -26.2806  -12.9562   20.3217 N   0  0  0  0  0  0
  -25.9336  -11.6655   20.5688 N   0  0  0  0  0  0
  -22.0411  -12.8169   22.0457 N   0  0  0  0  0  0
  -25.4013  -15.2022   20.4294 N   0  0  0  0  0  0
  -31.6268  -15.3380   20.1016 O   0  0  0  0  0  0
  -21.6646   -6.8900   21.4238 O   0  0  0  0  0  0
  -22.3419  -14.5494   20.6741 O   0  0  0  0  0  0
  -24.6680  -31.8170   23.1655 C   0  0  0  0  0  0
  -25.9334  -32.4558   23.8133 C   0  0  1  0  0  0
  -27.2291  -26.8750   20.1871 C   0  0  0  0  0  0
  -25.5982  -33.8376   24.2039 N   0  0  0  0  0  0
  -23.4857  -30.4244   21.5153 C   0  0  2  0  0  0
  -24.9422  -28.8005   20.1068 C   0  0  0  0  0  0
  -22.7704  -29.4395   22.4767 C   0  0  0  0  0  0
  -18.0341  -28.1402   22.8465 C   0  0  0  0  0  0
  -24.1496  -36.7193   23.2647 C   0  0  0  0  0  0
  -26.0561  -30.6045   21.4046 C   0  0  0  0  0  0
  -26.1231  -29.1891   20.7495 C   0  0  0  0  0  0
  -27.2536  -28.2465   20.7671 C   0  0  0  0  0  0
  -26.0212  -26.6515   19.4871 C   0  0  0  0  0  0
  -24.9211  -27.5549   19.4545 C   0  0  0  0  0  0
  -23.7277  -29.7332   20.1429 C   0  0  0  0  0  0
  -25.4143  -36.2954   24.0291 C   0  0  1  0  0  0
  -20.5967  -28.3749   23.1183 C   0  0  2  0  0  0
  -20.6822  -26.9430   22.5378 C   0  0  0  0  0  0
  -19.5779  -26.6364   21.5214 C   0  0  0  0  0  0
  -18.1974  -26.7928   22.1643 C   0  0  0  0  0  0
  -19.1604  -28.8898   23.2810 C   0  0  0  0  0  0
  -18.9510  -30.1486   23.8844 C   0  0  0  0  0  0
  -17.6503  -30.6593   24.0554 C   0  0  0  0  0  0
  -25.9105  -34.9341   23.4997 C   0  0  0  0  0  0
  -16.5390  -29.9079   23.6342 C   0  0  0  0  0  0
  -16.7324  -28.6499   23.0362 C   0  0  0  0  0  0
  -26.4568  -31.6528   25.0686 C   0  0  0  0  0  0
  -25.3678  -31.3790   26.1327 C   0  0  0  0  0  0
  -27.0470  -30.2892   24.6458 C   0  0  0  0  0  0
  -27.6053  -32.4351   25.7492 C   0  0  0  0  0  0
  -27.5572  -37.1762   24.8467 C   0  0  0  0  0  0
  -21.4360  -29.3045   22.3543 N   0  0  0  0  0  0
  -26.4286  -37.3697   23.9400 N   0  0  0  0  0  0
  -24.7583  -30.9772   22.0821 N   0  0  0  0  0  0
  -23.4231  -28.7965   23.3028 O   0  0  0  0  0  0
  -28.2341  -25.7592   20.3243 O   0  0  0  0  0  0
  -26.5720  -34.8896   22.4600 O   0  0  0  0  0  0
  -23.5742  -32.1171   23.6718 O   0  0  0  0  0  0
  -31.0172  -19.8764   18.7400 C   0  0  0  0  0  0
  -30.2667  -21.0105   19.1367 C   0  0  0  0  0  0
  -30.7926  -18.5686   19.2398 C   0  0  0  0  0  0
  -29.2442  -20.9323   20.0963 C   0  0  0  0  0  0
  -29.7849  -18.2647   20.1756 C   0  0  0  0  0  0
  -29.5096  -22.8521   21.8676 C   0  0  0  0  0  0
  -28.2756  -24.1353   19.8799 C   0  0  0  0  0  0
  -28.6267  -22.5032   20.6634 C   0  0  1  0  0  0
  -29.0586  -19.5208   20.5730 N   0  0  0  0  0  0
  -29.6471  -16.6576   20.5027 N   0  0  0  0  0  0
  -31.4543  -13.0775   19.2125 H   0  0  0  0  0  0
  -30.5149  -11.9820   20.1708 H   0  0  0  0  0  0
  -29.9442  -11.7692   17.7227 H   0  0  0  0  0  0
  -29.5605  -13.4736   17.6521 H   0  0  0  0  0  0
  -28.0656  -11.2847   19.1112 H   0  0  0  0  0  0
  -27.4320  -12.3285   17.8649 H   0  0  0  0  0  0
  -27.5104  -14.2436   19.3101 H   0  0  0  0  0  0
  -28.8214  -12.5795   21.5112 H   0  0  0  0  0  0
  -28.2531  -14.2223   21.6830 H   0  0  0  0  0  0
  -25.2789   -9.5701   22.4760 H   0  0  0  0  0  0
  -24.0021   -7.4644   22.7466 H   0  0  0  0  0  0
  -21.0858   -8.8785   19.8945 H   0  0  0  0  0  0
  -22.3721  -10.9686   19.6155 H   0  0  0  0  0  0
  -21.2041   -7.6162   23.9729 H   0  0  0  0  0  0
  -21.1467   -6.0518   25.9070 H   0  0  0  0  0  0
  -22.0604   -2.7625   23.2815 H   0  0  0  0  0  0
  -22.4046  -11.9848   22.4857 H   0  0  0  0  0  0
  -21.1016  -13.1157   22.2659 H   0  0  0  0  0  0
  -24.6308  -15.8496   20.5574 H   0  0  0  0  0  0
  -26.2417  -15.6533   20.0920 H   0  0  0  0  0  0
  -26.7402  -32.5084   23.0842 H   0  0  0  0  0  0
  -25.0086  -33.9442   25.0160 H   0  0  0  0  0  0
  -22.8016  -31.2580   21.3409 H   0  0  0  0  0  0
  -23.3775  -35.9504   23.3281 H   0  0  0  0  0  0
  -24.3566  -36.8871   22.2064 H   0  0  0  0  0  0
  -23.7238  -37.6371   23.6722 H   0  0  0  0  0  0
  -26.2418  -31.3422   20.6219 H   0  0  0  0  0  0
  -26.9146  -30.6635   22.0626 H   0  0  0  0  0  0
  -28.1425  -28.5394   21.3080 H   0  0  0  0  0  0
  -25.8859  -25.6995   18.9951 H   0  0  0  0  0  0
  -24.0274  -27.2537   18.9259 H   0  0  0  0  0  0
  -23.8844  -30.4998   19.3833 H   0  0  0  0  0  0
  -22.8371  -29.1874   19.8261 H   0  0  0  0  0  0
  -25.1347  -36.1745   25.0779 H   0  0  0  0  0  0
  -21.0054  -28.3335   24.1306 H   0  0  0  0  0  0
  -21.6661  -26.7425   22.1125 H   0  0  0  0  0  0
  -20.5752  -26.2345   23.3610 H   0  0  0  0  0  0
  -19.6935  -25.6260   21.1278 H   0  0  0  0  0  0
  -19.6714  -27.3141   20.6722 H   0  0  0  0  0  0
  -17.4231  -26.6643   21.4068 H   0  0  0  0  0  0
  -18.0408  -26.0106   22.9086 H   0  0  0  0  0  0
  -19.7991  -30.7312   24.2202 H   0  0  0  0  0  0
  -17.5050  -31.6265   24.5174 H   0  0  0  0  0  0
  -15.5386  -30.2952   23.7710 H   0  0  0  0  0  0
  -15.8721  -28.0803   22.7115 H   0  0  0  0  0  0
  -24.5875  -30.7127   25.7626 H   0  0  0  0  0  0
  -24.8848  -32.2992   26.4628 H   0  0  0  0  0  0
  -25.7892  -30.9034   27.0190 H   0  0  0  0  0  0
  -26.3143  -29.6555   24.1451 H   0  0  0  0  0  0
  -27.3960  -29.7279   25.5131 H   0  0  0  0  0  0
  -27.9100  -30.4058   23.9902 H   0  0  0  0  0  0
  -27.2611  -33.3694   26.1943 H   0  0  0  0  0  0
  -28.3930  -32.6848   25.0367 H   0  0  0  0  0  0
  -28.0647  -31.8562   26.5515 H   0  0  0  0  0  0
  -28.2581  -38.0070   24.7516 H   0  0  0  0  0  0
  -28.1080  -36.2597   24.6296 H   0  0  0  0  0  0
  -27.2284  -37.1404   25.8871 H   0  0  0  0  0  0
  -20.9623  -29.8736   21.6672 H   0  0  0  0  0  0
  -26.0131  -38.2756   24.1405 H   0  0  0  0  0  0
  -31.8134  -20.0175   18.0229 H   0  0  0  0  0  0
  -30.5333  -21.9763   18.7293 H   0  0  0  0  0  0
  -31.4214  -17.7734   18.8636 H   0  0  0  0  0  0
  -29.5196  -22.0400   22.5947 H   0  0  0  0  0  0
  -29.1539  -23.7496   22.3744 H   0  0  0  0  0  0
  -30.5386  -23.0264   21.5507 H   0  0  0  0  0  0
  -27.3699  -23.9753   19.2963 H   0  0  0  0  0  0
  -29.0494  -24.1839   19.1136 H   0  0  0  0  0  0
  -27.6605  -22.2267   21.0865 H   0  0  0  0  0  0
  -28.7244  -16.4485   20.8502 H   0  0  0  0  0  0
  1 25  1  0  0  0
  1 30  2  0  0  0
  1 80  1  0  0  0
  2  3  1  0  0  0
  2 25  1  0  0  0
  2 81  1  0  0  0
  2 82  1  0  0  0
  3  4  1  0  0  0
  3 83  1  0  0  0
  3 84  1  0  0  0
  4  5  1  0  0  0
  4 85  1  0  0  0
  4 86  1  0  0  0
  5  6  1  0  0  0
  5 26  1  0  0  0
  5 87  1  0  0  0
  6 25  1  0  0  0
  6 88  1  0  0  0
  6 89  1  0  0  0
  7  8  2  0  0  0
  7 26  1  0  0  0
  7 29  1  0  0  0
  8  9  1  0  0  0
  8 22  1  0  0  0
  9 10  1  0  0  0
  9 27  2  0  0  0
 10 11  2  0  0  0
 10 15  1  0  0  0
 11 12  1  0  0  0
 11 90  1  0  0  0
 12 13  2  0  0  0
 12 91  1  0  0  0
 13 14  1  0  0  0
 13 31  1  0  0  0
 14 15  2  0  0  0
 14 92  1  0  0  0
 15 93  1  0  0  0
 16 17  2  0  0  0
 16 21  1  0  0  0
 16 31  1  0  0  0
 17 18  1  0  0  0
 17 94  1  0  0  0
 18 19  2  0  0  0
 18 95  1  0  0  0
 19 20  1  0  0  0
 19 24  1  0  0  0
 20 21  2  0  0  0
 20 96  1  0  0  0
 21 23  1  0  0  0
 22 28  1  0  0  0
 22 32  2  0  0  0
 26 27  1  0  0  0
 28 97  1  0  0  0
 28 98  1  0  0  0
 29 99  1  0  0  0
 29100  1  0  0  0
 33 34  1  0  0  0
 33 66  1  0  0  0
 33 70  2  0  0  0
 34 36  1  0  0  0
 34 59  1  0  0  0
 34101  1  0  0  0
 35 44  2  0  0  0
 35 45  1  0  0  0
 35 68  1  0  0  0
 36 56  1  0  0  0
 36102  1  0  0  0
 37 39  1  0  0  0
 37 47  1  0  0  0
 37 66  1  0  0  0
 37103  1  0  0  0
 38 43  2  0  0  0
 38 46  1  0  0  0
 38 47  1  0  0  0
 39 64  1  0  0  0
 39 67  2  0  0  0
 40 52  1  0  0  0
 40 53  2  0  0  0
 40 58  1  0  0  0
 41104  1  0  0  0
 41105  1  0  0  0
 41106  1  0  0  0
 41 48  1  0  0  0
 42 43  1  0  0  0
 42 66  1  0  0  0
 42107  1  0  0  0
 42108  1  0  0  0
 43 44  1  0  0  0
 44109  1  0  0  0
 45 46  2  0  0  0
 45110  1  0  0  0
 46111  1  0  0  0
 47112  1  0  0  0
 47113  1  0  0  0
 48 56  1  0  0  0
 48 65  1  0  0  0
 48114  1  0  0  0
 49 50  1  0  0  0
 49 53  1  0  0  0
 49 64  1  0  0  0
 49115  1  0  0  0
 50 51  1  0  0  0
 50116  1  0  0  0
 50117  1  0  0  0
 51 52  1  0  0  0
 51118  1  0  0  0
 51119  1  0  0  0
 52120  1  0  0  0
 52121  1  0  0  0
 53 54  1  0  0  0
 54 55  2  0  0  0
 54122  1  0  0  0
 55 57  1  0  0  0
 55123  1  0  0  0
 56 69  2  0  0  0
 57 58  2  0  0  0
 57124  1  0  0  0
 58125  1  0  0  0
 59 60  1  0  0  0
 59 61  1  0  0  0
 59 62  1  0  0  0
 60126  1  0  0  0
 60127  1  0  0  0
 60128  1  0  0  0
 61129  1  0  0  0
 61130  1  0  0  0
 61131  1  0  0  0
 62132  1  0  0  0
 62133  1  0  0  0
 62134  1  0  0  0
 63 65  1  0  0  0
 63135  1  0  0  0
 63136  1  0  0  0
 63137  1  0  0  0
 64138  1  0  0  0
 65139  1  0  0  0
 68 77  1  0  0  0
 71 72  2  0  0  0
 71 73  1  0  0  0
 71140  1  0  0  0
 72 74  1  0  0  0
 72141  1  0  0  0
 73 75  2  0  0  0
 73142  1  0  0  0
 74 78  1  0  0  0
 74 79  2  0  0  0
 75 79  1  0  0  0
 75 80  1  0  0  0
 76143  1  0  0  0
 76144  1  0  0  0
 76145  1  0  0  0
 76 78  1  0  0  0
 77 78  1  0  0  0
 77146  1  0  0  0
 77147  1  0  0  0
 78148  1  0  0  0
 80149  1  0  0  0
M  ISO  4   1 100  68 101  77 101  80 100
M  END
> <chiral flag>
0

> <version>
0

> <s_m_source_file>
/data/baiqing/PycharmProjects/Reinvent-master-3.2/result/LINK_invent/BTK/process_docking_weight1_custom_sum_contain_oxygen_bond_distance_aromatic_linkinvent_7_9_3/rearranged_h_0112.sdf

> <i_m_source_file_index>
38

> <r_mmod_Potential_Energy-OPLS-2005>
1354.52600097656

> <r_mmod_Stretch_Energy-OPLS-2005>
701.270263671875

> <r_mmod_Bend_Energy-OPLS-2005>
483.119659423828

> <r_mmod_Torsional_Energy-OPLS-2005>
222.629104614258

> <r_mmod_Improper_Torsional_Energy-OPLS-2005>
4.08145618438721

> <r_mmod_Van_der_Waal_Energy-OPLS-2005>
122.096214294434

> <r_mmod_Electrostatic_Energy-OPLS-2005>
-505.60498046875

> <r_mmod_Solvation_Energy-OPLS-2005>
-225.419647216797

> <b_mmod_Minimization_Converged-OPLS-2005>
0

> <r_mmod_RMS_Derivative-OPLS-2005>
1.70792770385742

$$$$
38
                    3D
 Structure written by MMmdl.
154162  0  0  1  0            999 V2000
  -30.3648  -15.3949   20.3488 C   0  0  0  0  0  0
  -30.4444  -12.9032   19.5167 C   0  0  0  0  0  0
  -29.5405  -12.5954   18.2932 C   0  0  0  0  0  0
  -28.0986  -12.2885   18.7336 C   0  0  0  0  0  0
  -27.6077  -13.2791   19.8167 C   0  0  2  0  0  0
  -28.6411  -13.5020   20.9417 C   0  0  0  0  0  0
  -25.2387  -13.8247   20.5765 C   0  0  0  0  0  0
  -24.1744  -13.0436   20.9276 C   0  0  0  0  0  0
  -24.6401  -11.6933   20.8773 C   0  0  0  0  0  0
  -23.9094  -10.4292   21.0409 C   0  0  0  0  0  0
  -24.3637   -9.4204   21.9187 C   0  0  0  0  0  0
  -23.6300   -8.2244   22.0754 C   0  0  0  0  0  0
  -22.4282   -8.0286   21.3542 C   0  0  0  0  0  0
  -21.9929   -9.0262   20.4647 C   0  0  0  0  0  0
  -22.7265  -10.2135   20.3056 C   0  0  0  0  0  0
  -21.6856   -6.0738   22.5277 C   0  0  0  0  0  0
  -21.4015   -6.5640   23.8211 C   0  0  0  0  0  0
  -21.3661   -5.6793   24.9175 C   0  0  0  0  0  0
  -21.6043   -4.3053   24.7227 C   0  0  0  0  0  0
  -21.8819   -3.8145   23.4348 C   0  0  0  0  0  0
  -21.9193   -4.6963   22.3402 C   0  0  0  0  0  0
  -22.7760  -13.5191   21.1917 C   0  0  0  0  0  0
  -22.1661   -4.2149   21.0979 F   0  0  0  0  0  0
  -21.5631   -3.4536   25.7740 F   0  0  0  0  0  0
  -29.8479  -14.0552   20.2978 N   0  0  0  0  0  0
  -26.2812  -12.9525   20.3216 N   0  0  0  0  0  0
  -25.9338  -11.6627   20.5716 N   0  0  0  0  0  0
  -22.0409  -12.8172   22.0464 N   0  0  0  0  0  0
  -25.4002  -15.1987   20.4195 N   0  0  0  0  0  0
  -31.5974  -15.4088   20.1916 O   0  0  0  0  0  0
  -21.6643   -6.8884   21.4239 O   0  0  0  0  0  0
  -22.3442  -14.5490   20.6752 O   0  0  0  0  0  0
  -24.6700  -31.8150   23.1637 C   0  0  0  0  0  0
  -25.9343  -32.4544   23.8134 C   0  0  1  0  0  0
  -27.2237  -26.8449   20.1992 C   0  0  0  0  0  0
  -25.5978  -33.8361   24.2041 N   0  0  0  0  0  0
  -23.4899  -30.4214   21.5158 C   0  0  2  0  0  0
  -24.9440  -28.7894   20.1203 C   0  0  0  0  0  0
  -22.7709  -29.4383   22.4769 C   0  0  0  0  0  0
  -18.0329  -28.1411   22.8453 C   0  0  0  0  0  0
  -24.1491  -36.7181   23.2652 C   0  0  0  0  0  0
  -26.0637  -30.5960   21.4054 C   0  0  0  0  0  0
  -26.1315  -29.1749   20.7543 C   0  0  0  0  0  0
  -27.2641  -28.2283   20.7613 C   0  0  0  0  0  0
  -26.0022  -26.6292   19.5197 C   0  0  0  0  0  0
  -24.9088  -27.5381   19.4816 C   0  0  0  0  0  0
  -23.7354  -29.7291   20.1469 C   0  0  0  0  0  0
  -25.4133  -36.2938   24.0301 C   0  0  1  0  0  0
  -20.5956  -28.3758   23.1169 C   0  0  2  0  0  0
  -20.6804  -26.9431   22.5398 C   0  0  0  0  0  0
  -19.5779  -26.6372   21.5208 C   0  0  0  0  0  0
  -18.1960  -26.7943   22.1613 C   0  0  0  0  0  0
  -19.1592  -28.8908   23.2797 C   0  0  0  0  0  0
  -18.9504  -30.1500   23.8828 C   0  0  0  0  0  0
  -17.6495  -30.6598   24.0548 C   0  0  0  0  0  0
  -25.9104  -34.9324   23.5001 C   0  0  0  0  0  0
  -16.5384  -29.9082   23.6344 C   0  0  0  0  0  0
  -16.7311  -28.6509   23.0352 C   0  0  0  0  0  0
  -26.4574  -31.6516   25.0694 C   0  0  0  0  0  0
  -25.3669  -31.3790   26.1329 C   0  0  0  0  0  0
  -27.0500  -30.2874   24.6492 C   0  0  0  0  0  0
  -27.6053  -32.4352   25.7492 C   0  0  0  0  0  0
  -27.5566  -37.1739   24.8471 C   0  0  0  0  0  0
  -21.4368  -29.3035   22.3514 N   0  0  0  0  0  0
  -26.4274  -37.3679   23.9413 N   0  0  0  0  0  0
  -24.7633  -30.9732   22.0818 N   0  0  0  0  0  0
  -23.4218  -28.7962   23.3044 O   0  0  0  0  0  0
  -28.2327  -25.7156   20.2310 O   0  0  0  0  0  0
  -26.5727  -34.8871   22.4609 O   0  0  0  0  0  0
  -23.5755  -32.1162   23.6682 O   0  0  0  0  0  0
  -28.4708  -20.2414   21.5367 C   0  0  0  0  0  0
  -29.5585  -19.5486   19.7941 C   0  0  0  0  0  0
  -28.6318  -18.8414   21.6268 C   0  0  0  0  0  0
  -29.3848  -18.2817   20.5261 C   0  0  0  0  0  0
  -28.0650  -18.0056   22.7455 C   0  0  0  0  0  0
  -30.4170  -22.9411   20.6545 C   0  0  0  0  0  0
  -29.2503  -22.5778   18.4883 C   0  0  0  0  0  0
  -28.0322  -24.0341   20.3353 C   0  0  0  0  0  0
  -29.0801  -22.5364   20.0158 C   0  0  0  0  0  0
  -28.9909  -20.8455   20.3809 N   0  0  0  0  0  0
  -29.5079  -16.6378   20.3151 N   0  0  0  0  0  0
  -31.4472  -13.1490   19.1645 H   0  0  0  0  0  0
  -30.5632  -12.0207   20.1477 H   0  0  0  0  0  0
  -29.9449  -11.7608   17.7193 H   0  0  0  0  0  0
  -29.5381  -13.4561   17.6222 H   0  0  0  0  0  0
  -28.0847  -11.2746   19.1359 H   0  0  0  0  0  0
  -27.4257  -12.2859   17.8753 H   0  0  0  0  0  0
  -27.5045  -14.2305   19.2927 H   0  0  0  0  0  0
  -28.8473  -12.5810   21.4884 H   0  0  0  0  0  0
  -28.2573  -14.2173   21.6711 H   0  0  0  0  0  0
  -25.2776   -9.5681   22.4774 H   0  0  0  0  0  0
  -24.0003   -7.4636   22.7478 H   0  0  0  0  0  0
  -21.0858   -8.8790   19.8954 H   0  0  0  0  0  0
  -22.3722  -10.9680   19.6171 H   0  0  0  0  0  0
  -21.2006   -7.6149   23.9716 H   0  0  0  0  0  0
  -21.1482   -6.0523   25.9079 H   0  0  0  0  0  0
  -22.0596   -2.7607   23.2849 H   0  0  0  0  0  0
  -22.4032  -11.9843   22.4866 H   0  0  0  0  0  0
  -21.1019  -13.1185   22.2655 H   0  0  0  0  0  0
  -24.6247  -15.8428   20.5306 H   0  0  0  0  0  0
  -26.2306  -15.6421   20.0523 H   0  0  0  0  0  0
  -26.7421  -32.5064   23.0849 H   0  0  0  0  0  0
  -25.0039  -33.9419   25.0135 H   0  0  0  0  0  0
  -22.8066  -31.2543   21.3368 H   0  0  0  0  0  0
  -23.3766  -35.9495   23.3279 H   0  0  0  0  0  0
  -24.3562  -36.8869   22.2072 H   0  0  0  0  0  0
  -23.7231  -37.6349   23.6741 H   0  0  0  0  0  0
  -26.2504  -31.3321   20.6218 H   0  0  0  0  0  0
  -26.9206  -30.6597   22.0642 H   0  0  0  0  0  0
  -28.1666  -28.5287   21.2750 H   0  0  0  0  0  0
  -25.8637  -25.6791   19.0243 H   0  0  0  0  0  0
  -24.0085  -27.2356   18.9649 H   0  0  0  0  0  0
  -23.9005  -30.4946   19.3873 H   0  0  0  0  0  0
  -22.8434  -29.1890   19.8260 H   0  0  0  0  0  0
  -25.1329  -36.1721   25.0790 H   0  0  0  0  0  0
  -21.0041  -28.3374   24.1295 H   0  0  0  0  0  0
  -20.5679  -26.2377   23.3645 H   0  0  0  0  0  0
  -21.6664  -26.7392   22.1203 H   0  0  0  0  0  0
  -19.6934  -25.6271   21.1275 H   0  0  0  0  0  0
  -19.6721  -27.3151   20.6714 H   0  0  0  0  0  0
  -17.4226  -26.6677   21.4025 H   0  0  0  0  0  0
  -18.0354  -26.0102   22.9029 H   0  0  0  0  0  0
  -19.7980  -30.7335   24.2163 H   0  0  0  0  0  0
  -17.5044  -31.6265   24.5172 H   0  0  0  0  0  0
  -15.5381  -30.2957   23.7714 H   0  0  0  0  0  0
  -15.8711  -28.0813   22.7087 H   0  0  0  0  0  0
  -24.5867  -30.7131   25.7621 H   0  0  0  0  0  0
  -24.8834  -32.3000   26.4597 H   0  0  0  0  0  0
  -25.7857  -30.9044   27.0212 H   0  0  0  0  0  0
  -26.3202  -29.6507   24.1484 H   0  0  0  0  0  0
  -27.3990  -29.7284   25.5185 H   0  0  0  0  0  0
  -27.9154  -30.4042   23.9964 H   0  0  0  0  0  0
  -27.2621  -33.3716   26.1903 H   0  0  0  0  0  0
  -28.3938  -32.6811   25.0367 H   0  0  0  0  0  0
  -28.0644  -31.8590   26.5537 H   0  0  0  0  0  0
  -28.2554  -38.0062   24.7518 H   0  0  0  0  0  0
  -28.1090  -36.2581   24.6298 H   0  0  0  0  0  0
  -27.2284  -37.1383   25.8875 H   0  0  0  0  0  0
  -20.9651  -29.8707   21.6608 H   0  0  0  0  0  0
  -26.0115  -38.2732   24.1430 H   0  0  0  0  0  0
  -27.9845  -20.8968   22.2480 H   0  0  0  0  0  0
  -30.0492  -19.6561   18.8360 H   0  0  0  0  0  0
  -27.7167  -18.6309   23.5678 H   0  0  0  0  0  0
  -28.8196  -17.3205   23.1336 H   0  0  0  0  0  0
  -27.2217  -17.4154   22.3854 H   0  0  0  0  0  0
  -30.7188  -23.9440   20.3524 H   0  0  0  0  0  0
  -31.2199  -22.2574   20.3761 H   0  0  0  0  0  0
  -30.3406  -22.9351   21.7417 H   0  0  0  0  0  0
  -29.4628  -23.5896   18.1406 H   0  0  0  0  0  0
  -28.3417  -22.2446   17.9864 H   0  0  0  0  0  0
  -30.0684  -21.9424   18.1512 H   0  0  0  0  0  0
  -27.7150  -23.9098   21.3709 H   0  0  0  0  0  0
  -27.1204  -23.8462   19.7700 H   0  0  0  0  0  0
  -28.5717  -16.2631   20.3301 H   0  0  0  0  0  0
  1 25  1  0  0  0
  1 30  2  0  0  0
  1 81  1  0  0  0
  2  3  1  0  0  0
  2 25  1  0  0  0
  2 82  1  0  0  0
  2 83  1  0  0  0
  3  4  1  0  0  0
  3 84  1  0  0  0
  3 85  1  0  0  0
  4  5  1  0  0  0
  4 86  1  0  0  0
  4 87  1  0  0  0
  5  6  1  0  0  0
  5 26  1  0  0  0
  5 88  1  0  0  0
  6 25  1  0  0  0
  6 89  1  0  0  0
  6 90  1  0  0  0
  7  8  2  0  0  0
  7 26  1  0  0  0
  7 29  1  0  0  0
  8  9  1  0  0  0
  8 22  1  0  0  0
  9 10  1  0  0  0
  9 27  2  0  0  0
 10 11  2  0  0  0
 10 15  1  0  0  0
 11 12  1  0  0  0
 11 91  1  0  0  0
 12 13  2  0  0  0
 12 92  1  0  0  0
 13 14  1  0  0  0
 13 31  1  0  0  0
 14 15  2  0  0  0
 14 93  1  0  0  0
 15 94  1  0  0  0
 16 17  2  0  0  0
 16 21  1  0  0  0
 16 31  1  0  0  0
 17 18  1  0  0  0
 17 95  1  0  0  0
 18 19  2  0  0  0
 18 96  1  0  0  0
 19 20  1  0  0  0
 19 24  1  0  0  0
 20 21  2  0  0  0
 20 97  1  0  0  0
 21 23  1  0  0  0
 22 28  1  0  0  0
 22 32  2  0  0  0
 26 27  1  0  0  0
 28 98  1  0  0  0
 28 99  1  0  0  0
 29100  1  0  0  0
 29101  1  0  0  0
 33 34  1  0  0  0
 33 66  1  0  0  0
 33 70  2  0  0  0
 34 36  1  0  0  0
 34 59  1  0  0  0
 34102  1  0  0  0
 35 44  2  0  0  0
 35 45  1  0  0  0
 35 68  1  0  0  0
 36 56  1  0  0  0
 36103  1  0  0  0
 37 39  1  0  0  0
 37 47  1  0  0  0
 37 66  1  0  0  0
 37104  1  0  0  0
 38 43  2  0  0  0
 38 46  1  0  0  0
 38 47  1  0  0  0
 39 64  1  0  0  0
 39 67  2  0  0  0
 40 52  1  0  0  0
 40 53  2  0  0  0
 40 58  1  0  0  0
 41105  1  0  0  0
 41106  1  0  0  0
 41107  1  0  0  0
 41 48  1  0  0  0
 42 43  1  0  0  0
 42 66  1  0  0  0
 42108  1  0  0  0
 42109  1  0  0  0
 43 44  1  0  0  0
 44110  1  0  0  0
 45 46  2  0  0  0
 45111  1  0  0  0
 46112  1  0  0  0
 47113  1  0  0  0
 47114  1  0  0  0
 48 56  1  0  0  0
 48 65  1  0  0  0
 48115  1  0  0  0
 49 50  1  0  0  0
 49 53  1  0  0  0
 49 64  1  0  0  0
 49116  1  0  0  0
 50 51  1  0  0  0
 50117  1  0  0  0
 50118  1  0  0  0
 51 52  1  0  0  0
 51119  1  0  0  0
 51120  1  0  0  0
 52121  1  0  0  0
 52122  1  0  0  0
 53 54  1  0  0  0
 54 55  2  0  0  0
 54123  1  0  0  0
 55 57  1  0  0  0
 55124  1  0  0  0
 56 69  2  0  0  0
 57 58  2  0  0  0
 57125  1  0  0  0
 58126  1  0  0  0
 59 60  1  0  0  0
 59 61  1  0  0  0
 59 62  1  0  0  0
 60127  1  0  0  0
 60128  1  0  0  0
 60129  1  0  0  0
 61130  1  0  0  0
 61131  1  0  0  0
 61132  1  0  0  0
 62133  1  0  0  0
 62134  1  0  0  0
 62135  1  0  0  0
 63 65  1  0  0  0
 63136  1  0  0  0
 63137  1  0  0  0
 63138  1  0  0  0
 64139  1  0  0  0
 65140  1  0  0  0
 68 78  1  0  0  0
 71 73  2  0  0  0
 71 80  1  0  0  0
 71141  1  0  0  0
 72 74  2  0  0  0
 72 80  1  0  0  0
 72142  1  0  0  0
 73 74  1  0  0  0
 73 75  1  0  0  0
 74 81  1  0  0  0
 75143  1  0  0  0
 75144  1  0  0  0
 75145  1  0  0  0
 76146  1  0  0  0
 76147  1  0  0  0
 76148  1  0  0  0
 76 79  1  0  0  0
 77 79  1  0  0  0
 77149  1  0  0  0
 77150  1  0  0  0
 77151  1  0  0  0
 78 79  1  0  0  0
 78152  1  0  0  0
 78153  1  0  0  0
 79 80  1  0  0  0
 81154  1  0  0  0
M  ISO  4   1 100  68 101  78 101  81 100
M  END
> <chiral flag>
0

> <version>
0

> <s_m_source_file>
/data/baiqing/PycharmProjects/Reinvent-master-3.2/result/LINK_invent/BTK/process_docking_weight1_custom_sum_contain_oxygen_bond_distance_aromatic_linkinvent_7_9_3/rearranged_h_0112.sdf

> <i_m_source_file_index>
39

> <r_mmod_Potential_Energy-OPLS-2005>
1647.20947265625

> <r_mmod_Stretch_Energy-OPLS-2005>
716.730834960938

> <r_mmod_Bend_Energy-OPLS-2005>
533.675842285156

> <r_mmod_Torsional_Energy-OPLS-2005>
293.024047851562

> <r_mmod_Improper_Torsional_Energy-OPLS-2005>
11.0767421722412

> <r_mmod_Van_der_Waal_Energy-OPLS-2005>
99.1615219116211

> <r_mmod_Electrostatic_Energy-OPLS-2005>
-392.598358154297

> <r_mmod_Solvation_Energy-OPLS-2005>
-211.699493408203

> <b_mmod_Minimization_Converged-OPLS-2005>
0

> <r_mmod_RMS_Derivative-OPLS-2005>
0.942462682723999

$$$$
39
                    3D
 Structure written by MMmdl.
154162  0  0  1  0            999 V2000
  -30.6042  -14.7085   20.4016 C   0  0  0  0  0  0
  -30.4385  -12.4176   19.4753 C   0  0  0  0  0  0
  -29.5147  -12.4882   18.2374 C   0  0  0  0  0  0
  -28.0406  -12.3117   18.6512 C   0  0  0  0  0  0
  -27.6481  -13.2129   19.8534 C   0  0  2  0  0  0
  -28.6941  -13.1263   20.9868 C   0  0  0  0  0  0
  -25.2526  -13.8142   20.5663 C   0  0  0  0  0  0
  -24.1781  -13.0458   20.9165 C   0  0  0  0  0  0
  -24.6348  -11.6919   20.8732 C   0  0  0  0  0  0
  -23.9015  -10.4308   21.0399 C   0  0  0  0  0  0
  -24.3587   -9.4229   21.9188 C   0  0  0  0  0  0
  -23.6268   -8.2260   22.0765 C   0  0  0  0  0  0
  -22.4259   -8.0273   21.3530 C   0  0  0  0  0  0
  -21.9868   -9.0248   20.4643 C   0  0  0  0  0  0
  -22.7188  -10.2139   20.3045 C   0  0  0  0  0  0
  -21.6849   -6.0724   22.5279 C   0  0  0  0  0  0
  -21.4002   -6.5615   23.8219 C   0  0  0  0  0  0
  -21.3643   -5.6766   24.9174 C   0  0  0  0  0  0
  -21.6063   -4.3031   24.7220 C   0  0  0  0  0  0
  -21.8803   -3.8124   23.4330 C   0  0  0  0  0  0
  -21.9180   -4.6947   22.3398 C   0  0  0  0  0  0
  -22.7791  -13.5241   21.1822 C   0  0  0  0  0  0
  -22.1640   -4.2131   21.0981 F   0  0  0  0  0  0
  -21.5645   -3.4513   25.7727 F   0  0  0  0  0  0
  -29.9988  -13.4747   20.4082 N   0  0  0  0  0  0
  -26.2958  -12.9336   20.3309 N   0  0  0  0  0  0
  -25.9274  -11.6497   20.5751 N   0  0  0  0  0  0
  -22.0402  -12.8279   22.0375 N   0  0  0  0  0  0
  -25.4227  -15.1892   20.4027 N   0  0  0  0  0  0
  -31.7851  -14.8221   20.0661 O   0  0  0  0  0  0
  -21.6630   -6.8871   21.4237 O   0  0  0  0  0  0
  -22.3500  -14.5579   20.6688 O   0  0  0  0  0  0
  -24.6301  -31.8568   23.1987 C   0  0  0  0  0  0
  -25.9109  -32.4791   23.8329 C   0  0  1  0  0  0
  -27.2430  -27.2670   20.1417 C   0  0  0  0  0  0
  -25.5929  -33.8603   24.2249 N   0  0  0  0  0  0
  -23.4291  -30.4783   21.5400 C   0  0  2  0  0  0
  -24.8818  -28.9241   20.1161 C   0  0  0  0  0  0
  -22.7501  -29.4631   22.4902 C   0  0  0  0  0  0
  -18.0286  -28.1428   22.8501 C   0  0  0  0  0  0
  -24.1449  -36.7251   23.2638 C   0  0  0  0  0  0
  -25.9754  -30.7768   21.3782 C   0  0  0  0  0  0
  -26.0528  -29.3962   20.7242 C   0  0  0  0  0  0
  -27.2322  -28.5809   20.7238 C   0  0  0  0  0  0
  -26.0462  -26.8690   19.4977 C   0  0  0  0  0  0
  -24.8843  -27.6658   19.4943 C   0  0  0  0  0  0
  -23.6505  -29.8114   20.1577 C   0  0  0  0  0  0
  -25.4079  -36.3097   24.0340 C   0  0  1  0  0  0
  -20.5904  -28.3697   23.1296 C   0  0  2  0  0  0
  -20.6785  -26.9409   22.5445 C   0  0  0  0  0  0
  -19.5738  -26.6382   21.5268 C   0  0  0  0  0  0
  -18.1910  -26.7980   22.1662 C   0  0  0  0  0  0
  -19.1556  -28.8877   23.2896 C   0  0  0  0  0  0
  -18.9484  -30.1497   23.8886 C   0  0  0  0  0  0
  -17.6500  -30.6623   24.0580 C   0  0  0  0  0  0
  -25.9035  -34.9486   23.5083 C   0  0  0  0  0  0
  -16.5380  -29.9131   23.6375 C   0  0  0  0  0  0
  -16.7296  -28.6566   23.0359 C   0  0  0  0  0  0
  -26.4472  -31.6645   25.0732 C   0  0  0  0  0  0
  -25.3687  -31.3875   26.1454 C   0  0  0  0  0  0
  -27.0320  -30.3052   24.6245 C   0  0  0  0  0  0
  -27.6013  -32.4388   25.7539 C   0  0  0  0  0  0
  -27.5545  -37.1793   24.8486 C   0  0  0  0  0  0
  -21.4215  -29.3062   22.3691 N   0  0  0  0  0  0
  -26.4255  -37.3804   23.9439 N   0  0  0  0  0  0
  -24.6959  -31.0542   22.0961 N   0  0  0  0  0  0
  -23.4219  -28.8159   23.2962 O   0  0  0  0  0  0
  -28.3508  -26.3794   20.2235 O   0  0  0  0  0  0
  -26.5619  -34.8987   22.4660 O   0  0  0  0  0  0
  -23.5444  -32.1377   23.7278 O   0  0  0  0  0  0
  -30.1376  -19.0958   21.4620 C   0  0  0  0  0  0
  -29.8540  -20.4478   21.5343 C   0  0  0  0  0  0
  -29.1875  -19.6852   19.5638 C   0  0  0  0  0  0
  -29.7161  -18.5627   20.2061 C   0  0  0  0  0  0
  -30.5738  -23.8726   20.0321 C   0  0  0  0  0  0
  -29.8740  -17.0865   19.6405 C   0  0  0  0  0  0
  -28.5521  -22.2035   20.0547 C   0  0  0  0  0  0
  -28.1617  -24.9132   19.9303 C   0  0  0  0  0  0
  -29.1048  -23.6848   20.4442 C   0  0  2  0  0  0
  -29.2339  -20.8609   20.3603 N   0  0  0  0  0  0
  -29.7880  -15.8207   20.4818 N   0  0  0  0  0  0
  -31.4813  -12.5422   19.1759 H   0  0  0  0  0  0
  -30.3798  -11.4371   19.9507 H   0  0  0  0  0  0
  -29.7978  -11.7186   17.5179 H   0  0  0  0  0  0
  -29.6454  -13.4437   17.7280 H   0  0  0  0  0  0
  -27.9040  -11.2636   18.9247 H   0  0  0  0  0  0
  -27.3802  -12.4941   17.8022 H   0  0  0  0  0  0
  -27.6484  -14.2370   19.4773 H   0  0  0  0  0  0
  -28.7191  -12.1155   21.4008 H   0  0  0  0  0  0
  -28.4398  -13.7884   21.8153 H   0  0  0  0  0  0
  -25.2724   -9.5684   22.4792 H   0  0  0  0  0  0
  -23.9953   -7.4619   22.7474 H   0  0  0  0  0  0
  -21.0812   -8.8728   19.8953 H   0  0  0  0  0  0
  -22.3611  -10.9670   19.6153 H   0  0  0  0  0  0
  -21.1989   -7.6121   23.9698 H   0  0  0  0  0  0
  -21.1495   -6.0512   25.9084 H   0  0  0  0  0  0
  -22.0605   -2.7584   23.2845 H   0  0  0  0  0  0
  -22.3931  -11.9984   22.4910 H   0  0  0  0  0  0
  -21.1012  -13.1356   22.2529 H   0  0  0  0  0  0
  -24.6597  -15.8476   20.5199 H   0  0  0  0  0  0
  -26.2634  -15.6234   20.0492 H   0  0  0  0  0  0
  -26.7200  -32.5446   23.1107 H   0  0  0  0  0  0
  -25.0187  -33.9754   25.0472 H   0  0  0  0  0  0
  -22.7259  -31.2985   21.3937 H   0  0  0  0  0  0
  -23.3764  -35.9533   23.3333 H   0  0  0  0  0  0
  -24.3505  -36.8800   22.2029 H   0  0  0  0  0  0
  -23.7169  -37.6453   23.6613 H   0  0  0  0  0  0
  -26.1002  -31.5355   20.6046 H   0  0  0  0  0  0
  -26.8581  -30.8354   22.0041 H   0  0  0  0  0  0
  -28.1244  -28.9367   21.2171 H   0  0  0  0  0  0
  -25.9690  -25.9115   19.0047 H   0  0  0  0  0  0
  -23.9908  -27.2950   19.0163 H   0  0  0  0  0  0
  -23.7794  -30.5906   19.4072 H   0  0  0  0  0  0
  -22.7723  -29.2466   19.8443 H   0  0  0  0  0  0
  -25.1254  -36.1918   25.0839 H   0  0  0  0  0  0
  -21.0009  -28.3281   24.1395 H   0  0  0  0  0  0
  -20.5691  -26.2318   23.3636 H   0  0  0  0  0  0
  -21.6637  -26.7431   22.1204 H   0  0  0  0  0  0
  -19.6893  -25.6286   21.1278 H   0  0  0  0  0  0
  -19.6684  -27.3216   20.6811 H   0  0  0  0  0  0
  -17.4188  -26.6762   21.4044 H   0  0  0  0  0  0
  -18.0263  -26.0107   22.9028 H   0  0  0  0  0  0
  -19.7969  -30.7320   24.2209 H   0  0  0  0  0  0
  -17.5067  -31.6286   24.5190 H   0  0  0  0  0  0
  -15.5396  -30.3039   23.7705 H   0  0  0  0  0  0
  -15.8687  -28.0911   22.7053 H   0  0  0  0  0  0
  -24.5911  -30.7144   25.7838 H   0  0  0  0  0  0
  -24.8839  -32.3082   26.4724 H   0  0  0  0  0  0
  -25.7969  -30.9211   27.0338 H   0  0  0  0  0  0
  -26.2946  -29.6854   24.1139 H   0  0  0  0  0  0
  -27.3854  -29.7260   25.4787 H   0  0  0  0  0  0
  -27.8864  -30.4310   23.9587 H   0  0  0  0  0  0
  -27.2613  -33.3734   26.2024 H   0  0  0  0  0  0
  -28.3880  -32.6876   25.0420 H   0  0  0  0  0  0
  -28.0609  -31.8577   26.5561 H   0  0  0  0  0  0
  -28.2609  -38.0042   24.7508 H   0  0  0  0  0  0
  -28.0985  -36.2591   24.6328 H   0  0  0  0  0  0
  -27.2264  -37.1439   25.8890 H   0  0  0  0  0  0
  -20.9396  -29.8792   21.6913 H   0  0  0  0  0  0
  -26.0127  -38.2860   24.1503 H   0  0  0  0  0  0
  -30.6057  -18.5209   22.2486 H   0  0  0  0  0  0
  -30.0203  -21.1430   22.3503 H   0  0  0  0  0  0
  -28.7513  -19.7395   18.5729 H   0  0  0  0  0  0
  -31.1998  -23.0666   20.4209 H   0  0  0  0  0  0
  -30.9747  -24.8090   20.4255 H   0  0  0  0  0  0
  -30.6976  -23.8981   18.9497 H   0  0  0  0  0  0
  -30.7929  -17.0619   19.0573 H   0  0  0  0  0  0
  -29.0945  -16.9725   18.8829 H   0  0  0  0  0  0
  -28.3541  -22.2144   18.9831 H   0  0  0  0  0  0
  -27.5637  -22.1239   20.5124 H   0  0  0  0  0  0
  -27.1729  -24.6415   20.2978 H   0  0  0  0  0  0
  -28.1093  -24.8406   18.8456 H   0  0  0  0  0  0
  -29.0940  -23.7269   21.5337 H   0  0  0  0  0  0
  -28.8587  -15.6171   20.8156 H   0  0  0  0  0  0
  1 25  1  0  0  0
  1 30  2  0  0  0
  1 81  1  0  0  0
  2  3  1  0  0  0
  2 25  1  0  0  0
  2 82  1  0  0  0
  2 83  1  0  0  0
  3  4  1  0  0  0
  3 84  1  0  0  0
  3 85  1  0  0  0
  4  5  1  0  0  0
  4 86  1  0  0  0
  4 87  1  0  0  0
  5  6  1  0  0  0
  5 26  1  0  0  0
  5 88  1  0  0  0
  6 25  1  0  0  0
  6 89  1  0  0  0
  6 90  1  0  0  0
  7  8  2  0  0  0
  7 26  1  0  0  0
  7 29  1  0  0  0
  8  9  1  0  0  0
  8 22  1  0  0  0
  9 10  1  0  0  0
  9 27  2  0  0  0
 10 11  2  0  0  0
 10 15  1  0  0  0
 11 12  1  0  0  0
 11 91  1  0  0  0
 12 13  2  0  0  0
 12 92  1  0  0  0
 13 14  1  0  0  0
 13 31  1  0  0  0
 14 15  2  0  0  0
 14 93  1  0  0  0
 15 94  1  0  0  0
 16 17  2  0  0  0
 16 21  1  0  0  0
 16 31  1  0  0  0
 17 18  1  0  0  0
 17 95  1  0  0  0
 18 19  2  0  0  0
 18 96  1  0  0  0
 19 20  1  0  0  0
 19 24  1  0  0  0
 20 21  2  0  0  0
 20 97  1  0  0  0
 21 23  1  0  0  0
 22 28  1  0  0  0
 22 32  2  0  0  0
 26 27  1  0  0  0
 28 98  1  0  0  0
 28 99  1  0  0  0
 29100  1  0  0  0
 29101  1  0  0  0
 33 34  1  0  0  0
 33 66  1  0  0  0
 33 70  2  0  0  0
 34 36  1  0  0  0
 34 59  1  0  0  0
 34102  1  0  0  0
 35 44  2  0  0  0
 35 45  1  0  0  0
 35 68  1  0  0  0
 36 56  1  0  0  0
 36103  1  0  0  0
 37 39  1  0  0  0
 37 47  1  0  0  0
 37 66  1  0  0  0
 37104  1  0  0  0
 38 43  2  0  0  0
 38 46  1  0  0  0
 38 47  1  0  0  0
 39 64  1  0  0  0
 39 67  2  0  0  0
 40 52  1  0  0  0
 40 53  2  0  0  0
 40 58  1  0  0  0
 41105  1  0  0  0
 41106  1  0  0  0
 41107  1  0  0  0
 41 48  1  0  0  0
 42 43  1  0  0  0
 42 66  1  0  0  0
 42108  1  0  0  0
 42109  1  0  0  0
 43 44  1  0  0  0
 44110  1  0  0  0
 45 46  2  0  0  0
 45111  1  0  0  0
 46112  1  0  0  0
 47113  1  0  0  0
 47114  1  0  0  0
 48 56  1  0  0  0
 48 65  1  0  0  0
 48115  1  0  0  0
 49 50  1  0  0  0
 49 53  1  0  0  0
 49 64  1  0  0  0
 49116  1  0  0  0
 50 51  1  0  0  0
 50117  1  0  0  0
 50118  1  0  0  0
 51 52  1  0  0  0
 51119  1  0  0  0
 51120  1  0  0  0
 52121  1  0  0  0
 52122  1  0  0  0
 53 54  1  0  0  0
 54 55  2  0  0  0
 54123  1  0  0  0
 55 57  1  0  0  0
 55124  1  0  0  0
 56 69  2  0  0  0
 57 58  2  0  0  0
 57125  1  0  0  0
 58126  1  0  0  0
 59 60  1  0  0  0
 59 61  1  0  0  0
 59 62  1  0  0  0
 60127  1  0  0  0
 60128  1  0  0  0
 60129  1  0  0  0
 61130  1  0  0  0
 61131  1  0  0  0
 61132  1  0  0  0
 62133  1  0  0  0
 62134  1  0  0  0
 62135  1  0  0  0
 63 65  1  0  0  0
 63136  1  0  0  0
 63137  1  0  0  0
 63138  1  0  0  0
 64139  1  0  0  0
 65140  1  0  0  0
 68 78  1  0  0  0
 71 72  2  0  0  0
 71 74  1  0  0  0
 71141  1  0  0  0
 72 80  1  0  0  0
 72142  1  0  0  0
 73 74  2  0  0  0
 73 80  1  0  0  0
 73143  1  0  0  0
 74 76  1  0  0  0
 75144  1  0  0  0
 75145  1  0  0  0
 75146  1  0  0  0
 75 79  1  0  0  0
 76 81  1  0  0  0
 76147  1  0  0  0
 76148  1  0  0  0
 77 79  1  0  0  0
 77 80  1  0  0  0
 77149  1  0  0  0
 77150  1  0  0  0
 78 79  1  0  0  0
 78151  1  0  0  0
 78152  1  0  0  0
 79153  1  0  0  0
 81154  1  0  0  0
M  ISO  4   1 100  68 101  78 101  81 100
M  END
> <chiral flag>
0

> <version>
0

> <s_m_source_file>
/data/baiqing/PycharmProjects/Reinvent-master-3.2/result/LINK_invent/BTK/process_docking_weight1_custom_sum_contain_oxygen_bond_distance_aromatic_linkinvent_7_9_3/rearranged_h_0112.sdf

> <i_m_source_file_index>
40

> <r_mmod_Potential_Energy-OPLS-2005>
120.992233276367

> <r_mmod_Stretch_Energy-OPLS-2005>
118.308135986328

> <r_mmod_Bend_Energy-OPLS-2005>
182.282669067383

> <r_mmod_Torsional_Energy-OPLS-2005>
227.14241027832

> <r_mmod_Improper_Torsional_Energy-OPLS-2005>
10.6561441421509

> <r_mmod_Van_der_Waal_Energy-OPLS-2005>
115.717597961426

> <r_mmod_Electrostatic_Energy-OPLS-2005>
-392.601928710938

> <r_mmod_Solvation_Energy-OPLS-2005>
-219.004867553711

> <b_mmod_Minimization_Converged-OPLS-2005>
0

> <r_mmod_RMS_Derivative-OPLS-2005>
6.03059911727905

$$$$
40
                    3D
 Structure written by MMmdl.
162170  0  0  1  0            999 V2000
  -30.5154  -14.8435   20.4951 C   0  0  0  0  0  0
  -30.4607  -12.5267   19.4800 C   0  0  0  0  0  0
  -29.5241  -12.5377   18.2464 C   0  0  0  0  0  0
  -28.0512  -12.3344   18.6575 C   0  0  0  0  0  0
  -27.6460  -13.2266   19.8592 C   0  0  2  0  0  0
  -28.6909  -13.1406   20.9945 C   0  0  0  0  0  0
  -25.2447  -13.8115   20.5491 C   0  0  0  0  0  0
  -24.1788  -13.0395   20.9181 C   0  0  0  0  0  0
  -24.6405  -11.6885   20.8780 C   0  0  0  0  0  0
  -23.9077  -10.4272   21.0434 C   0  0  0  0  0  0
  -24.3624   -9.4184   21.9205 C   0  0  0  0  0  0
  -23.6293   -8.2223   22.0762 C   0  0  0  0  0  0
  -22.4276   -8.0273   21.3547 C   0  0  0  0  0  0
  -21.9919   -9.0250   20.4651 C   0  0  0  0  0  0
  -22.7255  -10.2124   20.3071 C   0  0  0  0  0  0
  -21.6848   -6.0734   22.5279 C   0  0  0  0  0  0
  -21.4011   -6.5638   23.8213 C   0  0  0  0  0  0
  -21.3657   -5.6791   24.9175 C   0  0  0  0  0  0
  -21.6044   -4.3054   24.7225 C   0  0  0  0  0  0
  -21.8820   -3.8146   23.4346 C   0  0  0  0  0  0
  -21.9192   -4.6963   22.3402 C   0  0  0  0  0  0
  -22.7816  -13.5194   21.1857 C   0  0  0  0  0  0
  -22.1661   -4.2150   21.0981 F   0  0  0  0  0  0
  -21.5629   -3.4538   25.7737 F   0  0  0  0  0  0
  -29.9841  -13.5636   20.4301 N   0  0  0  0  0  0
  -26.2947  -12.9350   20.3281 N   0  0  0  0  0  0
  -25.9348  -11.6506   20.5820 N   0  0  0  0  0  0
  -22.0475  -12.8193   22.0435 N   0  0  0  0  0  0
  -25.3951  -15.1781   20.3508 N   0  0  0  0  0  0
  -31.6800  -15.0359   20.1249 O   0  0  0  0  0  0
  -21.6634   -6.8875   21.4241 O   0  0  0  0  0  0
  -22.3492  -14.5500   20.6713 O   0  0  0  0  0  0
  -24.6360  -31.8501   23.1925 C   0  0  0  0  0  0
  -25.9160  -32.4733   23.8295 C   0  0  1  0  0  0
  -27.2300  -27.2013   20.1606 C   0  0  0  0  0  0
  -25.5933  -33.8535   24.2215 N   0  0  0  0  0  0
  -23.4374  -30.4678   21.5371 C   0  0  2  0  0  0
  -24.8880  -28.8901   20.1290 C   0  0  0  0  0  0
  -22.7529  -29.4579   22.4902 C   0  0  0  0  0  0
  -18.0297  -28.1395   22.8485 C   0  0  0  0  0  0
  -24.1492  -36.7272   23.2643 C   0  0  0  0  0  0
  -25.9872  -30.7415   21.3838 C   0  0  0  0  0  0
  -26.0603  -29.3507   20.7440 C   0  0  0  0  0  0
  -27.2344  -28.5194   20.7473 C   0  0  0  0  0  0
  -26.0331  -26.8134   19.5270 C   0  0  0  0  0  0
  -24.8798  -27.6282   19.5124 C   0  0  0  0  0  0
  -23.6636  -29.7893   20.1598 C   0  0  0  0  0  0
  -25.4121  -36.3053   24.0322 C   0  0  1  0  0  0
  -20.5904  -28.3711   23.1258 C   0  0  2  0  0  0
  -20.6788  -26.9423   22.5408 C   0  0  0  0  0  0
  -19.5761  -26.6385   21.5219 C   0  0  0  0  0  0
  -18.1939  -26.7937   22.1627 C   0  0  0  0  0  0
  -19.1551  -28.8871   23.2867 C   0  0  0  0  0  0
  -18.9473  -30.1471   23.8886 C   0  0  0  0  0  0
  -17.6471  -30.6592   24.0566 C   0  0  0  0  0  0
  -25.9065  -34.9430   23.5074 C   0  0  0  0  0  0
  -16.5362  -29.9090   23.6338 C   0  0  0  0  0  0
  -16.7284  -28.6511   23.0355 C   0  0  0  0  0  0
  -26.4506  -31.6581   25.0710 C   0  0  0  0  0  0
  -25.3706  -31.3750   26.1412 C   0  0  0  0  0  0
  -27.0368  -30.2991   24.6241 C   0  0  0  0  0  0
  -27.6046  -32.4338   25.7491 C   0  0  0  0  0  0
  -27.5577  -37.1789   24.8466 C   0  0  0  0  0  0
  -21.4230  -29.3050   22.3642 N   0  0  0  0  0  0
  -26.4289  -37.3759   23.9409 N   0  0  0  0  0  0
  -24.7060  -31.0406   22.0935 N   0  0  0  0  0  0
  -23.4197  -28.8138   23.3039 O   0  0  0  0  0  0
  -28.3473  -26.3350   20.0100 O   0  0  0  0  0  0
  -26.5648  -34.8916   22.4649 O   0  0  0  0  0  0
  -23.5495  -32.1350   23.7178 O   0  0  0  0  0  0
  -28.1796  -19.1634   21.6167 C   0  0  0  0  0  0
  -30.0006  -18.5402   20.4905 C   0  0  0  0  0  0
  -28.2609  -17.7919   21.7129 C   0  0  0  0  0  0
  -29.4000  -17.3489   20.9596 C   0  0  0  0  0  0
  -25.9211  -17.5421   22.6873 C   0  0  0  0  0  0
  -27.9369  -16.6192   23.9078 C   0  0  0  0  0  0
  -29.9894  -22.6815   18.8487 C   0  0  0  0  0  0
  -29.4946  -21.2465   20.9492 C   0  0  0  0  0  0
  -28.0319  -23.7409   20.1866 C   0  0  0  0  0  0
  -27.3226  -16.9254   22.5354 C   0  0  0  0  0  0
  -28.9028  -22.3510   19.8831 C   0  0  1  0  0  0
  -29.2470  -19.7047   20.9227 N   0  0  0  0  0  0
  -29.6147  -15.8516   20.8639 N   0  0  0  0  0  0
  -28.4716  -25.0406   20.8607 N   0  0  0  0  0  0
  -31.4908  -12.7102   19.1703 H   0  0  0  0  0  0
  -30.4621  -11.5450   19.9562 H   0  0  0  0  0  0
  -29.8244  -11.7656   17.5369 H   0  0  0  0  0  0
  -29.6252  -13.4893   17.7220 H   0  0  0  0  0  0
  -27.9229  -11.2839   18.9212 H   0  0  0  0  0  0
  -27.3910  -12.5177   17.8090 H   0  0  0  0  0  0
  -27.6415  -14.2513   19.4872 H   0  0  0  0  0  0
  -28.7551  -12.1224   21.3815 H   0  0  0  0  0  0
  -28.3994  -13.7592   21.8446 H   0  0  0  0  0  0
  -25.2769   -9.5652   22.4782 H   0  0  0  0  0  0
  -23.9997   -7.4608   22.7478 H   0  0  0  0  0  0
  -21.0852   -8.8777   19.8951 H   0  0  0  0  0  0
  -22.3726  -10.9669   19.6180 H   0  0  0  0  0  0
  -21.2002   -7.6146   23.9717 H   0  0  0  0  0  0
  -21.1478   -6.0521   25.9078 H   0  0  0  0  0  0
  -22.0601   -2.7609   23.2846 H   0  0  0  0  0  0
  -22.4098  -11.9855   22.4816 H   0  0  0  0  0  0
  -21.1100  -13.1223   22.2661 H   0  0  0  0  0  0
  -24.6134  -15.8159   20.4454 H   0  0  0  0  0  0
  -26.2226  -15.6226   19.9758 H   0  0  0  0  0  0
  -26.7226  -32.5370   23.1034 H   0  0  0  0  0  0
  -25.0070  -33.9667   25.0355 H   0  0  0  0  0  0
  -22.7372  -31.2913   21.3809 H   0  0  0  0  0  0
  -23.3758  -35.9601   23.3302 H   0  0  0  0  0  0
  -24.3580  -36.8898   22.2057 H   0  0  0  0  0  0
  -23.7242  -37.6469   23.6675 H   0  0  0  0  0  0
  -26.1287  -31.4898   20.6024 H   0  0  0  0  0  0
  -26.8636  -30.8009   22.0175 H   0  0  0  0  0  0
  -28.1440  -28.8824   21.2047 H   0  0  0  0  0  0
  -25.9942  -25.8541   19.0315 H   0  0  0  0  0  0
  -23.9854  -27.2691   19.0225 H   0  0  0  0  0  0
  -23.8003  -30.5592   19.3994 H   0  0  0  0  0  0
  -22.7805  -29.2273   19.8513 H   0  0  0  0  0  0
  -25.1306  -36.1889   25.0815 H   0  0  0  0  0  0
  -20.9997  -28.3293   24.1379 H   0  0  0  0  0  0
  -20.5695  -26.2323   23.3619 H   0  0  0  0  0  0
  -21.6653  -26.7446   22.1195 H   0  0  0  0  0  0
  -19.6925  -25.6293   21.1257 H   0  0  0  0  0  0
  -19.6700  -27.3193   20.6746 H   0  0  0  0  0  0
  -17.4212  -26.6689   21.4027 H   0  0  0  0  0  0
  -18.0333  -26.0083   22.9025 H   0  0  0  0  0  0
  -19.7950  -30.7291   24.2252 H   0  0  0  0  0  0
  -17.5026  -31.6275   24.5164 H   0  0  0  0  0  0
  -15.5364  -30.2988   23.7669 H   0  0  0  0  0  0
  -15.8684  -28.0827   22.7072 H   0  0  0  0  0  0
  -24.5888  -30.7098   25.7727 H   0  0  0  0  0  0
  -24.8893  -32.2929   26.4799 H   0  0  0  0  0  0
  -25.7993  -30.8943   27.0214 H   0  0  0  0  0  0
  -26.2969  -29.6723   24.1251 H   0  0  0  0  0  0
  -27.4019  -29.7274   25.4785 H   0  0  0  0  0  0
  -27.8858  -30.4257   23.9518 H   0  0  0  0  0  0
  -27.2641  -33.3652   26.2030 H   0  0  0  0  0  0
  -28.3870  -32.6877   25.0326 H   0  0  0  0  0  0
  -28.0699  -31.8491   26.5436 H   0  0  0  0  0  0
  -28.2583  -38.0096   24.7513 H   0  0  0  0  0  0
  -28.1081  -36.2624   24.6288 H   0  0  0  0  0  0
  -27.2297  -37.1427   25.8869 H   0  0  0  0  0  0
  -20.9432  -29.8751   21.6815 H   0  0  0  0  0  0
  -26.0162  -38.2829   24.1416 H   0  0  0  0  0  0
  -27.4640  -19.8345   22.0733 H   0  0  0  0  0  0
  -30.9093  -18.6782   19.9192 H   0  0  0  0  0  0
  -25.4809  -17.7642   21.7150 H   0  0  0  0  0  0
  -25.9435  -18.4673   23.2638 H   0  0  0  0  0  0
  -25.2474  -16.8552   23.1998 H   0  0  0  0  0  0
  -28.8981  -16.1141   23.8059 H   0  0  0  0  0  0
  -27.2870  -15.9700   24.4952 H   0  0  0  0  0  0
  -28.1019  -17.5322   24.4808 H   0  0  0  0  0  0
  -30.4607  -21.7758   18.4655 H   0  0  0  0  0  0
  -30.7705  -23.3039   19.2860 H   0  0  0  0  0  0
  -29.5746  -23.2203   17.9957 H   0  0  0  0  0  0
  -29.1550  -21.5802   21.9305 H   0  0  0  0  0  0
  -30.5757  -21.3782   21.0068 H   0  0  0  0  0  0
  -27.1606  -23.4219   20.7599 H   0  0  0  0  0  0
  -27.6096  -24.0480   19.2290 H   0  0  0  0  0  0
  -27.2091  -15.9770   22.0162 H   0  0  0  0  0  0
  -28.1741  -21.7523   19.3352 H   0  0  0  0  0  0
  -28.7857  -15.3719   21.1760 H   0  0  0  0  0  0
  -29.4579  -24.9717   21.0980 H   0  0  0  0  0  0
  1 25  1  0  0  0
  1 30  2  0  0  0
  1 83  1  0  0  0
  2  3  1  0  0  0
  2 25  1  0  0  0
  2 85  1  0  0  0
  2 86  1  0  0  0
  3  4  1  0  0  0
  3 87  1  0  0  0
  3 88  1  0  0  0
  4  5  1  0  0  0
  4 89  1  0  0  0
  4 90  1  0  0  0
  5  6  1  0  0  0
  5 26  1  0  0  0
  5 91  1  0  0  0
  6 25  1  0  0  0
  6 92  1  0  0  0
  6 93  1  0  0  0
  7  8  2  0  0  0
  7 26  1  0  0  0
  7 29  1  0  0  0
  8  9  1  0  0  0
  8 22  1  0  0  0
  9 10  1  0  0  0
  9 27  2  0  0  0
 10 11  2  0  0  0
 10 15  1  0  0  0
 11 12  1  0  0  0
 11 94  1  0  0  0
 12 13  2  0  0  0
 12 95  1  0  0  0
 13 14  1  0  0  0
 13 31  1  0  0  0
 14 15  2  0  0  0
 14 96  1  0  0  0
 15 97  1  0  0  0
 16 17  2  0  0  0
 16 21  1  0  0  0
 16 31  1  0  0  0
 17 18  1  0  0  0
 17 98  1  0  0  0
 18 19  2  0  0  0
 18 99  1  0  0  0
 19 20  1  0  0  0
 19 24  1  0  0  0
 20 21  2  0  0  0
 20100  1  0  0  0
 21 23  1  0  0  0
 22 28  1  0  0  0
 22 32  2  0  0  0
 26 27  1  0  0  0
 28101  1  0  0  0
 28102  1  0  0  0
 29103  1  0  0  0
 29104  1  0  0  0
 33 34  1  0  0  0
 33 66  1  0  0  0
 33 70  2  0  0  0
 34 36  1  0  0  0
 34 59  1  0  0  0
 34105  1  0  0  0
 35 44  2  0  0  0
 35 45  1  0  0  0
 35 68  1  0  0  0
 36 56  1  0  0  0
 36106  1  0  0  0
 37 39  1  0  0  0
 37 47  1  0  0  0
 37 66  1  0  0  0
 37107  1  0  0  0
 38 43  2  0  0  0
 38 46  1  0  0  0
 38 47  1  0  0  0
 39 64  1  0  0  0
 39 67  2  0  0  0
 40 52  1  0  0  0
 40 53  2  0  0  0
 40 58  1  0  0  0
 41108  1  0  0  0
 41109  1  0  0  0
 41110  1  0  0  0
 41 48  1  0  0  0
 42 43  1  0  0  0
 42 66  1  0  0  0
 42111  1  0  0  0
 42112  1  0  0  0
 43 44  1  0  0  0
 44113  1  0  0  0
 45 46  2  0  0  0
 45114  1  0  0  0
 46115  1  0  0  0
 47116  1  0  0  0
 47117  1  0  0  0
 48 56  1  0  0  0
 48 65  1  0  0  0
 48118  1  0  0  0
 49 50  1  0  0  0
 49 53  1  0  0  0
 49 64  1  0  0  0
 49119  1  0  0  0
 50 51  1  0  0  0
 50120  1  0  0  0
 50121  1  0  0  0
 51 52  1  0  0  0
 51122  1  0  0  0
 51123  1  0  0  0
 52124  1  0  0  0
 52125  1  0  0  0
 53 54  1  0  0  0
 54 55  2  0  0  0
 54126  1  0  0  0
 55 57  1  0  0  0
 55127  1  0  0  0
 56 69  2  0  0  0
 57 58  2  0  0  0
 57128  1  0  0  0
 58129  1  0  0  0
 59 60  1  0  0  0
 59 61  1  0  0  0
 59 62  1  0  0  0
 60130  1  0  0  0
 60131  1  0  0  0
 60132  1  0  0  0
 61133  1  0  0  0
 61134  1  0  0  0
 61135  1  0  0  0
 62136  1  0  0  0
 62137  1  0  0  0
 62138  1  0  0  0
 63 65  1  0  0  0
 63139  1  0  0  0
 63140  1  0  0  0
 63141  1  0  0  0
 64142  1  0  0  0
 65143  1  0  0  0
 68 84  1  0  0  0
 71 73  2  0  0  0
 71 82  1  0  0  0
 71144  1  0  0  0
 72 74  2  0  0  0
 72 82  1  0  0  0
 72145  1  0  0  0
 73 74  1  0  0  0
 73 80  1  0  0  0
 74 83  1  0  0  0
 75146  1  0  0  0
 75147  1  0  0  0
 75148  1  0  0  0
 75 80  1  0  0  0
 76 80  1  0  0  0
 76149  1  0  0  0
 76150  1  0  0  0
 76151  1  0  0  0
 77152  1  0  0  0
 77153  1  0  0  0
 77154  1  0  0  0
 77 81  1  0  0  0
 78 81  1  0  0  0
 78 82  1  0  0  0
 78155  1  0  0  0
 78156  1  0  0  0
 79 81  1  0  0  0
 79 84  1  0  0  0
 79157  1  0  0  0
 79158  1  0  0  0
 80159  1  0  0  0
 81160  1  0  0  0
 83161  1  0  0  0
 84162  1  0  0  0
M  ISO  4   1 100  68 101  83 100  84 101
M  END
> <chiral flag>
0

> <version>
0

> <s_m_source_file>
/data/baiqing/PycharmProjects/Reinvent-master-3.2/result/LINK_invent/BTK/process_docking_weight1_custom_sum_contain_oxygen_bond_distance_aromatic_linkinvent_7_9_3/rearranged_h_0112.sdf

> <i_m_source_file_index>
41

> <r_mmod_Potential_Energy-OPLS-2005>
417.867950439453

> <r_mmod_Stretch_Energy-OPLS-2005>
176.727554321289

> <r_mmod_Bend_Energy-OPLS-2005>
335.427825927734

> <r_mmod_Torsional_Energy-OPLS-2005>
263.142761230469

> <r_mmod_Improper_Torsional_Energy-OPLS-2005>
5.66108131408691

> <r_mmod_Van_der_Waal_Energy-OPLS-2005>
100.697189331055

> <r_mmod_Electrostatic_Energy-OPLS-2005>
-374.621276855469

> <r_mmod_Solvation_Energy-OPLS-2005>
-212.744934082031

> <b_mmod_Minimization_Converged-OPLS-2005>
0

> <r_mmod_RMS_Derivative-OPLS-2005>
0.579639494419098

$$$$
41
                    3D
 Structure written by MMmdl.
156164  0  0  1  0            999 V2000
  -30.5374  -14.9697   20.4128 C   0  0  0  0  0  0
  -30.4385  -12.6023   19.5006 C   0  0  0  0  0  0
  -29.5231  -12.5324   18.2569 C   0  0  0  0  0  0
  -28.0575  -12.3129   18.6751 C   0  0  0  0  0  0
  -27.6276  -13.2496   19.8345 C   0  0  2  0  0  0
  -28.6687  -13.2918   20.9727 C   0  0  0  0  0  0
  -25.2456  -13.8217   20.5693 C   0  0  0  0  0  0
  -24.1776  -13.0443   20.9226 C   0  0  0  0  0  0
  -24.6395  -11.6931   20.8760 C   0  0  0  0  0  0
  -23.9078  -10.4302   21.0411 C   0  0  0  0  0  0
  -24.3628   -9.4215   21.9185 C   0  0  0  0  0  0
  -23.6303   -8.2250   22.0753 C   0  0  0  0  0  0
  -22.4286   -8.0285   21.3545 C   0  0  0  0  0  0
  -21.9923   -9.0258   20.4646 C   0  0  0  0  0  0
  -22.7251  -10.2138   20.3059 C   0  0  0  0  0  0
  -21.6859   -6.0741   22.5277 C   0  0  0  0  0  0
  -21.4018   -6.5642   23.8211 C   0  0  0  0  0  0
  -21.3660   -5.6788   24.9172 C   0  0  0  0  0  0
  -21.6045   -4.3054   24.7217 C   0  0  0  0  0  0
  -21.8819   -3.8150   23.4337 C   0  0  0  0  0  0
  -21.9195   -4.6968   22.3398 C   0  0  0  0  0  0
  -22.7794  -13.5214   21.1874 C   0  0  0  0  0  0
  -22.1658   -4.2157   21.0973 F   0  0  0  0  0  0
  -21.5632   -3.4532   25.7728 F   0  0  0  0  0  0
  -29.9407  -13.7085   20.3697 N   0  0  0  0  0  0
  -26.2874  -12.9446   20.3216 N   0  0  0  0  0  0
  -25.9327  -11.6580   20.5730 N   0  0  0  0  0  0
  -22.0439  -12.8208   22.0429 N   0  0  0  0  0  0
  -25.4129  -15.1942   20.4099 N   0  0  0  0  0  0
  -31.7454  -15.0212   20.1579 O   0  0  0  0  0  0
  -21.6648   -6.8882   21.4241 O   0  0  0  0  0  0
  -22.3475  -14.5508   20.6701 O   0  0  0  0  0  0
  -24.6458  -31.8418   23.1855 C   0  0  0  0  0  0
  -25.9218  -32.4682   23.8260 C   0  0  1  0  0  0
  -27.2153  -27.1117   20.1527 C   0  0  0  0  0  0
  -25.5956  -33.8490   24.2176 N   0  0  0  0  0  0
  -23.4506  -30.4602   21.5320 C   0  0  2  0  0  0
  -24.8995  -28.8811   20.1095 C   0  0  0  0  0  0
  -22.7580  -29.4538   22.4853 C   0  0  0  0  0  0
  -18.0309  -28.1393   22.8471 C   0  0  0  0  0  0
  -24.1492  -36.7249   23.2645 C   0  0  0  0  0  0
  -26.0080  -30.7075   21.3869 C   0  0  0  0  0  0
  -26.0782  -29.3163   20.7281 C   0  0  0  0  0  0
  -27.2374  -28.4487   20.7301 C   0  0  0  0  0  0
  -26.0095  -26.7826   19.4959 C   0  0  0  0  0  0
  -24.8794  -27.6290   19.4770 C   0  0  0  0  0  0
  -23.6774  -29.7865   20.1522 C   0  0  0  0  0  0
  -25.4124  -36.3026   24.0317 C   0  0  1  0  0  0
  -20.5923  -28.3723   23.1225 C   0  0  2  0  0  0
  -20.6787  -26.9423   22.5401 C   0  0  0  0  0  0
  -19.5762  -26.6375   21.5208 C   0  0  0  0  0  0
  -18.1946  -26.7931   22.1620 C   0  0  0  0  0  0
  -19.1566  -28.8877   23.2838 C   0  0  0  0  0  0
  -18.9481  -30.1470   23.8866 C   0  0  0  0  0  0
  -17.6476  -30.6584   24.0555 C   0  0  0  0  0  0
  -25.9075  -34.9402   23.5056 C   0  0  0  0  0  0
  -16.5366  -29.9075   23.6335 C   0  0  0  0  0  0
  -16.7293  -28.6497   23.0353 C   0  0  0  0  0  0
  -26.4525  -31.6563   25.0716 C   0  0  0  0  0  0
  -25.3700  -31.3750   26.1402 C   0  0  0  0  0  0
  -27.0401  -30.2962   24.6314 C   0  0  0  0  0  0
  -27.6054  -32.4333   25.7501 C   0  0  0  0  0  0
  -27.5574  -37.1782   24.8464 C   0  0  0  0  0  0
  -21.4271  -29.3048   22.3599 N   0  0  0  0  0  0
  -26.4285  -37.3744   23.9408 N   0  0  0  0  0  0
  -24.7217  -31.0250   22.0899 N   0  0  0  0  0  0
  -23.4212  -28.8092   23.3017 O   0  0  0  0  0  0
  -28.2626  -26.1142   20.2226 O   0  0  0  0  0  0
  -26.5663  -34.8904   22.4636 O   0  0  0  0  0  0
  -23.5569  -32.1310   23.7054 O   0  0  0  0  0  0
  -29.5799  -20.4806   20.4484 C   0  0  0  0  0  0
  -27.8558  -18.8559   19.9548 C   0  0  0  0  0  0
  -27.3762  -21.3024   19.8898 C   0  0  0  0  0  0
  -29.2063  -19.0404   20.3159 C   0  0  0  0  0  0
  -28.6923  -21.6672   20.2451 C   0  0  0  0  0  0
  -26.9754  -19.9484   19.7480 C   0  0  0  0  0  0
  -30.2576  -23.5381   19.4530 C   0  0  0  0  0  0
  -29.5334  -23.4866   21.8410 C   0  0  0  0  0  0
  -30.1772  -17.7045   20.4954 C   0  0  0  0  0  0
  -27.9886  -24.5725   20.0888 C   0  0  0  0  0  0
  -29.0665  -23.2864   20.3908 C   0  0  0  0  0  0
  -29.7700  -16.1678   20.5364 N   0  0  0  0  0  0
  -25.3431  -19.6164   19.2963 Cl  0  0  0  0  0  0
  -31.4728  -12.7587   19.1902 H   0  0  0  0  0  0
  -30.4319  -11.6542   20.0408 H   0  0  0  0  0  0
  -29.8490  -11.7332   17.5902 H   0  0  0  0  0  0
  -29.6053  -13.4601   17.6885 H   0  0  0  0  0  0
  -27.9591  -11.2729   18.9880 H   0  0  0  0  0  0
  -27.3956  -12.4356   17.8173 H   0  0  0  0  0  0
  -27.5870  -14.2483   19.3995 H   0  0  0  0  0  0
  -28.7619  -12.3197   21.4587 H   0  0  0  0  0  0
  -28.3636  -13.9982   21.7464 H   0  0  0  0  0  0
  -25.2776   -9.5691   22.4753 H   0  0  0  0  0  0
  -24.0018   -7.4646   22.7477 H   0  0  0  0  0  0
  -21.0852   -8.8776   19.8954 H   0  0  0  0  0  0
  -22.3712  -10.9675   19.6164 H   0  0  0  0  0  0
  -21.2010   -7.6150   23.9716 H   0  0  0  0  0  0
  -21.1482   -6.0518   25.9073 H   0  0  0  0  0  0
  -22.0601   -2.7614   23.2831 H   0  0  0  0  0  0
  -22.4062  -11.9887   22.4842 H   0  0  0  0  0  0
  -21.1048  -13.1231   22.2618 H   0  0  0  0  0  0
  -24.6413  -15.8438   20.5134 H   0  0  0  0  0  0
  -26.2445  -15.6263   20.0319 H   0  0  0  0  0  0
  -26.7287  -32.5276   23.0989 H   0  0  0  0  0  0
  -25.0080  -33.9605   25.0306 H   0  0  0  0  0  0
  -22.7538  -31.2864   21.3752 H   0  0  0  0  0  0
  -23.3766  -35.9570   23.3288 H   0  0  0  0  0  0
  -24.3578  -36.8901   22.2064 H   0  0  0  0  0  0
  -23.7234  -37.6434   23.6692 H   0  0  0  0  0  0
  -26.1649  -31.4615   20.6143 H   0  0  0  0  0  0
  -26.8773  -30.7581   22.0306 H   0  0  0  0  0  0
  -28.1348  -28.7773   21.2351 H   0  0  0  0  0  0
  -25.9059  -25.8249   19.0084 H   0  0  0  0  0  0
  -23.9797  -27.2908   18.9815 H   0  0  0  0  0  0
  -23.8140  -30.5593   19.3950 H   0  0  0  0  0  0
  -22.7914  -29.2298   19.8426 H   0  0  0  0  0  0
  -25.1313  -36.1855   25.0810 H   0  0  0  0  0  0
  -21.0010  -28.3311   24.1347 H   0  0  0  0  0  0
  -20.5671  -26.2339   23.3624 H   0  0  0  0  0  0
  -21.6653  -26.7416   22.1205 H   0  0  0  0  0  0
  -19.6922  -25.6278   21.1256 H   0  0  0  0  0  0
  -19.6698  -27.3168   20.6724 H   0  0  0  0  0  0
  -17.4216  -26.6675   21.4023 H   0  0  0  0  0  0
  -18.0344  -26.0076   22.9019 H   0  0  0  0  0  0
  -19.7956  -30.7295   24.2221 H   0  0  0  0  0  0
  -17.5027  -31.6262   24.5160 H   0  0  0  0  0  0
  -15.5363  -30.2964   23.7676 H   0  0  0  0  0  0
  -15.8696  -28.0803   22.7081 H   0  0  0  0  0  0
  -24.5885  -30.7097   25.7708 H   0  0  0  0  0  0
  -24.8881  -32.2929   26.4780 H   0  0  0  0  0  0
  -25.7976  -30.8947   27.0212 H   0  0  0  0  0  0
  -26.3029  -29.6672   24.1315 H   0  0  0  0  0  0
  -27.4001  -29.7277   25.4899 H   0  0  0  0  0  0
  -27.8935  -30.4199   23.9646 H   0  0  0  0  0  0
  -27.2651  -33.3651   26.2025 H   0  0  0  0  0  0
  -28.3890  -32.6865   25.0348 H   0  0  0  0  0  0
  -28.0693  -31.8495   26.5460 H   0  0  0  0  0  0
  -28.2584  -38.0086   24.7517 H   0  0  0  0  0  0
  -28.1079  -36.2618   24.6287 H   0  0  0  0  0  0
  -27.2292  -37.1418   25.8867 H   0  0  0  0  0  0
  -20.9489  -29.8767   21.6778 H   0  0  0  0  0  0
  -26.0153  -38.2812   24.1412 H   0  0  0  0  0  0
  -30.6068  -20.6875   20.7159 H   0  0  0  0  0  0
  -27.4780  -17.8532   19.8186 H   0  0  0  0  0  0
  -26.6427  -22.0755   19.7169 H   0  0  0  0  0  0
  -31.0991  -22.8818   19.6754 H   0  0  0  0  0  0
  -30.6143  -24.5657   19.5317 H   0  0  0  0  0  0
  -29.9749  -23.3687   18.4140 H   0  0  0  0  0  0
  -30.3722  -22.8364   22.0923 H   0  0  0  0  0  0
  -28.7267  -23.2679   22.5410 H   0  0  0  0  0  0
  -29.8527  -24.5146   22.0158 H   0  0  0  0  0  0
  -30.7432  -17.8799   21.4108 H   0  0  0  0  0  0
  -30.9186  -17.7860   19.7000 H   0  0  0  0  0  0
  -27.1107  -24.3815   20.7074 H   0  0  0  0  0  0
  -27.6466  -24.4280   19.0639 H   0  0  0  0  0  0
  -28.7899  -16.0030   20.7043 H   0  0  0  0  0  0
  1 25  1  0  0  0
  1 30  2  0  0  0
  1 82  1  0  0  0
  2  3  1  0  0  0
  2 25  1  0  0  0
  2 84  1  0  0  0
  2 85  1  0  0  0
  3  4  1  0  0  0
  3 86  1  0  0  0
  3 87  1  0  0  0
  4  5  1  0  0  0
  4 88  1  0  0  0
  4 89  1  0  0  0
  5  6  1  0  0  0
  5 26  1  0  0  0
  5 90  1  0  0  0
  6 25  1  0  0  0
  6 91  1  0  0  0
  6 92  1  0  0  0
  7  8  2  0  0  0
  7 26  1  0  0  0
  7 29  1  0  0  0
  8  9  1  0  0  0
  8 22  1  0  0  0
  9 10  1  0  0  0
  9 27  2  0  0  0
 10 11  2  0  0  0
 10 15  1  0  0  0
 11 12  1  0  0  0
 11 93  1  0  0  0
 12 13  2  0  0  0
 12 94  1  0  0  0
 13 14  1  0  0  0
 13 31  1  0  0  0
 14 15  2  0  0  0
 14 95  1  0  0  0
 15 96  1  0  0  0
 16 17  2  0  0  0
 16 21  1  0  0  0
 16 31  1  0  0  0
 17 18  1  0  0  0
 17 97  1  0  0  0
 18 19  2  0  0  0
 18 98  1  0  0  0
 19 20  1  0  0  0
 19 24  1  0  0  0
 20 21  2  0  0  0
 20 99  1  0  0  0
 21 23  1  0  0  0
 22 28  1  0  0  0
 22 32  2  0  0  0
 26 27  1  0  0  0
 28100  1  0  0  0
 28101  1  0  0  0
 29102  1  0  0  0
 29103  1  0  0  0
 33 34  1  0  0  0
 33 66  1  0  0  0
 33 70  2  0  0  0
 34 36  1  0  0  0
 34 59  1  0  0  0
 34104  1  0  0  0
 35 44  2  0  0  0
 35 45  1  0  0  0
 35 68  1  0  0  0
 36 56  1  0  0  0
 36105  1  0  0  0
 37 39  1  0  0  0
 37 47  1  0  0  0
 37 66  1  0  0  0
 37106  1  0  0  0
 38 43  2  0  0  0
 38 46  1  0  0  0
 38 47  1  0  0  0
 39 64  1  0  0  0
 39 67  2  0  0  0
 40 52  1  0  0  0
 40 53  2  0  0  0
 40 58  1  0  0  0
 41107  1  0  0  0
 41108  1  0  0  0
 41109  1  0  0  0
 41 48  1  0  0  0
 42 43  1  0  0  0
 42 66  1  0  0  0
 42110  1  0  0  0
 42111  1  0  0  0
 43 44  1  0  0  0
 44112  1  0  0  0
 45 46  2  0  0  0
 45113  1  0  0  0
 46114  1  0  0  0
 47115  1  0  0  0
 47116  1  0  0  0
 48 56  1  0  0  0
 48 65  1  0  0  0
 48117  1  0  0  0
 49 50  1  0  0  0
 49 53  1  0  0  0
 49 64  1  0  0  0
 49118  1  0  0  0
 50 51  1  0  0  0
 50119  1  0  0  0
 50120  1  0  0  0
 51 52  1  0  0  0
 51121  1  0  0  0
 51122  1  0  0  0
 52123  1  0  0  0
 52124  1  0  0  0
 53 54  1  0  0  0
 54 55  2  0  0  0
 54125  1  0  0  0
 55 57  1  0  0  0
 55126  1  0  0  0
 56 69  2  0  0  0
 57 58  2  0  0  0
 57127  1  0  0  0
 58128  1  0  0  0
 59 60  1  0  0  0
 59 61  1  0  0  0
 59 62  1  0  0  0
 60129  1  0  0  0
 60130  1  0  0  0
 60131  1  0  0  0
 61132  1  0  0  0
 61133  1  0  0  0
 61134  1  0  0  0
 62135  1  0  0  0
 62136  1  0  0  0
 62137  1  0  0  0
 63 65  1  0  0  0
 63138  1  0  0  0
 63139  1  0  0  0
 63140  1  0  0  0
 64141  1  0  0  0
 65142  1  0  0  0
 68 80  1  0  0  0
 71 74  2  0  0  0
 71 75  1  0  0  0
 71143  1  0  0  0
 72 74  1  0  0  0
 72 76  2  0  0  0
 72144  1  0  0  0
 73 75  2  0  0  0
 73 76  1  0  0  0
 73145  1  0  0  0
 74 79  1  0  0  0
 75 81  1  0  0  0
 76 83  1  0  0  0
 77146  1  0  0  0
 77147  1  0  0  0
 77148  1  0  0  0
 77 81  1  0  0  0
 78 81  1  0  0  0
 78149  1  0  0  0
 78150  1  0  0  0
 78151  1  0  0  0
 79 82  1  0  0  0
 79152  1  0  0  0
 79153  1  0  0  0
 80 81  1  0  0  0
 80154  1  0  0  0
 80155  1  0  0  0
 82156  1  0  0  0
M  ISO  4   1 100  68 101  80 101  82 100
M  END
> <chiral flag>
0

> <version>
0

> <s_m_source_file>
/data/baiqing/PycharmProjects/Reinvent-master-3.2/result/LINK_invent/BTK/process_docking_weight1_custom_sum_contain_oxygen_bond_distance_aromatic_linkinvent_7_9_3/rearranged_h_0112.sdf

> <i_m_source_file_index>
42

> <r_mmod_Potential_Energy-OPLS-2005>
454.246856689453

> <r_mmod_Stretch_Energy-OPLS-2005>
281.484344482422

> <r_mmod_Bend_Energy-OPLS-2005>
248.722900390625

> <r_mmod_Torsional_Energy-OPLS-2005>
204.746841430664

> <r_mmod_Improper_Torsional_Energy-OPLS-2005>
4.37125015258789

> <r_mmod_Van_der_Waal_Energy-OPLS-2005>
121.230033874512

> <r_mmod_Electrostatic_Energy-OPLS-2005>
-414.096008300781

> <r_mmod_Solvation_Energy-OPLS-2005>
-203.500427246094

> <b_mmod_Minimization_Converged-OPLS-2005>
0

> <r_mmod_RMS_Derivative-OPLS-2005>
0.874960958957672

$$$$
42
                    3D
 Structure written by MMmdl.
169177  0  0  1  0            999 V2000
  -30.7003  -14.5325   20.5030 C   0  0  0  0  0  0
  -30.4122  -12.3258   19.4448 C   0  0  0  0  0  0
  -29.4930  -12.4878   18.2168 C   0  0  0  0  0  0
  -28.0148  -12.3527   18.6280 C   0  0  0  0  0  0
  -27.6534  -13.2183   19.8655 C   0  0  2  0  0  0
  -28.6979  -13.0679   20.9953 C   0  0  0  0  0  0
  -25.2562  -13.8180   20.5703 C   0  0  0  0  0  0
  -24.1831  -13.0447   20.9187 C   0  0  0  0  0  0
  -24.6397  -11.6913   20.8746 C   0  0  0  0  0  0
  -23.9071  -10.4299   21.0413 C   0  0  0  0  0  0
  -24.3623   -9.4211   21.9187 C   0  0  0  0  0  0
  -23.6299   -8.2246   22.0755 C   0  0  0  0  0  0
  -22.4280   -8.0283   21.3547 C   0  0  0  0  0  0
  -21.9918   -9.0258   20.4648 C   0  0  0  0  0  0
  -22.7246  -10.2140   20.3060 C   0  0  0  0  0  0
  -21.6856   -6.0741   22.5277 C   0  0  0  0  0  0
  -21.4020   -6.5645   23.8210 C   0  0  0  0  0  0
  -21.3655   -5.6797   24.9169 C   0  0  0  0  0  0
  -21.6045   -4.3059   24.7223 C   0  0  0  0  0  0
  -21.8818   -3.8151   23.4342 C   0  0  0  0  0  0
  -21.9196   -4.6970   22.3399 C   0  0  0  0  0  0
  -22.7854  -13.5235   21.1845 C   0  0  0  0  0  0
  -22.1666   -4.2158   21.0976 F   0  0  0  0  0  0
  -21.5623   -3.4540   25.7732 F   0  0  0  0  0  0
  -30.0197  -13.3545   20.4241 N   0  0  0  0  0  0
  -26.2995  -12.9374   20.3356 N   0  0  0  0  0  0
  -25.9331  -11.6525   20.5785 N   0  0  0  0  0  0
  -22.0504  -12.8223   22.0397 N   0  0  0  0  0  0
  -25.4267  -15.1903   20.4103 N   0  0  0  0  0  0
  -31.8672  -14.6329   20.1177 O   0  0  0  0  0  0
  -21.6641   -6.8884   21.4238 O   0  0  0  0  0  0
  -22.3535  -14.5540   20.6686 O   0  0  0  0  0  0
  -24.6164  -31.8646   23.2095 C   0  0  0  0  0  0
  -25.9061  -32.4791   23.8375 C   0  0  1  0  0  0
  -27.2297  -27.3953   20.0958 C   0  0  0  0  0  0
  -25.5912  -33.8596   24.2293 N   0  0  0  0  0  0
  -23.4044  -30.4899   21.5490 C   0  0  2  0  0  0
  -24.8490  -28.9515   20.1154 C   0  0  0  0  0  0
  -22.7401  -29.4653   22.4979 C   0  0  0  0  0  0
  -18.0254  -28.1359   22.8466 C   0  0  0  0  0  0
  -24.1505  -36.7310   23.2645 C   0  0  0  0  0  0
  -25.9385  -30.8169   21.3700 C   0  0  0  0  0  0
  -26.0132  -29.4510   20.7115 C   0  0  0  0  0  0
  -27.2030  -28.6813   20.6949 C   0  0  0  0  0  0
  -26.0383  -26.9188   19.4985 C   0  0  0  0  0  0
  -24.8601  -27.6868   19.5055 C   0  0  0  0  0  0
  -23.6144  -29.8237   20.1635 C   0  0  0  0  0  0
  -25.4123  -36.3089   24.0329 C   0  0  1  0  0  0
  -20.5851  -28.3647   23.1298 C   0  0  2  0  0  0
  -20.6757  -26.9378   22.5416 C   0  0  0  0  0  0
  -19.5745  -26.6365   21.5200 C   0  0  0  0  0  0
  -18.1913  -26.7900   22.1602 C   0  0  0  0  0  0
  -19.1505  -28.8815   23.2872 C   0  0  0  0  0  0
  -18.9456  -30.1424   23.8878 C   0  0  0  0  0  0
  -17.6468  -30.6572   24.0548 C   0  0  0  0  0  0
  -25.9052  -34.9456   23.5107 C   0  0  0  0  0  0
  -16.5350  -29.9080   23.6331 C   0  0  0  0  0  0
  -16.7250  -28.6500   23.0335 C   0  0  0  0  0  0
  -26.4490  -31.6591   25.0712 C   0  0  0  0  0  0
  -25.3762  -31.3708   26.1469 C   0  0  0  0  0  0
  -27.0337  -30.3025   24.6122 C   0  0  0  0  0  0
  -27.6028  -32.4348   25.7482 C   0  0  0  0  0  0
  -27.5581  -37.1806   24.8458 C   0  0  0  0  0  0
  -21.4127  -29.3030   22.3721 N   0  0  0  0  0  0
  -26.4298  -37.3782   23.9406 N   0  0  0  0  0  0
  -24.6712  -31.0721   22.1007 N   0  0  0  0  0  0
  -23.4159  -28.8190   23.3030 O   0  0  0  0  0  0
  -28.4139  -26.6683   20.1208 O   0  0  0  0  0  0
  -26.5623  -34.8909   22.4673 O   0  0  0  0  0  0
  -23.5359  -32.1432   23.7473 O   0  0  0  0  0  0
  -29.1920  -19.5587   22.8893 C   0  0  0  0  0  0
  -29.2206  -20.3622   21.7865 C   0  0  0  0  0  0
  -29.6178  -19.4986   20.7041 C   0  0  0  0  0  0
  -29.8780  -18.2299   21.2116 C   0  0  0  0  0  0
  -29.7876  -19.9394   19.2694 C   0  0  0  0  0  0
  -27.0951  -24.4845   21.7939 C   0  0  0  0  0  0
  -28.4913  -16.9001   24.2866 C   0  0  0  0  0  0
  -30.8977  -17.6733   24.6038 C   0  0  0  0  0  0
  -28.9230  -21.8727   21.9012 C   0  0  0  0  0  0
  -30.5081  -17.0130   20.5255 C   0  0  0  0  0  0
  -28.6700  -22.7780   20.6552 C   0  0  0  0  0  0
  -28.4629  -25.2563   19.7850 C   0  0  0  0  0  0
  -28.4105  -24.2915   21.0122 C   0  0  1  0  0  0
  -29.8198  -17.2465   23.5962 C   0  0  0  0  0  0
  -29.6265  -18.2840   22.5809 N   0  0  0  0  0  0
  -29.9872  -15.6477   20.7956 N   0  0  0  0  0  0
  -31.4590  -12.4040   19.1450 H   0  0  0  0  0  0
  -30.3002  -11.3317   19.8808 H   0  0  0  0  0  0
  -29.7381  -11.7410   17.4604 H   0  0  0  0  0  0
  -29.6577  -13.4610   17.7513 H   0  0  0  0  0  0
  -27.8281  -11.3001   18.8430 H   0  0  0  0  0  0
  -27.3645  -12.6080   17.7904 H   0  0  0  0  0  0
  -27.6752  -14.2557   19.5308 H   0  0  0  0  0  0
  -28.6829  -12.0563   21.4030 H   0  0  0  0  0  0
  -28.4678  -13.7325   21.8298 H   0  0  0  0  0  0
  -25.2772   -9.5684   22.4764 H   0  0  0  0  0  0
  -24.0008   -7.4639   22.7477 H   0  0  0  0  0  0
  -21.0850   -8.8778   19.8959 H   0  0  0  0  0  0
  -22.3704  -10.9679   19.6171 H   0  0  0  0  0  0
  -21.2015   -7.6155   23.9714 H   0  0  0  0  0  0
  -21.1477   -6.0528   25.9072 H   0  0  0  0  0  0
  -22.0603   -2.7616   23.2835 H   0  0  0  0  0  0
  -22.4136  -11.9880   22.4774 H   0  0  0  0  0  0
  -21.1126  -13.1245   22.2620 H   0  0  0  0  0  0
  -24.6604  -15.8440   20.5255 H   0  0  0  0  0  0
  -26.2755  -15.6321   20.0810 H   0  0  0  0  0  0
  -26.7107  -32.5480   23.1109 H   0  0  0  0  0  0
  -25.0035  -33.9755   25.0415 H   0  0  0  0  0  0
  -22.6944  -31.3077   21.4093 H   0  0  0  0  0  0
  -23.3754  -35.9658   23.3314 H   0  0  0  0  0  0
  -24.3587  -36.8930   22.2061 H   0  0  0  0  0  0
  -23.7275  -37.6515   23.6669 H   0  0  0  0  0  0
  -26.0646  -31.5854   20.6055 H   0  0  0  0  0  0
  -26.8193  -30.8586   21.9992 H   0  0  0  0  0  0
  -28.1024  -29.0649   21.1569 H   0  0  0  0  0  0
  -25.9763  -25.9567   19.0173 H   0  0  0  0  0  0
  -23.9658  -27.2939   19.0412 H   0  0  0  0  0  0
  -23.7276  -30.5990   19.4044 H   0  0  0  0  0  0
  -22.7375  -29.2451   19.8653 H   0  0  0  0  0  0
  -25.1311  -36.1949   25.0820 H   0  0  0  0  0  0
  -20.9910  -28.3231   24.1430 H   0  0  0  0  0  0
  -20.5659  -26.2252   23.3609 H   0  0  0  0  0  0
  -21.6633  -26.7428   22.1215 H   0  0  0  0  0  0
  -19.6922  -25.6279   21.1224 H   0  0  0  0  0  0
  -19.6702  -27.3181   20.6738 H   0  0  0  0  0  0
  -17.4191  -26.6616   21.4004 H   0  0  0  0  0  0
  -18.0316  -26.0042   22.8995 H   0  0  0  0  0  0
  -19.7952  -30.7208   24.2246 H   0  0  0  0  0  0
  -17.5048  -31.6258   24.5152 H   0  0  0  0  0  0
  -15.5354  -30.2985   23.7683 H   0  0  0  0  0  0
  -15.8633  -28.0833   22.7050 H   0  0  0  0  0  0
  -24.5904  -30.7089   25.7818 H   0  0  0  0  0  0
  -24.8998  -32.2878   26.4948 H   0  0  0  0  0  0
  -25.8124  -30.8854   27.0206 H   0  0  0  0  0  0
  -26.2890  -29.6747   24.1212 H   0  0  0  0  0  0
  -27.4138  -29.7301   25.4592 H   0  0  0  0  0  0
  -27.8716  -30.4322   23.9262 H   0  0  0  0  0  0
  -27.2588  -33.3619   26.2081 H   0  0  0  0  0  0
  -28.3819  -32.6964   25.0311 H   0  0  0  0  0  0
  -28.0715  -31.8479   26.5389 H   0  0  0  0  0  0
  -28.2593  -38.0111   24.7496 H   0  0  0  0  0  0
  -28.1071  -36.2626   24.6287 H   0  0  0  0  0  0
  -27.2280  -37.1465   25.8856 H   0  0  0  0  0  0
  -20.9288  -29.8769   21.6957 H   0  0  0  0  0  0
  -26.0179  -38.2855   24.1410 H   0  0  0  0  0  0
  -28.9486  -19.8089   23.9133 H   0  0  0  0  0  0
  -28.8642  -20.3885   18.9025 H   0  0  0  0  0  0
  -30.0385  -19.1147   18.6045 H   0  0  0  0  0  0
  -30.5825  -20.6814   19.1941 H   0  0  0  0  0  0
  -27.0643  -23.8968   22.7094 H   0  0  0  0  0  0
  -26.2273  -24.2133   21.1922 H   0  0  0  0  0  0
  -26.9701  -25.5231   22.1021 H   0  0  0  0  0  0
  -28.6188  -16.0817   24.9956 H   0  0  0  0  0  0
  -27.7382  -16.5944   23.5592 H   0  0  0  0  0  0
  -28.0906  -17.7503   24.8396 H   0  0  0  0  0  0
  -31.1045  -16.8762   25.3180 H   0  0  0  0  0  0
  -30.5972  -18.5537   25.1726 H   0  0  0  0  0  0
  -31.8328  -17.9088   24.0944 H   0  0  0  0  0  0
  -29.7509  -22.3023   22.4670 H   0  0  0  0  0  0
  -28.0605  -21.9464   22.5607 H   0  0  0  0  0  0
  -31.5725  -17.0377   20.7666 H   0  0  0  0  0  0
  -30.4675  -17.1455   19.4454 H   0  0  0  0  0  0
  -29.5430  -22.7231   20.0051 H   0  0  0  0  0  0
  -27.8308  -22.3892   20.0783 H   0  0  0  0  0  0
  -27.7462  -24.9586   19.0251 H   0  0  0  0  0  0
  -29.4274  -25.1098   19.2974 H   0  0  0  0  0  0
  -29.2266  -24.6015   21.6667 H   0  0  0  0  0  0
  -30.1916  -16.3415   23.1285 H   0  0  0  0  0  0
  -29.0171  -15.5502   21.0519 H   0  0  0  0  0  0
  1 25  1  0  0  0
  1 30  2  0  0  0
  1 86  1  0  0  0
  2  3  1  0  0  0
  2 25  1  0  0  0
  2 87  1  0  0  0
  2 88  1  0  0  0
  3  4  1  0  0  0
  3 89  1  0  0  0
  3 90  1  0  0  0
  4  5  1  0  0  0
  4 91  1  0  0  0
  4 92  1  0  0  0
  5  6  1  0  0  0
  5 26  1  0  0  0
  5 93  1  0  0  0
  6 25  1  0  0  0
  6 94  1  0  0  0
  6 95  1  0  0  0
  7  8  2  0  0  0
  7 26  1  0  0  0
  7 29  1  0  0  0
  8  9  1  0  0  0
  8 22  1  0  0  0
  9 10  1  0  0  0
  9 27  2  0  0  0
 10 11  2  0  0  0
 10 15  1  0  0  0
 11 12  1  0  0  0
 11 96  1  0  0  0
 12 13  2  0  0  0
 12 97  1  0  0  0
 13 14  1  0  0  0
 13 31  1  0  0  0
 14 15  2  0  0  0
 14 98  1  0  0  0
 15 99  1  0  0  0
 16 17  2  0  0  0
 16 21  1  0  0  0
 16 31  1  0  0  0
 17 18  1  0  0  0
 17100  1  0  0  0
 18 19  2  0  0  0
 18101  1  0  0  0
 19 20  1  0  0  0
 19 24  1  0  0  0
 20 21  2  0  0  0
 20102  1  0  0  0
 21 23  1  0  0  0
 22 28  1  0  0  0
 22 32  2  0  0  0
 26 27  1  0  0  0
 28103  1  0  0  0
 28104  1  0  0  0
 29105  1  0  0  0
 29106  1  0  0  0
 33 34  1  0  0  0
 33 66  1  0  0  0
 33 70  2  0  0  0
 34 36  1  0  0  0
 34 59  1  0  0  0
 34107  1  0  0  0
 35 44  2  0  0  0
 35 45  1  0  0  0
 35 68  1  0  0  0
 36 56  1  0  0  0
 36108  1  0  0  0
 37 39  1  0  0  0
 37 47  1  0  0  0
 37 66  1  0  0  0
 37109  1  0  0  0
 38 43  2  0  0  0
 38 46  1  0  0  0
 38 47  1  0  0  0
 39 64  1  0  0  0
 39 67  2  0  0  0
 40 52  1  0  0  0
 40 53  2  0  0  0
 40 58  1  0  0  0
 41110  1  0  0  0
 41111  1  0  0  0
 41112  1  0  0  0
 41 48  1  0  0  0
 42 43  1  0  0  0
 42 66  1  0  0  0
 42113  1  0  0  0
 42114  1  0  0  0
 43 44  1  0  0  0
 44115  1  0  0  0
 45 46  2  0  0  0
 45116  1  0  0  0
 46117  1  0  0  0
 47118  1  0  0  0
 47119  1  0  0  0
 48 56  1  0  0  0
 48 65  1  0  0  0
 48120  1  0  0  0
 49 50  1  0  0  0
 49 53  1  0  0  0
 49 64  1  0  0  0
 49121  1  0  0  0
 50 51  1  0  0  0
 50122  1  0  0  0
 50123  1  0  0  0
 51 52  1  0  0  0
 51124  1  0  0  0
 51125  1  0  0  0
 52126  1  0  0  0
 52127  1  0  0  0
 53 54  1  0  0  0
 54 55  2  0  0  0
 54128  1  0  0  0
 55 57  1  0  0  0
 55129  1  0  0  0
 56 69  2  0  0  0
 57 58  2  0  0  0
 57130  1  0  0  0
 58131  1  0  0  0
 59 60  1  0  0  0
 59 61  1  0  0  0
 59 62  1  0  0  0
 60132  1  0  0  0
 60133  1  0  0  0
 60134  1  0  0  0
 61135  1  0  0  0
 61136  1  0  0  0
 61137  1  0  0  0
 62138  1  0  0  0
 62139  1  0  0  0
 62140  1  0  0  0
 63 65  1  0  0  0
 63141  1  0  0  0
 63142  1  0  0  0
 63143  1  0  0  0
 64144  1  0  0  0
 65145  1  0  0  0
 68 82  1  0  0  0
 71 72  2  0  0  0
 71 85  1  0  0  0
 71146  1  0  0  0
 72 73  1  0  0  0
 72 79  1  0  0  0
 73 74  2  0  0  0
 73 75  1  0  0  0
 74 80  1  0  0  0
 74 85  1  0  0  0
 75147  1  0  0  0
 75148  1  0  0  0
 75149  1  0  0  0
 76150  1  0  0  0
 76151  1  0  0  0
 76152  1  0  0  0
 76 83  1  0  0  0
 77153  1  0  0  0
 77154  1  0  0  0
 77155  1  0  0  0
 77 84  1  0  0  0
 78 84  1  0  0  0
 78156  1  0  0  0
 78157  1  0  0  0
 78158  1  0  0  0
 79 81  1  0  0  0
 79159  1  0  0  0
 79160  1  0  0  0
 80 86  1  0  0  0
 80161  1  0  0  0
 80162  1  0  0  0
 81 83  1  0  0  0
 81163  1  0  0  0
 81164  1  0  0  0
 82 83  1  0  0  0
 82165  1  0  0  0
 82166  1  0  0  0
 83167  1  0  0  0
 84 85  1  0  0  0
 84168  1  0  0  0
 86169  1  0  0  0
M  ISO  4   1 100  68 101  82 101  86 100
M  END
> <chiral flag>
0

> <version>
0

> <s_m_source_file>
/data/baiqing/PycharmProjects/Reinvent-master-3.2/result/LINK_invent/BTK/process_docking_weight1_custom_sum_contain_oxygen_bond_distance_aromatic_linkinvent_7_9_3/rearranged_h_0112.sdf

> <i_m_source_file_index>
43

> <r_mmod_Potential_Energy-OPLS-2005>
-84.3577651977539

> <r_mmod_Stretch_Energy-OPLS-2005>
49.0845108032227

> <r_mmod_Bend_Energy-OPLS-2005>
142.03483581543

> <r_mmod_Torsional_Energy-OPLS-2005>
226.878921508789

> <r_mmod_Improper_Torsional_Energy-OPLS-2005>
6.43674230575562

> <r_mmod_Van_der_Waal_Energy-OPLS-2005>
127.372589111328

> <r_mmod_Electrostatic_Energy-OPLS-2005>
-464.550354003906

> <r_mmod_Solvation_Energy-OPLS-2005>
-194.717208862305

> <b_mmod_Minimization_Converged-OPLS-2005>
0

> <r_mmod_RMS_Derivative-OPLS-2005>
1.83628404140472

$$$$
43
                    3D
 Structure written by MMmdl.
171179  0  0  1  0            999 V2000
  -30.8381  -13.1253   20.2711 C   0  0  0  0  0  0
  -30.7533  -14.0931   18.3221 C   0  0  0  0  0  0
  -30.0233  -15.6962   19.2852 C   0  0  0  0  0  0
  -28.2090  -15.2625   20.5157 C   0  0  0  0  0  0
  -27.5038  -13.4408   20.6578 C   0  0  2  0  0  0
  -28.4057  -12.1040   19.8519 C   0  0  0  0  0  0
  -25.0491  -13.8789   20.6500 C   0  0  0  0  0  0
  -24.0211  -13.0405   20.8999 C   0  0  0  0  0  0
  -24.5421  -11.7140   20.8518 C   0  0  0  0  0  0
  -23.8707  -10.4229   21.0195 C   0  0  0  0  0  0
  -24.3576   -9.4212   21.8922 C   0  0  0  0  0  0
  -23.6374   -8.2175   22.0568 C   0  0  0  0  0  0
  -22.4336   -8.0118   21.3423 C   0  0  0  0  0  0
  -21.9845   -8.9970   20.4476 C   0  0  0  0  0  0
  -22.6995  -10.1918   20.2822 C   0  0  0  0  0  0
  -21.6891   -6.0710   22.5327 C   0  0  0  0  0  0
  -21.4036   -6.5591   23.8248 C   0  0  0  0  0  0
  -21.3647   -5.6741   24.9205 C   0  0  0  0  0  0
  -21.6015   -4.2993   24.7268 C   0  0  0  0  0  0
  -21.8890   -3.8121   23.4394 C   0  0  0  0  0  0
  -21.9237   -4.6940   22.3457 C   0  0  0  0  0  0
  -22.6377  -13.4871   21.1953 C   0  0  0  0  0  0
  -22.1724   -4.2145   21.1034 F   0  0  0  0  0  0
  -21.5595   -3.4459   25.7752 F   0  0  0  0  0  0
  -30.0609  -12.7676   19.2774 N   0  0  0  0  0  0
  -26.1389  -13.0853   20.5523 N   0  0  0  0  0  0
  -25.8381  -11.7588   20.6497 N   0  0  0  0  0  0
  -21.9390  -12.7610   22.0603 N   0  0  0  0  0  0
  -25.1299  -15.2522   20.5908 N   0  0  0  0  0  0
  -31.7919  -13.9077   20.5151 O   0  0  0  0  0  0
  -21.6619   -6.8852   21.4315 O   0  0  0  0  0  0
  -22.2015  -14.5310   20.7013 O   0  0  0  0  0  0
  -24.6884  -31.8002   23.1563 C   0  0  0  0  0  0
  -25.9444  -32.4462   23.8094 C   0  0  1  0  0  0
  -27.1113  -26.7307   19.9895 C   0  0  0  0  0  0
  -25.6035  -33.8296   24.1962 N   0  0  0  0  0  0
  -23.5009  -30.4219   21.5194 C   0  0  2  0  0  0
  -24.9200  -28.7830   20.0934 C   0  0  0  0  0  0
  -22.7747  -29.4365   22.4763 C   0  0  0  0  0  0
  -18.0360  -28.1403   22.8492 C   0  0  0  0  0  0
  -24.1509  -36.7133   23.2651 C   0  0  0  0  0  0
  -26.0871  -30.5212   21.4147 C   0  0  0  0  0  0
  -26.1318  -29.1043   20.7155 C   0  0  0  0  0  0
  -27.2274  -28.0930   20.6467 C   0  0  0  0  0  0
  -25.8644  -26.6203   19.3600 C   0  0  0  0  0  0
  -24.8196  -27.5668   19.4127 C   0  0  0  0  0  0
  -23.7342  -29.7468   20.1454 C   0  0  0  0  0  0
  -25.4155  -36.2869   24.0282 C   0  0  1  0  0  0
  -20.5974  -28.3763   23.1159 C   0  0  2  0  0  0
  -20.6810  -26.9430   22.5399 C   0  0  0  0  0  0
  -19.5763  -26.6365   21.5220 C   0  0  0  0  0  0
  -18.1961  -26.7935   22.1644 C   0  0  0  0  0  0
  -19.1624  -28.8904   23.2810 C   0  0  0  0  0  0
  -18.9518  -30.1489   23.8841 C   0  0  0  0  0  0
  -17.6499  -30.6584   24.0546 C   0  0  0  0  0  0
  -25.9147  -34.9274   23.4951 C   0  0  0  0  0  0
  -16.5389  -29.9068   23.6345 C   0  0  0  0  0  0
  -16.7335  -28.6490   23.0376 C   0  0  0  0  0  0
  -26.4615  -31.6505   25.0742 C   0  0  0  0  0  0
  -25.3677  -31.3832   26.1374 C   0  0  0  0  0  0
  -27.0566  -30.2844   24.6638 C   0  0  0  0  0  0
  -27.6053  -32.4427   25.7533 C   0  0  0  0  0  0
  -27.5578  -37.1706   24.8442 C   0  0  0  0  0  0
  -21.4389  -29.3052   22.3510 N   0  0  0  0  0  0
  -26.4259  -37.3652   23.9423 N   0  0  0  0  0  0
  -24.7856  -30.9433   22.0821 N   0  0  0  0  0  0
  -23.4234  -28.7919   23.3052 O   0  0  0  0  0  0
  -27.9923  -25.4730   19.8732 O   0  0  0  0  0  0
  -26.5758  -34.8858   22.4554 O   0  0  0  0  0  0
  -23.5933  -32.1115   23.6530 O   0  0  0  0  0  0
  -27.0806  -20.8317   19.8519 C   0  0  0  0  0  0
  -28.8311  -21.0316   18.4178 C   0  0  0  0  0  0
  -27.5022  -22.4469   20.3270 C   0  0  0  0  0  0
  -28.5114  -22.7703   18.3232 C   0  0  0  0  0  0
  -27.7323  -19.7823   18.6652 C   0  0  1  0  0  0
  -27.6752  -23.8076   19.3913 C   0  0  2  0  0  0
  -28.8172  -14.2493   15.6650 C   0  0  0  0  0  0
  -28.1546  -12.1311   16.6918 C   0  0  0  0  0  0
  -26.7936  -16.5809   16.9664 C   0  0  0  0  0  0
  -26.5679  -17.9400   19.6568 C   0  0  0  0  0  0
  -28.1393  -13.6579   16.9391 C   0  0  0  0  0  0
  -28.3497  -14.3747   18.4070 C   0  0  2  0  0  0
  -27.9197  -16.4262   18.0222 C   0  0  2  0  0  0
  -29.7547  -13.6825   20.1797 N   0  0  0  0  0  0
  -27.8479  -18.0038   18.9207 N   0  3  1  0  0  0
  -31.8387  -14.1032   18.2217 H   0  0  0  0  0  0
  -30.5135  -14.0147   17.2888 H   0  0  0  0  0  0
  -30.1374  -16.6234   18.7483 H   0  0  0  0  0  0
  -30.7424  -16.0021   20.0403 H   0  0  0  0  0  0
  -27.4208  -15.9476   20.4997 H   0  0  0  0  0  0
  -28.4982  -15.4955   21.5467 H   0  0  0  0  0  0
  -27.6930  -13.2460   21.7190 H   0  0  0  0  0  0
  -27.8592  -11.5272   19.1368 H   0  0  0  0  0  0
  -28.6575  -11.3871   20.6365 H   0  0  0  0  0  0
  -25.2734   -9.5800   22.4495 H   0  0  0  0  0  0
  -24.0110   -7.4670   22.7317 H   0  0  0  0  0  0
  -21.0753   -8.8490   19.8849 H   0  0  0  0  0  0
  -22.3344  -10.9467   19.5979 H   0  0  0  0  0  0
  -21.2042   -7.6092   23.9811 H   0  0  0  0  0  0
  -21.1323   -6.0389   25.9103 H   0  0  0  0  0  0
  -22.0669   -2.7569   23.2837 H   0  0  0  0  0  0
  -22.3244  -11.9123   22.4530 H   0  0  0  0  0  0
  -21.0006  -13.0445   22.3120 H   0  0  0  0  0  0
  -24.2947  -15.8115   20.7375 H   0  0  0  0  0  0
  -25.9633  -15.7486   20.8586 H   0  0  0  0  0  0
  -26.7512  -32.4879   23.0792 H   0  0  0  0  0  0
  -25.0124  -33.9339   25.0076 H   0  0  0  0  0  0
  -22.8289  -31.2650   21.3466 H   0  0  0  0  0  0
  -23.3809  -35.9426   23.3213 H   0  0  0  0  0  0
  -24.3601  -36.8895   22.2089 H   0  0  0  0  0  0
  -23.7221  -37.6265   23.6794 H   0  0  0  0  0  0
  -26.3133  -31.2704   20.6570 H   0  0  0  0  0  0
  -26.9327  -30.5524   22.0902 H   0  0  0  0  0  0
  -28.1552  -28.3270   21.1470 H   0  0  0  0  0  0
  -25.6480  -25.7201   18.8080 H   0  0  0  0  0  0
  -23.8969  -27.3174   18.9118 H   0  0  0  0  0  0
  -23.9186  -30.5180   19.3967 H   0  0  0  0  0  0
  -22.8289  -29.2320   19.8135 H   0  0  0  0  0  0
  -25.1357  -36.1629   25.0774 H   0  0  0  0  0  0
  -21.0088  -28.3375   24.1261 H   0  0  0  0  0  0
  -20.5678  -26.2385   23.3669 H   0  0  0  0  0  0
  -21.6673  -26.7369   22.1194 H   0  0  0  0  0  0
  -19.6906  -25.6257   21.1289 H   0  0  0  0  0  0
  -19.6677  -27.3148   20.6731 H   0  0  0  0  0  0
  -17.4225  -26.6719   21.4047 H   0  0  0  0  0  0
  -18.0334  -26.0070   22.9037 H   0  0  0  0  0  0
  -19.7980  -30.7338   24.2188 H   0  0  0  0  0  0
  -17.5034  -31.6257   24.5156 H   0  0  0  0  0  0
  -15.5382  -30.2933   23.7668 H   0  0  0  0  0  0
  -15.8752  -28.0751   22.7126 H   0  0  0  0  0  0
  -24.5826  -30.7233   25.7645 H   0  0  0  0  0  0
  -24.8951  -32.3093   26.4668 H   0  0  0  0  0  0
  -25.7895  -30.9042   27.0214 H   0  0  0  0  0  0
  -26.3276  -29.6432   24.1678 H   0  0  0  0  0  0
  -27.4020  -29.7336   25.5379 H   0  0  0  0  0  0
  -27.9247  -30.3972   24.0152 H   0  0  0  0  0  0
  -27.2501  -33.3732   26.1968 H   0  0  0  0  0  0
  -28.3894  -32.6996   25.0397 H   0  0  0  0  0  0
  -28.0678  -31.8682   26.5555 H   0  0  0  0  0  0
  -28.2468  -38.0113   24.7613 H   0  0  0  0  0  0
  -28.1199  -36.2652   24.6117 H   0  0  0  0  0  0
  -27.2322  -37.1142   25.8840 H   0  0  0  0  0  0
  -20.9681  -29.8786   21.6630 H   0  0  0  0  0  0
  -26.0075  -38.2681   24.1516 H   0  0  0  0  0  0
  -25.9936  -20.8402   19.7341 H   0  0  0  0  0  0
  -27.2399  -20.3011   20.7862 H   0  0  0  0  0  0
  -29.5715  -20.9191   19.2083 H   0  0  0  0  0  0
  -29.3714  -20.7562   17.5080 H   0  0  0  0  0  0
  -28.4742  -22.3456   20.8155 H   0  0  0  0  0  0
  -26.8413  -22.7147   21.1483 H   0  0  0  0  0  0
  -28.0919  -22.9683   17.3402 H   0  0  0  0  0  0
  -29.5037  -23.2109   18.2387 H   0  0  0  0  0  0
  -27.0655  -19.8438   17.8041 H   0  0  0  0  0  0
  -26.7006  -23.9100   18.9270 H   0  0  0  0  0  0
  -28.1576  -14.2030   14.7948 H   0  0  0  0  0  0
  -29.6746  -13.6445   15.3689 H   0  0  0  0  0  0
  -29.1598  -15.2736   15.7603 H   0  0  0  0  0  0
  -27.4068  -11.5520   17.2211 H   0  0  0  0  0  0
  -29.1386  -11.6980   16.8564 H   0  0  0  0  0  0
  -27.9274  -11.9471   15.6372 H   0  0  0  0  0  0
  -26.9985  -16.0210   16.0534 H   0  0  0  0  0  0
  -26.7282  -17.6189   16.6350 H   0  0  0  0  0  0
  -25.8027  -16.2985   17.3182 H   0  0  0  0  0  0
  -26.7170  -18.0401   20.7308 H   0  0  0  0  0  0
  -26.0709  -17.0234   19.4294 H   0  0  0  0  0  0
  -25.8201  -18.6544   19.3214 H   0  0  0  0  0  0
  -27.0890  -13.8983   16.7262 H   0  0  0  0  0  0
  -27.3024  -14.1483   18.6019 H   0  0  0  0  0  0
  -28.7329  -16.6765   17.3462 H   0  0  0  0  0  0
  -29.7103  -14.3981   20.8845 H   0  0  0  0  0  0
  -28.5910  -17.9131   19.5974 H   0  0  0  0  0  0
  1 25  1  0  0  0
  1 30  2  0  0  0
  1 84  1  0  0  0
  2  3  1  0  0  0
  2 25  1  0  0  0
  2 86  1  0  0  0
  2 87  1  0  0  0
  3  4  1  0  0  0
  3 88  1  0  0  0
  3 89  1  0  0  0
  4  5  1  0  0  0
  4 90  1  0  0  0
  4 91  1  0  0  0
  5  6  1  0  0  0
  5 26  1  0  0  0
  5 92  1  0  0  0
  6 25  1  0  0  0
  6 93  1  0  0  0
  6 94  1  0  0  0
  7  8  2  0  0  0
  7 26  1  0  0  0
  7 29  1  0  0  0
  8  9  1  0  0  0
  8 22  1  0  0  0
  9 10  1  0  0  0
  9 27  2  0  0  0
 10 11  2  0  0  0
 10 15  1  0  0  0
 11 12  1  0  0  0
 11 95  1  0  0  0
 12 13  2  0  0  0
 12 96  1  0  0  0
 13 14  1  0  0  0
 13 31  1  0  0  0
 14 15  2  0  0  0
 14 97  1  0  0  0
 15 98  1  0  0  0
 16 17  2  0  0  0
 16 21  1  0  0  0
 16 31  1  0  0  0
 17 18  1  0  0  0
 17 99  1  0  0  0
 18 19  2  0  0  0
 18100  1  0  0  0
 19 20  1  0  0  0
 19 24  1  0  0  0
 20 21  2  0  0  0
 20101  1  0  0  0
 21 23  1  0  0  0
 22 28  1  0  0  0
 22 32  2  0  0  0
 26 27  1  0  0  0
 28102  1  0  0  0
 28103  1  0  0  0
 29104  1  0  0  0
 29105  1  0  0  0
 33 34  1  0  0  0
 33 66  1  0  0  0
 33 70  2  0  0  0
 34 36  1  0  0  0
 34 59  1  0  0  0
 34106  1  0  0  0
 35 44  2  0  0  0
 35 45  1  0  0  0
 35 68  1  0  0  0
 36 56  1  0  0  0
 36107  1  0  0  0
 37 39  1  0  0  0
 37 47  1  0  0  0
 37 66  1  0  0  0
 37108  1  0  0  0
 38 43  2  0  0  0
 38 46  1  0  0  0
 38 47  1  0  0  0
 39 64  1  0  0  0
 39 67  2  0  0  0
 40 52  1  0  0  0
 40 53  2  0  0  0
 40 58  1  0  0  0
 41109  1  0  0  0
 41110  1  0  0  0
 41111  1  0  0  0
 41 48  1  0  0  0
 42 43  1  0  0  0
 42 66  1  0  0  0
 42112  1  0  0  0
 42113  1  0  0  0
 43 44  1  0  0  0
 44114  1  0  0  0
 45 46  2  0  0  0
 45115  1  0  0  0
 46116  1  0  0  0
 47117  1  0  0  0
 47118  1  0  0  0
 48 56  1  0  0  0
 48 65  1  0  0  0
 48119  1  0  0  0
 49 50  1  0  0  0
 49 53  1  0  0  0
 49 64  1  0  0  0
 49120  1  0  0  0
 50 51  1  0  0  0
 50121  1  0  0  0
 50122  1  0  0  0
 51 52  1  0  0  0
 51123  1  0  0  0
 51124  1  0  0  0
 52125  1  0  0  0
 52126  1  0  0  0
 53 54  1  0  0  0
 54 55  2  0  0  0
 54127  1  0  0  0
 55 57  1  0  0  0
 55128  1  0  0  0
 56 69  2  0  0  0
 57 58  2  0  0  0
 57129  1  0  0  0
 58130  1  0  0  0
 59 60  1  0  0  0
 59 61  1  0  0  0
 59 62  1  0  0  0
 60131  1  0  0  0
 60132  1  0  0  0
 60133  1  0  0  0
 61134  1  0  0  0
 61135  1  0  0  0
 61136  1  0  0  0
 62137  1  0  0  0
 62138  1  0  0  0
 62139  1  0  0  0
 63 65  1  0  0  0
 63140  1  0  0  0
 63141  1  0  0  0
 63142  1  0  0  0
 64143  1  0  0  0
 65144  1  0  0  0
 68 76  1  0  0  0
 71 73  1  0  0  0
 71145  1  0  0  0
 71146  1  0  0  0
 71 75  1  0  0  0
 72 74  1  0  0  0
 72 75  1  0  0  0
 72147  1  0  0  0
 72148  1  0  0  0
 73 76  1  0  0  0
 73149  1  0  0  0
 73150  1  0  0  0
 74 76  1  0  0  0
 74151  1  0  0  0
 74152  1  0  0  0
 75 85  1  0  0  0
 75153  1  0  0  0
 76154  1  0  0  0
 77155  1  0  0  0
 77156  1  0  0  0
 77157  1  0  0  0
 77 81  1  0  0  0
 78 81  1  0  0  0
 78158  1  0  0  0
 78159  1  0  0  0
 78160  1  0  0  0
 79161  1  0  0  0
 79162  1  0  0  0
 79163  1  0  0  0
 79 83  1  0  0  0
 80164  1  0  0  0
 80165  1  0  0  0
 80166  1  0  0  0
 80 85  1  0  0  0
 81 82  1  0  0  0
 81167  1  0  0  0
 82 83  1  0  0  0
 82 84  1  0  0  0
 82168  1  0  0  0
 83 85  1  0  0  0
 83169  1  0  0  0
 84170  1  0  0  0
 85171  1  0  0  0
M  CHG  1  85   1
M  ISO  4   1 100  68 101  76 101  84 100
M  END
> <chiral flag>
0

> <version>
0

> <s_m_source_file>
/data/baiqing/PycharmProjects/Reinvent-master-3.2/result/LINK_invent/BTK/process_docking_weight1_custom_sum_contain_oxygen_bond_distance_aromatic_linkinvent_7_9_3/rearranged_h_0112.sdf

> <i_m_source_file_index>
44

> <r_mmod_Potential_Energy-OPLS-2005>
11086.5517578125

> <r_mmod_Stretch_Energy-OPLS-2005>
4048.33227539062

> <r_mmod_Bend_Energy-OPLS-2005>
1477.98852539062

> <r_mmod_Torsional_Energy-OPLS-2005>
454.003631591797

> <r_mmod_Improper_Torsional_Energy-OPLS-2005>
54.0854377746582

> <r_mmod_Van_der_Waal_Energy-OPLS-2005>
1893.89318847656

> <r_mmod_Electrostatic_Energy-OPLS-2005>
-309.270782470703

> <r_mmod_Solvation_Energy-OPLS-2005>
-429.489135742188

> <b_mmod_Minimization_Converged-OPLS-2005>
0

> <r_mmod_RMS_Derivative-OPLS-2005>
17.3578834533691

$$$$
44
                    3D
 Structure written by MMmdl.
163171  0  0  1  0            999 V2000
  -30.5743  -14.7455   20.4428 C   0  0  0  0  0  0
  -30.4308  -12.4428   19.4849 C   0  0  0  0  0  0
  -29.5127  -12.5165   18.2417 C   0  0  0  0  0  0
  -28.0372  -12.3289   18.6522 C   0  0  0  0  0  0
  -27.6423  -13.2280   19.8545 C   0  0  2  0  0  0
  -28.6831  -13.1460   20.9942 C   0  0  0  0  0  0
  -25.2483  -13.8188   20.5696 C   0  0  0  0  0  0
  -24.1774  -13.0440   20.9194 C   0  0  0  0  0  0
  -24.6380  -11.6923   20.8738 C   0  0  0  0  0  0
  -23.9051  -10.4295   21.0409 C   0  0  0  0  0  0
  -24.3601   -9.4220   21.9189 C   0  0  0  0  0  0
  -23.6287   -8.2250   22.0756 C   0  0  0  0  0  0
  -22.4257   -8.0269   21.3563 C   0  0  0  0  0  0
  -21.9892   -9.0246   20.4666 C   0  0  0  0  0  0
  -22.7219  -10.2126   20.3071 C   0  0  0  0  0  0
  -21.6846   -6.0711   22.5292 C   0  0  0  0  0  0
  -21.4021   -6.5637   23.8224 C   0  0  0  0  0  0
  -21.3677   -5.6787   24.9190 C   0  0  0  0  0  0
  -21.6051   -4.3050   24.7231 C   0  0  0  0  0  0
  -21.8811   -3.8131   23.4354 C   0  0  0  0  0  0
  -21.9192   -4.6947   22.3401 C   0  0  0  0  0  0
  -22.7790  -13.5232   21.1854 C   0  0  0  0  0  0
  -22.1660   -4.2135   21.0977 F   0  0  0  0  0  0
  -21.5633   -3.4535   25.7744 F   0  0  0  0  0  0
  -29.9909  -13.4976   20.4246 N   0  0  0  0  0  0
  -26.2909  -12.9387   20.3274 N   0  0  0  0  0  0
  -25.9297  -11.6529   20.5715 N   0  0  0  0  0  0
  -22.0442  -12.8236   22.0433 N   0  0  0  0  0  0
  -25.4163  -15.1905   20.4104 N   0  0  0  0  0  0
  -31.7413  -14.8933   20.0674 O   0  0  0  0  0  0
  -21.6642   -6.8843   21.4239 O   0  0  0  0  0  0
  -22.3474  -14.5547   20.6728 O   0  0  0  0  0  0
  -24.6305  -31.8545   23.1983 C   0  0  0  0  0  0
  -25.9168  -32.4746   23.8300 C   0  0  1  0  0  0
  -27.2247  -27.2658   20.1407 C   0  0  0  0  0  0
  -25.6000  -33.8543   24.2243 N   0  0  0  0  0  0
  -23.4239  -30.4845   21.5342 C   0  0  2  0  0  0
  -24.8726  -28.9238   20.1057 C   0  0  0  0  0  0
  -22.7478  -29.4632   22.4814 C   0  0  0  0  0  0
  -18.0302  -28.1403   22.8450 C   0  0  0  0  0  0
  -24.1506  -36.7266   23.2628 C   0  0  0  0  0  0
  -25.9667  -30.7737   21.3713 C   0  0  0  0  0  0
  -26.0387  -29.3944   20.7183 C   0  0  0  0  0  0
  -27.2117  -28.5753   20.7269 C   0  0  0  0  0  0
  -26.0313  -26.8558   19.5022 C   0  0  0  0  0  0
  -24.8726  -27.6628   19.4881 C   0  0  0  0  0  0
  -23.6479  -29.8201   20.1476 C   0  0  0  0  0  0
  -25.4127  -36.3036   24.0316 C   0  0  1  0  0  0
  -20.5901  -28.3724   23.1218 C   0  0  2  0  0  0
  -20.6797  -26.9435   22.5382 C   0  0  0  0  0  0
  -19.5783  -26.6391   21.5177 C   0  0  0  0  0  0
  -18.1959  -26.7943   22.1584 C   0  0  0  0  0  0
  -19.1556  -28.8867   23.2847 C   0  0  0  0  0  0
  -18.9491  -30.1469   23.8880 C   0  0  0  0  0  0
  -17.6490  -30.6597   24.0573 C   0  0  0  0  0  0
  -25.9063  -34.9419   23.5045 C   0  0  0  0  0  0
  -16.5378  -29.9100   23.6336 C   0  0  0  0  0  0
  -16.7289  -28.6525   23.0328 C   0  0  0  0  0  0
  -26.4580  -31.6544   25.0656 C   0  0  0  0  0  0
  -25.3855  -31.3657   26.1411 C   0  0  0  0  0  0
  -27.0420  -30.2972   24.6080 C   0  0  0  0  0  0
  -27.6132  -32.4254   25.7446 C   0  0  0  0  0  0
  -27.5577  -37.1788   24.8469 C   0  0  0  0  0  0
  -21.4176  -29.3079   22.3586 N   0  0  0  0  0  0
  -26.4286  -37.3748   23.9413 N   0  0  0  0  0  0
  -24.6922  -31.0543   22.0930 N   0  0  0  0  0  0
  -23.4183  -28.8153   23.2895 O   0  0  0  0  0  0
  -28.3629  -26.4297   20.2248 O   0  0  0  0  0  0
  -26.5598  -34.8904   22.4589 O   0  0  0  0  0  0
  -23.5469  -32.1330   23.7335 O   0  0  0  0  0  0
  -28.8201  -21.6744   19.3405 C   0  0  0  0  0  0
  -29.1347  -20.3323   19.4014 C   0  0  0  0  0  0
  -28.9497  -22.2845   20.6278 C   0  0  0  0  0  0
  -29.4167  -21.2130   21.4198 C   0  0  0  0  0  0
  -29.8166  -21.3116   22.8702 C   0  0  0  0  0  0
  -29.4591  -24.3830   22.1398 C   0  0  0  0  0  0
  -29.1094  -18.1115   22.4258 C   0  0  0  0  0  0
  -31.4249  -18.5470   21.4443 C   0  0  0  0  0  0
  -29.7328  -17.2764   20.1375 C   0  0  0  0  0  0
  -28.4190  -24.9646   19.8662 C   0  0  0  0  0  0
  -28.5851  -23.8193   21.0051 C   0  0  1  0  0  0
  -29.9075  -18.5292   21.1599 C   0  0  0  0  0  0
  -29.4820  -19.9620   20.6982 N   0  0  0  0  0  0
  -29.7388  -15.8265   20.6565 N   0  0  0  0  0  0
  -31.4801  -12.5523   19.2044 H   0  0  0  0  0  0
  -30.3453  -11.4643   19.9577 H   0  0  0  0  0  0
  -29.8015  -11.7662   17.5054 H   0  0  0  0  0  0
  -29.6334  -13.4801   17.7444 H   0  0  0  0  0  0
  -27.9014  -11.2790   18.9153 H   0  0  0  0  0  0
  -27.3800  -12.5198   17.8026 H   0  0  0  0  0  0
  -27.6405  -14.2510   19.4765 H   0  0  0  0  0  0
  -28.7084  -12.1425   21.4214 H   0  0  0  0  0  0
  -28.4163  -13.8157   21.8136 H   0  0  0  0  0  0
  -25.2747   -9.5701   22.4750 H   0  0  0  0  0  0
  -24.0019   -7.4630   22.7464 H   0  0  0  0  0  0
  -21.0824   -8.8763   19.8958 H   0  0  0  0  0  0
  -22.3690  -10.9657   19.6167 H   0  0  0  0  0  0
  -21.2020   -7.6152   23.9726 H   0  0  0  0  0  0
  -21.1514   -6.0524   25.9101 H   0  0  0  0  0  0
  -22.0568   -2.7593   23.2861 H   0  0  0  0  0  0
  -22.4058  -11.9935   22.4879 H   0  0  0  0  0  0
  -21.1068  -13.1272   22.2629 H   0  0  0  0  0  0
  -24.6354  -15.8316   20.4927 H   0  0  0  0  0  0
  -26.2607  -15.6408   20.0822 H   0  0  0  0  0  0
  -26.7208  -32.5413   23.1015 H   0  0  0  0  0  0
  -25.0293  -33.9666   25.0495 H   0  0  0  0  0  0
  -22.7205  -31.3074   21.3887 H   0  0  0  0  0  0
  -23.3752  -35.9613   23.3288 H   0  0  0  0  0  0
  -24.3582  -36.8898   22.2036 H   0  0  0  0  0  0
  -23.7288  -37.6480   23.6654 H   0  0  0  0  0  0
  -26.0949  -31.5318   20.5970 H   0  0  0  0  0  0
  -26.8479  -30.8283   21.9987 H   0  0  0  0  0  0
  -28.1045  -28.9272   21.2242 H   0  0  0  0  0  0
  -25.9496  -25.8983   19.0179 H   0  0  0  0  0  0
  -23.9768  -27.2971   19.0042 H   0  0  0  0  0  0
  -23.7931  -30.6001   19.3981 H   0  0  0  0  0  0
  -22.7620  -29.2713   19.8248 H   0  0  0  0  0  0
  -25.1316  -36.1842   25.0810 H   0  0  0  0  0  0
  -21.0039  -28.3347   24.1316 H   0  0  0  0  0  0
  -20.5653  -26.2350   23.3600 H   0  0  0  0  0  0
  -21.6679  -26.7436   22.1218 H   0  0  0  0  0  0
  -19.6951  -25.6287   21.1238 H   0  0  0  0  0  0
  -19.6751  -27.3173   20.6683 H   0  0  0  0  0  0
  -17.4232  -26.6673   21.3992 H   0  0  0  0  0  0
  -18.0397  -26.0093   22.8986 H   0  0  0  0  0  0
  -19.7978  -30.7296   24.2239 H   0  0  0  0  0  0
  -17.5052  -31.6274   24.5193 H   0  0  0  0  0  0
  -15.5382  -30.3005   23.7675 H   0  0  0  0  0  0
  -15.8689  -28.0866   22.7010 H   0  0  0  0  0  0
  -24.6074  -30.6945   25.7763 H   0  0  0  0  0  0
  -24.9036  -32.2821   26.4818 H   0  0  0  0  0  0
  -25.8274  -30.8881   27.0170 H   0  0  0  0  0  0
  -26.2955  -29.6663   24.1241 H   0  0  0  0  0  0
  -27.4292  -29.7276   25.4535 H   0  0  0  0  0  0
  -27.8758  -30.4253   23.9171 H   0  0  0  0  0  0
  -27.2772  -33.3570   26.1999 H   0  0  0  0  0  0
  -28.4012  -32.6759   25.0331 H   0  0  0  0  0  0
  -28.0726  -31.8373   26.5402 H   0  0  0  0  0  0
  -28.2588  -38.0083   24.7497 H   0  0  0  0  0  0
  -28.1080  -36.2613   24.6324 H   0  0  0  0  0  0
  -27.2293  -37.1486   25.8871 H   0  0  0  0  0  0
  -20.9322  -29.8848   21.6862 H   0  0  0  0  0  0
  -26.0144  -38.2804   24.1451 H   0  0  0  0  0  0
  -28.5062  -22.1826   18.4372 H   0  0  0  0  0  0
  -29.1351  -19.6000   18.6038 H   0  0  0  0  0  0
  -28.9403  -21.4614   23.5018 H   0  0  0  0  0  0
  -30.5064  -22.1368   23.0325 H   0  0  0  0  0  0
  -30.3591  -20.4556   23.2518 H   0  0  0  0  0  0
  -30.5229  -24.2882   21.9210 H   0  0  0  0  0  0
  -29.2482  -23.8919   23.0896 H   0  0  0  0  0  0
  -29.2492  -25.4377   22.3188 H   0  0  0  0  0  0
  -29.0666  -18.8508   23.2154 H   0  0  0  0  0  0
  -29.5454  -17.2247   22.8854 H   0  0  0  0  0  0
  -28.0713  -17.8777   22.1865 H   0  0  0  0  0  0
  -31.7380  -19.3153   22.1471 H   0  0  0  0  0  0
  -31.9848  -18.7185   20.5223 H   0  0  0  0  0  0
  -31.7607  -17.5941   21.8469 H   0  0  0  0  0  0
  -28.7560  -17.3943   19.6660 H   0  0  0  0  0  0
  -30.4374  -17.3611   19.3089 H   0  0  0  0  0  0
  -27.6082  -24.6776   19.2021 H   0  0  0  0  0  0
  -29.3085  -24.8847   19.2406 H   0  0  0  0  0  0
  -27.5906  -23.7347   21.4445 H   0  0  0  0  0  0
  -28.8382  -15.5396   21.0076 H   0  0  0  0  0  0
  1 25  1  0  0  0
  1 30  2  0  0  0
  1 84  1  0  0  0
  2  3  1  0  0  0
  2 25  1  0  0  0
  2 85  1  0  0  0
  2 86  1  0  0  0
  3  4  1  0  0  0
  3 87  1  0  0  0
  3 88  1  0  0  0
  4  5  1  0  0  0
  4 89  1  0  0  0
  4 90  1  0  0  0
  5  6  1  0  0  0
  5 26  1  0  0  0
  5 91  1  0  0  0
  6 25  1  0  0  0
  6 92  1  0  0  0
  6 93  1  0  0  0
  7  8  2  0  0  0
  7 26  1  0  0  0
  7 29  1  0  0  0
  8  9  1  0  0  0
  8 22  1  0  0  0
  9 10  1  0  0  0
  9 27  2  0  0  0
 10 11  2  0  0  0
 10 15  1  0  0  0
 11 12  1  0  0  0
 11 94  1  0  0  0
 12 13  2  0  0  0
 12 95  1  0  0  0
 13 14  1  0  0  0
 13 31  1  0  0  0
 14 15  2  0  0  0
 14 96  1  0  0  0
 15 97  1  0  0  0
 16 17  2  0  0  0
 16 21  1  0  0  0
 16 31  1  0  0  0
 17 18  1  0  0  0
 17 98  1  0  0  0
 18 19  2  0  0  0
 18 99  1  0  0  0
 19 20  1  0  0  0
 19 24  1  0  0  0
 20 21  2  0  0  0
 20100  1  0  0  0
 21 23  1  0  0  0
 22 28  1  0  0  0
 22 32  2  0  0  0
 26 27  1  0  0  0
 28101  1  0  0  0
 28102  1  0  0  0
 29103  1  0  0  0
 29104  1  0  0  0
 33 34  1  0  0  0
 33 66  1  0  0  0
 33 70  2  0  0  0
 34 36  1  0  0  0
 34 59  1  0  0  0
 34105  1  0  0  0
 35 44  2  0  0  0
 35 45  1  0  0  0
 35 68  1  0  0  0
 36 56  1  0  0  0
 36106  1  0  0  0
 37 39  1  0  0  0
 37 47  1  0  0  0
 37 66  1  0  0  0
 37107  1  0  0  0
 38 43  2  0  0  0
 38 46  1  0  0  0
 38 47  1  0  0  0
 39 64  1  0  0  0
 39 67  2  0  0  0
 40 52  1  0  0  0
 40 53  2  0  0  0
 40 58  1  0  0  0
 41108  1  0  0  0
 41109  1  0  0  0
 41110  1  0  0  0
 41 48  1  0  0  0
 42 43  1  0  0  0
 42 66  1  0  0  0
 42111  1  0  0  0
 42112  1  0  0  0
 43 44  1  0  0  0
 44113  1  0  0  0
 45 46  2  0  0  0
 45114  1  0  0  0
 46115  1  0  0  0
 47116  1  0  0  0
 47117  1  0  0  0
 48 56  1  0  0  0
 48 65  1  0  0  0
 48118  1  0  0  0
 49 50  1  0  0  0
 49 53  1  0  0  0
 49 64  1  0  0  0
 49119  1  0  0  0
 50 51  1  0  0  0
 50120  1  0  0  0
 50121  1  0  0  0
 51 52  1  0  0  0
 51122  1  0  0  0
 51123  1  0  0  0
 52124  1  0  0  0
 52125  1  0  0  0
 53 54  1  0  0  0
 54 55  2  0  0  0
 54126  1  0  0  0
 55 57  1  0  0  0
 55127  1  0  0  0
 56 69  2  0  0  0
 57 58  2  0  0  0
 57128  1  0  0  0
 58129  1  0  0  0
 59 60  1  0  0  0
 59 61  1  0  0  0
 59 62  1  0  0  0
 60130  1  0  0  0
 60131  1  0  0  0
 60132  1  0  0  0
 61133  1  0  0  0
 61134  1  0  0  0
 61135  1  0  0  0
 62136  1  0  0  0
 62137  1  0  0  0
 62138  1  0  0  0
 63 65  1  0  0  0
 63139  1  0  0  0
 63140  1  0  0  0
 63141  1  0  0  0
 64142  1  0  0  0
 65143  1  0  0  0
 68 80  1  0  0  0
 71 72  2  0  0  0
 71 73  1  0  0  0
 71144  1  0  0  0
 72 83  1  0  0  0
 72145  1  0  0  0
 73 74  2  0  0  0
 73 81  1  0  0  0
 74 75  1  0  0  0
 74 83  1  0  0  0
 75146  1  0  0  0
 75147  1  0  0  0
 75148  1  0  0  0
 76149  1  0  0  0
 76150  1  0  0  0
 76151  1  0  0  0
 76 81  1  0  0  0
 77152  1  0  0  0
 77153  1  0  0  0
 77154  1  0  0  0
 77 82  1  0  0  0
 78 82  1  0  0  0
 78155  1  0  0  0
 78156  1  0  0  0
 78157  1  0  0  0
 79 82  1  0  0  0
 79 84  1  0  0  0
 79158  1  0  0  0
 79159  1  0  0  0
 80 81  1  0  0  0
 80160  1  0  0  0
 80161  1  0  0  0
 81162  1  0  0  0
 82 83  1  0  0  0
 84163  1  0  0  0
M  ISO  4   1 100  68 101  80 101  84 100
M  END
> <chiral flag>
0

> <version>
0

> <s_m_source_file>
/data/baiqing/PycharmProjects/Reinvent-master-3.2/result/LINK_invent/BTK/process_docking_weight1_custom_sum_contain_oxygen_bond_distance_aromatic_linkinvent_7_9_3/rearranged_h_0112.sdf

> <i_m_source_file_index>
45

> <r_mmod_Potential_Energy-OPLS-2005>
165.439804077148

> <r_mmod_Stretch_Energy-OPLS-2005>
144.731262207031

> <r_mmod_Bend_Energy-OPLS-2005>
201.482040405273

> <r_mmod_Torsional_Energy-OPLS-2005>
261.366943359375

> <r_mmod_Improper_Torsional_Energy-OPLS-2005>
6.91600036621094

> <r_mmod_Van_der_Waal_Energy-OPLS-2005>
125.494216918945

> <r_mmod_Electrostatic_Energy-OPLS-2005>
-450.942901611328

> <r_mmod_Solvation_Energy-OPLS-2005>
-206.171401977539

> <b_mmod_Minimization_Converged-OPLS-2005>
0

> <r_mmod_RMS_Derivative-OPLS-2005>
4.1038384437561

$$$$
45
                    3D
 Structure written by MMmdl.
158165  0  0  1  0            999 V2000
  -30.5307  -14.9291   20.4883 C   0  0  0  0  0  0
  -30.4387  -12.5926   19.5206 C   0  0  0  0  0  0
  -29.5316  -12.5778   18.2699 C   0  0  0  0  0  0
  -28.0633  -12.3448   18.6692 C   0  0  0  0  0  0
  -27.6297  -13.2510   19.8514 C   0  0  2  0  0  0
  -28.6595  -13.2510   21.0017 C   0  0  0  0  0  0
  -25.2426  -13.8220   20.5728 C   0  0  0  0  0  0
  -24.1738  -13.0414   20.9229 C   0  0  0  0  0  0
  -24.6368  -11.6923   20.8684 C   0  0  0  0  0  0
  -23.9037  -10.4300   21.0325 C   0  0  0  0  0  0
  -24.3594   -9.4234   21.9138 C   0  0  0  0  0  0
  -23.6292   -8.2253   22.0736 C   0  0  0  0  0  0
  -22.4266   -8.0254   21.3544 C   0  0  0  0  0  0
  -21.9886   -9.0198   20.4620 C   0  0  0  0  0  0
  -22.7177  -10.2106   20.3010 C   0  0  0  0  0  0
  -21.6879   -6.0694   22.5266 C   0  0  0  0  0  0
  -21.4016   -6.5600   23.8194 C   0  0  0  0  0  0
  -21.3695   -5.6771   24.9169 C   0  0  0  0  0  0
  -21.6065   -4.3032   24.7214 C   0  0  0  0  0  0
  -21.8802   -3.8118   23.4328 C   0  0  0  0  0  0
  -21.9212   -4.6933   22.3391 C   0  0  0  0  0  0
  -22.7760  -13.5186   21.1872 C   0  0  0  0  0  0
  -22.1655   -4.2124   21.0956 F   0  0  0  0  0  0
  -21.5673   -3.4503   25.7728 F   0  0  0  0  0  0
  -29.9474  -13.6660   20.4356 N   0  0  0  0  0  0
  -26.2849  -12.9458   20.3225 N   0  0  0  0  0  0
  -25.9313  -11.6576   20.5665 N   0  0  0  0  0  0
  -22.0399  -12.8228   22.0443 N   0  0  0  0  0  0
  -25.4089  -15.1934   20.4150 N   0  0  0  0  0  0
  -31.7087  -15.0227   20.1360 O   0  0  0  0  0  0
  -21.6675   -6.8806   21.4213 O   0  0  0  0  0  0
  -22.3456  -14.5500   20.6720 O   0  0  0  0  0  0
  -24.6414  -31.8447   23.1868 C   0  0  0  0  0  0
  -25.9185  -32.4701   23.8260 C   0  0  1  0  0  0
  -27.1973  -27.1307   20.1737 C   0  0  0  0  0  0
  -25.5915  -33.8503   24.2160 N   0  0  0  0  0  0
  -23.4466  -30.4638   21.5338 C   0  0  2  0  0  0
  -24.8940  -28.8974   20.1068 C   0  0  0  0  0  0
  -22.7577  -29.4536   22.4887 C   0  0  0  0  0  0
  -18.0312  -28.1387   22.8489 C   0  0  0  0  0  0
  -24.1512  -36.7272   23.2637 C   0  0  0  0  0  0
  -26.0007  -30.7249   21.3798 C   0  0  0  0  0  0
  -26.0732  -29.3338   20.7270 C   0  0  0  0  0  0
  -27.2297  -28.4678   20.7401 C   0  0  0  0  0  0
  -26.0029  -26.8090   19.4944 C   0  0  0  0  0  0
  -24.8754  -27.6514   19.4665 C   0  0  0  0  0  0
  -23.6696  -29.7950   20.1521 C   0  0  0  0  0  0
  -25.4137  -36.3033   24.0297 C   0  0  1  0  0  0
  -20.5920  -28.3693   23.1255 C   0  0  2  0  0  0
  -20.6784  -26.9399   22.5415 C   0  0  0  0  0  0
  -19.5748  -26.6370   21.5231 C   0  0  0  0  0  0
  -18.1935  -26.7926   22.1641 C   0  0  0  0  0  0
  -19.1570  -28.8867   23.2869 C   0  0  0  0  0  0
  -18.9463  -30.1474   23.8881 C   0  0  0  0  0  0
  -17.6457  -30.6589   24.0557 C   0  0  0  0  0  0
  -25.9079  -34.9404   23.5046 C   0  0  0  0  0  0
  -16.5355  -29.9076   23.6329 C   0  0  0  0  0  0
  -16.7300  -28.6497   23.0353 C   0  0  0  0  0  0
  -26.4490  -31.6555   25.0701 C   0  0  0  0  0  0
  -25.3655  -31.3706   26.1373 C   0  0  0  0  0  0
  -27.0260  -30.2930   24.6225 C   0  0  0  0  0  0
  -27.6041  -32.4281   25.7492 C   0  0  0  0  0  0
  -27.5597  -37.1774   24.8440 C   0  0  0  0  0  0
  -21.4265  -29.2996   22.3622 N   0  0  0  0  0  0
  -26.4301  -37.3746   23.9406 N   0  0  0  0  0  0
  -24.7166  -31.0309   22.0890 N   0  0  0  0  0  0
  -23.4239  -28.8084   23.3021 O   0  0  0  0  0  0
  -28.2247  -26.1207   20.2605 O   0  0  0  0  0  0
  -26.5712  -34.8896   22.4654 O   0  0  0  0  0  0
  -23.5543  -32.1317   23.7085 O   0  0  0  0  0  0
  -27.3182  -24.5839   21.9685 C   0  0  0  0  0  0
  -29.5759  -19.0254   22.5153 C   0  0  0  0  0  0
  -27.6220  -18.5414   21.0490 C   0  0  0  0  0  0
  -28.8712  -23.2632   20.3323 C   0  0  0  0  0  0
  -29.9668  -17.6145   20.3992 C   0  0  0  0  0  0
  -28.4830  -21.6795   20.8063 C   0  0  0  0  0  0
  -27.8767  -24.6171   20.5328 C   0  0  2  0  0  0
  -29.1188  -18.9269   21.0418 C   0  0  0  0  0  0
  -29.7431  -16.0877   20.7375 N   0  0  0  0  0  0
  -29.3010  -20.3765   20.3906 N   0  3  0  0  0  0
  -31.4753  -12.7511   19.2225 H   0  0  0  0  0  0
  -30.4227  -11.6230   20.0215 H   0  0  0  0  0  0
  -29.8597  -11.8116   17.5661 H   0  0  0  0  0  0
  -29.6279  -13.5347   17.7530 H   0  0  0  0  0  0
  -27.9570  -11.2960   18.9497 H   0  0  0  0  0  0
  -27.4131  -12.4984   17.8076 H   0  0  0  0  0  0
  -27.6033  -14.2656   19.4549 H   0  0  0  0  0  0
  -28.7364  -12.2663   21.4643 H   0  0  0  0  0  0
  -28.3483  -13.9417   21.7890 H   0  0  0  0  0  0
  -25.2695   -9.5810   22.4744 H   0  0  0  0  0  0
  -24.0027   -7.4686   22.7476 H   0  0  0  0  0  0
  -21.0826   -8.8637   19.8928 H   0  0  0  0  0  0
  -22.3533  -10.9623   19.6130 H   0  0  0  0  0  0
  -21.1980   -7.6110   23.9684 H   0  0  0  0  0  0
  -21.1559   -6.0499   25.9074 H   0  0  0  0  0  0
  -22.0576   -2.7579   23.2836 H   0  0  0  0  0  0
  -22.3960  -11.9901   22.4919 H   0  0  0  0  0  0
  -21.0990  -13.1267   22.2527 H   0  0  0  0  0  0
  -24.6406  -15.8448   20.5332 H   0  0  0  0  0  0
  -26.2454  -15.6392   20.0643 H   0  0  0  0  0  0
  -26.7273  -32.5304   23.1004 H   0  0  0  0  0  0
  -24.9882  -33.9612   25.0188 H   0  0  0  0  0  0
  -22.7487  -31.2867   21.3801 H   0  0  0  0  0  0
  -23.3779  -35.9596   23.3220 H   0  0  0  0  0  0
  -24.3634  -36.9000   22.2072 H   0  0  0  0  0  0
  -23.7263  -37.6432   23.6746 H   0  0  0  0  0  0
  -26.1400  -31.4791   20.6025 H   0  0  0  0  0  0
  -26.8787  -30.7861   22.0119 H   0  0  0  0  0  0
  -28.1284  -28.7938   21.2431 H   0  0  0  0  0  0
  -25.9023  -25.8636   18.9874 H   0  0  0  0  0  0
  -23.9842  -27.3166   18.9559 H   0  0  0  0  0  0
  -23.7909  -30.5662   19.3891 H   0  0  0  0  0  0
  -22.7876  -29.2236   19.8532 H   0  0  0  0  0  0
  -25.1333  -36.1829   25.0791 H   0  0  0  0  0  0
  -21.0040  -28.3251   24.1365 H   0  0  0  0  0  0
  -20.5681  -26.2283   23.3620 H   0  0  0  0  0  0
  -21.6630  -26.7387   22.1184 H   0  0  0  0  0  0
  -19.6858  -25.6269   21.1274 H   0  0  0  0  0  0
  -19.6671  -27.3174   20.6754 H   0  0  0  0  0  0
  -17.4195  -26.6729   21.4045 H   0  0  0  0  0  0
  -18.0284  -26.0091   22.9048 H   0  0  0  0  0  0
  -19.7933  -30.7326   24.2226 H   0  0  0  0  0  0
  -17.4984  -31.6268   24.5129 H   0  0  0  0  0  0
  -15.5344  -30.2941   23.7645 H   0  0  0  0  0  0
  -15.8715  -28.0798   22.7049 H   0  0  0  0  0  0
  -24.5886  -30.7019   25.7644 H   0  0  0  0  0  0
  -24.8777  -32.2854   26.4738 H   0  0  0  0  0  0
  -25.7921  -30.8899   27.0181 H   0  0  0  0  0  0
  -26.2774  -29.6717   24.1292 H   0  0  0  0  0  0
  -27.3888  -29.7184   25.4750 H   0  0  0  0  0  0
  -27.8714  -30.4109   23.9451 H   0  0  0  0  0  0
  -27.2659  -33.3584   26.2060 H   0  0  0  0  0  0
  -28.3872  -32.6827   25.0340 H   0  0  0  0  0  0
  -28.0689  -31.8402   26.5414 H   0  0  0  0  0  0
  -28.2521  -38.0155   24.7580 H   0  0  0  0  0  0
  -28.1185  -36.2683   24.6148 H   0  0  0  0  0  0
  -27.2328  -37.1271   25.8842 H   0  0  0  0  0  0
  -20.9482  -29.8687   21.6769 H   0  0  0  0  0  0
  -26.0141  -38.2795   24.1453 H   0  0  0  0  0  0
  -26.9102  -23.6030   22.2137 H   0  0  0  0  0  0
  -26.5037  -25.2960   22.1169 H   0  0  0  0  0  0
  -28.0985  -24.8093   22.6944 H   0  0  0  0  0  0
  -29.5863  -18.0440   22.9919 H   0  0  0  0  0  0
  -28.9218  -19.6626   23.1151 H   0  0  0  0  0  0
  -30.5887  -19.4202   22.5928 H   0  0  0  0  0  0
  -27.4542  -17.6635   21.6764 H   0  0  0  0  0  0
  -27.2671  -18.3061   20.0468 H   0  0  0  0  0  0
  -26.9910  -19.3355   21.4548 H   0  0  0  0  0  0
  -29.1147  -23.2336   19.2680 H   0  0  0  0  0  0
  -29.8194  -23.4962   20.8166 H   0  0  0  0  0  0
  -31.0204  -17.8139   20.5911 H   0  0  0  0  0  0
  -29.8615  -17.6753   19.3177 H   0  0  0  0  0  0
  -27.4455  -21.4966   20.5191 H   0  0  0  0  0  0
  -28.4639  -21.6810   21.8973 H   0  0  0  0  0  0
  -27.0423  -24.3788   19.8757 H   0  0  0  0  0  0
  -28.8019  -15.8662   21.0191 H   0  0  0  0  0  0
  -30.2755  -20.6135   20.4726 H   0  0  0  0  0  0
  -29.1384  -20.2697   19.4005 H   0  0  0  0  0  0
  1 25  1  0  0  0
  1 30  2  0  0  0
  1 79  1  0  0  0
  2  3  1  0  0  0
  2 25  1  0  0  0
  2 81  1  0  0  0
  2 82  1  0  0  0
  3  4  1  0  0  0
  3 83  1  0  0  0
  3 84  1  0  0  0
  4  5  1  0  0  0
  4 85  1  0  0  0
  4 86  1  0  0  0
  5  6  1  0  0  0
  5 26  1  0  0  0
  5 87  1  0  0  0
  6 25  1  0  0  0
  6 88  1  0  0  0
  6 89  1  0  0  0
  7  8  2  0  0  0
  7 26  1  0  0  0
  7 29  1  0  0  0
  8  9  1  0  0  0
  8 22  1  0  0  0
  9 10  1  0  0  0
  9 27  2  0  0  0
 10 11  2  0  0  0
 10 15  1  0  0  0
 11 12  1  0  0  0
 11 90  1  0  0  0
 12 13  2  0  0  0
 12 91  1  0  0  0
 13 14  1  0  0  0
 13 31  1  0  0  0
 14 15  2  0  0  0
 14 92  1  0  0  0
 15 93  1  0  0  0
 16 17  2  0  0  0
 16 21  1  0  0  0
 16 31  1  0  0  0
 17 18  1  0  0  0
 17 94  1  0  0  0
 18 19  2  0  0  0
 18 95  1  0  0  0
 19 20  1  0  0  0
 19 24  1  0  0  0
 20 21  2  0  0  0
 20 96  1  0  0  0
 21 23  1  0  0  0
 22 28  1  0  0  0
 22 32  2  0  0  0
 26 27  1  0  0  0
 28 97  1  0  0  0
 28 98  1  0  0  0
 29 99  1  0  0  0
 29100  1  0  0  0
 33 34  1  0  0  0
 33 66  1  0  0  0
 33 70  2  0  0  0
 34 36  1  0  0  0
 34 59  1  0  0  0
 34101  1  0  0  0
 35 44  2  0  0  0
 35 45  1  0  0  0
 35 68  1  0  0  0
 36 56  1  0  0  0
 36102  1  0  0  0
 37 39  1  0  0  0
 37 47  1  0  0  0
 37 66  1  0  0  0
 37103  1  0  0  0
 38 43  2  0  0  0
 38 46  1  0  0  0
 38 47  1  0  0  0
 39 64  1  0  0  0
 39 67  2  0  0  0
 40 52  1  0  0  0
 40 53  2  0  0  0
 40 58  1  0  0  0
 41104  1  0  0  0
 41105  1  0  0  0
 41106  1  0  0  0
 41 48  1  0  0  0
 42 43  1  0  0  0
 42 66  1  0  0  0
 42107  1  0  0  0
 42108  1  0  0  0
 43 44  1  0  0  0
 44109  1  0  0  0
 45 46  2  0  0  0
 45110  1  0  0  0
 46111  1  0  0  0
 47112  1  0  0  0
 47113  1  0  0  0
 48 56  1  0  0  0
 48 65  1  0  0  0
 48114  1  0  0  0
 49 50  1  0  0  0
 49 53  1  0  0  0
 49 64  1  0  0  0
 49115  1  0  0  0
 50 51  1  0  0  0
 50116  1  0  0  0
 50117  1  0  0  0
 51 52  1  0  0  0
 51118  1  0  0  0
 51119  1  0  0  0
 52120  1  0  0  0
 52121  1  0  0  0
 53 54  1  0  0  0
 54 55  2  0  0  0
 54122  1  0  0  0
 55 57  1  0  0  0
 55123  1  0  0  0
 56 69  2  0  0  0
 57 58  2  0  0  0
 57124  1  0  0  0
 58125  1  0  0  0
 59 60  1  0  0  0
 59 61  1  0  0  0
 59 62  1  0  0  0
 60126  1  0  0  0
 60127  1  0  0  0
 60128  1  0  0  0
 61129  1  0  0  0
 61130  1  0  0  0
 61131  1  0  0  0
 62132  1  0  0  0
 62133  1  0  0  0
 62134  1  0  0  0
 63 65  1  0  0  0
 63135  1  0  0  0
 63136  1  0  0  0
 63137  1  0  0  0
 64138  1  0  0  0
 65139  1  0  0  0
 68 77  1  0  0  0
 71140  1  0  0  0
 71141  1  0  0  0
 71142  1  0  0  0
 71 77  1  0  0  0
 72143  1  0  0  0
 72144  1  0  0  0
 72145  1  0  0  0
 72 78  1  0  0  0
 73 78  1  0  0  0
 73146  1  0  0  0
 73147  1  0  0  0
 73148  1  0  0  0
 74 76  1  0  0  0
 74 77  1  0  0  0
 74149  1  0  0  0
 74150  1  0  0  0
 75 78  1  0  0  0
 75 79  1  0  0  0
 75151  1  0  0  0
 75152  1  0  0  0
 76 80  1  0  0  0
 76153  1  0  0  0
 76154  1  0  0  0
 77155  1  0  0  0
 78 80  1  0  0  0
 79156  1  0  0  0
 80157  1  0  0  0
 80158  1  0  0  0
M  CHG  1  80   1
M  ISO  4   1 100  68 101  77 101  79 100
M  END
> <chiral flag>
0

> <version>
0

> <s_m_source_file>
/data/baiqing/PycharmProjects/Reinvent-master-3.2/result/LINK_invent/BTK/process_docking_weight1_custom_sum_contain_oxygen_bond_distance_aromatic_linkinvent_7_9_3/rearranged_h_0112.sdf

> <i_m_source_file_index>
46

> <r_mmod_Potential_Energy-OPLS-2005>
266.998931884766

> <r_mmod_Stretch_Energy-OPLS-2005>
273.755889892578

> <r_mmod_Bend_Energy-OPLS-2005>
253.661529541016

> <r_mmod_Torsional_Energy-OPLS-2005>
234.965316772461

> <r_mmod_Improper_Torsional_Energy-OPLS-2005>
5.01050329208374

> <r_mmod_Van_der_Waal_Energy-OPLS-2005>
111.344009399414

> <r_mmod_Electrostatic_Energy-OPLS-2005>
-324.974090576172

> <r_mmod_Solvation_Energy-OPLS-2005>
-479.156555175781

> <b_mmod_Minimization_Converged-OPLS-2005>
0

> <r_mmod_RMS_Derivative-OPLS-2005>
5.84304904937744

$$$$
46
                    3D
 Structure written by MMmdl.
154162  0  0  1  0            999 V2000
  -30.4376  -15.2410   20.3888 C   0  0  0  0  0  0
  -30.4387  -12.7994   19.5066 C   0  0  0  0  0  0
  -29.5224  -12.5766   18.2761 C   0  0  0  0  0  0
  -28.0669  -12.3062   18.7003 C   0  0  0  0  0  0
  -27.6091  -13.2631   19.8285 C   0  0  2  0  0  0
  -28.6564  -13.3512   20.9547 C   0  0  0  0  0  0
  -25.2275  -13.8178   20.5652 C   0  0  0  0  0  0
  -24.1672  -13.0376   20.9253 C   0  0  0  0  0  0
  -24.6353  -11.6891   20.8784 C   0  0  0  0  0  0
  -23.9075  -10.4258   21.0428 C   0  0  0  0  0  0
  -24.3617   -9.4182   21.9210 C   0  0  0  0  0  0
  -23.6284   -8.2232   22.0762 C   0  0  0  0  0  0
  -22.4278   -8.0272   21.3546 C   0  0  0  0  0  0
  -21.9912   -9.0244   20.4652 C   0  0  0  0  0  0
  -22.7250  -10.2114   20.3070 C   0  0  0  0  0  0
  -21.6841   -6.0721   22.5277 C   0  0  0  0  0  0
  -21.4014   -6.5627   23.8214 C   0  0  0  0  0  0
  -21.3653   -5.6779   24.9177 C   0  0  0  0  0  0
  -21.6039   -4.3040   24.7216 C   0  0  0  0  0  0
  -21.8823   -3.8135   23.4340 C   0  0  0  0  0  0
  -21.9190   -4.6953   22.3403 C   0  0  0  0  0  0
  -22.7698  -13.5137   21.1912 C   0  0  0  0  0  0
  -22.1657   -4.2138   21.0979 F   0  0  0  0  0  0
  -21.5614   -3.4536   25.7736 F   0  0  0  0  0  0
  -29.8757  -13.9263   20.3445 N   0  0  0  0  0  0
  -26.2760  -12.9468   20.3230 N   0  0  0  0  0  0
  -25.9300  -11.6578   20.5778 N   0  0  0  0  0  0
  -22.0349  -12.8138   22.0475 N   0  0  0  0  0  0
  -25.3696  -15.1900   20.3913 N   0  0  0  0  0  0
  -31.6449  -15.2360   20.1015 O   0  0  0  0  0  0
  -21.6628   -6.8876   21.4248 O   0  0  0  0  0  0
  -22.3381  -14.5441   20.6753 O   0  0  0  0  0  0
  -24.6581  -31.8281   23.1710 C   0  0  0  0  0  0
  -25.9288  -32.4592   23.8149 C   0  0  1  0  0  0
  -27.2211  -26.9766   20.1600 C   0  0  0  0  0  0
  -25.5957  -33.8403   24.2058 N   0  0  0  0  0  0
  -23.4716  -30.4383   21.5208 C   0  0  2  0  0  0
  -24.9236  -28.8368   20.1042 C   0  0  0  0  0  0
  -22.7669  -29.4420   22.4777 C   0  0  0  0  0  0
  -18.0327  -28.1400   22.8439 C   0  0  0  0  0  0
  -24.1514  -36.7223   23.2650 C   0  0  0  0  0  0
  -26.0359  -30.6443   21.4001 C   0  0  0  0  0  0
  -26.1037  -29.2408   20.7403 C   0  0  0  0  0  0
  -27.2425  -28.3257   20.7553 C   0  0  0  0  0  0
  -26.0156  -26.7152   19.4690 C   0  0  0  0  0  0
  -24.9014  -27.5943   19.4516 C   0  0  0  0  0  0
  -23.7087  -29.7629   20.1421 C   0  0  0  0  0  0
  -25.4148  -36.2976   24.0313 C   0  0  1  0  0  0
  -20.5962  -28.3734   23.1197 C   0  0  2  0  0  0
  -20.6837  -26.9424   22.5401 C   0  0  0  0  0  0
  -19.5817  -26.6371   21.5208 C   0  0  0  0  0  0
  -18.1977  -26.7923   22.1601 C   0  0  0  0  0  0
  -19.1595  -28.8888   23.2795 C   0  0  0  0  0  0
  -18.9514  -30.1471   23.8814 C   0  0  0  0  0  0
  -17.6512  -30.6586   24.0541 C   0  0  0  0  0  0
  -25.9108  -34.9353   23.5017 C   0  0  0  0  0  0
  -16.5394  -29.9076   23.6335 C   0  0  0  0  0  0
  -16.7319  -28.6517   23.0323 C   0  0  0  0  0  0
  -26.4544  -31.6530   25.0657 C   0  0  0  0  0  0
  -25.3667  -31.3765   26.1318 C   0  0  0  0  0  0
  -27.0472  -30.2911   24.6375 C   0  0  0  0  0  0
  -27.6047  -32.4329   25.7446 C   0  0  0  0  0  0
  -27.5594  -37.1752   24.8465 C   0  0  0  0  0  0
  -21.4334  -29.3015   22.3531 N   0  0  0  0  0  0
  -26.4294  -37.3718   23.9420 N   0  0  0  0  0  0
  -24.7413  -30.9973   22.0819 N   0  0  0  0  0  0
  -23.4251  -28.7970   23.2967 O   0  0  0  0  0  0
  -28.2453  -25.9100   20.2717 O   0  0  0  0  0  0
  -26.5721  -34.8884   22.4620 O   0  0  0  0  0  0
  -23.5652  -32.1229   23.6819 O   0  0  0  0  0  0
  -28.4257  -16.6309   21.2184 C   0  0  0  0  0  0
  -29.9405  -18.0617   19.9262 C   0  0  0  0  0  0
  -28.0961  -17.9940   21.9007 C   0  0  0  0  0  0
  -29.2667  -19.5688   20.5541 C   0  0  1  0  0  0
  -30.2040  -23.2053   21.0865 C   0  0  0  0  0  0
  -28.9918  -21.1852   19.8462 C   0  0  0  0  0  0
  -28.1634  -24.3385   19.8446 C   0  0  0  0  0  0
  -28.8207  -22.8308   20.5287 C   0  0  2  0  0  0
  -29.6977  -16.5374   20.4839 N   0  0  0  0  0  0
  -28.0031  -19.1158   21.0173 O   0  0  0  0  0  0
  -31.4466  -13.0204   19.1532 H   0  0  0  0  0  0
  -30.5381  -11.8825   20.0898 H   0  0  0  0  0  0
  -29.8945  -11.7508   17.6686 H   0  0  0  0  0  0
  -29.5539  -13.4615   17.6390 H   0  0  0  0  0  0
  -28.0140  -11.2776   19.0587 H   0  0  0  0  0  0
  -27.3977  -12.3669   17.8408 H   0  0  0  0  0  0
  -27.5437  -14.2465   19.3631 H   0  0  0  0  0  0
  -28.8448  -12.3627   21.3740 H   0  0  0  0  0  0
  -28.2878  -13.9242   21.7975 H   0  0  0  0  0  0
  -25.2749   -9.5655   22.4789 H   0  0  0  0  0  0
  -23.9975   -7.4626   22.7494 H   0  0  0  0  0  0
  -21.0826   -8.8775   19.8961 H   0  0  0  0  0  0
  -22.3716  -10.9656   19.6178 H   0  0  0  0  0  0
  -21.2017   -7.6136   23.9721 H   0  0  0  0  0  0
  -21.1466   -6.0503   25.9078 H   0  0  0  0  0  0
  -22.0608   -2.7601   23.2849 H   0  0  0  0  0  0
  -22.3929  -11.9786   22.4864 H   0  0  0  0  0  0
  -21.1007  -13.1212   22.2719 H   0  0  0  0  0  0
  -24.5801  -15.8206   20.4822 H   0  0  0  0  0  0
  -26.1778  -15.6308   19.9745 H   0  0  0  0  0  0
  -26.7348  -32.5134   23.0850 H   0  0  0  0  0  0
  -25.0044  -33.9494   25.0169 H   0  0  0  0  0  0
  -22.7826  -31.2684   21.3571 H   0  0  0  0  0  0
  -23.3787  -35.9536   23.3277 H   0  0  0  0  0  0
  -24.3596  -36.8905   22.2063 H   0  0  0  0  0  0
  -23.7248  -37.6397   23.6734 H   0  0  0  0  0  0
  -26.2162  -31.3945   20.6276 H   0  0  0  0  0  0
  -26.8915  -30.6952   22.0588 H   0  0  0  0  0  0
  -28.1279  -28.6193   21.3007 H   0  0  0  0  0  0
  -25.8924  -25.7710   18.9589 H   0  0  0  0  0  0
  -24.0041  -27.2860   18.9286 H   0  0  0  0  0  0
  -23.8613  -30.5391   19.3892 H   0  0  0  0  0  0
  -22.8184  -29.2184   19.8222 H   0  0  0  0  0  0
  -25.1326  -36.1788   25.0807 H   0  0  0  0  0  0
  -21.0032  -28.3339   24.1334 H   0  0  0  0  0  0
  -20.5787  -26.2318   23.3619 H   0  0  0  0  0  0
  -21.6692  -26.7441   22.1167 H   0  0  0  0  0  0
  -19.7022  -25.6277   21.1263 H   0  0  0  0  0  0
  -19.6794  -27.3146   20.6707 H   0  0  0  0  0  0
  -17.4270  -26.6650   21.3982 H   0  0  0  0  0  0
  -18.0367  -26.0062   22.8987 H   0  0  0  0  0  0
  -19.8017  -30.7271   24.2168 H   0  0  0  0  0  0
  -17.5093  -31.6276   24.5145 H   0  0  0  0  0  0
  -15.5396  -30.2949   23.7745 H   0  0  0  0  0  0
  -15.8717  -28.0826   22.7042 H   0  0  0  0  0  0
  -24.5880  -30.7108   25.7600 H   0  0  0  0  0  0
  -24.8820  -32.2972   26.4599 H   0  0  0  0  0  0
  -25.7871  -30.9010   27.0189 H   0  0  0  0  0  0
  -26.3144  -29.6556   24.1397 H   0  0  0  0  0  0
  -27.4069  -29.7303   25.5004 H   0  0  0  0  0  0
  -27.9050  -30.4132   23.9749 H   0  0  0  0  0  0
  -27.2652  -33.3721   26.1846 H   0  0  0  0  0  0
  -28.3919  -32.6755   25.0293 H   0  0  0  0  0  0
  -28.0644  -31.8568   26.5495 H   0  0  0  0  0  0
  -28.2525  -38.0116   24.7536 H   0  0  0  0  0  0
  -28.1166  -36.2635   24.6251 H   0  0  0  0  0  0
  -27.2314  -37.1309   25.8864 H   0  0  0  0  0  0
  -20.9599  -29.8689   21.6638 H   0  0  0  0  0  0
  -26.0163  -38.2786   24.1460 H   0  0  0  0  0  0
  -27.6344  -16.3756   20.5206 H   0  0  0  0  0  0
  -28.4175  -15.9180   22.0371 H   0  0  0  0  0  0
  -31.0186  -18.2022   19.8421 H   0  0  0  0  0  0
  -29.5967  -18.0035   18.8911 H   0  0  0  0  0  0
  -28.7961  -18.2001   22.7118 H   0  0  0  0  0  0
  -27.1161  -17.9048   22.3752 H   0  0  0  0  0  0
  -29.8736  -19.7897   21.4340 H   0  0  0  0  0  0
  -30.6412  -22.3909   21.6671 H   0  0  0  0  0  0
  -30.1436  -24.0756   21.7434 H   0  0  0  0  0  0
  -30.9013  -23.4551   20.2839 H   0  0  0  0  0  0
  -28.1019  -21.0528   19.2301 H   0  0  0  0  0  0
  -29.7880  -21.2887   19.1061 H   0  0  0  0  0  0
  -27.1040  -24.1315   19.7043 H   0  0  0  0  0  0
  -28.5554  -24.3618   18.8259 H   0  0  0  0  0  0
  -28.1898  -22.6743   21.4062 H   0  0  0  0  0  0
  1 25  1  0  0  0
  1 30  2  0  0  0
  1 79  1  0  0  0
  2  3  1  0  0  0
  2 25  1  0  0  0
  2 81  1  0  0  0
  2 82  1  0  0  0
  3  4  1  0  0  0
  3 83  1  0  0  0
  3 84  1  0  0  0
  4  5  1  0  0  0
  4 85  1  0  0  0
  4 86  1  0  0  0
  5  6  1  0  0  0
  5 26  1  0  0  0
  5 87  1  0  0  0
  6 25  1  0  0  0
  6 88  1  0  0  0
  6 89  1  0  0  0
  7  8  2  0  0  0
  7 26  1  0  0  0
  7 29  1  0  0  0
  8  9  1  0  0  0
  8 22  1  0  0  0
  9 10  1  0  0  0
  9 27  2  0  0  0
 10 11  2  0  0  0
 10 15  1  0  0  0
 11 12  1  0  0  0
 11 90  1  0  0  0
 12 13  2  0  0  0
 12 91  1  0  0  0
 13 14  1  0  0  0
 13 31  1  0  0  0
 14 15  2  0  0  0
 14 92  1  0  0  0
 15 93  1  0  0  0
 16 17  2  0  0  0
 16 21  1  0  0  0
 16 31  1  0  0  0
 17 18  1  0  0  0
 17 94  1  0  0  0
 18 19  2  0  0  0
 18 95  1  0  0  0
 19 20  1  0  0  0
 19 24  1  0  0  0
 20 21  2  0  0  0
 20 96  1  0  0  0
 21 23  1  0  0  0
 22 28  1  0  0  0
 22 32  2  0  0  0
 26 27  1  0  0  0
 28 97  1  0  0  0
 28 98  1  0  0  0
 29 99  1  0  0  0
 29100  1  0  0  0
 33 34  1  0  0  0
 33 66  1  0  0  0
 33 70  2  0  0  0
 34 36  1  0  0  0
 34 59  1  0  0  0
 34101  1  0  0  0
 35 44  2  0  0  0
 35 45  1  0  0  0
 35 68  1  0  0  0
 36 56  1  0  0  0
 36102  1  0  0  0
 37 39  1  0  0  0
 37 47  1  0  0  0
 37 66  1  0  0  0
 37103  1  0  0  0
 38 43  2  0  0  0
 38 46  1  0  0  0
 38 47  1  0  0  0
 39 64  1  0  0  0
 39 67  2  0  0  0
 40 52  1  0  0  0
 40 53  2  0  0  0
 40 58  1  0  0  0
 41104  1  0  0  0
 41105  1  0  0  0
 41106  1  0  0  0
 41 48  1  0  0  0
 42 43  1  0  0  0
 42 66  1  0  0  0
 42107  1  0  0  0
 42108  1  0  0  0
 43 44  1  0  0  0
 44109  1  0  0  0
 45 46  2  0  0  0
 45110  1  0  0  0
 46111  1  0  0  0
 47112  1  0  0  0
 47113  1  0  0  0
 48 56  1  0  0  0
 48 65  1  0  0  0
 48114  1  0  0  0
 49 50  1  0  0  0
 49 53  1  0  0  0
 49 64  1  0  0  0
 49115  1  0  0  0
 50 51  1  0  0  0
 50116  1  0  0  0
 50117  1  0  0  0
 51 52  1  0  0  0
 51118  1  0  0  0
 51119  1  0  0  0
 52120  1  0  0  0
 52121  1  0  0  0
 53 54  1  0  0  0
 54 55  2  0  0  0
 54122  1  0  0  0
 55 57  1  0  0  0
 55123  1  0  0  0
 56 69  2  0  0  0
 57 58  2  0  0  0
 57124  1  0  0  0
 58125  1  0  0  0
 59 60  1  0  0  0
 59 61  1  0  0  0
 59 62  1  0  0  0
 60126  1  0  0  0
 60127  1  0  0  0
 60128  1  0  0  0
 61129  1  0  0  0
 61130  1  0  0  0
 61131  1  0  0  0
 62132  1  0  0  0
 62133  1  0  0  0
 62134  1  0  0  0
 63 65  1  0  0  0
 63135  1  0  0  0
 63136  1  0  0  0
 63137  1  0  0  0
 64138  1  0  0  0
 65139  1  0  0  0
 68 77  1  0  0  0
 71 73  1  0  0  0
 71 79  1  0  0  0
 71140  1  0  0  0
 71141  1  0  0  0
 72 74  1  0  0  0
 72 79  1  0  0  0
 72142  1  0  0  0
 72143  1  0  0  0
 73 80  1  0  0  0
 73144  1  0  0  0
 73145  1  0  0  0
 74 76  1  0  0  0
 74 80  1  0  0  0
 74146  1  0  0  0
 75147  1  0  0  0
 75148  1  0  0  0
 75149  1  0  0  0
 75 78  1  0  0  0
 76 78  1  0  0  0
 76150  1  0  0  0
 76151  1  0  0  0
 77 78  1  0  0  0
 77152  1  0  0  0
 77153  1  0  0  0
 78154  1  0  0  0
M  ISO  4   1 100  68 101  77 101  79 100
M  END
> <chiral flag>
0

> <version>
0

> <s_m_source_file>
/data/baiqing/PycharmProjects/Reinvent-master-3.2/result/LINK_invent/BTK/process_docking_weight1_custom_sum_contain_oxygen_bond_distance_aromatic_linkinvent_7_9_3/rearranged_h_0112.sdf

> <i_m_source_file_index>
47

> <r_mmod_Potential_Energy-OPLS-2005>
1297.09033203125

> <r_mmod_Stretch_Energy-OPLS-2005>
562.175354003906

> <r_mmod_Bend_Energy-OPLS-2005>
426.582000732422

> <r_mmod_Torsional_Energy-OPLS-2005>
314.497131347656

> <r_mmod_Improper_Torsional_Energy-OPLS-2005>
6.24994039535522

> <r_mmod_Van_der_Waal_Energy-OPLS-2005>
124.118049621582

> <r_mmod_Electrostatic_Energy-OPLS-2005>
-331.557800292969

> <r_mmod_Solvation_Energy-OPLS-2005>
-208.02619934082

> <b_mmod_Minimization_Converged-OPLS-2005>
0

> <r_mmod_RMS_Derivative-OPLS-2005>
3.79211497306824

$$$$
47
                    3D
 Structure written by MMmdl.
163170  0  0  1  0            999 V2000
  -30.7002  -14.4424   20.6042 C   0  0  0  0  0  0
  -30.4296  -12.3027   19.4033 C   0  0  0  0  0  0
  -29.4901  -12.5043   18.1958 C   0  0  0  0  0  0
  -28.0122  -12.3642   18.6138 C   0  0  0  0  0  0
  -27.6648  -13.1974   19.8762 C   0  0  2  0  0  0
  -28.7069  -12.9495   20.9891 C   0  0  0  0  0  0
  -25.2616  -13.8140   20.5673 C   0  0  0  0  0  0
  -24.1851  -13.0429   20.9162 C   0  0  0  0  0  0
  -24.6392  -11.6891   20.8729 C   0  0  0  0  0  0
  -23.9054  -10.4282   21.0404 C   0  0  0  0  0  0
  -24.3608   -9.4202   21.9185 C   0  0  0  0  0  0
  -23.6283   -8.2240   22.0758 C   0  0  0  0  0  0
  -22.4270   -8.0275   21.3545 C   0  0  0  0  0  0
  -21.9899   -9.0248   20.4646 C   0  0  0  0  0  0
  -22.7227  -10.2128   20.3052 C   0  0  0  0  0  0
  -21.6852   -6.0733   22.5277 C   0  0  0  0  0  0
  -21.4013   -6.5639   23.8209 C   0  0  0  0  0  0
  -21.3655   -5.6793   24.9170 C   0  0  0  0  0  0
  -21.6043   -4.3053   24.7224 C   0  0  0  0  0  0
  -21.8820   -3.8145   23.4343 C   0  0  0  0  0  0
  -21.9194   -4.6961   22.3400 C   0  0  0  0  0  0
  -22.7876  -13.5242   21.1826 C   0  0  0  0  0  0
  -22.1662   -4.2145   21.0976 F   0  0  0  0  0  0
  -21.5630   -3.4536   25.7738 F   0  0  0  0  0  0
  -30.0383  -13.2665   20.4408 N   0  0  0  0  0  0
  -26.3043  -12.9289   20.3373 N   0  0  0  0  0  0
  -25.9315  -11.6460   20.5767 N   0  0  0  0  0  0
  -22.0516  -12.8235   22.0382 N   0  0  0  0  0  0
  -25.4369  -15.1851   20.4080 N   0  0  0  0  0  0
  -31.8072  -14.6770   20.1129 O   0  0  0  0  0  0
  -21.6636   -6.8874   21.4237 O   0  0  0  0  0  0
  -22.3560  -14.5553   20.6682 O   0  0  0  0  0  0
  -24.6130  -31.8669   23.2085 C   0  0  0  0  0  0
  -25.9032  -32.4812   23.8383 C   0  0  1  0  0  0
  -27.2460  -27.4407   20.0777 C   0  0  0  0  0  0
  -25.5900  -33.8613   24.2315 N   0  0  0  0  0  0
  -23.3997  -30.4880   21.5508 C   0  0  2  0  0  0
  -24.8450  -28.9495   20.1173 C   0  0  0  0  0  0
  -22.7402  -29.4637   22.5012 C   0  0  0  0  0  0
  -18.0260  -28.1364   22.8484 C   0  0  0  0  0  0
  -24.1493  -36.7300   23.2640 C   0  0  0  0  0  0
  -25.9277  -30.8303   21.3621 C   0  0  0  0  0  0
  -26.0030  -29.4643   20.7098 C   0  0  0  0  0  0
  -27.1990  -28.7144   20.6902 C   0  0  0  0  0  0
  -26.0586  -26.9256   19.5085 C   0  0  0  0  0  0
  -24.8662  -27.6769   19.5201 C   0  0  0  0  0  0
  -23.6074  -29.8168   20.1662 C   0  0  0  0  0  0
  -25.4112  -36.3098   24.0335 C   0  0  1  0  0  0
  -20.5854  -28.3637   23.1325 C   0  0  2  0  0  0
  -20.6758  -26.9378   22.5412 C   0  0  0  0  0  0
  -19.5739  -26.6372   21.5206 C   0  0  0  0  0  0
  -18.1911  -26.7910   22.1612 C   0  0  0  0  0  0
  -19.1515  -28.8820   23.2895 C   0  0  0  0  0  0
  -18.9459  -30.1439   23.8892 C   0  0  0  0  0  0
  -17.6459  -30.6571   24.0567 C   0  0  0  0  0  0
  -25.9037  -34.9467   23.5119 C   0  0  0  0  0  0
  -16.5347  -29.9072   23.6330 C   0  0  0  0  0  0
  -16.7252  -28.6494   23.0332 C   0  0  0  0  0  0
  -26.4471  -31.6593   25.0712 C   0  0  0  0  0  0
  -25.3752  -31.3679   26.1472 C   0  0  0  0  0  0
  -27.0309  -30.3048   24.6066 C   0  0  0  0  0  0
  -27.6042  -32.4318   25.7473 C   0  0  0  0  0  0
  -27.5579  -37.1806   24.8468 C   0  0  0  0  0  0
  -21.4131  -29.3016   22.3756 N   0  0  0  0  0  0
  -26.4293  -37.3785   23.9410 N   0  0  0  0  0  0
  -24.6651  -31.0769   22.0991 N   0  0  0  0  0  0
  -23.4181  -28.8188   23.3053 O   0  0  0  0  0  0
  -28.4659  -26.7888   20.0795 O   0  0  0  0  0  0
  -26.5592  -34.8919   22.4680 O   0  0  0  0  0  0
  -23.5325  -32.1427   23.7477 O   0  0  0  0  0  0
  -29.3748  -26.7994   17.2201 C   0  0  0  0  0  0
  -27.9143  -20.0734   19.2240 C   0  0  0  0  0  0
  -28.5644  -25.6554   17.8470 C   0  0  0  0  0  0
  -30.3804  -16.7767   21.5423 C   0  0  0  0  0  0
  -28.1237  -24.3142   20.0720 C   0  0  0  0  0  0
  -28.7459  -22.0352   20.6182 C   0  0  0  0  0  0
  -29.7149  -17.8107   20.6007 C   0  0  0  0  0  0
  -28.7385  -25.5626   19.3825 C   0  0  2  0  0  0
  -29.0937  -20.6472   20.0286 C   0  0  1  0  0  0
  -29.9993  -15.3867   21.2505 N   0  0  0  0  0  0
  -28.7494  -23.0790   19.5875 N   0  0  0  0  0  0
  -30.9058  -19.8691   21.8858 O   0  0  0  0  0  0
  -28.4672  -19.4183   22.3585 O   0  0  0  0  0  0
  -29.5764  -19.4769   21.3918 S   0  0  0  0  0  0
  -31.4710  -12.4203   19.0976 H   0  0  0  0  0  0
  -30.3460  -11.2858   19.7907 H   0  0  0  0  0  0
  -29.7243  -11.7800   17.4143 H   0  0  0  0  0  0
  -29.6546  -13.4901   17.7577 H   0  0  0  0  0  0
  -27.8215  -11.3078   18.8061 H   0  0  0  0  0  0
  -27.3584  -12.6431   17.7867 H   0  0  0  0  0  0
  -27.7177  -14.2483   19.5916 H   0  0  0  0  0  0
  -28.6850  -11.9035   21.2983 H   0  0  0  0  0  0
  -28.4648  -13.5152   21.8893 H   0  0  0  0  0  0
  -25.2753   -9.5683   22.4755 H   0  0  0  0  0  0
  -23.9991   -7.4637   22.7481 H   0  0  0  0  0  0
  -21.0830   -8.8761   19.8954 H   0  0  0  0  0  0
  -22.3683  -10.9664   19.6159 H   0  0  0  0  0  0
  -21.2003   -7.6147   23.9709 H   0  0  0  0  0  0
  -21.1476   -6.0523   25.9073 H   0  0  0  0  0  0
  -22.0605   -2.7606   23.2844 H   0  0  0  0  0  0
  -22.4118  -11.9881   22.4753 H   0  0  0  0  0  0
  -21.1139  -13.1273   22.2601 H   0  0  0  0  0  0
  -24.6762  -15.8461   20.5225 H   0  0  0  0  0  0
  -26.2947  -15.6194   20.0918 H   0  0  0  0  0  0
  -26.7095  -32.5515   23.1136 H   0  0  0  0  0  0
  -25.0108  -33.9791   25.0498 H   0  0  0  0  0  0
  -22.6870  -31.3032   21.4100 H   0  0  0  0  0  0
  -23.3756  -35.9635   23.3309 H   0  0  0  0  0  0
  -24.3583  -36.8899   22.2055 H   0  0  0  0  0  0
  -23.7250  -37.6510   23.6647 H   0  0  0  0  0  0
  -26.0405  -31.5971   20.5943 H   0  0  0  0  0  0
  -26.8153  -30.8822   21.9807 H   0  0  0  0  0  0
  -28.0966  -29.1151   21.1405 H   0  0  0  0  0  0
  -26.0267  -25.9489   19.0548 H   0  0  0  0  0  0
  -23.9724  -27.2669   19.0713 H   0  0  0  0  0  0
  -23.7132  -30.5909   19.4055 H   0  0  0  0  0  0
  -22.7317  -29.2354   19.8719 H   0  0  0  0  0  0
  -25.1293  -36.1955   25.0829 H   0  0  0  0  0  0
  -20.9921  -28.3188   24.1454 H   0  0  0  0  0  0
  -20.5660  -26.2241   23.3592 H   0  0  0  0  0  0
  -21.6632  -26.7416   22.1212 H   0  0  0  0  0  0
  -19.6908  -25.6285   21.1225 H   0  0  0  0  0  0
  -19.6693  -27.3201   20.6753 H   0  0  0  0  0  0
  -17.4188  -26.6656   21.4009 H   0  0  0  0  0  0
  -18.0307  -26.0042   22.9002 H   0  0  0  0  0  0
  -19.7942  -30.7262   24.2241 H   0  0  0  0  0  0
  -17.5016  -31.6252   24.5169 H   0  0  0  0  0  0
  -15.5349  -30.2983   23.7652 H   0  0  0  0  0  0
  -15.8643  -28.0829   22.7024 H   0  0  0  0  0  0
  -24.5933  -30.7005   25.7824 H   0  0  0  0  0  0
  -24.8943  -32.2830   26.4943 H   0  0  0  0  0  0
  -25.8136  -30.8850   27.0218 H   0  0  0  0  0  0
  -26.2849  -29.6797   24.1146 H   0  0  0  0  0  0
  -27.4140  -29.7276   25.4491 H   0  0  0  0  0  0
  -27.8646  -30.4387   23.9166 H   0  0  0  0  0  0
  -27.2658  -33.3611   26.2067 H   0  0  0  0  0  0
  -28.3847  -32.6888   25.0297 H   0  0  0  0  0  0
  -28.0720  -31.8437   26.5382 H   0  0  0  0  0  0
  -28.2594  -38.0108   24.7511 H   0  0  0  0  0  0
  -28.1076  -36.2636   24.6293 H   0  0  0  0  0  0
  -27.2295  -37.1445   25.8872 H   0  0  0  0  0  0
  -20.9280  -29.8747   21.6995 H   0  0  0  0  0  0
  -26.0174  -38.2857   24.1424 H   0  0  0  0  0  0
  -29.2474  -26.8182   16.1374 H   0  0  0  0  0  0
  -30.4406  -26.6885   17.4249 H   0  0  0  0  0  0
  -29.0572  -27.7685   17.6059 H   0  0  0  0  0  0
  -27.5860  -20.7721   18.4546 H   0  0  0  0  0  0
  -27.0606  -19.8642   19.8690 H   0  0  0  0  0  0
  -28.1867  -19.1486   18.7175 H   0  0  0  0  0  0
  -28.8974  -24.7197   17.3957 H   0  0  0  0  0  0
  -27.5212  -25.7570   17.5576 H   0  0  0  0  0  0
  -30.0677  -16.9790   22.5675 H   0  0  0  0  0  0
  -31.4649  -16.9008   21.5337 H   0  0  0  0  0  0
  -27.0438  -24.2545   19.9387 H   0  0  0  0  0  0
  -28.3004  -24.4103   21.1452 H   0  0  0  0  0  0
  -29.4692  -22.3019   21.3918 H   0  0  0  0  0  0
  -27.7726  -21.9840   21.1101 H   0  0  0  0  0  0
  -28.7059  -17.5073   20.3310 H   0  0  0  0  0  0
  -30.2892  -17.9208   19.6820 H   0  0  0  0  0  0
  -29.8143  -25.4595   19.5345 H   0  0  0  0  0  0
  -29.9712  -20.7207   19.3859 H   0  0  0  0  0  0
  -29.1060  -15.0815   21.6077 H   0  0  0  0  0  0
  -29.7136  -23.2888   19.3443 H   0  0  0  0  0  0
  1 25  1  0  0  0
  1 30  2  0  0  0
  1 80  1  0  0  0
  2  3  1  0  0  0
  2 25  1  0  0  0
  2 85  1  0  0  0
  2 86  1  0  0  0
  3  4  1  0  0  0
  3 87  1  0  0  0
  3 88  1  0  0  0
  4  5  1  0  0  0
  4 89  1  0  0  0
  4 90  1  0  0  0
  5  6  1  0  0  0
  5 26  1  0  0  0
  5 91  1  0  0  0
  6 25  1  0  0  0
  6 92  1  0  0  0
  6 93  1  0  0  0
  7  8  2  0  0  0
  7 26  1  0  0  0
  7 29  1  0  0  0
  8  9  1  0  0  0
  8 22  1  0  0  0
  9 10  1  0  0  0
  9 27  2  0  0  0
 10 11  2  0  0  0
 10 15  1  0  0  0
 11 12  1  0  0  0
 11 94  1  0  0  0
 12 13  2  0  0  0
 12 95  1  0  0  0
 13 14  1  0  0  0
 13 31  1  0  0  0
 14 15  2  0  0  0
 14 96  1  0  0  0
 15 97  1  0  0  0
 16 17  2  0  0  0
 16 21  1  0  0  0
 16 31  1  0  0  0
 17 18  1  0  0  0
 17 98  1  0  0  0
 18 19  2  0  0  0
 18 99  1  0  0  0
 19 20  1  0  0  0
 19 24  1  0  0  0
 20 21  2  0  0  0
 20100  1  0  0  0
 21 23  1  0  0  0
 22 28  1  0  0  0
 22 32  2  0  0  0
 26 27  1  0  0  0
 28101  1  0  0  0
 28102  1  0  0  0
 29103  1  0  0  0
 29104  1  0  0  0
 33 34  1  0  0  0
 33 66  1  0  0  0
 33 70  2  0  0  0
 34 36  1  0  0  0
 34 59  1  0  0  0
 34105  1  0  0  0
 35 44  2  0  0  0
 35 45  1  0  0  0
 35 68  1  0  0  0
 36 56  1  0  0  0
 36106  1  0  0  0
 37 39  1  0  0  0
 37 47  1  0  0  0
 37 66  1  0  0  0
 37107  1  0  0  0
 38 43  2  0  0  0
 38 46  1  0  0  0
 38 47  1  0  0  0
 39 64  1  0  0  0
 39 67  2  0  0  0
 40 52  1  0  0  0
 40 53  2  0  0  0
 40 58  1  0  0  0
 41108  1  0  0  0
 41109  1  0  0  0
 41110  1  0  0  0
 41 48  1  0  0  0
 42 43  1  0  0  0
 42 66  1  0  0  0
 42111  1  0  0  0
 42112  1  0  0  0
 43 44  1  0  0  0
 44113  1  0  0  0
 45 46  2  0  0  0
 45114  1  0  0  0
 46115  1  0  0  0
 47116  1  0  0  0
 47117  1  0  0  0
 48 56  1  0  0  0
 48 65  1  0  0  0
 48118  1  0  0  0
 49 50  1  0  0  0
 49 53  1  0  0  0
 49 64  1  0  0  0
 49119  1  0  0  0
 50 51  1  0  0  0
 50120  1  0  0  0
 50121  1  0  0  0
 51 52  1  0  0  0
 51122  1  0  0  0
 51123  1  0  0  0
 52124  1  0  0  0
 52125  1  0  0  0
 53 54  1  0  0  0
 54 55  2  0  0  0
 54126  1  0  0  0
 55 57  1  0  0  0
 55127  1  0  0  0
 56 69  2  0  0  0
 57 58  2  0  0  0
 57128  1  0  0  0
 58129  1  0  0  0
 59 60  1  0  0  0
 59 61  1  0  0  0
 59 62  1  0  0  0
 60130  1  0  0  0
 60131  1  0  0  0
 60132  1  0  0  0
 61133  1  0  0  0
 61134  1  0  0  0
 61135  1  0  0  0
 62136  1  0  0  0
 62137  1  0  0  0
 62138  1  0  0  0
 63 65  1  0  0  0
 63139  1  0  0  0
 63140  1  0  0  0
 63141  1  0  0  0
 64142  1  0  0  0
 65143  1  0  0  0
 68 78  1  0  0  0
 71 73  1  0  0  0
 71144  1  0  0  0
 71145  1  0  0  0
 71146  1  0  0  0
 72147  1  0  0  0
 72148  1  0  0  0
 72149  1  0  0  0
 72 79  1  0  0  0
 73150  1  0  0  0
 73151  1  0  0  0
 73 78  1  0  0  0
 74 77  1  0  0  0
 74 80  1  0  0  0
 74152  1  0  0  0
 74153  1  0  0  0
 75 78  1  0  0  0
 75 81  1  0  0  0
 75154  1  0  0  0
 75155  1  0  0  0
 76 79  1  0  0  0
 76 81  1  0  0  0
 76156  1  0  0  0
 76157  1  0  0  0
 77158  1  0  0  0
 77159  1  0  0  0
 77 84  1  0  0  0
 78160  1  0  0  0
 79 84  1  0  0  0
 79161  1  0  0  0
 80162  1  0  0  0
 81163  1  0  0  0
 82 84  2  0  0  0
 83 84  2  0  0  0
M  ISO  4   1 100  68 101  78 101  80 100
M  END
> <chiral flag>
0

> <version>
0

> <s_m_source_file>
/data/baiqing/PycharmProjects/Reinvent-master-3.2/result/LINK_invent/BTK/process_docking_weight1_custom_sum_contain_oxygen_bond_distance_aromatic_linkinvent_7_9_3/rearranged_h_0112.sdf

> <i_m_source_file_index>
48

> <r_mmod_Potential_Energy-OPLS-2005>
-193.450714111328

> <r_mmod_Stretch_Energy-OPLS-2005>
35.165454864502

> <r_mmod_Bend_Energy-OPLS-2005>
119.859237670898

> <r_mmod_Torsional_Energy-OPLS-2005>
213.66471862793

> <r_mmod_Improper_Torsional_Energy-OPLS-2005>
2.62405776977539

> <r_mmod_Van_der_Waal_Energy-OPLS-2005>
125.555473327637

> <r_mmod_Electrostatic_Energy-OPLS-2005>
-456.126434326172

> <r_mmod_Solvation_Energy-OPLS-2005>
-245.225845336914

> <b_mmod_Minimization_Converged-OPLS-2005>
0

> <r_mmod_RMS_Derivative-OPLS-2005>
1.22489202022552

$$$$
48
                    3D
 Structure written by MMmdl.
170178  0  0  1  0            999 V2000
  -30.7112  -14.4846   20.5647 C   0  0  0  0  0  0
  -30.4252  -12.3148   19.4298 C   0  0  0  0  0  0
  -29.4992  -12.4903   18.2087 C   0  0  0  0  0  0
  -28.0182  -12.3630   18.6180 C   0  0  0  0  0  0
  -27.6613  -13.2105   19.8696 C   0  0  2  0  0  0
  -28.7026  -13.0118   20.9943 C   0  0  0  0  0  0
  -25.2581  -13.8175   20.5648 C   0  0  0  0  0  0
  -24.1852  -13.0462   20.9210 C   0  0  0  0  0  0
  -24.6403  -11.6915   20.8759 C   0  0  0  0  0  0
  -23.9072  -10.4312   21.0426 C   0  0  0  0  0  0
  -24.3625   -9.4215   21.9185 C   0  0  0  0  0  0
  -23.6315   -8.2218   22.0714 C   0  0  0  0  0  0
  -22.4289   -8.0296   21.3512 C   0  0  0  0  0  0
  -21.9938   -9.0274   20.4610 C   0  0  0  0  0  0
  -22.7258  -10.2142   20.3045 C   0  0  0  0  0  0
  -21.6847   -6.0752   22.5284 C   0  0  0  0  0  0
  -21.3998   -6.5639   23.8226 C   0  0  0  0  0  0
  -21.3643   -5.6777   24.9180 C   0  0  0  0  0  0
  -21.6051   -4.3045   24.7213 C   0  0  0  0  0  0
  -21.8843   -3.8140   23.4324 C   0  0  0  0  0  0
  -21.9200   -4.6971   22.3392 C   0  0  0  0  0  0
  -22.7874  -13.5240   21.1877 C   0  0  0  0  0  0
  -22.1678   -4.2178   21.0955 F   0  0  0  0  0  0
  -21.5621   -3.4496   25.7708 F   0  0  0  0  0  0
  -30.0317  -13.3106   20.4401 N   0  0  0  0  0  0
  -26.3016  -12.9342   20.3336 N   0  0  0  0  0  0
  -25.9324  -11.6510   20.5786 N   0  0  0  0  0  0
  -22.0487  -12.8226   22.0413 N   0  0  0  0  0  0
  -25.4312  -15.1865   20.3969 N   0  0  0  0  0  0
  -31.8402  -14.6530   20.1038 O   0  0  0  0  0  0
  -21.6631   -6.8890   21.4241 O   0  0  0  0  0  0
  -22.3577  -14.5555   20.6741 O   0  0  0  0  0  0
  -24.6214  -31.8652   23.2132 C   0  0  0  0  0  0
  -25.9094  -32.4792   23.8414 C   0  0  1  0  0  0
  -27.2284  -27.4124   20.0843 C   0  0  0  0  0  0
  -25.5982  -33.8593   24.2355 N   0  0  0  0  0  0
  -23.4069  -30.4933   21.5508 C   0  0  2  0  0  0
  -24.8473  -28.9583   20.1112 C   0  0  0  0  0  0
  -22.7443  -29.4653   22.4975 C   0  0  0  0  0  0
  -18.0275  -28.1357   22.8484 C   0  0  0  0  0  0
  -24.1480  -36.7267   23.2610 C   0  0  0  0  0  0
  -25.9396  -30.8279   21.3635 C   0  0  0  0  0  0
  -26.0128  -29.4624   20.7020 C   0  0  0  0  0  0
  -27.2058  -28.6996   20.6782 C   0  0  0  0  0  0
  -26.0345  -26.9241   19.5015 C   0  0  0  0  0  0
  -24.8554  -27.6891   19.5092 C   0  0  0  0  0  0
  -23.6144  -29.8326   20.1625 C   0  0  0  0  0  0
  -25.4064  -36.3063   24.0354 C   0  0  1  0  0  0
  -20.5863  -28.3650   23.1307 C   0  0  2  0  0  0
  -20.6749  -26.9379   22.5413 C   0  0  0  0  0  0
  -19.5753  -26.6365   21.5195 C   0  0  0  0  0  0
  -18.1926  -26.7919   22.1580 C   0  0  0  0  0  0
  -19.1515  -28.8816   23.2895 C   0  0  0  0  0  0
  -18.9429  -30.1414   23.8920 C   0  0  0  0  0  0
  -17.6431  -30.6560   24.0544 C   0  0  0  0  0  0
  -25.9060  -34.9454   23.5133 C   0  0  0  0  0  0
  -16.5323  -29.9047   23.6331 C   0  0  0  0  0  0
  -16.7260  -28.6456   23.0386 C   0  0  0  0  0  0
  -26.4514  -31.6579   25.0753 C   0  0  0  0  0  0
  -25.3856  -31.3726   26.1590 C   0  0  0  0  0  0
  -27.0221  -30.2985   24.6111 C   0  0  0  0  0  0
  -27.6155  -32.4265   25.7455 C   0  0  0  0  0  0
  -27.5643  -37.1637   24.8350 C   0  0  0  0  0  0
  -21.4166  -29.3013   22.3710 N   0  0  0  0  0  0
  -26.4161  -37.3847   23.9605 N   0  0  0  0  0  0
  -24.6740  -31.0769   22.1002 N   0  0  0  0  0  0
  -23.4222  -28.8223   23.3023 O   0  0  0  0  0  0
  -28.4052  -26.6795   20.0794 O   0  0  0  0  0  0
  -26.5574  -34.8929   22.4671 O   0  0  0  0  0  0
  -23.5398  -32.1379   23.7539 O   0  0  0  0  0  0
  -29.7166  -17.7805   22.0882 C   0  0  0  0  0  0
  -28.8144  -22.1044   20.5179 C   0  0  0  0  0  0
  -31.1534  -22.6721   21.1386 C   0  0  0  0  0  0
  -28.8526  -20.8789   21.4744 C   0  0  0  0  0  0
  -31.1875  -21.5007   22.1363 C   0  0  0  0  0  0
  -29.7374  -23.2676   20.9600 C   0  0  1  0  0  0
  -30.2804  -20.3133   21.7186 C   0  0  1  0  0  0
  -30.8583  -25.4975   20.2274 C   0  0  0  0  0  0
  -31.8396  -18.7691   23.0726 C   0  0  0  0  0  0
  -29.6532  -19.3816   24.0552 C   0  0  0  0  0  0
  -30.4889  -16.9227   21.0623 C   0  0  0  0  0  0
  -28.3214  -25.2413   19.9498 C   0  0  0  0  0  0
  -29.7003  -24.5049   19.9862 C   0  0  2  0  0  0
  -30.3617  -19.0720   22.7029 C   0  0  0  0  0  0
  -30.0227  -15.5210   21.0715 N   0  0  0  0  0  0
  -28.5802  -17.4211   22.4183 O   0  0  0  0  0  0
  -31.4696  -12.4172   19.1294 H   0  0  0  0  0  0
  -30.3310  -11.3099   19.8421 H   0  0  0  0  0  0
  -29.7380  -11.7413   17.4520 H   0  0  0  0  0  0
  -29.6730  -13.4613   17.7432 H   0  0  0  0  0  0
  -27.8234  -11.3097   18.8163 H   0  0  0  0  0  0
  -27.3699  -12.6370   17.7846 H   0  0  0  0  0  0
  -27.7027  -14.2565   19.5629 H   0  0  0  0  0  0
  -28.6843  -11.9826   21.3571 H   0  0  0  0  0  0
  -28.4643  -13.6316   21.8586 H   0  0  0  0  0  0
  -25.2771   -9.5680   22.4748 H   0  0  0  0  0  0
  -24.0046   -7.4583   22.7386 H   0  0  0  0  0  0
  -21.0863   -8.8798   19.8910 H   0  0  0  0  0  0
  -22.3748  -10.9678   19.6124 H   0  0  0  0  0  0
  -21.1986   -7.6156   23.9750 H   0  0  0  0  0  0
  -21.1427   -6.0478   25.9097 H   0  0  0  0  0  0
  -22.0633   -2.7608   23.2783 H   0  0  0  0  0  0
  -22.4060  -11.9888   22.4817 H   0  0  0  0  0  0
  -21.1091  -13.1252   22.2575 H   0  0  0  0  0  0
  -24.6616  -15.8430   20.4865 H   0  0  0  0  0  0
  -26.2833  -15.6181   20.0588 H   0  0  0  0  0  0
  -26.7182  -32.5501   23.1184 H   0  0  0  0  0  0
  -25.0290  -33.9722   25.0616 H   0  0  0  0  0  0
  -22.6930  -31.3094   21.4178 H   0  0  0  0  0  0
  -23.3895  -35.9419   23.2830 H   0  0  0  0  0  0
  -24.3751  -36.9334   22.2140 H   0  0  0  0  0  0
  -23.6940  -37.6212   23.6888 H   0  0  0  0  0  0
  -26.0632  -31.6007   20.6032 H   0  0  0  0  0  0
  -26.8230  -30.8705   21.9881 H   0  0  0  0  0  0
  -28.1058  -29.0910   21.1305 H   0  0  0  0  0  0
  -25.9843  -25.9535   19.0298 H   0  0  0  0  0  0
  -23.9577  -27.2913   19.0542 H   0  0  0  0  0  0
  -23.7284  -30.6123   19.4070 H   0  0  0  0  0  0
  -22.7370  -29.2558   19.8655 H   0  0  0  0  0  0
  -25.1174  -36.1841   25.0815 H   0  0  0  0  0  0
  -20.9957  -28.3183   24.1423 H   0  0  0  0  0  0
  -20.5635  -26.2253   23.3582 H   0  0  0  0  0  0
  -21.6618  -26.7409   22.1209 H   0  0  0  0  0  0
  -19.6903  -25.6278   21.1225 H   0  0  0  0  0  0
  -19.6743  -27.3154   20.6706 H   0  0  0  0  0  0
  -17.4232  -26.6718   21.3936 H   0  0  0  0  0  0
  -18.0277  -26.0023   22.8933 H   0  0  0  0  0  0
  -19.7913  -30.7189   24.2332 H   0  0  0  0  0  0
  -17.4996  -31.6245   24.5114 H   0  0  0  0  0  0
  -15.5317  -30.2930   23.7656 H   0  0  0  0  0  0
  -15.8664  -28.0733   22.7138 H   0  0  0  0  0  0
  -24.5961  -30.7111   25.8018 H   0  0  0  0  0  0
  -24.9142  -32.2889   26.5151 H   0  0  0  0  0  0
  -25.8299  -30.8854   27.0285 H   0  0  0  0  0  0
  -26.2627  -29.6807   24.1291 H   0  0  0  0  0  0
  -27.4052  -29.7222   25.4545 H   0  0  0  0  0  0
  -27.8518  -30.4218   23.9146 H   0  0  0  0  0  0
  -27.2845  -33.3640   26.1933 H   0  0  0  0  0  0
  -28.3986  -32.6662   25.0252 H   0  0  0  0  0  0
  -28.0768  -31.8428   26.5430 H   0  0  0  0  0  0
  -28.2197  -38.0354   24.8117 H   0  0  0  0  0  0
  -28.1550  -36.3020   24.5201 H   0  0  0  0  0  0
  -27.2574  -37.0100   25.8710 H   0  0  0  0  0  0
  -20.9328  -29.8741   21.6936 H   0  0  0  0  0  0
  -26.0006  -38.2789   24.2080 H   0  0  0  0  0  0
  -27.7833  -22.4529   20.4396 H   0  0  0  0  0  0
  -29.0954  -21.7831   19.5160 H   0  0  0  0  0  0
  -31.5441  -22.3487   20.1729 H   0  0  0  0  0  0
  -31.8445  -23.4258   21.5117 H   0  0  0  0  0  0
  -28.2036  -20.0977   21.0772 H   0  0  0  0  0  0
  -28.4101  -21.1823   22.4230 H   0  0  0  0  0  0
  -30.8972  -21.8742   23.1189 H   0  0  0  0  0  0
  -32.2266  -21.1859   22.2302 H   0  0  0  0  0  0
  -29.4056  -23.6122   21.9393 H   0  0  0  0  0  0
  -30.6516  -19.9680   20.7501 H   0  0  0  0  0  0
  -31.8281  -25.0432   20.0254 H   0  0  0  0  0  0
  -30.8588  -25.8689   21.2512 H   0  0  0  0  0  0
  -30.7966  -26.3597   19.5616 H   0  0  0  0  0  0
  -32.4992  -18.8149   22.2046 H   0  0  0  0  0  0
  -31.9583  -17.7852   23.5294 H   0  0  0  0  0  0
  -32.2263  -19.4870   23.7984 H   0  0  0  0  0  0
  -28.5674  -19.4470   23.9730 H   0  0  0  0  0  0
  -29.9926  -20.3160   24.5019 H   0  0  0  0  0  0
  -29.8675  -18.5996   24.7873 H   0  0  0  0  0  0
  -31.5603  -16.9579   21.2554 H   0  0  0  0  0  0
  -30.3403  -17.3413   20.0654 H   0  0  0  0  0  0
  -27.6742  -24.8638   20.7426 H   0  0  0  0  0  0
  -27.8513  -24.9742   19.0025 H   0  0  0  0  0  0
  -29.8689  -24.1152   18.9798 H   0  0  0  0  0  0
  -29.0822  -15.3687   21.4050 H   0  0  0  0  0  0
  1 25  1  0  0  0
  1 30  2  0  0  0
  1 85  1  0  0  0
  2  3  1  0  0  0
  2 25  1  0  0  0
  2 87  1  0  0  0
  2 88  1  0  0  0
  3  4  1  0  0  0
  3 89  1  0  0  0
  3 90  1  0  0  0
  4  5  1  0  0  0
  4 91  1  0  0  0
  4 92  1  0  0  0
  5  6  1  0  0  0
  5 26  1  0  0  0
  5 93  1  0  0  0
  6 25  1  0  0  0
  6 94  1  0  0  0
  6 95  1  0  0  0
  7  8  2  0  0  0
  7 26  1  0  0  0
  7 29  1  0  0  0
  8  9  1  0  0  0
  8 22  1  0  0  0
  9 10  1  0  0  0
  9 27  2  0  0  0
 10 11  2  0  0  0
 10 15  1  0  0  0
 11 12  1  0  0  0
 11 96  1  0  0  0
 12 13  2  0  0  0
 12 97  1  0  0  0
 13 14  1  0  0  0
 13 31  1  0  0  0
 14 15  2  0  0  0
 14 98  1  0  0  0
 15 99  1  0  0  0
 16 17  2  0  0  0
 16 21  1  0  0  0
 16 31  1  0  0  0
 17 18  1  0  0  0
 17100  1  0  0  0
 18 19  2  0  0  0
 18101  1  0  0  0
 19 20  1  0  0  0
 19 24  1  0  0  0
 20 21  2  0  0  0
 20102  1  0  0  0
 21 23  1  0  0  0
 22 28  1  0  0  0
 22 32  2  0  0  0
 26 27  1  0  0  0
 28103  1  0  0  0
 28104  1  0  0  0
 29105  1  0  0  0
 29106  1  0  0  0
 33 34  1  0  0  0
 33 66  1  0  0  0
 33 70  2  0  0  0
 34 36  1  0  0  0
 34 59  1  0  0  0
 34107  1  0  0  0
 35 44  2  0  0  0
 35 45  1  0  0  0
 35 68  1  0  0  0
 36 56  1  0  0  0
 36108  1  0  0  0
 37 39  1  0  0  0
 37 47  1  0  0  0
 37 66  1  0  0  0
 37109  1  0  0  0
 38 43  2  0  0  0
 38 46  1  0  0  0
 38 47  1  0  0  0
 39 64  1  0  0  0
 39 67  2  0  0  0
 40 52  1  0  0  0
 40 53  2  0  0  0
 40 58  1  0  0  0
 41110  1  0  0  0
 41111  1  0  0  0
 41112  1  0  0  0
 41 48  1  0  0  0
 42 43  1  0  0  0
 42 66  1  0  0  0
 42113  1  0  0  0
 42114  1  0  0  0
 43 44  1  0  0  0
 44115  1  0  0  0
 45 46  2  0  0  0
 45116  1  0  0  0
 46117  1  0  0  0
 47118  1  0  0  0
 47119  1  0  0  0
 48 56  1  0  0  0
 48 65  1  0  0  0
 48120  1  0  0  0
 49 50  1  0  0  0
 49 53  1  0  0  0
 49 64  1  0  0  0
 49121  1  0  0  0
 50 51  1  0  0  0
 50122  1  0  0  0
 50123  1  0  0  0
 51 52  1  0  0  0
 51124  1  0  0  0
 51125  1  0  0  0
 52126  1  0  0  0
 52127  1  0  0  0
 53 54  1  0  0  0
 54 55  2  0  0  0
 54128  1  0  0  0
 55 57  1  0  0  0
 55129  1  0  0  0
 56 69  2  0  0  0
 57 58  2  0  0  0
 57130  1  0  0  0
 58131  1  0  0  0
 59 60  1  0  0  0
 59 61  1  0  0  0
 59 62  1  0  0  0
 60132  1  0  0  0
 60133  1  0  0  0
 60134  1  0  0  0
 61135  1  0  0  0
 61136  1  0  0  0
 61137  1  0  0  0
 62138  1  0  0  0
 62139  1  0  0  0
 62140  1  0  0  0
 63 65  1  0  0  0
 63141  1  0  0  0
 63142  1  0  0  0
 63143  1  0  0  0
 64144  1  0  0  0
 65145  1  0  0  0
 68 82  1  0  0  0
 71 81  1  0  0  0
 71 84  1  0  0  0
 71 86  2  0  0  0
 72 74  1  0  0  0
 72146  1  0  0  0
 72147  1  0  0  0
 72 76  1  0  0  0
 73 75  1  0  0  0
 73 76  1  0  0  0
 73148  1  0  0  0
 73149  1  0  0  0
 74150  1  0  0  0
 74151  1  0  0  0
 74 77  1  0  0  0
 75 77  1  0  0  0
 75152  1  0  0  0
 75153  1  0  0  0
 76 83  1  0  0  0
 76154  1  0  0  0
 77 84  1  0  0  0
 77155  1  0  0  0
 78156  1  0  0  0
 78157  1  0  0  0
 78158  1  0  0  0
 78 83  1  0  0  0
 79159  1  0  0  0
 79160  1  0  0  0
 79161  1  0  0  0
 79 84  1  0  0  0
 80 84  1  0  0  0
 80162  1  0  0  0
 80163  1  0  0  0
 80164  1  0  0  0
 81 85  1  0  0  0
 81165  1  0  0  0
 81166  1  0  0  0
 82 83  1  0  0  0
 82167  1  0  0  0
 82168  1  0  0  0
 83169  1  0  0  0
 85170  1  0  0  0
M  ISO  4   1 100  68 101  82 101  85 100
M  END
> <chiral flag>
0

> <version>
0

> <s_m_source_file>
/data/baiqing/PycharmProjects/Reinvent-master-3.2/result/LINK_invent/BTK/process_docking_weight1_custom_sum_contain_oxygen_bond_distance_aromatic_linkinvent_7_9_3/rearranged_h_0112.sdf

> <i_m_source_file_index>
49

> <r_mmod_Potential_Energy-OPLS-2005>
-24.3967838287354

> <r_mmod_Stretch_Energy-OPLS-2005>
50.4368286132812

> <r_mmod_Bend_Energy-OPLS-2005>
113.684036254883

> <r_mmod_Torsional_Energy-OPLS-2005>
257.439453125

> <r_mmod_Improper_Torsional_Energy-OPLS-2005>
3.72334504127502

> <r_mmod_Van_der_Waal_Energy-OPLS-2005>
156.959396362305

> <r_mmod_Electrostatic_Energy-OPLS-2005>
-428.788177490234

> <r_mmod_Solvation_Energy-OPLS-2005>
-193.74658203125

> <b_mmod_Minimization_Converged-OPLS-2005>
0

> <r_mmod_RMS_Derivative-OPLS-2005>
4.2377815246582

$$$$
49
                    3D
 Structure written by MMmdl.
160168  0  0  1  0            999 V2000
  -30.5314  -14.9521   20.4138 C   0  0  0  0  0  0
  -30.4401  -12.5869   19.5052 C   0  0  0  0  0  0
  -29.5226  -12.5296   18.2611 C   0  0  0  0  0  0
  -28.0555  -12.3152   18.6774 C   0  0  0  0  0  0
  -27.6307  -13.2475   19.8422 C   0  0  2  0  0  0
  -28.6716  -13.2729   20.9820 C   0  0  0  0  0  0
  -25.2460  -13.8217   20.5713 C   0  0  0  0  0  0
  -24.1776  -13.0440   20.9231 C   0  0  0  0  0  0
  -24.6391  -11.6927   20.8758 C   0  0  0  0  0  0
  -23.9077  -10.4295   21.0410 C   0  0  0  0  0  0
  -24.3626   -9.4208   21.9185 C   0  0  0  0  0  0
  -23.6299   -8.2244   22.0752 C   0  0  0  0  0  0
  -22.4281   -8.0284   21.3543 C   0  0  0  0  0  0
  -21.9920   -9.0258   20.4645 C   0  0  0  0  0  0
  -22.7250  -10.2136   20.3057 C   0  0  0  0  0  0
  -21.6853   -6.0739   22.5278 C   0  0  0  0  0  0
  -21.4015   -6.5641   23.8212 C   0  0  0  0  0  0
  -21.3660   -5.6794   24.9175 C   0  0  0  0  0  0
  -21.6043   -4.3057   24.7225 C   0  0  0  0  0  0
  -21.8821   -3.8149   23.4347 C   0  0  0  0  0  0
  -21.9193   -4.6966   22.3402 C   0  0  0  0  0  0
  -22.7796  -13.5209   21.1887 C   0  0  0  0  0  0
  -22.1661   -4.2151   21.0981 F   0  0  0  0  0  0
  -21.5627   -3.4540   25.7738 F   0  0  0  0  0  0
  -29.9486  -13.6853   20.3870 N   0  0  0  0  0  0
  -26.2886  -12.9447   20.3262 N   0  0  0  0  0  0
  -25.9322  -11.6576   20.5749 N   0  0  0  0  0  0
  -22.0448  -12.8194   22.0442 N   0  0  0  0  0  0
  -25.4117  -15.1945   20.4121 N   0  0  0  0  0  0
  -31.7283  -15.0253   20.1171 O   0  0  0  0  0  0
  -21.6641   -6.8882   21.4241 O   0  0  0  0  0  0
  -22.3476  -14.5513   20.6734 O   0  0  0  0  0  0
  -24.6450  -31.8427   23.1871 C   0  0  0  0  0  0
  -25.9222  -32.4682   23.8268 C   0  0  1  0  0  0
  -27.2162  -27.1212   20.1533 C   0  0  0  0  0  0
  -25.5963  -33.8489   24.2183 N   0  0  0  0  0  0
  -23.4489  -30.4605   21.5333 C   0  0  2  0  0  0
  -24.8988  -28.8851   20.1080 C   0  0  0  0  0  0
  -22.7575  -29.4531   22.4863 C   0  0  0  0  0  0
  -18.0304  -28.1387   22.8472 C   0  0  0  0  0  0
  -24.1489  -36.7247   23.2638 C   0  0  0  0  0  0
  -26.0054  -30.7088   21.3904 C   0  0  0  0  0  0
  -26.0748  -29.3193   20.7317 C   0  0  0  0  0  0
  -27.2321  -28.4519   20.7406 C   0  0  0  0  0  0
  -26.0199  -26.7987   19.4750 C   0  0  0  0  0  0
  -24.8848  -27.6390   19.4640 C   0  0  0  0  0  0
  -23.6759  -29.7890   20.1526 C   0  0  0  0  0  0
  -25.4121  -36.3021   24.0309 C   0  0  1  0  0  0
  -20.5917  -28.3717   23.1226 C   0  0  2  0  0  0
  -20.6788  -26.9419   22.5401 C   0  0  0  0  0  0
  -19.5762  -26.6376   21.5208 C   0  0  0  0  0  0
  -18.1942  -26.7924   22.1616 C   0  0  0  0  0  0
  -19.1561  -28.8874   23.2836 C   0  0  0  0  0  0
  -18.9478  -30.1470   23.8859 C   0  0  0  0  0  0
  -17.6473  -30.6585   24.0555 C   0  0  0  0  0  0
  -25.9077  -34.9397   23.5056 C   0  0  0  0  0  0
  -16.5365  -29.9077   23.6333 C   0  0  0  0  0  0
  -16.7287  -28.6496   23.0354 C   0  0  0  0  0  0
  -26.4539  -31.6560   25.0723 C   0  0  0  0  0  0
  -25.3716  -31.3751   26.1415 C   0  0  0  0  0  0
  -27.0420  -30.2948   24.6334 C   0  0  0  0  0  0
  -27.6058  -32.4347   25.7510 C   0  0  0  0  0  0
  -27.5575  -37.1773   24.8462 C   0  0  0  0  0  0
  -21.4267  -29.3043   22.3605 N   0  0  0  0  0  0
  -26.4281  -37.3739   23.9410 N   0  0  0  0  0  0
  -24.7194  -31.0261   22.0914 N   0  0  0  0  0  0
  -23.4205  -28.8084   23.3028 O   0  0  0  0  0  0
  -28.2631  -26.1284   20.2540 O   0  0  0  0  0  0
  -26.5668  -34.8899   22.4638 O   0  0  0  0  0  0
  -23.5564  -32.1331   23.7065 O   0  0  0  0  0  0
  -28.7398  -20.6814   22.4961 C   0  0  0  0  0  0
  -29.0442  -19.6668   23.3289 C   0  0  0  0  0  0
  -29.0870  -20.3554   21.1537 C   0  0  0  0  0  0
  -29.4975  -18.9360   21.2077 C   0  0  0  0  0  0
  -28.9901  -16.5184   23.7053 C   0  0  0  0  0  0
  -31.0305  -17.8215   24.4619 C   0  0  0  0  0  0
  -28.8241  -21.6349   20.1322 C   0  0  0  0  0  0
  -29.9642  -17.6727   20.2584 C   0  0  0  0  0  0
  -28.8735  -23.2774   20.6152 C   0  0  0  0  0  0
  -28.0612  -24.6054   19.9476 C   0  0  0  0  0  0
  -30.1285  -17.4562   23.2673 C   0  0  0  0  0  0
  -29.5933  -18.6479   22.5916 N   0  0  0  0  0  0
  -29.7380  -16.1256   20.5626 N   0  0  0  0  0  0
  -31.4741  -12.7440   19.1943 H   0  0  0  0  0  0
  -30.4325  -11.6345   20.0377 H   0  0  0  0  0  0
  -29.8423  -11.7317   17.5892 H   0  0  0  0  0  0
  -29.6111  -13.4598   17.6978 H   0  0  0  0  0  0
  -27.9512  -11.2739   18.9847 H   0  0  0  0  0  0
  -27.3930  -12.4479   17.8212 H   0  0  0  0  0  0
  -27.5957  -14.2504   19.4154 H   0  0  0  0  0  0
  -28.7565  -12.2958   21.4603 H   0  0  0  0  0  0
  -28.3703  -13.9729   21.7625 H   0  0  0  0  0  0
  -25.2766   -9.5684   22.4765 H   0  0  0  0  0  0
  -24.0006   -7.4634   22.7470 H   0  0  0  0  0  0
  -21.0852   -8.8781   19.8947 H   0  0  0  0  0  0
  -22.3707  -10.9679   19.6170 H   0  0  0  0  0  0
  -21.2009   -7.6149   23.9719 H   0  0  0  0  0  0
  -21.1477   -6.0522   25.9079 H   0  0  0  0  0  0
  -22.0599   -2.7611   23.2848 H   0  0  0  0  0  0
  -22.4075  -11.9859   22.4829 H   0  0  0  0  0  0
  -21.1062  -13.1207   22.2651 H   0  0  0  0  0  0
  -24.6395  -15.8427   20.5219 H   0  0  0  0  0  0
  -26.2491  -15.6375   20.0578 H   0  0  0  0  0  0
  -26.7289  -32.5279   23.0997 H   0  0  0  0  0  0
  -25.0092  -33.9597   25.0319 H   0  0  0  0  0  0
  -22.7522  -31.2866   21.3772 H   0  0  0  0  0  0
  -23.3758  -35.9570   23.3284 H   0  0  0  0  0  0
  -24.3566  -36.8912   22.2057 H   0  0  0  0  0  0
  -23.7247  -37.6432   23.6700 H   0  0  0  0  0  0
  -26.1675  -31.4610   20.6172 H   0  0  0  0  0  0
  -26.8730  -30.7559   22.0365 H   0  0  0  0  0  0
  -28.1241  -28.7751   21.2585 H   0  0  0  0  0  0
  -25.9253  -25.8531   18.9633 H   0  0  0  0  0  0
  -23.9888  -27.3041   18.9597 H   0  0  0  0  0  0
  -23.8133  -30.5634   19.3973 H   0  0  0  0  0  0
  -22.7900  -29.2327   19.8416 H   0  0  0  0  0  0
  -25.1305  -36.1842   25.0799 H   0  0  0  0  0  0
  -20.9999  -28.3316   24.1352 H   0  0  0  0  0  0
  -20.5681  -26.2332   23.3623 H   0  0  0  0  0  0
  -21.6654  -26.7422   22.1199 H   0  0  0  0  0  0
  -19.6923  -25.6281   21.1255 H   0  0  0  0  0  0
  -19.6699  -27.3170   20.6725 H   0  0  0  0  0  0
  -17.4212  -26.6672   21.4017 H   0  0  0  0  0  0
  -18.0335  -26.0066   22.9011 H   0  0  0  0  0  0
  -19.7955  -30.7295   24.2214 H   0  0  0  0  0  0
  -17.5026  -31.6256   24.5172 H   0  0  0  0  0  0
  -15.5363  -30.2965   23.7677 H   0  0  0  0  0  0
  -15.8687  -28.0802   22.7090 H   0  0  0  0  0  0
  -24.5894  -30.7106   25.7735 H   0  0  0  0  0  0
  -24.8904  -32.2931   26.4793 H   0  0  0  0  0  0
  -25.7989  -30.8953   27.0229 H   0  0  0  0  0  0
  -26.3050  -29.6653   24.1333 H   0  0  0  0  0  0
  -27.4014  -29.7267   25.4925 H   0  0  0  0  0  0
  -27.8965  -30.4178   23.9678 H   0  0  0  0  0  0
  -27.2641  -33.3675   26.2009 H   0  0  0  0  0  0
  -28.3902  -32.6877   25.0366 H   0  0  0  0  0  0
  -28.0692  -31.8536   26.5494 H   0  0  0  0  0  0
  -28.2569  -38.0089   24.7521 H   0  0  0  0  0  0
  -28.1099  -36.2619   24.6277 H   0  0  0  0  0  0
  -27.2290  -37.1404   25.8863 H   0  0  0  0  0  0
  -20.9494  -29.8762   21.6779 H   0  0  0  0  0  0
  -26.0145  -38.2803   24.1426 H   0  0  0  0  0  0
  -28.3202  -21.6086   22.8563 H   0  0  0  0  0  0
  -28.9451  -19.6002   24.4042 H   0  0  0  0  0  0
  -29.3821  -15.5839   24.1065 H   0  0  0  0  0  0
  -28.3281  -16.2711   22.8767 H   0  0  0  0  0  0
  -28.3761  -16.9777   24.4805 H   0  0  0  0  0  0
  -31.5404  -16.9367   24.8443 H   0  0  0  0  0  0
  -30.4712  -18.2489   25.2939 H   0  0  0  0  0  0
  -31.7984  -18.5381   24.1688 H   0  0  0  0  0  0
  -27.8285  -21.4626   19.7227 H   0  0  0  0  0  0
  -29.4941  -21.5128   19.2807 H   0  0  0  0  0  0
  -31.0354  -17.7836   20.0848 H   0  0  0  0  0  0
  -29.5221  -17.8341   19.2750 H   0  0  0  0  0  0
  -29.9297  -23.5438   20.6509 H   0  0  0  0  0  0
  -28.5658  -23.3133   21.6563 H   0  0  0  0  0  0
  -27.0107  -24.3879   20.1376 H   0  0  0  0  0  0
  -28.1709  -24.5227   18.8662 H   0  0  0  0  0  0
  -30.8049  -16.9389   22.5952 H   0  0  0  0  0  0
  -28.7791  -15.9141   20.7894 H   0  0  0  0  0  0
  1 25  1  0  0  0
  1 30  2  0  0  0
  1 83  1  0  0  0
  2  3  1  0  0  0
  2 25  1  0  0  0
  2 84  1  0  0  0
  2 85  1  0  0  0
  3  4  1  0  0  0
  3 86  1  0  0  0
  3 87  1  0  0  0
  4  5  1  0  0  0
  4 88  1  0  0  0
  4 89  1  0  0  0
  5  6  1  0  0  0
  5 26  1  0  0  0
  5 90  1  0  0  0
  6 25  1  0  0  0
  6 91  1  0  0  0
  6 92  1  0  0  0
  7  8  2  0  0  0
  7 26  1  0  0  0
  7 29  1  0  0  0
  8  9  1  0  0  0
  8 22  1  0  0  0
  9 10  1  0  0  0
  9 27  2  0  0  0
 10 11  2  0  0  0
 10 15  1  0  0  0
 11 12  1  0  0  0
 11 93  1  0  0  0
 12 13  2  0  0  0
 12 94  1  0  0  0
 13 14  1  0  0  0
 13 31  1  0  0  0
 14 15  2  0  0  0
 14 95  1  0  0  0
 15 96  1  0  0  0
 16 17  2  0  0  0
 16 21  1  0  0  0
 16 31  1  0  0  0
 17 18  1  0  0  0
 17 97  1  0  0  0
 18 19  2  0  0  0
 18 98  1  0  0  0
 19 20  1  0  0  0
 19 24  1  0  0  0
 20 21  2  0  0  0
 20 99  1  0  0  0
 21 23  1  0  0  0
 22 28  1  0  0  0
 22 32  2  0  0  0
 26 27  1  0  0  0
 28100  1  0  0  0
 28101  1  0  0  0
 29102  1  0  0  0
 29103  1  0  0  0
 33 34  1  0  0  0
 33 66  1  0  0  0
 33 70  2  0  0  0
 34 36  1  0  0  0
 34 59  1  0  0  0
 34104  1  0  0  0
 35 44  2  0  0  0
 35 45  1  0  0  0
 35 68  1  0  0  0
 36 56  1  0  0  0
 36105  1  0  0  0
 37 39  1  0  0  0
 37 47  1  0  0  0
 37 66  1  0  0  0
 37106  1  0  0  0
 38 43  2  0  0  0
 38 46  1  0  0  0
 38 47  1  0  0  0
 39 64  1  0  0  0
 39 67  2  0  0  0
 40 52  1  0  0  0
 40 53  2  0  0  0
 40 58  1  0  0  0
 41107  1  0  0  0
 41108  1  0  0  0
 41109  1  0  0  0
 41 48  1  0  0  0
 42 43  1  0  0  0
 42 66  1  0  0  0
 42110  1  0  0  0
 42111  1  0  0  0
 43 44  1  0  0  0
 44112  1  0  0  0
 45 46  2  0  0  0
 45113  1  0  0  0
 46114  1  0  0  0
 47115  1  0  0  0
 47116  1  0  0  0
 48 56  1  0  0  0
 48 65  1  0  0  0
 48117  1  0  0  0
 49 50  1  0  0  0
 49 53  1  0  0  0
 49 64  1  0  0  0
 49118  1  0  0  0
 50 51  1  0  0  0
 50119  1  0  0  0
 50120  1  0  0  0
 51 52  1  0  0  0
 51121  1  0  0  0
 51122  1  0  0  0
 52123  1  0  0  0
 52124  1  0  0  0
 53 54  1  0  0  0
 54 55  2  0  0  0
 54125  1  0  0  0
 55 57  1  0  0  0
 55126  1  0  0  0
 56 69  2  0  0  0
 57 58  2  0  0  0
 57127  1  0  0  0
 58128  1  0  0  0
 59 60  1  0  0  0
 59 61  1  0  0  0
 59 62  1  0  0  0
 60129  1  0  0  0
 60130  1  0  0  0
 60131  1  0  0  0
 61132  1  0  0  0
 61133  1  0  0  0
 61134  1  0  0  0
 62135  1  0  0  0
 62136  1  0  0  0
 62137  1  0  0  0
 63 65  1  0  0  0
 63138  1  0  0  0
 63139  1  0  0  0
 63140  1  0  0  0
 64141  1  0  0  0
 65142  1  0  0  0
 68 80  1  0  0  0
 71 72  2  0  0  0
 71 73  1  0  0  0
 71143  1  0  0  0
 72 82  1  0  0  0
 72144  1  0  0  0
 73 74  2  0  0  0
 73 77  1  0  0  0
 74 78  1  0  0  0
 74 82  1  0  0  0
 75145  1  0  0  0
 75146  1  0  0  0
 75147  1  0  0  0
 75 81  1  0  0  0
 76 81  1  0  0  0
 76148  1  0  0  0
 76149  1  0  0  0
 76150  1  0  0  0
 77 79  1  0  0  0
 77151  1  0  0  0
 77152  1  0  0  0
 78 83  1  0  0  0
 78153  1  0  0  0
 78154  1  0  0  0
 79 80  1  0  0  0
 79155  1  0  0  0
 79156  1  0  0  0
 80157  1  0  0  0
 80158  1  0  0  0
 81 82  1  0  0  0
 81159  1  0  0  0
 83160  1  0  0  0
M  ISO  4   1 100  68 101  80 101  83 100
M  END
> <chiral flag>
0

> <version>
0

> <s_m_source_file>
/data/baiqing/PycharmProjects/Reinvent-master-3.2/result/LINK_invent/BTK/process_docking_weight1_custom_sum_contain_oxygen_bond_distance_aromatic_linkinvent_7_9_3/rearranged_h_0112.sdf

> <i_m_source_file_index>
50

> <r_mmod_Potential_Energy-OPLS-2005>
514.682495117188

> <r_mmod_Stretch_Energy-OPLS-2005>
303.381927490234

> <r_mmod_Bend_Energy-OPLS-2005>
294.542846679688

> <r_mmod_Torsional_Energy-OPLS-2005>
236.70751953125

> <r_mmod_Improper_Torsional_Energy-OPLS-2005>
5.29834032058716

> <r_mmod_Van_der_Waal_Energy-OPLS-2005>
120.554069519043

> <r_mmod_Electrostatic_Energy-OPLS-2005>
-439.123229980469

> <r_mmod_Solvation_Energy-OPLS-2005>
-208.410842895508

> <b_mmod_Minimization_Converged-OPLS-2005>
0

> <r_mmod_RMS_Derivative-OPLS-2005>
0.682401180267334

$$$$
50
                    3D
 Structure written by MMmdl.
174182  0  0  1  0            999 V2000
  -30.6728  -14.6859   20.4516 C   0  0  0  0  0  0
  -30.4349  -12.4214   19.4732 C   0  0  0  0  0  0
  -29.5167  -12.4861   18.2370 C   0  0  0  0  0  0
  -28.0439  -12.3270   18.6542 C   0  0  0  0  0  0
  -27.6438  -13.2390   19.8501 C   0  0  2  0  0  0
  -28.6919  -13.1701   20.9814 C   0  0  0  0  0  0
  -25.2455  -13.8227   20.5651 C   0  0  0  0  0  0
  -24.1766  -13.0399   20.9189 C   0  0  0  0  0  0
  -24.6401  -11.6921   20.8759 C   0  0  0  0  0  0
  -23.9062  -10.4303   21.0442 C   0  0  0  0  0  0
  -24.3607   -9.4208   21.9195 C   0  0  0  0  0  0
  -23.6289   -8.2245   22.0771 C   0  0  0  0  0  0
  -22.4272   -8.0271   21.3558 C   0  0  0  0  0  0
  -21.9904   -9.0241   20.4648 C   0  0  0  0  0  0
  -22.7236  -10.2115   20.3070 C   0  0  0  0  0  0
  -21.6868   -6.0746   22.5295 C   0  0  0  0  0  0
  -21.4008   -6.5639   23.8226 C   0  0  0  0  0  0
  -21.3665   -5.6794   24.9179 C   0  0  0  0  0  0
  -21.6049   -4.3059   24.7244 C   0  0  0  0  0  0
  -21.8805   -3.8157   23.4373 C   0  0  0  0  0  0
  -21.9172   -4.6969   22.3426 C   0  0  0  0  0  0
  -22.7789  -13.5158   21.1893 C   0  0  0  0  0  0
  -22.1614   -4.2174   21.1013 F   0  0  0  0  0  0
  -21.5659   -3.4522   25.7753 F   0  0  0  0  0  0
  -29.9968  -13.4934   20.3894 N   0  0  0  0  0  0
  -26.2925  -12.9435   20.3273 N   0  0  0  0  0  0
  -25.9338  -11.6571   20.5750 N   0  0  0  0  0  0
  -22.0424  -12.8166   22.0447 N   0  0  0  0  0  0
  -25.4020  -15.1960   20.4105 N   0  0  0  0  0  0
  -31.8789  -14.7144   20.1952 O   0  0  0  0  0  0
  -21.6605   -6.8885   21.4270 O   0  0  0  0  0  0
  -22.3420  -14.5451   20.6761 O   0  0  0  0  0  0
  -24.6143  -31.8695   23.2061 C   0  0  0  0  0  0
  -25.9007  -32.4830   23.8368 C   0  0  1  0  0  0
  -27.2129  -27.3979   20.1088 C   0  0  0  0  0  0
  -25.5844  -33.8623   24.2306 N   0  0  0  0  0  0
  -23.4015  -30.4941   21.5502 C   0  0  2  0  0  0
  -24.8427  -28.9588   20.1101 C   0  0  0  0  0  0
  -22.7394  -29.4691   22.4981 C   0  0  0  0  0  0
  -18.0268  -28.1403   22.8501 C   0  0  0  0  0  0
  -24.1492  -36.7343   23.2643 C   0  0  0  0  0  0
  -25.9310  -30.8276   21.3567 C   0  0  0  0  0  0
  -26.0081  -29.4569   20.7086 C   0  0  0  0  0  0
  -27.1993  -28.6868   20.6991 C   0  0  0  0  0  0
  -26.0320  -26.9256   19.4963 C   0  0  0  0  0  0
  -24.8530  -27.6956   19.4965 C   0  0  0  0  0  0
  -23.6050  -29.8299   20.1645 C   0  0  0  0  0  0
  -25.4113  -36.3135   24.0345 C   0  0  1  0  0  0
  -20.5856  -28.3688   23.1309 C   0  0  2  0  0  0
  -20.6759  -26.9421   22.5420 C   0  0  0  0  0  0
  -19.5737  -26.6403   21.5223 C   0  0  0  0  0  0
  -18.1916  -26.7952   22.1632 C   0  0  0  0  0  0
  -19.1528  -28.8859   23.2919 C   0  0  0  0  0  0
  -18.9451  -30.1464   23.8918 C   0  0  0  0  0  0
  -17.6461  -30.6604   24.0582 C   0  0  0  0  0  0
  -25.9048  -34.9494   23.5145 C   0  0  0  0  0  0
  -16.5346  -29.9111   23.6328 C   0  0  0  0  0  0
  -16.7271  -28.6536   23.0340 C   0  0  0  0  0  0
  -26.4417  -31.6594   25.0686 C   0  0  0  0  0  0
  -25.3657  -31.3676   26.1416 C   0  0  0  0  0  0
  -27.0235  -30.3038   24.6027 C   0  0  0  0  0  0
  -27.6016  -32.4272   25.7444 C   0  0  0  0  0  0
  -27.5605  -37.1808   24.8450 C   0  0  0  0  0  0
  -21.4126  -29.3061   22.3715 N   0  0  0  0  0  0
  -26.4294  -37.3799   23.9434 N   0  0  0  0  0  0
  -24.6690  -31.0762   22.0981 N   0  0  0  0  0  0
  -23.4149  -28.8235   23.3042 O   0  0  0  0  0  0
  -28.3411  -26.5932   20.1166 O   0  0  0  0  0  0
  -26.5638  -34.8939   22.4736 O   0  0  0  0  0  0
  -23.5340  -32.1443   23.7463 O   0  0  0  0  0  0
  -29.4364  -18.1172   21.3249 C   0  0  0  0  0  0
  -29.0737  -16.5922   21.1461 C   0  0  0  0  0  0
  -30.1793  -16.6228   18.9555 C   0  0  0  0  0  0
  -29.5645  -18.9636   20.0147 C   0  0  2  0  0  0
  -30.5552  -18.1506   19.1084 C   0  0  2  0  0  0
  -31.1055  -21.1516   19.6201 C   0  0  0  0  0  0
  -28.8866  -25.6284   22.2334 C   0  0  0  0  0  0
  -32.0329  -18.3352   17.1067 C   0  0  0  0  0  0
  -29.6586  -18.8169   16.8105 C   0  0  0  0  0  0
  -28.6333  -21.4861   20.1455 C   0  0  0  0  0  0
  -28.7698  -24.0812   20.1183 C   0  0  0  0  0  0
  -29.8752  -20.5202   20.3328 C   0  0  1  0  0  0
  -28.2246  -25.3533   20.8716 C   0  0  2  0  0  0
  -29.9492  -15.8465   20.2055 N   0  0  0  0  0  0
  -28.6625  -22.7912   20.8937 N   0  3  0  0  0  0
  -30.7906  -18.7968   17.7727 N   0  3  0  0  0  0
  -31.4727  -12.5313   19.1570 H   0  0  0  0  0  0
  -30.3769  -11.4510   19.9703 H   0  0  0  0  0  0
  -29.7931  -11.7069   17.5255 H   0  0  0  0  0  0
  -29.6637  -13.4395   17.7230 H   0  0  0  0  0  0
  -27.9103  -11.2827   18.9333 H   0  0  0  0  0  0
  -27.4034  -12.5052   17.7930 H   0  0  0  0  0  0
  -27.6340  -14.2580   19.4648 H   0  0  0  0  0  0
  -28.7188  -12.1806   21.4372 H   0  0  0  0  0  0
  -28.4447  -13.8696   21.7819 H   0  0  0  0  0  0
  -25.2776   -9.5647   22.4712 H   0  0  0  0  0  0
  -23.9995   -7.4652   22.7503 H   0  0  0  0  0  0
  -21.0829   -8.8766   19.8974 H   0  0  0  0  0  0
  -22.3733  -10.9626   19.6147 H   0  0  0  0  0  0
  -21.1988   -7.6139   23.9733 H   0  0  0  0  0  0
  -21.1481   -6.0533   25.9080 H   0  0  0  0  0  0
  -22.0576   -2.7623   23.2885 H   0  0  0  0  0  0
  -22.3948  -11.9833   22.4887 H   0  0  0  0  0  0
  -21.1059  -13.1243   22.2633 H   0  0  0  0  0  0
  -24.6328  -15.8444   20.5412 H   0  0  0  0  0  0
  -26.2489  -15.6598   20.1123 H   0  0  0  0  0  0
  -26.7076  -32.5523   23.1145 H   0  0  0  0  0  0
  -24.9873  -33.9782   25.0356 H   0  0  0  0  0  0
  -22.6911  -31.3129   21.4168 H   0  0  0  0  0  0
  -23.3764  -35.9665   23.3260 H   0  0  0  0  0  0
  -24.3602  -36.9009   22.2072 H   0  0  0  0  0  0
  -23.7221  -37.6522   23.6686 H   0  0  0  0  0  0
  -26.0262  -31.5866   20.5779 H   0  0  0  0  0  0
  -26.8251  -30.8955   21.9647 H   0  0  0  0  0  0
  -28.0953  -29.0689   21.1660 H   0  0  0  0  0  0
  -26.0155  -25.9542   19.0221 H   0  0  0  0  0  0
  -23.9583  -27.3083   19.0276 H   0  0  0  0  0  0
  -23.7030  -30.6070   19.4072 H   0  0  0  0  0  0
  -22.7242  -29.2548   19.8729 H   0  0  0  0  0  0
  -25.1298  -36.2016   25.0826 H   0  0  0  0  0  0
  -20.9958  -28.3280   24.1430 H   0  0  0  0  0  0
  -20.5671  -26.2317   23.3631 H   0  0  0  0  0  0
  -21.6633  -26.7461   22.1227 H   0  0  0  0  0  0
  -19.6905  -25.6320   21.1262 H   0  0  0  0  0  0
  -19.6683  -27.3217   20.6765 H   0  0  0  0  0  0
  -17.4189  -26.6710   21.4028 H   0  0  0  0  0  0
  -18.0306  -26.0080   22.9011 H   0  0  0  0  0  0
  -19.7922  -30.7295   24.2277 H   0  0  0  0  0  0
  -17.5005  -31.6276   24.5211 H   0  0  0  0  0  0
  -15.5355  -30.3041   23.7618 H   0  0  0  0  0  0
  -15.8662  -28.0883   22.7014 H   0  0  0  0  0  0
  -24.5867  -30.6993   25.7724 H   0  0  0  0  0  0
  -24.8780  -32.2810   26.4831 H   0  0  0  0  0  0
  -25.7977  -30.8858   27.0196 H   0  0  0  0  0  0
  -26.2763  -29.6823   24.1071 H   0  0  0  0  0  0
  -27.4018  -29.7252   25.4470 H   0  0  0  0  0  0
  -27.8591  -30.4395   23.9148 H   0  0  0  0  0  0
  -27.2678  -33.3580   26.2049 H   0  0  0  0  0  0
  -28.3794  -32.6812   25.0223 H   0  0  0  0  0  0
  -28.0696  -31.8340   26.5316 H   0  0  0  0  0  0
  -28.2576  -38.0150   24.7582 H   0  0  0  0  0  0
  -28.1153  -36.2694   24.6176 H   0  0  0  0  0  0
  -27.2340  -37.1337   25.8845 H   0  0  0  0  0  0
  -20.9274  -29.8762   21.6925 H   0  0  0  0  0  0
  -26.0212  -38.2888   24.1426 H   0  0  0  0  0  0
  -30.3783  -18.1734   21.8736 H   0  0  0  0  0  0
  -28.7039  -18.5902   21.9881 H   0  0  0  0  0  0
  -28.0453  -16.5107   20.7857 H   0  0  0  0  0  0
  -29.0859  -16.1164   22.1258 H   0  0  0  0  0  0
  -30.9549  -16.1356   18.3667 H   0  0  0  0  0  0
  -29.2705  -16.5121   18.3631 H   0  0  0  0  0  0
  -28.5902  -18.9274   19.5247 H   0  0  0  0  0  0
  -31.5108  -18.1813   19.6353 H   0  0  0  0  0  0
  -31.9709  -20.4881   19.5622 H   0  0  0  0  0  0
  -31.4504  -22.0297   20.1694 H   0  0  0  0  0  0
  -30.8759  -21.5105   18.6137 H   0  0  0  0  0  0
  -28.8272  -24.7726   22.9059 H   0  0  0  0  0  0
  -28.3708  -26.4512   22.7308 H   0  0  0  0  0  0
  -29.9358  -25.9123   22.1336 H   0  0  0  0  0  0
  -32.8807  -18.3444   17.7918 H   0  0  0  0  0  0
  -32.2844  -18.9823   16.2642 H   0  0  0  0  0  0
  -31.9235  -17.3231   16.7137 H   0  0  0  0  0  0
  -28.7144  -19.1256   17.2565 H   0  0  0  0  0  0
  -29.5204  -17.8511   16.3220 H   0  0  0  0  0  0
  -29.8778  -19.5426   16.0245 H   0  0  0  0  0  0
  -27.7477  -20.9695   20.5140 H   0  0  0  0  0  0
  -28.4290  -21.6626   19.0893 H   0  0  0  0  0  0
  -29.7966  -24.2325   19.7904 H   0  0  0  0  0  0
  -28.1803  -23.9786   19.2095 H   0  0  0  0  0  0
  -30.1274  -20.5506   21.3964 H   0  0  0  0  0  0
  -27.1744  -25.1510   21.0826 H   0  0  0  0  0  0
  -29.3546  -22.7560   21.6264 H   0  0  0  0  0  0
  -27.7681  -22.8352   21.3554 H   0  0  0  0  0  0
  -30.9598  -19.7697   17.9831 H   0  0  0  0  0  0
  1 25  1  0  0  0
  1 30  2  0  0  0
  1 84  1  0  0  0
  2  3  1  0  0  0
  2 25  1  0  0  0
  2 87  1  0  0  0
  2 88  1  0  0  0
  3  4  1  0  0  0
  3 89  1  0  0  0
  3 90  1  0  0  0
  4  5  1  0  0  0
  4 91  1  0  0  0
  4 92  1  0  0  0
  5  6  1  0  0  0
  5 26  1  0  0  0
  5 93  1  0  0  0
  6 25  1  0  0  0
  6 94  1  0  0  0
  6 95  1  0  0  0
  7  8  2  0  0  0
  7 26  1  0  0  0
  7 29  1  0  0  0
  8  9  1  0  0  0
  8 22  1  0  0  0
  9 10  1  0  0  0
  9 27  2  0  0  0
 10 11  2  0  0  0
 10 15  1  0  0  0
 11 12  1  0  0  0
 11 96  1  0  0  0
 12 13  2  0  0  0
 12 97  1  0  0  0
 13 14  1  0  0  0
 13 31  1  0  0  0
 14 15  2  0  0  0
 14 98  1  0  0  0
 15 99  1  0  0  0
 16 17  2  0  0  0
 16 21  1  0  0  0
 16 31  1  0  0  0
 17 18  1  0  0  0
 17100  1  0  0  0
 18 19  2  0  0  0
 18101  1  0  0  0
 19 20  1  0  0  0
 19 24  1  0  0  0
 20 21  2  0  0  0
 20102  1  0  0  0
 21 23  1  0  0  0
 22 28  1  0  0  0
 22 32  2  0  0  0
 26 27  1  0  0  0
 28103  1  0  0  0
 28104  1  0  0  0
 29105  1  0  0  0
 29106  1  0  0  0
 33 34  1  0  0  0
 33 66  1  0  0  0
 33 70  2  0  0  0
 34 36  1  0  0  0
 34 59  1  0  0  0
 34107  1  0  0  0
 35 44  2  0  0  0
 35 45  1  0  0  0
 35 68  1  0  0  0
 36 56  1  0  0  0
 36108  1  0  0  0
 37 39  1  0  0  0
 37 47  1  0  0  0
 37 66  1  0  0  0
 37109  1  0  0  0
 38 43  2  0  0  0
 38 46  1  0  0  0
 38 47  1  0  0  0
 39 64  1  0  0  0
 39 67  2  0  0  0
 40 52  1  0  0  0
 40 53  2  0  0  0
 40 58  1  0  0  0
 41110  1  0  0  0
 41111  1  0  0  0
 41112  1  0  0  0
 41 48  1  0  0  0
 42 43  1  0  0  0
 42 66  1  0  0  0
 42113  1  0  0  0
 42114  1  0  0  0
 43 44  1  0  0  0
 44115  1  0  0  0
 45 46  2  0  0  0
 45116  1  0  0  0
 46117  1  0  0  0
 47118  1  0  0  0
 47119  1  0  0  0
 48 56  1  0  0  0
 48 65  1  0  0  0
 48120  1  0  0  0
 49 50  1  0  0  0
 49 53  1  0  0  0
 49 64  1  0  0  0
 49121  1  0  0  0
 50 51  1  0  0  0
 50122  1  0  0  0
 50123  1  0  0  0
 51 52  1  0  0  0
 51124  1  0  0  0
 51125  1  0  0  0
 52126  1  0  0  0
 52127  1  0  0  0
 53 54  1  0  0  0
 54 55  2  0  0  0
 54128  1  0  0  0
 55 57  1  0  0  0
 55129  1  0  0  0
 56 69  2  0  0  0
 57 58  2  0  0  0
 57130  1  0  0  0
 58131  1  0  0  0
 59 60  1  0  0  0
 59 61  1  0  0  0
 59 62  1  0  0  0
 60132  1  0  0  0
 60133  1  0  0  0
 60134  1  0  0  0
 61135  1  0  0  0
 61136  1  0  0  0
 61137  1  0  0  0
 62138  1  0  0  0
 62139  1  0  0  0
 62140  1  0  0  0
 63 65  1  0  0  0
 63141  1  0  0  0
 63142  1  0  0  0
 63143  1  0  0  0
 64144  1  0  0  0
 65145  1  0  0  0
 68 83  1  0  0  0
 71 72  1  0  0  0
 71146  1  0  0  0
 71147  1  0  0  0
 71 74  1  0  0  0
 72 84  1  0  0  0
 72148  1  0  0  0
 72149  1  0  0  0
 73 84  1  0  0  0
 73150  1  0  0  0
 73151  1  0  0  0
 73 75  1  0  0  0
 74 75  1  0  0  0
 74 82  1  0  0  0
 74152  1  0  0  0
 75 86  1  0  0  0
 75153  1  0  0  0
 76154  1  0  0  0
 76155  1  0  0  0
 76156  1  0  0  0
 76 82  1  0  0  0
 77157  1  0  0  0
 77158  1  0  0  0
 77159  1  0  0  0
 77 83  1  0  0  0
 78160  1  0  0  0
 78161  1  0  0  0
 78162  1  0  0  0
 78 86  1  0  0  0
 79 86  1  0  0  0
 79163  1  0  0  0
 79164  1  0  0  0
 79165  1  0  0  0
 80 82  1  0  0  0
 80 85  1  0  0  0
 80166  1  0  0  0
 80167  1  0  0  0
 81 83  1  0  0  0
 81 85  1  0  0  0
 81168  1  0  0  0
 81169  1  0  0  0
 82170  1  0  0  0
 83171  1  0  0  0
 85172  1  0  0  0
 85173  1  0  0  0
 86174  1  0  0  0
M  CHG  2  85   1  86   1
M  ISO  4   1 100  68 101  83 101  84 100
M  END
> <chiral flag>
0

> <version>
0

> <s_m_source_file>
/data/baiqing/PycharmProjects/Reinvent-master-3.2/result/LINK_invent/BTK/process_docking_weight1_custom_sum_contain_oxygen_bond_distance_aromatic_linkinvent_7_9_3/rearranged_h_0112.sdf

> <i_m_source_file_index>
51

> <r_mmod_Potential_Energy-OPLS-2005>
68.752197265625

> <r_mmod_Stretch_Energy-OPLS-2005>
76.1204986572266

> <r_mmod_Bend_Energy-OPLS-2005>
152.176315307617

> <r_mmod_Torsional_Energy-OPLS-2005>
408.681243896484

> <r_mmod_Improper_Torsional_Energy-OPLS-2005>
20.531192779541

> <r_mmod_Van_der_Waal_Energy-OPLS-2005>
121.062660217285

> <r_mmod_Electrostatic_Energy-OPLS-2005>
127.874443054199

> <r_mmod_Solvation_Energy-OPLS-2005>
-888.313049316406

> <b_mmod_Minimization_Converged-OPLS-2005>
0

> <r_mmod_RMS_Derivative-OPLS-2005>
7.04696130752563

$$$$
51
                    3D
 Structure written by MMmdl.
157165  0  0  1  0            999 V2000
  -30.4002  -15.3324   20.3609 C   0  0  0  0  0  0
  -30.4355  -12.8608   19.5054 C   0  0  0  0  0  0
  -29.5333  -12.5863   18.2754 C   0  0  0  0  0  0
  -28.0893  -12.2867   18.7173 C   0  0  0  0  0  0
  -27.6040  -13.2747   19.8065 C   0  0  2  0  0  0
  -28.6378  -13.4842   20.9316 C   0  0  0  0  0  0
  -25.2380  -13.8219   20.5722 C   0  0  0  0  0  0
  -24.1747  -13.0414   20.9261 C   0  0  0  0  0  0
  -24.6402  -11.6912   20.8753 C   0  0  0  0  0  0
  -23.9091  -10.4282   21.0403 C   0  0  0  0  0  0
  -24.3634   -9.4198   21.9182 C   0  0  0  0  0  0
  -23.6299   -8.2240   22.0757 C   0  0  0  0  0  0
  -22.4277   -8.0282   21.3548 C   0  0  0  0  0  0
  -21.9916   -9.0257   20.4647 C   0  0  0  0  0  0
  -22.7258  -10.2128   20.3055 C   0  0  0  0  0  0
  -21.6849   -6.0737   22.5282 C   0  0  0  0  0  0
  -21.4018   -6.5641   23.8217 C   0  0  0  0  0  0
  -21.3659   -5.6790   24.9178 C   0  0  0  0  0  0
  -21.6047   -4.3054   24.7225 C   0  0  0  0  0  0
  -21.8818   -3.8146   23.4345 C   0  0  0  0  0  0
  -21.9195   -4.6966   22.3404 C   0  0  0  0  0  0
  -22.7772  -13.5185   21.1902 C   0  0  0  0  0  0
  -22.1660   -4.2150   21.0980 F   0  0  0  0  0  0
  -21.5629   -3.4537   25.7738 F   0  0  0  0  0  0
  -29.8503  -14.0150   20.2853 N   0  0  0  0  0  0
  -26.2793  -12.9492   20.3149 N   0  0  0  0  0  0
  -25.9330  -11.6599   20.5674 N   0  0  0  0  0  0
  -22.0421  -12.8167   22.0449 N   0  0  0  0  0  0
  -25.4004  -15.1957   20.4150 N   0  0  0  0  0  0
  -31.6364  -15.3230   20.2516 O   0  0  0  0  0  0
  -21.6637   -6.8880   21.4245 O   0  0  0  0  0  0
  -22.3461  -14.5496   20.6740 O   0  0  0  0  0  0
  -24.6683  -31.8193   23.1656 C   0  0  0  0  0  0
  -25.9339  -32.4564   23.8144 C   0  0  1  0  0  0
  -27.2177  -26.8777   20.1933 C   0  0  0  0  0  0
  -25.5998  -33.8381   24.2052 N   0  0  0  0  0  0
  -23.4849  -30.4289   21.5173 C   0  0  2  0  0  0
  -24.9381  -28.8024   20.1204 C   0  0  0  0  0  0
  -22.7691  -29.4420   22.4776 C   0  0  0  0  0  0
  -18.0329  -28.1408   22.8467 C   0  0  0  0  0  0
  -24.1498  -36.7193   23.2646 C   0  0  0  0  0  0
  -26.0577  -30.6093   21.4034 C   0  0  0  0  0  0
  -26.1255  -29.1924   20.7517 C   0  0  0  0  0  0
  -27.2627  -28.2546   20.7558 C   0  0  0  0  0  0
  -25.9958  -26.6508   19.5193 C   0  0  0  0  0  0
  -24.9003  -27.5518   19.4836 C   0  0  0  0  0  0
  -23.7283  -29.7390   20.1468 C   0  0  0  0  0  0
  -25.4141  -36.2948   24.0292 C   0  0  1  0  0  0
  -20.5957  -28.3770   23.1180 C   0  0  2  0  0  0
  -20.6804  -26.9441   22.5427 C   0  0  0  0  0  0
  -19.5782  -26.6372   21.5233 C   0  0  0  0  0  0
  -18.1965  -26.7940   22.1634 C   0  0  0  0  0  0
  -19.1589  -28.8912   23.2802 C   0  0  0  0  0  0
  -18.9495  -30.1507   23.8830 C   0  0  0  0  0  0
  -17.6481  -30.6604   24.0537 C   0  0  0  0  0  0
  -25.9113  -34.9336   23.4993 C   0  0  0  0  0  0
  -16.5377  -29.9082   23.6331 C   0  0  0  0  0  0
  -16.7307  -28.6498   23.0366 C   0  0  0  0  0  0
  -26.4581  -31.6521   25.0690 C   0  0  0  0  0  0
  -25.3697  -31.3782   26.1335 C   0  0  0  0  0  0
  -27.0488  -30.2881   24.6454 C   0  0  0  0  0  0
  -27.6065  -32.4337   25.7500 C   0  0  0  0  0  0
  -27.5572  -37.1753   24.8470 C   0  0  0  0  0  0
  -21.4359  -29.3040   22.3517 N   0  0  0  0  0  0
  -26.4284  -37.3686   23.9407 N   0  0  0  0  0  0
  -24.7589  -30.9805   22.0821 N   0  0  0  0  0  0
  -23.4218  -28.8004   23.3045 O   0  0  0  0  0  0
  -28.2187  -25.7532   20.1813 O   0  0  0  0  0  0
  -26.5722  -34.8875   22.4588 O   0  0  0  0  0  0
  -23.5741  -32.1187   23.6723 O   0  0  0  0  0  0
  -29.4642  -20.0621   18.7263 C   0  0  0  0  0  0
  -29.2917  -21.3399   18.1198 C   0  0  0  0  0  0
  -28.7902  -21.1772   20.7280 C   0  0  0  0  0  0
  -29.2699  -19.8332   20.1046 C   0  0  0  0  0  0
  -28.6370  -22.5712   20.0462 C   0  0  0  0  0  0
  -28.4858  -21.1220   22.1807 C   0  0  0  0  0  0
  -26.3518  -22.1993   23.1176 C   0  0  0  0  0  0
  -29.7615  -18.2514   20.7458 C   0  0  0  0  0  0
  -27.9682  -24.1416   20.5525 C   0  0  0  0  0  0
  -27.0172  -20.8971   22.6303 C   0  0  1  0  0  0
  -28.9171  -22.5110   18.7211 N   0  0  0  0  0  0
  -29.6151  -16.6090   20.3604 N   0  0  0  0  0  0
  -26.2458  -20.2413   21.5543 N   0  3  0  0  0  0
  -29.3915  -21.2364   23.0078 O   0  0  0  0  0  0
  -31.4491  -13.0846   19.1692 H   0  0  0  0  0  0
  -30.5222  -11.9679   20.1279 H   0  0  0  0  0  0
  -29.9268  -11.7578   17.6836 H   0  0  0  0  0  0
  -29.5406  -13.4594   17.6211 H   0  0  0  0  0  0
  -28.0706  -11.2708   19.1137 H   0  0  0  0  0  0
  -27.4153  -12.2944   17.8597 H   0  0  0  0  0  0
  -27.5032  -14.2291   19.2865 H   0  0  0  0  0  0
  -28.8293  -12.5599   21.4796 H   0  0  0  0  0  0
  -28.2658  -14.2081   21.6580 H   0  0  0  0  0  0
  -25.2782   -9.5676   22.4753 H   0  0  0  0  0  0
  -24.0003   -7.4633   22.7478 H   0  0  0  0  0  0
  -21.0845   -8.8789   19.8950 H   0  0  0  0  0  0
  -22.3723  -10.9670   19.6165 H   0  0  0  0  0  0
  -21.2006   -7.6149   23.9722 H   0  0  0  0  0  0
  -21.1478   -6.0519   25.9081 H   0  0  0  0  0  0
  -22.0592   -2.7606   23.2846 H   0  0  0  0  0  0
  -22.4035  -11.9840   22.4854 H   0  0  0  0  0  0
  -21.1041  -13.1189   22.2643 H   0  0  0  0  0  0
  -24.6179  -15.8345   20.5062 H   0  0  0  0  0  0
  -26.2246  -15.6293   20.0233 H   0  0  0  0  0  0
  -26.7415  -32.5089   23.0859 H   0  0  0  0  0  0
  -25.0108  -33.9462   25.0179 H   0  0  0  0  0  0
  -22.8007  -31.2617   21.3412 H   0  0  0  0  0  0
  -23.3772  -35.9511   23.3277 H   0  0  0  0  0  0
  -24.3577  -36.8872   22.2068 H   0  0  0  0  0  0
  -23.7245  -37.6366   23.6727 H   0  0  0  0  0  0
  -26.2425  -31.3459   20.6208 H   0  0  0  0  0  0
  -26.9158  -30.6702   22.0603 H   0  0  0  0  0  0
  -28.1676  -28.5588   21.2628 H   0  0  0  0  0  0
  -25.8624  -25.6998   19.0223 H   0  0  0  0  0  0
  -23.9994  -27.2473   18.9678 H   0  0  0  0  0  0
  -23.8925  -30.5046   19.3877 H   0  0  0  0  0  0
  -22.8358  -29.1987   19.8251 H   0  0  0  0  0  0
  -25.1339  -36.1739   25.0783 H   0  0  0  0  0  0
  -21.0041  -28.3394   24.1303 H   0  0  0  0  0  0
  -20.5666  -26.2399   23.3686 H   0  0  0  0  0  0
  -21.6672  -26.7401   22.1252 H   0  0  0  0  0  0
  -19.6949  -25.6266   21.1311 H   0  0  0  0  0  0
  -19.6720  -27.3142   20.6734 H   0  0  0  0  0  0
  -17.4237  -26.6673   21.4042 H   0  0  0  0  0  0
  -18.0358  -26.0104   22.9050 H   0  0  0  0  0  0
  -19.7973  -30.7350   24.2164 H   0  0  0  0  0  0
  -17.5031  -31.6288   24.5132 H   0  0  0  0  0  0
  -15.5378  -30.2963   23.7679 H   0  0  0  0  0  0
  -15.8712  -28.0794   22.7115 H   0  0  0  0  0  0
  -24.5900  -30.7113   25.7635 H   0  0  0  0  0  0
  -24.8874  -32.2988   26.4626 H   0  0  0  0  0  0
  -25.7925  -30.9035   27.0197 H   0  0  0  0  0  0
  -26.3170  -29.6536   24.1443 H   0  0  0  0  0  0
  -27.3985  -29.7266   25.5128 H   0  0  0  0  0  0
  -27.9119  -30.4049   23.9899 H   0  0  0  0  0  0
  -27.2628  -33.3680   26.1937 H   0  0  0  0  0  0
  -28.3946  -32.6817   25.0382 H   0  0  0  0  0  0
  -28.0645  -31.8555   26.5531 H   0  0  0  0  0  0
  -28.2560  -38.0071   24.7506 H   0  0  0  0  0  0
  -28.1091  -36.2597   24.6306 H   0  0  0  0  0  0
  -27.2288  -37.1399   25.8869 H   0  0  0  0  0  0
  -20.9637  -29.8710   21.6614 H   0  0  0  0  0  0
  -26.0128  -38.2741   24.1410 H   0  0  0  0  0  0
  -29.8050  -19.2442   18.1062 H   0  0  0  0  0  0
  -29.4784  -21.4270   17.0598 H   0  0  0  0  0  0
  -26.9781  -22.7177   23.8454 H   0  0  0  0  0  0
  -25.4052  -21.9854   23.6134 H   0  0  0  0  0  0
  -26.1383  -22.8887   22.3043 H   0  0  0  0  0  0
  -30.8398  -18.3692   20.8535 H   0  0  0  0  0  0
  -29.4022  -18.2813   21.7738 H   0  0  0  0  0  0
  -28.0866  -24.1297   21.6358 H   0  0  0  0  0  0
  -26.8991  -24.0076   20.3987 H   0  0  0  0  0  0
  -27.0349  -20.2052   23.4734 H   0  0  0  0  0  0
  -28.6404  -16.3838   20.2321 H   0  0  0  0  0  0
  -26.2904  -20.7723   20.7023 H   0  0  0  0  0  0
  -25.2853  -20.1362   21.8270 H   0  0  0  0  0  0
  -26.6193  -19.3270   21.3702 H   0  0  0  0  0  0
  1 25  1  0  0  0
  1 30  2  0  0  0
  1 82  1  0  0  0
  2  3  1  0  0  0
  2 25  1  0  0  0
  2 85  1  0  0  0
  2 86  1  0  0  0
  3  4  1  0  0  0
  3 87  1  0  0  0
  3 88  1  0  0  0
  4  5  1  0  0  0
  4 89  1  0  0  0
  4 90  1  0  0  0
  5  6  1  0  0  0
  5 26  1  0  0  0
  5 91  1  0  0  0
  6 25  1  0  0  0
  6 92  1  0  0  0
  6 93  1  0  0  0
  7  8  2  0  0  0
  7 26  1  0  0  0
  7 29  1  0  0  0
  8  9  1  0  0  0
  8 22  1  0  0  0
  9 10  1  0  0  0
  9 27  2  0  0  0
 10 11  2  0  0  0
 10 15  1  0  0  0
 11 12  1  0  0  0
 11 94  1  0  0  0
 12 13  2  0  0  0
 12 95  1  0  0  0
 13 14  1  0  0  0
 13 31  1  0  0  0
 14 15  2  0  0  0
 14 96  1  0  0  0
 15 97  1  0  0  0
 16 17  2  0  0  0
 16 21  1  0  0  0
 16 31  1  0  0  0
 17 18  1  0  0  0
 17 98  1  0  0  0
 18 19  2  0  0  0
 18 99  1  0  0  0
 19 20  1  0  0  0
 19 24  1  0  0  0
 20 21  2  0  0  0
 20100  1  0  0  0
 21 23  1  0  0  0
 22 28  1  0  0  0
 22 32  2  0  0  0
 26 27  1  0  0  0
 28101  1  0  0  0
 28102  1  0  0  0
 29103  1  0  0  0
 29104  1  0  0  0
 33 34  1  0  0  0
 33 66  1  0  0  0
 33 70  2  0  0  0
 34 36  1  0  0  0
 34 59  1  0  0  0
 34105  1  0  0  0
 35 44  2  0  0  0
 35 45  1  0  0  0
 35 68  1  0  0  0
 36 56  1  0  0  0
 36106  1  0  0  0
 37 39  1  0  0  0
 37 47  1  0  0  0
 37 66  1  0  0  0
 37107  1  0  0  0
 38 43  2  0  0  0
 38 46  1  0  0  0
 38 47  1  0  0  0
 39 64  1  0  0  0
 39 67  2  0  0  0
 40 52  1  0  0  0
 40 53  2  0  0  0
 40 58  1  0  0  0
 41108  1  0  0  0
 41109  1  0  0  0
 41110  1  0  0  0
 41 48  1  0  0  0
 42 43  1  0  0  0
 42 66  1  0  0  0
 42111  1  0  0  0
 42112  1  0  0  0
 43 44  1  0  0  0
 44113  1  0  0  0
 45 46  2  0  0  0
 45114  1  0  0  0
 46115  1  0  0  0
 47116  1  0  0  0
 47117  1  0  0  0
 48 56  1  0  0  0
 48 65  1  0  0  0
 48118  1  0  0  0
 49 50  1  0  0  0
 49 53  1  0  0  0
 49 64  1  0  0  0
 49119  1  0  0  0
 50 51  1  0  0  0
 50120  1  0  0  0
 50121  1  0  0  0
 51 52  1  0  0  0
 51122  1  0  0  0
 51123  1  0  0  0
 52124  1  0  0  0
 52125  1  0  0  0
 53 54  1  0  0  0
 54 55  2  0  0  0
 54126  1  0  0  0
 55 57  1  0  0  0
 55127  1  0  0  0
 56 69  2  0  0  0
 57 58  2  0  0  0
 57128  1  0  0  0
 58129  1  0  0  0
 59 60  1  0  0  0
 59 61  1  0  0  0
 59 62  1  0  0  0
 60130  1  0  0  0
 60131  1  0  0  0
 60132  1  0  0  0
 61133  1  0  0  0
 61134  1  0  0  0
 61135  1  0  0  0
 62136  1  0  0  0
 62137  1  0  0  0
 62138  1  0  0  0
 63 65  1  0  0  0
 63139  1  0  0  0
 63140  1  0  0  0
 63141  1  0  0  0
 64142  1  0  0  0
 65143  1  0  0  0
 68 79  1  0  0  0
 71 72  2  0  0  0
 71 74  1  0  0  0
 71144  1  0  0  0
 72 81  1  0  0  0
 72145  1  0  0  0
 73 74  2  0  0  0
 73 75  1  0  0  0
 73 76  1  0  0  0
 74 78  1  0  0  0
 75 79  1  0  0  0
 75 81  2  0  0  0
 76 80  1  0  0  0
 76 84  2  0  0  0
 77146  1  0  0  0
 77147  1  0  0  0
 77148  1  0  0  0
 77 80  1  0  0  0
 78 82  1  0  0  0
 78149  1  0  0  0
 78150  1  0  0  0
 79151  1  0  0  0
 79152  1  0  0  0
 80 83  1  0  0  0
 80153  1  0  0  0
 82154  1  0  0  0
 83155  1  0  0  0
 83156  1  0  0  0
 83157  1  0  0  0
M  CHG  1  83   1
M  ISO  4   1 100  68 101  79 101  82 100
M  END
> <chiral flag>
0

> <version>
0

> <s_m_source_file>
/data/baiqing/PycharmProjects/Reinvent-master-3.2/result/LINK_invent/BTK/process_docking_weight1_custom_sum_contain_oxygen_bond_distance_aromatic_linkinvent_7_9_3/rearranged_h_0112.sdf

> <i_m_source_file_index>
52

> <r_mmod_Potential_Energy-OPLS-2005>
934.971496582031

> <r_mmod_Stretch_Energy-OPLS-2005>
651.623352050781

> <r_mmod_Bend_Energy-OPLS-2005>
460.229125976562

> <r_mmod_Torsional_Energy-OPLS-2005>
294.974273681641

> <r_mmod_Improper_Torsional_Energy-OPLS-2005>
6.14588642120361

> <r_mmod_Van_der_Waal_Energy-OPLS-2005>
119.227722167969

> <r_mmod_Electrostatic_Energy-OPLS-2005>
-544.905212402344

> <r_mmod_Solvation_Energy-OPLS-2005>
-586.450073242188

> <b_mmod_Minimization_Converged-OPLS-2005>
0

> <r_mmod_RMS_Derivative-OPLS-2005>
1.57848489284515

$$$$
52
                    3D
 Structure written by MMmdl.
172180  0  0  1  0            999 V2000
  -30.7239  -14.4208   20.6084 C   0  0  0  0  0  0
  -30.4092  -12.3016   19.3949 C   0  0  0  0  0  0
  -29.4734  -12.5261   18.1923 C   0  0  0  0  0  0
  -28.0012  -12.3617   18.6149 C   0  0  0  0  0  0
  -27.6530  -13.1943   19.8762 C   0  0  2  0  0  0
  -28.6976  -12.9663   20.9901 C   0  0  0  0  0  0
  -25.2559  -13.8141   20.5691 C   0  0  0  0  0  0
  -24.1774  -13.0438   20.9167 C   0  0  0  0  0  0
  -24.6321  -11.6900   20.8737 C   0  0  0  0  0  0
  -23.9004  -10.4287   21.0417 C   0  0  0  0  0  0
  -24.3567   -9.4223   21.9193 C   0  0  0  0  0  0
  -23.6263   -8.2251   22.0759 C   0  0  0  0  0  0
  -22.4253   -8.0263   21.3544 C   0  0  0  0  0  0
  -21.9879   -9.0243   20.4663 C   0  0  0  0  0  0
  -22.7185  -10.2130   20.3082 C   0  0  0  0  0  0
  -21.6858   -6.0729   22.5270 C   0  0  0  0  0  0
  -21.4030   -6.5655   23.8202 C   0  0  0  0  0  0
  -21.3656   -5.6812   24.9172 C   0  0  0  0  0  0
  -21.6030   -4.3067   24.7226 C   0  0  0  0  0  0
  -21.8819   -3.8153   23.4348 C   0  0  0  0  0  0
  -21.9196   -4.6960   22.3398 C   0  0  0  0  0  0
  -22.7817  -13.5278   21.1846 C   0  0  0  0  0  0
  -22.1654   -4.2140   21.0971 F   0  0  0  0  0  0
  -21.5615   -3.4547   25.7742 F   0  0  0  0  0  0
  -30.0312  -13.2659   20.4348 N   0  0  0  0  0  0
  -26.2961  -12.9259   20.3394 N   0  0  0  0  0  0
  -25.9248  -11.6439   20.5794 N   0  0  0  0  0  0
  -22.0446  -12.8269   22.0398 N   0  0  0  0  0  0
  -25.4326  -15.1849   20.4072 N   0  0  0  0  0  0
  -31.8244  -14.6392   20.1014 O   0  0  0  0  0  0
  -21.6638   -6.8847   21.4225 O   0  0  0  0  0  0
  -22.3532  -14.5588   20.6697 O   0  0  0  0  0  0
  -24.6138  -31.8690   23.2091 C   0  0  0  0  0  0
  -25.9043  -32.4822   23.8393 C   0  0  1  0  0  0
  -27.2251  -27.4370   20.0950 C   0  0  0  0  0  0
  -25.5901  -33.8626   24.2340 N   0  0  0  0  0  0
  -23.3986  -30.4948   21.5519 C   0  0  2  0  0  0
  -24.8385  -28.9585   20.1217 C   0  0  0  0  0  0
  -22.7376  -29.4718   22.4994 C   0  0  0  0  0  0
  -18.0300  -28.1351   22.8511 C   0  0  0  0  0  0
  -24.1480  -36.7296   23.2641 C   0  0  0  0  0  0
  -25.9303  -30.8365   21.3622 C   0  0  0  0  0  0
  -26.0006  -29.4737   20.7053 C   0  0  0  0  0  0
  -27.1948  -28.7239   20.6779 C   0  0  0  0  0  0
  -26.0363  -26.9233   19.5256 C   0  0  0  0  0  0
  -24.8509  -27.6843   19.5301 C   0  0  0  0  0  0
  -23.6012  -29.8249   20.1710 C   0  0  0  0  0  0
  -25.4106  -36.3114   24.0349 C   0  0  1  0  0  0
  -20.5884  -28.3684   23.1359 C   0  0  2  0  0  0
  -20.6806  -26.9412   22.5443 C   0  0  0  0  0  0
  -19.5804  -26.6392   21.5224 C   0  0  0  0  0  0
  -18.1988  -26.7890   22.1667 C   0  0  0  0  0  0
  -19.1527  -28.8822   23.2941 C   0  0  0  0  0  0
  -18.9443  -30.1439   23.8936 C   0  0  0  0  0  0
  -17.6435  -30.6563   24.0545 C   0  0  0  0  0  0
  -25.9047  -34.9477   23.5123 C   0  0  0  0  0  0
  -16.5347  -29.9049   23.6305 C   0  0  0  0  0  0
  -16.7282  -28.6464   23.0337 C   0  0  0  0  0  0
  -26.4463  -31.6611   25.0724 C   0  0  0  0  0  0
  -25.3702  -31.3738   26.1449 C   0  0  0  0  0  0
  -27.0312  -30.3055   24.6143 C   0  0  0  0  0  0
  -27.6053  -32.4334   25.7452 C   0  0  0  0  0  0
  -27.5578  -37.1792   24.8473 C   0  0  0  0  0  0
  -21.4112  -29.3092   22.3771 N   0  0  0  0  0  0
  -26.4287  -37.3805   23.9411 N   0  0  0  0  0  0
  -24.6664  -31.0788   22.1001 N   0  0  0  0  0  0
  -23.4153  -28.8238   23.3015 O   0  0  0  0  0  0
  -28.4303  -26.7667   20.0928 O   0  0  0  0  0  0
  -26.5609  -34.8928   22.4697 O   0  0  0  0  0  0
  -23.5339  -32.1450   23.7497 O   0  0  0  0  0  0
  -28.8560  -19.8618   21.1309 C   0  0  0  0  0  0
  -28.0667  -20.8118   20.5445 C   0  0  0  0  0  0
  -27.8078  -20.3510   19.2127 C   0  0  0  0  0  0
  -28.4591  -19.1492   19.0419 C   0  0  0  0  0  0
  -26.9702  -21.0633   18.1728 C   0  0  0  0  0  0
  -27.2367  -21.9079   22.6823 C   0  0  0  0  0  0
  -28.9915  -18.9098   16.5634 C   0  0  0  0  0  0
  -27.1723  -17.5009   17.6190 C   0  0  0  0  0  0
  -30.0120  -17.7251   20.5293 C   0  0  0  0  0  0
  -29.2770  -16.3763   20.6781 C   0  0  0  0  0  0
  -28.1696  -24.5545   21.1446 C   0  0  0  0  0  0
  -28.4835  -25.3546   19.8643 C   0  0  0  0  0  0
  -27.5861  -22.1021   21.1988 C   0  0  1  0  0  0
  -28.5101  -18.2226   17.8485 C   0  0  0  0  0  0
  -29.1262  -18.8529   20.2286 N   0  0  0  0  0  0
  -30.1154  -15.3657   21.3314 N   0  0  0  0  0  0
  -28.6207  -23.1421   21.0268 N   0  3  0  0  0  0
  -31.4502  -12.4071   19.0884 H   0  0  0  0  0  0
  -30.3112  -11.2841   19.7760 H   0  0  0  0  0  0
  -29.7136  -11.8321   17.3862 H   0  0  0  0  0  0
  -29.6205  -13.5269   17.7857 H   0  0  0  0  0  0
  -27.8248  -11.3037   18.8088 H   0  0  0  0  0  0
  -27.3385  -12.6349   17.7916 H   0  0  0  0  0  0
  -27.6915  -14.2375   19.5787 H   0  0  0  0  0  0
  -28.6707  -11.9332   21.3354 H   0  0  0  0  0  0
  -28.4595  -13.5672   21.8672 H   0  0  0  0  0  0
  -25.2714   -9.5724   22.4758 H   0  0  0  0  0  0
  -23.9980   -7.4669   22.7495 H   0  0  0  0  0  0
  -21.0814   -8.8792   19.8976 H   0  0  0  0  0  0
  -22.3649  -10.9688   19.6200 H   0  0  0  0  0  0
  -21.2030   -7.6161   23.9703 H   0  0  0  0  0  0
  -21.1478   -6.0536   25.9066 H   0  0  0  0  0  0
  -22.0591   -2.7611   23.2859 H   0  0  0  0  0  0
  -22.4073  -11.9941   22.4805 H   0  0  0  0  0  0
  -21.1080  -13.1348   22.2610 H   0  0  0  0  0  0
  -24.6735  -15.8476   20.5280 H   0  0  0  0  0  0
  -26.2984  -15.6198   20.1188 H   0  0  0  0  0  0
  -26.7101  -32.5524   23.1144 H   0  0  0  0  0  0
  -24.9998  -33.9817   25.0447 H   0  0  0  0  0  0
  -22.6893  -31.3126   21.4141 H   0  0  0  0  0  0
  -23.3738  -35.9624   23.3333 H   0  0  0  0  0  0
  -24.3571  -36.8877   22.2043 H   0  0  0  0  0  0
  -23.7222  -37.6514   23.6628 H   0  0  0  0  0  0
  -26.0590  -31.6097   20.6020 H   0  0  0  0  0  0
  -26.8099  -30.8739   21.9935 H   0  0  0  0  0  0
  -28.0992  -29.1287   21.1126 H   0  0  0  0  0  0
  -25.9939  -25.9493   19.0611 H   0  0  0  0  0  0
  -23.9488  -27.2858   19.0836 H   0  0  0  0  0  0
  -23.6971  -30.5956   19.4057 H   0  0  0  0  0  0
  -22.7261  -29.2380   19.8842 H   0  0  0  0  0  0
  -25.1279  -36.1979   25.0842 H   0  0  0  0  0  0
  -21.0041  -28.3241   24.1458 H   0  0  0  0  0  0
  -20.5746  -26.2257   23.3609 H   0  0  0  0  0  0
  -21.6679  -26.7460   22.1245 H   0  0  0  0  0  0
  -19.7005  -25.6327   21.1208 H   0  0  0  0  0  0
  -19.6723  -27.3263   20.6795 H   0  0  0  0  0  0
  -17.4238  -26.6595   21.4099 H   0  0  0  0  0  0
  -18.0447  -26.0028   22.9074 H   0  0  0  0  0  0
  -19.7894  -30.7256   24.2335 H   0  0  0  0  0  0
  -17.4970  -31.6259   24.5088 H   0  0  0  0  0  0
  -15.5352  -30.2952   23.7582 H   0  0  0  0  0  0
  -15.8712  -28.0759   22.7014 H   0  0  0  0  0  0
  -24.5829  -30.7167   25.7732 H   0  0  0  0  0  0
  -24.8937  -32.2902   26.4933 H   0  0  0  0  0  0
  -25.7985  -30.8820   27.0183 H   0  0  0  0  0  0
  -26.2894  -29.6798   24.1161 H   0  0  0  0  0  0
  -27.4033  -29.7330   25.4646 H   0  0  0  0  0  0
  -27.8750  -30.4378   23.9368 H   0  0  0  0  0  0
  -27.2690  -33.3604   26.2106 H   0  0  0  0  0  0
  -28.3777  -32.6951   25.0205 H   0  0  0  0  0  0
  -28.0814  -31.8423   26.5278 H   0  0  0  0  0  0
  -28.2618  -38.0074   24.7505 H   0  0  0  0  0  0
  -28.1062  -36.2599   24.6319 H   0  0  0  0  0  0
  -27.2304  -37.1471   25.8888 H   0  0  0  0  0  0
  -20.9243  -29.8828   21.7013 H   0  0  0  0  0  0
  -26.0178  -38.2885   24.1411 H   0  0  0  0  0  0
  -29.2745  -19.8179   22.1286 H   0  0  0  0  0  0
  -26.3022  -20.3681   17.6710 H   0  0  0  0  0  0
  -27.6074  -21.5193   17.4130 H   0  0  0  0  0  0
  -26.3516  -21.8534   18.5936 H   0  0  0  0  0  0
  -26.4897  -21.1210   22.7980 H   0  0  0  0  0  0
  -26.8195  -22.8182   23.1125 H   0  0  0  0  0  0
  -28.1091  -21.6292   23.2776 H   0  0  0  0  0  0
  -29.9532  -19.3939   16.7167 H   0  0  0  0  0  0
  -28.2973  -19.6713   16.2142 H   0  0  0  0  0  0
  -29.1084  -18.1856   15.7569 H   0  0  0  0  0  0
  -26.8313  -17.0040   18.5255 H   0  0  0  0  0  0
  -27.2685  -16.7357   16.8483 H   0  0  0  0  0  0
  -26.3802  -18.1776   17.2974 H   0  0  0  0  0  0
  -30.5428  -17.9533   21.4535 H   0  0  0  0  0  0
  -30.7837  -17.6654   19.7606 H   0  0  0  0  0  0
  -28.9651  -16.0359   19.6923 H   0  0  0  0  0  0
  -28.3632  -16.4971   21.2602 H   0  0  0  0  0  0
  -27.1064  -24.6270   21.3836 H   0  0  0  0  0  0
  -28.7001  -25.0055   21.9844 H   0  0  0  0  0  0
  -27.8765  -25.0216   19.0241 H   0  0  0  0  0  0
  -29.5111  -25.1473   19.5665 H   0  0  0  0  0  0
  -26.6804  -22.4184   20.6843 H   0  0  0  0  0  0
  -29.2439  -17.4424   18.0321 H   0  0  0  0  0  0
  -30.7616  -15.8048   21.9737 H   0  0  0  0  0  0
  -29.3560  -22.9660   21.6939 H   0  0  0  0  0  0
  -29.0245  -23.0009   20.1169 H   0  0  0  0  0  0
  1 25  1  0  0  0
  1 30  2  0  0  0
  1 86  1  0  0  0
  2  3  1  0  0  0
  2 25  1  0  0  0
  2 88  1  0  0  0
  2 89  1  0  0  0
  3  4  1  0  0  0
  3 90  1  0  0  0
  3 91  1  0  0  0
  4  5  1  0  0  0
  4 92  1  0  0  0
  4 93  1  0  0  0
  5  6  1  0  0  0
  5 26  1  0  0  0
  5 94  1  0  0  0
  6 25  1  0  0  0
  6 95  1  0  0  0
  6 96  1  0  0  0
  7  8  2  0  0  0
  7 26  1  0  0  0
  7 29  1  0  0  0
  8  9  1  0  0  0
  8 22  1  0  0  0
  9 10  1  0  0  0
  9 27  2  0  0  0
 10 11  2  0  0  0
 10 15  1  0  0  0
 11 12  1  0  0  0
 11 97  1  0  0  0
 12 13  2  0  0  0
 12 98  1  0  0  0
 13 14  1  0  0  0
 13 31  1  0  0  0
 14 15  2  0  0  0
 14 99  1  0  0  0
 15100  1  0  0  0
 16 17  2  0  0  0
 16 21  1  0  0  0
 16 31  1  0  0  0
 17 18  1  0  0  0
 17101  1  0  0  0
 18 19  2  0  0  0
 18102  1  0  0  0
 19 20  1  0  0  0
 19 24  1  0  0  0
 20 21  2  0  0  0
 20103  1  0  0  0
 21 23  1  0  0  0
 22 28  1  0  0  0
 22 32  2  0  0  0
 26 27  1  0  0  0
 28104  1  0  0  0
 28105  1  0  0  0
 29106  1  0  0  0
 29107  1  0  0  0
 33 34  1  0  0  0
 33 66  1  0  0  0
 33 70  2  0  0  0
 34 36  1  0  0  0
 34 59  1  0  0  0
 34108  1  0  0  0
 35 44  2  0  0  0
 35 45  1  0  0  0
 35 68  1  0  0  0
 36 56  1  0  0  0
 36109  1  0  0  0
 37 39  1  0  0  0
 37 47  1  0  0  0
 37 66  1  0  0  0
 37110  1  0  0  0
 38 43  2  0  0  0
 38 46  1  0  0  0
 38 47  1  0  0  0
 39 64  1  0  0  0
 39 67  2  0  0  0
 40 52  1  0  0  0
 40 53  2  0  0  0
 40 58  1  0  0  0
 41111  1  0  0  0
 41112  1  0  0  0
 41113  1  0  0  0
 41 48  1  0  0  0
 42 43  1  0  0  0
 42 66  1  0  0  0
 42114  1  0  0  0
 42115  1  0  0  0
 43 44  1  0  0  0
 44116  1  0  0  0
 45 46  2  0  0  0
 45117  1  0  0  0
 46118  1  0  0  0
 47119  1  0  0  0
 47120  1  0  0  0
 48 56  1  0  0  0
 48 65  1  0  0  0
 48121  1  0  0  0
 49 50  1  0  0  0
 49 53  1  0  0  0
 49 64  1  0  0  0
 49122  1  0  0  0
 50 51  1  0  0  0
 50123  1  0  0  0
 50124  1  0  0  0
 51 52  1  0  0  0
 51125  1  0  0  0
 51126  1  0  0  0
 52127  1  0  0  0
 52128  1  0  0  0
 53 54  1  0  0  0
 54 55  2  0  0  0
 54129  1  0  0  0
 55 57  1  0  0  0
 55130  1  0  0  0
 56 69  2  0  0  0
 57 58  2  0  0  0
 57131  1  0  0  0
 58132  1  0  0  0
 59 60  1  0  0  0
 59 61  1  0  0  0
 59 62  1  0  0  0
 60133  1  0  0  0
 60134  1  0  0  0
 60135  1  0  0  0
 61136  1  0  0  0
 61137  1  0  0  0
 61138  1  0  0  0
 62139  1  0  0  0
 62140  1  0  0  0
 62141  1  0  0  0
 63 65  1  0  0  0
 63142  1  0  0  0
 63143  1  0  0  0
 63144  1  0  0  0
 64145  1  0  0  0
 65146  1  0  0  0
 68 82  1  0  0  0
 71 72  2  0  0  0
 71 85  1  0  0  0
 71147  1  0  0  0
 72 73  1  0  0  0
 72 83  1  0  0  0
 73 74  2  0  0  0
 73 75  1  0  0  0
 74 84  1  0  0  0
 74 85  1  0  0  0
 75148  1  0  0  0
 75149  1  0  0  0
 75150  1  0  0  0
 76151  1  0  0  0
 76152  1  0  0  0
 76153  1  0  0  0
 76 83  1  0  0  0
 77154  1  0  0  0
 77155  1  0  0  0
 77156  1  0  0  0
 77 84  1  0  0  0
 78 84  1  0  0  0
 78157  1  0  0  0
 78158  1  0  0  0
 78159  1  0  0  0
 79 80  1  0  0  0
 79 85  1  0  0  0
 79160  1  0  0  0
 79161  1  0  0  0
 80 86  1  0  0  0
 80162  1  0  0  0
 80163  1  0  0  0
 81 82  1  0  0  0
 81 87  1  0  0  0
 81164  1  0  0  0
 81165  1  0  0  0
 82166  1  0  0  0
 82167  1  0  0  0
 83 87  1  0  0  0
 83168  1  0  0  0
 84169  1  0  0  0
 86170  1  0  0  0
 87171  1  0  0  0
 87172  1  0  0  0
M  CHG  1  87   1
M  ISO  4   1 100  68 101  82 101  86 100
M  END
> <chiral flag>
0

> <version>
0

> <s_m_source_file>
/data/baiqing/PycharmProjects/Reinvent-master-3.2/result/LINK_invent/BTK/process_docking_weight1_custom_sum_contain_oxygen_bond_distance_aromatic_linkinvent_7_9_3/rearranged_h_0112.sdf

> <i_m_source_file_index>
53

> <r_mmod_Potential_Energy-OPLS-2005>
-230.01318359375

> <r_mmod_Stretch_Energy-OPLS-2005>
33.4339714050293

> <r_mmod_Bend_Energy-OPLS-2005>
114.243835449219

> <r_mmod_Torsional_Energy-OPLS-2005>
279.569427490234

> <r_mmod_Improper_Torsional_Energy-OPLS-2005>
6.64766883850098

> <r_mmod_Van_der_Waal_Energy-OPLS-2005>
120.57608795166

> <r_mmod_Electrostatic_Energy-OPLS-2005>
-370.109344482422

> <r_mmod_Solvation_Energy-OPLS-2005>
-425.074554443359

> <b_mmod_Minimization_Converged-OPLS-2005>
0

> <r_mmod_RMS_Derivative-OPLS-2005>
4.97600555419922

$$$$
53
                    3D
 Structure written by MMmdl.
155163  0  0  1  0            999 V2000
  -30.3964  -15.3447   20.3762 C   0  0  0  0  0  0
  -30.4380  -12.8740   19.5046 C   0  0  0  0  0  0
  -29.5339  -12.5904   18.2774 C   0  0  0  0  0  0
  -28.0878  -12.2958   18.7160 C   0  0  0  0  0  0
  -27.6046  -13.2777   19.8117 C   0  0  2  0  0  0
  -28.6404  -13.4837   20.9357 C   0  0  0  0  0  0
  -25.2380  -13.8232   20.5798 C   0  0  0  0  0  0
  -24.1730  -13.0413   20.9264 C   0  0  0  0  0  0
  -24.6391  -11.6915   20.8748 C   0  0  0  0  0  0
  -23.9088  -10.4277   21.0392 C   0  0  0  0  0  0
  -24.3633   -9.4195   21.9174 C   0  0  0  0  0  0
  -23.6301   -8.2234   22.0751 C   0  0  0  0  0  0
  -22.4281   -8.0273   21.3543 C   0  0  0  0  0  0
  -21.9918   -9.0244   20.4642 C   0  0  0  0  0  0
  -22.7255  -10.2117   20.3046 C   0  0  0  0  0  0
  -21.6853   -6.0731   22.5281 C   0  0  0  0  0  0
  -21.4014   -6.5636   23.8212 C   0  0  0  0  0  0
  -21.3665   -5.6790   24.9176 C   0  0  0  0  0  0
  -21.6047   -4.3051   24.7226 C   0  0  0  0  0  0
  -21.8818   -3.8143   23.4346 C   0  0  0  0  0  0
  -21.9189   -4.6959   22.3403 C   0  0  0  0  0  0
  -22.7750  -13.5165   21.1925 C   0  0  0  0  0  0
  -22.1660   -4.2144   21.0981 F   0  0  0  0  0  0
  -21.5634   -3.4537   25.7739 F   0  0  0  0  0  0
  -29.8471  -14.0255   20.2865 N   0  0  0  0  0  0
  -26.2796  -12.9512   20.3197 N   0  0  0  0  0  0
  -25.9325  -11.6611   20.5683 N   0  0  0  0  0  0
  -22.0414  -12.8135   22.0474 N   0  0  0  0  0  0
  -25.4004  -15.1982   20.4353 N   0  0  0  0  0  0
  -31.6346  -15.3236   20.2654 O   0  0  0  0  0  0
  -21.6639   -6.8875   21.4244 O   0  0  0  0  0  0
  -22.3423  -14.5472   20.6776 O   0  0  0  0  0  0
  -24.6679  -31.8186   23.1647 C   0  0  0  0  0  0
  -25.9331  -32.4569   23.8133 C   0  0  1  0  0  0
  -27.2065  -26.8652   20.1989 C   0  0  0  0  0  0
  -25.5973  -33.8389   24.2027 N   0  0  0  0  0  0
  -23.4854  -30.4302   21.5154 C   0  0  2  0  0  0
  -24.9364  -28.8049   20.1145 C   0  0  0  0  0  0
  -22.7691  -29.4418   22.4742 C   0  0  0  0  0  0
  -18.0332  -28.1430   22.8480 C   0  0  0  0  0  0
  -24.1491  -36.7205   23.2642 C   0  0  0  0  0  0
  -26.0580  -30.6052   21.4040 C   0  0  0  0  0  0
  -26.1230  -29.1881   20.7522 C   0  0  0  0  0  0
  -27.2526  -28.2430   20.7647 C   0  0  0  0  0  0
  -25.9901  -26.6503   19.5106 C   0  0  0  0  0  0
  -24.8996  -27.5577   19.4706 C   0  0  0  0  0  0
  -23.7307  -29.7460   20.1417 C   0  0  0  0  0  0
  -25.4134  -36.2963   24.0289 C   0  0  1  0  0  0
  -20.5962  -28.3770   23.1186 C   0  0  2  0  0  0
  -20.6799  -26.9444   22.5413 C   0  0  0  0  0  0
  -19.5772  -26.6380   21.5232 C   0  0  0  0  0  0
  -18.1951  -26.7962   22.1629 C   0  0  0  0  0  0
  -19.1594  -28.8915   23.2819 C   0  0  0  0  0  0
  -18.9511  -30.1502   23.8868 C   0  0  0  0  0  0
  -17.6502  -30.6614   24.0572 C   0  0  0  0  0  0
  -25.9106  -34.9343   23.4989 C   0  0  0  0  0  0
  -16.5392  -29.9116   23.6346 C   0  0  0  0  0  0
  -16.7308  -28.6532   23.0369 C   0  0  0  0  0  0
  -26.4545  -31.6543   25.0696 C   0  0  0  0  0  0
  -25.3642  -31.3847   26.1334 C   0  0  0  0  0  0
  -27.0427  -30.2893   24.6476 C   0  0  0  0  0  0
  -27.6030  -32.4346   25.7517 C   0  0  0  0  0  0
  -27.5561  -37.1764   24.8462 C   0  0  0  0  0  0
  -21.4354  -29.3057   22.3526 N   0  0  0  0  0  0
  -26.4270  -37.3708   23.9409 N   0  0  0  0  0  0
  -24.7596  -30.9799   22.0812 N   0  0  0  0  0  0
  -23.4214  -28.7967   23.2986 O   0  0  0  0  0  0
  -28.1953  -25.7266   20.2474 O   0  0  0  0  0  0
  -26.5737  -34.8895   22.4596 O   0  0  0  0  0  0
  -23.5733  -32.1168   23.6709 O   0  0  0  0  0  0
  -30.5821  -19.7616   22.3550 C   0  0  0  0  0  0
  -30.4631  -18.4742   21.7847 C   0  0  0  0  0  0
  -30.0054  -20.9516   21.8235 C   0  0  0  0  0  0
  -29.2098  -20.9013   20.6419 C   0  0  0  0  0  0
  -29.7125  -18.2219   20.6292 C   0  0  0  0  0  0
  -27.1055  -23.9116   21.6479 C   0  0  0  0  0  0
  -31.3572  -22.2777   23.6393 C   0  0  0  0  0  0
  -28.7417  -22.4654   19.9185 C   0  0  0  0  0  0
  -27.9151  -24.0687   20.3543 C   0  0  2  0  0  0
  -30.2717  -22.2815   22.5495 C   0  0  0  0  0  0
  -29.1076  -19.4971   20.1135 N   0  0  0  0  0  0
  -29.6088  -16.6241   20.2876 N   0  0  0  0  0  0
  -29.1492  -22.6419   23.1598 F   0  0  0  0  0  0
  -30.6417  -23.2319   21.6926 F   0  0  0  0  0  0
  -31.4453  -13.1075   19.1577 H   0  0  0  0  0  0
  -30.5411  -11.9827   20.1265 H   0  0  0  0  0  0
  -29.9300  -11.7592   17.6922 H   0  0  0  0  0  0
  -29.5427  -13.4586   17.6169 H   0  0  0  0  0  0
  -28.0618  -11.2765   19.1035 H   0  0  0  0  0  0
  -27.4164  -12.3131   17.8568 H   0  0  0  0  0  0
  -27.5034  -14.2353   19.2984 H   0  0  0  0  0  0
  -28.8386  -12.5582   21.4787 H   0  0  0  0  0  0
  -28.2663  -14.2005   21.6686 H   0  0  0  0  0  0
  -25.2772   -9.5673   22.4751 H   0  0  0  0  0  0
  -24.0008   -7.4627   22.7472 H   0  0  0  0  0  0
  -21.0846   -8.8755   19.8952 H   0  0  0  0  0  0
  -22.3704  -10.9650   19.6154 H   0  0  0  0  0  0
  -21.2007   -7.6144   23.9714 H   0  0  0  0  0  0
  -21.1495   -6.0522   25.9079 H   0  0  0  0  0  0
  -22.0593   -2.7605   23.2846 H   0  0  0  0  0  0
  -22.4040  -11.9791   22.4840 H   0  0  0  0  0  0
  -21.1032  -13.1140   22.2699 H   0  0  0  0  0  0
  -24.6358  -15.8473   20.5894 H   0  0  0  0  0  0
  -26.2552  -15.6561   20.1523 H   0  0  0  0  0  0
  -26.7406  -32.5081   23.0847 H   0  0  0  0  0  0
  -25.0050  -33.9460   25.0132 H   0  0  0  0  0  0
  -22.8020  -31.2635   21.3414 H   0  0  0  0  0  0
  -23.3767  -35.9524   23.3275 H   0  0  0  0  0  0
  -24.3567  -36.8887   22.2062 H   0  0  0  0  0  0
  -23.7232  -37.6375   23.6724 H   0  0  0  0  0  0
  -26.2438  -31.3389   20.6178 H   0  0  0  0  0  0
  -26.9171  -30.6670   22.0600 H   0  0  0  0  0  0
  -28.1493  -28.5385   21.2915 H   0  0  0  0  0  0
  -25.8465  -25.7033   19.0130 H   0  0  0  0  0  0
  -24.0004  -27.2594   18.9484 H   0  0  0  0  0  0
  -23.9048  -30.5166   19.3901 H   0  0  0  0  0  0
  -22.8365  -29.2154   19.8114 H   0  0  0  0  0  0
  -25.1336  -36.1744   25.0782 H   0  0  0  0  0  0
  -21.0061  -28.3387   24.1306 H   0  0  0  0  0  0
  -20.5670  -26.2403   23.3664 H   0  0  0  0  0  0
  -21.6666  -26.7401   22.1232 H   0  0  0  0  0  0
  -19.6926  -25.6273   21.1301 H   0  0  0  0  0  0
  -19.6720  -27.3172   20.6747 H   0  0  0  0  0  0
  -17.4223  -26.6727   21.4023 H   0  0  0  0  0  0
  -18.0313  -26.0125   22.9043 H   0  0  0  0  0  0
  -19.7986  -30.7326   24.2226 H   0  0  0  0  0  0
  -17.5065  -31.6294   24.5187 H   0  0  0  0  0  0
  -15.5394  -30.3020   23.7684 H   0  0  0  0  0  0
  -15.8709  -28.0840   22.7108 H   0  0  0  0  0  0
  -24.5899  -30.7093   25.7676 H   0  0  0  0  0  0
  -24.8731  -32.3058   26.4484 H   0  0  0  0  0  0
  -25.7851  -30.9237   27.0281 H   0  0  0  0  0  0
  -26.3095  -29.6563   24.1470 H   0  0  0  0  0  0
  -27.3915  -29.7276   25.5152 H   0  0  0  0  0  0
  -27.9059  -30.4048   23.9922 H   0  0  0  0  0  0
  -27.2621  -33.3745   26.1871 H   0  0  0  0  0  0
  -28.3976  -32.6727   25.0435 H   0  0  0  0  0  0
  -28.0537  -31.8596   26.5614 H   0  0  0  0  0  0
  -28.2557  -38.0078   24.7510 H   0  0  0  0  0  0
  -28.1073  -36.2603   24.6290 H   0  0  0  0  0  0
  -27.2281  -37.1415   25.8865 H   0  0  0  0  0  0
  -20.9597  -29.8797   21.6708 H   0  0  0  0  0  0
  -26.0108  -38.2762   24.1426 H   0  0  0  0  0  0
  -31.1649  -19.8051   23.2607 H   0  0  0  0  0  0
  -30.9406  -17.6508   22.2980 H   0  0  0  0  0  0
  -26.8935  -22.8631   21.8614 H   0  0  0  0  0  0
  -26.1445  -24.4212   21.5738 H   0  0  0  0  0  0
  -27.6267  -24.3423   22.5010 H   0  0  0  0  0  0
  -31.0890  -21.6334   24.4765 H   0  0  0  0  0  0
  -31.4882  -23.2808   24.0474 H   0  0  0  0  0  0
  -32.3226  -21.9576   23.2479 H   0  0  0  0  0  0
  -28.1293  -22.1079   19.0910 H   0  0  0  0  0  0
  -29.6527  -22.7769   19.4099 H   0  0  0  0  0  0
  -27.1476  -24.0166   19.5825 H   0  0  0  0  0  0
  -28.6723  -16.3953   19.9952 H   0  0  0  0  0  0
  1 25  1  0  0  0
  1 30  2  0  0  0
  1 82  1  0  0  0
  2  3  1  0  0  0
  2 25  1  0  0  0
  2 85  1  0  0  0
  2 86  1  0  0  0
  3  4  1  0  0  0
  3 87  1  0  0  0
  3 88  1  0  0  0
  4  5  1  0  0  0
  4 89  1  0  0  0
  4 90  1  0  0  0
  5  6  1  0  0  0
  5 26  1  0  0  0
  5 91  1  0  0  0
  6 25  1  0  0  0
  6 92  1  0  0  0
  6 93  1  0  0  0
  7  8  2  0  0  0
  7 26  1  0  0  0
  7 29  1  0  0  0
  8  9  1  0  0  0
  8 22  1  0  0  0
  9 10  1  0  0  0
  9 27  2  0  0  0
 10 11  2  0  0  0
 10 15  1  0  0  0
 11 12  1  0  0  0
 11 94  1  0  0  0
 12 13  2  0  0  0
 12 95  1  0  0  0
 13 14  1  0  0  0
 13 31  1  0  0  0
 14 15  2  0  0  0
 14 96  1  0  0  0
 15 97  1  0  0  0
 16 17  2  0  0  0
 16 21  1  0  0  0
 16 31  1  0  0  0
 17 18  1  0  0  0
 17 98  1  0  0  0
 18 19  2  0  0  0
 18 99  1  0  0  0
 19 20  1  0  0  0
 19 24  1  0  0  0
 20 21  2  0  0  0
 20100  1  0  0  0
 21 23  1  0  0  0
 22 28  1  0  0  0
 22 32  2  0  0  0
 26 27  1  0  0  0
 28101  1  0  0  0
 28102  1  0  0  0
 29103  1  0  0  0
 29104  1  0  0  0
 33 34  1  0  0  0
 33 66  1  0  0  0
 33 70  2  0  0  0
 34 36  1  0  0  0
 34 59  1  0  0  0
 34105  1  0  0  0
 35 44  2  0  0  0
 35 45  1  0  0  0
 35 68  1  0  0  0
 36 56  1  0  0  0
 36106  1  0  0  0
 37 39  1  0  0  0
 37 47  1  0  0  0
 37 66  1  0  0  0
 37107  1  0  0  0
 38 43  2  0  0  0
 38 46  1  0  0  0
 38 47  1  0  0  0
 39 64  1  0  0  0
 39 67  2  0  0  0
 40 52  1  0  0  0
 40 53  2  0  0  0
 40 58  1  0  0  0
 41108  1  0  0  0
 41109  1  0  0  0
 41110  1  0  0  0
 41 48  1  0  0  0
 42 43  1  0  0  0
 42 66  1  0  0  0
 42111  1  0  0  0
 42112  1  0  0  0
 43 44  1  0  0  0
 44113  1  0  0  0
 45 46  2  0  0  0
 45114  1  0  0  0
 46115  1  0  0  0
 47116  1  0  0  0
 47117  1  0  0  0
 48 56  1  0  0  0
 48 65  1  0  0  0
 48118  1  0  0  0
 49 50  1  0  0  0
 49 53  1  0  0  0
 49 64  1  0  0  0
 49119  1  0  0  0
 50 51  1  0  0  0
 50120  1  0  0  0
 50121  1  0  0  0
 51 52  1  0  0  0
 51122  1  0  0  0
 51123  1  0  0  0
 52124  1  0  0  0
 52125  1  0  0  0
 53 54  1  0  0  0
 54 55  2  0  0  0
 54126  1  0  0  0
 55 57  1  0  0  0
 55127  1  0  0  0
 56 69  2  0  0  0
 57 58  2  0  0  0
 57128  1  0  0  0
 58129  1  0  0  0
 59 60  1  0  0  0
 59 61  1  0  0  0
 59 62  1  0  0  0
 60130  1  0  0  0
 60131  1  0  0  0
 60132  1  0  0  0
 61133  1  0  0  0
 61134  1  0  0  0
 61135  1  0  0  0
 62136  1  0  0  0
 62137  1  0  0  0
 62138  1  0  0  0
 63 65  1  0  0  0
 63139  1  0  0  0
 63140  1  0  0  0
 63141  1  0  0  0
 64142  1  0  0  0
 65143  1  0  0  0
 68 79  1  0  0  0
 71 72  2  0  0  0
 71 73  1  0  0  0
 71144  1  0  0  0
 72 75  1  0  0  0
 72145  1  0  0  0
 73 74  2  0  0  0
 73 80  1  0  0  0
 74 78  1  0  0  0
 74 81  1  0  0  0
 75 81  2  0  0  0
 75 82  1  0  0  0
 76146  1  0  0  0
 76147  1  0  0  0
 76148  1  0  0  0
 76 79  1  0  0  0
 77149  1  0  0  0
 77150  1  0  0  0
 77151  1  0  0  0
 77 80  1  0  0  0
 78 79  1  0  0  0
 78152  1  0  0  0
 78153  1  0  0  0
 79154  1  0  0  0
 80 83  1  0  0  0
 80 84  1  0  0  0
 82155  1  0  0  0
M  ISO  4   1 100  68 101  79 101  82 100
M  END
> <chiral flag>
0

> <version>
0

> <s_m_source_file>
/data/baiqing/PycharmProjects/Reinvent-master-3.2/result/LINK_invent/BTK/process_docking_weight1_custom_sum_contain_oxygen_bond_distance_aromatic_linkinvent_7_9_3/rearranged_h_0112.sdf

> <i_m_source_file_index>
54

> <r_mmod_Potential_Energy-OPLS-2005>
1441.53076171875

> <r_mmod_Stretch_Energy-OPLS-2005>
704.787414550781

> <r_mmod_Bend_Energy-OPLS-2005>
501.227294921875

> <r_mmod_Torsional_Energy-OPLS-2005>
246.25227355957

> <r_mmod_Improper_Torsional_Energy-OPLS-2005>
9.00821495056152

> <r_mmod_Van_der_Waal_Energy-OPLS-2005>
135.169631958008

> <r_mmod_Electrostatic_Energy-OPLS-2005>
-482.460906982422

> <r_mmod_Solvation_Energy-OPLS-2005>
-224.698257446289

> <b_mmod_Minimization_Converged-OPLS-2005>
0

> <r_mmod_RMS_Derivative-OPLS-2005>
1.7401111125946

$$$$
54
                    3D
 Structure written by MMmdl.
153160  0  0  1  0            999 V2000
  -30.6170  -14.6946   20.4897 C   0  0  0  0  0  0
  -30.4381  -12.4284   19.4597 C   0  0  0  0  0  0
  -29.5103  -12.5012   18.2268 C   0  0  0  0  0  0
  -28.0348  -12.3298   18.6410 C   0  0  0  0  0  0
  -27.6457  -13.2216   19.8509 C   0  0  2  0  0  0
  -28.6908  -13.1228   20.9830 C   0  0  0  0  0  0
  -25.2534  -13.8178   20.5678 C   0  0  0  0  0  0
  -24.1812  -13.0440   20.9196 C   0  0  0  0  0  0
  -24.6387  -11.6912   20.8739 C   0  0  0  0  0  0
  -23.9062  -10.4297   21.0402 C   0  0  0  0  0  0
  -24.3616   -9.4211   21.9175 C   0  0  0  0  0  0
  -23.6291   -8.2249   22.0750 C   0  0  0  0  0  0
  -22.4276   -8.0280   21.3539 C   0  0  0  0  0  0
  -21.9909   -9.0256   20.4647 C   0  0  0  0  0  0
  -22.7236  -10.2133   20.3052 C   0  0  0  0  0  0
  -21.6859   -6.0735   22.5276 C   0  0  0  0  0  0
  -21.4021   -6.5639   23.8208 C   0  0  0  0  0  0
  -21.3660   -5.6789   24.9168 C   0  0  0  0  0  0
  -21.6045   -4.3054   24.7219 C   0  0  0  0  0  0
  -21.8821   -3.8143   23.4342 C   0  0  0  0  0  0
  -21.9194   -4.6959   22.3398 C   0  0  0  0  0  0
  -22.7834  -13.5232   21.1848 C   0  0  0  0  0  0
  -22.1663   -4.2144   21.0976 F   0  0  0  0  0  0
  -21.5623   -3.4536   25.7731 F   0  0  0  0  0  0
  -29.9963  -13.4730   20.4058 N   0  0  0  0  0  0
  -26.2950  -12.9362   20.3264 N   0  0  0  0  0  0
  -25.9311  -11.6518   20.5734 N   0  0  0  0  0  0
  -22.0478  -12.8227   22.0406 N   0  0  0  0  0  0
  -25.4239  -15.1905   20.4105 N   0  0  0  0  0  0
  -31.8020  -14.8270   20.1718 O   0  0  0  0  0  0
  -21.6645   -6.8873   21.4237 O   0  0  0  0  0  0
  -22.3523  -14.5537   20.6689 O   0  0  0  0  0  0
  -24.6297  -31.8580   23.2012 C   0  0  0  0  0  0
  -25.9131  -32.4768   23.8348 C   0  0  1  0  0  0
  -27.2184  -27.2835   20.1173 C   0  0  0  0  0  0
  -25.5926  -33.8568   24.2268 N   0  0  0  0  0  0
  -23.4248  -30.4833   21.5448 C   0  0  2  0  0  0
  -24.8705  -28.9374   20.1112 C   0  0  0  0  0  0
  -22.7492  -29.4622   22.4921 C   0  0  0  0  0  0
  -18.0290  -28.1384   22.8487 C   0  0  0  0  0  0
  -24.1491  -36.7296   23.2639 C   0  0  0  0  0  0
  -25.9707  -30.7788   21.3772 C   0  0  0  0  0  0
  -26.0438  -29.4039   20.7171 C   0  0  0  0  0  0
  -27.2215  -28.5906   20.7085 C   0  0  0  0  0  0
  -26.0176  -26.8861   19.4817 C   0  0  0  0  0  0
  -24.8616  -27.6854   19.4838 C   0  0  0  0  0  0
  -23.6409  -29.8210   20.1603 C   0  0  0  0  0  0
  -25.4116  -36.3078   24.0327 C   0  0  1  0  0  0
  -20.5896  -28.3695   23.1270 C   0  0  2  0  0  0
  -20.6774  -26.9414   22.5401 C   0  0  0  0  0  0
  -19.5748  -26.6385   21.5208 C   0  0  0  0  0  0
  -18.1932  -26.7926   22.1629 C   0  0  0  0  0  0
  -19.1544  -28.8857   23.2876 C   0  0  0  0  0  0
  -18.9463  -30.1455   23.8900 C   0  0  0  0  0  0
  -17.6462  -30.6588   24.0560 C   0  0  0  0  0  0
  -25.9051  -34.9446   23.5101 C   0  0  0  0  0  0
  -16.5354  -29.9086   23.6326 C   0  0  0  0  0  0
  -16.7277  -28.6499   23.0356 C   0  0  0  0  0  0
  -26.4498  -31.6584   25.0727 C   0  0  0  0  0  0
  -25.3717  -31.3735   26.1445 C   0  0  0  0  0  0
  -27.0338  -30.3000   24.6197 C   0  0  0  0  0  0
  -27.6053  -32.4320   25.7499 C   0  0  0  0  0  0
  -27.5581  -37.1800   24.8462 C   0  0  0  0  0  0
  -21.4202  -29.3051   22.3661 N   0  0  0  0  0  0
  -26.4293  -37.3773   23.9407 N   0  0  0  0  0  0
  -24.6942  -31.0567   22.0977 N   0  0  0  0  0  0
  -23.4201  -28.8151   23.3004 O   0  0  0  0  0  0
  -28.3159  -26.3942   20.1689 O   0  0  0  0  0  0
  -26.5623  -34.8918   22.4669 O   0  0  0  0  0  0
  -23.5450  -32.1387   23.7323 O   0  0  0  0  0  0
  -29.5009  -21.0086   20.1175 C   0  0  0  0  0  0
  -28.6314  -22.2731   20.5457 C   0  0  0  0  0  0
  -29.6105  -18.3873   20.0433 C   0  0  0  0  0  0
  -30.1678  -17.2447   21.0224 C   0  0  0  0  0  0
  -28.0177  -24.9244   20.1493 C   0  0  0  0  0  0
  -29.1488  -23.8013   20.3474 C   0  0  1  0  0  0
  -29.2290  -19.7480   20.6075 N   0  0  0  0  0  0
  -29.8231  -15.7884   20.7579 N   0  0  0  0  0  0
  -30.0421  -24.2064   21.4567 N   0  3  0  0  0  0
  -30.3908  -21.1714   19.2830 O   0  0  0  0  0  0
  -31.4786  -12.5589   19.1575 H   0  0  0  0  0  0
  -30.3830  -11.4451   19.9297 H   0  0  0  0  0  0
  -29.7865  -11.7343   17.5020 H   0  0  0  0  0  0
  -29.6409  -13.4596   17.7216 H   0  0  0  0  0  0
  -27.8869  -11.2797   18.8960 H   0  0  0  0  0  0
  -27.3783  -12.5306   17.7940 H   0  0  0  0  0  0
  -27.6500  -14.2477   19.4836 H   0  0  0  0  0  0
  -28.7172  -12.1153   21.4008 H   0  0  0  0  0  0
  -28.4292  -13.7853   21.8094 H   0  0  0  0  0  0
  -25.2761   -9.5690   22.4747 H   0  0  0  0  0  0
  -23.9998   -7.4647   22.7479 H   0  0  0  0  0  0
  -21.0834   -8.8782   19.8964 H   0  0  0  0  0  0
  -22.3694  -10.9670   19.6163 H   0  0  0  0  0  0
  -21.2026   -7.6147   23.9707 H   0  0  0  0  0  0
  -21.1476   -6.0520   25.9068 H   0  0  0  0  0  0
  -22.0600   -2.7604   23.2844 H   0  0  0  0  0  0
  -22.4098  -11.9897   22.4809 H   0  0  0  0  0  0
  -21.1095  -13.1248   22.2607 H   0  0  0  0  0  0
  -24.6546  -15.8422   20.5239 H   0  0  0  0  0  0
  -26.2639  -15.6305   20.0582 H   0  0  0  0  0  0
  -26.7199  -32.5428   23.1093 H   0  0  0  0  0  0
  -25.0046  -33.9702   25.0393 H   0  0  0  0  0  0
  -22.7198  -31.3048   21.4014 H   0  0  0  0  0  0
  -23.3750  -35.9632   23.3293 H   0  0  0  0  0  0
  -24.3585  -36.8923   22.2056 H   0  0  0  0  0  0
  -23.7245  -37.6497   23.6665 H   0  0  0  0  0  0
  -26.1050  -31.5415   20.6092 H   0  0  0  0  0  0
  -26.8505  -30.8278   22.0075 H   0  0  0  0  0  0
  -28.1202  -28.9442   21.1946 H   0  0  0  0  0  0
  -25.9259  -25.9391   18.9753 H   0  0  0  0  0  0
  -23.9636  -27.3243   19.0014 H   0  0  0  0  0  0
  -23.7621  -30.5981   19.4045 H   0  0  0  0  0  0
  -22.7596  -29.2522   19.8579 H   0  0  0  0  0  0
  -25.1295  -36.1928   25.0818 H   0  0  0  0  0  0
  -20.9993  -28.3270   24.1388 H   0  0  0  0  0  0
  -20.5674  -26.2304   23.3602 H   0  0  0  0  0  0
  -21.6641  -26.7434   22.1193 H   0  0  0  0  0  0
  -19.6905  -25.6295   21.1237 H   0  0  0  0  0  0
  -19.6683  -27.3194   20.6736 H   0  0  0  0  0  0
  -17.4192  -26.6668   21.4040 H   0  0  0  0  0  0
  -18.0344  -26.0073   22.9033 H   0  0  0  0  0  0
  -19.7940  -30.7267   24.2279 H   0  0  0  0  0  0
  -17.5018  -31.6272   24.5155 H   0  0  0  0  0  0
  -15.5355  -30.2989   23.7648 H   0  0  0  0  0  0
  -15.8676  -28.0816   22.7079 H   0  0  0  0  0  0
  -24.5892  -30.7082   25.7771 H   0  0  0  0  0  0
  -24.8905  -32.2907   26.4853 H   0  0  0  0  0  0
  -25.8029  -30.8921   27.0231 H   0  0  0  0  0  0
  -26.2920  -29.6756   24.1202 H   0  0  0  0  0  0
  -27.4001  -29.7252   25.4714 H   0  0  0  0  0  0
  -27.8807  -30.4278   23.9452 H   0  0  0  0  0  0
  -27.2664  -33.3624   26.2071 H   0  0  0  0  0  0
  -28.3871  -32.6874   25.0331 H   0  0  0  0  0  0
  -28.0715  -31.8445   26.5419 H   0  0  0  0  0  0
  -28.2589  -38.0105   24.7510 H   0  0  0  0  0  0
  -28.1083  -36.2631   24.6285 H   0  0  0  0  0  0
  -27.2293  -37.1446   25.8863 H   0  0  0  0  0  0
  -20.9372  -29.8786   21.6886 H   0  0  0  0  0  0
  -26.0171  -38.2848   24.1407 H   0  0  0  0  0  0
  -28.3128  -22.1323   21.5792 H   0  0  0  0  0  0
  -27.7164  -22.1751   19.9595 H   0  0  0  0  0  0
  -28.7034  -18.0066   19.5730 H   0  0  0  0  0  0
  -30.3175  -18.5177   19.2227 H   0  0  0  0  0  0
  -29.7835  -17.4509   22.0216 H   0  0  0  0  0  0
  -31.2501  -17.3493   21.1115 H   0  0  0  0  0  0
  -27.2448  -24.7466   20.8989 H   0  0  0  0  0  0
  -27.5662  -24.6835   19.1878 H   0  0  0  0  0  0
  -29.7635  -23.8239   19.4466 H   0  0  0  0  0  0
  -28.5139  -19.7164   21.3234 H   0  0  0  0  0  0
  -28.8542  -15.5536   20.9123 H   0  0  0  0  0  0
  -29.5611  -24.2107   22.3407 H   0  0  0  0  0  0
  -30.3842  -25.1390   21.2939 H   0  0  0  0  0  0
  -30.8401  -23.5989   21.5288 H   0  0  0  0  0  0
  1 25  1  0  0  0
  1 30  2  0  0  0
  1 78  1  0  0  0
  2  3  1  0  0  0
  2 25  1  0  0  0
  2 81  1  0  0  0
  2 82  1  0  0  0
  3  4  1  0  0  0
  3 83  1  0  0  0
  3 84  1  0  0  0
  4  5  1  0  0  0
  4 85  1  0  0  0
  4 86  1  0  0  0
  5  6  1  0  0  0
  5 26  1  0  0  0
  5 87  1  0  0  0
  6 25  1  0  0  0
  6 88  1  0  0  0
  6 89  1  0  0  0
  7  8  2  0  0  0
  7 26  1  0  0  0
  7 29  1  0  0  0
  8  9  1  0  0  0
  8 22  1  0  0  0
  9 10  1  0  0  0
  9 27  2  0  0  0
 10 11  2  0  0  0
 10 15  1  0  0  0
 11 12  1  0  0  0
 11 90  1  0  0  0
 12 13  2  0  0  0
 12 91  1  0  0  0
 13 14  1  0  0  0
 13 31  1  0  0  0
 14 15  2  0  0  0
 14 92  1  0  0  0
 15 93  1  0  0  0
 16 17  2  0  0  0
 16 21  1  0  0  0
 16 31  1  0  0  0
 17 18  1  0  0  0
 17 94  1  0  0  0
 18 19  2  0  0  0
 18 95  1  0  0  0
 19 20  1  0  0  0
 19 24  1  0  0  0
 20 21  2  0  0  0
 20 96  1  0  0  0
 21 23  1  0  0  0
 22 28  1  0  0  0
 22 32  2  0  0  0
 26 27  1  0  0  0
 28 97  1  0  0  0
 28 98  1  0  0  0
 29 99  1  0  0  0
 29100  1  0  0  0
 33 34  1  0  0  0
 33 66  1  0  0  0
 33 70  2  0  0  0
 34 36  1  0  0  0
 34 59  1  0  0  0
 34101  1  0  0  0
 35 44  2  0  0  0
 35 45  1  0  0  0
 35 68  1  0  0  0
 36 56  1  0  0  0
 36102  1  0  0  0
 37 39  1  0  0  0
 37 47  1  0  0  0
 37 66  1  0  0  0
 37103  1  0  0  0
 38 43  2  0  0  0
 38 46  1  0  0  0
 38 47  1  0  0  0
 39 64  1  0  0  0
 39 67  2  0  0  0
 40 52  1  0  0  0
 40 53  2  0  0  0
 40 58  1  0  0  0
 41104  1  0  0  0
 41105  1  0  0  0
 41106  1  0  0  0
 41 48  1  0  0  0
 42 43  1  0  0  0
 42 66  1  0  0  0
 42107  1  0  0  0
 42108  1  0  0  0
 43 44  1  0  0  0
 44109  1  0  0  0
 45 46  2  0  0  0
 45110  1  0  0  0
 46111  1  0  0  0
 47112  1  0  0  0
 47113  1  0  0  0
 48 56  1  0  0  0
 48 65  1  0  0  0
 48114  1  0  0  0
 49 50  1  0  0  0
 49 53  1  0  0  0
 49 64  1  0  0  0
 49115  1  0  0  0
 50 51  1  0  0  0
 50116  1  0  0  0
 50117  1  0  0  0
 51 52  1  0  0  0
 51118  1  0  0  0
 51119  1  0  0  0
 52120  1  0  0  0
 52121  1  0  0  0
 53 54  1  0  0  0
 54 55  2  0  0  0
 54122  1  0  0  0
 55 57  1  0  0  0
 55123  1  0  0  0
 56 69  2  0  0  0
 57 58  2  0  0  0
 57124  1  0  0  0
 58125  1  0  0  0
 59 60  1  0  0  0
 59 61  1  0  0  0
 59 62  1  0  0  0
 60126  1  0  0  0
 60127  1  0  0  0
 60128  1  0  0  0
 61129  1  0  0  0
 61130  1  0  0  0
 61131  1  0  0  0
 62132  1  0  0  0
 62133  1  0  0  0
 62134  1  0  0  0
 63 65  1  0  0  0
 63135  1  0  0  0
 63136  1  0  0  0
 63137  1  0  0  0
 64138  1  0  0  0
 65139  1  0  0  0
 68 75  1  0  0  0
 71 72  1  0  0  0
 71 77  1  0  0  0
 71 80  2  0  0  0
 72 76  1  0  0  0
 72140  1  0  0  0
 72141  1  0  0  0
 73 74  1  0  0  0
 73 77  1  0  0  0
 73142  1  0  0  0
 73143  1  0  0  0
 74 78  1  0  0  0
 74144  1  0  0  0
 74145  1  0  0  0
 75 76  1  0  0  0
 75146  1  0  0  0
 75147  1  0  0  0
 76 79  1  0  0  0
 76148  1  0  0  0
 77149  1  0  0  0
 78150  1  0  0  0
 79151  1  0  0  0
 79152  1  0  0  0
 79153  1  0  0  0
M  CHG  1  79   1
M  ISO  4   1 100  68 101  75 101  78 100
M  END
> <chiral flag>
0

> <version>
0

> <s_m_source_file>
/data/baiqing/PycharmProjects/Reinvent-master-3.2/result/LINK_invent/BTK/process_docking_weight1_custom_sum_contain_oxygen_bond_distance_aromatic_linkinvent_7_9_3/rearranged_h_0112.sdf

> <i_m_source_file_index>
55

> <r_mmod_Potential_Energy-OPLS-2005>
-243.887054443359

> <r_mmod_Stretch_Energy-OPLS-2005>
104.445198059082

> <r_mmod_Bend_Energy-OPLS-2005>
155.912185668945

> <r_mmod_Torsional_Energy-OPLS-2005>
210.903121948242

> <r_mmod_Improper_Torsional_Energy-OPLS-2005>
4.96063470840454

> <r_mmod_Van_der_Waal_Energy-OPLS-2005>
123.622459411621

> <r_mmod_Electrostatic_Energy-OPLS-2005>
-403.800750732422

> <r_mmod_Solvation_Energy-OPLS-2005>
-509.429779052734

> <b_mmod_Minimization_Converged-OPLS-2005>
0

> <r_mmod_RMS_Derivative-OPLS-2005>
1.03818559646606

$$$$
55
                    3D
 Structure written by MMmdl.
172181  0  0  1  0            999 V2000
  -30.7741  -14.4099   20.6337 C   0  0  0  0  0  0
  -30.4157  -12.3024   19.4003 C   0  0  0  0  0  0
  -29.4863  -12.5125   18.1905 C   0  0  0  0  0  0
  -28.0114  -12.3530   18.6027 C   0  0  0  0  0  0
  -27.6601  -13.1870   19.8611 C   0  0  2  0  0  0
  -28.7058  -12.9696   20.9847 C   0  0  0  0  0  0
  -25.2611  -13.8103   20.5641 C   0  0  0  0  0  0
  -24.1841  -13.0431   20.9186 C   0  0  0  0  0  0
  -24.6355  -11.6885   20.8722 C   0  0  0  0  0  0
  -23.9008  -10.4288   21.0407 C   0  0  0  0  0  0
  -24.3567   -9.4219   21.9196 C   0  0  0  0  0  0
  -23.6280   -8.2237   22.0761 C   0  0  0  0  0  0
  -22.4268   -8.0258   21.3550 C   0  0  0  0  0  0
  -21.9883   -9.0225   20.4654 C   0  0  0  0  0  0
  -22.7178  -10.2124   20.3065 C   0  0  0  0  0  0
  -21.6854   -6.0716   22.5277 C   0  0  0  0  0  0
  -21.4000   -6.5619   23.8207 C   0  0  0  0  0  0
  -21.3664   -5.6779   24.9176 C   0  0  0  0  0  0
  -21.6051   -4.3044   24.7222 C   0  0  0  0  0  0
  -21.8827   -3.8124   23.4348 C   0  0  0  0  0  0
  -21.9199   -4.6943   22.3402 C   0  0  0  0  0  0
  -22.7862  -13.5268   21.1839 C   0  0  0  0  0  0
  -22.1669   -4.2126   21.0983 F   0  0  0  0  0  0
  -21.5649   -3.4528   25.7741 F   0  0  0  0  0  0
  -30.0444  -13.2734   20.4426 N   0  0  0  0  0  0
  -26.3005  -12.9227   20.3281 N   0  0  0  0  0  0
  -25.9272  -11.6412   20.5719 N   0  0  0  0  0  0
  -22.0455  -12.8301   22.0382 N   0  0  0  0  0  0
  -25.4367  -15.1812   20.4036 N   0  0  0  0  0  0
  -31.8382  -14.6098   20.0351 O   0  0  0  0  0  0
  -21.6646   -6.8847   21.4245 O   0  0  0  0  0  0
  -22.3580  -14.5583   20.6685 O   0  0  0  0  0  0
  -24.6060  -31.8742   23.2126 C   0  0  0  0  0  0
  -25.8976  -32.4866   23.8407 C   0  0  1  0  0  0
  -27.2430  -27.4760   20.0959 C   0  0  0  0  0  0
  -25.5832  -33.8661   24.2300 N   0  0  0  0  0  0
  -23.3933  -30.4954   21.5555 C   0  0  2  0  0  0
  -24.8418  -28.9653   20.1222 C   0  0  0  0  0  0
  -22.7368  -29.4699   22.5047 C   0  0  0  0  0  0
  -18.0260  -28.1401   22.8509 C   0  0  0  0  0  0
  -24.1482  -36.7389   23.2630 C   0  0  0  0  0  0
  -25.9185  -30.8488   21.3663 C   0  0  0  0  0  0
  -25.9971  -29.4870   20.7146 C   0  0  0  0  0  0
  -27.2009  -28.7528   20.7027 C   0  0  0  0  0  0
  -26.0691  -26.9611   19.5089 C   0  0  0  0  0  0
  -24.8698  -27.6973   19.5172 C   0  0  0  0  0  0
  -23.5975  -29.8212   20.1727 C   0  0  0  0  0  0
  -25.4107  -36.3154   24.0313 C   0  0  1  0  0  0
  -20.5843  -28.3669   23.1353 C   0  0  2  0  0  0
  -20.6757  -26.9417   22.5440 C   0  0  0  0  0  0
  -19.5732  -26.6395   21.5248 C   0  0  0  0  0  0
  -18.1902  -26.7962   22.1625 C   0  0  0  0  0  0
  -19.1504  -28.8853   23.2936 C   0  0  0  0  0  0
  -18.9446  -30.1469   23.8926 C   0  0  0  0  0  0
  -17.6450  -30.6610   24.0571 C   0  0  0  0  0  0
  -25.9026  -34.9505   23.5108 C   0  0  0  0  0  0
  -16.5333  -29.9114   23.6338 C   0  0  0  0  0  0
  -16.7252  -28.6528   23.0355 C   0  0  0  0  0  0
  -26.4376  -31.6633   25.0739 C   0  0  0  0  0  0
  -25.3606  -31.3830   26.1484 C   0  0  0  0  0  0
  -27.0166  -30.3026   24.6186 C   0  0  0  0  0  0
  -27.5982  -32.4334   25.7479 C   0  0  0  0  0  0
  -27.5591  -37.1857   24.8425 C   0  0  0  0  0  0
  -21.4105  -29.3026   22.3757 N   0  0  0  0  0  0
  -26.4304  -37.3827   23.9374 N   0  0  0  0  0  0
  -24.6571  -31.0866   22.1026 N   0  0  0  0  0  0
  -23.4166  -28.8271   23.3082 O   0  0  0  0  0  0
  -28.3587  -26.6734   20.0169 O   0  0  0  0  0  0
  -26.5638  -34.8935   22.4705 O   0  0  0  0  0  0
  -23.5266  -32.1487   23.7552 O   0  0  0  0  0  0
  -31.4140  -22.8061   21.6801 C   0  0  0  0  0  0
  -31.5198  -24.1640   21.3354 C   0  0  0  0  0  0
  -30.4441  -22.0137   21.0414 C   0  0  0  0  0  0
  -30.6502  -24.6903   20.3644 C   0  0  0  0  0  0
  -29.6176  -22.6251   20.0714 C   0  0  0  0  0  0
  -30.2332  -20.6347   21.4941 C   0  0  0  0  0  0
  -30.9273  -19.5456   21.1069 C   0  0  0  0  0  0
  -29.5476  -17.4481   20.8485 C   0  0  0  0  0  0
  -31.8118  -17.2689   21.9614 C   0  0  0  0  0  0
  -29.1893  -16.0994   21.4943 C   0  0  0  0  0  0
  -31.3861  -15.8823   22.4988 C   0  0  0  0  0  0
  -30.5922  -18.1804   21.6997 C   0  0  0  0  0  0
  -28.5312  -21.8513   19.3485 C   0  0  0  0  0  0
  -32.0495  -19.5954   20.0797 C   0  0  0  0  0  0
  -29.4791  -26.8502   22.1739 C   0  0  0  0  0  0
  -30.6961  -26.1743   20.0070 C   0  0  0  0  0  0
  -29.5839  -27.0416   20.6457 C   0  0  1  0  0  0
  -29.7363  -23.9266   19.7255 N   0  0  0  0  0  0
  -30.3838  -15.2481   21.6236 N   0  0  0  0  0  0
  -31.4581  -12.3939   19.0891 H   0  0  0  0  0  0
  -30.3151  -11.2867   19.7856 H   0  0  0  0  0  0
  -29.7341  -11.8064   17.3968 H   0  0  0  0  0  0
  -29.6473  -13.5076   17.7714 H   0  0  0  0  0  0
  -27.8264  -11.2939   18.7884 H   0  0  0  0  0  0
  -27.3598  -12.6345   17.7732 H   0  0  0  0  0  0
  -27.6939  -14.2211   19.5277 H   0  0  0  0  0  0
  -28.6845  -11.9339   21.3257 H   0  0  0  0  0  0
  -28.4598  -13.5581   21.8684 H   0  0  0  0  0  0
  -25.2714   -9.5726   22.4768 H   0  0  0  0  0  0
  -24.0014   -7.4626   22.7468 H   0  0  0  0  0  0
  -21.0822   -8.8704   19.8957 H   0  0  0  0  0  0
  -22.3610  -10.9650   19.6158 H   0  0  0  0  0  0
  -21.1968   -7.6123   23.9695 H   0  0  0  0  0  0
  -21.1490   -6.0511   25.9080 H   0  0  0  0  0  0
  -22.0607   -2.7585   23.2844 H   0  0  0  0  0  0
  -22.4038  -11.9976   22.4816 H   0  0  0  0  0  0
  -21.1059  -13.1361   22.2502 H   0  0  0  0  0  0
  -24.6740  -15.8399   20.5200 H   0  0  0  0  0  0
  -26.2928  -15.6179   20.0847 H   0  0  0  0  0  0
  -26.7062  -32.5578   23.1183 H   0  0  0  0  0  0
  -24.9783  -33.9828   25.0300 H   0  0  0  0  0  0
  -22.6799  -31.3108   21.4173 H   0  0  0  0  0  0
  -23.3716  -35.9756   23.3305 H   0  0  0  0  0  0
  -24.3565  -36.9020   22.2046 H   0  0  0  0  0  0
  -23.7264  -37.6601   23.6658 H   0  0  0  0  0  0
  -26.0321  -31.6193   20.6025 H   0  0  0  0  0  0
  -26.8028  -30.8927   21.9902 H   0  0  0  0  0  0
  -28.0784  -29.1862   21.1577 H   0  0  0  0  0  0
  -26.0838  -25.9849   19.0462 H   0  0  0  0  0  0
  -23.9792  -27.2829   19.0644 H   0  0  0  0  0  0
  -23.6932  -30.5886   19.4038 H   0  0  0  0  0  0
  -22.7248  -29.2301   19.8903 H   0  0  0  0  0  0
  -25.1287  -36.2039   25.0808 H   0  0  0  0  0  0
  -20.9942  -28.3245   24.1472 H   0  0  0  0  0  0
  -20.5714  -26.2277   23.3623 H   0  0  0  0  0  0
  -21.6623  -26.7524   22.1191 H   0  0  0  0  0  0
  -19.6881  -25.6307   21.1269 H   0  0  0  0  0  0
  -19.6682  -27.3216   20.6788 H   0  0  0  0  0  0
  -17.4198  -26.6786   21.3977 H   0  0  0  0  0  0
  -18.0250  -26.0088   22.8979 H   0  0  0  0  0  0
  -19.7926  -30.7286   24.2288 H   0  0  0  0  0  0
  -17.5006  -31.6291   24.5181 H   0  0  0  0  0  0
  -15.5326  -30.3015   23.7664 H   0  0  0  0  0  0
  -15.8663  -28.0866   22.7044 H   0  0  0  0  0  0
  -24.5759  -30.7195   25.7804 H   0  0  0  0  0  0
  -24.8813  -32.3037   26.4826 H   0  0  0  0  0  0
  -25.7888  -30.9038   27.0297 H   0  0  0  0  0  0
  -26.2763  -29.6928   24.0988 H   0  0  0  0  0  0
  -27.3547  -29.7145   25.4727 H   0  0  0  0  0  0
  -27.8760  -30.4241   23.9595 H   0  0  0  0  0  0
  -27.2592  -33.3583   26.2150 H   0  0  0  0  0  0
  -28.3707  -32.6998   25.0250 H   0  0  0  0  0  0
  -28.0745  -31.8418   26.5305 H   0  0  0  0  0  0
  -28.2605  -38.0156   24.7470 H   0  0  0  0  0  0
  -28.1088  -36.2692   24.6229 H   0  0  0  0  0  0
  -27.2330  -37.1490   25.8833 H   0  0  0  0  0  0
  -20.9284  -29.8682   21.6913 H   0  0  0  0  0  0
  -26.0207  -38.2907   24.1371 H   0  0  0  0  0  0
  -32.0523  -22.3840   22.4437 H   0  0  0  0  0  0
  -32.2401  -24.7947   21.8359 H   0  0  0  0  0  0
  -29.4405  -20.5116   22.2184 H   0  0  0  0  0  0
  -28.6490  -18.0605   20.7553 H   0  0  0  0  0  0
  -29.9197  -17.3003   19.8331 H   0  0  0  0  0  0
  -32.3783  -17.1227   21.0420 H   0  0  0  0  0  0
  -32.4898  -17.7515   22.6663 H   0  0  0  0  0  0
  -28.4091  -15.6405   20.9017 H   0  0  0  0  0  0
  -28.7551  -16.2569   22.4822 H   0  0  0  0  0  0
  -30.9690  -15.9791   23.5017 H   0  0  0  0  0  0
  -32.2660  -15.2428   22.5993 H   0  0  0  0  0  0
  -30.1302  -18.3646   22.6722 H   0  0  0  0  0  0
  -28.9742  -21.1061   18.6861 H   0  0  0  0  0  0
  -27.9018  -22.5105   18.7489 H   0  0  0  0  0  0
  -27.8887  -21.3321   20.0594 H   0  0  0  0  0  0
  -32.1547  -20.5795   19.6208 H   0  0  0  0  0  0
  -31.8672  -18.8742   19.2827 H   0  0  0  0  0  0
  -33.0053  -19.3522   20.5454 H   0  0  0  0  0  0
  -28.7310  -27.5025   22.6223 H   0  0  0  0  0  0
  -30.4325  -27.0629   22.6564 H   0  0  0  0  0  0
  -29.2017  -25.8270   22.4293 H   0  0  0  0  0  0
  -30.6669  -26.2836   18.9210 H   0  0  0  0  0  0
  -31.6646  -26.5703   20.3108 H   0  0  0  0  0  0
  -29.8204  -28.0798   20.4098 H   0  0  0  0  0  0
  1 25  1  0  0  0
  1 30  2  0  0  0
  1 89  1  0  0  0
  2  3  1  0  0  0
  2 25  1  0  0  0
  2 90  1  0  0  0
  2 91  1  0  0  0
  3  4  1  0  0  0
  3 92  1  0  0  0
  3 93  1  0  0  0
  4  5  1  0  0  0
  4 94  1  0  0  0
  4 95  1  0  0  0
  5  6  1  0  0  0
  5 26  1  0  0  0
  5 96  1  0  0  0
  6 25  1  0  0  0
  6 97  1  0  0  0
  6 98  1  0  0  0
  7  8  2  0  0  0
  7 26  1  0  0  0
  7 29  1  0  0  0
  8  9  1  0  0  0
  8 22  1  0  0  0
  9 10  1  0  0  0
  9 27  2  0  0  0
 10 11  2  0  0  0
 10 15  1  0  0  0
 11 12  1  0  0  0
 11 99  1  0  0  0
 12 13  2  0  0  0
 12100  1  0  0  0
 13 14  1  0  0  0
 13 31  1  0  0  0
 14 15  2  0  0  0
 14101  1  0  0  0
 15102  1  0  0  0
 16 17  2  0  0  0
 16 21  1  0  0  0
 16 31  1  0  0  0
 17 18  1  0  0  0
 17103  1  0  0  0
 18 19  2  0  0  0
 18104  1  0  0  0
 19 20  1  0  0  0
 19 24  1  0  0  0
 20 21  2  0  0  0
 20105  1  0  0  0
 21 23  1  0  0  0
 22 28  1  0  0  0
 22 32  2  0  0  0
 26 27  1  0  0  0
 28106  1  0  0  0
 28107  1  0  0  0
 29108  1  0  0  0
 29109  1  0  0  0
 33 34  1  0  0  0
 33 66  1  0  0  0
 33 70  2  0  0  0
 34 36  1  0  0  0
 34 59  1  0  0  0
 34110  1  0  0  0
 35 44  2  0  0  0
 35 45  1  0  0  0
 35 68  1  0  0  0
 36 56  1  0  0  0
 36111  1  0  0  0
 37 39  1  0  0  0
 37 47  1  0  0  0
 37 66  1  0  0  0
 37112  1  0  0  0
 38 43  2  0  0  0
 38 46  1  0  0  0
 38 47  1  0  0  0
 39 64  1  0  0  0
 39 67  2  0  0  0
 40 52  1  0  0  0
 40 53  2  0  0  0
 40 58  1  0  0  0
 41113  1  0  0  0
 41114  1  0  0  0
 41115  1  0  0  0
 41 48  1  0  0  0
 42 43  1  0  0  0
 42 66  1  0  0  0
 42116  1  0  0  0
 42117  1  0  0  0
 43 44  1  0  0  0
 44118  1  0  0  0
 45 46  2  0  0  0
 45119  1  0  0  0
 46120  1  0  0  0
 47121  1  0  0  0
 47122  1  0  0  0
 48 56  1  0  0  0
 48 65  1  0  0  0
 48123  1  0  0  0
 49 50  1  0  0  0
 49 53  1  0  0  0
 49 64  1  0  0  0
 49124  1  0  0  0
 50 51  1  0  0  0
 50125  1  0  0  0
 50126  1  0  0  0
 51 52  1  0  0  0
 51127  1  0  0  0
 51128  1  0  0  0
 52129  1  0  0  0
 52130  1  0  0  0
 53 54  1  0  0  0
 54 55  2  0  0  0
 54131  1  0  0  0
 55 57  1  0  0  0
 55132  1  0  0  0
 56 69  2  0  0  0
 57 58  2  0  0  0
 57133  1  0  0  0
 58134  1  0  0  0
 59 60  1  0  0  0
 59 61  1  0  0  0
 59 62  1  0  0  0
 60135  1  0  0  0
 60136  1  0  0  0
 60137  1  0  0  0
 61138  1  0  0  0
 61139  1  0  0  0
 61140  1  0  0  0
 62141  1  0  0  0
 62142  1  0  0  0
 62143  1  0  0  0
 63 65  1  0  0  0
 63144  1  0  0  0
 63145  1  0  0  0
 63146  1  0  0  0
 64147  1  0  0  0
 65148  1  0  0  0
 68 87  1  0  0  0
 71 72  2  0  0  0
 71 73  1  0  0  0
 71149  1  0  0  0
 72 74  1  0  0  0
 72150  1  0  0  0
 73 75  2  0  0  0
 73 76  1  0  0  0
 74 86  1  0  0  0
 74 88  2  0  0  0
 75 83  1  0  0  0
 75 88  1  0  0  0
 76 77  2  0  0  0
 76151  1  0  0  0
 77 84  1  0  0  0
 77 82  1  0  0  0
 78 80  1  0  0  0
 78 82  1  0  0  0
 78152  1  0  0  0
 78153  1  0  0  0
 79 81  1  0  0  0
 79 82  1  0  0  0
 79154  1  0  0  0
 79155  1  0  0  0
 80 89  1  0  0  0
 80156  1  0  0  0
 80157  1  0  0  0
 81 89  1  0  0  0
 81158  1  0  0  0
 81159  1  0  0  0
 82160  1  0  0  0
 83161  1  0  0  0
 83162  1  0  0  0
 83163  1  0  0  0
 84164  1  0  0  0
 84165  1  0  0  0
 84166  1  0  0  0
 85167  1  0  0  0
 85168  1  0  0  0
 85169  1  0  0  0
 85 87  1  0  0  0
 86 87  1  0  0  0
 86170  1  0  0  0
 86171  1  0  0  0
 87172  1  0  0  0
M  ISO  4   1 100  68 101  87 101  89 100
M  END
> <chiral flag>
0

> <version>
0

> <s_m_source_file>
/data/baiqing/PycharmProjects/Reinvent-master-3.2/result/LINK_invent/BTK/process_docking_weight1_custom_sum_contain_oxygen_bond_distance_aromatic_linkinvent_7_9_3/rearranged_h_0112.sdf

> <i_m_source_file_index>
56

> <r_mmod_Potential_Energy-OPLS-2005>
41.8153419494629

> <r_mmod_Stretch_Energy-OPLS-2005>
35.7891464233398

> <r_mmod_Bend_Energy-OPLS-2005>
112.560424804688

> <r_mmod_Torsional_Energy-OPLS-2005>
314.1083984375

> <r_mmod_Improper_Torsional_Energy-OPLS-2005>
6.14289093017578

> <r_mmod_Van_der_Waal_Energy-OPLS-2005>
163.832733154297

> <r_mmod_Electrostatic_Energy-OPLS-2005>
-393.924774169922

> <r_mmod_Solvation_Energy-OPLS-2005>
-205.461608886719

> <b_mmod_Minimization_Converged-OPLS-2005>
0

> <r_mmod_RMS_Derivative-OPLS-2005>
3.01333928108215

$$$$
56
                    3D
 Structure written by MMmdl.
166174  0  0  1  0            999 V2000
  -30.5367  -14.9168   20.4404 C   0  0  0  0  0  0
  -30.4557  -12.5658   19.4924 C   0  0  0  0  0  0
  -29.5320  -12.5445   18.2501 C   0  0  0  0  0  0
  -28.0612  -12.3235   18.6652 C   0  0  0  0  0  0
  -27.6408  -13.2397   19.8432 C   0  0  2  0  0  0
  -28.6866  -13.2326   20.9818 C   0  0  0  0  0  0
  -25.2511  -13.8176   20.5690 C   0  0  0  0  0  0
  -24.1804  -13.0430   20.9224 C   0  0  0  0  0  0
  -24.6407  -11.6904   20.8723 C   0  0  0  0  0  0
  -23.9066  -10.4295   21.0405 C   0  0  0  0  0  0
  -24.3613   -9.4208   21.9184 C   0  0  0  0  0  0
  -23.6295   -8.2241   22.0746 C   0  0  0  0  0  0
  -22.4290   -8.0271   21.3531 C   0  0  0  0  0  0
  -21.9912   -9.0252   20.4648 C   0  0  0  0  0  0
  -22.7235  -10.2141   20.3061 C   0  0  0  0  0  0
  -21.6863   -6.0740   22.5273 C   0  0  0  0  0  0
  -21.4021   -6.5637   23.8206 C   0  0  0  0  0  0
  -21.3650   -5.6788   24.9166 C   0  0  0  0  0  0
  -21.6054   -4.3054   24.7222 C   0  0  0  0  0  0
  -21.8802   -3.8143   23.4338 C   0  0  0  0  0  0
  -21.9182   -4.6962   22.3395 C   0  0  0  0  0  0
  -22.7830  -13.5229   21.1830 C   0  0  0  0  0  0
  -22.1657   -4.2144   21.0978 F   0  0  0  0  0  0
  -21.5621   -3.4537   25.7732 F   0  0  0  0  0  0
  -29.9714  -13.6431   20.3975 N   0  0  0  0  0  0
  -26.2941  -12.9406   20.3237 N   0  0  0  0  0  0
  -25.9346  -11.6539   20.5700 N   0  0  0  0  0  0
  -22.0447  -12.8282   22.0396 N   0  0  0  0  0  0
  -25.4167  -15.1900   20.4078 N   0  0  0  0  0  0
  -31.7356  -15.0214   20.1545 O   0  0  0  0  0  0
  -21.6623   -6.8896   21.4248 O   0  0  0  0  0  0
  -22.3539  -14.5530   20.6632 O   0  0  0  0  0  0
  -24.6417  -31.8442   23.1879 C   0  0  0  0  0  0
  -25.9194  -32.4690   23.8271 C   0  0  1  0  0  0
  -27.2271  -27.1432   20.1253 C   0  0  0  0  0  0
  -25.5946  -33.8501   24.2189 N   0  0  0  0  0  0
  -23.4460  -30.4611   21.5344 C   0  0  2  0  0  0
  -24.8953  -28.8896   20.1064 C   0  0  0  0  0  0
  -22.7571  -29.4532   22.4869 C   0  0  0  0  0  0
  -18.0309  -28.1387   22.8463 C   0  0  0  0  0  0
  -24.1498  -36.7268   23.2639 C   0  0  0  0  0  0
  -26.0012  -30.7102   21.3927 C   0  0  0  0  0  0
  -26.0694  -29.3237   20.7314 C   0  0  0  0  0  0
  -27.2299  -28.4623   20.7352 C   0  0  0  0  0  0
  -26.0246  -26.8152   19.4608 C   0  0  0  0  0  0
  -24.8844  -27.6470   19.4576 C   0  0  0  0  0  0
  -23.6699  -29.7898   20.1534 C   0  0  0  0  0  0
  -25.4128  -36.3036   24.0322 C   0  0  1  0  0  0
  -20.5909  -28.3715   23.1241 C   0  0  2  0  0  0
  -20.6801  -26.9423   22.5409 C   0  0  0  0  0  0
  -19.5787  -26.6373   21.5204 C   0  0  0  0  0  0
  -18.1959  -26.7942   22.1595 C   0  0  0  0  0  0
  -19.1555  -28.8880   23.2838 C   0  0  0  0  0  0
  -18.9481  -30.1493   23.8846 C   0  0  0  0  0  0
  -17.6467  -30.6594   24.0545 C   0  0  0  0  0  0
  -25.9079  -34.9401   23.5066 C   0  0  0  0  0  0
  -16.5360  -29.9083   23.6323 C   0  0  0  0  0  0
  -16.7293  -28.6501   23.0345 C   0  0  0  0  0  0
  -26.4516  -31.6558   25.0719 C   0  0  0  0  0  0
  -25.3682  -31.3770   26.1411 C   0  0  0  0  0  0
  -27.0396  -30.2947   24.6327 C   0  0  0  0  0  0
  -27.6048  -32.4324   25.7497 C   0  0  0  0  0  0
  -27.5582  -37.1797   24.8460 C   0  0  0  0  0  0
  -21.4257  -29.3030   22.3618 N   0  0  0  0  0  0
  -26.4304  -37.3738   23.9396 N   0  0  0  0  0  0
  -24.7156  -31.0283   22.0924 N   0  0  0  0  0  0
  -23.4211  -28.8100   23.3049 O   0  0  0  0  0  0
  -28.2992  -26.1754   20.2136 O   0  0  0  0  0  0
  -26.5658  -34.8902   22.4641 O   0  0  0  0  0  0
  -23.5532  -32.1332   23.7089 O   0  0  0  0  0  0
  -28.2175  -19.6288   20.2957 C   0  0  0  0  0  0
  -28.3954  -18.2051   20.4633 C   0  0  0  0  0  0
  -29.3005  -20.5583   20.1994 C   0  0  0  0  0  0
  -30.5489  -19.8412   20.3854 C   0  0  0  0  0  0
  -29.6666  -17.5512   20.5255 C   0  0  0  0  0  0
  -31.8608  -20.6083   20.4448 C   0  0  0  0  0  0
  -28.1018  -21.4223   15.8765 C   0  0  0  0  0  0
  -30.5420  -22.4356   17.5862 C   0  0  0  0  0  0
  -28.6863  -25.1365   18.1642 C   0  0  0  0  0  0
  -27.9741  -21.7473   17.3736 C   0  0  0  0  0  0
  -29.1098  -23.3763   20.2131 C   0  0  0  0  0  0
  -29.3081  -21.6988   18.1560 C   0  0  2  0  0  0
  -28.2772  -24.7426   19.6031 C   0  0  1  0  0  0
  -30.7104  -18.4532   20.5209 N   0  0  0  0  0  0
  -29.6736  -16.0249   20.6232 N   0  0  0  0  0  0
  -29.1085  -21.9145   19.6052 N   0  0  0  0  0  0
  -31.4925  -12.7212   19.1905 H   0  0  0  0  0  0
  -30.4407  -11.6020   20.0035 H   0  0  0  0  0  0
  -29.8515  -11.7680   17.5547 H   0  0  0  0  0  0
  -29.6169  -13.4905   17.7093 H   0  0  0  0  0  0
  -27.9593  -11.2790   18.9609 H   0  0  0  0  0  0
  -27.3977  -12.4643   17.8090 H   0  0  0  0  0  0
  -27.6149  -14.2487   19.4284 H   0  0  0  0  0  0
  -28.7611  -12.2448   21.4405 H   0  0  0  0  0  0
  -28.3898  -13.9159   21.7794 H   0  0  0  0  0  0
  -25.2769   -9.5693   22.4749 H   0  0  0  0  0  0
  -23.9992   -7.4646   22.7489 H   0  0  0  0  0  0
  -21.0825   -8.8791   19.8977 H   0  0  0  0  0  0
  -22.3696  -10.9673   19.6158 H   0  0  0  0  0  0
  -21.2034   -7.6151   23.9734 H   0  0  0  0  0  0
  -21.1491   -6.0505   25.9074 H   0  0  0  0  0  0
  -22.0593   -2.7610   23.2828 H   0  0  0  0  0  0
  -22.4009  -11.9977   22.4894 H   0  0  0  0  0  0
  -21.1057  -13.1352   22.2506 H   0  0  0  0  0  0
  -24.6370  -15.8316   20.4993 H   0  0  0  0  0  0
  -26.2419  -15.6224   20.0136 H   0  0  0  0  0  0
  -26.7255  -32.5287   23.0994 H   0  0  0  0  0  0
  -25.0079  -33.9619   25.0324 H   0  0  0  0  0  0
  -22.7474  -31.2858   21.3821 H   0  0  0  0  0  0
  -23.3758  -35.9603   23.3312 H   0  0  0  0  0  0
  -24.3567  -36.8879   22.2046 H   0  0  0  0  0  0
  -23.7281  -37.6487   23.6666 H   0  0  0  0  0  0
  -26.1604  -31.4652   20.6214 H   0  0  0  0  0  0
  -26.8704  -30.7534   22.0389 H   0  0  0  0  0  0
  -28.1205  -28.7844   21.2551 H   0  0  0  0  0  0
  -25.9132  -25.8730   18.9473 H   0  0  0  0  0  0
  -23.9909  -27.3093   18.9515 H   0  0  0  0  0  0
  -23.8004  -30.5644   19.3971 H   0  0  0  0  0  0
  -22.7839  -29.2299   19.8487 H   0  0  0  0  0  0
  -25.1312  -36.1863   25.0819 H   0  0  0  0  0  0
  -20.9978  -28.3306   24.1371 H   0  0  0  0  0  0
  -20.5712  -26.2318   23.3623 H   0  0  0  0  0  0
  -21.6673  -26.7481   22.1186 H   0  0  0  0  0  0
  -19.6964  -25.6281   21.1261 H   0  0  0  0  0  0
  -19.6739  -27.3156   20.6715 H   0  0  0  0  0  0
  -17.4237  -26.6682   21.3985 H   0  0  0  0  0  0
  -18.0363  -26.0098   22.9002 H   0  0  0  0  0  0
  -19.7963  -30.7321   24.2171 H   0  0  0  0  0  0
  -17.5036  -31.6270   24.5180 H   0  0  0  0  0  0
  -15.5370  -30.2953   23.7738 H   0  0  0  0  0  0
  -15.8686  -28.0833   22.7057 H   0  0  0  0  0  0
  -24.5849  -30.7140   25.7739 H   0  0  0  0  0  0
  -24.8885  -32.2960   26.4785 H   0  0  0  0  0  0
  -25.7935  -30.8972   27.0229 H   0  0  0  0  0  0
  -26.3035  -29.6655   24.1323 H   0  0  0  0  0  0
  -27.3992  -29.7275   25.4924 H   0  0  0  0  0  0
  -27.8940  -30.4203   23.9669 H   0  0  0  0  0  0
  -27.2657  -33.3647   26.2031 H   0  0  0  0  0  0
  -28.3879  -32.6844   25.0330 H   0  0  0  0  0  0
  -28.0697  -31.8470   26.5443 H   0  0  0  0  0  0
  -28.2608  -38.0078   24.7470 H   0  0  0  0  0  0
  -28.1066  -36.2613   24.6328 H   0  0  0  0  0  0
  -27.2294  -37.1490   25.8859 H   0  0  0  0  0  0
  -20.9483  -29.8712   21.6751 H   0  0  0  0  0  0
  -26.0173  -38.2823   24.1336 H   0  0  0  0  0  0
  -27.2122  -20.0025   20.1648 H   0  0  0  0  0  0
  -27.4982  -17.6080   20.5119 H   0  0  0  0  0  0
  -31.7393  -21.6552   20.1712 H   0  0  0  0  0  0
  -32.6102  -20.1661   19.7871 H   0  0  0  0  0  0
  -32.2484  -20.5951   21.4630 H   0  0  0  0  0  0
  -27.1175  -21.3385   15.4128 H   0  0  0  0  0  0
  -28.6238  -20.4775   15.7174 H   0  0  0  0  0  0
  -28.6414  -22.2018   15.3400 H   0  0  0  0  0  0
  -30.5581  -22.4290   16.4978 H   0  0  0  0  0  0
  -31.4613  -21.9407   17.8993 H   0  0  0  0  0  0
  -30.6412  -23.4669   17.9077 H   0  0  0  0  0  0
  -28.6736  -24.3251   17.4510 H   0  0  0  0  0  0
  -29.6881  -25.5643   18.1425 H   0  0  0  0  0  0
  -28.0198  -25.8896   17.7459 H   0  0  0  0  0  0
  -27.3127  -20.9928   17.8017 H   0  0  0  0  0  0
  -27.4354  -22.6798   17.5090 H   0  0  0  0  0  0
  -28.7935  -23.2681   21.2517 H   0  0  0  0  0  0
  -30.1581  -23.6666   20.2900 H   0  0  0  0  0  0
  -29.6081  -20.6610   17.9869 H   0  0  0  0  0  0
  -27.2449  -24.4047   19.5836 H   0  0  0  0  0  0
  -28.7471  -15.6714   20.7930 H   0  0  0  0  0  0
  1 25  1  0  0  0
  1 30  2  0  0  0
  1 85  1  0  0  0
  2  3  1  0  0  0
  2 25  1  0  0  0
  2 87  1  0  0  0
  2 88  1  0  0  0
  3  4  1  0  0  0
  3 89  1  0  0  0
  3 90  1  0  0  0
  4  5  1  0  0  0
  4 91  1  0  0  0
  4 92  1  0  0  0
  5  6  1  0  0  0
  5 26  1  0  0  0
  5 93  1  0  0  0
  6 25  1  0  0  0
  6 94  1  0  0  0
  6 95  1  0  0  0
  7  8  2  0  0  0
  7 26  1  0  0  0
  7 29  1  0  0  0
  8  9  1  0  0  0
  8 22  1  0  0  0
  9 10  1  0  0  0
  9 27  2  0  0  0
 10 11  2  0  0  0
 10 15  1  0  0  0
 11 12  1  0  0  0
 11 96  1  0  0  0
 12 13  2  0  0  0
 12 97  1  0  0  0
 13 14  1  0  0  0
 13 31  1  0  0  0
 14 15  2  0  0  0
 14 98  1  0  0  0
 15 99  1  0  0  0
 16 17  2  0  0  0
 16 21  1  0  0  0
 16 31  1  0  0  0
 17 18  1  0  0  0
 17100  1  0  0  0
 18 19  2  0  0  0
 18101  1  0  0  0
 19 20  1  0  0  0
 19 24  1  0  0  0
 20 21  2  0  0  0
 20102  1  0  0  0
 21 23  1  0  0  0
 22 28  1  0  0  0
 22 32  2  0  0  0
 26 27  1  0  0  0
 28103  1  0  0  0
 28104  1  0  0  0
 29105  1  0  0  0
 29106  1  0  0  0
 33 34  1  0  0  0
 33 66  1  0  0  0
 33 70  2  0  0  0
 34 36  1  0  0  0
 34 59  1  0  0  0
 34107  1  0  0  0
 35 44  2  0  0  0
 35 45  1  0  0  0
 35 68  1  0  0  0
 36 56  1  0  0  0
 36108  1  0  0  0
 37 39  1  0  0  0
 37 47  1  0  0  0
 37 66  1  0  0  0
 37109  1  0  0  0
 38 43  2  0  0  0
 38 46  1  0  0  0
 38 47  1  0  0  0
 39 64  1  0  0  0
 39 67  2  0  0  0
 40 52  1  0  0  0
 40 53  2  0  0  0
 40 58  1  0  0  0
 41110  1  0  0  0
 41111  1  0  0  0
 41112  1  0  0  0
 41 48  1  0  0  0
 42 43  1  0  0  0
 42 66  1  0  0  0
 42113  1  0  0  0
 42114  1  0  0  0
 43 44  1  0  0  0
 44115  1  0  0  0
 45 46  2  0  0  0
 45116  1  0  0  0
 46117  1  0  0  0
 47118  1  0  0  0
 47119  1  0  0  0
 48 56  1  0  0  0
 48 65  1  0  0  0
 48120  1  0  0  0
 49 50  1  0  0  0
 49 53  1  0  0  0
 49 64  1  0  0  0
 49121  1  0  0  0
 50 51  1  0  0  0
 50122  1  0  0  0
 50123  1  0  0  0
 51 52  1  0  0  0
 51124  1  0  0  0
 51125  1  0  0  0
 52126  1  0  0  0
 52127  1  0  0  0
 53 54  1  0  0  0
 54 55  2  0  0  0
 54128  1  0  0  0
 55 57  1  0  0  0
 55129  1  0  0  0
 56 69  2  0  0  0
 57 58  2  0  0  0
 57130  1  0  0  0
 58131  1  0  0  0
 59 60  1  0  0  0
 59 61  1  0  0  0
 59 62  1  0  0  0
 60132  1  0  0  0
 60133  1  0  0  0
 60134  1  0  0  0
 61135  1  0  0  0
 61136  1  0  0  0
 61137  1  0  0  0
 62138  1  0  0  0
 62139  1  0  0  0
 62140  1  0  0  0
 63 65  1  0  0  0
 63141  1  0  0  0
 63142  1  0  0  0
 63143  1  0  0  0
 64144  1  0  0  0
 65145  1  0  0  0
 68 83  1  0  0  0
 71 72  2  0  0  0
 71 73  1  0  0  0
 71146  1  0  0  0
 72 75  1  0  0  0
 72147  1  0  0  0
 73 74  2  0  0  0
 73 86  1  0  0  0
 74 76  1  0  0  0
 74 84  1  0  0  0
 75 84  2  0  0  0
 75 85  1  0  0  0
 76148  1  0  0  0
 76149  1  0  0  0
 76150  1  0  0  0
 77 80  1  0  0  0
 77151  1  0  0  0
 77152  1  0  0  0
 77153  1  0  0  0
 78154  1  0  0  0
 78155  1  0  0  0
 78156  1  0  0  0
 78 82  1  0  0  0
 79157  1  0  0  0
 79158  1  0  0  0
 79159  1  0  0  0
 79 83  1  0  0  0
 80 82  1  0  0  0
 80160  1  0  0  0
 80161  1  0  0  0
 81 83  1  0  0  0
 81 86  1  0  0  0
 81162  1  0  0  0
 81163  1  0  0  0
 82 86  1  0  0  0
 82164  1  0  0  0
 83165  1  0  0  0
 85166  1  0  0  0
M  ISO  4   1 100  68 101  83 101  85 100
M  END
> <chiral flag>
0

> <version>
0

> <s_m_source_file>
/data/baiqing/PycharmProjects/Reinvent-master-3.2/result/LINK_invent/BTK/process_docking_weight1_custom_sum_contain_oxygen_bond_distance_aromatic_linkinvent_7_9_3/rearranged_h_0112.sdf

> <i_m_source_file_index>
57

> <r_mmod_Potential_Energy-OPLS-2005>
399.875640869141

> <r_mmod_Stretch_Energy-OPLS-2005>
243.952713012695

> <r_mmod_Bend_Energy-OPLS-2005>
312.702178955078

> <r_mmod_Torsional_Energy-OPLS-2005>
266.974761962891

> <r_mmod_Improper_Torsional_Energy-OPLS-2005>
9.05775737762451

> <r_mmod_Van_der_Waal_Energy-OPLS-2005>
142.970153808594

> <r_mmod_Electrostatic_Energy-OPLS-2005>
-522.110107421875

> <r_mmod_Solvation_Energy-OPLS-2005>
-229.33447265625

> <b_mmod_Minimization_Converged-OPLS-2005>
0

> <r_mmod_RMS_Derivative-OPLS-2005>
4.23460626602173

$$$$
57
                    3D
 Structure written by MMmdl.
159167  0  0  1  0            999 V2000
  -30.7058  -14.6195   20.4864 C   0  0  0  0  0  0
  -30.4114  -12.3821   19.4600 C   0  0  0  0  0  0
  -29.4964  -12.4921   18.2245 C   0  0  0  0  0  0
  -28.0221  -12.3355   18.6409 C   0  0  0  0  0  0
  -27.6429  -13.2254   19.8558 C   0  0  2  0  0  0
  -28.6918  -13.1469   20.9879 C   0  0  0  0  0  0
  -25.2526  -13.8190   20.5727 C   0  0  0  0  0  0
  -24.1801  -13.0441   20.9205 C   0  0  0  0  0  0
  -24.6383  -11.6915   20.8755 C   0  0  0  0  0  0
  -23.9060  -10.4293   21.0411 C   0  0  0  0  0  0
  -24.3613   -9.4207   21.9185 C   0  0  0  0  0  0
  -23.6292   -8.2241   22.0752 C   0  0  0  0  0  0
  -22.4276   -8.0278   21.3542 C   0  0  0  0  0  0
  -21.9909   -9.0251   20.4646 C   0  0  0  0  0  0
  -22.7235  -10.2132   20.3059 C   0  0  0  0  0  0
  -21.6852   -6.0736   22.5278 C   0  0  0  0  0  0
  -21.4012   -6.5639   23.8212 C   0  0  0  0  0  0
  -21.3661   -5.6791   24.9173 C   0  0  0  0  0  0
  -21.6046   -4.3053   24.7224 C   0  0  0  0  0  0
  -21.8818   -3.8146   23.4344 C   0  0  0  0  0  0
  -21.9191   -4.6963   22.3401 C   0  0  0  0  0  0
  -22.7822  -13.5229   21.1858 C   0  0  0  0  0  0
  -22.1661   -4.2149   21.0978 F   0  0  0  0  0  0
  -21.5630   -3.4539   25.7737 F   0  0  0  0  0  0
  -30.0035  -13.4452   20.4019 N   0  0  0  0  0  0
  -26.2948  -12.9384   20.3341 N   0  0  0  0  0  0
  -25.9316  -11.6531   20.5787 N   0  0  0  0  0  0
  -22.0460  -12.8224   22.0413 N   0  0  0  0  0  0
  -25.4247  -15.1914   20.4169 N   0  0  0  0  0  0
  -31.8878  -14.6633   20.1320 O   0  0  0  0  0  0
  -21.6639   -6.8877   21.4240 O   0  0  0  0  0  0
  -22.3513  -14.5533   20.6701 O   0  0  0  0  0  0
  -24.6249  -31.8621   23.2062 C   0  0  0  0  0  0
  -25.9105  -32.4790   23.8379 C   0  0  1  0  0  0
  -27.2128  -27.3236   20.1124 C   0  0  0  0  0  0
  -25.5927  -33.8591   24.2299 N   0  0  0  0  0  0
  -23.4173  -30.4893   21.5483 C   0  0  2  0  0  0
  -24.8612  -28.9522   20.1077 C   0  0  0  0  0  0
  -22.7471  -29.4639   22.4937 C   0  0  0  0  0  0
  -18.0288  -28.1391   22.8489 C   0  0  0  0  0  0
  -24.1489  -36.7299   23.2637 C   0  0  0  0  0  0
  -25.9592  -30.7923   21.3800 C   0  0  0  0  0  0
  -26.0293  -29.4217   20.7205 C   0  0  0  0  0  0
  -27.2059  -28.6162   20.7206 C   0  0  0  0  0  0
  -26.0287  -26.9253   19.4459 C   0  0  0  0  0  0
  -24.8627  -27.7089   19.4621 C   0  0  0  0  0  0
  -23.6307  -29.8320   20.1606 C   0  0  0  0  0  0
  -25.4113  -36.3090   24.0330 C   0  0  1  0  0  0
  -20.5889  -28.3695   23.1284 C   0  0  2  0  0  0
  -20.6778  -26.9419   22.5409 C   0  0  0  0  0  0
  -19.5750  -26.6389   21.5215 C   0  0  0  0  0  0
  -18.1931  -26.7934   22.1629 C   0  0  0  0  0  0
  -19.1540  -28.8858   23.2884 C   0  0  0  0  0  0
  -18.9462  -30.1460   23.8901 C   0  0  0  0  0  0
  -17.6462  -30.6591   24.0567 C   0  0  0  0  0  0
  -25.9049  -34.9457   23.5112 C   0  0  0  0  0  0
  -16.5354  -29.9093   23.6328 C   0  0  0  0  0  0
  -16.7275  -28.6511   23.0348 C   0  0  0  0  0  0
  -26.4492  -31.6594   25.0743 C   0  0  0  0  0  0
  -25.3727  -31.3729   26.1470 C   0  0  0  0  0  0
  -27.0337  -30.3019   24.6197 C   0  0  0  0  0  0
  -27.6056  -32.4329   25.7509 C   0  0  0  0  0  0
  -27.5580  -37.1806   24.8465 C   0  0  0  0  0  0
  -21.4186  -29.3051   22.3679 N   0  0  0  0  0  0
  -26.4293  -37.3782   23.9406 N   0  0  0  0  0  0
  -24.6858  -31.0644   22.1013 N   0  0  0  0  0  0
  -23.4203  -28.8168   23.3001 O   0  0  0  0  0  0
  -28.3224  -26.4664   20.1938 O   0  0  0  0  0  0
  -26.5615  -34.8917   22.4677 O   0  0  0  0  0  0
  -23.5414  -32.1420   23.7393 O   0  0  0  0  0  0
  -28.9485  -23.9760   20.7220 C   0  0  0  0  0  0
  -28.9182  -18.0046   19.9287 C   0  0  0  0  0  0
  -30.1230  -18.0967   22.0323 C   0  0  0  0  0  0
  -29.5818  -16.6107   19.6217 C   0  0  0  0  0  0
  -30.7613  -16.6963   21.7474 C   0  0  0  0  0  0
  -29.8305  -18.9396   20.7638 C   0  0  0  0  0  0
  -29.6348  -22.7664   19.9941 C   0  0  0  0  0  0
  -28.1440  -25.0264   19.8802 C   0  0  0  0  0  0
  -28.9921  -21.3041   19.9690 C   0  0  0  0  0  0
  -29.0514  -24.1173   21.9770 N   0  0  0  0  0  0
  -30.0548  -15.8031   20.7856 N   0  0  0  0  0  0
  -29.2988  -20.3311   21.0872 N   0  3  0  0  0  0
  -31.4574  -12.4590   19.1589 H   0  0  0  0  0  0
  -30.3103  -11.4023   19.9300 H   0  0  0  0  0  0
  -29.7603  -11.7300   17.4900 H   0  0  0  0  0  0
  -29.6441  -13.4563   17.7348 H   0  0  0  0  0  0
  -27.8634  -11.2853   18.8891 H   0  0  0  0  0  0
  -27.3657  -12.5489   17.7967 H   0  0  0  0  0  0
  -27.6364  -14.2480   19.4859 H   0  0  0  0  0  0
  -28.6990  -12.1564   21.4450 H   0  0  0  0  0  0
  -28.4498  -13.8536   21.7837 H   0  0  0  0  0  0
  -25.2756   -9.5687   22.4762 H   0  0  0  0  0  0
  -24.0002   -7.4634   22.7474 H   0  0  0  0  0  0
  -21.0839   -8.8768   19.8957 H   0  0  0  0  0  0
  -22.3689  -10.9670   19.6170 H   0  0  0  0  0  0
  -21.2002   -7.6146   23.9714 H   0  0  0  0  0  0
  -21.1486   -6.0521   25.9076 H   0  0  0  0  0  0
  -22.0598   -2.7609   23.2841 H   0  0  0  0  0  0
  -22.4073  -11.9888   22.4812 H   0  0  0  0  0  0
  -21.1077  -13.1253   22.2611 H   0  0  0  0  0  0
  -24.6627  -15.8501   20.5364 H   0  0  0  0  0  0
  -26.2891  -15.6319   20.1290 H   0  0  0  0  0  0
  -26.7171  -32.5460   23.1126 H   0  0  0  0  0  0
  -25.0070  -33.9745   25.0440 H   0  0  0  0  0  0
  -22.7101  -31.3099   21.4103 H   0  0  0  0  0  0
  -23.3749  -35.9635   23.3305 H   0  0  0  0  0  0
  -24.3580  -36.8913   22.2051 H   0  0  0  0  0  0
  -23.7245  -37.6503   23.6655 H   0  0  0  0  0  0
  -26.0939  -31.5566   20.6134 H   0  0  0  0  0  0
  -26.8393  -30.8375   22.0100 H   0  0  0  0  0  0
  -28.0974  -28.9669   21.2214 H   0  0  0  0  0  0
  -25.9632  -25.9966   18.9008 H   0  0  0  0  0  0
  -23.9724  -27.3517   18.9628 H   0  0  0  0  0  0
  -23.7519  -30.6128   19.4088 H   0  0  0  0  0  0
  -22.7496  -29.2648   19.8551 H   0  0  0  0  0  0
  -25.1291  -36.1949   25.0823 H   0  0  0  0  0  0
  -20.9987  -28.3274   24.1402 H   0  0  0  0  0  0
  -20.5689  -26.2306   23.3612 H   0  0  0  0  0  0
  -21.6646  -26.7457   22.1197 H   0  0  0  0  0  0
  -19.6913  -25.6300   21.1245 H   0  0  0  0  0  0
  -19.6682  -27.3200   20.6745 H   0  0  0  0  0  0
  -17.4201  -26.6685   21.4032 H   0  0  0  0  0  0
  -18.0330  -26.0080   22.9028 H   0  0  0  0  0  0
  -19.7936  -30.7277   24.2274 H   0  0  0  0  0  0
  -17.5015  -31.6269   24.5173 H   0  0  0  0  0  0
  -15.5354  -30.2997   23.7645 H   0  0  0  0  0  0
  -15.8677  -28.0832   22.7057 H   0  0  0  0  0  0
  -24.5904  -30.7076   25.7798 H   0  0  0  0  0  0
  -24.8913  -32.2894   26.4893 H   0  0  0  0  0  0
  -25.8050  -30.8908   27.0247 H   0  0  0  0  0  0
  -26.2914  -29.6772   24.1214 H   0  0  0  0  0  0
  -27.4026  -29.7269   25.4701 H   0  0  0  0  0  0
  -27.8788  -30.4302   23.9431 H   0  0  0  0  0  0
  -27.2669  -33.3628   26.2092 H   0  0  0  0  0  0
  -28.3862  -32.6895   25.0335 H   0  0  0  0  0  0
  -28.0733  -31.8456   26.5421 H   0  0  0  0  0  0
  -28.2599  -38.0101   24.7508 H   0  0  0  0  0  0
  -28.1074  -36.2631   24.6298 H   0  0  0  0  0  0
  -27.2297  -37.1464   25.8868 H   0  0  0  0  0  0
  -20.9361  -29.8781   21.6898 H   0  0  0  0  0  0
  -26.0176  -38.2858   24.1405 H   0  0  0  0  0  0
  -27.9722  -17.8468   20.4483 H   0  0  0  0  0  0
  -28.6633  -18.4858   18.9842 H   0  0  0  0  0  0
  -30.7905  -18.6518   22.6926 H   0  0  0  0  0  0
  -29.2001  -17.9528   22.5966 H   0  0  0  0  0  0
  -30.4351  -16.7827   18.9617 H   0  0  0  0  0  0
  -28.8842  -16.0173   19.0324 H   0  0  0  0  0  0
  -30.8681  -16.1634   22.6942 H   0  0  0  0  0  0
  -31.7797  -16.8693   21.3918 H   0  0  0  0  0  0
  -30.7669  -19.0832   20.2211 H   0  0  0  0  0  0
  -30.6639  -22.6942   20.3462 H   0  0  0  0  0  0
  -29.7422  -23.0670   18.9517 H   0  0  0  0  0  0
  -27.1125  -24.7172   20.0366 H   0  0  0  0  0  0
  -28.3516  -24.8823   18.8198 H   0  0  0  0  0  0
  -29.3325  -20.8330   19.0464 H   0  0  0  0  0  0
  -27.9100  -21.3789   19.8591 H   0  0  0  0  0  0
  -29.6122  -23.3956   22.4138 H   0  0  0  0  0  0
  -29.9860  -20.7667   21.6804 H   0  0  0  0  0  0
  -28.4650  -20.2361   21.6453 H   0  0  0  0  0  0
  1 25  1  0  0  0
  1 30  2  0  0  0
  1 81  1  0  0  0
  2  3  1  0  0  0
  2 25  1  0  0  0
  2 83  1  0  0  0
  2 84  1  0  0  0
  3  4  1  0  0  0
  3 85  1  0  0  0
  3 86  1  0  0  0
  4  5  1  0  0  0
  4 87  1  0  0  0
  4 88  1  0  0  0
  5  6  1  0  0  0
  5 26  1  0  0  0
  5 89  1  0  0  0
  6 25  1  0  0  0
  6 90  1  0  0  0
  6 91  1  0  0  0
  7  8  2  0  0  0
  7 26  1  0  0  0
  7 29  1  0  0  0
  8  9  1  0  0  0
  8 22  1  0  0  0
  9 10  1  0  0  0
  9 27  2  0  0  0
 10 11  2  0  0  0
 10 15  1  0  0  0
 11 12  1  0  0  0
 11 92  1  0  0  0
 12 13  2  0  0  0
 12 93  1  0  0  0
 13 14  1  0  0  0
 13 31  1  0  0  0
 14 15  2  0  0  0
 14 94  1  0  0  0
 15 95  1  0  0  0
 16 17  2  0  0  0
 16 21  1  0  0  0
 16 31  1  0  0  0
 17 18  1  0  0  0
 17 96  1  0  0  0
 18 19  2  0  0  0
 18 97  1  0  0  0
 19 20  1  0  0  0
 19 24  1  0  0  0
 20 21  2  0  0  0
 20 98  1  0  0  0
 21 23  1  0  0  0
 22 28  1  0  0  0
 22 32  2  0  0  0
 26 27  1  0  0  0
 28 99  1  0  0  0
 28100  1  0  0  0
 29101  1  0  0  0
 29102  1  0  0  0
 33 34  1  0  0  0
 33 66  1  0  0  0
 33 70  2  0  0  0
 34 36  1  0  0  0
 34 59  1  0  0  0
 34103  1  0  0  0
 35 44  2  0  0  0
 35 45  1  0  0  0
 35 68  1  0  0  0
 36 56  1  0  0  0
 36104  1  0  0  0
 37 39  1  0  0  0
 37 47  1  0  0  0
 37 66  1  0  0  0
 37105  1  0  0  0
 38 43  2  0  0  0
 38 46  1  0  0  0
 38 47  1  0  0  0
 39 64  1  0  0  0
 39 67  2  0  0  0
 40 52  1  0  0  0
 40 53  2  0  0  0
 40 58  1  0  0  0
 41106  1  0  0  0
 41107  1  0  0  0
 41108  1  0  0  0
 41 48  1  0  0  0
 42 43  1  0  0  0
 42 66  1  0  0  0
 42109  1  0  0  0
 42110  1  0  0  0
 43 44  1  0  0  0
 44111  1  0  0  0
 45 46  2  0  0  0
 45112  1  0  0  0
 46113  1  0  0  0
 47114  1  0  0  0
 47115  1  0  0  0
 48 56  1  0  0  0
 48 65  1  0  0  0
 48116  1  0  0  0
 49 50  1  0  0  0
 49 53  1  0  0  0
 49 64  1  0  0  0
 49117  1  0  0  0
 50 51  1  0  0  0
 50118  1  0  0  0
 50119  1  0  0  0
 51 52  1  0  0  0
 51120  1  0  0  0
 51121  1  0  0  0
 52122  1  0  0  0
 52123  1  0  0  0
 53 54  1  0  0  0
 54 55  2  0  0  0
 54124  1  0  0  0
 55 57  1  0  0  0
 55125  1  0  0  0
 56 69  2  0  0  0
 57 58  2  0  0  0
 57126  1  0  0  0
 58127  1  0  0  0
 59 60  1  0  0  0
 59 61  1  0  0  0
 59 62  1  0  0  0
 60128  1  0  0  0
 60129  1  0  0  0
 60130  1  0  0  0
 61131  1  0  0  0
 61132  1  0  0  0
 61133  1  0  0  0
 62134  1  0  0  0
 62135  1  0  0  0
 62136  1  0  0  0
 63 65  1  0  0  0
 63137  1  0  0  0
 63138  1  0  0  0
 63139  1  0  0  0
 64140  1  0  0  0
 65141  1  0  0  0
 68 78  1  0  0  0
 71 77  1  0  0  0
 71 78  1  0  0  0
 71 80  2  0  0  0
 72 74  1  0  0  0
 72 76  1  0  0  0
 72142  1  0  0  0
 72143  1  0  0  0
 73 75  1  0  0  0
 73 76  1  0  0  0
 73144  1  0  0  0
 73145  1  0  0  0
 74 81  1  0  0  0
 74146  1  0  0  0
 74147  1  0  0  0
 75 81  1  0  0  0
 75148  1  0  0  0
 75149  1  0  0  0
 76 82  1  0  0  0
 76150  1  0  0  0
 77 79  1  0  0  0
 77151  1  0  0  0
 77152  1  0  0  0
 78153  1  0  0  0
 78154  1  0  0  0
 79 82  1  0  0  0
 79155  1  0  0  0
 79156  1  0  0  0
 80157  1  0  0  0
 82158  1  0  0  0
 82159  1  0  0  0
M  CHG  1  82   1
M  ISO  4   1 100  68 101  78 101  81 100
M  END
> <chiral flag>
0

> <version>
0

> <s_m_source_file>
/data/baiqing/PycharmProjects/Reinvent-master-3.2/result/LINK_invent/BTK/process_docking_weight1_custom_sum_contain_oxygen_bond_distance_aromatic_linkinvent_7_9_3/rearranged_h_0112.sdf

> <i_m_source_file_index>
58

> <r_mmod_Potential_Energy-OPLS-2005>
138.242141723633

> <r_mmod_Stretch_Energy-OPLS-2005>
79.8207168579102

> <r_mmod_Bend_Energy-OPLS-2005>
167.94660949707

> <r_mmod_Torsional_Energy-OPLS-2005>
337.483459472656

> <r_mmod_Improper_Torsional_Energy-OPLS-2005>
8.6255989074707

> <r_mmod_Van_der_Waal_Energy-OPLS-2005>
133.599975585938

> <r_mmod_Electrostatic_Energy-OPLS-2005>
-139.763229370117

> <r_mmod_Solvation_Energy-OPLS-2005>
-500.952117919922

> <b_mmod_Minimization_Converged-OPLS-2005>
0

> <r_mmod_RMS_Derivative-OPLS-2005>
0.457491725683212

$$$$
58
                    3D
 Structure written by MMmdl.
165173  0  0  1  0            999 V2000
  -30.4702  -15.0385   20.4393 C   0  0  0  0  0  0
  -30.4519  -12.6615   19.4960 C   0  0  0  0  0  0
  -29.5227  -12.5319   18.2650 C   0  0  0  0  0  0
  -28.0641  -12.2917   18.6909 C   0  0  0  0  0  0
  -27.6247  -13.2373   19.8374 C   0  0  2  0  0  0
  -28.6649  -13.2916   20.9754 C   0  0  0  0  0  0
  -25.2451  -13.8160   20.5630 C   0  0  0  0  0  0
  -24.1742  -13.0409   20.9158 C   0  0  0  0  0  0
  -24.6360  -11.6887   20.8699 C   0  0  0  0  0  0
  -23.9038  -10.4261   21.0395 C   0  0  0  0  0  0
  -24.3589   -9.4180   21.9190 C   0  0  0  0  0  0
  -23.6245   -8.2232   22.0780 C   0  0  0  0  0  0
  -22.4244   -8.0235   21.3552 C   0  0  0  0  0  0
  -21.9862   -9.0235   20.4671 C   0  0  0  0  0  0
  -22.7197  -10.2113   20.3070 C   0  0  0  0  0  0
  -21.6874   -6.0658   22.5267 C   0  0  0  0  0  0
  -21.4025   -6.5610   23.8170 C   0  0  0  0  0  0
  -21.3651   -5.6799   24.9162 C   0  0  0  0  0  0
  -21.6043   -4.3054   24.7243 C   0  0  0  0  0  0
  -21.8818   -3.8088   23.4384 C   0  0  0  0  0  0
  -21.9201   -4.6881   22.3405 C   0  0  0  0  0  0
  -22.7775  -13.5176   21.1799 C   0  0  0  0  0  0
  -22.1657   -4.2064   21.0988 F   0  0  0  0  0  0
  -21.5641   -3.4538   25.7762 F   0  0  0  0  0  0
  -29.9215  -13.7535   20.3669 N   0  0  0  0  0  0
  -26.2865  -12.9356   20.3248 N   0  0  0  0  0  0
  -25.9300  -11.6509   20.5756 N   0  0  0  0  0  0
  -22.0465  -12.8216   22.0423 N   0  0  0  0  0  0
  -25.4074  -15.1895   20.3966 N   0  0  0  0  0  0
  -31.6846  -15.1325   20.2193 O   0  0  0  0  0  0
  -21.6643   -6.8812   21.4219 O   0  0  0  0  0  0
  -22.3438  -14.5495   20.6632 O   0  0  0  0  0  0
  -24.6496  -31.8353   23.1756 C   0  0  0  0  0  0
  -25.9244  -32.4684   23.8166 C   0  0  1  0  0  0
  -27.2111  -27.0667   20.1262 C   0  0  0  0  0  0
  -25.5973  -33.8488   24.2046 N   0  0  0  0  0  0
  -23.4546  -30.4637   21.5102 C   0  0  2  0  0  0
  -24.9040  -28.8662   20.0891 C   0  0  0  0  0  0
  -22.7591  -29.4546   22.4608 C   0  0  0  0  0  0
  -18.0322  -28.1436   22.8464 C   0  0  0  0  0  0
  -24.1484  -36.7313   23.2656 C   0  0  0  0  0  0
  -26.0131  -30.6846   21.3797 C   0  0  0  0  0  0
  -26.0788  -29.2871   20.7231 C   0  0  0  0  0  0
  -27.2266  -28.3990   20.7266 C   0  0  0  0  0  0
  -26.0137  -26.7606   19.4466 C   0  0  0  0  0  0
  -24.8876  -27.6214   19.4364 C   0  0  0  0  0  0
  -23.6941  -29.7948   20.1265 C   0  0  0  0  0  0
  -25.4105  -36.3025   24.0300 C   0  0  1  0  0  0
  -20.5944  -28.3792   23.1154 C   0  0  2  0  0  0
  -20.6816  -26.9478   22.5344 C   0  0  0  0  0  0
  -19.5803  -26.6348   21.5188 C   0  0  0  0  0  0
  -18.1960  -26.7950   22.1586 C   0  0  0  0  0  0
  -19.1588  -28.8892   23.2838 C   0  0  0  0  0  0
  -18.9537  -30.1468   23.8919 C   0  0  0  0  0  0
  -17.6552  -30.6617   24.0578 C   0  0  0  0  0  0
  -25.9050  -34.9439   23.4990 C   0  0  0  0  0  0
  -16.5432  -29.9147   23.6328 C   0  0  0  0  0  0
  -16.7308  -28.6557   23.0340 C   0  0  0  0  0  0
  -26.4524  -31.6631   25.0673 C   0  0  0  0  0  0
  -25.3647  -31.3901   26.1328 C   0  0  0  0  0  0
  -27.0415  -30.3040   24.6270 C   0  0  0  0  0  0
  -27.6009  -32.4425   25.7481 C   0  0  0  0  0  0
  -27.5541  -37.1800   24.8453 C   0  0  0  0  0  0
  -21.4231  -29.3199   22.3545 N   0  0  0  0  0  0
  -26.4247  -37.3756   23.9429 N   0  0  0  0  0  0
  -24.7270  -31.0162   22.0808 N   0  0  0  0  0  0
  -23.4254  -28.7986   23.2651 O   0  0  0  0  0  0
  -28.2672  -26.0733   20.2526 O   0  0  0  0  0  0
  -26.5622  -34.8980   22.4548 O   0  0  0  0  0  0
  -23.5583  -32.1246   23.6938 O   0  0  0  0  0  0
  -30.7228  -18.7810   18.9291 C   0  0  0  0  0  0
  -29.8551  -19.0767   19.9402 C   0  0  0  0  0  0
  -29.5485  -20.5851   19.7213 C   0  0  0  0  0  0
  -30.2174  -20.9449   18.5648 C   0  0  0  0  0  0
  -30.3003  -22.2594   17.8503 C   0  0  0  0  0  0
  -26.6984  -22.5530   19.5717 C   0  0  0  0  0  0
  -29.6537  -17.7604   20.9372 C   0  0  0  0  0  0
  -31.9713  -19.7863   17.0462 C   0  0  0  0  0  0
  -33.3155  -20.5166   17.3227 C   0  0  0  0  0  0
  -28.4477  -24.5955   19.6917 C   0  0  0  0  0  0
  -28.0182  -23.0118   20.2310 C   0  0  2  0  0  0
  -30.9961  -19.8681   18.1408 N   0  0  0  0  0  0
  -28.9210  -21.7140   20.4876 N   0  0  0  0  0  0
  -29.6238  -16.1882   20.5735 N   0  0  0  0  0  0
  -33.9984  -20.0935   18.5687 N   0  3  0  0  0  0
  -31.4722  -12.8739   19.1651 H   0  0  0  0  0  0
  -30.5021  -11.7212   20.0465 H   0  0  0  0  0  0
  -29.8635  -11.7244   17.6181 H   0  0  0  0  0  0
  -29.5738  -13.4430   17.6676 H   0  0  0  0  0  0
  -27.9908  -11.2565   19.0303 H   0  0  0  0  0  0
  -27.3863  -12.3750   17.8401 H   0  0  0  0  0  0
  -27.5828  -14.2290   19.3897 H   0  0  0  0  0  0
  -28.7874  -12.3186   21.4555 H   0  0  0  0  0  0
  -28.3432  -13.9776   21.7611 H   0  0  0  0  0  0
  -25.2752   -9.5679   22.4730 H   0  0  0  0  0  0
  -23.9958   -7.4659   22.7531 H   0  0  0  0  0  0
  -21.0772   -8.8737   19.8991 H   0  0  0  0  0  0
  -22.3639  -10.9633   19.6150 H   0  0  0  0  0  0
  -21.2038   -7.6128   23.9647 H   0  0  0  0  0  0
  -21.1464   -6.0538   25.9059 H   0  0  0  0  0  0
  -22.0603   -2.7546   23.2914 H   0  0  0  0  0  0
  -22.4079  -11.9912   22.4814 H   0  0  0  0  0  0
  -21.1119  -13.1256   22.2656 H   0  0  0  0  0  0
  -24.6186  -15.8252   20.4641 H   0  0  0  0  0  0
  -26.2410  -15.6343   20.0368 H   0  0  0  0  0  0
  -26.7283  -32.5225   23.0846 H   0  0  0  0  0  0
  -25.0289  -33.9599   25.0319 H   0  0  0  0  0  0
  -22.7687  -31.2994   21.3476 H   0  0  0  0  0  0
  -23.3747  -35.9665   23.3265 H   0  0  0  0  0  0
  -24.3548  -36.8973   22.2072 H   0  0  0  0  0  0
  -23.7240  -37.6489   23.6721 H   0  0  0  0  0  0
  -26.1607  -31.4349   20.6002 H   0  0  0  0  0  0
  -26.8921  -30.7473   22.0119 H   0  0  0  0  0  0
  -28.1217  -28.7064   21.2439 H   0  0  0  0  0  0
  -25.9267  -25.8053   18.9465 H   0  0  0  0  0  0
  -23.9911  -27.3033   18.9182 H   0  0  0  0  0  0
  -23.8792  -30.5830   19.3934 H   0  0  0  0  0  0
  -22.8026  -29.2760   19.7721 H   0  0  0  0  0  0
  -25.1263  -36.1841   25.0784 H   0  0  0  0  0  0
  -21.0104  -28.3427   24.1240 H   0  0  0  0  0  0
  -20.5648  -26.2445   23.3611 H   0  0  0  0  0  0
  -21.6666  -26.7370   22.1206 H   0  0  0  0  0  0
  -19.6981  -25.6214   21.1323 H   0  0  0  0  0  0
  -19.6769  -27.3077   20.6686 H   0  0  0  0  0  0
  -17.4210  -26.6713   21.4000 H   0  0  0  0  0  0
  -18.0375  -26.0033   22.8958 H   0  0  0  0  0  0
  -19.8040  -30.7227   24.2300 H   0  0  0  0  0  0
  -17.5167  -31.6309   24.5189 H   0  0  0  0  0  0
  -15.5482  -30.3138   23.7600 H   0  0  0  0  0  0
  -15.8692  -28.0934   22.7047 H   0  0  0  0  0  0
  -24.5887  -30.7184   25.7616 H   0  0  0  0  0  0
  -24.8843  -32.3164   26.4532 H   0  0  0  0  0  0
  -25.7917  -30.9190   27.0211 H   0  0  0  0  0  0
  -26.3046  -29.6747   24.1279 H   0  0  0  0  0  0
  -27.4049  -29.7346   25.4833 H   0  0  0  0  0  0
  -27.8908  -30.4286   23.9562 H   0  0  0  0  0  0
  -27.2564  -33.3821   26.1842 H   0  0  0  0  0  0
  -28.3944  -32.6864   25.0397 H   0  0  0  0  0  0
  -28.0540  -31.8692   26.5556 H   0  0  0  0  0  0
  -28.2482  -38.0156   24.7442 H   0  0  0  0  0  0
  -28.1061  -36.2656   24.6262 H   0  0  0  0  0  0
  -27.2255  -37.1377   25.8852 H   0  0  0  0  0  0
  -20.9360  -29.9239   21.7033 H   0  0  0  0  0  0
  -26.0098  -38.2806   24.1507 H   0  0  0  0  0  0
  -31.2424  -17.8512   18.7410 H   0  0  0  0  0  0
  -29.3067  -22.6644   17.6846 H   0  0  0  0  0  0
  -30.7656  -22.1810   16.8680 H   0  0  0  0  0  0
  -30.8776  -22.9764   18.4314 H   0  0  0  0  0  0
  -25.9373  -23.3347   19.5830 H   0  0  0  0  0  0
  -26.2639  -21.7065   20.1042 H   0  0  0  0  0  0
  -26.8397  -22.2402   18.5367 H   0  0  0  0  0  0
  -28.7100  -17.9496   21.4536 H   0  0  0  0  0  0
  -30.4099  -17.8715   21.7202 H   0  0  0  0  0  0
  -32.1880  -18.7327   16.8550 H   0  0  0  0  0  0
  -31.5067  -20.1458   16.1262 H   0  0  0  0  0  0
  -33.1555  -21.5894   17.3638 H   0  0  0  0  0  0
  -33.9954  -20.3582   16.4857 H   0  0  0  0  0  0
  -28.1298  -24.6590   18.6492 H   0  0  0  0  0  0
  -29.5347  -24.5304   19.6089 H   0  0  0  0  0  0
  -27.7125  -23.2357   21.2553 H   0  0  0  0  0  0
  -28.9356  -21.5271   21.4872 H   0  0  0  0  0  0
  -28.6663  -15.8662   20.6322 H   0  0  0  0  0  0
  -33.4111  -20.2453   19.3708 H   0  0  0  0  0  0
  -34.8334  -20.6412   18.6960 H   0  0  0  0  0  0
  -34.2800  -19.1312   18.5430 H   0  0  0  0  0  0
  1 25  1  0  0  0
  1 30  2  0  0  0
  1 84  1  0  0  0
  2  3  1  0  0  0
  2 25  1  0  0  0
  2 86  1  0  0  0
  2 87  1  0  0  0
  3  4  1  0  0  0
  3 88  1  0  0  0
  3 89  1  0  0  0
  4  5  1  0  0  0
  4 90  1  0  0  0
  4 91  1  0  0  0
  5  6  1  0  0  0
  5 26  1  0  0  0
  5 92  1  0  0  0
  6 25  1  0  0  0
  6 93  1  0  0  0
  6 94  1  0  0  0
  7  8  2  0  0  0
  7 26  1  0  0  0
  7 29  1  0  0  0
  8  9  1  0  0  0
  8 22  1  0  0  0
  9 10  1  0  0  0
  9 27  2  0  0  0
 10 11  2  0  0  0
 10 15  1  0  0  0
 11 12  1  0  0  0
 11 95  1  0  0  0
 12 13  2  0  0  0
 12 96  1  0  0  0
 13 14  1  0  0  0
 13 31  1  0  0  0
 14 15  2  0  0  0
 14 97  1  0  0  0
 15 98  1  0  0  0
 16 17  2  0  0  0
 16 21  1  0  0  0
 16 31  1  0  0  0
 17 18  1  0  0  0
 17 99  1  0  0  0
 18 19  2  0  0  0
 18100  1  0  0  0
 19 20  1  0  0  0
 19 24  1  0  0  0
 20 21  2  0  0  0
 20101  1  0  0  0
 21 23  1  0  0  0
 22 28  1  0  0  0
 22 32  2  0  0  0
 26 27  1  0  0  0
 28102  1  0  0  0
 28103  1  0  0  0
 29104  1  0  0  0
 29105  1  0  0  0
 33 34  1  0  0  0
 33 66  1  0  0  0
 33 70  2  0  0  0
 34 36  1  0  0  0
 34 59  1  0  0  0
 34106  1  0  0  0
 35 44  2  0  0  0
 35 45  1  0  0  0
 35 68  1  0  0  0
 36 56  1  0  0  0
 36107  1  0  0  0
 37 39  1  0  0  0
 37 47  1  0  0  0
 37 66  1  0  0  0
 37108  1  0  0  0
 38 43  2  0  0  0
 38 46  1  0  0  0
 38 47  1  0  0  0
 39 64  1  0  0  0
 39 67  2  0  0  0
 40 52  1  0  0  0
 40 53  2  0  0  0
 40 58  1  0  0  0
 41109  1  0  0  0
 41110  1  0  0  0
 41111  1  0  0  0
 41 48  1  0  0  0
 42 43  1  0  0  0
 42 66  1  0  0  0
 42112  1  0  0  0
 42113  1  0  0  0
 43 44  1  0  0  0
 44114  1  0  0  0
 45 46  2  0  0  0
 45115  1  0  0  0
 46116  1  0  0  0
 47117  1  0  0  0
 47118  1  0  0  0
 48 56  1  0  0  0
 48 65  1  0  0  0
 48119  1  0  0  0
 49 50  1  0  0  0
 49 53  1  0  0  0
 49 64  1  0  0  0
 49120  1  0  0  0
 50 51  1  0  0  0
 50121  1  0  0  0
 50122  1  0  0  0
 51 52  1  0  0  0
 51123  1  0  0  0
 51124  1  0  0  0
 52125  1  0  0  0
 52126  1  0  0  0
 53 54  1  0  0  0
 54 55  2  0  0  0
 54127  1  0  0  0
 55 57  1  0  0  0
 55128  1  0  0  0
 56 69  2  0  0  0
 57 58  2  0  0  0
 57129  1  0  0  0
 58130  1  0  0  0
 59 60  1  0  0  0
 59 61  1  0  0  0
 59 62  1  0  0  0
 60131  1  0  0  0
 60132  1  0  0  0
 60133  1  0  0  0
 61134  1  0  0  0
 61135  1  0  0  0
 61136  1  0  0  0
 62137  1  0  0  0
 62138  1  0  0  0
 62139  1  0  0  0
 63 65  1  0  0  0
 63140  1  0  0  0
 63141  1  0  0  0
 63142  1  0  0  0
 64143  1  0  0  0
 65144  1  0  0  0
 68 80  1  0  0  0
 71 72  2  0  0  0
 71 82  1  0  0  0
 71145  1  0  0  0
 72 73  1  0  0  0
 72 77  1  0  0  0
 73 74  2  0  0  0
 73 83  1  0  0  0
 74 75  1  0  0  0
 74 82  1  0  0  0
 75146  1  0  0  0
 75147  1  0  0  0
 75148  1  0  0  0
 76149  1  0  0  0
 76150  1  0  0  0
 76151  1  0  0  0
 76 81  1  0  0  0
 77 84  1  0  0  0
 77152  1  0  0  0
 77153  1  0  0  0
 78 79  1  0  0  0
 78 82  1  0  0  0
 78154  1  0  0  0
 78155  1  0  0  0
 79 85  1  0  0  0
 79156  1  0  0  0
 79157  1  0  0  0
 80 81  1  0  0  0
 80158  1  0  0  0
 80159  1  0  0  0
 81 83  1  0  0  0
 81160  1  0  0  0
 83161  1  0  0  0
 84162  1  0  0  0
 85163  1  0  0  0
 85164  1  0  0  0
 85165  1  0  0  0
M  CHG  1  85   1
M  ISO  4   1 100  68 101  80 101  84 100
M  END
> <chiral flag>
0

> <version>
0

> <s_m_source_file>
/data/baiqing/PycharmProjects/Reinvent-master-3.2/result/LINK_invent/BTK/process_docking_weight1_custom_sum_contain_oxygen_bond_distance_aromatic_linkinvent_7_9_3/rearranged_h_0112.sdf

> <i_m_source_file_index>
59

> <r_mmod_Potential_Energy-OPLS-2005>
463.945098876953

> <r_mmod_Stretch_Energy-OPLS-2005>
348.856597900391

> <r_mmod_Bend_Energy-OPLS-2005>
477.615509033203

> <r_mmod_Torsional_Energy-OPLS-2005>
236.841323852539

> <r_mmod_Improper_Torsional_Energy-OPLS-2005>
7.22478008270264

> <r_mmod_Van_der_Waal_Energy-OPLS-2005>
97.8883972167969

> <r_mmod_Electrostatic_Energy-OPLS-2005>
-456.330596923828

> <r_mmod_Solvation_Energy-OPLS-2005>
-512.438903808594

> <b_mmod_Minimization_Converged-OPLS-2005>
0

> <r_mmod_RMS_Derivative-OPLS-2005>
8.03870582580566

$$$$
59
                    3D
 Structure written by MMmdl.
157165  0  0  1  0            999 V2000
  -30.6348  -14.8044   20.3885 C   0  0  0  0  0  0
  -30.4112  -12.4953   19.4430 C   0  0  0  0  0  0
  -29.4815  -12.4570   18.2138 C   0  0  0  0  0  0
  -28.0183  -12.2619   18.6534 C   0  0  0  0  0  0
  -27.6159  -13.2015   19.8184 C   0  0  2  0  0  0
  -28.6725  -13.2580   20.9386 C   0  0  0  0  0  0
  -25.2379  -13.8023   20.5821 C   0  0  0  0  0  0
  -24.1642  -13.0278   20.9147 C   0  0  0  0  0  0
  -24.6254  -11.6789   20.8696 C   0  0  0  0  0  0
  -23.8941  -10.4203   21.0374 C   0  0  0  0  0  0
  -24.3529   -9.4157   21.9158 C   0  0  0  0  0  0
  -23.6248   -8.2166   22.0695 C   0  0  0  0  0  0
  -22.4235   -8.0195   21.3494 C   0  0  0  0  0  0
  -21.9829   -9.0149   20.4596 C   0  0  0  0  0  0
  -22.7096  -10.2047   20.3017 C   0  0  0  0  0  0
  -21.6858   -6.0674   22.5263 C   0  0  0  0  0  0
  -21.4011   -6.5596   23.8191 C   0  0  0  0  0  0
  -21.3656   -5.6761   24.9159 C   0  0  0  0  0  0
  -21.6076   -4.3018   24.7235 C   0  0  0  0  0  0
  -21.8823   -3.8095   23.4361 C   0  0  0  0  0  0
  -21.9184   -4.6903   22.3402 C   0  0  0  0  0  0
  -22.7705  -13.5104   21.1855 C   0  0  0  0  0  0
  -22.1667   -4.2085   21.0983 F   0  0  0  0  0  0
  -21.5635   -3.4502   25.7744 F   0  0  0  0  0  0
  -29.9409  -13.6133   20.2972 N   0  0  0  0  0  0
  -26.2776  -12.9212   20.3225 N   0  0  0  0  0  0
  -25.9180  -11.6391   20.5737 N   0  0  0  0  0  0
  -22.0374  -12.8095   22.0419 N   0  0  0  0  0  0
  -25.4056  -15.1755   20.4817 N   0  0  0  0  0  0
  -31.8567  -14.7664   20.2654 O   0  0  0  0  0  0
  -21.6620   -6.8785   21.4196 O   0  0  0  0  0  0
  -22.3455  -14.5475   20.6745 O   0  0  0  0  0  0
  -24.6302  -31.8510   23.1959 C   0  0  0  0  0  0
  -25.9113  -32.4729   23.8282 C   0  0  1  0  0  0
  -27.2359  -27.2740   20.1206 C   0  0  0  0  0  0
  -25.5876  -33.8530   24.2188 N   0  0  0  0  0  0
  -23.4284  -30.4732   21.5360 C   0  0  2  0  0  0
  -24.8750  -28.9089   20.1112 C   0  0  0  0  0  0
  -22.7488  -29.4614   22.4895 C   0  0  0  0  0  0
  -18.0290  -28.1442   22.8509 C   0  0  0  0  0  0
  -24.1470  -36.7318   23.2640 C   0  0  0  0  0  0
  -25.9677  -30.7725   21.3616 C   0  0  0  0  0  0
  -26.0430  -29.3918   20.7130 C   0  0  0  0  0  0
  -27.2236  -28.5852   20.7013 C   0  0  0  0  0  0
  -26.0444  -26.8441   19.5009 C   0  0  0  0  0  0
  -24.8793  -27.6427   19.4965 C   0  0  0  0  0  0
  -23.6426  -29.7930   20.1563 C   0  0  0  0  0  0
  -25.4095  -36.3053   24.0301 C   0  0  1  0  0  0
  -20.5883  -28.3763   23.1288 C   0  0  2  0  0  0
  -20.6778  -26.9480   22.5435 C   0  0  0  0  0  0
  -19.5742  -26.6430   21.5244 C   0  0  0  0  0  0
  -18.1929  -26.7992   22.1650 C   0  0  0  0  0  0
  -19.1527  -28.8925   23.2909 C   0  0  0  0  0  0
  -18.9444  -30.1523   23.8929 C   0  0  0  0  0  0
  -17.6432  -30.6630   24.0586 C   0  0  0  0  0  0
  -25.9035  -34.9428   23.5058 C   0  0  0  0  0  0
  -16.5334  -29.9132   23.6330 C   0  0  0  0  0  0
  -16.7271  -28.6552   23.0359 C   0  0  0  0  0  0
  -26.4481  -31.6606   25.0716 C   0  0  0  0  0  0
  -25.3702  -31.3774   26.1436 C   0  0  0  0  0  0
  -27.0328  -30.3001   24.6242 C   0  0  0  0  0  0
  -27.5978  -32.4395   25.7505 C   0  0  0  0  0  0
  -27.5560  -37.1798   24.8443 C   0  0  0  0  0  0
  -21.4184  -29.3089   22.3646 N   0  0  0  0  0  0
  -26.4274  -37.3753   23.9404 N   0  0  0  0  0  0
  -24.6963  -31.0512   22.0882 N   0  0  0  0  0  0
  -23.4176  -28.8145   23.3000 O   0  0  0  0  0  0
  -28.3807  -26.4511   20.1760 O   0  0  0  0  0  0
  -26.5653  -34.8917   22.4650 O   0  0  0  0  0  0
  -23.5477  -32.1285   23.7281 O   0  0  0  0  0  0
  -28.8894  -21.4353   20.1571 C   0  0  0  0  0  0
  -29.7013  -18.6831   20.2259 C   0  0  0  0  0  0
  -27.2994  -19.5094   19.7682 C   0  0  0  0  0  0
  -27.8777  -17.1314   19.5643 C   0  0  0  0  0  0
  -28.6160  -19.8801   20.4972 C   0  0  2  0  0  0
  -29.1794  -17.1395   20.3911 C   0  0  1  0  0  0
  -27.9751  -23.9200   20.9429 C   0  0  0  0  0  0
  -28.4324  -24.9886   19.8347 C   0  0  0  0  0  0
  -28.2498  -22.3993   20.9171 N   0  0  0  0  0  0
  -30.0749  -15.9868   19.9017 N   0  0  0  0  0  0
  -26.8875  -18.1212   20.0481 N   0  3  0  0  0  0
  -29.5820  -21.7351   19.1825 O   0  0  0  0  0  0
  -31.4426  -12.6232   19.1094 H   0  0  0  0  0  0
  -30.3785  -11.5507   19.9862 H   0  0  0  0  0  0
  -29.7800  -11.6488   17.5411 H   0  0  0  0  0  0
  -29.5707  -13.3832   17.6488 H   0  0  0  0  0  0
  -27.9047  -11.2189   18.9542 H   0  0  0  0  0  0
  -27.3468  -12.4059   17.8038 H   0  0  0  0  0  0
  -27.5688  -14.1699   19.3375 H   0  0  0  0  0  0
  -28.7539  -12.2990   21.4515 H   0  0  0  0  0  0
  -28.3989  -14.0052   21.6821 H   0  0  0  0  0  0
  -25.2674   -9.5663   22.4710 H   0  0  0  0  0  0
  -23.9977   -7.4538   22.7395 H   0  0  0  0  0  0
  -21.0754   -8.8598   19.8934 H   0  0  0  0  0  0
  -22.3509  -10.9550   19.6116 H   0  0  0  0  0  0
  -21.2012   -7.6099   23.9661 H   0  0  0  0  0  0
  -21.1511   -6.0510   25.9070 H   0  0  0  0  0  0
  -22.0642   -2.7552   23.2874 H   0  0  0  0  0  0
  -22.4020  -11.9745   22.4784 H   0  0  0  0  0  0
  -21.0986  -13.1104   22.2629 H   0  0  0  0  0  0
  -24.6196  -15.7024   20.8454 H   0  0  0  0  0  0
  -26.2773  -15.4604   20.9026 H   0  0  0  0  0  0
  -26.7205  -32.5357   23.1045 H   0  0  0  0  0  0
  -24.9928  -33.9663   25.0262 H   0  0  0  0  0  0
  -22.7253  -31.2953   21.3840 H   0  0  0  0  0  0
  -23.3710  -35.9680   23.3275 H   0  0  0  0  0  0
  -24.3581  -36.9001   22.2076 H   0  0  0  0  0  0
  -23.7263  -37.6513   23.6710 H   0  0  0  0  0  0
  -26.0880  -31.5309   20.5861 H   0  0  0  0  0  0
  -26.8502  -30.8385   21.9881 H   0  0  0  0  0  0
  -28.1223  -28.9585   21.1708 H   0  0  0  0  0  0
  -25.9952  -25.8732   19.0307 H   0  0  0  0  0  0
  -23.9799  -27.2682   19.0283 H   0  0  0  0  0  0
  -23.7536  -30.5560   19.3851 H   0  0  0  0  0  0
  -22.7635  -29.2169   19.8637 H   0  0  0  0  0  0
  -25.1285  -36.1870   25.0798 H   0  0  0  0  0  0
  -20.9995  -28.3369   24.1400 H   0  0  0  0  0  0
  -20.5771  -26.2381   23.3670 H   0  0  0  0  0  0
  -21.6647  -26.7572   22.1175 H   0  0  0  0  0  0
  -19.6919  -25.6339   21.1312 H   0  0  0  0  0  0
  -19.6659  -27.3223   20.6764 H   0  0  0  0  0  0
  -17.4214  -26.6773   21.4036 H   0  0  0  0  0  0
  -18.0286  -26.0135   22.9039 H   0  0  0  0  0  0
  -19.7905  -30.7358   24.2286 H   0  0  0  0  0  0
  -17.4967  -31.6301   24.5195 H   0  0  0  0  0  0
  -15.5333  -30.3035   23.7636 H   0  0  0  0  0  0
  -15.8671  -28.0874   22.7050 H   0  0  0  0  0  0
  -24.5785  -30.7230   25.7744 H   0  0  0  0  0  0
  -24.9016  -32.2986   26.4920 H   0  0  0  0  0  0
  -25.7993  -30.8861   27.0173 H   0  0  0  0  0  0
  -26.2915  -29.6751   24.1231 H   0  0  0  0  0  0
  -27.3928  -29.7273   25.4798 H   0  0  0  0  0  0
  -27.8827  -30.4252   23.9525 H   0  0  0  0  0  0
  -27.2469  -33.3637   26.2115 H   0  0  0  0  0  0
  -28.3753  -32.7083   25.0339 H   0  0  0  0  0  0
  -28.0694  -31.8546   26.5419 H   0  0  0  0  0  0
  -28.2536  -38.0127   24.7506 H   0  0  0  0  0  0
  -28.1086  -36.2654   24.6209 H   0  0  0  0  0  0
  -27.2314  -37.1413   25.8856 H   0  0  0  0  0  0
  -20.9383  -29.8764   21.6786 H   0  0  0  0  0  0
  -26.0124  -38.2802   24.1431 H   0  0  0  0  0  0
  -30.5673  -18.8396   20.8691 H   0  0  0  0  0  0
  -30.0839  -18.8057   19.2106 H   0  0  0  0  0  0
  -27.4075  -19.6379   18.6905 H   0  0  0  0  0  0
  -26.4869  -20.1796   20.0635 H   0  0  0  0  0  0
  -27.4260  -16.1601   19.5632 H   0  0  0  0  0  0
  -28.0964  -17.3322   18.5135 H   0  0  0  0  0  0
  -28.4110  -19.8514   21.5693 H   0  0  0  0  0  0
  -28.9451  -16.9515   21.4402 H   0  0  0  0  0  0
  -26.8844  -24.0308   21.0452 H   0  0  0  0  0  0
  -28.3759  -24.2782   21.8994 H   0  0  0  0  0  0
  -27.9531  -24.7985   18.8710 H   0  0  0  0  0  0
  -29.4946  -24.7954   19.6516 H   0  0  0  0  0  0
  -27.7942  -21.9553   21.7096 H   0  0  0  0  0  0
  -30.7754  -16.3843   19.2908 H   0  0  0  0  0  0
  -26.0134  -17.9466   19.5741 H   0  0  0  0  0  0
  -26.7168  -18.0116   21.0344 H   0  0  0  0  0  0
  1 25  1  0  0  0
  1 30  2  0  0  0
  1 80  1  0  0  0
  2  3  1  0  0  0
  2 25  1  0  0  0
  2 83  1  0  0  0
  2 84  1  0  0  0
  3  4  1  0  0  0
  3 85  1  0  0  0
  3 86  1  0  0  0
  4  5  1  0  0  0
  4 87  1  0  0  0
  4 88  1  0  0  0
  5  6  1  0  0  0
  5 26  1  0  0  0
  5 89  1  0  0  0
  6 25  1  0  0  0
  6 90  1  0  0  0
  6 91  1  0  0  0
  7  8  2  0  0  0
  7 26  1  0  0  0
  7 29  1  0  0  0
  8  9  1  0  0  0
  8 22  1  0  0  0
  9 10  1  0  0  0
  9 27  2  0  0  0
 10 11  2  0  0  0
 10 15  1  0  0  0
 11 12  1  0  0  0
 11 92  1  0  0  0
 12 13  2  0  0  0
 12 93  1  0  0  0
 13 14  1  0  0  0
 13 31  1  0  0  0
 14 15  2  0  0  0
 14 94  1  0  0  0
 15 95  1  0  0  0
 16 17  2  0  0  0
 16 21  1  0  0  0
 16 31  1  0  0  0
 17 18  1  0  0  0
 17 96  1  0  0  0
 18 19  2  0  0  0
 18 97  1  0  0  0
 19 20  1  0  0  0
 19 24  1  0  0  0
 20 21  2  0  0  0
 20 98  1  0  0  0
 21 23  1  0  0  0
 22 28  1  0  0  0
 22 32  2  0  0  0
 26 27  1  0  0  0
 28 99  1  0  0  0
 28100  1  0  0  0
 29101  1  0  0  0
 29102  1  0  0  0
 33 34  1  0  0  0
 33 66  1  0  0  0
 33 70  2  0  0  0
 34 36  1  0  0  0
 34 59  1  0  0  0
 34103  1  0  0  0
 35 44  2  0  0  0
 35 45  1  0  0  0
 35 68  1  0  0  0
 36 56  1  0  0  0
 36104  1  0  0  0
 37 39  1  0  0  0
 37 47  1  0  0  0
 37 66  1  0  0  0
 37105  1  0  0  0
 38 43  2  0  0  0
 38 46  1  0  0  0
 38 47  1  0  0  0
 39 64  1  0  0  0
 39 67  2  0  0  0
 40 52  1  0  0  0
 40 53  2  0  0  0
 40 58  1  0  0  0
 41106  1  0  0  0
 41107  1  0  0  0
 41108  1  0  0  0
 41 48  1  0  0  0
 42 43  1  0  0  0
 42 66  1  0  0  0
 42109  1  0  0  0
 42110  1  0  0  0
 43 44  1  0  0  0
 44111  1  0  0  0
 45 46  2  0  0  0
 45112  1  0  0  0
 46113  1  0  0  0
 47114  1  0  0  0
 47115  1  0  0  0
 48 56  1  0  0  0
 48 65  1  0  0  0
 48116  1  0  0  0
 49 50  1  0  0  0
 49 53  1  0  0  0
 49 64  1  0  0  0
 49117  1  0  0  0
 50 51  1  0  0  0
 50118  1  0  0  0
 50119  1  0  0  0
 51 52  1  0  0  0
 51120  1  0  0  0
 51121  1  0  0  0
 52122  1  0  0  0
 52123  1  0  0  0
 53 54  1  0  0  0
 54 55  2  0  0  0
 54124  1  0  0  0
 55 57  1  0  0  0
 55125  1  0  0  0
 56 69  2  0  0  0
 57 58  2  0  0  0
 57126  1  0  0  0
 58127  1  0  0  0
 59 60  1  0  0  0
 59 61  1  0  0  0
 59 62  1  0  0  0
 60128  1  0  0  0
 60129  1  0  0  0
 60130  1  0  0  0
 61131  1  0  0  0
 61132  1  0  0  0
 61133  1  0  0  0
 62134  1  0  0  0
 62135  1  0  0  0
 62136  1  0  0  0
 63 65  1  0  0  0
 63137  1  0  0  0
 63138  1  0  0  0
 63139  1  0  0  0
 64140  1  0  0  0
 65141  1  0  0  0
 68 78  1  0  0  0
 71 79  1  0  0  0
 71 82  2  0  0  0
 71 75  1  0  0  0
 72 75  1  0  0  0
 72 76  1  0  0  0
 72142  1  0  0  0
 72143  1  0  0  0
 73 75  1  0  0  0
 73 81  1  0  0  0
 73144  1  0  0  0
 73145  1  0  0  0
 74 76  1  0  0  0
 74 81  1  0  0  0
 74146  1  0  0  0
 74147  1  0  0  0
 75148  1  0  0  0
 76 80  1  0  0  0
 76149  1  0  0  0
 77 78  1  0  0  0
 77 79  1  0  0  0
 77150  1  0  0  0
 77151  1  0  0  0
 78152  1  0  0  0
 78153  1  0  0  0
 79154  1  0  0  0
 80155  1  0  0  0
 81156  1  0  0  0
 81157  1  0  0  0
M  CHG  1  81   1
M  ISO  4   1 100  68 101  78 101  80 100
M  END
> <chiral flag>
0

> <version>
0

> <s_m_source_file>
/data/baiqing/PycharmProjects/Reinvent-master-3.2/result/LINK_invent/BTK/process_docking_weight1_custom_sum_contain_oxygen_bond_distance_aromatic_linkinvent_7_9_3/rearranged_h_0112.sdf

> <i_m_source_file_index>
60

> <r_mmod_Potential_Energy-OPLS-2005>
58.6880073547363

> <r_mmod_Stretch_Energy-OPLS-2005>
136.877288818359

> <r_mmod_Bend_Energy-OPLS-2005>
258.089508056641

> <r_mmod_Torsional_Energy-OPLS-2005>
301.962341308594

> <r_mmod_Improper_Torsional_Energy-OPLS-2005>
36.6531600952148

> <r_mmod_Van_der_Waal_Energy-OPLS-2005>
117.745552062988

> <r_mmod_Electrostatic_Energy-OPLS-2005>
-365.792663574219

> <r_mmod_Solvation_Energy-OPLS-2005>
-534.693542480469

> <b_mmod_Minimization_Converged-OPLS-2005>
0

> <r_mmod_RMS_Derivative-OPLS-2005>
6.23263549804688

$$$$
60
                    3D
 Structure written by MMmdl.
168176  0  0  1  0            999 V2000
  -30.7056  -14.5098   20.5083 C   0  0  0  0  0  0
  -30.4161  -12.3116   19.4367 C   0  0  0  0  0  0
  -29.4943  -12.4946   18.2143 C   0  0  0  0  0  0
  -28.0181  -12.3510   18.6366 C   0  0  0  0  0  0
  -27.6610  -13.2155   19.8769 C   0  0  2  0  0  0
  -28.7101  -13.0479   21.0015 C   0  0  0  0  0  0
  -25.2634  -13.8172   20.5744 C   0  0  0  0  0  0
  -24.1882  -13.0455   20.9209 C   0  0  0  0  0  0
  -24.6456  -11.6919   20.8801 C   0  0  0  0  0  0
  -23.9127  -10.4318   21.0424 C   0  0  0  0  0  0
  -24.3674   -9.4194   21.9176 C   0  0  0  0  0  0
  -23.6336   -8.2246   22.0742 C   0  0  0  0  0  0
  -22.4301   -8.0312   21.3543 C   0  0  0  0  0  0
  -21.9960   -9.0288   20.4635 C   0  0  0  0  0  0
  -22.7320  -10.2157   20.3057 C   0  0  0  0  0  0
  -21.6856   -6.0772   22.5294 C   0  0  0  0  0  0
  -21.4022   -6.5657   23.8230 C   0  0  0  0  0  0
  -21.3667   -5.6797   24.9194 C   0  0  0  0  0  0
  -21.6049   -4.3065   24.7225 C   0  0  0  0  0  0
  -21.8819   -3.8172   23.4335 C   0  0  0  0  0  0
  -21.9197   -4.7005   22.3408 C   0  0  0  0  0  0
  -22.7892  -13.5236   21.1842 C   0  0  0  0  0  0
  -22.1647   -4.2205   21.0973 F   0  0  0  0  0  0
  -21.5625   -3.4530   25.7725 F   0  0  0  0  0  0
  -30.0298  -13.3324   20.4262 N   0  0  0  0  0  0
  -26.3068  -12.9380   20.3461 N   0  0  0  0  0  0
  -25.9386  -11.6537   20.5878 N   0  0  0  0  0  0
  -22.0563  -12.8221   22.0390 N   0  0  0  0  0  0
  -25.4407  -15.1902   20.4144 N   0  0  0  0  0  0
  -31.8622  -14.6276   20.0982 O   0  0  0  0  0  0
  -21.6636   -6.8926   21.4256 O   0  0  0  0  0  0
  -22.3557  -14.5521   20.6654 O   0  0  0  0  0  0
  -24.6191  -31.8649   23.2071 C   0  0  0  0  0  0
  -25.9072  -32.4807   23.8381 C   0  0  1  0  0  0
  -27.2484  -27.4079   20.0890 C   0  0  0  0  0  0
  -25.5923  -33.8610   24.2316 N   0  0  0  0  0  0
  -23.4105  -30.4896   21.5426 C   0  0  2  0  0  0
  -24.8575  -28.9479   20.1140 C   0  0  0  0  0  0
  -22.7439  -29.4668   22.4906 C   0  0  0  0  0  0
  -18.0295  -28.1415   22.8477 C   0  0  0  0  0  0
  -24.1500  -36.7331   23.2637 C   0  0  0  0  0  0
  -25.9409  -30.8227   21.3630 C   0  0  0  0  0  0
  -26.0175  -29.4534   20.7122 C   0  0  0  0  0  0
  -27.2088  -28.6870   20.7031 C   0  0  0  0  0  0
  -26.0575  -26.9138   19.5071 C   0  0  0  0  0  0
  -24.8724  -27.6766   19.5158 C   0  0  0  0  0  0
  -23.6250  -29.8231   20.1580 C   0  0  0  0  0  0
  -25.4115  -36.3109   24.0333 C   0  0  1  0  0  0
  -20.5886  -28.3726   23.1281 C   0  0  2  0  0  0
  -20.6797  -26.9448   22.5423 C   0  0  0  0  0  0
  -19.5774  -26.6405   21.5227 C   0  0  0  0  0  0
  -18.1940  -26.7960   22.1615 C   0  0  0  0  0  0
  -19.1542  -28.8879   23.2884 C   0  0  0  0  0  0
  -18.9470  -30.1469   23.8919 C   0  0  0  0  0  0
  -17.6473  -30.6606   24.0584 C   0  0  0  0  0  0
  -25.9033  -34.9474   23.5121 C   0  0  0  0  0  0
  -16.5366  -29.9116   23.6327 C   0  0  0  0  0  0
  -16.7281  -28.6541   23.0328 C   0  0  0  0  0  0
  -26.4485  -31.6598   25.0727 C   0  0  0  0  0  0
  -25.3750  -31.3728   26.1485 C   0  0  0  0  0  0
  -27.0312  -30.3032   24.6120 C   0  0  0  0  0  0
  -27.6045  -32.4326   25.7502 C   0  0  0  0  0  0
  -27.5585  -37.1823   24.8453 C   0  0  0  0  0  0
  -21.4159  -29.3086   22.3660 N   0  0  0  0  0  0
  -26.4292  -37.3797   23.9405 N   0  0  0  0  0  0
  -24.6751  -31.0738   22.0966 N   0  0  0  0  0  0
  -23.4177  -28.8211   23.2972 O   0  0  0  0  0  0
  -28.4331  -26.6865   20.1309 O   0  0  0  0  0  0
  -26.5586  -34.8926   22.4674 O   0  0  0  0  0  0
  -23.5377  -32.1404   23.7441 O   0  0  0  0  0  0
  -29.3447  -20.5787   21.2062 C   0  0  0  0  0  0
  -29.9427  -19.3201   21.4262 C   0  0  0  0  0  0
  -28.2365  -19.6699   19.2635 C   0  0  0  0  0  0
  -28.4706  -20.7715   20.1174 C   0  0  0  0  0  0
  -29.7133  -18.2098   20.5770 C   0  0  0  0  0  0
  -28.8439  -18.3980   19.4562 C   0  0  0  0  0  0
  -29.5863  -17.4840   17.2218 C   0  0  0  0  0  0
  -27.1515  -17.2695   17.8784 C   0  0  0  0  0  0
  -30.3399  -24.6041   20.9499 C   0  0  0  0  0  0
  -27.7432  -22.0988   19.8223 C   0  0  0  0  0  0
  -30.5874  -16.9636   20.8472 C   0  0  0  0  0  0
  -28.1220  -23.3880   20.6158 C   0  0  0  0  0  0
  -28.6955  -25.5743   19.2464 C   0  0  0  0  0  0
  -28.6078  -17.3161   18.3941 C   0  0  0  0  0  0
  -29.2125  -24.2829   19.9587 C   0  0  1  0  0  0
  -30.0037  -15.6036   20.8825 N   0  0  0  0  0  0
  -31.4617  -12.3844   19.1352 H   0  0  0  0  0  0
  -30.2993  -11.3149   19.8622 H   0  0  0  0  0  0
  -29.7337  -11.7661   17.4392 H   0  0  0  0  0  0
  -29.6617  -13.4774   17.7695 H   0  0  0  0  0  0
  -27.8391  -11.2960   18.8515 H   0  0  0  0  0  0
  -27.3624  -12.6019   17.8041 H   0  0  0  0  0  0
  -27.6897  -14.2560   19.5530 H   0  0  0  0  0  0
  -28.7000  -12.0292   21.3925 H   0  0  0  0  0  0
  -28.4929  -13.6948   21.8515 H   0  0  0  0  0  0
  -25.2842   -9.5635   22.4713 H   0  0  0  0  0  0
  -24.0071   -7.4614   22.7401 H   0  0  0  0  0  0
  -21.0920   -8.8818   19.8890 H   0  0  0  0  0  0
  -22.3844  -10.9683   19.6134 H   0  0  0  0  0  0
  -21.2014   -7.6169   23.9780 H   0  0  0  0  0  0
  -21.1468   -6.0495   25.9094 H   0  0  0  0  0  0
  -22.0596   -2.7637   23.2810 H   0  0  0  0  0  0
  -22.4235  -11.9895   22.4791 H   0  0  0  0  0  0
  -21.1155  -13.1189   22.2550 H   0  0  0  0  0  0
  -24.6790  -15.8496   20.5215 H   0  0  0  0  0  0
  -26.3040  -15.6222   20.1158 H   0  0  0  0  0  0
  -26.7156  -32.5514   23.1152 H   0  0  0  0  0  0
  -25.0127  -33.9773   25.0499 H   0  0  0  0  0  0
  -22.7022  -31.3090   21.3983 H   0  0  0  0  0  0
  -23.3745  -35.9677   23.3286 H   0  0  0  0  0  0
  -24.3600  -36.8959   22.2053 H   0  0  0  0  0  0
  -23.7264  -37.6540   23.6657 H   0  0  0  0  0  0
  -26.0530  -31.5833   20.5895 H   0  0  0  0  0  0
  -26.8300  -30.8811   21.9799 H   0  0  0  0  0  0
  -28.1031  -29.0731   21.1725 H   0  0  0  0  0  0
  -26.0050  -25.9283   19.0702 H   0  0  0  0  0  0
  -23.9743  -27.2701   19.0715 H   0  0  0  0  0  0
  -23.7549  -30.6005   19.4037 H   0  0  0  0  0  0
  -22.7472  -29.2554   19.8458 H   0  0  0  0  0  0
  -25.1289  -36.1969   25.0823 H   0  0  0  0  0  0
  -20.9993  -28.3345   24.1393 H   0  0  0  0  0  0
  -20.5732  -26.2351   23.3631 H   0  0  0  0  0  0
  -21.6666  -26.7508   22.1203 H   0  0  0  0  0  0
  -19.6952  -25.6313   21.1263 H   0  0  0  0  0  0
  -19.6726  -27.3216   20.6751 H   0  0  0  0  0  0
  -17.4229  -26.6724   21.3992 H   0  0  0  0  0  0
  -18.0320  -26.0096   22.9002 H   0  0  0  0  0  0
  -19.7944  -30.7276   24.2303 H   0  0  0  0  0  0
  -17.5034  -31.6277   24.5210 H   0  0  0  0  0  0
  -15.5371  -30.3040   23.7636 H   0  0  0  0  0  0
  -15.8674  -28.0884   22.7011 H   0  0  0  0  0  0
  -24.5892  -30.7108   25.7835 H   0  0  0  0  0  0
  -24.8998  -32.2910   26.4955 H   0  0  0  0  0  0
  -25.8118  -30.8880   27.0228 H   0  0  0  0  0  0
  -26.2867  -29.6796   24.1165 H   0  0  0  0  0  0
  -27.4058  -29.7267   25.4586 H   0  0  0  0  0  0
  -27.8710  -30.4333   23.9288 H   0  0  0  0  0  0
  -27.2636  -33.3599   26.2119 H   0  0  0  0  0  0
  -28.3849  -32.6936   25.0340 H   0  0  0  0  0  0
  -28.0725  -31.8436   26.5398 H   0  0  0  0  0  0
  -28.2585  -38.0138   24.7507 H   0  0  0  0  0  0
  -28.1101  -36.2666   24.6261 H   0  0  0  0  0  0
  -27.2310  -37.1454   25.8859 H   0  0  0  0  0  0
  -20.9323  -29.8815   21.6885 H   0  0  0  0  0  0
  -26.0176  -38.2873   24.1413 H   0  0  0  0  0  0
  -29.5869  -21.3861   21.8810 H   0  0  0  0  0  0
  -30.6315  -19.2283   22.2544 H   0  0  0  0  0  0
  -27.5882  -19.8348   18.4176 H   0  0  0  0  0  0
  -30.6257  -17.4381   17.5467 H   0  0  0  0  0  0
  -29.4489  -18.4401   16.7154 H   0  0  0  0  0  0
  -29.4456  -16.6906   16.4868 H   0  0  0  0  0  0
  -26.4318  -17.2214   18.6965 H   0  0  0  0  0  0
  -26.9904  -16.3912   17.2510 H   0  0  0  0  0  0
  -26.9016  -18.1364   17.2650 H   0  0  0  0  0  0
  -30.7721  -23.6912   21.3588 H   0  0  0  0  0  0
  -29.9633  -25.2034   21.7780 H   0  0  0  0  0  0
  -31.1411  -25.1649   20.4683 H   0  0  0  0  0  0
  -26.6863  -21.8914   20.0034 H   0  0  0  0  0  0
  -27.8124  -22.3008   18.7523 H   0  0  0  0  0  0
  -31.0889  -17.0886   21.8072 H   0  0  0  0  0  0
  -31.3888  -17.0225   20.1114 H   0  0  0  0  0  0
  -28.3632  -23.1486   21.6516 H   0  0  0  0  0  0
  -27.2197  -23.9944   20.7058 H   0  0  0  0  0  0
  -27.8977  -25.3304   18.5475 H   0  0  0  0  0  0
  -29.5069  -25.9207   18.6052 H   0  0  0  0  0  0
  -28.7879  -16.3395   18.8306 H   0  0  0  0  0  0
  -29.6757  -23.6767   19.1773 H   0  0  0  0  0  0
  -29.0587  -15.4885   21.2169 H   0  0  0  0  0  0
  1 25  1  0  0  0
  1 30  2  0  0  0
  1 86  1  0  0  0
  2  3  1  0  0  0
  2 25  1  0  0  0
  2 87  1  0  0  0
  2 88  1  0  0  0
  3  4  1  0  0  0
  3 89  1  0  0  0
  3 90  1  0  0  0
  4  5  1  0  0  0
  4 91  1  0  0  0
  4 92  1  0  0  0
  5  6  1  0  0  0
  5 26  1  0  0  0
  5 93  1  0  0  0
  6 25  1  0  0  0
  6 94  1  0  0  0
  6 95  1  0  0  0
  7  8  2  0  0  0
  7 26  1  0  0  0
  7 29  1  0  0  0
  8  9  1  0  0  0
  8 22  1  0  0  0
  9 10  1  0  0  0
  9 27  2  0  0  0
 10 11  2  0  0  0
 10 15  1  0  0  0
 11 12  1  0  0  0
 11 96  1  0  0  0
 12 13  2  0  0  0
 12 97  1  0  0  0
 13 14  1  0  0  0
 13 31  1  0  0  0
 14 15  2  0  0  0
 14 98  1  0  0  0
 15 99  1  0  0  0
 16 17  2  0  0  0
 16 21  1  0  0  0
 16 31  1  0  0  0
 17 18  1  0  0  0
 17100  1  0  0  0
 18 19  2  0  0  0
 18101  1  0  0  0
 19 20  1  0  0  0
 19 24  1  0  0  0
 20 21  2  0  0  0
 20102  1  0  0  0
 21 23  1  0  0  0
 22 28  1  0  0  0
 22 32  2  0  0  0
 26 27  1  0  0  0
 28103  1  0  0  0
 28104  1  0  0  0
 29105  1  0  0  0
 29106  1  0  0  0
 33 34  1  0  0  0
 33 66  1  0  0  0
 33 70  2  0  0  0
 34 36  1  0  0  0
 34 59  1  0  0  0
 34107  1  0  0  0
 35 44  2  0  0  0
 35 45  1  0  0  0
 35 68  1  0  0  0
 36 56  1  0  0  0
 36108  1  0  0  0
 37 39  1  0  0  0
 37 47  1  0  0  0
 37 66  1  0  0  0
 37109  1  0  0  0
 38 43  2  0  0  0
 38 46  1  0  0  0
 38 47  1  0  0  0
 39 64  1  0  0  0
 39 67  2  0  0  0
 40 52  1  0  0  0
 40 53  2  0  0  0
 40 58  1  0  0  0
 41110  1  0  0  0
 41111  1  0  0  0
 41112  1  0  0  0
 41 48  1  0  0  0
 42 43  1  0  0  0
 42 66  1  0  0  0
 42113  1  0  0  0
 42114  1  0  0  0
 43 44  1  0  0  0
 44115  1  0  0  0
 45 46  2  0  0  0
 45116  1  0  0  0
 46117  1  0  0  0
 47118  1  0  0  0
 47119  1  0  0  0
 48 56  1  0  0  0
 48 65  1  0  0  0
 48120  1  0  0  0
 49 50  1  0  0  0
 49 53  1  0  0  0
 49 64  1  0  0  0
 49121  1  0  0  0
 50 51  1  0  0  0
 50122  1  0  0  0
 50123  1  0  0  0
 51 52  1  0  0  0
 51124  1  0  0  0
 51125  1  0  0  0
 52126  1  0  0  0
 52127  1  0  0  0
 53 54  1  0  0  0
 54 55  2  0  0  0
 54128  1  0  0  0
 55 57  1  0  0  0
 55129  1  0  0  0
 56 69  2  0  0  0
 57 58  2  0  0  0
 57130  1  0  0  0
 58131  1  0  0  0
 59 60  1  0  0  0
 59 61  1  0  0  0
 59 62  1  0  0  0
 60132  1  0  0  0
 60133  1  0  0  0
 60134  1  0  0  0
 61135  1  0  0  0
 61136  1  0  0  0
 61137  1  0  0  0
 62138  1  0  0  0
 62139  1  0  0  0
 62140  1  0  0  0
 63 65  1  0  0  0
 63141  1  0  0  0
 63142  1  0  0  0
 63143  1  0  0  0
 64144  1  0  0  0
 65145  1  0  0  0
 68 83  1  0  0  0
 71 72  2  0  0  0
 71 74  1  0  0  0
 71146  1  0  0  0
 72 75  1  0  0  0
 72147  1  0  0  0
 73 74  2  0  0  0
 73 76  1  0  0  0
 73148  1  0  0  0
 74 80  1  0  0  0
 75 76  2  0  0  0
 75 81  1  0  0  0
 76 84  1  0  0  0
 77149  1  0  0  0
 77150  1  0  0  0
 77151  1  0  0  0
 77 84  1  0  0  0
 78 84  1  0  0  0
 78152  1  0  0  0
 78153  1  0  0  0
 78154  1  0  0  0
 79155  1  0  0  0
 79156  1  0  0  0
 79157  1  0  0  0
 79 85  1  0  0  0
 80 82  1  0  0  0
 80158  1  0  0  0
 80159  1  0  0  0
 81 86  1  0  0  0
 81160  1  0  0  0
 81161  1  0  0  0
 82 85  1  0  0  0
 82162  1  0  0  0
 82163  1  0  0  0
 83 85  1  0  0  0
 83164  1  0  0  0
 83165  1  0  0  0
 84166  1  0  0  0
 85167  1  0  0  0
 86168  1  0  0  0
M  ISO  4   1 100  68 101  83 101  86 100
M  END
> <chiral flag>
0

> <version>
0

> <s_m_source_file>
/data/baiqing/PycharmProjects/Reinvent-master-3.2/result/LINK_invent/BTK/process_docking_weight1_custom_sum_contain_oxygen_bond_distance_aromatic_linkinvent_7_9_3/rearranged_h_0112.sdf

> <i_m_source_file_index>
61

> <r_mmod_Potential_Energy-OPLS-2005>
-41.8101577758789

> <r_mmod_Stretch_Energy-OPLS-2005>
46.3776702880859

> <r_mmod_Bend_Energy-OPLS-2005>
138.288101196289

> <r_mmod_Torsional_Energy-OPLS-2005>
224.988052368164

> <r_mmod_Improper_Torsional_Energy-OPLS-2005>
5.0185284614563

> <r_mmod_Van_der_Waal_Energy-OPLS-2005>
146.821990966797

> <r_mmod_Electrostatic_Energy-OPLS-2005>
-431.301177978516

> <r_mmod_Solvation_Energy-OPLS-2005>
-192.181716918945

> <b_mmod_Minimization_Converged-OPLS-2005>
0

> <r_mmod_RMS_Derivative-OPLS-2005>
3.78770995140076

$$$$
61
                    3D
 Structure written by MMmdl.
178186  0  0  1  0            999 V2000
  -30.7576  -14.3891   20.6968 C   0  0  0  0  0  0
  -30.4308  -12.3028   19.4005 C   0  0  0  0  0  0
  -29.4848  -12.5349   18.2066 C   0  0  0  0  0  0
  -28.0146  -12.3914   18.6286 C   0  0  0  0  0  0
  -27.6772  -13.2086   19.9000 C   0  0  2  0  0  0
  -28.7124  -12.9342   21.0116 C   0  0  0  0  0  0
  -25.2659  -13.8124   20.5708 C   0  0  0  0  0  0
  -24.1882  -13.0356   20.9116 C   0  0  0  0  0  0
  -24.6472  -11.6878   20.8722 C   0  0  0  0  0  0
  -23.9138  -10.4256   21.0407 C   0  0  0  0  0  0
  -24.3655   -9.4169   21.9185 C   0  0  0  0  0  0
  -23.6298   -8.2233   22.0768 C   0  0  0  0  0  0
  -22.4280   -8.0294   21.3559 C   0  0  0  0  0  0
  -21.9935   -9.0273   20.4659 C   0  0  0  0  0  0
  -22.7309  -10.2136   20.3063 C   0  0  0  0  0  0
  -21.6871   -6.0744   22.5271 C   0  0  0  0  0  0
  -21.4014   -6.5634   23.8208 C   0  0  0  0  0  0
  -21.3660   -5.6789   24.9164 C   0  0  0  0  0  0
  -21.6057   -4.3057   24.7237 C   0  0  0  0  0  0
  -21.8828   -3.8152   23.4359 C   0  0  0  0  0  0
  -21.9188   -4.6963   22.3407 C   0  0  0  0  0  0
  -22.7952  -13.5228   21.1769 C   0  0  0  0  0  0
  -22.1679   -4.2146   21.0999 F   0  0  0  0  0  0
  -21.5633   -3.4533   25.7752 F   0  0  0  0  0  0
  -30.0606  -13.2383   20.4802 N   0  0  0  0  0  0
  -26.3126  -12.9318   20.3509 N   0  0  0  0  0  0
  -25.9416  -11.6459   20.5859 N   0  0  0  0  0  0
  -22.0583  -12.8200   22.0351 N   0  0  0  0  0  0
  -25.4321  -15.1783   20.4113 N   0  0  0  0  0  0
  -31.8047  -14.6729   20.1031 O   0  0  0  0  0  0
  -21.6644   -6.8878   21.4248 O   0  0  0  0  0  0
  -22.3629  -14.5536   20.6693 O   0  0  0  0  0  0
  -24.6178  -31.8699   23.2108 C   0  0  0  0  0  0
  -25.9079  -32.4847   23.8428 C   0  0  1  0  0  0
  -27.1871  -27.4359   20.1184 C   0  0  0  0  0  0
  -25.5912  -33.8618   24.2336 N   0  0  0  0  0  0
  -23.4028  -30.5098   21.5477 C   0  0  2  0  0  0
  -24.8368  -28.9847   20.1113 C   0  0  0  0  0  0
  -22.7395  -29.4775   22.4898 C   0  0  0  0  0  0
  -18.0327  -28.1430   22.8525 C   0  0  0  0  0  0
  -24.1482  -36.7358   23.2658 C   0  0  0  0  0  0
  -25.9383  -30.8494   21.3514 C   0  0  0  0  0  0
  -26.0075  -29.4877   20.6984 C   0  0  0  0  0  0
  -27.1931  -28.7281   20.6850 C   0  0  0  0  0  0
  -26.0054  -26.9572   19.5109 C   0  0  0  0  0  0
  -24.8314  -27.7184   19.5159 C   0  0  0  0  0  0
  -23.6066  -29.8562   20.1608 C   0  0  0  0  0  0
  -25.4092  -36.3140   24.0372 C   0  0  1  0  0  0
  -20.5917  -28.3786   23.1319 C   0  0  2  0  0  0
  -20.6786  -26.9459   22.5559 C   0  0  0  0  0  0
  -19.5818  -26.6484   21.5281 C   0  0  0  0  0  0
  -18.2002  -26.7954   22.1734 C   0  0  0  0  0  0
  -19.1565  -28.8918   23.2912 C   0  0  0  0  0  0
  -18.9484  -30.1525   23.8857 C   0  0  0  0  0  0
  -17.6453  -30.6644   24.0508 C   0  0  0  0  0  0
  -25.9021  -34.9493   23.5163 C   0  0  0  0  0  0
  -16.5343  -29.9081   23.6300 C   0  0  0  0  0  0
  -16.7311  -28.6513   23.0349 C   0  0  0  0  0  0
  -26.4454  -31.6631   25.0764 C   0  0  0  0  0  0
  -25.3717  -31.3692   26.1517 C   0  0  0  0  0  0
  -27.0299  -30.3106   24.6082 C   0  0  0  0  0  0
  -27.6051  -32.4314   25.7556 C   0  0  0  0  0  0
  -27.5589  -37.1831   24.8479 C   0  0  0  0  0  0
  -21.4150  -29.3129   22.3629 N   0  0  0  0  0  0
  -26.4305  -37.3811   23.9418 N   0  0  0  0  0  0
  -24.6734  -31.0873   22.0979 N   0  0  0  0  0  0
  -23.4156  -28.8228   23.2903 O   0  0  0  0  0  0
  -28.3077  -26.6478   20.2047 O   0  0  0  0  0  0
  -26.5573  -34.8941   22.4701 O   0  0  0  0  0  0
  -23.5354  -32.1476   23.7485 O   0  0  0  0  0  0
  -25.9123  -20.3144   19.2506 C   0  0  0  0  0  0
  -25.5154  -19.1043   21.4726 C   0  0  0  0  0  0
  -26.3892  -19.3578   20.2768 C   0  0  2  0  0  0
  -26.7211  -20.0215   21.6108 C   0  0  2  0  0  0
  -29.5791  -24.6657   18.5424 C   0  0  0  0  0  0
  -29.6806  -17.4261   24.0195 C   0  0  0  0  0  0
  -27.9549  -16.5849   22.4015 C   0  0  0  0  0  0
  -27.8605  -22.9974   19.3430 C   0  0  0  0  0  0
  -29.0706  -18.8399   21.9989 C   0  0  0  0  0  0
  -26.9151  -22.3385   18.3261 C   0  0  0  0  0  0
  -30.4378  -16.6704   21.7355 C   0  0  0  0  0  0
  -28.0512  -25.2528   20.4198 C   0  0  0  0  0  0
  -27.8525  -19.6501   22.5859 C   0  0  1  0  0  0
  -28.1711  -24.4771   19.1030 C   0  0  1  0  0  0
  -29.2803  -17.3791   22.5307 C   0  0  0  0  0  0
  -26.9305  -20.9295   18.6577 N   0  0  0  0  0  0
  -30.1947  -15.2318   21.5728 N   0  0  0  0  0  0
  -28.3046  -20.8743   23.2802 N   0  3  0  0  0  0
  -24.7267  -20.6096   19.0658 O   0  0  0  0  0  0
  -31.4578  -12.4393   19.0622 H   0  0  0  0  0  0
  -30.3859  -11.2710   19.7528 H   0  0  0  0  0  0
  -29.7070  -11.8236   17.4128 H   0  0  0  0  0  0
  -29.6584  -13.5305   17.7888 H   0  0  0  0  0  0
  -27.8136  -11.3357   18.8074 H   0  0  0  0  0  0
  -27.3647  -12.6895   17.8085 H   0  0  0  0  0  0
  -27.7371  -14.2677   19.6408 H   0  0  0  0  0  0
  -28.6666  -11.8882   21.3173 H   0  0  0  0  0  0
  -28.4498  -13.4915   21.9064 H   0  0  0  0  0  0
  -25.2798   -9.5624   22.4769 H   0  0  0  0  0  0
  -23.9995   -7.4615   22.7479 H   0  0  0  0  0  0
  -21.0884   -8.8840   19.8954 H   0  0  0  0  0  0
  -22.3796  -10.9703   19.6202 H   0  0  0  0  0  0
  -21.2035   -7.6146   23.9707 H   0  0  0  0  0  0
  -21.1462   -6.0523   25.9057 H   0  0  0  0  0  0
  -22.0596   -2.7615   23.2866 H   0  0  0  0  0  0
  -22.4253  -11.9886   22.4726 H   0  0  0  0  0  0
  -21.1227  -13.1248   22.2570 H   0  0  0  0  0  0
  -24.6682  -15.8321   20.5321 H   0  0  0  0  0  0
  -26.2890  -15.6114   20.0952 H   0  0  0  0  0  0
  -26.7153  -32.5514   23.1188 H   0  0  0  0  0  0
  -25.0145  -33.9774   25.0533 H   0  0  0  0  0  0
  -22.7008  -31.3349   21.4135 H   0  0  0  0  0  0
  -23.3728  -35.9724   23.3349 H   0  0  0  0  0  0
  -24.3615  -36.8892   22.2083 H   0  0  0  0  0  0
  -23.7244  -37.6585   23.6611 H   0  0  0  0  0  0
  -26.0567  -31.6136   20.5800 H   0  0  0  0  0  0
  -26.8337  -30.9045   21.9626 H   0  0  0  0  0  0
  -28.0926  -29.1086   21.1458 H   0  0  0  0  0  0
  -25.9371  -25.9866   19.0506 H   0  0  0  0  0  0
  -23.9411  -27.3076   19.0638 H   0  0  0  0  0  0
  -23.7193  -30.6402   19.4111 H   0  0  0  0  0  0
  -22.7289  -29.2871   19.8518 H   0  0  0  0  0  0
  -25.1244  -36.2069   25.0880 H   0  0  0  0  0  0
  -21.0109  -28.3522   24.1420 H   0  0  0  0  0  0
  -21.6711  -26.7346   22.1520 H   0  0  0  0  0  0
  -20.5485  -26.2473   23.3850 H   0  0  0  0  0  0
  -19.6995  -25.6434   21.1231 H   0  0  0  0  0  0
  -19.6709  -27.3377   20.6878 H   0  0  0  0  0  0
  -17.4185  -26.6574   21.4256 H   0  0  0  0  0  0
  -18.0505  -26.0151   22.9214 H   0  0  0  0  0  0
  -19.7935  -30.7408   24.2197 H   0  0  0  0  0  0
  -17.4993  -31.6379   24.4991 H   0  0  0  0  0  0
  -15.5327  -30.2956   23.7677 H   0  0  0  0  0  0
  -15.8738  -28.0842   22.7011 H   0  0  0  0  0  0
  -24.5850  -30.7086   25.7814 H   0  0  0  0  0  0
  -24.8978  -32.2848   26.5107 H   0  0  0  0  0  0
  -25.8114  -30.8754   27.0198 H   0  0  0  0  0  0
  -26.2815  -29.6853   24.1192 H   0  0  0  0  0  0
  -27.4170  -29.7355   25.4500 H   0  0  0  0  0  0
  -27.8619  -30.4487   23.9170 H   0  0  0  0  0  0
  -27.2643  -33.3484   26.2370 H   0  0  0  0  0  0
  -28.3785  -32.7042   25.0369 H   0  0  0  0  0  0
  -28.0809  -31.8303   26.5313 H   0  0  0  0  0  0
  -28.2631  -38.0090   24.7470 H   0  0  0  0  0  0
  -28.1027  -36.2631   24.6330 H   0  0  0  0  0  0
  -27.2325  -37.1524   25.8879 H   0  0  0  0  0  0
  -20.9256  -29.8781   21.6817 H   0  0  0  0  0  0
  -26.0227  -38.2932   24.1280 H   0  0  0  0  0  0
  -25.5529  -18.1039   21.8903 H   0  0  0  0  0  0
  -24.5294  -19.5681   21.4956 H   0  0  0  0  0  0
  -27.0159  -18.5545   19.9000 H   0  0  0  0  0  0
  -26.4732  -21.0830   21.6455 H   0  0  0  0  0  0
  -29.6782  -24.2057   17.5610 H   0  0  0  0  0  0
  -30.3097  -24.2033   19.2056 H   0  0  0  0  0  0
  -29.8270  -25.7279   18.4488 H   0  0  0  0  0  0
  -30.5599  -18.0556   24.1826 H   0  0  0  0  0  0
  -29.9111  -16.4328   24.4064 H   0  0  0  0  0  0
  -28.8835  -17.8419   24.6342 H   0  0  0  0  0  0
  -27.1542  -16.9958   23.0107 H   0  0  0  0  0  0
  -28.0351  -15.5612   22.7702 H   0  0  0  0  0  0
  -27.6175  -16.5661   21.3635 H   0  0  0  0  0  0
  -28.8022  -22.4520   19.4080 H   0  0  0  0  0  0
  -27.4036  -22.8808   20.3250 H   0  0  0  0  0  0
  -29.9897  -19.3918   22.2025 H   0  0  0  0  0  0
  -29.0315  -18.8159   20.9090 H   0  0  0  0  0  0
  -25.9238  -22.7995   18.3871 H   0  0  0  0  0  0
  -27.2499  -22.4356   17.2990 H   0  0  0  0  0  0
  -31.4060  -16.8441   22.2206 H   0  0  0  0  0  0
  -30.5284  -17.0936   20.7363 H   0  0  0  0  0  0
  -28.7738  -24.8736   21.1418 H   0  0  0  0  0  0
  -27.0805  -25.0451   20.8781 H   0  0  0  0  0  0
  -27.3687  -19.0816   23.3823 H   0  0  0  0  0  0
  -27.4712  -24.8560   18.3621 H   0  0  0  0  0  0
  -27.8483  -20.5743   18.8914 H   0  0  0  0  0  0
  -29.3401  -14.9008   21.9934 H   0  0  0  0  0  0
  -28.7521  -21.5298   22.6608 H   0  0  0  0  0  0
  -28.9389  -20.6582   24.0300 H   0  0  0  0  0  0
  -27.5105  -21.3305   23.6932 H   0  0  0  0  0  0
  1 25  1  0  0  0
  1 30  2  0  0  0
  1 87  1  0  0  0
  2  3  1  0  0  0
  2 25  1  0  0  0
  2 90  1  0  0  0
  2 91  1  0  0  0
  3  4  1  0  0  0
  3 92  1  0  0  0
  3 93  1  0  0  0
  4  5  1  0  0  0
  4 94  1  0  0  0
  4 95  1  0  0  0
  5  6  1  0  0  0
  5 26  1  0  0  0
  5 96  1  0  0  0
  6 25  1  0  0  0
  6 97  1  0  0  0
  6 98  1  0  0  0
  7  8  2  0  0  0
  7 26  1  0  0  0
  7 29  1  0  0  0
  8  9  1  0  0  0
  8 22  1  0  0  0
  9 10  1  0  0  0
  9 27  2  0  0  0
 10 11  2  0  0  0
 10 15  1  0  0  0
 11 12  1  0  0  0
 11 99  1  0  0  0
 12 13  2  0  0  0
 12100  1  0  0  0
 13 14  1  0  0  0
 13 31  1  0  0  0
 14 15  2  0  0  0
 14101  1  0  0  0
 15102  1  0  0  0
 16 17  2  0  0  0
 16 21  1  0  0  0
 16 31  1  0  0  0
 17 18  1  0  0  0
 17103  1  0  0  0
 18 19  2  0  0  0
 18104  1  0  0  0
 19 20  1  0  0  0
 19 24  1  0  0  0
 20 21  2  0  0  0
 20105  1  0  0  0
 21 23  1  0  0  0
 22 28  1  0  0  0
 22 32  2  0  0  0
 26 27  1  0  0  0
 28106  1  0  0  0
 28107  1  0  0  0
 29108  1  0  0  0
 29109  1  0  0  0
 33 34  1  0  0  0
 33 66  1  0  0  0
 33 70  2  0  0  0
 34 36  1  0  0  0
 34 59  1  0  0  0
 34110  1  0  0  0
 35 44  2  0  0  0
 35 45  1  0  0  0
 35 68  1  0  0  0
 36 56  1  0  0  0
 36111  1  0  0  0
 37 39  1  0  0  0
 37 47  1  0  0  0
 37 66  1  0  0  0
 37112  1  0  0  0
 38 43  2  0  0  0
 38 46  1  0  0  0
 38 47  1  0  0  0
 39 64  1  0  0  0
 39 67  2  0  0  0
 40 52  1  0  0  0
 40 53  2  0  0  0
 40 58  1  0  0  0
 41113  1  0  0  0
 41114  1  0  0  0
 41115  1  0  0  0
 41 48  1  0  0  0
 42 43  1  0  0  0
 42 66  1  0  0  0
 42116  1  0  0  0
 42117  1  0  0  0
 43 44  1  0  0  0
 44118  1  0  0  0
 45 46  2  0  0  0
 45119  1  0  0  0
 46120  1  0  0  0
 47121  1  0  0  0
 47122  1  0  0  0
 48 56  1  0  0  0
 48 65  1  0  0  0
 48123  1  0  0  0
 49 50  1  0  0  0
 49 53  1  0  0  0
 49 64  1  0  0  0
 49124  1  0  0  0
 50 51  1  0  0  0
 50125  1  0  0  0
 50126  1  0  0  0
 51 52  1  0  0  0
 51127  1  0  0  0
 51128  1  0  0  0
 52129  1  0  0  0
 52130  1  0  0  0
 53 54  1  0  0  0
 54 55  2  0  0  0
 54131  1  0  0  0
 55 57  1  0  0  0
 55132  1  0  0  0
 56 69  2  0  0  0
 57 58  2  0  0  0
 57133  1  0  0  0
 58134  1  0  0  0
 59 60  1  0  0  0
 59 61  1  0  0  0
 59 62  1  0  0  0
 60135  1  0  0  0
 60136  1  0  0  0
 60137  1  0  0  0
 61138  1  0  0  0
 61139  1  0  0  0
 61140  1  0  0  0
 62141  1  0  0  0
 62142  1  0  0  0
 62143  1  0  0  0
 63 65  1  0  0  0
 63144  1  0  0  0
 63145  1  0  0  0
 63146  1  0  0  0
 64147  1  0  0  0
 65148  1  0  0  0
 68 82  1  0  0  0
 71 86  1  0  0  0
 71 89  2  0  0  0
 71 73  1  0  0  0
 72 73  1  0  0  0
 72149  1  0  0  0
 72150  1  0  0  0
 72 74  1  0  0  0
 73 74  1  0  0  0
 73151  1  0  0  0
 74 83  1  0  0  0
 74152  1  0  0  0
 75153  1  0  0  0
 75154  1  0  0  0
 75155  1  0  0  0
 75 84  1  0  0  0
 76156  1  0  0  0
 76157  1  0  0  0
 76158  1  0  0  0
 76 85  1  0  0  0
 77 85  1  0  0  0
 77159  1  0  0  0
 77160  1  0  0  0
 77161  1  0  0  0
 78 80  1  0  0  0
 78 84  1  0  0  0
 78162  1  0  0  0
 78163  1  0  0  0
 79 83  1  0  0  0
 79 85  1  0  0  0
 79164  1  0  0  0
 79165  1  0  0  0
 80 86  1  0  0  0
 80166  1  0  0  0
 80167  1  0  0  0
 81 85  1  0  0  0
 81 87  1  0  0  0
 81168  1  0  0  0
 81169  1  0  0  0
 82 84  1  0  0  0
 82170  1  0  0  0
 82171  1  0  0  0
 83 88  1  0  0  0
 83172  1  0  0  0
 84173  1  0  0  0
 86174  1  0  0  0
 87175  1  0  0  0
 88176  1  0  0  0
 88177  1  0  0  0
 88178  1  0  0  0
M  CHG  1  88   1
M  ISO  4   1 100  68 101  82 101  87 100
M  END
> <chiral flag>
0

> <version>
0

> <s_m_source_file>
/data/baiqing/PycharmProjects/Reinvent-master-3.2/result/LINK_invent/BTK/process_docking_weight1_custom_sum_contain_oxygen_bond_distance_aromatic_linkinvent_7_9_3/rearranged_h_0112.sdf

> <i_m_source_file_index>
62

> <r_mmod_Potential_Energy-OPLS-2005>
-289.930236816406

> <r_mmod_Stretch_Energy-OPLS-2005>
40.5683059692383

> <r_mmod_Bend_Energy-OPLS-2005>
120.701690673828

> <r_mmod_Torsional_Energy-OPLS-2005>
319.866363525391

> <r_mmod_Improper_Torsional_Energy-OPLS-2005>
6.6277322769165

> <r_mmod_Van_der_Waal_Energy-OPLS-2005>
151.725006103516

> <r_mmod_Electrostatic_Energy-OPLS-2005>
-397.867950439453

> <r_mmod_Solvation_Energy-OPLS-2005>
-546.457824707031

> <b_mmod_Minimization_Converged-OPLS-2005>
0

> <r_mmod_RMS_Derivative-OPLS-2005>
10.4244155883789

$$$$
62
                    3D
 Structure written by MMmdl.
169177  0  0  1  0            999 V2000
  -30.6962  -14.5074   20.6109 C   0  0  0  0  0  0
  -30.4269  -12.3476   19.4150 C   0  0  0  0  0  0
  -29.4903  -12.5208   18.2020 C   0  0  0  0  0  0
  -28.0148  -12.3651   18.6197 C   0  0  0  0  0  0
  -27.6566  -13.2042   19.8745 C   0  0  2  0  0  0
  -28.7020  -12.9981   20.9916 C   0  0  0  0  0  0
  -25.2518  -13.7972   20.5662 C   0  0  0  0  0  0
  -24.1791  -13.0297   20.9185 C   0  0  0  0  0  0
  -24.6384  -11.6800   20.8753 C   0  0  0  0  0  0
  -23.9053  -10.4216   21.0409 C   0  0  0  0  0  0
  -24.3600   -9.4147   21.9196 C   0  0  0  0  0  0
  -23.6269   -8.2195   22.0763 C   0  0  0  0  0  0
  -22.4256   -8.0246   21.3546 C   0  0  0  0  0  0
  -21.9891   -9.0217   20.4644 C   0  0  0  0  0  0
  -22.7228  -10.2088   20.3056 C   0  0  0  0  0  0
  -21.6840   -6.0720   22.5278 C   0  0  0  0  0  0
  -21.4006   -6.5630   23.8211 C   0  0  0  0  0  0
  -21.3653   -5.6786   24.9174 C   0  0  0  0  0  0
  -21.6041   -4.3048   24.7227 C   0  0  0  0  0  0
  -21.8825   -3.8141   23.4351 C   0  0  0  0  0  0
  -21.9191   -4.6953   22.3405 C   0  0  0  0  0  0
  -22.7828  -13.5144   21.1849 C   0  0  0  0  0  0
  -22.1659   -4.2140   21.0981 F   0  0  0  0  0  0
  -21.5632   -3.4538   25.7744 F   0  0  0  0  0  0
  -30.0260  -13.3314   20.4360 N   0  0  0  0  0  0
  -26.3001  -12.9218   20.3384 N   0  0  0  0  0  0
  -25.9326  -11.6382   20.5796 N   0  0  0  0  0  0
  -22.0460  -12.8169   22.0410 N   0  0  0  0  0  0
  -25.4102  -15.1610   20.3998 N   0  0  0  0  0  0
  -31.8043  -14.7096   20.1075 O   0  0  0  0  0  0
  -21.6615   -6.8857   21.4240 O   0  0  0  0  0  0
  -22.3541  -14.5478   20.6712 O   0  0  0  0  0  0
  -24.6171  -31.8642   23.2073 C   0  0  0  0  0  0
  -25.9045  -32.4807   23.8384 C   0  0  1  0  0  0
  -27.2450  -27.4102   20.1040 C   0  0  0  0  0  0
  -25.5888  -33.8606   24.2315 N   0  0  0  0  0  0
  -23.4076  -30.4841   21.5496 C   0  0  2  0  0  0
  -24.8566  -28.9461   20.1173 C   0  0  0  0  0  0
  -22.7419  -29.4623   22.5000 C   0  0  0  0  0  0
  -18.0269  -28.1374   22.8478 C   0  0  0  0  0  0
  -24.1477  -36.7300   23.2643 C   0  0  0  0  0  0
  -25.9372  -30.8254   21.3607 C   0  0  0  0  0  0
  -26.0183  -29.4573   20.7085 C   0  0  0  0  0  0
  -27.2154  -28.7010   20.6893 C   0  0  0  0  0  0
  -26.0597  -26.9161   19.5121 C   0  0  0  0  0  0
  -24.8743  -27.6768   19.5137 C   0  0  0  0  0  0
  -23.6178  -29.8136   20.1655 C   0  0  0  0  0  0
  -25.4100  -36.3098   24.0339 C   0  0  1  0  0  0
  -20.5858  -28.3650   23.1315 C   0  0  2  0  0  0
  -20.6762  -26.9383   22.5410 C   0  0  0  0  0  0
  -19.5743  -26.6380   21.5203 C   0  0  0  0  0  0
  -18.1918  -26.7919   22.1610 C   0  0  0  0  0  0
  -19.1519  -28.8831   23.2894 C   0  0  0  0  0  0
  -18.9449  -30.1442   23.8900 C   0  0  0  0  0  0
  -17.6452  -30.6578   24.0566 C   0  0  0  0  0  0
  -25.9027  -34.9465   23.5126 C   0  0  0  0  0  0
  -16.5341  -29.9080   23.6325 C   0  0  0  0  0  0
  -16.7259  -28.6504   23.0332 C   0  0  0  0  0  0
  -26.4466  -31.6595   25.0720 C   0  0  0  0  0  0
  -25.3715  -31.3675   26.1454 C   0  0  0  0  0  0
  -27.0322  -30.3054   24.6079 C   0  0  0  0  0  0
  -27.6045  -32.4316   25.7484 C   0  0  0  0  0  0
  -27.5574  -37.1798   24.8469 C   0  0  0  0  0  0
  -21.4143  -29.3022   22.3740 N   0  0  0  0  0  0
  -26.4285  -37.3783   23.9416 N   0  0  0  0  0  0
  -24.6730  -31.0716   22.0985 N   0  0  0  0  0  0
  -23.4168  -28.8157   23.3056 O   0  0  0  0  0  0
  -28.4229  -26.6790   20.1096 O   0  0  0  0  0  0
  -26.5594  -34.8919   22.4691 O   0  0  0  0  0  0
  -23.5355  -32.1408   23.7447 O   0  0  0  0  0  0
  -29.0031  -19.7787   20.0673 C   0  0  0  0  0  0
  -31.1421  -19.1548   21.6084 C   0  0  0  0  0  0
  -29.0970  -18.4543   20.5702 C   0  0  0  0  0  0
  -30.2375  -18.0826   21.3513 C   0  0  0  0  0  0
  -29.9290  -20.7567   20.4378 C   0  0  0  0  0  0
  -27.8751  -17.1114   18.8282 C   0  0  0  0  0  0
  -26.5865  -18.2634   20.7233 C   0  0  0  0  0  0
  -29.6139  -16.7070   23.3383 C   0  0  0  0  0  0
  -31.9298  -16.4891   22.5361 C   0  0  0  0  0  0
  -29.7367  -24.6140   20.4960 C   0  0  0  0  0  0
  -29.7979  -23.1486   21.0390 C   0  0  0  0  0  0
  -28.3371  -25.2394   20.2247 C   0  0  0  0  0  0
  -27.8943  -17.5558   20.2995 C   0  0  0  0  0  0
  -30.4671  -16.6839   22.0517 C   0  0  0  0  0  0
  -30.9889  -20.4433   21.2011 N   0  0  0  0  0  0
  -29.7417  -22.0900   20.0203 N   0  0  0  0  0  0
  -30.0348  -15.4446   21.3379 N   0  0  0  0  0  0
  -31.4674  -12.4646   19.1070 H   0  0  0  0  0  0
  -30.3485  -11.3365   19.8176 H   0  0  0  0  0  0
  -29.7365  -11.7928   17.4280 H   0  0  0  0  0  0
  -29.6425  -13.5052   17.7568 H   0  0  0  0  0  0
  -27.8383  -11.3079   18.8185 H   0  0  0  0  0  0
  -27.3585  -12.6320   17.7903 H   0  0  0  0  0  0
  -27.6926  -14.2512   19.5757 H   0  0  0  0  0  0
  -28.6963  -11.9599   21.3267 H   0  0  0  0  0  0
  -28.4442  -13.5850   21.8736 H   0  0  0  0  0  0
  -25.2743   -9.5630   22.4776 H   0  0  0  0  0  0
  -23.9973   -7.4587   22.7484 H   0  0  0  0  0  0
  -21.0828   -8.8737   19.8947 H   0  0  0  0  0  0
  -22.3695  -10.9634   19.6169 H   0  0  0  0  0  0
  -21.1995   -7.6138   23.9713 H   0  0  0  0  0  0
  -21.1467   -6.0516   25.9075 H   0  0  0  0  0  0
  -22.0614   -2.7606   23.2857 H   0  0  0  0  0  0
  -22.4052  -11.9810   22.4782 H   0  0  0  0  0  0
  -21.1099  -13.1241   22.2642 H   0  0  0  0  0  0
  -24.6254  -15.7973   20.4817 H   0  0  0  0  0  0
  -26.2507  -15.6058   20.0603 H   0  0  0  0  0  0
  -26.7113  -32.5504   23.1148 H   0  0  0  0  0  0
  -25.0052  -33.9773   25.0469 H   0  0  0  0  0  0
  -22.6972  -31.3008   21.4063 H   0  0  0  0  0  0
  -23.3745  -35.9627   23.3313 H   0  0  0  0  0  0
  -24.3569  -36.8898   22.2054 H   0  0  0  0  0  0
  -23.7219  -37.6501   23.6660 H   0  0  0  0  0  0
  -26.0437  -31.5886   20.5887 H   0  0  0  0  0  0
  -26.8272  -30.8850   21.9751 H   0  0  0  0  0  0
  -28.1158  -29.0948   21.1395 H   0  0  0  0  0  0
  -26.0381  -25.9467   19.0373 H   0  0  0  0  0  0
  -23.9821  -27.2766   19.0525 H   0  0  0  0  0  0
  -23.7236  -30.5873   19.4037 H   0  0  0  0  0  0
  -22.7430  -29.2305   19.8721 H   0  0  0  0  0  0
  -25.1269  -36.1967   25.0830 H   0  0  0  0  0  0
  -20.9939  -28.3201   24.1437 H   0  0  0  0  0  0
  -20.5646  -26.2244   23.3584 H   0  0  0  0  0  0
  -21.6637  -26.7402   22.1215 H   0  0  0  0  0  0
  -19.6903  -25.6291   21.1236 H   0  0  0  0  0  0
  -19.6709  -27.3191   20.6739 H   0  0  0  0  0  0
  -17.4183  -26.6657   21.4018 H   0  0  0  0  0  0
  -18.0325  -26.0059   22.9004 H   0  0  0  0  0  0
  -19.7925  -30.7272   24.2255 H   0  0  0  0  0  0
  -17.5000  -31.6256   24.5172 H   0  0  0  0  0  0
  -15.5343  -30.2986   23.7657 H   0  0  0  0  0  0
  -15.8654  -28.0846   22.7021 H   0  0  0  0  0  0
  -24.5935  -30.6967   25.7786 H   0  0  0  0  0  0
  -24.8847  -32.2807   26.4887 H   0  0  0  0  0  0
  -25.8055  -30.8871   27.0229 H   0  0  0  0  0  0
  -26.2870  -29.6798   24.1148 H   0  0  0  0  0  0
  -27.4142  -29.7298   25.4520 H   0  0  0  0  0  0
  -27.8672  -30.4416   23.9200 H   0  0  0  0  0  0
  -27.2689  -33.3636   26.2049 H   0  0  0  0  0  0
  -28.3867  -32.6828   25.0308 H   0  0  0  0  0  0
  -28.0703  -31.8435   26.5400 H   0  0  0  0  0  0
  -28.2585  -38.0099   24.7526 H   0  0  0  0  0  0
  -28.1071  -36.2629   24.6292 H   0  0  0  0  0  0
  -27.2291  -37.1442   25.8868 H   0  0  0  0  0  0
  -20.9311  -29.8749   21.6963 H   0  0  0  0  0  0
  -26.0172  -38.2854   24.1433 H   0  0  0  0  0  0
  -28.1681  -20.0632   19.4445 H   0  0  0  0  0  0
  -32.0211  -19.0166   22.2159 H   0  0  0  0  0  0
  -28.7774  -16.5482   18.5868 H   0  0  0  0  0  0
  -27.8319  -17.9654   18.1520 H   0  0  0  0  0  0
  -27.0191  -16.4782   18.6009 H   0  0  0  0  0  0
  -26.6380  -18.5652   21.7699 H   0  0  0  0  0  0
  -25.7123  -17.6305   20.6196 H   0  0  0  0  0  0
  -26.3718  -19.1533   20.1350 H   0  0  0  0  0  0
  -29.9054  -17.5299   23.9933 H   0  0  0  0  0  0
  -29.7241  -15.7885   23.9177 H   0  0  0  0  0  0
  -28.5511  -16.8325   23.1328 H   0  0  0  0  0  0
  -32.2124  -17.1920   23.3208 H   0  0  0  0  0  0
  -32.6499  -16.5950   21.7238 H   0  0  0  0  0  0
  -32.0750  -15.4983   22.9699 H   0  0  0  0  0  0
  -30.3728  -24.7180   19.6168 H   0  0  0  0  0  0
  -30.2030  -25.2394   21.2586 H   0  0  0  0  0  0
  -29.0085  -22.9899   21.7750 H   0  0  0  0  0  0
  -30.7377  -23.0337   21.5824 H   0  0  0  0  0  0
  -27.9205  -24.8027   19.3160 H   0  0  0  0  0  0
  -27.6653  -24.9864   21.0475 H   0  0  0  0  0  0
  -27.9432  -16.6656   20.9161 H   0  0  0  0  0  0
  -28.9732  -22.1973   19.3672 H   0  0  0  0  0  0
  -29.1200  -15.1222   21.6113 H   0  0  0  0  0  0
  1 25  1  0  0  0
  1 30  2  0  0  0
  1 87  1  0  0  0
  2  3  1  0  0  0
  2 25  1  0  0  0
  2 88  1  0  0  0
  2 89  1  0  0  0
  3  4  1  0  0  0
  3 90  1  0  0  0
  3 91  1  0  0  0
  4  5  1  0  0  0
  4 92  1  0  0  0
  4 93  1  0  0  0
  5  6  1  0  0  0
  5 26  1  0  0  0
  5 94  1  0  0  0
  6 25  1  0  0  0
  6 95  1  0  0  0
  6 96  1  0  0  0
  7  8  2  0  0  0
  7 26  1  0  0  0
  7 29  1  0  0  0
  8  9  1  0  0  0
  8 22  1  0  0  0
  9 10  1  0  0  0
  9 27  2  0  0  0
 10 11  2  0  0  0
 10 15  1  0  0  0
 11 12  1  0  0  0
 11 97  1  0  0  0
 12 13  2  0  0  0
 12 98  1  0  0  0
 13 14  1  0  0  0
 13 31  1  0  0  0
 14 15  2  0  0  0
 14 99  1  0  0  0
 15100  1  0  0  0
 16 17  2  0  0  0
 16 21  1  0  0  0
 16 31  1  0  0  0
 17 18  1  0  0  0
 17101  1  0  0  0
 18 19  2  0  0  0
 18102  1  0  0  0
 19 20  1  0  0  0
 19 24  1  0  0  0
 20 21  2  0  0  0
 20103  1  0  0  0
 21 23  1  0  0  0
 22 28  1  0  0  0
 22 32  2  0  0  0
 26 27  1  0  0  0
 28104  1  0  0  0
 28105  1  0  0  0
 29106  1  0  0  0
 29107  1  0  0  0
 33 34  1  0  0  0
 33 66  1  0  0  0
 33 70  2  0  0  0
 34 36  1  0  0  0
 34 59  1  0  0  0
 34108  1  0  0  0
 35 44  2  0  0  0
 35 45  1  0  0  0
 35 68  1  0  0  0
 36 56  1  0  0  0
 36109  1  0  0  0
 37 39  1  0  0  0
 37 47  1  0  0  0
 37 66  1  0  0  0
 37110  1  0  0  0
 38 43  2  0  0  0
 38 46  1  0  0  0
 38 47  1  0  0  0
 39 64  1  0  0  0
 39 67  2  0  0  0
 40 52  1  0  0  0
 40 53  2  0  0  0
 40 58  1  0  0  0
 41111  1  0  0  0
 41112  1  0  0  0
 41113  1  0  0  0
 41 48  1  0  0  0
 42 43  1  0  0  0
 42 66  1  0  0  0
 42114  1  0  0  0
 42115  1  0  0  0
 43 44  1  0  0  0
 44116  1  0  0  0
 45 46  2  0  0  0
 45117  1  0  0  0
 46118  1  0  0  0
 47119  1  0  0  0
 47120  1  0  0  0
 48 56  1  0  0  0
 48 65  1  0  0  0
 48121  1  0  0  0
 49 50  1  0  0  0
 49 53  1  0  0  0
 49 64  1  0  0  0
 49122  1  0  0  0
 50 51  1  0  0  0
 50123  1  0  0  0
 50124  1  0  0  0
 51 52  1  0  0  0
 51125  1  0  0  0
 51126  1  0  0  0
 52127  1  0  0  0
 52128  1  0  0  0
 53 54  1  0  0  0
 54 55  2  0  0  0
 54129  1  0  0  0
 55 57  1  0  0  0
 55130  1  0  0  0
 56 69  2  0  0  0
 57 58  2  0  0  0
 57131  1  0  0  0
 58132  1  0  0  0
 59 60  1  0  0  0
 59 61  1  0  0  0
 59 62  1  0  0  0
 60133  1  0  0  0
 60134  1  0  0  0
 60135  1  0  0  0
 61136  1  0  0  0
 61137  1  0  0  0
 61138  1  0  0  0
 62139  1  0  0  0
 62140  1  0  0  0
 62141  1  0  0  0
 63 65  1  0  0  0
 63142  1  0  0  0
 63143  1  0  0  0
 63144  1  0  0  0
 64145  1  0  0  0
 65146  1  0  0  0
 68 82  1  0  0  0
 71 73  2  0  0  0
 71 75  1  0  0  0
 71147  1  0  0  0
 72 74  2  0  0  0
 72 85  1  0  0  0
 72148  1  0  0  0
 73 74  1  0  0  0
 73 83  1  0  0  0
 74 84  1  0  0  0
 75 85  2  0  0  0
 75 86  1  0  0  0
 76149  1  0  0  0
 76150  1  0  0  0
 76151  1  0  0  0
 76 83  1  0  0  0
 77 83  1  0  0  0
 77152  1  0  0  0
 77153  1  0  0  0
 77154  1  0  0  0
 78155  1  0  0  0
 78156  1  0  0  0
 78157  1  0  0  0
 78 84  1  0  0  0
 79 84  1  0  0  0
 79158  1  0  0  0
 79159  1  0  0  0
 79160  1  0  0  0
 80 81  1  0  0  0
 80 82  1  0  0  0
 80161  1  0  0  0
 80162  1  0  0  0
 81 86  1  0  0  0
 81163  1  0  0  0
 81164  1  0  0  0
 82165  1  0  0  0
 82166  1  0  0  0
 83167  1  0  0  0
 84 87  1  0  0  0
 86168  1  0  0  0
 87169  1  0  0  0
M  ISO  4   1 100  68 101  82 101  87 100
M  END
> <chiral flag>
0

> <version>
0

> <s_m_source_file>
/data/baiqing/PycharmProjects/Reinvent-master-3.2/result/LINK_invent/BTK/process_docking_weight1_custom_sum_contain_oxygen_bond_distance_aromatic_linkinvent_7_9_3/rearranged_h_0112.sdf

> <i_m_source_file_index>
63

> <r_mmod_Potential_Energy-OPLS-2005>
-189.685729980469

> <r_mmod_Stretch_Energy-OPLS-2005>
53.9691734313965

> <r_mmod_Bend_Energy-OPLS-2005>
139.212615966797

> <r_mmod_Torsional_Energy-OPLS-2005>
212.267425537109

> <r_mmod_Improper_Torsional_Energy-OPLS-2005>
7.45047330856323

> <r_mmod_Van_der_Waal_Energy-OPLS-2005>
159.420791625977

> <r_mmod_Electrostatic_Energy-OPLS-2005>
-546.891052246094

> <r_mmod_Solvation_Energy-OPLS-2005>
-231.116363525391

> <b_mmod_Minimization_Converged-OPLS-2005>
0

> <r_mmod_RMS_Derivative-OPLS-2005>
1.41965699195862

$$$$
63
                    3D
 Structure written by MMmdl.
165173  0  0  1  0            999 V2000
  -30.7115  -14.4416   20.5999 C   0  0  0  0  0  0
  -30.4198  -12.2959   19.4135 C   0  0  0  0  0  0
  -29.4905  -12.5082   18.2012 C   0  0  0  0  0  0
  -28.0115  -12.3697   18.6132 C   0  0  0  0  0  0
  -27.6615  -13.2017   19.8754 C   0  0  2  0  0  0
  -28.7011  -12.9626   20.9931 C   0  0  0  0  0  0
  -25.2586  -13.8155   20.5674 C   0  0  0  0  0  0
  -24.1835  -13.0441   20.9179 C   0  0  0  0  0  0
  -24.6377  -11.6905   20.8728 C   0  0  0  0  0  0
  -23.9046  -10.4294   21.0399 C   0  0  0  0  0  0
  -24.3603   -9.4207   21.9171 C   0  0  0  0  0  0
  -23.6282   -8.2242   22.0749 C   0  0  0  0  0  0
  -22.4261   -8.0282   21.3544 C   0  0  0  0  0  0
  -21.9892   -9.0252   20.4644 C   0  0  0  0  0  0
  -22.7220  -10.2130   20.3052 C   0  0  0  0  0  0
  -21.6850   -6.0728   22.5273 C   0  0  0  0  0  0
  -21.4012   -6.5630   23.8206 C   0  0  0  0  0  0
  -21.3665   -5.6784   24.9168 C   0  0  0  0  0  0
  -21.6049   -4.3047   24.7220 C   0  0  0  0  0  0
  -21.8819   -3.8141   23.4340 C   0  0  0  0  0  0
  -21.9192   -4.6958   22.3396 C   0  0  0  0  0  0
  -22.7864  -13.5251   21.1841 C   0  0  0  0  0  0
  -22.1660   -4.2147   21.0972 F   0  0  0  0  0  0
  -21.5640   -3.4532   25.7733 F   0  0  0  0  0  0
  -30.0358  -13.2694   20.4478 N   0  0  0  0  0  0
  -26.3013  -12.9311   20.3353 N   0  0  0  0  0  0
  -25.9297  -11.6477   20.5743 N   0  0  0  0  0  0
  -22.0497  -12.8248   22.0394 N   0  0  0  0  0  0
  -25.4316  -15.1874   20.4078 N   0  0  0  0  0  0
  -31.8251  -14.6245   20.0961 O   0  0  0  0  0  0
  -21.6635   -6.8872   21.4237 O   0  0  0  0  0  0
  -22.3560  -14.5561   20.6689 O   0  0  0  0  0  0
  -24.6124  -31.8695   23.2101 C   0  0  0  0  0  0
  -25.9030  -32.4829   23.8387 C   0  0  1  0  0  0
  -27.2347  -27.4554   20.0932 C   0  0  0  0  0  0
  -25.5896  -33.8626   24.2332 N   0  0  0  0  0  0
  -23.3996  -30.4928   21.5500 C   0  0  2  0  0  0
  -24.8471  -28.9605   20.1139 C   0  0  0  0  0  0
  -22.7402  -29.4660   22.4985 C   0  0  0  0  0  0
  -18.0276  -28.1370   22.8488 C   0  0  0  0  0  0
  -24.1491  -36.7319   23.2630 C   0  0  0  0  0  0
  -25.9255  -30.8429   21.3582 C   0  0  0  0  0  0
  -26.0061  -29.4786   20.7063 C   0  0  0  0  0  0
  -27.2060  -28.7345   20.6894 C   0  0  0  0  0  0
  -26.0623  -26.9447   19.4984 C   0  0  0  0  0  0
  -24.8691  -27.6918   19.5069 C   0  0  0  0  0  0
  -23.6075  -29.8246   20.1645 C   0  0  0  0  0  0
  -25.4108  -36.3115   24.0336 C   0  0  1  0  0  0
  -20.5865  -28.3652   23.1326 C   0  0  2  0  0  0
  -20.6767  -26.9389   22.5423 C   0  0  0  0  0  0
  -19.5749  -26.6382   21.5209 C   0  0  0  0  0  0
  -18.1925  -26.7922   22.1617 C   0  0  0  0  0  0
  -19.1524  -28.8827   23.2908 C   0  0  0  0  0  0
  -18.9452  -30.1434   23.8916 C   0  0  0  0  0  0
  -17.6455  -30.6576   24.0565 C   0  0  0  0  0  0
  -25.9034  -34.9479   23.5134 C   0  0  0  0  0  0
  -16.5347  -29.9080   23.6315 C   0  0  0  0  0  0
  -16.7267  -28.6500   23.0333 C   0  0  0  0  0  0
  -26.4461  -31.6597   25.0704 C   0  0  0  0  0  0
  -25.3743  -31.3727   26.1473 C   0  0  0  0  0  0
  -27.0248  -30.3028   24.6052 C   0  0  0  0  0  0
  -27.6058  -32.4292   25.7457 C   0  0  0  0  0  0
  -27.5592  -37.1807   24.8456 C   0  0  0  0  0  0
  -21.4131  -29.3025   22.3734 N   0  0  0  0  0  0
  -26.4295  -37.3802   23.9416 N   0  0  0  0  0  0
  -24.6642  -31.0816   22.0988 N   0  0  0  0  0  0
  -23.4189  -28.8202   23.3016 O   0  0  0  0  0  0
  -28.3909  -26.7120   20.1016 O   0  0  0  0  0  0
  -26.5587  -34.8930   22.4689 O   0  0  0  0  0  0
  -23.5324  -32.1431   23.7513 O   0  0  0  0  0  0
  -30.7341  -19.5199   21.7427 C   0  0  0  0  0  0
  -29.2142  -17.6407   21.6290 C   0  0  0  0  0  0
  -29.4202  -19.0290   21.8094 C   0  0  0  0  0  0
  -31.7791  -18.6140   21.5085 C   0  0  0  0  0  0
  -30.3150  -16.7892   21.3864 C   0  0  0  0  0  0
  -33.2189  -19.0781   21.4425 C   0  0  0  0  0  0
  -27.5305  -21.6529   18.6300 C   0  0  0  0  0  0
  -28.3595  -24.2346   19.9964 C   0  0  0  0  0  0
  -27.9620  -22.9649   20.7873 C   0  0  0  0  0  0
  -27.5043  -20.4306   20.8393 C   0  0  0  0  0  0
  -28.3040  -25.5052   20.8686 C   0  0  0  0  0  0
  -28.2590  -19.9719   22.1105 C   0  0  1  0  0  0
  -28.1354  -21.6093   20.0468 C   0  0  1  0  0  0
  -31.5726  -17.2909   21.3401 N   0  0  0  0  0  0
  -30.0151  -15.4078   21.2314 N   0  0  0  0  0  0
  -27.3309  -19.3588   22.9860 O   0  0  0  0  0  0
  -31.4642  -12.3915   19.1115 H   0  0  0  0  0  0
  -30.3174  -11.2812   19.8013 H   0  0  0  0  0  0
  -29.7263  -11.7902   17.4147 H   0  0  0  0  0  0
  -29.6612  -13.4972   17.7725 H   0  0  0  0  0  0
  -27.8167  -11.3126   18.8000 H   0  0  0  0  0  0
  -27.3642  -12.6539   17.7833 H   0  0  0  0  0  0
  -27.7107  -14.2522   19.5877 H   0  0  0  0  0  0
  -28.6736  -11.9201   21.3137 H   0  0  0  0  0  0
  -28.4563  -13.5405   21.8849 H   0  0  0  0  0  0
  -25.2746   -9.5690   22.4738 H   0  0  0  0  0  0
  -23.9998   -7.4639   22.7471 H   0  0  0  0  0  0
  -21.0818   -8.8766   19.8954 H   0  0  0  0  0  0
  -22.3670  -10.9664   19.6166 H   0  0  0  0  0  0
  -21.1998   -7.6136   23.9708 H   0  0  0  0  0  0
  -21.1489   -6.0511   25.9069 H   0  0  0  0  0  0
  -22.0592   -2.7603   23.2839 H   0  0  0  0  0  0
  -22.4096  -11.9906   22.4785 H   0  0  0  0  0  0
  -21.1123  -13.1289   22.2603 H   0  0  0  0  0  0
  -24.6577  -15.8369   20.4975 H   0  0  0  0  0  0
  -26.2679  -15.6173   20.0344 H   0  0  0  0  0  0
  -26.7100  -32.5559   23.1153 H   0  0  0  0  0  0
  -25.0066  -33.9782   25.0488 H   0  0  0  0  0  0
  -22.6870  -31.3084   21.4120 H   0  0  0  0  0  0
  -23.3751  -35.9653   23.3289 H   0  0  0  0  0  0
  -24.3596  -36.8935   22.2047 H   0  0  0  0  0  0
  -23.7241  -37.6524   23.6642 H   0  0  0  0  0  0
  -26.0327  -31.6102   20.5900 H   0  0  0  0  0  0
  -26.8154  -30.8983   21.9736 H   0  0  0  0  0  0
  -28.1034  -29.1291   21.1461 H   0  0  0  0  0  0
  -26.0697  -25.9720   19.0290 H   0  0  0  0  0  0
  -23.9782  -27.2866   19.0477 H   0  0  0  0  0  0
  -23.7141  -30.5994   19.4043 H   0  0  0  0  0  0
  -22.7315  -29.2437   19.8694 H   0  0  0  0  0  0
  -25.1278  -36.1979   25.0826 H   0  0  0  0  0  0
  -20.9961  -28.3222   24.1446 H   0  0  0  0  0  0
  -20.5652  -26.2256   23.3606 H   0  0  0  0  0  0
  -21.6644  -26.7426   22.1230 H   0  0  0  0  0  0
  -19.6909  -25.6298   21.1223 H   0  0  0  0  0  0
  -19.6693  -27.3205   20.6749 H   0  0  0  0  0  0
  -17.4196  -26.6665   21.4020 H   0  0  0  0  0  0
  -18.0324  -26.0061   22.9009 H   0  0  0  0  0  0
  -19.7928  -30.7242   24.2298 H   0  0  0  0  0  0
  -17.5009  -31.6260   24.5162 H   0  0  0  0  0  0
  -15.5347  -30.2987   23.7628 H   0  0  0  0  0  0
  -15.8668  -28.0829   22.7024 H   0  0  0  0  0  0
  -24.5913  -30.7053   25.7851 H   0  0  0  0  0  0
  -24.8929  -32.2891   26.4900 H   0  0  0  0  0  0
  -25.8114  -30.8937   27.0243 H   0  0  0  0  0  0
  -26.2763  -29.6833   24.1088 H   0  0  0  0  0  0
  -27.3993  -29.7218   25.4491 H   0  0  0  0  0  0
  -27.8622  -30.4329   23.9191 H   0  0  0  0  0  0
  -27.2694  -33.3578   26.2081 H   0  0  0  0  0  0
  -28.3846  -32.6872   25.0267 H   0  0  0  0  0  0
  -28.0744  -31.8377   26.5334 H   0  0  0  0  0  0
  -28.2603  -38.0111   24.7521 H   0  0  0  0  0  0
  -28.1094  -36.2646   24.6249 H   0  0  0  0  0  0
  -27.2319  -37.1431   25.8861 H   0  0  0  0  0  0
  -20.9273  -29.8762   21.6979 H   0  0  0  0  0  0
  -26.0185  -38.2880   24.1427 H   0  0  0  0  0  0
  -30.9336  -20.5748   21.8802 H   0  0  0  0  0  0
  -28.2153  -17.2305   21.6661 H   0  0  0  0  0  0
  -33.3154  -20.1192   21.7516 H   0  0  0  0  0  0
  -33.6018  -18.9883   20.4255 H   0  0  0  0  0  0
  -33.8464  -18.4754   22.0997 H   0  0  0  0  0  0
  -28.0551  -22.3618   17.9892 H   0  0  0  0  0  0
  -26.4779  -21.9371   18.6531 H   0  0  0  0  0  0
  -27.5996  -20.6820   18.1373 H   0  0  0  0  0  0
  -27.6850  -24.3565   19.1499 H   0  0  0  0  0  0
  -29.3610  -24.1254   19.5790 H   0  0  0  0  0  0
  -26.9217  -23.0750   21.0976 H   0  0  0  0  0  0
  -28.5437  -22.9407   21.7096 H   0  0  0  0  0  0
  -26.4918  -20.7326   21.1116 H   0  0  0  0  0  0
  -27.3763  -19.5640   20.1889 H   0  0  0  0  0  0
  -29.1361  -25.4939   21.5735 H   0  0  0  0  0  0
  -27.4027  -25.4918   21.4859 H   0  0  0  0  0  0
  -28.6455  -20.8423   22.6415 H   0  0  0  0  0  0
  -29.2023  -21.4113   19.9336 H   0  0  0  0  0  0
  -29.0982  -15.1253   21.5338 H   0  0  0  0  0  0
  -27.1151  -18.5159   22.6033 H   0  0  0  0  0  0
  1 25  1  0  0  0
  1 30  2  0  0  0
  1 85  1  0  0  0
  2  3  1  0  0  0
  2 25  1  0  0  0
  2 87  1  0  0  0
  2 88  1  0  0  0
  3  4  1  0  0  0
  3 89  1  0  0  0
  3 90  1  0  0  0
  4  5  1  0  0  0
  4 91  1  0  0  0
  4 92  1  0  0  0
  5  6  1  0  0  0
  5 26  1  0  0  0
  5 93  1  0  0  0
  6 25  1  0  0  0
  6 94  1  0  0  0
  6 95  1  0  0  0
  7  8  2  0  0  0
  7 26  1  0  0  0
  7 29  1  0  0  0
  8  9  1  0  0  0
  8 22  1  0  0  0
  9 10  1  0  0  0
  9 27  2  0  0  0
 10 11  2  0  0  0
 10 15  1  0  0  0
 11 12  1  0  0  0
 11 96  1  0  0  0
 12 13  2  0  0  0
 12 97  1  0  0  0
 13 14  1  0  0  0
 13 31  1  0  0  0
 14 15  2  0  0  0
 14 98  1  0  0  0
 15 99  1  0  0  0
 16 17  2  0  0  0
 16 21  1  0  0  0
 16 31  1  0  0  0
 17 18  1  0  0  0
 17100  1  0  0  0
 18 19  2  0  0  0
 18101  1  0  0  0
 19 20  1  0  0  0
 19 24  1  0  0  0
 20 21  2  0  0  0
 20102  1  0  0  0
 21 23  1  0  0  0
 22 28  1  0  0  0
 22 32  2  0  0  0
 26 27  1  0  0  0
 28103  1  0  0  0
 28104  1  0  0  0
 29105  1  0  0  0
 29106  1  0  0  0
 33 34  1  0  0  0
 33 66  1  0  0  0
 33 70  2  0  0  0
 34 36  1  0  0  0
 34 59  1  0  0  0
 34107  1  0  0  0
 35 44  2  0  0  0
 35 45  1  0  0  0
 35 68  1  0  0  0
 36 56  1  0  0  0
 36108  1  0  0  0
 37 39  1  0  0  0
 37 47  1  0  0  0
 37 66  1  0  0  0
 37109  1  0  0  0
 38 43  2  0  0  0
 38 46  1  0  0  0
 38 47  1  0  0  0
 39 64  1  0  0  0
 39 67  2  0  0  0
 40 52  1  0  0  0
 40 53  2  0  0  0
 40 58  1  0  0  0
 41110  1  0  0  0
 41111  1  0  0  0
 41112  1  0  0  0
 41 48  1  0  0  0
 42 43  1  0  0  0
 42 66  1  0  0  0
 42113  1  0  0  0
 42114  1  0  0  0
 43 44  1  0  0  0
 44115  1  0  0  0
 45 46  2  0  0  0
 45116  1  0  0  0
 46117  1  0  0  0
 47118  1  0  0  0
 47119  1  0  0  0
 48 56  1  0  0  0
 48 65  1  0  0  0
 48120  1  0  0  0
 49 50  1  0  0  0
 49 53  1  0  0  0
 49 64  1  0  0  0
 49121  1  0  0  0
 50 51  1  0  0  0
 50122  1  0  0  0
 50123  1  0  0  0
 51 52  1  0  0  0
 51124  1  0  0  0
 51125  1  0  0  0
 52126  1  0  0  0
 52127  1  0  0  0
 53 54  1  0  0  0
 54 55  2  0  0  0
 54128  1  0  0  0
 55 57  1  0  0  0
 55129  1  0  0  0
 56 69  2  0  0  0
 57 58  2  0  0  0
 57130  1  0  0  0
 58131  1  0  0  0
 59 60  1  0  0  0
 59 61  1  0  0  0
 59 62  1  0  0  0
 60132  1  0  0  0
 60133  1  0  0  0
 60134  1  0  0  0
 61135  1  0  0  0
 61136  1  0  0  0
 61137  1  0  0  0
 62138  1  0  0  0
 62139  1  0  0  0
 62140  1  0  0  0
 63 65  1  0  0  0
 63141  1  0  0  0
 63142  1  0  0  0
 63143  1  0  0  0
 64144  1  0  0  0
 65145  1  0  0  0
 68 81  1  0  0  0
 71 73  2  0  0  0
 71 74  1  0  0  0
 71146  1  0  0  0
 72 73  1  0  0  0
 72 75  2  0  0  0
 72147  1  0  0  0
 73 82  1  0  0  0
 74 76  1  0  0  0
 74 84  2  0  0  0
 75 84  1  0  0  0
 75 85  1  0  0  0
 76148  1  0  0  0
 76149  1  0  0  0
 76150  1  0  0  0
 77151  1  0  0  0
 77152  1  0  0  0
 77153  1  0  0  0
 77 83  1  0  0  0
 78 79  1  0  0  0
 78 81  1  0  0  0
 78154  1  0  0  0
 78155  1  0  0  0
 79 83  1  0  0  0
 79156  1  0  0  0
 79157  1  0  0  0
 80 82  1  0  0  0
 80 83  1  0  0  0
 80158  1  0  0  0
 80159  1  0  0  0
 81160  1  0  0  0
 81161  1  0  0  0
 82 86  1  0  0  0
 82162  1  0  0  0
 83163  1  0  0  0
 85164  1  0  0  0
 86165  1  0  0  0
M  ISO  4   1 100  68 101  81 101  85 100
M  END
> <chiral flag>
0

> <version>
0

> <s_m_source_file>
/data/baiqing/PycharmProjects/Reinvent-master-3.2/result/LINK_invent/BTK/process_docking_weight1_custom_sum_contain_oxygen_bond_distance_aromatic_linkinvent_7_9_3/rearranged_h_0112.sdf

> <i_m_source_file_index>
64

> <r_mmod_Potential_Energy-OPLS-2005>
-255.91047668457

> <r_mmod_Stretch_Energy-OPLS-2005>
35.1854438781738

> <r_mmod_Bend_Energy-OPLS-2005>
96.633430480957

> <r_mmod_Torsional_Energy-OPLS-2005>
235.721801757812

> <r_mmod_Improper_Torsional_Energy-OPLS-2005>
3.27572751045227

> <r_mmod_Van_der_Waal_Energy-OPLS-2005>
153.922409057617

> <r_mmod_Electrostatic_Energy-OPLS-2005>
-548.130859375

> <r_mmod_Solvation_Energy-OPLS-2005>
-242.520172119141

> <b_mmod_Minimization_Converged-OPLS-2005>
0

> <r_mmod_RMS_Derivative-OPLS-2005>
1.13745784759521

$$$$
64
                    3D
 Structure written by MMmdl.
164172  0  0  1  0            999 V2000
  -30.5329  -14.9051   20.4425 C   0  0  0  0  0  0
  -30.4430  -12.5675   19.4828 C   0  0  0  0  0  0
  -29.5160  -12.5258   18.2459 C   0  0  0  0  0  0
  -28.0495  -12.3134   18.6679 C   0  0  0  0  0  0
  -27.6306  -13.2368   19.8401 C   0  0  2  0  0  0
  -28.6755  -13.2379   20.9743 C   0  0  0  0  0  0
  -25.2457  -13.8166   20.5670 C   0  0  0  0  0  0
  -24.1770  -13.0407   20.9211 C   0  0  0  0  0  0
  -24.6368  -11.6891   20.8734 C   0  0  0  0  0  0
  -23.9037  -10.4274   21.0379 C   0  0  0  0  0  0
  -24.3592   -9.4193   21.9175 C   0  0  0  0  0  0
  -23.6276   -8.2233   22.0748 C   0  0  0  0  0  0
  -22.4272   -8.0269   21.3533 C   0  0  0  0  0  0
  -21.9892   -9.0233   20.4625 C   0  0  0  0  0  0
  -22.7210  -10.2113   20.3025 C   0  0  0  0  0  0
  -21.6851   -6.0723   22.5278 C   0  0  0  0  0  0
  -21.4020   -6.5633   23.8212 C   0  0  0  0  0  0
  -21.3660   -5.6784   24.9169 C   0  0  0  0  0  0
  -21.6048   -4.3050   24.7216 C   0  0  0  0  0  0
  -21.8830   -3.8134   23.4333 C   0  0  0  0  0  0
  -21.9190   -4.6950   22.3390 C   0  0  0  0  0  0
  -22.7798  -13.5200   21.1872 C   0  0  0  0  0  0
  -22.1659   -4.2125   21.0971 F   0  0  0  0  0  0
  -21.5626   -3.4541   25.7731 F   0  0  0  0  0  0
  -29.9485  -13.6495   20.3731 N   0  0  0  0  0  0
  -26.2881  -12.9381   20.3247 N   0  0  0  0  0  0
  -25.9303  -11.6524   20.5738 N   0  0  0  0  0  0
  -22.0428  -12.8191   22.0427 N   0  0  0  0  0  0
  -25.4161  -15.1886   20.4067 N   0  0  0  0  0  0
  -31.7418  -14.9995   20.2061 O   0  0  0  0  0  0
  -21.6633   -6.8871   21.4243 O   0  0  0  0  0  0
  -22.3504  -14.5517   20.6722 O   0  0  0  0  0  0
  -24.6399  -31.8463   23.1878 C   0  0  0  0  0  0
  -25.9179  -32.4706   23.8262 C   0  0  1  0  0  0
  -27.2193  -27.1579   20.1619 C   0  0  0  0  0  0
  -25.5937  -33.8506   24.2213 N   0  0  0  0  0  0
  -23.4410  -30.4633   21.5344 C   0  0  2  0  0  0
  -24.8890  -28.8832   20.1161 C   0  0  0  0  0  0
  -22.7549  -29.4559   22.4903 C   0  0  0  0  0  0
  -18.0301  -28.1386   22.8487 C   0  0  0  0  0  0
  -24.1502  -36.7259   23.2636 C   0  0  0  0  0  0
  -25.9897  -30.7289   21.3767 C   0  0  0  0  0  0
  -26.0604  -29.3355   20.7338 C   0  0  0  0  0  0
  -27.2237  -28.4863   20.7420 C   0  0  0  0  0  0
  -26.0263  -26.7994   19.4985 C   0  0  0  0  0  0
  -24.8815  -27.6283   19.4852 C   0  0  0  0  0  0
  -23.6643  -29.7839   20.1559 C   0  0  0  0  0  0
  -25.4122  -36.3040   24.0332 C   0  0  1  0  0  0
  -20.5907  -28.3709   23.1260 C   0  0  2  0  0  0
  -20.6790  -26.9420   22.5415 C   0  0  0  0  0  0
  -19.5769  -26.6383   21.5216 C   0  0  0  0  0  0
  -18.1946  -26.7926   22.1622 C   0  0  0  0  0  0
  -19.1552  -28.8862   23.2866 C   0  0  0  0  0  0
  -18.9462  -30.1458   23.8897 C   0  0  0  0  0  0
  -17.6459  -30.6584   24.0553 C   0  0  0  0  0  0
  -25.9070  -34.9413   23.5084 C   0  0  0  0  0  0
  -16.5352  -29.9081   23.6323 C   0  0  0  0  0  0
  -16.7285  -28.6492   23.0357 C   0  0  0  0  0  0
  -26.4519  -31.6537   25.0674 C   0  0  0  0  0  0
  -25.3714  -31.3657   26.1370 C   0  0  0  0  0  0
  -27.0368  -30.2954   24.6156 C   0  0  0  0  0  0
  -27.6084  -32.4258   25.7452 C   0  0  0  0  0  0
  -27.5593  -37.1784   24.8455 C   0  0  0  0  0  0
  -21.4241  -29.3039   22.3640 N   0  0  0  0  0  0
  -26.4289  -37.3754   23.9416 N   0  0  0  0  0  0
  -24.7104  -31.0341   22.0894 N   0  0  0  0  0  0
  -23.4202  -28.8125   23.3053 O   0  0  0  0  0  0
  -28.3381  -26.2599   20.1822 O   0  0  0  0  0  0
  -26.5661  -34.8903   22.4668 O   0  0  0  0  0  0
  -23.5531  -32.1326   23.7123 O   0  0  0  0  0  0
  -29.6205  -24.1214   20.6514 C   0  0  0  0  0  0
  -28.6638  -21.7914   20.4509 C   0  0  0  0  0  0
  -29.7487  -22.6761   20.7470 C   0  0  0  0  0  0
  -27.4783  -22.5643   20.1176 C   0  0  0  0  0  0
  -28.4115  -24.7962   20.2961 C   0  0  0  0  0  0
  -28.6874  -20.1984   20.7550 C   0  0  0  0  0  0
  -25.2577  -21.8167   21.0946 C   0  0  0  0  0  0
  -29.7220  -17.8786   17.8222 C   0  0  0  0  0  0
  -31.8290  -22.8545   21.9303 C   0  0  0  0  0  0
  -26.1475  -21.8754   19.8452 C   0  0  0  0  0  0
  -30.0099  -17.5672   20.9188 C   0  0  0  0  0  0
  -29.6003  -18.9702   20.0733 C   0  0  1  0  0  0
  -27.3658  -23.9555   20.0366 N   0  0  0  0  0  0
  -29.7183  -16.0553   20.5751 N   0  0  0  0  0  0
  -28.9286  -18.6623   18.7919 N   0  3  0  0  0  0
  -27.8508  -19.8068   21.5702 O   0  0  0  0  0  0
  -30.9142  -22.0728   21.1700 O   0  0  0  0  0  0
  -31.4754  -12.7373   19.1708 H   0  0  0  0  0  0
  -30.4398  -11.6123   20.0081 H   0  0  0  0  0  0
  -29.8281  -11.7334   17.5655 H   0  0  0  0  0  0
  -29.6063  -13.4596   17.6894 H   0  0  0  0  0  0
  -27.9496  -11.2713   18.9717 H   0  0  0  0  0  0
  -27.3782  -12.4489   17.8188 H   0  0  0  0  0  0
  -27.6025  -14.2430   19.4208 H   0  0  0  0  0  0
  -28.7608  -12.2532   21.4374 H   0  0  0  0  0  0
  -28.3832  -13.9251   21.7696 H   0  0  0  0  0  0
  -25.2719   -9.5684   22.4766 H   0  0  0  0  0  0
  -23.9965   -7.4642   22.7491 H   0  0  0  0  0  0
  -21.0811   -8.8733   19.8957 H   0  0  0  0  0  0
  -22.3649  -10.9639   19.6126 H   0  0  0  0  0  0
  -21.2040   -7.6150   23.9700 H   0  0  0  0  0  0
  -21.1466   -6.0515   25.9065 H   0  0  0  0  0  0
  -22.0606   -2.7588   23.2830 H   0  0  0  0  0  0
  -22.3993  -11.9827   22.4803 H   0  0  0  0  0  0
  -21.1043  -13.1225   22.2629 H   0  0  0  0  0  0
  -24.6473  -15.8404   20.5205 H   0  0  0  0  0  0
  -26.2592  -15.6242   20.0621 H   0  0  0  0  0  0
  -26.7243  -32.5333   23.0995 H   0  0  0  0  0  0
  -25.0049  -33.9614   25.0339 H   0  0  0  0  0  0
  -22.7426  -31.2878   21.3802 H   0  0  0  0  0  0
  -23.3782  -35.9570   23.3242 H   0  0  0  0  0  0
  -24.3609  -36.8933   22.2060 H   0  0  0  0  0  0
  -23.7222  -37.6430   23.6695 H   0  0  0  0  0  0
  -26.1243  -31.4752   20.5923 H   0  0  0  0  0  0
  -26.8698  -30.7963   22.0044 H   0  0  0  0  0  0
  -28.1245  -28.8338   21.2284 H   0  0  0  0  0  0
  -25.9609  -25.8445   18.9984 H   0  0  0  0  0  0
  -23.9880  -27.2816   18.9869 H   0  0  0  0  0  0
  -23.7917  -30.5521   19.3924 H   0  0  0  0  0  0
  -22.7805  -29.2177   19.8574 H   0  0  0  0  0  0
  -25.1303  -36.1877   25.0826 H   0  0  0  0  0  0
  -20.9999  -28.3285   24.1378 H   0  0  0  0  0  0
  -20.5670  -26.2320   23.3620 H   0  0  0  0  0  0
  -21.6659  -26.7427   22.1213 H   0  0  0  0  0  0
  -19.6926  -25.6292   21.1244 H   0  0  0  0  0  0
  -19.6701  -27.3194   20.6742 H   0  0  0  0  0  0
  -17.4220  -26.6674   21.4020 H   0  0  0  0  0  0
  -18.0343  -26.0063   22.9014 H   0  0  0  0  0  0
  -19.7932  -30.7273   24.2277 H   0  0  0  0  0  0
  -17.5005  -31.6264   24.5155 H   0  0  0  0  0  0
  -15.5350  -30.2973   23.7641 H   0  0  0  0  0  0
  -15.8689  -28.0796   22.7086 H   0  0  0  0  0  0
  -24.5953  -30.6954   25.7656 H   0  0  0  0  0  0
  -24.8828  -32.2799   26.4748 H   0  0  0  0  0  0
  -25.8017  -30.8855   27.0172 H   0  0  0  0  0  0
  -26.2945  -29.6675   24.1212 H   0  0  0  0  0  0
  -27.4098  -29.7230   25.4659 H   0  0  0  0  0  0
  -27.8808  -30.4225   23.9371 H   0  0  0  0  0  0
  -27.2746  -33.3605   26.1958 H   0  0  0  0  0  0
  -28.3938  -32.6708   25.0294 H   0  0  0  0  0  0
  -28.0699  -31.8394   26.5405 H   0  0  0  0  0  0
  -28.2553  -38.0136   24.7572 H   0  0  0  0  0  0
  -28.1151  -36.2669   24.6204 H   0  0  0  0  0  0
  -27.2322  -37.1332   25.8857 H   0  0  0  0  0  0
  -20.9464  -29.8723   21.6792 H   0  0  0  0  0  0
  -26.0159  -38.2828   24.1412 H   0  0  0  0  0  0
  -30.4658  -24.7559   20.8683 H   0  0  0  0  0  0
  -24.2862  -21.3833   20.8583 H   0  0  0  0  0  0
  -25.0881  -22.8129   21.5037 H   0  0  0  0  0  0
  -25.7123  -21.2090   21.8756 H   0  0  0  0  0  0
  -29.2934  -17.9737   16.8239 H   0  0  0  0  0  0
  -29.7214  -16.8189   18.0708 H   0  0  0  0  0  0
  -30.7572  -18.2208   17.7769 H   0  0  0  0  0  0
  -32.5705  -22.1982   22.3863 H   0  0  0  0  0  0
  -31.3283  -23.3887   22.7400 H   0  0  0  0  0  0
  -32.3632  -23.5718   21.3067 H   0  0  0  0  0  0
  -26.3043  -20.8806   19.4330 H   0  0  0  0  0  0
  -25.6222  -22.4274   19.0654 H   0  0  0  0  0  0
  -29.6161  -17.6989   21.9275 H   0  0  0  0  0  0
  -31.0889  -17.6225   21.0679 H   0  0  0  0  0  0
  -30.5489  -19.4377   19.8081 H   0  0  0  0  0  0
  -28.7437  -15.8117   20.6679 H   0  0  0  0  0  0
  -28.0509  -18.2058   18.9739 H   0  0  0  0  0  0
  -28.7198  -19.5485   18.3617 H   0  0  0  0  0  0
  1 25  1  0  0  0
  1 30  2  0  0  0
  1 84  1  0  0  0
  2  3  1  0  0  0
  2 25  1  0  0  0
  2 88  1  0  0  0
  2 89  1  0  0  0
  3  4  1  0  0  0
  3 90  1  0  0  0
  3 91  1  0  0  0
  4  5  1  0  0  0
  4 92  1  0  0  0
  4 93  1  0  0  0
  5  6  1  0  0  0
  5 26  1  0  0  0
  5 94  1  0  0  0
  6 25  1  0  0  0
  6 95  1  0  0  0
  6 96  1  0  0  0
  7  8  2  0  0  0
  7 26  1  0  0  0
  7 29  1  0  0  0
  8  9  1  0  0  0
  8 22  1  0  0  0
  9 10  1  0  0  0
  9 27  2  0  0  0
 10 11  2  0  0  0
 10 15  1  0  0  0
 11 12  1  0  0  0
 11 97  1  0  0  0
 12 13  2  0  0  0
 12 98  1  0  0  0
 13 14  1  0  0  0
 13 31  1  0  0  0
 14 15  2  0  0  0
 14 99  1  0  0  0
 15100  1  0  0  0
 16 17  2  0  0  0
 16 21  1  0  0  0
 16 31  1  0  0  0
 17 18  1  0  0  0
 17101  1  0  0  0
 18 19  2  0  0  0
 18102  1  0  0  0
 19 20  1  0  0  0
 19 24  1  0  0  0
 20 21  2  0  0  0
 20103  1  0  0  0
 21 23  1  0  0  0
 22 28  1  0  0  0
 22 32  2  0  0  0
 26 27  1  0  0  0
 28104  1  0  0  0
 28105  1  0  0  0
 29106  1  0  0  0
 29107  1  0  0  0
 33 34  1  0  0  0
 33 66  1  0  0  0
 33 70  2  0  0  0
 34 36  1  0  0  0
 34 59  1  0  0  0
 34108  1  0  0  0
 35 44  2  0  0  0
 35 45  1  0  0  0
 35 68  1  0  0  0
 36 56  1  0  0  0
 36109  1  0  0  0
 37 39  1  0  0  0
 37 47  1  0  0  0
 37 66  1  0  0  0
 37110  1  0  0  0
 38 43  2  0  0  0
 38 46  1  0  0  0
 38 47  1  0  0  0
 39 64  1  0  0  0
 39 67  2  0  0  0
 40 52  1  0  0  0
 40 53  2  0  0  0
 40 58  1  0  0  0
 41111  1  0  0  0
 41112  1  0  0  0
 41113  1  0  0  0
 41 48  1  0  0  0
 42 43  1  0  0  0
 42 66  1  0  0  0
 42114  1  0  0  0
 42115  1  0  0  0
 43 44  1  0  0  0
 44116  1  0  0  0
 45 46  2  0  0  0
 45117  1  0  0  0
 46118  1  0  0  0
 47119  1  0  0  0
 47120  1  0  0  0
 48 56  1  0  0  0
 48 65  1  0  0  0
 48121  1  0  0  0
 49 50  1  0  0  0
 49 53  1  0  0  0
 49 64  1  0  0  0
 49122  1  0  0  0
 50 51  1  0  0  0
 50123  1  0  0  0
 50124  1  0  0  0
 51 52  1  0  0  0
 51125  1  0  0  0
 51126  1  0  0  0
 52127  1  0  0  0
 52128  1  0  0  0
 53 54  1  0  0  0
 54 55  2  0  0  0
 54129  1  0  0  0
 55 57  1  0  0  0
 55130  1  0  0  0
 56 69  2  0  0  0
 57 58  2  0  0  0
 57131  1  0  0  0
 58132  1  0  0  0
 59 60  1  0  0  0
 59 61  1  0  0  0
 59 62  1  0  0  0
 60133  1  0  0  0
 60134  1  0  0  0
 60135  1  0  0  0
 61136  1  0  0  0
 61137  1  0  0  0
 61138  1  0  0  0
 62139  1  0  0  0
 62140  1  0  0  0
 62141  1  0  0  0
 63 65  1  0  0  0
 63142  1  0  0  0
 63143  1  0  0  0
 63144  1  0  0  0
 64145  1  0  0  0
 65146  1  0  0  0
 68 75  1  0  0  0
 71 73  2  0  0  0
 71 75  1  0  0  0
 71147  1  0  0  0
 72 73  1  0  0  0
 72 74  2  0  0  0
 72 76  1  0  0  0
 73 87  1  0  0  0
 74 80  1  0  0  0
 74 83  1  0  0  0
 75 83  2  0  0  0
 76 82  1  0  0  0
 76 86  2  0  0  0
 77 80  1  0  0  0
 77148  1  0  0  0
 77149  1  0  0  0
 77150  1  0  0  0
 78 85  1  0  0  0
 78151  1  0  0  0
 78152  1  0  0  0
 78153  1  0  0  0
 79 87  1  0  0  0
 79154  1  0  0  0
 79155  1  0  0  0
 79156  1  0  0  0
 80157  1  0  0  0
 80158  1  0  0  0
 81 84  1  0  0  0
 81159  1  0  0  0
 81160  1  0  0  0
 81 82  1  0  0  0
 82 85  1  0  0  0
 82161  1  0  0  0
 84162  1  0  0  0
 85163  1  0  0  0
 85164  1  0  0  0
M  CHG  1  85   1
M  ISO  4   1 100  68 101  75 101  84 100
M  END
> <chiral flag>
0

> <version>
0

> <s_m_source_file>
/data/baiqing/PycharmProjects/Reinvent-master-3.2/result/LINK_invent/BTK/process_docking_weight1_custom_sum_contain_oxygen_bond_distance_aromatic_linkinvent_7_9_3/rearranged_h_0112.sdf

> <i_m_source_file_index>
65

> <r_mmod_Potential_Energy-OPLS-2005>
59.3901214599609

> <r_mmod_Stretch_Energy-OPLS-2005>
220.591873168945

> <r_mmod_Bend_Energy-OPLS-2005>
272.989196777344

> <r_mmod_Torsional_Energy-OPLS-2005>
284.770690917969

> <r_mmod_Improper_Torsional_Energy-OPLS-2005>
7.31452417373657

> <r_mmod_Van_der_Waal_Energy-OPLS-2005>
131.379364013672

> <r_mmod_Electrostatic_Energy-OPLS-2005>
-519.800903320312

> <r_mmod_Solvation_Energy-OPLS-2005>
-498.80908203125

> <b_mmod_Minimization_Converged-OPLS-2005>
0

> <r_mmod_RMS_Derivative-OPLS-2005>
2.65391111373901

$$$$
65
                    3D
 Structure written by MMmdl.
173182  0  0  1  0            999 V2000
  -30.5047  -15.0213   20.4345 C   0  0  0  0  0  0
  -30.4403  -12.6497   19.4875 C   0  0  0  0  0  0
  -29.5202  -12.5427   18.2494 C   0  0  0  0  0  0
  -28.0574  -12.3082   18.6736 C   0  0  0  0  0  0
  -27.6198  -13.2484   19.8265 C   0  0  2  0  0  0
  -28.6630  -13.3077   20.9597 C   0  0  0  0  0  0
  -25.2436  -13.8200   20.5714 C   0  0  0  0  0  0
  -24.1769  -13.0428   20.9245 C   0  0  0  0  0  0
  -24.6377  -11.6912   20.8758 C   0  0  0  0  0  0
  -23.9060  -10.4287   21.0408 C   0  0  0  0  0  0
  -24.3616   -9.4200   21.9180 C   0  0  0  0  0  0
  -23.6292   -8.2241   22.0755 C   0  0  0  0  0  0
  -22.4274   -8.0280   21.3548 C   0  0  0  0  0  0
  -21.9912   -9.0251   20.4649 C   0  0  0  0  0  0
  -22.7235  -10.2126   20.3051 C   0  0  0  0  0  0
  -21.6854   -6.0729   22.5274 C   0  0  0  0  0  0
  -21.4020   -6.5635   23.8209 C   0  0  0  0  0  0
  -21.3660   -5.6788   24.9171 C   0  0  0  0  0  0
  -21.6044   -4.3053   24.7222 C   0  0  0  0  0  0
  -21.8823   -3.8140   23.4346 C   0  0  0  0  0  0
  -21.9195   -4.6959   22.3400 C   0  0  0  0  0  0
  -22.7786  -13.5197   21.1894 C   0  0  0  0  0  0
  -22.1663   -4.2143   21.0977 F   0  0  0  0  0  0
  -21.5632   -3.4531   25.7734 F   0  0  0  0  0  0
  -29.9177  -13.7556   20.3444 N   0  0  0  0  0  0
  -26.2834  -12.9423   20.3189 N   0  0  0  0  0  0
  -25.9304  -11.6553   20.5707 N   0  0  0  0  0  0
  -22.0432  -12.8189   22.0440 N   0  0  0  0  0  0
  -25.4087  -15.1938   20.4126 N   0  0  0  0  0  0
  -31.7275  -15.0683   20.2683 O   0  0  0  0  0  0
  -21.6644   -6.8877   21.4240 O   0  0  0  0  0  0
  -22.3483  -14.5507   20.6735 O   0  0  0  0  0  0
  -24.6503  -31.8381   23.1829 C   0  0  0  0  0  0
  -25.9252  -32.4662   23.8238 C   0  0  1  0  0  0
  -27.2156  -27.0546   20.1822 C   0  0  0  0  0  0
  -25.5982  -33.8466   24.2161 N   0  0  0  0  0  0
  -23.4565  -30.4550   21.5321 C   0  0  2  0  0  0
  -24.9031  -28.8577   20.1313 C   0  0  0  0  0  0
  -22.7590  -29.4525   22.4874 C   0  0  0  0  0  0
  -18.0301  -28.1398   22.8470 C   0  0  0  0  0  0
  -24.1486  -36.7231   23.2648 C   0  0  0  0  0  0
  -26.0182  -30.6869   21.3922 C   0  0  0  0  0  0
  -26.0855  -29.2853   20.7475 C   0  0  0  0  0  0
  -27.2413  -28.4065   20.7423 C   0  0  0  0  0  0
  -25.9976  -26.7421   19.5424 C   0  0  0  0  0  0
  -24.8744  -27.5986   19.5159 C   0  0  0  0  0  0
  -23.6884  -29.7745   20.1574 C   0  0  0  0  0  0
  -25.4121  -36.3006   24.0314 C   0  0  1  0  0  0
  -20.5922  -28.3726   23.1217 C   0  0  2  0  0  0
  -20.6786  -26.9423   22.5396 C   0  0  0  0  0  0
  -19.5758  -26.6377   21.5202 C   0  0  0  0  0  0
  -18.1938  -26.7942   22.1613 C   0  0  0  0  0  0
  -19.1566  -28.8880   23.2829 C   0  0  0  0  0  0
  -18.9478  -30.1476   23.8861 C   0  0  0  0  0  0
  -17.6468  -30.6596   24.0547 C   0  0  0  0  0  0
  -25.9078  -34.9388   23.5037 C   0  0  0  0  0  0
  -16.5358  -29.9083   23.6339 C   0  0  0  0  0  0
  -16.7284  -28.6501   23.0364 C   0  0  0  0  0  0
  -26.4546  -31.6557   25.0711 C   0  0  0  0  0  0
  -25.3712  -31.3748   26.1397 C   0  0  0  0  0  0
  -27.0438  -30.2952   24.6330 C   0  0  0  0  0  0
  -27.6066  -32.4349   25.7498 C   0  0  0  0  0  0
  -27.5563  -37.1763   24.8469 C   0  0  0  0  0  0
  -21.4282  -29.3045   22.3598 N   0  0  0  0  0  0
  -26.4276  -37.3730   23.9409 N   0  0  0  0  0  0
  -24.7291  -31.0172   22.0905 N   0  0  0  0  0  0
  -23.4201  -28.8075   23.3049 O   0  0  0  0  0  0
  -28.3340  -26.1295   20.0626 O   0  0  0  0  0  0
  -26.5658  -34.8899   22.4613 O   0  0  0  0  0  0
  -23.5611  -32.1290   23.7019 O   0  0  0  0  0  0
  -29.5388  -21.1452   19.0567 C   0  0  0  0  0  0
  -28.8390  -20.3811   20.9635 C   0  0  0  0  0  0
  -29.8985  -19.8000   19.1421 C   0  0  0  0  0  0
  -29.5105  -19.2358   20.4059 C   0  0  0  0  0  0
  -25.9754  -22.0701   19.1399 C   0  0  0  0  0  0
  -25.8012  -21.9474   20.6574 C   0  0  0  0  0  0
  -27.1426  -23.0453   18.9269 C   0  0  0  0  0  0
  -26.8692  -22.8643   21.2671 C   0  0  0  0  0  0
  -27.9867  -23.0240   20.2164 C   0  0  0  0  0  0
  -32.1297  -19.4436   18.0510 C   0  0  0  0  0  0
  -29.9920  -19.1898   16.6971 C   0  0  0  0  0  0
  -28.6290  -24.6056   20.4663 C   0  0  0  0  0  0
  -29.8976  -17.7183   22.5344 C   0  0  0  0  0  0
  -30.6518  -19.0374   18.0749 C   0  0  0  0  0  0
  -30.0133  -17.7205   20.9970 C   0  0  1  0  0  0
  -28.7923  -21.5990   20.1448 N   0  0  0  0  0  0
  -29.7141  -16.2216   20.5197 N   0  0  0  0  0  0
  -28.5057  -17.5563   22.9886 N   0  3  0  0  0  0
  -31.4683  -12.8362   19.1720 H   0  0  0  0  0  0
  -30.4612  -11.7077   20.0397 H   0  0  0  0  0  0
  -29.8557  -11.7406   17.5906 H   0  0  0  0  0  0
  -29.5869  -13.4630   17.6682 H   0  0  0  0  0  0
  -27.9708  -11.2694   18.9934 H   0  0  0  0  0  0
  -27.3919  -12.4200   17.8168 H   0  0  0  0  0  0
  -27.5717  -14.2419   19.3819 H   0  0  0  0  0  0
  -28.7781  -12.3358   21.4438 H   0  0  0  0  0  0
  -28.3485  -14.0058   21.7372 H   0  0  0  0  0  0
  -25.2764   -9.5677   22.4749 H   0  0  0  0  0  0
  -24.0000   -7.4630   22.7471 H   0  0  0  0  0  0
  -21.0849   -8.8762   19.8947 H   0  0  0  0  0  0
  -22.3693  -10.9665   19.6159 H   0  0  0  0  0  0
  -21.2009   -7.6140   23.9709 H   0  0  0  0  0  0
  -21.1482   -6.0518   25.9075 H   0  0  0  0  0  0
  -22.0601   -2.7600   23.2845 H   0  0  0  0  0  0
  -22.4064  -11.9858   22.4826 H   0  0  0  0  0  0
  -21.1044  -13.1213   22.2631 H   0  0  0  0  0  0
  -24.6179  -15.8242   20.4860 H   0  0  0  0  0  0
  -26.2042  -15.6184   19.9561 H   0  0  0  0  0  0
  -26.7318  -32.5245   23.0969 H   0  0  0  0  0  0
  -25.0163  -33.9574   25.0328 H   0  0  0  0  0  0
  -22.7628  -31.2827   21.3694 H   0  0  0  0  0  0
  -23.3758  -35.9550   23.3307 H   0  0  0  0  0  0
  -24.3570  -36.8875   22.2064 H   0  0  0  0  0  0
  -23.7236  -37.6414   23.6701 H   0  0  0  0  0  0
  -26.1768  -31.4306   20.6105 H   0  0  0  0  0  0
  -26.8886  -30.7459   22.0343 H   0  0  0  0  0  0
  -28.1580  -28.7492   21.2040 H   0  0  0  0  0  0
  -25.8819  -25.8079   19.0296 H   0  0  0  0  0  0
  -23.9746  -27.2647   19.0171 H   0  0  0  0  0  0
  -23.8363  -30.5429   19.3978 H   0  0  0  0  0  0
  -22.8002  -29.2227   19.8439 H   0  0  0  0  0  0
  -25.1304  -36.1822   25.0805 H   0  0  0  0  0  0
  -20.9978  -28.3322   24.1348 H   0  0  0  0  0  0
  -20.5682  -26.2329   23.3615 H   0  0  0  0  0  0
  -21.6656  -26.7434   22.1189 H   0  0  0  0  0  0
  -19.6931  -25.6275   21.1263 H   0  0  0  0  0  0
  -19.6719  -27.3169   20.6721 H   0  0  0  0  0  0
  -17.4205  -26.6678   21.4016 H   0  0  0  0  0  0
  -18.0340  -26.0091   22.9020 H   0  0  0  0  0  0
  -19.7954  -30.7291   24.2227 H   0  0  0  0  0  0
  -17.5030  -31.6286   24.5147 H   0  0  0  0  0  0
  -15.5362  -30.2966   23.7710 H   0  0  0  0  0  0
  -15.8680  -28.0807   22.7109 H   0  0  0  0  0  0
  -24.5916  -30.7077   25.7710 H   0  0  0  0  0  0
  -24.8870  -32.2923   26.4750 H   0  0  0  0  0  0
  -25.7985  -30.8972   27.0223 H   0  0  0  0  0  0
  -26.3080  -29.6639   24.1340 H   0  0  0  0  0  0
  -27.4051  -29.7291   25.4922 H   0  0  0  0  0  0
  -27.8979  -30.4195   23.9672 H   0  0  0  0  0  0
  -27.2666  -33.3697   26.1969 H   0  0  0  0  0  0
  -28.3922  -32.6839   25.0351 H   0  0  0  0  0  0
  -28.0681  -31.8542   26.5493 H   0  0  0  0  0  0
  -28.2563  -38.0072   24.7508 H   0  0  0  0  0  0
  -28.1072  -36.2594   24.6307 H   0  0  0  0  0  0
  -27.2275  -37.1421   25.8870 H   0  0  0  0  0  0
  -20.9515  -29.8757   21.6758 H   0  0  0  0  0  0
  -26.0133  -38.2786   24.1435 H   0  0  0  0  0  0
  -29.7147  -21.8247   18.2343 H   0  0  0  0  0  0
  -28.3573  -20.4456   21.9295 H   0  0  0  0  0  0
  -25.0661  -22.4206   18.6497 H   0  0  0  0  0  0
  -26.2228  -21.0941   18.7206 H   0  0  0  0  0  0
  -25.9589  -20.9136   20.9696 H   0  0  0  0  0  0
  -24.8007  -22.2342   20.9836 H   0  0  0  0  0  0
  -26.7485  -24.0361   18.7602 H   0  0  0  0  0  0
  -27.7097  -22.8137   18.0267 H   0  0  0  0  0  0
  -27.2428  -22.4989   22.2247 H   0  0  0  0  0  0
  -26.4132  -23.8360   21.4675 H   0  0  0  0  0  0
  -32.5957  -19.2823   19.0242 H   0  0  0  0  0  0
  -32.2500  -20.4968   17.7958 H   0  0  0  0  0  0
  -32.6874  -18.8569   17.3198 H   0  0  0  0  0  0
  -28.9544  -18.8526   16.7238 H   0  0  0  0  0  0
  -30.5098  -18.5917   15.9461 H   0  0  0  0  0  0
  -29.9974  -20.2262   16.3569 H   0  0  0  0  0  0
  -29.6253  -24.4993   20.0374 H   0  0  0  0  0  0
  -28.8311  -24.6657   21.5357 H   0  0  0  0  0  0
  -30.3084  -18.6426   22.9429 H   0  0  0  0  0  0
  -30.4949  -16.9096   22.9576 H   0  0  0  0  0  0
  -30.6063  -17.9780   18.3294 H   0  0  0  0  0  0
  -31.0868  -17.7882   20.8128 H   0  0  0  0  0  0
  -28.7333  -16.0392   20.3810 H   0  0  0  0  0  0
  -27.9163  -18.2618   22.5858 H   0  0  0  0  0  0
  -28.4679  -17.6385   23.9888 H   0  0  0  0  0  0
  -28.1465  -16.6538   22.7371 H   0  0  0  0  0  0
  1 25  1  0  0  0
  1 30  2  0  0  0
  1 87  1  0  0  0
  2  3  1  0  0  0
  2 25  1  0  0  0
  2 89  1  0  0  0
  2 90  1  0  0  0
  3  4  1  0  0  0
  3 91  1  0  0  0
  3 92  1  0  0  0
  4  5  1  0  0  0
  4 93  1  0  0  0
  4 94  1  0  0  0
  5  6  1  0  0  0
  5 26  1  0  0  0
  5 95  1  0  0  0
  6 25  1  0  0  0
  6 96  1  0  0  0
  6 97  1  0  0  0
  7  8  2  0  0  0
  7 26  1  0  0  0
  7 29  1  0  0  0
  8  9  1  0  0  0
  8 22  1  0  0  0
  9 10  1  0  0  0
  9 27  2  0  0  0
 10 11  2  0  0  0
 10 15  1  0  0  0
 11 12  1  0  0  0
 11 98  1  0  0  0
 12 13  2  0  0  0
 12 99  1  0  0  0
 13 14  1  0  0  0
 13 31  1  0  0  0
 14 15  2  0  0  0
 14100  1  0  0  0
 15101  1  0  0  0
 16 17  2  0  0  0
 16 21  1  0  0  0
 16 31  1  0  0  0
 17 18  1  0  0  0
 17102  1  0  0  0
 18 19  2  0  0  0
 18103  1  0  0  0
 19 20  1  0  0  0
 19 24  1  0  0  0
 20 21  2  0  0  0
 20104  1  0  0  0
 21 23  1  0  0  0
 22 28  1  0  0  0
 22 32  2  0  0  0
 26 27  1  0  0  0
 28105  1  0  0  0
 28106  1  0  0  0
 29107  1  0  0  0
 29108  1  0  0  0
 33 34  1  0  0  0
 33 66  1  0  0  0
 33 70  2  0  0  0
 34 36  1  0  0  0
 34 59  1  0  0  0
 34109  1  0  0  0
 35 44  2  0  0  0
 35 45  1  0  0  0
 35 68  1  0  0  0
 36 56  1  0  0  0
 36110  1  0  0  0
 37 39  1  0  0  0
 37 47  1  0  0  0
 37 66  1  0  0  0
 37111  1  0  0  0
 38 43  2  0  0  0
 38 46  1  0  0  0
 38 47  1  0  0  0
 39 64  1  0  0  0
 39 67  2  0  0  0
 40 52  1  0  0  0
 40 53  2  0  0  0
 40 58  1  0  0  0
 41112  1  0  0  0
 41113  1  0  0  0
 41114  1  0  0  0
 41 48  1  0  0  0
 42 43  1  0  0  0
 42 66  1  0  0  0
 42115  1  0  0  0
 42116  1  0  0  0
 43 44  1  0  0  0
 44117  1  0  0  0
 45 46  2  0  0  0
 45118  1  0  0  0
 46119  1  0  0  0
 47120  1  0  0  0
 47121  1  0  0  0
 48 56  1  0  0  0
 48 65  1  0  0  0
 48122  1  0  0  0
 49 50  1  0  0  0
 49 53  1  0  0  0
 49 64  1  0  0  0
 49123  1  0  0  0
 50 51  1  0  0  0
 50124  1  0  0  0
 50125  1  0  0  0
 51 52  1  0  0  0
 51126  1  0  0  0
 51127  1  0  0  0
 52128  1  0  0  0
 52129  1  0  0  0
 53 54  1  0  0  0
 54 55  2  0  0  0
 54130  1  0  0  0
 55 57  1  0  0  0
 55131  1  0  0  0
 56 69  2  0  0  0
 57 58  2  0  0  0
 57132  1  0  0  0
 58133  1  0  0  0
 59 60  1  0  0  0
 59 61  1  0  0  0
 59 62  1  0  0  0
 60134  1  0  0  0
 60135  1  0  0  0
 60136  1  0  0  0
 61137  1  0  0  0
 61138  1  0  0  0
 61139  1  0  0  0
 62140  1  0  0  0
 62141  1  0  0  0
 62142  1  0  0  0
 63 65  1  0  0  0
 63143  1  0  0  0
 63144  1  0  0  0
 63145  1  0  0  0
 64146  1  0  0  0
 65147  1  0  0  0
 68 82  1  0  0  0
 71 73  2  0  0  0
 71 86  1  0  0  0
 71148  1  0  0  0
 72 74  2  0  0  0
 72 86  1  0  0  0
 72149  1  0  0  0
 73 74  1  0  0  0
 73 84  1  0  0  0
 74 85  1  0  0  0
 75 76  1  0  0  0
 75 77  1  0  0  0
 75150  1  0  0  0
 75151  1  0  0  0
 76 78  1  0  0  0
 76152  1  0  0  0
 76153  1  0  0  0
 77 79  1  0  0  0
 77154  1  0  0  0
 77155  1  0  0  0
 78 79  1  0  0  0
 78156  1  0  0  0
 78157  1  0  0  0
 79 82  1  0  0  0
 79 86  1  0  0  0
 80158  1  0  0  0
 80159  1  0  0  0
 80160  1  0  0  0
 80 84  1  0  0  0
 81 84  1  0  0  0
 81161  1  0  0  0
 81162  1  0  0  0
 81163  1  0  0  0
 82164  1  0  0  0
 82165  1  0  0  0
 83 88  1  0  0  0
 83166  1  0  0  0
 83167  1  0  0  0
 83 85  1  0  0  0
 84168  1  0  0  0
 85 87  1  0  0  0
 85169  1  0  0  0
 87170  1  0  0  0
 88171  1  0  0  0
 88172  1  0  0  0
 88173  1  0  0  0
M  CHG  1  88   1
M  ISO  4   1 100  68 101  82 101  87 100
M  END
> <chiral flag>
0

> <version>
0

> <s_m_source_file>
/data/baiqing/PycharmProjects/Reinvent-master-3.2/result/LINK_invent/BTK/process_docking_weight1_custom_sum_contain_oxygen_bond_distance_aromatic_linkinvent_7_9_3/rearranged_h_0112.sdf

> <i_m_source_file_index>
66

> <r_mmod_Potential_Energy-OPLS-2005>
597.539611816406

> <r_mmod_Stretch_Energy-OPLS-2005>
349.320587158203

> <r_mmod_Bend_Energy-OPLS-2005>
427.385192871094

> <r_mmod_Torsional_Energy-OPLS-2005>
390.636108398438

> <r_mmod_Improper_Torsional_Energy-OPLS-2005>
8.33650493621826

> <r_mmod_Van_der_Waal_Energy-OPLS-2005>
97.7808303833008

> <r_mmod_Electrostatic_Energy-OPLS-2005>
-413.571807861328

> <r_mmod_Solvation_Energy-OPLS-2005>
-505.0419921875

> <b_mmod_Minimization_Converged-OPLS-2005>
0

> <r_mmod_RMS_Derivative-OPLS-2005>
1.80653154850006

$$$$
66
                    3D
 Structure written by MMmdl.
172181  0  0  1  0            999 V2000
  -30.5850  -14.8342   20.4597 C   0  0  0  0  0  0
  -30.4293  -12.5122   19.4878 C   0  0  0  0  0  0
  -29.5105  -12.5330   18.2449 C   0  0  0  0  0  0
  -28.0391  -12.3426   18.6573 C   0  0  0  0  0  0
  -27.6381  -13.2440   19.8529 C   0  0  2  0  0  0
  -28.6820  -13.2041   20.9889 C   0  0  0  0  0  0
  -25.2497  -13.8230   20.5740 C   0  0  0  0  0  0
  -24.1798  -13.0451   20.9218 C   0  0  0  0  0  0
  -24.6406  -11.6939   20.8759 C   0  0  0  0  0  0
  -23.9084  -10.4303   21.0411 C   0  0  0  0  0  0
  -24.3626   -9.4217   21.9195 C   0  0  0  0  0  0
  -23.6292   -8.2256   22.0779 C   0  0  0  0  0  0
  -22.4267   -8.0294   21.3564 C   0  0  0  0  0  0
  -21.9908   -9.0271   20.4655 C   0  0  0  0  0  0
  -22.7255  -10.2145   20.3061 C   0  0  0  0  0  0
  -21.6861   -6.0718   22.5280 C   0  0  0  0  0  0
  -21.4020   -6.5625   23.8206 C   0  0  0  0  0  0
  -21.3661   -5.6792   24.9174 C   0  0  0  0  0  0
  -21.6050   -4.3054   24.7234 C   0  0  0  0  0  0
  -21.8819   -3.8137   23.4351 C   0  0  0  0  0  0
  -21.9187   -4.6944   22.3405 C   0  0  0  0  0  0
  -22.7801  -13.5222   21.1875 C   0  0  0  0  0  0
  -22.1673   -4.2130   21.0992 F   0  0  0  0  0  0
  -21.5612   -3.4549   25.7753 F   0  0  0  0  0  0
  -29.9718  -13.5902   20.4055 N   0  0  0  0  0  0
  -26.2923  -12.9455   20.3301 N   0  0  0  0  0  0
  -25.9336  -11.6585   20.5753 N   0  0  0  0  0  0
  -22.0451  -12.8217   22.0421 N   0  0  0  0  0  0
  -25.4175  -15.1964   20.4223 N   0  0  0  0  0  0
  -31.7470  -14.9271   20.0511 O   0  0  0  0  0  0
  -21.6637   -6.8881   21.4248 O   0  0  0  0  0  0
  -22.3486  -14.5518   20.6695 O   0  0  0  0  0  0
  -24.6415  -31.8492   23.1931 C   0  0  0  0  0  0
  -25.9211  -32.4720   23.8300 C   0  0  1  0  0  0
  -27.2055  -27.1727   20.1321 C   0  0  0  0  0  0
  -25.5968  -33.8526   24.2206 N   0  0  0  0  0  0
  -23.4399  -30.4729   21.5399 C   0  0  2  0  0  0
  -24.8847  -28.9109   20.1107 C   0  0  0  0  0  0
  -22.7557  -29.4578   22.4881 C   0  0  0  0  0  0
  -18.0314  -28.1395   22.8467 C   0  0  0  0  0  0
  -24.1491  -36.7267   23.2637 C   0  0  0  0  0  0
  -25.9960  -30.7337   21.3861 C   0  0  0  0  0  0
  -26.0646  -29.3497   20.7252 C   0  0  0  0  0  0
  -27.2282  -28.4968   20.7206 C   0  0  0  0  0  0
  -25.9936  -26.8298   19.4874 C   0  0  0  0  0  0
  -24.8594  -27.6611   19.4804 C   0  0  0  0  0  0
  -23.6623  -29.8108   20.1560 C   0  0  0  0  0  0
  -25.4123  -36.3042   24.0307 C   0  0  1  0  0  0
  -20.5924  -28.3723   23.1241 C   0  0  2  0  0  0
  -20.6803  -26.9429   22.5408 C   0  0  0  0  0  0
  -19.5774  -26.6389   21.5217 C   0  0  0  0  0  0
  -18.1953  -26.7937   22.1624 C   0  0  0  0  0  0
  -19.1564  -28.8880   23.2845 C   0  0  0  0  0  0
  -18.9486  -30.1479   23.8867 C   0  0  0  0  0  0
  -17.6483  -30.6591   24.0566 C   0  0  0  0  0  0
  -25.9077  -34.9420   23.5058 C   0  0  0  0  0  0
  -16.5379  -29.9086   23.6335 C   0  0  0  0  0  0
  -16.7303  -28.6514   23.0337 C   0  0  0  0  0  0
  -26.4531  -31.6575   25.0734 C   0  0  0  0  0  0
  -25.3714  -31.3762   26.1421 C   0  0  0  0  0  0
  -27.0405  -30.2978   24.6293 C   0  0  0  0  0  0
  -27.6044  -32.4337   25.7543 C   0  0  0  0  0  0
  -27.5572  -37.1794   24.8460 C   0  0  0  0  0  0
  -21.4261  -29.3063   22.3623 N   0  0  0  0  0  0
  -26.4282  -37.3759   23.9409 N   0  0  0  0  0  0
  -24.7122  -31.0374   22.0949 N   0  0  0  0  0  0
  -23.4221  -28.8115   23.3007 O   0  0  0  0  0  0
  -28.2585  -26.1959   20.1928 O   0  0  0  0  0  0
  -26.5654  -34.8912   22.4635 O   0  0  0  0  0  0
  -23.5537  -32.1358   23.7167 O   0  0  0  0  0  0
  -29.3376  -17.9650   22.1904 C   0  0  0  0  0  0
  -29.0377  -22.6082   21.4526 C   0  0  0  0  0  0
  -28.2317  -22.0813   19.2452 C   0  0  0  0  0  0
  -29.7673  -16.4676   22.1488 C   0  0  0  0  0  0
  -29.6786  -17.3150   19.9592 C   0  0  0  0  0  0
  -29.7842  -21.1878   21.4681 C   0  0  0  0  0  0
  -28.8351  -23.3110   20.0617 C   0  0  1  0  0  0
  -29.8165  -18.6300   20.8935 C   0  0  1  0  0  0
  -28.9443  -20.6269   19.2592 C   0  0  1  0  0  0
  -31.2870  -20.6752   16.0639 C   0  0  0  0  0  0
  -28.9291  -19.8146   16.2340 C   0  0  0  0  0  0
  -27.9211  -24.7086   19.9723 C   0  0  0  0  0  0
  -30.2059  -20.5732   18.3569 C   0  0  0  0  0  0
  -29.9638  -20.7834   16.8375 C   0  0  0  0  0  0
  -29.8395  -15.9994   20.7525 N   0  0  0  0  0  0
  -29.1864  -20.0642   20.6416 N   0  3  2  0  0  0
  -31.4718  -12.6316   19.1862 H   0  0  0  0  0  0
  -30.3751  -11.5412   19.9845 H   0  0  0  0  0  0
  -29.8039  -11.7525   17.5403 H   0  0  0  0  0  0
  -29.6256  -13.4804   17.7156 H   0  0  0  0  0  0
  -27.9047  -11.2936   18.9224 H   0  0  0  0  0  0
  -27.3816  -12.5353   17.8108 H   0  0  0  0  0  0
  -27.6245  -14.2625   19.4654 H   0  0  0  0  0  0
  -28.7390  -12.2087   21.4344 H   0  0  0  0  0  0
  -28.3978  -13.8816   21.7945 H   0  0  0  0  0  0
  -25.2781   -9.5673   22.4768 H   0  0  0  0  0  0
  -23.9986   -7.4640   22.7502 H   0  0  0  0  0  0
  -21.0837   -8.8794   19.8952 H   0  0  0  0  0  0
  -22.3732  -10.9675   19.6163 H   0  0  0  0  0  0
  -21.2040   -7.6143   23.9708 H   0  0  0  0  0  0
  -21.1482   -6.0522   25.9074 H   0  0  0  0  0  0
  -22.0594   -2.7593   23.2862 H   0  0  0  0  0  0
  -22.4077  -11.9862   22.4784 H   0  0  0  0  0  0
  -21.1060  -13.1221   22.2650 H   0  0  0  0  0  0
  -24.6474  -15.8476   20.5344 H   0  0  0  0  0  0
  -26.2755  -15.6417   20.1230 H   0  0  0  0  0  0
  -26.7282  -32.5331   23.1033 H   0  0  0  0  0  0
  -25.0106  -33.9648   25.0343 H   0  0  0  0  0  0
  -22.7394  -31.2983   21.3932 H   0  0  0  0  0  0
  -23.3756  -35.9594   23.3278 H   0  0  0  0  0  0
  -24.3581  -36.8931   22.2058 H   0  0  0  0  0  0
  -23.7249  -37.6452   23.6706 H   0  0  0  0  0  0
  -26.1441  -31.4886   20.6127 H   0  0  0  0  0  0
  -26.8705  -30.7820   22.0232 H   0  0  0  0  0  0
  -28.1275  -28.8260   21.2228 H   0  0  0  0  0  0
  -25.8652  -25.8797   18.9958 H   0  0  0  0  0  0
  -23.9573  -27.3166   18.9948 H   0  0  0  0  0  0
  -23.8013  -30.5907   19.4061 H   0  0  0  0  0  0
  -22.7754  -29.2577   19.8420 H   0  0  0  0  0  0
  -25.1303  -36.1859   25.0794 H   0  0  0  0  0  0
  -21.0007  -28.3328   24.1370 H   0  0  0  0  0  0
  -20.5711  -26.2340   23.3625 H   0  0  0  0  0  0
  -21.6668  -26.7462   22.1203 H   0  0  0  0  0  0
  -19.6942  -25.6296   21.1258 H   0  0  0  0  0  0
  -19.6703  -27.3183   20.6723 H   0  0  0  0  0  0
  -17.4227  -26.6683   21.4025 H   0  0  0  0  0  0
  -18.0355  -26.0091   22.9024 H   0  0  0  0  0  0
  -19.7964  -30.7310   24.2205 H   0  0  0  0  0  0
  -17.5043  -31.6248   24.5196 H   0  0  0  0  0  0
  -15.5373  -30.2982   23.7668 H   0  0  0  0  0  0
  -15.8711  -28.0834   22.7040 H   0  0  0  0  0  0
  -24.5899  -30.7100   25.7753 H   0  0  0  0  0  0
  -24.8896  -32.2949   26.4775 H   0  0  0  0  0  0
  -25.7999  -30.8994   27.0244 H   0  0  0  0  0  0
  -26.3033  -29.6702   24.1271 H   0  0  0  0  0  0
  -27.4007  -29.7264   25.4859 H   0  0  0  0  0  0
  -27.8943  -30.4228   23.9626 H   0  0  0  0  0  0
  -27.2617  -33.3642   26.2079 H   0  0  0  0  0  0
  -28.3907  -32.6887   25.0427 H   0  0  0  0  0  0
  -28.0664  -31.8495   26.5511 H   0  0  0  0  0  0
  -28.2563  -38.0109   24.7515 H   0  0  0  0  0  0
  -28.1088  -36.2641   24.6276 H   0  0  0  0  0  0
  -27.2290  -37.1423   25.8859 H   0  0  0  0  0  0
  -20.9463  -29.8782   21.6808 H   0  0  0  0  0  0
  -26.0134  -38.2817   24.1434 H   0  0  0  0  0  0
  -29.7165  -18.4672   23.0809 H   0  0  0  0  0  0
  -28.2501  -18.0121   22.2408 H   0  0  0  0  0  0
  -29.5842  -23.2896   22.1068 H   0  0  0  0  0  0
  -28.0622  -22.4874   21.9240 H   0  0  0  0  0  0
  -28.0977  -22.3941   18.2110 H   0  0  0  0  0  0
  -27.2102  -21.9357   19.6008 H   0  0  0  0  0  0
  -29.0773  -15.8619   22.7362 H   0  0  0  0  0  0
  -30.7518  -16.3622   22.6075 H   0  0  0  0  0  0
  -30.3980  -17.3471   19.1394 H   0  0  0  0  0  0
  -28.6899  -17.2950   19.4971 H   0  0  0  0  0  0
  -29.8436  -20.8532   22.5035 H   0  0  0  0  0  0
  -30.8192  -21.3291   21.1538 H   0  0  0  0  0  0
  -29.8151  -23.5337   19.6366 H   0  0  0  0  0  0
  -30.8915  -18.8003   20.9849 H   0  0  0  0  0  0
  -28.2259  -19.9262   18.8352 H   0  0  0  0  0  0
  -31.1381  -20.8696   15.0005 H   0  0  0  0  0  0
  -31.7257  -19.6811   16.1590 H   0  0  0  0  0  0
  -32.0157  -21.3993   16.4267 H   0  0  0  0  0  0
  -28.8781  -19.9180   15.1498 H   0  0  0  0  0  0
  -27.9231  -20.0101   16.6054 H   0  0  0  0  0  0
  -29.1730  -18.7740   16.4505 H   0  0  0  0  0  0
  -27.0271  -24.5101   20.5645 H   0  0  0  0  0  0
  -27.5902  -24.6876   18.9344 H   0  0  0  0  0  0
  -30.7053  -19.6138   18.4826 H   0  0  0  0  0  0
  -30.9213  -21.3207   18.7046 H   0  0  0  0  0  0
  -29.5945  -21.7967   16.6785 H   0  0  0  0  0  0
  -28.2515  -19.9593   21.0061 H   0  0  0  0  0  0
  1 25  1  0  0  0
  1 30  2  0  0  0
  1 85  1  0  0  0
  2  3  1  0  0  0
  2 25  1  0  0  0
  2 87  1  0  0  0
  2 88  1  0  0  0
  3  4  1  0  0  0
  3 89  1  0  0  0
  3 90  1  0  0  0
  4  5  1  0  0  0
  4 91  1  0  0  0
  4 92  1  0  0  0
  5  6  1  0  0  0
  5 26  1  0  0  0
  5 93  1  0  0  0
  6 25  1  0  0  0
  6 94  1  0  0  0
  6 95  1  0  0  0
  7  8  2  0  0  0
  7 26  1  0  0  0
  7 29  1  0  0  0
  8  9  1  0  0  0
  8 22  1  0  0  0
  9 10  1  0  0  0
  9 27  2  0  0  0
 10 11  2  0  0  0
 10 15  1  0  0  0
 11 12  1  0  0  0
 11 96  1  0  0  0
 12 13  2  0  0  0
 12 97  1  0  0  0
 13 14  1  0  0  0
 13 31  1  0  0  0
 14 15  2  0  0  0
 14 98  1  0  0  0
 15 99  1  0  0  0
 16 17  2  0  0  0
 16 21  1  0  0  0
 16 31  1  0  0  0
 17 18  1  0  0  0
 17100  1  0  0  0
 18 19  2  0  0  0
 18101  1  0  0  0
 19 20  1  0  0  0
 19 24  1  0  0  0
 20 21  2  0  0  0
 20102  1  0  0  0
 21 23  1  0  0  0
 22 28  1  0  0  0
 22 32  2  0  0  0
 26 27  1  0  0  0
 28103  1  0  0  0
 28104  1  0  0  0
 29105  1  0  0  0
 29106  1  0  0  0
 33 34  1  0  0  0
 33 66  1  0  0  0
 33 70  2  0  0  0
 34 36  1  0  0  0
 34 59  1  0  0  0
 34107  1  0  0  0
 35 44  2  0  0  0
 35 45  1  0  0  0
 35 68  1  0  0  0
 36 56  1  0  0  0
 36108  1  0  0  0
 37 39  1  0  0  0
 37 47  1  0  0  0
 37 66  1  0  0  0
 37109  1  0  0  0
 38 43  2  0  0  0
 38 46  1  0  0  0
 38 47  1  0  0  0
 39 64  1  0  0  0
 39 67  2  0  0  0
 40 52  1  0  0  0
 40 53  2  0  0  0
 40 58  1  0  0  0
 41110  1  0  0  0
 41111  1  0  0  0
 41112  1  0  0  0
 41 48  1  0  0  0
 42 43  1  0  0  0
 42 66  1  0  0  0
 42113  1  0  0  0
 42114  1  0  0  0
 43 44  1  0  0  0
 44115  1  0  0  0
 45 46  2  0  0  0
 45116  1  0  0  0
 46117  1  0  0  0
 47118  1  0  0  0
 47119  1  0  0  0
 48 56  1  0  0  0
 48 65  1  0  0  0
 48120  1  0  0  0
 49 50  1  0  0  0
 49 53  1  0  0  0
 49 64  1  0  0  0
 49121  1  0  0  0
 50 51  1  0  0  0
 50122  1  0  0  0
 50123  1  0  0  0
 51 52  1  0  0  0
 51124  1  0  0  0
 51125  1  0  0  0
 52126  1  0  0  0
 52127  1  0  0  0
 53 54  1  0  0  0
 54 55  2  0  0  0
 54128  1  0  0  0
 55 57  1  0  0  0
 55129  1  0  0  0
 56 69  2  0  0  0
 57 58  2  0  0  0
 57130  1  0  0  0
 58131  1  0  0  0
 59 60  1  0  0  0
 59 61  1  0  0  0
 59 62  1  0  0  0
 60132  1  0  0  0
 60133  1  0  0  0
 60134  1  0  0  0
 61135  1  0  0  0
 61136  1  0  0  0
 61137  1  0  0  0
 62138  1  0  0  0
 62139  1  0  0  0
 62140  1  0  0  0
 63 65  1  0  0  0
 63141  1  0  0  0
 63142  1  0  0  0
 63143  1  0  0  0
 64144  1  0  0  0
 65145  1  0  0  0
 68 82  1  0  0  0
 71 74  1  0  0  0
 71146  1  0  0  0
 71147  1  0  0  0
 71 78  1  0  0  0
 72 76  1  0  0  0
 72 77  1  0  0  0
 72148  1  0  0  0
 72149  1  0  0  0
 73 77  1  0  0  0
 73 79  1  0  0  0
 73150  1  0  0  0
 73151  1  0  0  0
 74 85  1  0  0  0
 74152  1  0  0  0
 74153  1  0  0  0
 75 78  1  0  0  0
 75 85  1  0  0  0
 75154  1  0  0  0
 75155  1  0  0  0
 76156  1  0  0  0
 76157  1  0  0  0
 76 86  1  0  0  0
 77 82  1  0  0  0
 77158  1  0  0  0
 78 86  1  0  0  0
 78159  1  0  0  0
 79 83  1  0  0  0
 79 86  1  0  0  0
 79160  1  0  0  0
 80161  1  0  0  0
 80162  1  0  0  0
 80163  1  0  0  0
 80 84  1  0  0  0
 81 84  1  0  0  0
 81164  1  0  0  0
 81165  1  0  0  0
 81166  1  0  0  0
 82167  1  0  0  0
 82168  1  0  0  0
 83 84  1  0  0  0
 83169  1  0  0  0
 83170  1  0  0  0
 84171  1  0  0  0
 86172  1  0  0  0
M  CHG  1  86   1
M  ISO  4   1 100  68 101  82 101  85 100
M  END
> <chiral flag>
0

> <version>
0

> <s_m_source_file>
/data/baiqing/PycharmProjects/Reinvent-master-3.2/result/LINK_invent/BTK/process_docking_weight1_custom_sum_contain_oxygen_bond_distance_aromatic_linkinvent_7_9_3/rearranged_h_0112.sdf

> <i_m_source_file_index>
67

> <r_mmod_Potential_Energy-OPLS-2005>
551.055969238281

> <r_mmod_Stretch_Energy-OPLS-2005>
189.062118530273

> <r_mmod_Bend_Energy-OPLS-2005>
289.845428466797

> <r_mmod_Torsional_Energy-OPLS-2005>
388.954986572266

> <r_mmod_Improper_Torsional_Energy-OPLS-2005>
7.95950174331665

> <r_mmod_Van_der_Waal_Energy-OPLS-2005>
113.937301635742

> <r_mmod_Electrostatic_Energy-OPLS-2005>
-156.050003051758

> <r_mmod_Solvation_Energy-OPLS-2005>
-421.056091308594

> <b_mmod_Minimization_Converged-OPLS-2005>
0

> <r_mmod_RMS_Derivative-OPLS-2005>
2.48091650009155

$$$$
67
                    3D
 Structure written by MMmdl.
144151  0  0  1  0            999 V2000
  -30.3355  -15.5524   20.3368 C   0  0  0  0  0  0
  -30.4276  -13.0194   19.5369 C   0  0  0  0  0  0
  -29.5467  -12.6360   18.3154 C   0  0  0  0  0  0
  -28.1142  -12.2973   18.7558 C   0  0  0  0  0  0
  -27.5981  -13.3000   19.8137 C   0  0  2  0  0  0
  -28.6184  -13.6013   20.9355 C   0  0  0  0  0  0
  -25.2333  -13.8275   20.5783 C   0  0  0  0  0  0
  -24.1714  -13.0434   20.9283 C   0  0  0  0  0  0
  -24.6406  -11.6942   20.8765 C   0  0  0  0  0  0
  -23.9108  -10.4292   21.0400 C   0  0  0  0  0  0
  -24.3646   -9.4205   21.9182 C   0  0  0  0  0  0
  -23.6309   -8.2245   22.0754 C   0  0  0  0  0  0
  -22.4290   -8.0286   21.3545 C   0  0  0  0  0  0
  -21.9935   -9.0261   20.4645 C   0  0  0  0  0  0
  -22.7275  -10.2134   20.3051 C   0  0  0  0  0  0
  -21.6857   -6.0740   22.5279 C   0  0  0  0  0  0
  -21.4018   -6.5642   23.8213 C   0  0  0  0  0  0
  -21.3660   -5.6793   24.9174 C   0  0  0  0  0  0
  -21.6044   -4.3056   24.7224 C   0  0  0  0  0  0
  -21.8818   -3.8149   23.4344 C   0  0  0  0  0  0
  -21.9193   -4.6967   22.3402 C   0  0  0  0  0  0
  -22.7728  -13.5169   21.1919 C   0  0  0  0  0  0
  -22.1662   -4.2152   21.0979 F   0  0  0  0  0  0
  -21.5627   -3.4539   25.7736 F   0  0  0  0  0  0
  -29.8050  -14.1982   20.2843 N   0  0  0  0  0  0
  -26.2774  -12.9592   20.3224 N   0  0  0  0  0  0
  -25.9349  -11.6672   20.5705 N   0  0  0  0  0  0
  -22.0390  -12.8148   22.0471 N   0  0  0  0  0  0
  -25.3933  -15.2015   20.4224 N   0  0  0  0  0  0
  -31.5680  -15.5018   20.1721 O   0  0  0  0  0  0
  -21.6647   -6.8886   21.4243 O   0  0  0  0  0  0
  -22.3405  -14.5469   20.6756 O   0  0  0  0  0  0
  -24.6802  -31.8038   23.1542 C   0  0  0  0  0  0
  -25.9399  -32.4485   23.8076 C   0  0  1  0  0  0
  -27.2253  -26.7418   20.2108 C   0  0  0  0  0  0
  -25.5992  -33.8309   24.1967 N   0  0  0  0  0  0
  -23.5042  -30.4070   21.5074 C   0  0  2  0  0  0
  -24.9608  -28.7546   20.1174 C   0  0  0  0  0  0
  -22.7749  -29.4337   22.4723 C   0  0  0  0  0  0
  -18.0336  -28.1419   22.8457 C   0  0  0  0  0  0
  -24.1496  -36.7162   23.2652 C   0  0  0  0  0  0
  -26.0828  -30.5500   21.4121 C   0  0  0  0  0  0
  -26.1491  -29.1189   20.7617 C   0  0  0  0  0  0
  -27.2684  -28.1395   20.7754 C   0  0  0  0  0  0
  -26.0040  -26.5752   19.5122 C   0  0  0  0  0  0
  -24.9248  -27.5077   19.4695 C   0  0  0  0  0  0
  -23.7555  -29.7057   20.1416 C   0  0  0  0  0  0
  -25.4145  -36.2906   24.0284 C   0  0  1  0  0  0
  -20.5970  -28.3777   23.1151 C   0  0  2  0  0  0
  -20.6804  -26.9440   22.5404 C   0  0  0  0  0  0
  -19.5780  -26.6372   21.5217 C   0  0  0  0  0  0
  -18.1962  -26.7948   22.1620 C   0  0  0  0  0  0
  -19.1601  -28.8922   23.2785 C   0  0  0  0  0  0
  -18.9507  -30.1507   23.8830 C   0  0  0  0  0  0
  -17.6498  -30.6603   24.0551 C   0  0  0  0  0  0
  -25.9121  -34.9295   23.4960 C   0  0  0  0  0  0
  -16.5387  -29.9086   23.6349 C   0  0  0  0  0  0
  -16.7316  -28.6508   23.0366 C   0  0  0  0  0  0
  -26.4589  -31.6506   25.0683 C   0  0  0  0  0  0
  -25.3664  -31.3811   26.1305 C   0  0  0  0  0  0
  -27.0517  -30.2849   24.6555 C   0  0  0  0  0  0
  -27.6042  -32.4359   25.7501 C   0  0  0  0  0  0
  -27.5565  -37.1738   24.8466 C   0  0  0  0  0  0
  -21.4400  -29.3032   22.3476 N   0  0  0  0  0  0
  -26.4273  -37.3663   23.9406 N   0  0  0  0  0  0
  -24.7788  -30.9523   22.0773 N   0  0  0  0  0  0
  -23.4212  -28.7934   23.3051 O   0  0  0  0  0  0
  -28.2031  -25.5500   20.2837 O   0  0  0  0  0  0
  -26.5758  -34.8866   22.4575 O   0  0  0  0  0  0
  -23.5830  -32.1092   23.6523 O   0  0  0  0  0  0
  -28.7653  -20.2704   20.3041 C   0  0  0  0  0  0
  -29.8037  -18.6518   20.3249 C   0  0  0  0  0  0
  -28.0063  -23.8213   20.1681 C   0  0  0  0  0  0
  -29.0090  -22.1792   20.2622 C   0  0  2  0  0  0
  -29.5781  -16.9015   20.3834 N   0  0  0  0  0  0
  -29.8056  -22.2884   19.0966 O   0  0  0  0  0  0
  -31.4273  -13.2681   19.1792 H   0  0  0  0  0  0
  -30.5673  -12.1630   20.1989 H   0  0  0  0  0  0
  -29.9849  -11.7958   17.7752 H   0  0  0  0  0  0
  -29.5222  -13.4726   17.6155 H   0  0  0  0  0  0
  -28.1262  -11.2935   19.1821 H   0  0  0  0  0  0
  -27.4444  -12.2595   17.8958 H   0  0  0  0  0  0
  -27.4712  -14.2307   19.2589 H   0  0  0  0  0  0
  -28.8588  -12.7093   21.5158 H   0  0  0  0  0  0
  -28.2007  -14.3236   21.6386 H   0  0  0  0  0  0
  -25.2785   -9.5681   22.4766 H   0  0  0  0  0  0
  -24.0011   -7.4638   22.7479 H   0  0  0  0  0  0
  -21.0864   -8.8788   19.8951 H   0  0  0  0  0  0
  -22.3733  -10.9675   19.6163 H   0  0  0  0  0  0
  -21.2014   -7.6150   23.9718 H   0  0  0  0  0  0
  -21.1482   -6.0523   25.9077 H   0  0  0  0  0  0
  -22.0596   -2.7611   23.2844 H   0  0  0  0  0  0
  -22.4027  -11.9823   22.4867 H   0  0  0  0  0  0
  -21.0998  -13.1149   22.2670 H   0  0  0  0  0  0
  -24.6209  -15.8492   20.5359 H   0  0  0  0  0  0
  -26.2318  -15.6442   20.0708 H   0  0  0  0  0  0
  -26.7478  -32.4970   23.0788 H   0  0  0  0  0  0
  -25.0054  -33.9352   25.0062 H   0  0  0  0  0  0
  -22.8275  -31.2434   21.3203 H   0  0  0  0  0  0
  -23.3775  -35.9474   23.3266 H   0  0  0  0  0  0
  -24.3566  -36.8871   22.2076 H   0  0  0  0  0  0
  -23.7240  -37.6323   23.6757 H   0  0  0  0  0  0
  -26.2816  -31.2780   20.6244 H   0  0  0  0  0  0
  -26.9352  -30.6162   22.0758 H   0  0  0  0  0  0
  -28.1644  -28.4238   21.3089 H   0  0  0  0  0  0
  -25.8451  -25.6291   19.0148 H   0  0  0  0  0  0
  -24.0266  -27.2205   18.9401 H   0  0  0  0  0  0
  -23.9274  -30.4665   19.3792 H   0  0  0  0  0  0
  -22.8610  -29.1700   19.8191 H   0  0  0  0  0  0
  -25.1354  -36.1673   25.0775 H   0  0  0  0  0  0
  -21.0053  -28.3400   24.1277 H   0  0  0  0  0  0
  -20.5672  -26.2400   23.3663 H   0  0  0  0  0  0
  -21.6666  -26.7389   22.1220 H   0  0  0  0  0  0
  -19.6937  -25.6266   21.1290 H   0  0  0  0  0  0
  -19.6722  -27.3145   20.6717 H   0  0  0  0  0  0
  -17.4232  -26.6690   21.4023 H   0  0  0  0  0  0
  -18.0351  -26.0107   22.9032 H   0  0  0  0  0  0
  -19.7983  -30.7340   24.2169 H   0  0  0  0  0  0
  -17.5048  -31.6276   24.5167 H   0  0  0  0  0  0
  -15.5385  -30.2966   23.7712 H   0  0  0  0  0  0
  -15.8717  -28.0803   22.7120 H   0  0  0  0  0  0
  -24.5872  -30.7136   25.7606 H   0  0  0  0  0  0
  -24.8827  -32.3029   26.4545 H   0  0  0  0  0  0
  -25.7851  -30.9097   27.0205 H   0  0  0  0  0  0
  -26.3226  -29.6471   24.1547 H   0  0  0  0  0  0
  -27.3960  -29.7285   25.5283 H   0  0  0  0  0  0
  -27.9200  -30.3986   24.0063 H   0  0  0  0  0  0
  -27.2584  -33.3726   26.1887 H   0  0  0  0  0  0
  -28.3953  -32.6816   25.0403 H   0  0  0  0  0  0
  -28.0600  -31.8616   26.5577 H   0  0  0  0  0  0
  -28.2552  -38.0061   24.7514 H   0  0  0  0  0  0
  -28.1091  -36.2584   24.6293 H   0  0  0  0  0  0
  -27.2279  -37.1375   25.8867 H   0  0  0  0  0  0
  -20.9697  -29.8691   21.6550 H   0  0  0  0  0  0
  -26.0103  -38.2712   24.1418 H   0  0  0  0  0  0
  -28.1223  -20.1444   21.1756 H   0  0  0  0  0  0
  -28.0854  -20.1018   19.4687 H   0  0  0  0  0  0
  -30.4893  -18.8100   21.1578 H   0  0  0  0  0  0
  -30.4460  -18.7603   19.4504 H   0  0  0  0  0  0
  -27.2460  -23.6643   20.9337 H   0  0  0  0  0  0
  -27.4464  -23.7217   19.2381 H   0  0  0  0  0  0
  -29.6651  -22.3526   21.1165 H   0  0  0  0  0  0
  -28.5932  -16.6931   20.4696 H   0  0  0  0  0  0
  -30.1749  -23.1686   19.0853 H   0  0  0  0  0  0
  1 25  1  0  0  0
  1 30  2  0  0  0
  1 75  1  0  0  0
  2  3  1  0  0  0
  2 25  1  0  0  0
  2 77  1  0  0  0
  2 78  1  0  0  0
  3  4  1  0  0  0
  3 79  1  0  0  0
  3 80  1  0  0  0
  4  5  1  0  0  0
  4 81  1  0  0  0
  4 82  1  0  0  0
  5  6  1  0  0  0
  5 26  1  0  0  0
  5 83  1  0  0  0
  6 25  1  0  0  0
  6 84  1  0  0  0
  6 85  1  0  0  0
  7  8  2  0  0  0
  7 26  1  0  0  0
  7 29  1  0  0  0
  8  9  1  0  0  0
  8 22  1  0  0  0
  9 10  1  0  0  0
  9 27  2  0  0  0
 10 11  2  0  0  0
 10 15  1  0  0  0
 11 12  1  0  0  0
 11 86  1  0  0  0
 12 13  2  0  0  0
 12 87  1  0  0  0
 13 14  1  0  0  0
 13 31  1  0  0  0
 14 15  2  0  0  0
 14 88  1  0  0  0
 15 89  1  0  0  0
 16 17  2  0  0  0
 16 21  1  0  0  0
 16 31  1  0  0  0
 17 18  1  0  0  0
 17 90  1  0  0  0
 18 19  2  0  0  0
 18 91  1  0  0  0
 19 20  1  0  0  0
 19 24  1  0  0  0
 20 21  2  0  0  0
 20 92  1  0  0  0
 21 23  1  0  0  0
 22 28  1  0  0  0
 22 32  2  0  0  0
 26 27  1  0  0  0
 28 93  1  0  0  0
 28 94  1  0  0  0
 29 95  1  0  0  0
 29 96  1  0  0  0
 33 34  1  0  0  0
 33 66  1  0  0  0
 33 70  2  0  0  0
 34 36  1  0  0  0
 34 59  1  0  0  0
 34 97  1  0  0  0
 35 44  2  0  0  0
 35 45  1  0  0  0
 35 68  1  0  0  0
 36 56  1  0  0  0
 36 98  1  0  0  0
 37 39  1  0  0  0
 37 47  1  0  0  0
 37 66  1  0  0  0
 37 99  1  0  0  0
 38 43  2  0  0  0
 38 46  1  0  0  0
 38 47  1  0  0  0
 39 64  1  0  0  0
 39 67  2  0  0  0
 40 52  1  0  0  0
 40 53  2  0  0  0
 40 58  1  0  0  0
 41100  1  0  0  0
 41101  1  0  0  0
 41102  1  0  0  0
 41 48  1  0  0  0
 42 43  1  0  0  0
 42 66  1  0  0  0
 42103  1  0  0  0
 42104  1  0  0  0
 43 44  1  0  0  0
 44105  1  0  0  0
 45 46  2  0  0  0
 45106  1  0  0  0
 46107  1  0  0  0
 47108  1  0  0  0
 47109  1  0  0  0
 48 56  1  0  0  0
 48 65  1  0  0  0
 48110  1  0  0  0
 49 50  1  0  0  0
 49 53  1  0  0  0
 49 64  1  0  0  0
 49111  1  0  0  0
 50 51  1  0  0  0
 50112  1  0  0  0
 50113  1  0  0  0
 51 52  1  0  0  0
 51114  1  0  0  0
 51115  1  0  0  0
 52116  1  0  0  0
 52117  1  0  0  0
 53 54  1  0  0  0
 54 55  2  0  0  0
 54118  1  0  0  0
 55 57  1  0  0  0
 55119  1  0  0  0
 56 69  2  0  0  0
 57 58  2  0  0  0
 57120  1  0  0  0
 58121  1  0  0  0
 59 60  1  0  0  0
 59 61  1  0  0  0
 59 62  1  0  0  0
 60122  1  0  0  0
 60123  1  0  0  0
 60124  1  0  0  0
 61125  1  0  0  0
 61126  1  0  0  0
 61127  1  0  0  0
 62128  1  0  0  0
 62129  1  0  0  0
 62130  1  0  0  0
 63 65  1  0  0  0
 63131  1  0  0  0
 63132  1  0  0  0
 63133  1  0  0  0
 64134  1  0  0  0
 65135  1  0  0  0
 68 73  1  0  0  0
 71 72  1  0  0  0
 71 74  1  0  0  0
 71136  1  0  0  0
 71137  1  0  0  0
 72 75  1  0  0  0
 72138  1  0  0  0
 72139  1  0  0  0
 73 74  1  0  0  0
 73140  1  0  0  0
 73141  1  0  0  0
 74 76  1  0  0  0
 74142  1  0  0  0
 75143  1  0  0  0
 76144  1  0  0  0
M  ISO  4   1 100  68 101  73 101  75 100
M  END
> <chiral flag>
0

> <version>
0

> <s_m_source_file>
/data/baiqing/PycharmProjects/Reinvent-master-3.2/result/LINK_invent/BTK/process_docking_weight1_custom_sum_contain_oxygen_bond_distance_aromatic_linkinvent_7_9_3/rearranged_h_0112.sdf

> <i_m_source_file_index>
68

> <r_mmod_Potential_Energy-OPLS-2005>
2239.58666992188

> <r_mmod_Stretch_Energy-OPLS-2005>
1091.81201171875

> <r_mmod_Bend_Energy-OPLS-2005>
600.590209960938

> <r_mmod_Torsional_Energy-OPLS-2005>
218.038665771484

> <r_mmod_Improper_Torsional_Energy-OPLS-2005>
3.67980623245239

> <r_mmod_Van_der_Waal_Energy-OPLS-2005>
109.254440307617

> <r_mmod_Electrostatic_Energy-OPLS-2005>
-341.275695800781

> <r_mmod_Solvation_Energy-OPLS-2005>
-238.98649597168

> <b_mmod_Minimization_Converged-OPLS-2005>
0

> <r_mmod_RMS_Derivative-OPLS-2005>
0.124971769750118

$$$$
68
                    3D
 Structure written by MMmdl.
150158  0  0  1  0            999 V2000
  -30.4360  -15.3116   20.3929 C   0  0  0  0  0  0
  -30.4255  -12.8319   19.5574 C   0  0  0  0  0  0
  -29.5454  -12.6228   18.2990 C   0  0  0  0  0  0
  -28.0999  -12.2985   18.7165 C   0  0  0  0  0  0
  -27.6054  -13.2818   19.8109 C   0  0  2  0  0  0
  -28.6226  -13.4942   20.9573 C   0  0  0  0  0  0
  -25.2330  -13.8261   20.5683 C   0  0  0  0  0  0
  -24.1719  -13.0430   20.9237 C   0  0  0  0  0  0
  -24.6384  -11.6949   20.8710 C   0  0  0  0  0  0
  -23.9102  -10.4306   21.0379 C   0  0  0  0  0  0
  -24.3664   -9.4203   21.9134 C   0  0  0  0  0  0
  -23.6341   -8.2233   22.0704 C   0  0  0  0  0  0
  -22.4318   -8.0264   21.3521 C   0  0  0  0  0  0
  -21.9961   -9.0236   20.4603 C   0  0  0  0  0  0
  -22.7287  -10.2122   20.3011 C   0  0  0  0  0  0
  -21.6844   -6.0737   22.5277 C   0  0  0  0  0  0
  -21.4012   -6.5635   23.8211 C   0  0  0  0  0  0
  -21.3675   -5.6783   24.9169 C   0  0  0  0  0  0
  -21.6071   -4.3045   24.7224 C   0  0  0  0  0  0
  -21.8804   -3.8135   23.4330 C   0  0  0  0  0  0
  -21.9179   -4.6963   22.3389 C   0  0  0  0  0  0
  -22.7729  -13.5147   21.1915 C   0  0  0  0  0  0
  -22.1635   -4.2138   21.0980 F   0  0  0  0  0  0
  -21.5664   -3.4523   25.7739 F   0  0  0  0  0  0
  -29.8674  -13.9978   20.3491 N   0  0  0  0  0  0
  -26.2762  -12.9540   20.3079 N   0  0  0  0  0  0
  -25.9312  -11.6651   20.5632 N   0  0  0  0  0  0
  -22.0395  -12.8120   22.0494 N   0  0  0  0  0  0
  -25.3936  -15.2000   20.4141 N   0  0  0  0  0  0
  -31.6551  -15.2903   20.1608 O   0  0  0  0  0  0
  -21.6646   -6.8887   21.4257 O   0  0  0  0  0  0
  -22.3356  -14.5422   20.6723 O   0  0  0  0  0  0
  -24.6637  -31.8149   23.1651 C   0  0  0  0  0  0
  -25.9290  -32.4565   23.8106 C   0  0  1  0  0  0
  -27.2282  -26.8753   20.2003 C   0  0  0  0  0  0
  -25.5942  -33.8388   24.1984 N   0  0  0  0  0  0
  -23.4845  -30.4182   21.5187 C   0  0  2  0  0  0
  -24.9445  -28.7982   20.1108 C   0  0  0  0  0  0
  -22.7677  -29.4349   22.4793 C   0  0  0  0  0  0
  -18.0306  -28.1421   22.8482 C   0  0  0  0  0  0
  -24.1504  -36.7201   23.2629 C   0  0  0  0  0  0
  -26.0536  -30.6041   21.4070 C   0  0  0  0  0  0
  -26.1253  -29.1882   20.7529 C   0  0  0  0  0  0
  -27.2545  -28.2456   20.7763 C   0  0  0  0  0  0
  -26.0206  -26.6499   19.4975 C   0  0  0  0  0  0
  -24.9205  -27.5525   19.4614 C   0  0  0  0  0  0
  -23.7279  -29.7240   20.1504 C   0  0  0  0  0  0
  -25.4158  -36.2962   24.0270 C   0  0  1  0  0  0
  -20.5932  -28.3753   23.1226 C   0  0  2  0  0  0
  -20.6800  -26.9433   22.5469 C   0  0  0  0  0  0
  -19.5782  -26.6382   21.5273 C   0  0  0  0  0  0
  -18.1940  -26.7955   22.1642 C   0  0  0  0  0  0
  -19.1564  -28.8912   23.2836 C   0  0  0  0  0  0
  -18.9468  -30.1505   23.8875 C   0  0  0  0  0  0
  -17.6460  -30.6616   24.0562 C   0  0  0  0  0  0
  -25.9121  -34.9353   23.4969 C   0  0  0  0  0  0
  -16.5354  -29.9098   23.6370 C   0  0  0  0  0  0
  -16.7283  -28.6518   23.0387 C   0  0  0  0  0  0
  -26.4522  -31.6550   25.0671 C   0  0  0  0  0  0
  -25.3584  -31.3899   26.1296 C   0  0  0  0  0  0
  -27.0357  -30.2870   24.6466 C   0  0  0  0  0  0
  -27.6046  -32.4327   25.7458 C   0  0  0  0  0  0
  -27.5600  -37.1733   24.8424 C   0  0  0  0  0  0
  -21.4331  -29.2996   22.3546 N   0  0  0  0  0  0
  -26.4289  -37.3721   23.9394 N   0  0  0  0  0  0
  -24.7561  -30.9732   22.0851 N   0  0  0  0  0  0
  -23.4189  -28.7946   23.3077 O   0  0  0  0  0  0
  -28.2156  -25.7471   20.3662 O   0  0  0  0  0  0
  -26.5785  -34.8891   22.4589 O   0  0  0  0  0  0
  -23.5702  -32.1134   23.6736 O   0  0  0  0  0  0
  -29.2430  -21.1716   20.1234 C   0  0  0  0  0  0
  -29.1079  -19.7837   20.6080 C   0  0  0  0  0  0
  -28.4345  -22.5440   20.5083 C   0  0  0  0  0  0
  -27.5510  -22.1927   21.4748 C   0  0  0  0  0  0
  -28.0520  -19.7180   21.6326 C   0  0  0  0  0  0
  -26.5100  -23.1290   22.0663 C   0  0  0  0  0  0
  -29.9901  -18.2674   20.3276 C   0  0  0  0  0  0
  -28.2817  -24.1699   19.8012 C   0  0  0  0  0  0
  -27.4236  -20.8746   21.9907 N   0  0  0  0  0  0
  -29.6943  -16.6052   20.5074 N   0  0  0  0  0  0
  -27.7219  -18.6661   22.1851 O   0  0  0  0  0  0
  -31.4615  -13.0027   19.2605 H   0  0  0  0  0  0
  -30.4460  -11.9224   20.1630 H   0  0  0  0  0  0
  -29.9619  -11.8405   17.6667 H   0  0  0  0  0  0
  -29.5543  -13.5337   17.6977 H   0  0  0  0  0  0
  -28.0857  -11.2809   19.1057 H   0  0  0  0  0  0
  -27.4384  -12.2985   17.8487 H   0  0  0  0  0  0
  -27.5119  -14.2381   19.2912 H   0  0  0  0  0  0
  -28.7820  -12.5812   21.5326 H   0  0  0  0  0  0
  -28.2350  -14.2376   21.6559 H   0  0  0  0  0  0
  -25.2848   -9.5680   22.4665 H   0  0  0  0  0  0
  -24.0052   -7.4636   22.7443 H   0  0  0  0  0  0
  -21.0868   -8.8759   19.8932 H   0  0  0  0  0  0
  -22.3749  -10.9632   19.6078 H   0  0  0  0  0  0
  -21.1984   -7.6129   23.9720 H   0  0  0  0  0  0
  -21.1536   -6.0506   25.9091 H   0  0  0  0  0  0
  -22.0578   -2.7588   23.2830 H   0  0  0  0  0  0
  -22.4053  -11.9833   22.4970 H   0  0  0  0  0  0
  -21.0949  -13.1050   22.2611 H   0  0  0  0  0  0
  -24.6262  -15.8510   20.5482 H   0  0  0  0  0  0
  -26.2421  -15.6533   20.1014 H   0  0  0  0  0  0
  -26.7349  -32.5102   23.0814 H   0  0  0  0  0  0
  -24.9927  -33.9465   25.0022 H   0  0  0  0  0  0
  -22.7997  -31.2520   21.3442 H   0  0  0  0  0  0
  -23.3808  -35.9484   23.3203 H   0  0  0  0  0  0
  -24.3590  -36.8954   22.2064 H   0  0  0  0  0  0
  -23.7229  -37.6339   23.6758 H   0  0  0  0  0  0
  -26.2336  -31.3438   20.6263 H   0  0  0  0  0  0
  -26.9133  -30.6666   22.0642 H   0  0  0  0  0  0
  -28.1411  -28.5362   21.3225 H   0  0  0  0  0  0
  -25.8737  -25.6932   19.0194 H   0  0  0  0  0  0
  -24.0197  -27.2434   18.9456 H   0  0  0  0  0  0
  -23.8726  -30.4838   19.3822 H   0  0  0  0  0  0
  -22.8418  -29.1644   19.8464 H   0  0  0  0  0  0
  -25.1368  -36.1725   25.0767 H   0  0  0  0  0  0
  -20.9997  -28.3390   24.1357 H   0  0  0  0  0  0
  -20.5716  -26.2353   23.3697 H   0  0  0  0  0  0
  -21.6659  -26.7451   22.1249 H   0  0  0  0  0  0
  -19.6947  -25.6279   21.1320 H   0  0  0  0  0  0
  -19.6764  -27.3183   20.6790 H   0  0  0  0  0  0
  -17.4249  -26.6725   21.4003 H   0  0  0  0  0  0
  -18.0297  -26.0101   22.9027 H   0  0  0  0  0  0
  -19.7941  -30.7329   24.2226 H   0  0  0  0  0  0
  -17.5017  -31.6293   24.5156 H   0  0  0  0  0  0
  -15.5344  -30.2991   23.7725 H   0  0  0  0  0  0
  -15.8681  -28.0837   22.7126 H   0  0  0  0  0  0
  -24.5816  -30.7193   25.7585 H   0  0  0  0  0  0
  -24.8719  -32.3155   26.4395 H   0  0  0  0  0  0
  -25.7738  -30.9275   27.0262 H   0  0  0  0  0  0
  -26.2980  -29.6567   24.1480 H   0  0  0  0  0  0
  -27.3799  -29.7252   25.5158 H   0  0  0  0  0  0
  -27.8995  -30.3955   23.9903 H   0  0  0  0  0  0
  -27.2631  -33.3655   26.1957 H   0  0  0  0  0  0
  -28.3898  -32.6833   25.0308 H   0  0  0  0  0  0
  -28.0662  -31.8493   26.5438 H   0  0  0  0  0  0
  -28.2541  -38.0102   24.7598 H   0  0  0  0  0  0
  -28.1170  -36.2648   24.6090 H   0  0  0  0  0  0
  -27.2330  -37.1194   25.8820 H   0  0  0  0  0  0
  -20.9597  -29.8588   21.6594 H   0  0  0  0  0  0
  -26.0119  -38.2740   24.1517 H   0  0  0  0  0  0
  -30.0457  -21.3051   19.4097 H   0  0  0  0  0  0
  -26.1487  -22.7770   23.0354 H   0  0  0  0  0  0
  -25.6544  -23.2097   21.3927 H   0  0  0  0  0  0
  -26.9152  -24.1272   22.2279 H   0  0  0  0  0  0
  -30.8753  -18.4107   20.9535 H   0  0  0  0  0  0
  -30.3716  -18.3660   19.3145 H   0  0  0  0  0  0
  -27.4359  -24.0740   19.1218 H   0  0  0  0  0  0
  -29.1385  -24.2075   19.1277 H   0  0  0  0  0  0
  -26.7014  -20.7498   22.6842 H   0  0  0  0  0  0
  -28.7207  -16.4235   20.7127 H   0  0  0  0  0  0
  1 25  1  0  0  0
  1 30  2  0  0  0
  1 80  1  0  0  0
  2  3  1  0  0  0
  2 25  1  0  0  0
  2 82  1  0  0  0
  2 83  1  0  0  0
  3  4  1  0  0  0
  3 84  1  0  0  0
  3 85  1  0  0  0
  4  5  1  0  0  0
  4 86  1  0  0  0
  4 87  1  0  0  0
  5  6  1  0  0  0
  5 26  1  0  0  0
  5 88  1  0  0  0
  6 25  1  0  0  0
  6 89  1  0  0  0
  6 90  1  0  0  0
  7  8  2  0  0  0
  7 26  1  0  0  0
  7 29  1  0  0  0
  8  9  1  0  0  0
  8 22  1  0  0  0
  9 10  1  0  0  0
  9 27  2  0  0  0
 10 11  2  0  0  0
 10 15  1  0  0  0
 11 12  1  0  0  0
 11 91  1  0  0  0
 12 13  2  0  0  0
 12 92  1  0  0  0
 13 14  1  0  0  0
 13 31  1  0  0  0
 14 15  2  0  0  0
 14 93  1  0  0  0
 15 94  1  0  0  0
 16 17  2  0  0  0
 16 21  1  0  0  0
 16 31  1  0  0  0
 17 18  1  0  0  0
 17 95  1  0  0  0
 18 19  2  0  0  0
 18 96  1  0  0  0
 19 20  1  0  0  0
 19 24  1  0  0  0
 20 21  2  0  0  0
 20 97  1  0  0  0
 21 23  1  0  0  0
 22 28  1  0  0  0
 22 32  2  0  0  0
 26 27  1  0  0  0
 28 98  1  0  0  0
 28 99  1  0  0  0
 29100  1  0  0  0
 29101  1  0  0  0
 33 34  1  0  0  0
 33 66  1  0  0  0
 33 70  2  0  0  0
 34 36  1  0  0  0
 34 59  1  0  0  0
 34102  1  0  0  0
 35 44  2  0  0  0
 35 45  1  0  0  0
 35 68  1  0  0  0
 36 56  1  0  0  0
 36103  1  0  0  0
 37 39  1  0  0  0
 37 47  1  0  0  0
 37 66  1  0  0  0
 37104  1  0  0  0
 38 43  2  0  0  0
 38 46  1  0  0  0
 38 47  1  0  0  0
 39 64  1  0  0  0
 39 67  2  0  0  0
 40 52  1  0  0  0
 40 53  2  0  0  0
 40 58  1  0  0  0
 41105  1  0  0  0
 41106  1  0  0  0
 41107  1  0  0  0
 41 48  1  0  0  0
 42 43  1  0  0  0
 42 66  1  0  0  0
 42108  1  0  0  0
 42109  1  0  0  0
 43 44  1  0  0  0
 44110  1  0  0  0
 45 46  2  0  0  0
 45111  1  0  0  0
 46112  1  0  0  0
 47113  1  0  0  0
 47114  1  0  0  0
 48 56  1  0  0  0
 48 65  1  0  0  0
 48115  1  0  0  0
 49 50  1  0  0  0
 49 53  1  0  0  0
 49 64  1  0  0  0
 49116  1  0  0  0
 50 51  1  0  0  0
 50117  1  0  0  0
 50118  1  0  0  0
 51 52  1  0  0  0
 51119  1  0  0  0
 51120  1  0  0  0
 52121  1  0  0  0
 52122  1  0  0  0
 53 54  1  0  0  0
 54 55  2  0  0  0
 54123  1  0  0  0
 55 57  1  0  0  0
 55124  1  0  0  0
 56 69  2  0  0  0
 57 58  2  0  0  0
 57125  1  0  0  0
 58126  1  0  0  0
 59 60  1  0  0  0
 59 61  1  0  0  0
 59 62  1  0  0  0
 60127  1  0  0  0
 60128  1  0  0  0
 60129  1  0  0  0
 61130  1  0  0  0
 61131  1  0  0  0
 61132  1  0  0  0
 62133  1  0  0  0
 62134  1  0  0  0
 62135  1  0  0  0
 63 65  1  0  0  0
 63136  1  0  0  0
 63137  1  0  0  0
 63138  1  0  0  0
 64139  1  0  0  0
 65140  1  0  0  0
 68 78  1  0  0  0
 71 72  2  0  0  0
 71 73  1  0  0  0
 71141  1  0  0  0
 72 75  1  0  0  0
 72 77  1  0  0  0
 73 74  2  0  0  0
 73 78  1  0  0  0
 74 76  1  0  0  0
 74 79  1  0  0  0
 75 79  1  0  0  0
 75 81  2  0  0  0
 76142  1  0  0  0
 76143  1  0  0  0
 76144  1  0  0  0
 77 80  1  0  0  0
 77145  1  0  0  0
 77146  1  0  0  0
 78147  1  0  0  0
 78148  1  0  0  0
 79149  1  0  0  0
 80150  1  0  0  0
M  ISO  4   1 100  68 101  78 101  80 100
M  END
> <chiral flag>
0

> <version>
0

> <s_m_source_file>
/data/baiqing/PycharmProjects/Reinvent-master-3.2/result/LINK_invent/BTK/process_docking_weight1_custom_sum_contain_oxygen_bond_distance_aromatic_linkinvent_7_9_3/rearranged_h_0112.sdf

> <i_m_source_file_index>
69

> <r_mmod_Potential_Energy-OPLS-2005>
1418.51062011719

> <r_mmod_Stretch_Energy-OPLS-2005>
662.955444335938

> <r_mmod_Bend_Energy-OPLS-2005>
475.4384765625

> <r_mmod_Torsional_Energy-OPLS-2005>
202.664169311523

> <r_mmod_Improper_Torsional_Energy-OPLS-2005>
4.52718782424927

> <r_mmod_Van_der_Waal_Energy-OPLS-2005>
125.474182128906

> <r_mmod_Electrostatic_Energy-OPLS-2005>
-357.4580078125

> <r_mmod_Solvation_Energy-OPLS-2005>
-222.310089111328

> <b_mmod_Minimization_Converged-OPLS-2005>
0

> <r_mmod_RMS_Derivative-OPLS-2005>
5.46542549133301

$$$$
69
                    3D
 Structure written by MMmdl.
175183  0  0  1  0            999 V2000
  -30.6030  -14.7158   20.4516 C   0  0  0  0  0  0
  -30.4331  -12.4301   19.4741 C   0  0  0  0  0  0
  -29.5140  -12.5179   18.2365 C   0  0  0  0  0  0
  -28.0357  -12.3533   18.6415 C   0  0  0  0  0  0
  -27.6488  -13.2308   19.8621 C   0  0  2  0  0  0
  -28.6915  -13.1317   20.9977 C   0  0  0  0  0  0
  -25.2543  -13.8196   20.5673 C   0  0  0  0  0  0
  -24.1832  -13.0450   20.9219 C   0  0  0  0  0  0
  -24.6427  -11.6936   20.8761 C   0  0  0  0  0  0
  -23.9091  -10.4302   21.0414 C   0  0  0  0  0  0
  -24.3635   -9.4204   21.9191 C   0  0  0  0  0  0
  -23.6308   -8.2246   22.0758 C   0  0  0  0  0  0
  -22.4278   -8.0302   21.3555 C   0  0  0  0  0  0
  -21.9928   -9.0267   20.4652 C   0  0  0  0  0  0
  -22.7266  -10.2149   20.3060 C   0  0  0  0  0  0
  -21.6864   -6.0760   22.5279 C   0  0  0  0  0  0
  -21.4014   -6.5652   23.8209 C   0  0  0  0  0  0
  -21.3661   -5.6798   24.9176 C   0  0  0  0  0  0
  -21.6033   -4.3067   24.7229 C   0  0  0  0  0  0
  -21.8823   -3.8161   23.4341 C   0  0  0  0  0  0
  -21.9189   -4.6972   22.3401 C   0  0  0  0  0  0
  -22.7851  -13.5245   21.1864 C   0  0  0  0  0  0
  -22.1663   -4.2168   21.0980 F   0  0  0  0  0  0
  -21.5624   -3.4540   25.7734 F   0  0  0  0  0  0
  -29.9984  -13.4788   20.4237 N   0  0  0  0  0  0
  -26.2982  -12.9397   20.3303 N   0  0  0  0  0  0
  -25.9356  -11.6538   20.5766 N   0  0  0  0  0  0
  -22.0499  -12.8220   22.0411 N   0  0  0  0  0  0
  -25.4200  -15.1904   20.4061 N   0  0  0  0  0  0
  -31.7728  -14.8473   20.0858 O   0  0  0  0  0  0
  -21.6645   -6.8899   21.4249 O   0  0  0  0  0  0
  -22.3535  -14.5542   20.6704 O   0  0  0  0  0  0
  -24.6288  -31.8588   23.2013 C   0  0  0  0  0  0
  -25.9155  -32.4773   23.8352 C   0  0  1  0  0  0
  -27.2191  -27.2615   20.1032 C   0  0  0  0  0  0
  -25.5956  -33.8568   24.2284 N   0  0  0  0  0  0
  -23.4256  -30.4789   21.5430 C   0  0  2  0  0  0
  -24.8760  -28.9209   20.1058 C   0  0  0  0  0  0
  -22.7458  -29.4615   22.4903 C   0  0  0  0  0  0
  -18.0299  -28.1363   22.8475 C   0  0  0  0  0  0
  -24.1499  -36.7257   23.2651 C   0  0  0  0  0  0
  -25.9744  -30.7588   21.3942 C   0  0  0  0  0  0
  -26.0425  -29.3827   20.7272 C   0  0  0  0  0  0
  -27.2129  -28.5576   20.7228 C   0  0  0  0  0  0
  -26.0402  -26.8834   19.4318 C   0  0  0  0  0  0
  -24.8769  -27.6778   19.4517 C   0  0  0  0  0  0
  -23.6463  -29.8099   20.1611 C   0  0  0  0  0  0
  -25.4127  -36.3056   24.0332 C   0  0  1  0  0  0
  -20.5887  -28.3714   23.1258 C   0  0  2  0  0  0
  -20.6785  -26.9421   22.5381 C   0  0  0  0  0  0
  -19.5755  -26.6360   21.5202 C   0  0  0  0  0  0
  -18.1939  -26.7924   22.1607 C   0  0  0  0  0  0
  -19.1533  -28.8851   23.2879 C   0  0  0  0  0  0
  -18.9477  -30.1463   23.8892 C   0  0  0  0  0  0
  -17.6475  -30.6579   24.0561 C   0  0  0  0  0  0
  -25.9053  -34.9432   23.5099 C   0  0  0  0  0  0
  -16.5373  -29.9072   23.6327 C   0  0  0  0  0  0
  -16.7285  -28.6480   23.0361 C   0  0  0  0  0  0
  -26.4509  -31.6597   25.0738 C   0  0  0  0  0  0
  -25.3725  -31.3750   26.1454 C   0  0  0  0  0  0
  -27.0417  -30.3026   24.6255 C   0  0  0  0  0  0
  -27.6056  -32.4373   25.7510 C   0  0  0  0  0  0
  -27.5573  -37.1762   24.8455 C   0  0  0  0  0  0
  -21.4154  -29.3059   22.3630 N   0  0  0  0  0  0
  -26.4293  -37.3753   23.9389 N   0  0  0  0  0  0
  -24.6949  -31.0476   22.1036 N   0  0  0  0  0  0
  -23.4152  -28.8167   23.3008 O   0  0  0  0  0  0
  -28.3208  -26.3810   20.1785 O   0  0  0  0  0  0
  -26.5608  -34.8914   22.4656 O   0  0  0  0  0  0
  -23.5421  -32.1457   23.7247 O   0  0  0  0  0  0
  -28.9901  -21.7026   18.8132 C   0  0  0  0  0  0
  -28.6287  -21.0799   20.8681 C   0  0  0  0  0  0
  -28.4754  -22.2029   20.0504 C   0  0  0  0  0  0
  -29.3267  -20.3598   18.8901 C   0  0  0  0  0  0
  -30.4793  -20.2411   16.6185 C   0  0  0  0  0  0
  -28.5836  -18.7041   17.1448 C   0  0  0  0  0  0
  -26.3490  -23.4142   19.6886 C   0  0  0  0  0  0
  -30.0281  -18.6765   22.1739 C   0  0  0  0  0  0
  -27.8059  -18.0751   21.2211 C   0  0  0  0  0  0
  -29.9550  -17.2458   20.1230 C   0  0  0  0  0  0
  -27.5909  -23.9331   21.8287 C   0  0  0  0  0  0
  -28.3952  -24.9676   19.6337 C   0  0  0  0  0  0
  -29.7701  -19.4749   17.7506 C   0  0  0  0  0  0
  -27.7507  -23.6249   20.3139 C   0  0  1  0  0  0
  -29.2388  -18.5053   20.8666 C   0  0  0  0  0  0
  -29.1207  -19.9128   20.2065 N   0  0  0  0  0  0
  -29.7970  -15.8198   20.6635 N   0  0  0  0  0  0
  -26.6930  -23.0100   22.5582 N   0  3  0  0  0  0
  -31.4754  -12.5495   19.1748 H   0  0  0  0  0  0
  -30.3677  -11.4416   19.9337 H   0  0  0  0  0  0
  -29.7891  -11.7598   17.5032 H   0  0  0  0  0  0
  -29.6537  -13.4804   17.7429 H   0  0  0  0  0  0
  -27.8727  -11.3007   18.8764 H   0  0  0  0  0  0
  -27.3857  -12.5789   17.7932 H   0  0  0  0  0  0
  -27.6524  -14.2603   19.5038 H   0  0  0  0  0  0
  -28.7127  -12.1240   21.4162 H   0  0  0  0  0  0
  -28.4319  -13.7964   21.8232 H   0  0  0  0  0  0
  -25.2787   -9.5687   22.4779 H   0  0  0  0  0  0
  -24.0019   -7.4633   22.7478 H   0  0  0  0  0  0
  -21.0865   -8.8805   19.8955 H   0  0  0  0  0  0
  -22.3728  -10.9703   19.6177 H   0  0  0  0  0  0
  -21.2013   -7.6164   23.9729 H   0  0  0  0  0  0
  -21.1477   -6.0530   25.9082 H   0  0  0  0  0  0
  -22.0598   -2.7628   23.2838 H   0  0  0  0  0  0
  -22.4106  -11.9882   22.4783 H   0  0  0  0  0  0
  -21.1120  -13.1252   22.2611 H   0  0  0  0  0  0
  -24.6406  -15.8337   20.4914 H   0  0  0  0  0  0
  -26.2482  -15.6258   20.0250 H   0  0  0  0  0  0
  -26.7203  -32.5439   23.1074 H   0  0  0  0  0  0
  -25.0135  -33.9714   25.0452 H   0  0  0  0  0  0
  -22.7224  -31.3011   21.3935 H   0  0  0  0  0  0
  -23.3763  -35.9585   23.3318 H   0  0  0  0  0  0
  -24.3582  -36.8884   22.2054 H   0  0  0  0  0  0
  -23.7239  -37.6465   23.6691 H   0  0  0  0  0  0
  -26.1189  -31.5255   20.6308 H   0  0  0  0  0  0
  -26.8511  -30.8050   22.0290 H   0  0  0  0  0  0
  -28.1046  -28.8944   21.2319 H   0  0  0  0  0  0
  -26.0022  -25.9564   18.8860 H   0  0  0  0  0  0
  -23.9824  -27.3231   18.9592 H   0  0  0  0  0  0
  -23.7666  -30.5883   19.4064 H   0  0  0  0  0  0
  -22.7665  -29.2437   19.8497 H   0  0  0  0  0  0
  -25.1295  -36.1912   25.0813 H   0  0  0  0  0  0
  -21.0028  -28.3308   24.1368 H   0  0  0  0  0  0
  -20.5688  -26.2315   23.3585 H   0  0  0  0  0  0
  -21.6663  -26.7420   22.1175 H   0  0  0  0  0  0
  -19.6912  -25.6263   21.1246 H   0  0  0  0  0  0
  -19.6709  -27.3168   20.6731 H   0  0  0  0  0  0
  -17.4196  -26.6703   21.4001 H   0  0  0  0  0  0
  -18.0330  -26.0058   22.8982 H   0  0  0  0  0  0
  -19.7967  -30.7257   24.2242 H   0  0  0  0  0  0
  -17.5051  -31.6274   24.5155 H   0  0  0  0  0  0
  -15.5368  -30.2979   23.7676 H   0  0  0  0  0  0
  -15.8691  -28.0808   22.7091 H   0  0  0  0  0  0
  -24.5928  -30.7103   25.7754 H   0  0  0  0  0  0
  -24.8867  -32.2914   26.4811 H   0  0  0  0  0  0
  -25.7982  -30.8968   27.0285 H   0  0  0  0  0  0
  -26.3078  -29.6672   24.1296 H   0  0  0  0  0  0
  -27.4159  -29.7397   25.4819 H   0  0  0  0  0  0
  -27.8907  -30.4307   23.9551 H   0  0  0  0  0  0
  -27.2714  -33.3733   26.2003 H   0  0  0  0  0  0
  -28.3902  -32.6817   25.0346 H   0  0  0  0  0  0
  -28.0705  -31.8575   26.5483 H   0  0  0  0  0  0
  -28.2566  -38.0088   24.7529 H   0  0  0  0  0  0
  -28.1117  -36.2602   24.6300 H   0  0  0  0  0  0
  -27.2282  -37.1419   25.8867 H   0  0  0  0  0  0
  -20.9334  -29.8845   21.6905 H   0  0  0  0  0  0
  -26.0177  -38.2824   24.1432 H   0  0  0  0  0  0
  -29.0255  -22.2669   17.8934 H   0  0  0  0  0  0
  -28.3601  -20.9729   21.9075 H   0  0  0  0  0  0
  -31.3158  -20.8354   16.9899 H   0  0  0  0  0  0
  -29.8027  -20.9162   16.0910 H   0  0  0  0  0  0
  -30.8821  -19.5489   15.8764 H   0  0  0  0  0  0
  -28.0379  -18.1255   17.8891 H   0  0  0  0  0  0
  -28.9222  -18.0115   16.3745 H   0  0  0  0  0  0
  -27.8663  -19.3875   16.6867 H   0  0  0  0  0  0
  -25.9111  -22.4680   20.0074 H   0  0  0  0  0  0
  -26.4029  -23.3735   18.5971 H   0  0  0  0  0  0
  -25.6388  -24.1896   19.9603 H   0  0  0  0  0  0
  -30.1547  -17.7296   22.6994 H   0  0  0  0  0  0
  -29.5389  -19.3522   22.8735 H   0  0  0  0  0  0
  -31.0231  -19.0722   21.9684 H   0  0  0  0  0  0
  -27.7856  -17.1328   21.7636 H   0  0  0  0  0  0
  -27.2090  -17.9598   20.3180 H   0  0  0  0  0  0
  -27.3028  -18.8006   21.8594 H   0  0  0  0  0  0
  -31.0206  -17.4554   19.9946 H   0  0  0  0  0  0
  -29.5446  -17.1522   19.1240 H   0  0  0  0  0  0
  -27.1757  -24.9333   21.9564 H   0  0  0  0  0  0
  -28.5743  -23.9503   22.2998 H   0  0  0  0  0  0
  -28.1417  -24.9820   18.5755 H   0  0  0  0  0  0
  -29.4706  -24.7890   19.6202 H   0  0  0  0  0  0
  -30.5201  -18.7811   18.1177 H   0  0  0  0  0  0
  -28.8729  -15.5962   21.0020 H   0  0  0  0  0  0
  -25.7579  -23.0488   22.1877 H   0  0  0  0  0  0
  -26.6514  -23.2798   23.5248 H   0  0  0  0  0  0
  -27.0232  -22.0645   22.4982 H   0  0  0  0  0  0
  1 25  1  0  0  0
  1 30  2  0  0  0
  1 87  1  0  0  0
  2  3  1  0  0  0
  2 25  1  0  0  0
  2 89  1  0  0  0
  2 90  1  0  0  0
  3  4  1  0  0  0
  3 91  1  0  0  0
  3 92  1  0  0  0
  4  5  1  0  0  0
  4 93  1  0  0  0
  4 94  1  0  0  0
  5  6  1  0  0  0
  5 26  1  0  0  0
  5 95  1  0  0  0
  6 25  1  0  0  0
  6 96  1  0  0  0
  6 97  1  0  0  0
  7  8  2  0  0  0
  7 26  1  0  0  0
  7 29  1  0  0  0
  8  9  1  0  0  0
  8 22  1  0  0  0
  9 10  1  0  0  0
  9 27  2  0  0  0
 10 11  2  0  0  0
 10 15  1  0  0  0
 11 12  1  0  0  0
 11 98  1  0  0  0
 12 13  2  0  0  0
 12 99  1  0  0  0
 13 14  1  0  0  0
 13 31  1  0  0  0
 14 15  2  0  0  0
 14100  1  0  0  0
 15101  1  0  0  0
 16 17  2  0  0  0
 16 21  1  0  0  0
 16 31  1  0  0  0
 17 18  1  0  0  0
 17102  1  0  0  0
 18 19  2  0  0  0
 18103  1  0  0  0
 19 20  1  0  0  0
 19 24  1  0  0  0
 20 21  2  0  0  0
 20104  1  0  0  0
 21 23  1  0  0  0
 22 28  1  0  0  0
 22 32  2  0  0  0
 26 27  1  0  0  0
 28105  1  0  0  0
 28106  1  0  0  0
 29107  1  0  0  0
 29108  1  0  0  0
 33 34  1  0  0  0
 33 66  1  0  0  0
 33 70  2  0  0  0
 34 36  1  0  0  0
 34 59  1  0  0  0
 34109  1  0  0  0
 35 44  2  0  0  0
 35 45  1  0  0  0
 35 68  1  0  0  0
 36 56  1  0  0  0
 36110  1  0  0  0
 37 39  1  0  0  0
 37 47  1  0  0  0
 37 66  1  0  0  0
 37111  1  0  0  0
 38 43  2  0  0  0
 38 46  1  0  0  0
 38 47  1  0  0  0
 39 64  1  0  0  0
 39 67  2  0  0  0
 40 52  1  0  0  0
 40 53  2  0  0  0
 40 58  1  0  0  0
 41112  1  0  0  0
 41113  1  0  0  0
 41114  1  0  0  0
 41 48  1  0  0  0
 42 43  1  0  0  0
 42 66  1  0  0  0
 42115  1  0  0  0
 42116  1  0  0  0
 43 44  1  0  0  0
 44117  1  0  0  0
 45 46  2  0  0  0
 45118  1  0  0  0
 46119  1  0  0  0
 47120  1  0  0  0
 47121  1  0  0  0
 48 56  1  0  0  0
 48 65  1  0  0  0
 48122  1  0  0  0
 49 50  1  0  0  0
 49 53  1  0  0  0
 49 64  1  0  0  0
 49123  1  0  0  0
 50 51  1  0  0  0
 50124  1  0  0  0
 50125  1  0  0  0
 51 52  1  0  0  0
 51126  1  0  0  0
 51127  1  0  0  0
 52128  1  0  0  0
 52129  1  0  0  0
 53 54  1  0  0  0
 54 55  2  0  0  0
 54130  1  0  0  0
 55 57  1  0  0  0
 55131  1  0  0  0
 56 69  2  0  0  0
 57 58  2  0  0  0
 57132  1  0  0  0
 58133  1  0  0  0
 59 60  1  0  0  0
 59 61  1  0  0  0
 59 62  1  0  0  0
 60134  1  0  0  0
 60135  1  0  0  0
 60136  1  0  0  0
 61137  1  0  0  0
 61138  1  0  0  0
 61139  1  0  0  0
 62140  1  0  0  0
 62141  1  0  0  0
 62142  1  0  0  0
 63 65  1  0  0  0
 63143  1  0  0  0
 63144  1  0  0  0
 63145  1  0  0  0
 64146  1  0  0  0
 65147  1  0  0  0
 68 82  1  0  0  0
 71 73  1  0  0  0
 71 74  2  0  0  0
 71148  1  0  0  0
 72 73  2  0  0  0
 72 86  1  0  0  0
 72149  1  0  0  0
 73 84  1  0  0  0
 74 83  1  0  0  0
 74 86  1  0  0  0
 75150  1  0  0  0
 75151  1  0  0  0
 75152  1  0  0  0
 75 83  1  0  0  0
 76 83  1  0  0  0
 76153  1  0  0  0
 76154  1  0  0  0
 76155  1  0  0  0
 77156  1  0  0  0
 77157  1  0  0  0
 77158  1  0  0  0
 77 84  1  0  0  0
 78159  1  0  0  0
 78160  1  0  0  0
 78161  1  0  0  0
 78 85  1  0  0  0
 79 85  1  0  0  0
 79162  1  0  0  0
 79163  1  0  0  0
 79164  1  0  0  0
 80 85  1  0  0  0
 80 87  1  0  0  0
 80165  1  0  0  0
 80166  1  0  0  0
 81 84  1  0  0  0
 81 88  1  0  0  0
 81167  1  0  0  0
 81168  1  0  0  0
 82 84  1  0  0  0
 82169  1  0  0  0
 82170  1  0  0  0
 83171  1  0  0  0
 85 86  1  0  0  0
 87172  1  0  0  0
 88173  1  0  0  0
 88174  1  0  0  0
 88175  1  0  0  0
M  CHG  1  88   1
M  ISO  4   1 100  68 101  82 101  87 100
M  END
> <chiral flag>
0

> <version>
0

> <s_m_source_file>
/data/baiqing/PycharmProjects/Reinvent-master-3.2/result/LINK_invent/BTK/process_docking_weight1_custom_sum_contain_oxygen_bond_distance_aromatic_linkinvent_7_9_3/rearranged_h_0112.sdf

> <i_m_source_file_index>
70

> <r_mmod_Potential_Energy-OPLS-2005>
-72.340217590332

> <r_mmod_Stretch_Energy-OPLS-2005>
141.420776367188

> <r_mmod_Bend_Energy-OPLS-2005>
222.876480102539

> <r_mmod_Torsional_Energy-OPLS-2005>
292.164276123047

> <r_mmod_Improper_Torsional_Energy-OPLS-2005>
8.11778163909912

> <r_mmod_Van_der_Waal_Energy-OPLS-2005>
117.328048706055

> <r_mmod_Electrostatic_Energy-OPLS-2005>
-465.636810302734

> <r_mmod_Solvation_Energy-OPLS-2005>
-466.773193359375

> <b_mmod_Minimization_Converged-OPLS-2005>
0

> <r_mmod_RMS_Derivative-OPLS-2005>
5.67802143096924

$$$$
70
                    3D
 Structure written by MMmdl.
168176  0  0  1  0            999 V2000
  -30.6796  -14.7688   20.4188 C   0  0  0  0  0  0
  -30.3907  -12.4563   19.4673 C   0  0  0  0  0  0
  -29.4764  -12.4813   18.2259 C   0  0  0  0  0  0
  -28.0119  -12.2865   18.6536 C   0  0  0  0  0  0
  -27.6168  -13.2139   19.8331 C   0  0  2  0  0  0
  -28.6728  -13.2470   20.9607 C   0  0  0  0  0  0
  -25.2454  -13.8130   20.5773 C   0  0  0  0  0  0
  -24.1731  -13.0391   20.9258 C   0  0  0  0  0  0
  -24.6325  -11.6880   20.8819 C   0  0  0  0  0  0
  -23.9035  -10.4250   21.0447 C   0  0  0  0  0  0
  -24.3601   -9.4166   21.9222 C   0  0  0  0  0  0
  -23.6273   -8.2201   22.0770 C   0  0  0  0  0  0
  -22.4258   -8.0236   21.3536 C   0  0  0  0  0  0
  -21.9898   -9.0230   20.4648 C   0  0  0  0  0  0
  -22.7227  -10.2099   20.3069 C   0  0  0  0  0  0
  -21.6834   -6.0725   22.5275 C   0  0  0  0  0  0
  -21.4007   -6.5646   23.8224 C   0  0  0  0  0  0
  -21.3666   -5.6789   24.9172 C   0  0  0  0  0  0
  -21.6047   -4.3052   24.7223 C   0  0  0  0  0  0
  -21.8813   -3.8142   23.4332 C   0  0  0  0  0  0
  -21.9192   -4.6967   22.3398 C   0  0  0  0  0  0
  -22.7765  -13.5173   21.1907 C   0  0  0  0  0  0
  -22.1655   -4.2149   21.0964 F   0  0  0  0  0  0
  -21.5642   -3.4534   25.7725 F   0  0  0  0  0  0
  -29.9651  -13.5792   20.3467 N   0  0  0  0  0  0
  -26.2830  -12.9284   20.3305 N   0  0  0  0  0  0
  -25.9238  -11.6459   20.5844 N   0  0  0  0  0  0
  -22.0424  -12.8141   22.0474 N   0  0  0  0  0  0
  -25.4193  -15.1845   20.4258 N   0  0  0  0  0  0
  -31.8871  -14.7286   20.1789 O   0  0  0  0  0  0
  -21.6621   -6.8858   21.4231 O   0  0  0  0  0  0
  -22.3470  -14.5516   20.6802 O   0  0  0  0  0  0
  -24.6396  -31.8438   23.1839 C   0  0  0  0  0  0
  -25.9164  -32.4726   23.8245 C   0  0  1  0  0  0
  -27.2577  -27.1762   20.1200 C   0  0  0  0  0  0
  -25.5976  -33.8526   24.2170 N   0  0  0  0  0  0
  -23.4472  -30.4623   21.5237 C   0  0  2  0  0  0
  -24.9013  -28.8913   20.0969 C   0  0  0  0  0  0
  -22.7568  -29.4541   22.4801 C   0  0  0  0  0  0
  -18.0310  -28.1379   22.8465 C   0  0  0  0  0  0
  -24.1487  -36.7241   23.2664 C   0  0  0  0  0  0
  -25.9975  -30.7386   21.3682 C   0  0  0  0  0  0
  -26.0771  -29.3470   20.7100 C   0  0  0  0  0  0
  -27.2460  -28.5053   20.7059 C   0  0  0  0  0  0
  -26.0524  -26.8003   19.4890 C   0  0  0  0  0  0
  -24.9052  -27.6302   19.4735 C   0  0  0  0  0  0
  -23.6704  -29.7852   20.1433 C   0  0  0  0  0  0
  -25.4124  -36.3030   24.0323 C   0  0  1  0  0  0
  -20.5935  -28.3712   23.1199 C   0  0  2  0  0  0
  -20.6785  -26.9401   22.5412 C   0  0  0  0  0  0
  -19.5782  -26.6327   21.5213 C   0  0  0  0  0  0
  -18.1929  -26.7940   22.1562 C   0  0  0  0  0  0
  -19.1575  -28.8853   23.2851 C   0  0  0  0  0  0
  -18.9498  -30.1465   23.8858 C   0  0  0  0  0  0
  -17.6507  -30.6575   24.0561 C   0  0  0  0  0  0
  -25.9086  -34.9423   23.5033 C   0  0  0  0  0  0
  -16.5396  -29.9073   23.6331 C   0  0  0  0  0  0
  -16.7297  -28.6506   23.0318 C   0  0  0  0  0  0
  -26.4463  -31.6632   25.0715 C   0  0  0  0  0  0
  -25.3634  -31.3866   26.1423 C   0  0  0  0  0  0
  -27.0353  -30.3052   24.6297 C   0  0  0  0  0  0
  -27.6049  -32.4378   25.7431 C   0  0  0  0  0  0
  -27.5564  -37.1768   24.8469 C   0  0  0  0  0  0
  -21.4277  -29.3058   22.3571 N   0  0  0  0  0  0
  -26.4239  -37.3761   23.9463 N   0  0  0  0  0  0
  -24.7152  -31.0337   22.0823 N   0  0  0  0  0  0
  -23.4246  -28.8056   23.2902 O   0  0  0  0  0  0
  -28.3637  -26.2591   20.2225 O   0  0  0  0  0  0
  -26.5657  -34.8931   22.4607 O   0  0  0  0  0  0
  -23.5498  -32.1222   23.7079 O   0  0  0  0  0  0
  -30.8667  -18.6045   20.7883 C   0  0  0  0  0  0
  -28.9530  -18.0891   19.4351 C   0  0  0  0  0  0
  -30.7864  -17.1275   21.4195 C   0  0  0  0  0  0
  -28.8772  -16.6019   20.0096 C   0  0  0  0  0  0
  -29.5060  -19.2767   20.3353 C   0  0  0  0  0  0
  -27.1515  -23.3736   21.0766 C   0  0  0  0  0  0
  -31.8078  -21.3795   18.7266 C   0  0  0  0  0  0
  -29.7512  -21.3330   17.1970 C   0  0  0  0  0  0
  -29.3955  -22.0921   20.4040 C   0  0  0  0  0  0
  -28.5648  -24.8912   19.5307 C   0  0  0  0  0  0
  -28.2830  -23.3108   20.0331 C   0  0  2  0  0  0
  -30.4301  -20.7414   18.4456 C   0  0  0  0  0  0
  -30.0883  -16.0285   20.6623 N   0  0  0  0  0  0
  -29.4973  -20.7056   19.6314 N   0  3  1  0  0  0
  -31.4363  -12.5175   19.1640 H   0  0  0  0  0  0
  -30.2870  -11.5000   19.9843 H   0  0  0  0  0  0
  -29.7598  -11.7021   17.5172 H   0  0  0  0  0  0
  -29.5798  -13.4322   17.7030 H   0  0  0  0  0  0
  -27.8815  -11.2398   18.9384 H   0  0  0  0  0  0
  -27.3393  -12.4444   17.8093 H   0  0  0  0  0  0
  -27.5655  -14.2016   19.3946 H   0  0  0  0  0  0
  -28.7218  -12.2864   21.4757 H   0  0  0  0  0  0
  -28.4026  -13.9867   21.7147 H   0  0  0  0  0  0
  -25.2741   -9.5630   22.4811 H   0  0  0  0  0  0
  -23.9998   -7.4561   22.7460 H   0  0  0  0  0  0
  -21.0849   -8.8718   19.8922 H   0  0  0  0  0  0
  -22.3709  -10.9634   19.6174 H   0  0  0  0  0  0
  -21.1997   -7.6143   23.9717 H   0  0  0  0  0  0
  -21.1507   -6.0516   25.9076 H   0  0  0  0  0  0
  -22.0600   -2.7600   23.2817 H   0  0  0  0  0  0
  -22.4057  -11.9757   22.4734 H   0  0  0  0  0  0
  -21.1073  -13.1161   22.2779 H   0  0  0  0  0  0
  -24.6584  -15.8397   20.5661 H   0  0  0  0  0  0
  -26.2881  -15.6305   20.1615 H   0  0  0  0  0  0
  -26.7259  -32.5347   23.1013 H   0  0  0  0  0  0
  -25.0266  -33.9680   25.0396 H   0  0  0  0  0  0
  -22.7494  -31.2878   21.3682 H   0  0  0  0  0  0
  -23.3789  -35.9540   23.3274 H   0  0  0  0  0  0
  -24.3599  -36.8870   22.2095 H   0  0  0  0  0  0
  -23.7146  -37.6368   23.6743 H   0  0  0  0  0  0
  -26.1390  -31.4891   20.5878 H   0  0  0  0  0  0
  -26.8699  -30.7969   22.0075 H   0  0  0  0  0  0
  -28.1403  -28.8644   21.1953 H   0  0  0  0  0  0
  -25.9728  -25.8220   19.0373 H   0  0  0  0  0  0
  -24.0057  -27.2696   18.9907 H   0  0  0  0  0  0
  -23.7887  -30.5591   19.3834 H   0  0  0  0  0  0
  -22.7882  -29.2208   19.8401 H   0  0  0  0  0  0
  -25.1269  -36.1846   25.0801 H   0  0  0  0  0  0
  -21.0071  -28.3316   24.1301 H   0  0  0  0  0  0
  -20.5591  -26.2352   23.3659 H   0  0  0  0  0  0
  -21.6655  -26.7316   22.1271 H   0  0  0  0  0  0
  -19.6971  -25.6219   21.1255 H   0  0  0  0  0  0
  -19.6764  -27.3140   20.6768 H   0  0  0  0  0  0
  -17.4257  -26.6745   21.3920 H   0  0  0  0  0  0
  -18.0254  -26.0030   22.8868 H   0  0  0  0  0  0
  -19.7998  -30.7267   24.2169 H   0  0  0  0  0  0
  -17.5071  -31.6243   24.5181 H   0  0  0  0  0  0
  -15.5386  -30.2972   23.7685 H   0  0  0  0  0  0
  -15.8691  -28.0843   22.7003 H   0  0  0  0  0  0
  -24.5940  -30.7054   25.7783 H   0  0  0  0  0  0
  -24.8698  -32.3064   26.4593 H   0  0  0  0  0  0
  -25.7861  -30.9265   27.0377 H   0  0  0  0  0  0
  -26.2998  -29.6778   24.1271 H   0  0  0  0  0  0
  -27.3973  -29.7338   25.4850 H   0  0  0  0  0  0
  -27.8856  -30.4329   23.9596 H   0  0  0  0  0  0
  -27.2785  -33.3818   26.1796 H   0  0  0  0  0  0
  -28.3921  -32.6664   25.0255 H   0  0  0  0  0  0
  -28.0678  -31.8644   26.5473 H   0  0  0  0  0  0
  -28.2521  -38.0114   24.7521 H   0  0  0  0  0  0
  -28.1019  -36.2612   24.6158 H   0  0  0  0  0  0
  -27.2317  -37.1265   25.8871 H   0  0  0  0  0  0
  -20.9447  -29.8813   21.6809 H   0  0  0  0  0  0
  -26.0067  -38.2784   24.1554 H   0  0  0  0  0  0
  -31.5405  -18.5455   19.9331 H   0  0  0  0  0  0
  -31.3813  -19.2515   21.5018 H   0  0  0  0  0  0
  -27.9689  -18.3640   19.0569 H   0  0  0  0  0  0
  -29.5724  -17.9903   18.5428 H   0  0  0  0  0  0
  -30.2806  -17.1823   22.3845 H   0  0  0  0  0  0
  -31.7972  -16.7982   21.6709 H   0  0  0  0  0  0
  -28.6332  -15.9764   19.1537 H   0  0  0  0  0  0
  -28.0457  -16.5152   20.7083 H   0  0  0  0  0  0
  -28.8578  -19.3596   21.2079 H   0  0  0  0  0  0
  -26.7890  -22.3826   21.3527 H   0  0  0  0  0  0
  -26.2999  -23.9318   20.6778 H   0  0  0  0  0  0
  -27.4690  -23.8880   21.9856 H   0  0  0  0  0  0
  -32.5597  -21.0404   18.0116 H   0  0  0  0  0  0
  -32.1774  -21.1133   19.7173 H   0  0  0  0  0  0
  -31.7722  -22.4669   18.6593 H   0  0  0  0  0  0
  -30.4023  -21.2598   16.3254 H   0  0  0  0  0  0
  -29.4904  -22.3842   17.3201 H   0  0  0  0  0  0
  -28.8429  -20.7849   16.9449 H   0  0  0  0  0  0
  -29.2358  -21.8126   21.4438 H   0  0  0  0  0  0
  -30.3805  -22.5463   20.4548 H   0  0  0  0  0  0
  -28.0317  -24.9849   18.5851 H   0  0  0  0  0  0
  -29.6050  -24.9079   19.2035 H   0  0  0  0  0  0
  -27.8006  -22.8833   19.1511 H   0  0  0  0  0  0
  -30.6706  -19.7218   18.1560 H   0  0  0  0  0  0
  -28.5842  -20.6538   19.2147 H   0  0  0  0  0  0
  1 25  1  0  0  0
  1 30  2  0  0  0
  1 83  1  0  0  0
  2  3  1  0  0  0
  2 25  1  0  0  0
  2 85  1  0  0  0
  2 86  1  0  0  0
  3  4  1  0  0  0
  3 87  1  0  0  0
  3 88  1  0  0  0
  4  5  1  0  0  0
  4 89  1  0  0  0
  4 90  1  0  0  0
  5  6  1  0  0  0
  5 26  1  0  0  0
  5 91  1  0  0  0
  6 25  1  0  0  0
  6 92  1  0  0  0
  6 93  1  0  0  0
  7  8  2  0  0  0
  7 26  1  0  0  0
  7 29  1  0  0  0
  8  9  1  0  0  0
  8 22  1  0  0  0
  9 10  1  0  0  0
  9 27  2  0  0  0
 10 11  2  0  0  0
 10 15  1  0  0  0
 11 12  1  0  0  0
 11 94  1  0  0  0
 12 13  2  0  0  0
 12 95  1  0  0  0
 13 14  1  0  0  0
 13 31  1  0  0  0
 14 15  2  0  0  0
 14 96  1  0  0  0
 15 97  1  0  0  0
 16 17  2  0  0  0
 16 21  1  0  0  0
 16 31  1  0  0  0
 17 18  1  0  0  0
 17 98  1  0  0  0
 18 19  2  0  0  0
 18 99  1  0  0  0
 19 20  1  0  0  0
 19 24  1  0  0  0
 20 21  2  0  0  0
 20100  1  0  0  0
 21 23  1  0  0  0
 22 28  1  0  0  0
 22 32  2  0  0  0
 26 27  1  0  0  0
 28101  1  0  0  0
 28102  1  0  0  0
 29103  1  0  0  0
 29104  1  0  0  0
 33 34  1  0  0  0
 33 66  1  0  0  0
 33 70  2  0  0  0
 34 36  1  0  0  0
 34 59  1  0  0  0
 34105  1  0  0  0
 35 44  2  0  0  0
 35 45  1  0  0  0
 35 68  1  0  0  0
 36 56  1  0  0  0
 36106  1  0  0  0
 37 39  1  0  0  0
 37 47  1  0  0  0
 37 66  1  0  0  0
 37107  1  0  0  0
 38 43  2  0  0  0
 38 46  1  0  0  0
 38 47  1  0  0  0
 39 64  1  0  0  0
 39 67  2  0  0  0
 40 52  1  0  0  0
 40 53  2  0  0  0
 40 58  1  0  0  0
 41108  1  0  0  0
 41109  1  0  0  0
 41110  1  0  0  0
 41 48  1  0  0  0
 42 43  1  0  0  0
 42 66  1  0  0  0
 42111  1  0  0  0
 42112  1  0  0  0
 43 44  1  0  0  0
 44113  1  0  0  0
 45 46  2  0  0  0
 45114  1  0  0  0
 46115  1  0  0  0
 47116  1  0  0  0
 47117  1  0  0  0
 48 56  1  0  0  0
 48 65  1  0  0  0
 48118  1  0  0  0
 49 50  1  0  0  0
 49 53  1  0  0  0
 49 64  1  0  0  0
 49119  1  0  0  0
 50 51  1  0  0  0
 50120  1  0  0  0
 50121  1  0  0  0
 51 52  1  0  0  0
 51122  1  0  0  0
 51123  1  0  0  0
 52124  1  0  0  0
 52125  1  0  0  0
 53 54  1  0  0  0
 54 55  2  0  0  0
 54126  1  0  0  0
 55 57  1  0  0  0
 55127  1  0  0  0
 56 69  2  0  0  0
 57 58  2  0  0  0
 57128  1  0  0  0
 58129  1  0  0  0
 59 60  1  0  0  0
 59 61  1  0  0  0
 59 62  1  0  0  0
 60130  1  0  0  0
 60131  1  0  0  0
 60132  1  0  0  0
 61133  1  0  0  0
 61134  1  0  0  0
 61135  1  0  0  0
 62136  1  0  0  0
 62137  1  0  0  0
 62138  1  0  0  0
 63 65  1  0  0  0
 63139  1  0  0  0
 63140  1  0  0  0
 63141  1  0  0  0
 64142  1  0  0  0
 65143  1  0  0  0
 68 80  1  0  0  0
 71 73  1  0  0  0
 71144  1  0  0  0
 71145  1  0  0  0
 71 75  1  0  0  0
 72 74  1  0  0  0
 72 75  1  0  0  0
 72146  1  0  0  0
 72147  1  0  0  0
 73 83  1  0  0  0
 73148  1  0  0  0
 73149  1  0  0  0
 74 83  1  0  0  0
 74150  1  0  0  0
 74151  1  0  0  0
 75 84  1  0  0  0
 75152  1  0  0  0
 76153  1  0  0  0
 76154  1  0  0  0
 76155  1  0  0  0
 76 81  1  0  0  0
 77156  1  0  0  0
 77157  1  0  0  0
 77158  1  0  0  0
 77 82  1  0  0  0
 78 82  1  0  0  0
 78159  1  0  0  0
 78160  1  0  0  0
 78161  1  0  0  0
 79 81  1  0  0  0
 79162  1  0  0  0
 79163  1  0  0  0
 79 84  1  0  0  0
 80 81  1  0  0  0
 80164  1  0  0  0
 80165  1  0  0  0
 81166  1  0  0  0
 82 84  1  0  0  0
 82167  1  0  0  0
 84168  1  0  0  0
M  CHG  1  84   1
M  ISO  4   1 100  68 101  80 101  83 100
M  END
> <chiral flag>
0

> <version>
0

> <s_m_source_file>
/data/baiqing/PycharmProjects/Reinvent-master-3.2/result/LINK_invent/BTK/process_docking_weight1_custom_sum_contain_oxygen_bond_distance_aromatic_linkinvent_7_9_3/rearranged_h_0112.sdf

> <i_m_source_file_index>
71

> <r_mmod_Potential_Energy-OPLS-2005>
623.948486328125

> <r_mmod_Stretch_Energy-OPLS-2005>
225.701141357422

> <r_mmod_Bend_Energy-OPLS-2005>
329.931457519531

> <r_mmod_Torsional_Energy-OPLS-2005>
373.959533691406

> <r_mmod_Improper_Torsional_Energy-OPLS-2005>
2.41479468345642

> <r_mmod_Van_der_Waal_Energy-OPLS-2005>
115.225868225098

> <r_mmod_Electrostatic_Energy-OPLS-2005>
-118.372146606445

> <r_mmod_Solvation_Energy-OPLS-2005>
-428.206085205078

> <b_mmod_Minimization_Converged-OPLS-2005>
0

> <r_mmod_RMS_Derivative-OPLS-2005>
7.16463661193848

$$$$
71
                    3D
 Structure written by MMmdl.
169178  0  0  1  0            999 V2000
  -30.5086  -15.0354   20.4088 C   0  0  0  0  0  0
  -30.4513  -12.6563   19.4652 C   0  0  0  0  0  0
  -29.5140  -12.5237   18.2415 C   0  0  0  0  0  0
  -28.0576  -12.2885   18.6873 C   0  0  0  0  0  0
  -27.6270  -13.2431   19.8292 C   0  0  2  0  0  0
  -28.6829  -13.3188   20.9508 C   0  0  0  0  0  0
  -25.2485  -13.8194   20.5713 C   0  0  0  0  0  0
  -24.1792  -13.0421   20.9265 C   0  0  0  0  0  0
  -24.6399  -11.6908   20.8798 C   0  0  0  0  0  0
  -23.9060  -10.4289   21.0424 C   0  0  0  0  0  0
  -24.3596   -9.4217   21.9206 C   0  0  0  0  0  0
  -23.6284   -8.2250   22.0773 C   0  0  0  0  0  0
  -22.4275   -8.0274   21.3551 C   0  0  0  0  0  0
  -21.9907   -9.0256   20.4662 C   0  0  0  0  0  0
  -22.7230  -10.2138   20.3082 C   0  0  0  0  0  0
  -21.6849   -6.0723   22.5258 C   0  0  0  0  0  0
  -21.4008   -6.5636   23.8182 C   0  0  0  0  0  0
  -21.3663   -5.6796   24.9157 C   0  0  0  0  0  0
  -21.6052   -4.3059   24.7216 C   0  0  0  0  0  0
  -21.8820   -3.8142   23.4343 C   0  0  0  0  0  0
  -21.9199   -4.6954   22.3389 C   0  0  0  0  0  0
  -22.7821  -13.5224   21.1879 C   0  0  0  0  0  0
  -22.1671   -4.2121   21.0980 F   0  0  0  0  0  0
  -21.5631   -3.4560   25.7748 F   0  0  0  0  0  0
  -29.9303  -13.7657   20.3142 N   0  0  0  0  0  0
  -26.2900  -12.9399   20.3278 N   0  0  0  0  0  0
  -25.9339  -11.6540   20.5805 N   0  0  0  0  0  0
  -22.0467  -12.8226   22.0439 N   0  0  0  0  0  0
  -25.4127  -15.1904   20.4013 N   0  0  0  0  0  0
  -31.7377  -15.0932   20.2935 O   0  0  0  0  0  0
  -21.6657   -6.8858   21.4210 O   0  0  0  0  0  0
  -22.3530  -14.5538   20.6736 O   0  0  0  0  0  0
  -24.6467  -31.8365   23.1817 C   0  0  0  0  0  0
  -25.9203  -32.4662   23.8240 C   0  0  1  0  0  0
  -27.2239  -27.0768   20.1631 C   0  0  0  0  0  0
  -25.5900  -33.8467   24.2113 N   0  0  0  0  0  0
  -23.4576  -30.4526   21.5278 C   0  0  2  0  0  0
  -24.9102  -28.8634   20.1170 C   0  0  0  0  0  0
  -22.7586  -29.4503   22.4811 C   0  0  0  0  0  0
  -18.0313  -28.1384   22.8476 C   0  0  0  0  0  0
  -24.1481  -36.7237   23.2659 C   0  0  0  0  0  0
  -26.0187  -30.6865   21.3984 C   0  0  0  0  0  0
  -26.0893  -29.2926   20.7406 C   0  0  0  0  0  0
  -27.2495  -28.4197   20.7361 C   0  0  0  0  0  0
  -26.0185  -26.7602   19.5053 C   0  0  0  0  0  0
  -24.8907  -27.6117   19.4819 C   0  0  0  0  0  0
  -23.6936  -29.7782   20.1510 C   0  0  0  0  0  0
  -25.4118  -36.3003   24.0314 C   0  0  1  0  0  0
  -20.5924  -28.3706   23.1193 C   0  0  2  0  0  0
  -20.6772  -26.9384   22.5394 C   0  0  0  0  0  0
  -19.5747  -26.6358   21.5203 C   0  0  0  0  0  0
  -18.1935  -26.7929   22.1626 C   0  0  0  0  0  0
  -19.1572  -28.8868   23.2827 C   0  0  0  0  0  0
  -18.9504  -30.1470   23.8847 C   0  0  0  0  0  0
  -17.6504  -30.6582   24.0553 C   0  0  0  0  0  0
  -25.9065  -34.9385   23.5033 C   0  0  0  0  0  0
  -16.5391  -29.9072   23.6335 C   0  0  0  0  0  0
  -16.7303  -28.6494   23.0342 C   0  0  0  0  0  0
  -26.4515  -31.6571   25.0720 C   0  0  0  0  0  0
  -25.3674  -31.3761   26.1396 C   0  0  0  0  0  0
  -27.0413  -30.2964   24.6379 C   0  0  0  0  0  0
  -27.6001  -32.4410   25.7482 C   0  0  0  0  0  0
  -27.5560  -37.1758   24.8471 C   0  0  0  0  0  0
  -21.4273  -29.3042   22.3564 N   0  0  0  0  0  0
  -26.4280  -37.3723   23.9415 N   0  0  0  0  0  0
  -24.7274  -31.0153   22.0900 N   0  0  0  0  0  0
  -23.4169  -28.8046   23.3003 O   0  0  0  0  0  0
  -28.2932  -26.0930   20.1253 O   0  0  0  0  0  0
  -26.5704  -34.8916   22.4653 O   0  0  0  0  0  0
  -23.5561  -32.1289   23.6980 O   0  0  0  0  0  0
  -31.5805  -20.9254   19.9171 C   0  0  0  0  0  0
  -30.6287  -21.9665   19.9507 C   0  0  0  0  0  0
  -31.2318  -19.5677   20.1525 C   0  0  0  0  0  0
  -29.2774  -21.7091   20.2221 C   0  0  0  0  0  0
  -29.8823  -19.2280   20.4074 C   0  0  0  0  0  0
  -26.6703  -23.9648   16.5945 C   0  0  0  0  0  0
  -27.8514  -24.0178   17.5742 C   0  0  0  0  0  0
  -25.9201  -22.6602   16.8955 C   0  0  0  0  0  0
  -27.6312  -22.8650   18.5719 C   0  0  2  0  0  0
  -26.1782  -22.3689   18.3820 C   0  0  1  0  0  0
  -33.4799  -18.9156   20.6620 C   0  0  0  0  0  0
  -29.6276  -17.6824   20.9903 C   0  0  0  0  0  0
  -28.2453  -24.6000   20.6652 C   0  0  0  0  0  0
  -28.2047  -22.9827   20.0190 C   0  0  1  0  0  0
  -28.9446  -20.3236   20.4409 N   0  0  0  0  0  0
  -29.6870  -16.2097   20.3663 N   0  0  0  0  0  0
  -25.1693  -23.0397   19.2250 N   0  3  0  0  0  0
  -32.1779  -18.5634   20.1967 O   0  0  0  0  0  0
  -31.4689  -12.8549   19.1268 H   0  0  0  0  0  0
  -30.4983  -11.7228   20.0286 H   0  0  0  0  0  0
  -29.8428  -11.7031   17.6037 H   0  0  0  0  0  0
  -29.5695  -13.4255   17.6277 H   0  0  0  0  0  0
  -27.9821  -11.2540   19.0294 H   0  0  0  0  0  0
  -27.3785  -12.3802   17.8395 H   0  0  0  0  0  0
  -27.5727  -14.2313   19.3717 H   0  0  0  0  0  0
  -28.8148  -12.3569   21.4482 H   0  0  0  0  0  0
  -28.3818  -14.0324   21.7202 H   0  0  0  0  0  0
  -25.2696   -9.5718   22.4825 H   0  0  0  0  0  0
  -23.9975   -7.4651   22.7517 H   0  0  0  0  0  0
  -21.0831   -8.8787   19.8978 H   0  0  0  0  0  0
  -22.3653  -10.9701   19.6243 H   0  0  0  0  0  0
  -21.1992   -7.6144   23.9662 H   0  0  0  0  0  0
  -21.1486   -6.0551   25.9053 H   0  0  0  0  0  0
  -22.0597   -2.7601   23.2863 H   0  0  0  0  0  0
  -22.4079  -11.9873   22.4790 H   0  0  0  0  0  0
  -21.1108  -13.1292   22.2659 H   0  0  0  0  0  0
  -24.6255  -15.8261   20.4725 H   0  0  0  0  0  0
  -26.2191  -15.6101   19.9592 H   0  0  0  0  0  0
  -26.7255  -32.5257   23.0933 H   0  0  0  0  0  0
  -24.9930  -33.9542   25.0181 H   0  0  0  0  0  0
  -22.7690  -31.2826   21.3644 H   0  0  0  0  0  0
  -23.3755  -35.9552   23.3322 H   0  0  0  0  0  0
  -24.3562  -36.8898   22.2070 H   0  0  0  0  0  0
  -23.7231  -37.6418   23.6737 H   0  0  0  0  0  0
  -26.1889  -31.4373   20.6267 H   0  0  0  0  0  0
  -26.8805  -30.7282   22.0522 H   0  0  0  0  0  0
  -28.1606  -28.7537   21.2119 H   0  0  0  0  0  0
  -25.9398  -25.8140   18.9962 H   0  0  0  0  0  0
  -23.9972  -27.2778   18.9735 H   0  0  0  0  0  0
  -23.8529  -30.5523   19.3979 H   0  0  0  0  0  0
  -22.8052  -29.2292   19.8316 H   0  0  0  0  0  0
  -25.1302  -36.1827   25.0807 H   0  0  0  0  0  0
  -21.0026  -28.3337   24.1311 H   0  0  0  0  0  0
  -20.5653  -26.2314   23.3628 H   0  0  0  0  0  0
  -21.6637  -26.7370   22.1197 H   0  0  0  0  0  0
  -19.6881  -25.6258   21.1250 H   0  0  0  0  0  0
  -19.6695  -27.3171   20.6731 H   0  0  0  0  0  0
  -17.4190  -26.6697   21.4032 H   0  0  0  0  0  0
  -18.0312  -26.0079   22.9025 H   0  0  0  0  0  0
  -19.8004  -30.7271   24.2200 H   0  0  0  0  0  0
  -17.5080  -31.6271   24.5142 H   0  0  0  0  0  0
  -15.5384  -30.2943   23.7715 H   0  0  0  0  0  0
  -15.8714  -28.0813   22.7041 H   0  0  0  0  0  0
  -24.5877  -30.7094   25.7709 H   0  0  0  0  0  0
  -24.8824  -32.2913   26.4774 H   0  0  0  0  0  0
  -25.7931  -30.8965   27.0215 H   0  0  0  0  0  0
  -26.3027  -29.6610   24.1467 H   0  0  0  0  0  0
  -27.4055  -29.7364   25.4998 H   0  0  0  0  0  0
  -27.8933  -30.4182   23.9699 H   0  0  0  0  0  0
  -27.2565  -33.3769   26.1903 H   0  0  0  0  0  0
  -28.3841  -32.6881   25.0321 H   0  0  0  0  0  0
  -28.0620  -31.8655   26.5512 H   0  0  0  0  0  0
  -28.2546  -38.0077   24.7506 H   0  0  0  0  0  0
  -28.1083  -36.2591   24.6315 H   0  0  0  0  0  0
  -27.2270  -37.1403   25.8874 H   0  0  0  0  0  0
  -20.9480  -29.8757   21.6752 H   0  0  0  0  0  0
  -26.0142  -38.2786   24.1484 H   0  0  0  0  0  0
  -32.6037  -21.1990   19.7060 H   0  0  0  0  0  0
  -30.9475  -22.9726   19.7212 H   0  0  0  0  0  0
  -26.9922  -24.0263   15.5545 H   0  0  0  0  0  0
  -26.0187  -24.8228   16.7707 H   0  0  0  0  0  0
  -27.8980  -24.9963   18.0401 H   0  0  0  0  0  0
  -28.7963  -23.8828   17.0458 H   0  0  0  0  0  0
  -26.3461  -21.8523   16.2994 H   0  0  0  0  0  0
  -24.8639  -22.7156   16.6318 H   0  0  0  0  0  0
  -28.2009  -22.0551   18.1112 H   0  0  0  0  0  0
  -26.1136  -21.2961   18.5792 H   0  0  0  0  0  0
  -34.0482  -18.0115   20.8870 H   0  0  0  0  0  0
  -33.4208  -19.4893   21.5881 H   0  0  0  0  0  0
  -34.0445  -19.4821   19.9192 H   0  0  0  0  0  0
  -28.6330  -17.7382   21.4317 H   0  0  0  0  0  0
  -30.2838  -17.6270   21.8610 H   0  0  0  0  0  0
  -29.1126  -24.5734   21.3231 H   0  0  0  0  0  0
  -27.4212  -24.6351   21.3797 H   0  0  0  0  0  0
  -27.4254  -22.5649   20.6554 H   0  0  0  0  0  0
  -28.7572  -15.9430   20.0865 H   0  0  0  0  0  0
  -25.1455  -24.0289   19.0654 H   0  0  0  0  0  0
  -25.3163  -22.8639   20.2020 H   0  0  0  0  0  0
  -24.2602  -22.6740   18.9999 H   0  0  0  0  0  0
  1 25  1  0  0  0
  1 30  2  0  0  0
  1 86  1  0  0  0
  2  3  1  0  0  0
  2 25  1  0  0  0
  2 89  1  0  0  0
  2 90  1  0  0  0
  3  4  1  0  0  0
  3 91  1  0  0  0
  3 92  1  0  0  0
  4  5  1  0  0  0
  4 93  1  0  0  0
  4 94  1  0  0  0
  5  6  1  0  0  0
  5 26  1  0  0  0
  5 95  1  0  0  0
  6 25  1  0  0  0
  6 96  1  0  0  0
  6 97  1  0  0  0
  7  8  2  0  0  0
  7 26  1  0  0  0
  7 29  1  0  0  0
  8  9  1  0  0  0
  8 22  1  0  0  0
  9 10  1  0  0  0
  9 27  2  0  0  0
 10 11  2  0  0  0
 10 15  1  0  0  0
 11 12  1  0  0  0
 11 98  1  0  0  0
 12 13  2  0  0  0
 12 99  1  0  0  0
 13 14  1  0  0  0
 13 31  1  0  0  0
 14 15  2  0  0  0
 14100  1  0  0  0
 15101  1  0  0  0
 16 17  2  0  0  0
 16 21  1  0  0  0
 16 31  1  0  0  0
 17 18  1  0  0  0
 17102  1  0  0  0
 18 19  2  0  0  0
 18103  1  0  0  0
 19 20  1  0  0  0
 19 24  1  0  0  0
 20 21  2  0  0  0
 20104  1  0  0  0
 21 23  1  0  0  0
 22 28  1  0  0  0
 22 32  2  0  0  0
 26 27  1  0  0  0
 28105  1  0  0  0
 28106  1  0  0  0
 29107  1  0  0  0
 29108  1  0  0  0
 33 34  1  0  0  0
 33 66  1  0  0  0
 33 70  2  0  0  0
 34 36  1  0  0  0
 34 59  1  0  0  0
 34109  1  0  0  0
 35 44  2  0  0  0
 35 45  1  0  0  0
 35 68  1  0  0  0
 36 56  1  0  0  0
 36110  1  0  0  0
 37 39  1  0  0  0
 37 47  1  0  0  0
 37 66  1  0  0  0
 37111  1  0  0  0
 38 43  2  0  0  0
 38 46  1  0  0  0
 38 47  1  0  0  0
 39 64  1  0  0  0
 39 67  2  0  0  0
 40 52  1  0  0  0
 40 53  2  0  0  0
 40 58  1  0  0  0
 41112  1  0  0  0
 41113  1  0  0  0
 41114  1  0  0  0
 41 48  1  0  0  0
 42 43  1  0  0  0
 42 66  1  0  0  0
 42115  1  0  0  0
 42116  1  0  0  0
 43 44  1  0  0  0
 44117  1  0  0  0
 45 46  2  0  0  0
 45118  1  0  0  0
 46119  1  0  0  0
 47120  1  0  0  0
 47121  1  0  0  0
 48 56  1  0  0  0
 48 65  1  0  0  0
 48122  1  0  0  0
 49 50  1  0  0  0
 49 53  1  0  0  0
 49 64  1  0  0  0
 49123  1  0  0  0
 50 51  1  0  0  0
 50124  1  0  0  0
 50125  1  0  0  0
 51 52  1  0  0  0
 51126  1  0  0  0
 51127  1  0  0  0
 52128  1  0  0  0
 52129  1  0  0  0
 53 54  1  0  0  0
 54 55  2  0  0  0
 54130  1  0  0  0
 55 57  1  0  0  0
 55131  1  0  0  0
 56 69  2  0  0  0
 57 58  2  0  0  0
 57132  1  0  0  0
 58133  1  0  0  0
 59 60  1  0  0  0
 59 61  1  0  0  0
 59 62  1  0  0  0
 60134  1  0  0  0
 60135  1  0  0  0
 60136  1  0  0  0
 61137  1  0  0  0
 61138  1  0  0  0
 61139  1  0  0  0
 62140  1  0  0  0
 62141  1  0  0  0
 62142  1  0  0  0
 63 65  1  0  0  0
 63143  1  0  0  0
 63144  1  0  0  0
 63145  1  0  0  0
 64146  1  0  0  0
 65147  1  0  0  0
 68 83  1  0  0  0
 71 72  2  0  0  0
 71 73  1  0  0  0
 71148  1  0  0  0
 72 74  1  0  0  0
 72149  1  0  0  0
 73 75  2  0  0  0
 73 88  1  0  0  0
 74 84  1  0  0  0
 74 85  2  0  0  0
 75 82  1  0  0  0
 75 85  1  0  0  0
 76 77  1  0  0  0
 76 78  1  0  0  0
 76150  1  0  0  0
 76151  1  0  0  0
 77152  1  0  0  0
 77153  1  0  0  0
 77 79  1  0  0  0
 78 80  1  0  0  0
 78154  1  0  0  0
 78155  1  0  0  0
 79 80  1  0  0  0
 79 84  1  0  0  0
 79156  1  0  0  0
 80 87  1  0  0  0
 80157  1  0  0  0
 81 88  1  0  0  0
 81158  1  0  0  0
 81159  1  0  0  0
 81160  1  0  0  0
 82 86  1  0  0  0
 82161  1  0  0  0
 82162  1  0  0  0
 83163  1  0  0  0
 83164  1  0  0  0
 83 84  1  0  0  0
 84165  1  0  0  0
 86166  1  0  0  0
 87167  1  0  0  0
 87168  1  0  0  0
 87169  1  0  0  0
M  CHG  1  87   1
M  ISO  4   1 100  68 101  83 101  86 100
M  END
> <chiral flag>
0

> <version>
0

> <s_m_source_file>
/data/baiqing/PycharmProjects/Reinvent-master-3.2/result/LINK_invent/BTK/process_docking_weight1_custom_sum_contain_oxygen_bond_distance_aromatic_linkinvent_7_9_3/rearranged_h_0112.sdf

> <i_m_source_file_index>
72

> <r_mmod_Potential_Energy-OPLS-2005>
496.727386474609

> <r_mmod_Stretch_Energy-OPLS-2005>
334.690093994141

> <r_mmod_Bend_Energy-OPLS-2005>
423.388702392578

> <r_mmod_Torsional_Energy-OPLS-2005>
356.887451171875

> <r_mmod_Improper_Torsional_Energy-OPLS-2005>
11.5650987625122

> <r_mmod_Van_der_Waal_Energy-OPLS-2005>
121.628128051758

> <r_mmod_Electrostatic_Energy-OPLS-2005>
-482.519317626953

> <r_mmod_Solvation_Energy-OPLS-2005>
-522.408813476562

> <b_mmod_Minimization_Converged-OPLS-2005>
0

> <r_mmod_RMS_Derivative-OPLS-2005>
4.04595184326172

$$$$
72
                    3D
 Structure written by MMmdl.
164172  0  0  1  0            999 V2000
  -30.6468  -14.7602   20.4773 C   0  0  0  0  0  0
  -30.4290  -12.4713   19.4889 C   0  0  0  0  0  0
  -29.5129  -12.5033   18.2463 C   0  0  0  0  0  0
  -28.0409  -12.3221   18.6599 C   0  0  0  0  0  0
  -27.6388  -13.2359   19.8474 C   0  0  2  0  0  0
  -28.6821  -13.2016   20.9881 C   0  0  0  0  0  0
  -25.2499  -13.8195   20.5691 C   0  0  0  0  0  0
  -24.1811  -13.0434   20.9233 C   0  0  0  0  0  0
  -24.6412  -11.6915   20.8778 C   0  0  0  0  0  0
  -23.9082  -10.4294   21.0421 C   0  0  0  0  0  0
  -24.3627   -9.4209   21.9201 C   0  0  0  0  0  0
  -23.6302   -8.2246   22.0764 C   0  0  0  0  0  0
  -22.4282   -8.0290   21.3548 C   0  0  0  0  0  0
  -21.9914   -9.0267   20.4650 C   0  0  0  0  0  0
  -22.7247  -10.2149   20.3069 C   0  0  0  0  0  0
  -21.6852   -6.0737   22.5276 C   0  0  0  0  0  0
  -21.4014   -6.5637   23.8211 C   0  0  0  0  0  0
  -21.3665   -5.6792   24.9172 C   0  0  0  0  0  0
  -21.6046   -4.3055   24.7224 C   0  0  0  0  0  0
  -21.8822   -3.8145   23.4346 C   0  0  0  0  0  0
  -21.9193   -4.6963   22.3401 C   0  0  0  0  0  0
  -22.7834  -13.5217   21.1877 C   0  0  0  0  0  0
  -22.1655   -4.2139   21.0983 F   0  0  0  0  0  0
  -21.5631   -3.4548   25.7746 F   0  0  0  0  0  0
  -29.9831  -13.5505   20.4059 N   0  0  0  0  0  0
  -26.2928  -12.9408   20.3269 N   0  0  0  0  0  0
  -25.9341  -11.6548   20.5767 N   0  0  0  0  0  0
  -22.0479  -12.8212   22.0433 N   0  0  0  0  0  0
  -25.4148  -15.1914   20.4048 N   0  0  0  0  0  0
  -31.8393  -14.8146   20.1431 O   0  0  0  0  0  0
  -21.6641   -6.8887   21.4241 O   0  0  0  0  0  0
  -22.3520  -14.5525   20.6729 O   0  0  0  0  0  0
  -24.6299  -31.8563   23.2007 C   0  0  0  0  0  0
  -25.9130  -32.4763   23.8346 C   0  0  1  0  0  0
  -27.2118  -27.2553   20.1461 C   0  0  0  0  0  0
  -25.5931  -33.8566   24.2265 N   0  0  0  0  0  0
  -23.4299  -30.4785   21.5418 C   0  0  2  0  0  0
  -24.8799  -28.9300   20.1095 C   0  0  0  0  0  0
  -22.7507  -29.4603   22.4895 C   0  0  0  0  0  0
  -18.0318  -28.1370   22.8480 C   0  0  0  0  0  0
  -24.1491  -36.7281   23.2638 C   0  0  0  0  0  0
  -25.9771  -30.7648   21.3886 C   0  0  0  0  0  0
  -26.0492  -29.3867   20.7341 C   0  0  0  0  0  0
  -27.2188  -28.5583   20.7481 C   0  0  0  0  0  0
  -26.0419  -26.8977   19.4439 C   0  0  0  0  0  0
  -24.8804  -27.6922   19.4532 C   0  0  0  0  0  0
  -23.6507  -29.8168   20.1574 C   0  0  0  0  0  0
  -25.4121  -36.3066   24.0323 C   0  0  1  0  0  0
  -20.5903  -28.3701   23.1270 C   0  0  2  0  0  0
  -20.6811  -26.9394   22.5467 C   0  0  0  0  0  0
  -19.5811  -26.6295   21.5259 C   0  0  0  0  0  0
  -18.1980  -26.7895   22.1645 C   0  0  0  0  0  0
  -19.1555  -28.8856   23.2860 C   0  0  0  0  0  0
  -18.9452  -30.1470   23.8850 C   0  0  0  0  0  0
  -17.6450  -30.6586   24.0512 C   0  0  0  0  0  0
  -25.9063  -34.9441   23.5098 C   0  0  0  0  0  0
  -16.5344  -29.9055   23.6305 C   0  0  0  0  0  0
  -16.7294  -28.6463   23.0347 C   0  0  0  0  0  0
  -26.4502  -31.6585   25.0733 C   0  0  0  0  0  0
  -25.3717  -31.3756   26.1444 C   0  0  0  0  0  0
  -27.0357  -30.2992   24.6253 C   0  0  0  0  0  0
  -27.6050  -32.4327   25.7507 C   0  0  0  0  0  0
  -27.5583  -37.1793   24.8468 C   0  0  0  0  0  0
  -21.4216  -29.3027   22.3627 N   0  0  0  0  0  0
  -26.4298  -37.3763   23.9408 N   0  0  0  0  0  0
  -24.6974  -31.0522   22.0993 N   0  0  0  0  0  0
  -23.4201  -28.8161   23.3014 O   0  0  0  0  0  0
  -28.2764  -26.3210   20.1748 O   0  0  0  0  0  0
  -26.5632  -34.8911   22.4667 O   0  0  0  0  0  0
  -23.5444  -32.1388   23.7296 O   0  0  0  0  0  0
  -29.7882  -19.8649   19.9568 C   0  0  0  0  0  0
  -28.5263  -20.4418   21.6847 C   0  0  0  0  0  0
  -29.6791  -18.7209   20.7540 C   0  0  0  0  0  0
  -28.8730  -19.1125   21.8742 C   0  0  0  0  0  0
  -30.4054  -17.3737   20.5375 C   0  0  0  0  0  0
  -27.0147  -17.7961   22.9034 C   0  0  0  0  0  0
  -28.6621  -19.0231   24.3864 C   0  0  0  0  0  0
  -26.6687  -24.4520   21.0404 C   0  0  0  0  0  0
  -29.1254  -23.7189   20.7133 C   0  0  0  0  0  0
  -28.7771  -22.3444   19.9261 C   0  0  0  0  0  0
  -28.4654  -18.2684   23.0615 C   0  0  0  0  0  0
  -28.1064  -24.9859   20.8770 C   0  0  1  0  0  0
  -29.0709  -20.9581   20.5151 N   0  0  0  0  0  0
  -29.9135  -16.0630   20.7034 N   0  0  0  0  0  0
  -31.6781  -17.5517   20.1464 N   0  3  0  0  0  0
  -31.4721  -12.5820   19.1849 H   0  0  0  0  0  0
  -30.3675  -11.5007   19.9852 H   0  0  0  0  0  0
  -29.8033  -11.7195   17.5448 H   0  0  0  0  0  0
  -29.6351  -13.4493   17.7174 H   0  0  0  0  0  0
  -27.9105  -11.2773   18.9425 H   0  0  0  0  0  0
  -27.3803  -12.4902   17.8087 H   0  0  0  0  0  0
  -27.6204  -14.2494   19.4468 H   0  0  0  0  0  0
  -28.7235  -12.2117   21.4458 H   0  0  0  0  0  0
  -28.4106  -13.8963   21.7850 H   0  0  0  0  0  0
  -25.2782   -9.5682   22.4758 H   0  0  0  0  0  0
  -24.0014   -7.4635   22.7482 H   0  0  0  0  0  0
  -21.0842   -8.8792   19.8956 H   0  0  0  0  0  0
  -22.3715  -10.9690   19.6174 H   0  0  0  0  0  0
  -21.2000   -7.6145   23.9708 H   0  0  0  0  0  0
  -21.1480   -6.0527   25.9074 H   0  0  0  0  0  0
  -22.0594   -2.7607   23.2854 H   0  0  0  0  0  0
  -22.4083  -11.9877   22.4836 H   0  0  0  0  0  0
  -21.1099  -13.1236   22.2627 H   0  0  0  0  0  0
  -24.6342  -15.8306   20.5046 H   0  0  0  0  0  0
  -26.2250  -15.6249   19.9858 H   0  0  0  0  0  0
  -26.7205  -32.5422   23.1092 H   0  0  0  0  0  0
  -25.0065  -33.9724   25.0398 H   0  0  0  0  0  0
  -22.7276  -31.3013   21.3957 H   0  0  0  0  0  0
  -23.3753  -35.9610   23.3300 H   0  0  0  0  0  0
  -24.3587  -36.8900   22.2053 H   0  0  0  0  0  0
  -23.7247  -37.6485   23.6666 H   0  0  0  0  0  0
  -26.1230  -31.5233   20.6179 H   0  0  0  0  0  0
  -26.8540  -30.8133   22.0230 H   0  0  0  0  0  0
  -28.1093  -28.8969   21.2587 H   0  0  0  0  0  0
  -26.0092  -25.9635   18.9044 H   0  0  0  0  0  0
  -23.9939  -27.3468   18.9395 H   0  0  0  0  0  0
  -23.7767  -30.5943   19.4037 H   0  0  0  0  0  0
  -22.7701  -29.2499   19.8508 H   0  0  0  0  0  0
  -25.1300  -36.1910   25.0814 H   0  0  0  0  0  0
  -20.9995  -28.3349   24.1397 H   0  0  0  0  0  0
  -20.5723  -26.2322   23.3702 H   0  0  0  0  0  0
  -21.6691  -26.7439   22.1286 H   0  0  0  0  0  0
  -19.6980  -25.6164   21.1387 H   0  0  0  0  0  0
  -19.6774  -27.3059   20.6755 H   0  0  0  0  0  0
  -17.4253  -26.6604   21.4051 H   0  0  0  0  0  0
  -18.0387  -26.0069   22.9073 H   0  0  0  0  0  0
  -19.7926  -30.7332   24.2174 H   0  0  0  0  0  0
  -17.4990  -31.6294   24.5081 H   0  0  0  0  0  0
  -15.5346  -30.2947   23.7612 H   0  0  0  0  0  0
  -15.8710  -28.0752   22.7070 H   0  0  0  0  0  0
  -24.5881  -30.7124   25.7764 H   0  0  0  0  0  0
  -24.8927  -32.2940   26.4844 H   0  0  0  0  0  0
  -25.8009  -30.8932   27.0234 H   0  0  0  0  0  0
  -26.2954  -29.6730   24.1262 H   0  0  0  0  0  0
  -27.4002  -29.7269   25.4799 H   0  0  0  0  0  0
  -27.8850  -30.4256   23.9535 H   0  0  0  0  0  0
  -27.2653  -33.3623   26.2084 H   0  0  0  0  0  0
  -28.3858  -32.6897   25.0338 H   0  0  0  0  0  0
  -28.0729  -31.8462   26.5421 H   0  0  0  0  0  0
  -28.2595  -38.0096   24.7499 H   0  0  0  0  0  0
  -28.1079  -36.2619   24.6297 H   0  0  0  0  0  0
  -27.2303  -37.1445   25.8874 H   0  0  0  0  0  0
  -20.9401  -29.8719   21.6803 H   0  0  0  0  0  0
  -26.0166  -38.2836   24.1394 H   0  0  0  0  0  0
  -30.3106  -19.9988   19.0188 H   0  0  0  0  0  0
  -27.9072  -21.0833   22.2986 H   0  0  0  0  0  0
  -26.8805  -17.2268   21.9844 H   0  0  0  0  0  0
  -26.3270  -18.6415   22.8651 H   0  0  0  0  0  0
  -26.7098  -17.1565   23.7322 H   0  0  0  0  0  0
  -29.6982  -19.3392   24.5118 H   0  0  0  0  0  0
  -28.4085  -18.3943   25.2403 H   0  0  0  0  0  0
  -28.0348  -19.9125   24.4428 H   0  0  0  0  0  0
  -26.6581  -23.5875   21.7053 H   0  0  0  0  0  0
  -26.2369  -24.1297   20.0940 H   0  0  0  0  0  0
  -26.0046  -25.1858   21.4956 H   0  0  0  0  0  0
  -30.0780  -24.0963   20.3407 H   0  0  0  0  0  0
  -29.3576  -23.3997   21.7295 H   0  0  0  0  0  0
  -29.2695  -22.3886   18.9543 H   0  0  0  0  0  0
  -27.7152  -22.3431   19.6819 H   0  0  0  0  0  0
  -29.1123  -17.3920   23.0902 H   0  0  0  0  0  0
  -28.3461  -25.3212   21.8874 H   0  0  0  0  0  0
  -28.9407  -16.0557   20.9507 H   0  0  0  0  0  0
  -32.0683  -18.4789   20.0789 H   0  0  0  0  0  0
  -32.2790  -16.7474   19.9918 H   0  0  0  0  0  0
  1 25  1  0  0  0
  1 30  2  0  0  0
  1 84  1  0  0  0
  2  3  1  0  0  0
  2 25  1  0  0  0
  2 86  1  0  0  0
  2 87  1  0  0  0
  3  4  1  0  0  0
  3 88  1  0  0  0
  3 89  1  0  0  0
  4  5  1  0  0  0
  4 90  1  0  0  0
  4 91  1  0  0  0
  5  6  1  0  0  0
  5 26  1  0  0  0
  5 92  1  0  0  0
  6 25  1  0  0  0
  6 93  1  0  0  0
  6 94  1  0  0  0
  7  8  2  0  0  0
  7 26  1  0  0  0
  7 29  1  0  0  0
  8  9  1  0  0  0
  8 22  1  0  0  0
  9 10  1  0  0  0
  9 27  2  0  0  0
 10 11  2  0  0  0
 10 15  1  0  0  0
 11 12  1  0  0  0
 11 95  1  0  0  0
 12 13  2  0  0  0
 12 96  1  0  0  0
 13 14  1  0  0  0
 13 31  1  0  0  0
 14 15  2  0  0  0
 14 97  1  0  0  0
 15 98  1  0  0  0
 16 17  2  0  0  0
 16 21  1  0  0  0
 16 31  1  0  0  0
 17 18  1  0  0  0
 17 99  1  0  0  0
 18 19  2  0  0  0
 18100  1  0  0  0
 19 20  1  0  0  0
 19 24  1  0  0  0
 20 21  2  0  0  0
 20101  1  0  0  0
 21 23  1  0  0  0
 22 28  1  0  0  0
 22 32  2  0  0  0
 26 27  1  0  0  0
 28102  1  0  0  0
 28103  1  0  0  0
 29104  1  0  0  0
 29105  1  0  0  0
 33 34  1  0  0  0
 33 66  1  0  0  0
 33 70  2  0  0  0
 34 36  1  0  0  0
 34 59  1  0  0  0
 34106  1  0  0  0
 35 44  2  0  0  0
 35 45  1  0  0  0
 35 68  1  0  0  0
 36 56  1  0  0  0
 36107  1  0  0  0
 37 39  1  0  0  0
 37 47  1  0  0  0
 37 66  1  0  0  0
 37108  1  0  0  0
 38 43  2  0  0  0
 38 46  1  0  0  0
 38 47  1  0  0  0
 39 64  1  0  0  0
 39 67  2  0  0  0
 40 52  1  0  0  0
 40 53  2  0  0  0
 40 58  1  0  0  0
 41109  1  0  0  0
 41110  1  0  0  0
 41111  1  0  0  0
 41 48  1  0  0  0
 42 43  1  0  0  0
 42 66  1  0  0  0
 42112  1  0  0  0
 42113  1  0  0  0
 43 44  1  0  0  0
 44114  1  0  0  0
 45 46  2  0  0  0
 45115  1  0  0  0
 46116  1  0  0  0
 47117  1  0  0  0
 47118  1  0  0  0
 48 56  1  0  0  0
 48 65  1  0  0  0
 48119  1  0  0  0
 49 50  1  0  0  0
 49 53  1  0  0  0
 49 64  1  0  0  0
 49120  1  0  0  0
 50 51  1  0  0  0
 50121  1  0  0  0
 50122  1  0  0  0
 51 52  1  0  0  0
 51123  1  0  0  0
 51124  1  0  0  0
 52125  1  0  0  0
 52126  1  0  0  0
 53 54  1  0  0  0
 54 55  2  0  0  0
 54127  1  0  0  0
 55 57  1  0  0  0
 55128  1  0  0  0
 56 69  2  0  0  0
 57 58  2  0  0  0
 57129  1  0  0  0
 58130  1  0  0  0
 59 60  1  0  0  0
 59 61  1  0  0  0
 59 62  1  0  0  0
 60131  1  0  0  0
 60132  1  0  0  0
 60133  1  0  0  0
 61134  1  0  0  0
 61135  1  0  0  0
 61136  1  0  0  0
 62137  1  0  0  0
 62138  1  0  0  0
 62139  1  0  0  0
 63 65  1  0  0  0
 63140  1  0  0  0
 63141  1  0  0  0
 63142  1  0  0  0
 64143  1  0  0  0
 65144  1  0  0  0
 68 82  1  0  0  0
 71 73  2  0  0  0
 71 83  1  0  0  0
 71145  1  0  0  0
 72 74  2  0  0  0
 72 83  1  0  0  0
 72146  1  0  0  0
 73 74  1  0  0  0
 73 75  1  0  0  0
 74 81  1  0  0  0
 75 84  1  0  0  0
 75 85  2  0  0  0
 76147  1  0  0  0
 76148  1  0  0  0
 76149  1  0  0  0
 76 81  1  0  0  0
 77 81  1  0  0  0
 77150  1  0  0  0
 77151  1  0  0  0
 77152  1  0  0  0
 78153  1  0  0  0
 78154  1  0  0  0
 78155  1  0  0  0
 78 82  1  0  0  0
 79 80  1  0  0  0
 79 82  1  0  0  0
 79156  1  0  0  0
 79157  1  0  0  0
 80 83  1  0  0  0
 80158  1  0  0  0
 80159  1  0  0  0
 81160  1  0  0  0
 82161  1  0  0  0
 84162  1  0  0  0
 85163  1  0  0  0
 85164  1  0  0  0
M  CHG  1  85   1
M  ISO  4   1 100  68 101  82 101  84 100
M  END
> <chiral flag>
0

> <version>
0

> <s_m_source_file>
/data/baiqing/PycharmProjects/Reinvent-master-3.2/result/LINK_invent/BTK/process_docking_weight1_custom_sum_contain_oxygen_bond_distance_aromatic_linkinvent_7_9_3/rearranged_h_0112.sdf

> <i_m_source_file_index>
73

> <r_mmod_Potential_Energy-OPLS-2005>
96.6961135864258

> <r_mmod_Stretch_Energy-OPLS-2005>
133.820114135742

> <r_mmod_Bend_Energy-OPLS-2005>
213.623916625977

> <r_mmod_Torsional_Energy-OPLS-2005>
259.187591552734

> <r_mmod_Improper_Torsional_Energy-OPLS-2005>
6.81447601318359

> <r_mmod_Van_der_Waal_Energy-OPLS-2005>
123.960777282715

> <r_mmod_Electrostatic_Energy-OPLS-2005>
-315.437927246094

> <r_mmod_Solvation_Energy-OPLS-2005>
-420.200439453125

> <b_mmod_Minimization_Converged-OPLS-2005>
0

> <r_mmod_RMS_Derivative-OPLS-2005>
2.11709451675415

$$$$
73
                    3D
 Structure written by MMmdl.
155163  0  0  1  0            999 V2000
  -30.4669  -15.1876   20.3936 C   0  0  0  0  0  0
  -30.4345  -12.7575   19.5233 C   0  0  0  0  0  0
  -29.5285  -12.5684   18.2821 C   0  0  0  0  0  0
  -28.0757  -12.3031   18.7109 C   0  0  0  0  0  0
  -27.6144  -13.2687   19.8318 C   0  0  2  0  0  0
  -28.6492  -13.4115   20.9674 C   0  0  0  0  0  0
  -25.2402  -13.8232   20.5761 C   0  0  0  0  0  0
  -24.1742  -13.0436   20.9260 C   0  0  0  0  0  0
  -24.6382  -11.6934   20.8771 C   0  0  0  0  0  0
  -23.9079  -10.4299   21.0412 C   0  0  0  0  0  0
  -24.3628   -9.4212   21.9190 C   0  0  0  0  0  0
  -23.6301   -8.2243   22.0752 C   0  0  0  0  0  0
  -22.4289   -8.0279   21.3535 C   0  0  0  0  0  0
  -21.9928   -9.0255   20.4643 C   0  0  0  0  0  0
  -22.7257  -10.2136   20.3058 C   0  0  0  0  0  0
  -21.6857   -6.0744   22.5277 C   0  0  0  0  0  0
  -21.4015   -6.5642   23.8211 C   0  0  0  0  0  0
  -21.3661   -5.6790   24.9169 C   0  0  0  0  0  0
  -21.6046   -4.3055   24.7215 C   0  0  0  0  0  0
  -21.8821   -3.8153   23.4334 C   0  0  0  0  0  0
  -21.9194   -4.6974   22.3397 C   0  0  0  0  0  0
  -22.7765  -13.5197   21.1910 C   0  0  0  0  0  0
  -22.1669   -4.2162   21.0973 F   0  0  0  0  0  0
  -21.5627   -3.4541   25.7726 F   0  0  0  0  0  0
  -29.8887  -13.8955   20.3437 N   0  0  0  0  0  0
  -26.2819  -12.9499   20.3254 N   0  0  0  0  0  0
  -25.9322  -11.6609   20.5750 N   0  0  0  0  0  0
  -22.0426  -12.8163   22.0453 N   0  0  0  0  0  0
  -25.4050  -15.1965   20.4220 N   0  0  0  0  0  0
  -31.6859  -15.1913   20.1762 O   0  0  0  0  0  0
  -21.6646   -6.8888   21.4238 O   0  0  0  0  0  0
  -22.3459  -14.5513   20.6767 O   0  0  0  0  0  0
  -24.6594  -31.8270   23.1768 C   0  0  0  0  0  0
  -25.9279  -32.4611   23.8205 C   0  0  1  0  0  0
  -27.2086  -26.9631   20.1796 C   0  0  0  0  0  0
  -25.5964  -33.8424   24.2105 N   0  0  0  0  0  0
  -23.4742  -30.4426   21.5246 C   0  0  2  0  0  0
  -24.9290  -28.8499   20.1026 C   0  0  0  0  0  0
  -22.7666  -29.4431   22.4782 C   0  0  0  0  0  0
  -18.0319  -28.1408   22.8462 C   0  0  0  0  0  0
  -24.1485  -36.7219   23.2644 C   0  0  0  0  0  0
  -26.0421  -30.6466   21.4032 C   0  0  0  0  0  0
  -26.1106  -29.2421   20.7444 C   0  0  0  0  0  0
  -27.2449  -28.3176   20.7666 C   0  0  0  0  0  0
  -26.0166  -26.7427   19.4496 C   0  0  0  0  0  0
  -24.9069  -27.6195   19.4323 C   0  0  0  0  0  0
  -23.7127  -29.7718   20.1459 C   0  0  0  0  0  0
  -25.4122  -36.2984   24.0308 C   0  0  1  0  0  0
  -20.5953  -28.3730   23.1203 C   0  0  2  0  0  0
  -20.6803  -26.9412   22.5417 C   0  0  0  0  0  0
  -19.5777  -26.6377   21.5228 C   0  0  0  0  0  0
  -18.1944  -26.7943   22.1625 C   0  0  0  0  0  0
  -19.1586  -28.8891   23.2815 C   0  0  0  0  0  0
  -18.9498  -30.1482   23.8851 C   0  0  0  0  0  0
  -17.6492  -30.6590   24.0554 C   0  0  0  0  0  0
  -25.9096  -34.9362   23.5030 C   0  0  0  0  0  0
  -16.5376  -29.9078   23.6352 C   0  0  0  0  0  0
  -16.7301  -28.6507   23.0356 C   0  0  0  0  0  0
  -26.4548  -31.6541   25.0715 C   0  0  0  0  0  0
  -25.3672  -31.3799   26.1370 C   0  0  0  0  0  0
  -27.0426  -30.2914   24.6414 C   0  0  0  0  0  0
  -27.6053  -32.4341   25.7503 C   0  0  0  0  0  0
  -27.5568  -37.1757   24.8463 C   0  0  0  0  0  0
  -21.4335  -29.3024   22.3554 N   0  0  0  0  0  0
  -26.4263  -37.3723   23.9434 N   0  0  0  0  0  0
  -24.7464  -30.9973   22.0888 N   0  0  0  0  0  0
  -23.4227  -28.7969   23.2986 O   0  0  0  0  0  0
  -28.1678  -25.8312   20.3051 O   0  0  0  0  0  0
  -26.5703  -34.8884   22.4625 O   0  0  0  0  0  0
  -23.5672  -32.1204   23.6895 O   0  0  0  0  0  0
  -29.4631  -20.5112   19.2310 C   0  0  0  0  0  0
  -29.0631  -21.9334   19.1875 C   0  0  0  0  0  0
  -29.3971  -19.6185   20.3771 C   0  0  0  0  0  0
  -28.5762  -22.7139   20.3037 C   0  0  0  0  0  0
  -28.8867  -20.4691   21.4511 C   0  0  0  0  0  0
  -28.6969  -19.8470   22.8204 C   0  0  0  0  0  0
  -25.4371  -23.1142   20.6458 C   0  0  0  0  0  0
  -30.1453  -18.0441   20.4642 C   0  0  0  0  0  0
  -26.5044  -24.0889   21.1760 C   0  0  0  0  0  0
  -27.7406  -24.2482   20.2447 C   0  0  1  0  0  0
  -28.5264  -21.8497   21.4072 N   0  0  0  0  0  0
  -29.7186  -16.4535   20.4859 N   0  0  0  0  0  0
  -31.4583  -12.9468   19.2000 H   0  0  0  0  0  0
  -30.4786  -11.8411   20.1142 H   0  0  0  0  0  0
  -29.8963  -11.7482   17.6642 H   0  0  0  0  0  0
  -29.5691  -13.4637   17.6603 H   0  0  0  0  0  0
  -28.0248  -11.2760   19.0718 H   0  0  0  0  0  0
  -27.4041  -12.3611   17.8538 H   0  0  0  0  0  0
  -27.5401  -14.2447   19.3507 H   0  0  0  0  0  0
  -28.7998  -12.4681   21.4957 H   0  0  0  0  0  0
  -28.3027  -14.1324   21.7099 H   0  0  0  0  0  0
  -25.2764   -9.5699   22.4785 H   0  0  0  0  0  0
  -24.0014   -7.4635   22.7469 H   0  0  0  0  0  0
  -21.0864   -8.8779   19.8940 H   0  0  0  0  0  0
  -22.3711  -10.9684   19.6182 H   0  0  0  0  0  0
  -21.2010   -7.6154   23.9717 H   0  0  0  0  0  0
  -21.1481   -6.0522   25.9071 H   0  0  0  0  0  0
  -22.0599   -2.7617   23.2825 H   0  0  0  0  0  0
  -22.4063  -11.9810   22.4795 H   0  0  0  0  0  0
  -21.1053  -13.1181   22.2700 H   0  0  0  0  0  0
  -24.6328  -15.8458   20.5290 H   0  0  0  0  0  0
  -26.2472  -15.6377   20.0765 H   0  0  0  0  0  0
  -26.7333  -32.5154   23.0909 H   0  0  0  0  0  0
  -25.0089  -33.9521   25.0241 H   0  0  0  0  0  0
  -22.7859  -31.2738   21.3585 H   0  0  0  0  0  0
  -23.3766  -35.9533   23.3284 H   0  0  0  0  0  0
  -24.3568  -36.8895   22.2065 H   0  0  0  0  0  0
  -23.7225  -37.6399   23.6708 H   0  0  0  0  0  0
  -26.2158  -31.3898   20.6248 H   0  0  0  0  0  0
  -26.9062  -30.7069   22.0520 H   0  0  0  0  0  0
  -28.1284  -28.6045   21.3189 H   0  0  0  0  0  0
  -25.8890  -25.8110   18.9201 H   0  0  0  0  0  0
  -24.0162  -27.3210   18.8949 H   0  0  0  0  0  0
  -23.8600  -30.5459   19.3920 H   0  0  0  0  0  0
  -22.8235  -29.2249   19.8282 H   0  0  0  0  0  0
  -25.1307  -36.1785   25.0798 H   0  0  0  0  0  0
  -21.0038  -28.3319   24.1335 H   0  0  0  0  0  0
  -20.5701  -26.2329   23.3641 H   0  0  0  0  0  0
  -21.6651  -26.7390   22.1204 H   0  0  0  0  0  0
  -19.6936  -25.6289   21.1260 H   0  0  0  0  0  0
  -19.6727  -27.3184   20.6755 H   0  0  0  0  0  0
  -17.4227  -26.6714   21.4009 H   0  0  0  0  0  0
  -18.0285  -26.0093   22.9022 H   0  0  0  0  0  0
  -19.7972  -30.7303   24.2194 H   0  0  0  0  0  0
  -17.5041  -31.6265   24.5159 H   0  0  0  0  0  0
  -15.5372  -30.2960   23.7708 H   0  0  0  0  0  0
  -15.8708  -28.0808   22.7099 H   0  0  0  0  0  0
  -24.5915  -30.7070   25.7703 H   0  0  0  0  0  0
  -24.8770  -32.2984   26.4601 H   0  0  0  0  0  0
  -25.7899  -30.9125   27.0271 H   0  0  0  0  0  0
  -26.3071  -29.6622   24.1386 H   0  0  0  0  0  0
  -27.3954  -29.7244   25.5041 H   0  0  0  0  0  0
  -27.9019  -30.4139   23.9820 H   0  0  0  0  0  0
  -27.2666  -33.3731   26.1895 H   0  0  0  0  0  0
  -28.3948  -32.6764   25.0373 H   0  0  0  0  0  0
  -28.0608  -31.8573   26.5565 H   0  0  0  0  0  0
  -28.2538  -38.0094   24.7528 H   0  0  0  0  0  0
  -28.1103  -36.2619   24.6245 H   0  0  0  0  0  0
  -27.2284  -37.1337   25.8862 H   0  0  0  0  0  0
  -20.9573  -29.8740   21.6722 H   0  0  0  0  0  0
  -26.0118  -38.2783   24.1478 H   0  0  0  0  0  0
  -29.8580  -20.0929   18.3171 H   0  0  0  0  0  0
  -29.1163  -22.4322   18.2291 H   0  0  0  0  0  0
  -27.9761  -19.0300   22.7668 H   0  0  0  0  0  0
  -28.3255  -20.5730   23.5455 H   0  0  0  0  0  0
  -29.6372  -19.4449   23.1967 H   0  0  0  0  0  0
  -24.5624  -23.1090   21.2965 H   0  0  0  0  0  0
  -25.8168  -22.0940   20.5977 H   0  0  0  0  0  0
  -25.1004  -23.3924   19.6471 H   0  0  0  0  0  0
  -30.7716  -18.1260   21.3533 H   0  0  0  0  0  0
  -30.8698  -18.0786   19.6499 H   0  0  0  0  0  0
  -26.8367  -23.7681   22.1643 H   0  0  0  0  0  0
  -26.0093  -25.0348   21.3672 H   0  0  0  0  0  0
  -27.3655  -24.2015   19.2231 H   0  0  0  0  0  0
  -28.7263  -16.3048   20.5976 H   0  0  0  0  0  0
  1 25  1  0  0  0
  1 30  2  0  0  0
  1 82  1  0  0  0
  2  3  1  0  0  0
  2 25  1  0  0  0
  2 83  1  0  0  0
  2 84  1  0  0  0
  3  4  1  0  0  0
  3 85  1  0  0  0
  3 86  1  0  0  0
  4  5  1  0  0  0
  4 87  1  0  0  0
  4 88  1  0  0  0
  5  6  1  0  0  0
  5 26  1  0  0  0
  5 89  1  0  0  0
  6 25  1  0  0  0
  6 90  1  0  0  0
  6 91  1  0  0  0
  7  8  2  0  0  0
  7 26  1  0  0  0
  7 29  1  0  0  0
  8  9  1  0  0  0
  8 22  1  0  0  0
  9 10  1  0  0  0
  9 27  2  0  0  0
 10 11  2  0  0  0
 10 15  1  0  0  0
 11 12  1  0  0  0
 11 92  1  0  0  0
 12 13  2  0  0  0
 12 93  1  0  0  0
 13 14  1  0  0  0
 13 31  1  0  0  0
 14 15  2  0  0  0
 14 94  1  0  0  0
 15 95  1  0  0  0
 16 17  2  0  0  0
 16 21  1  0  0  0
 16 31  1  0  0  0
 17 18  1  0  0  0
 17 96  1  0  0  0
 18 19  2  0  0  0
 18 97  1  0  0  0
 19 20  1  0  0  0
 19 24  1  0  0  0
 20 21  2  0  0  0
 20 98  1  0  0  0
 21 23  1  0  0  0
 22 28  1  0  0  0
 22 32  2  0  0  0
 26 27  1  0  0  0
 28 99  1  0  0  0
 28100  1  0  0  0
 29101  1  0  0  0
 29102  1  0  0  0
 33 34  1  0  0  0
 33 66  1  0  0  0
 33 70  2  0  0  0
 34 36  1  0  0  0
 34 59  1  0  0  0
 34103  1  0  0  0
 35 44  2  0  0  0
 35 45  1  0  0  0
 35 68  1  0  0  0
 36 56  1  0  0  0
 36104  1  0  0  0
 37 39  1  0  0  0
 37 47  1  0  0  0
 37 66  1  0  0  0
 37105  1  0  0  0
 38 43  2  0  0  0
 38 46  1  0  0  0
 38 47  1  0  0  0
 39 64  1  0  0  0
 39 67  2  0  0  0
 40 52  1  0  0  0
 40 53  2  0  0  0
 40 58  1  0  0  0
 41106  1  0  0  0
 41107  1  0  0  0
 41108  1  0  0  0
 41 48  1  0  0  0
 42 43  1  0  0  0
 42 66  1  0  0  0
 42109  1  0  0  0
 42110  1  0  0  0
 43 44  1  0  0  0
 44111  1  0  0  0
 45 46  2  0  0  0
 45112  1  0  0  0
 46113  1  0  0  0
 47114  1  0  0  0
 47115  1  0  0  0
 48 56  1  0  0  0
 48 65  1  0  0  0
 48116  1  0  0  0
 49 50  1  0  0  0
 49 53  1  0  0  0
 49 64  1  0  0  0
 49117  1  0  0  0
 50 51  1  0  0  0
 50118  1  0  0  0
 50119  1  0  0  0
 51 52  1  0  0  0
 51120  1  0  0  0
 51121  1  0  0  0
 52122  1  0  0  0
 52123  1  0  0  0
 53 54  1  0  0  0
 54 55  2  0  0  0
 54124  1  0  0  0
 55 57  1  0  0  0
 55125  1  0  0  0
 56 69  2  0  0  0
 57 58  2  0  0  0
 57126  1  0  0  0
 58127  1  0  0  0
 59 60  1  0  0  0
 59 61  1  0  0  0
 59 62  1  0  0  0
 60128  1  0  0  0
 60129  1  0  0  0
 60130  1  0  0  0
 61131  1  0  0  0
 61132  1  0  0  0
 61133  1  0  0  0
 62134  1  0  0  0
 62135  1  0  0  0
 62136  1  0  0  0
 63 65  1  0  0  0
 63137  1  0  0  0
 63138  1  0  0  0
 63139  1  0  0  0
 64140  1  0  0  0
 65141  1  0  0  0
 68 80  1  0  0  0
 71 72  2  0  0  0
 71 73  1  0  0  0
 71142  1  0  0  0
 72 74  1  0  0  0
 72143  1  0  0  0
 73 75  2  0  0  0
 73 78  1  0  0  0
 74 80  1  0  0  0
 74 81  2  0  0  0
 75 76  1  0  0  0
 75 81  1  0  0  0
 76144  1  0  0  0
 76145  1  0  0  0
 76146  1  0  0  0
 77 79  1  0  0  0
 77147  1  0  0  0
 77148  1  0  0  0
 77149  1  0  0  0
 78 82  1  0  0  0
 78150  1  0  0  0
 78151  1  0  0  0
 79152  1  0  0  0
 79153  1  0  0  0
 79 80  1  0  0  0
 80154  1  0  0  0
 82155  1  0  0  0
M  ISO  4   1 100  68 101  80 101  82 100
M  END
> <chiral flag>
0

> <version>
0

> <s_m_source_file>
/data/baiqing/PycharmProjects/Reinvent-master-3.2/result/LINK_invent/BTK/process_docking_weight1_custom_sum_contain_oxygen_bond_distance_aromatic_linkinvent_7_9_3/rearranged_h_0112.sdf

> <i_m_source_file_index>
74

> <r_mmod_Potential_Energy-OPLS-2005>
997.442016601562

> <r_mmod_Stretch_Energy-OPLS-2005>
470.293060302734

> <r_mmod_Bend_Energy-OPLS-2005>
423.825469970703

> <r_mmod_Torsional_Energy-OPLS-2005>
238.907638549805

> <r_mmod_Improper_Torsional_Energy-OPLS-2005>
9.62374687194824

> <r_mmod_Van_der_Waal_Energy-OPLS-2005>
136.921127319336

> <r_mmod_Electrostatic_Energy-OPLS-2005>
-464.609558105469

> <r_mmod_Solvation_Energy-OPLS-2005>
-220.430969238281

> <b_mmod_Minimization_Converged-OPLS-2005>
0

> <r_mmod_RMS_Derivative-OPLS-2005>
2.32877707481384

$$$$
74
                    3D
 Structure written by MMmdl.
164172  0  0  1  0            999 V2000
  -30.7004  -14.5273   20.6392 C   0  0  0  0  0  0
  -30.4300  -12.3718   19.4231 C   0  0  0  0  0  0
  -29.4919  -12.5349   18.2104 C   0  0  0  0  0  0
  -28.0184  -12.3708   18.6288 C   0  0  0  0  0  0
  -27.6610  -13.2141   19.8813 C   0  0  2  0  0  0
  -28.7072  -12.9980   20.9966 C   0  0  0  0  0  0
  -25.2537  -13.8151   20.5594 C   0  0  0  0  0  0
  -24.1826  -13.0425   20.9179 C   0  0  0  0  0  0
  -24.6410  -11.6906   20.8776 C   0  0  0  0  0  0
  -23.9078  -10.4292   21.0432 C   0  0  0  0  0  0
  -24.3627   -9.4203   21.9202 C   0  0  0  0  0  0
  -23.6305   -8.2235   22.0755 C   0  0  0  0  0  0
  -22.4284   -8.0281   21.3550 C   0  0  0  0  0  0
  -21.9931   -9.0258   20.4653 C   0  0  0  0  0  0
  -22.7257  -10.2141   20.3069 C   0  0  0  0  0  0
  -21.6848   -6.0736   22.5287 C   0  0  0  0  0  0
  -21.4001   -6.5637   23.8218 C   0  0  0  0  0  0
  -21.3667   -5.6795   24.9183 C   0  0  0  0  0  0
  -21.6048   -4.3057   24.7235 C   0  0  0  0  0  0
  -21.8816   -3.8148   23.4355 C   0  0  0  0  0  0
  -21.9194   -4.6963   22.3412 C   0  0  0  0  0  0
  -22.7857  -13.5225   21.1842 C   0  0  0  0  0  0
  -22.1664   -4.2153   21.0991 F   0  0  0  0  0  0
  -21.5641   -3.4540   25.7748 F   0  0  0  0  0  0
  -30.0266  -13.3497   20.4536 N   0  0  0  0  0  0
  -26.3031  -12.9357   20.3415 N   0  0  0  0  0  0
  -25.9356  -11.6512   20.5852 N   0  0  0  0  0  0
  -22.0514  -12.8223   22.0409 N   0  0  0  0  0  0
  -25.4143  -15.1846   20.3786 N   0  0  0  0  0  0
  -31.7514  -14.7715   20.0377 O   0  0  0  0  0  0
  -21.6635   -6.8883   21.4252 O   0  0  0  0  0  0
  -22.3539  -14.5539   20.6704 O   0  0  0  0  0  0
  -24.6198  -31.8629   23.2038 C   0  0  0  0  0  0
  -25.9061  -32.4797   23.8362 C   0  0  1  0  0  0
  -27.2329  -27.3724   20.1197 C   0  0  0  0  0  0
  -25.5896  -33.8597   24.2290 N   0  0  0  0  0  0
  -23.4121  -30.4827   21.5455 C   0  0  2  0  0  0
  -24.8602  -28.9356   20.1178 C   0  0  0  0  0  0
  -22.7440  -29.4624   22.4963 C   0  0  0  0  0  0
  -18.0279  -28.1367   22.8487 C   0  0  0  0  0  0
  -24.1487  -36.7309   23.2641 C   0  0  0  0  0  0
  -25.9458  -30.8102   21.3657 C   0  0  0  0  0  0
  -26.0240  -29.4388   20.7142 C   0  0  0  0  0  0
  -27.2166  -28.6688   20.7020 C   0  0  0  0  0  0
  -26.0511  -26.8935   19.5186 C   0  0  0  0  0  0
  -24.8718  -27.6656   19.5131 C   0  0  0  0  0  0
  -23.6256  -29.8109   20.1624 C   0  0  0  0  0  0
  -25.4110  -36.3096   24.0332 C   0  0  1  0  0  0
  -20.5873  -28.3664   23.1300 C   0  0  2  0  0  0
  -20.6765  -26.9394   22.5414 C   0  0  0  0  0  0
  -19.5751  -26.6372   21.5201 C   0  0  0  0  0  0
  -18.1927  -26.7914   22.1610 C   0  0  0  0  0  0
  -19.1531  -28.8830   23.2891 C   0  0  0  0  0  0
  -18.9455  -30.1433   23.8905 C   0  0  0  0  0  0
  -17.6460  -30.6579   24.0554 C   0  0  0  0  0  0
  -25.9039  -34.9463   23.5112 C   0  0  0  0  0  0
  -16.5351  -29.9080   23.6318 C   0  0  0  0  0  0
  -16.7270  -28.6491   23.0352 C   0  0  0  0  0  0
  -26.4469  -31.6601   25.0717 C   0  0  0  0  0  0
  -25.3716  -31.3729   26.1455 C   0  0  0  0  0  0
  -27.0311  -30.3041   24.6129 C   0  0  0  0  0  0
  -27.6036  -32.4336   25.7484 C   0  0  0  0  0  0
  -27.5582  -37.1809   24.8463 C   0  0  0  0  0  0
  -21.4161  -29.3029   22.3705 N   0  0  0  0  0  0
  -26.4294  -37.3787   23.9404 N   0  0  0  0  0  0
  -24.6777  -31.0679   22.0964 N   0  0  0  0  0  0
  -23.4182  -28.8172   23.3032 O   0  0  0  0  0  0
  -28.3795  -26.5909   20.1015 O   0  0  0  0  0  0
  -26.5619  -34.8926   22.4683 O   0  0  0  0  0  0
  -23.5374  -32.1406   23.7396 O   0  0  0  0  0  0
  -30.0426  -17.7323   20.7053 C   0  0  0  0  0  0
  -28.1647  -19.0523   21.4398 C   0  0  0  0  0  0
  -29.3727  -19.0053   20.7227 C   0  0  0  0  0  0
  -29.5210  -16.6090   21.4252 C   0  0  0  0  0  0
  -28.3126  -16.8335   22.1347 C   0  0  0  0  0  0
  -27.6964  -15.8092   23.0729 C   0  0  0  0  0  0
  -30.8741  -20.0182   18.9012 C   0  0  0  0  0  0
  -31.0722  -15.3280   22.8449 C   0  0  0  0  0  0
  -28.5604  -24.0145   19.8425 C   0  0  0  0  0  0
  -28.9420  -22.6738   20.5965 C   0  0  0  0  0  0
  -28.3197  -25.2820   20.7459 C   0  0  0  0  0  0
  -29.9772  -20.3210   20.1161 C   0  0  1  0  0  0
  -27.6439  -18.0049   22.1068 N   0  0  0  0  0  0
  -30.2615  -15.3701   21.6227 N   0  0  0  0  0  0
  -29.0366  -21.4436   19.7252 N   0  3  0  0  0  0
  -31.4686  -12.4989   19.1141 H   0  0  0  0  0  0
  -30.3657  -11.3588   19.8241 H   0  0  0  0  0  0
  -29.7420  -11.8094   17.4351 H   0  0  0  0  0  0
  -29.6392  -13.5206   17.7664 H   0  0  0  0  0  0
  -27.8492  -11.3137   18.8360 H   0  0  0  0  0  0
  -27.3580  -12.6268   17.7998 H   0  0  0  0  0  0
  -27.7023  -14.2629   19.5861 H   0  0  0  0  0  0
  -28.7071  -11.9550   21.3185 H   0  0  0  0  0  0
  -28.4660  -13.5659   21.8883 H   0  0  0  0  0  0
  -25.2770   -9.5676   22.4779 H   0  0  0  0  0  0
  -24.0022   -7.4623   22.7466 H   0  0  0  0  0  0
  -21.0863   -8.8778   19.8956 H   0  0  0  0  0  0
  -22.3716  -10.9681   19.6174 H   0  0  0  0  0  0
  -21.1965   -7.6142   23.9713 H   0  0  0  0  0  0
  -21.1499   -6.0533   25.9086 H   0  0  0  0  0  0
  -22.0585   -2.7609   23.2865 H   0  0  0  0  0  0
  -22.4146  -11.9892   22.4798 H   0  0  0  0  0  0
  -21.1125  -13.1233   22.2603 H   0  0  0  0  0  0
  -24.6370  -15.8295   20.4670 H   0  0  0  0  0  0
  -26.2538  -15.6262   20.0265 H   0  0  0  0  0  0
  -26.7132  -32.5493   23.1122 H   0  0  0  0  0  0
  -25.0022  -33.9747   25.0419 H   0  0  0  0  0  0
  -22.7037  -31.3005   21.4003 H   0  0  0  0  0  0
  -23.3748  -35.9643   23.3300 H   0  0  0  0  0  0
  -24.3581  -36.8936   22.2056 H   0  0  0  0  0  0
  -23.7242  -37.6509   23.6669 H   0  0  0  0  0  0
  -26.0661  -31.5724   20.5948 H   0  0  0  0  0  0
  -26.8299  -30.8638   21.9891 H   0  0  0  0  0  0
  -28.1178  -29.0536   21.1595 H   0  0  0  0  0  0
  -26.0430  -25.9187   19.0528 H   0  0  0  0  0  0
  -23.9784  -27.2712   19.0486 H   0  0  0  0  0  0
  -23.7433  -30.5835   19.4018 H   0  0  0  0  0  0
  -22.7476  -29.2354   19.8635 H   0  0  0  0  0  0
  -25.1292  -36.1954   25.0827 H   0  0  0  0  0  0
  -20.9962  -28.3226   24.1424 H   0  0  0  0  0  0
  -20.5646  -26.2272   23.3603 H   0  0  0  0  0  0
  -21.6639  -26.7419   22.1222 H   0  0  0  0  0  0
  -19.6912  -25.6284   21.1233 H   0  0  0  0  0  0
  -19.6694  -27.3174   20.6728 H   0  0  0  0  0  0
  -17.4199  -26.6663   21.4010 H   0  0  0  0  0  0
  -18.0328  -26.0050   22.8998 H   0  0  0  0  0  0
  -19.7938  -30.7234   24.2287 H   0  0  0  0  0  0
  -17.5026  -31.6263   24.5149 H   0  0  0  0  0  0
  -15.5354  -30.2989   23.7636 H   0  0  0  0  0  0
  -15.8671  -28.0811   22.7073 H   0  0  0  0  0  0
  -24.5873  -30.7102   25.7784 H   0  0  0  0  0  0
  -24.8925  -32.2893   26.4912 H   0  0  0  0  0  0
  -25.8044  -30.8879   27.0214 H   0  0  0  0  0  0
  -26.2870  -29.6799   24.1168 H   0  0  0  0  0  0
  -27.4053  -29.7290   25.4610 H   0  0  0  0  0  0
  -27.8719  -30.4358   23.9313 H   0  0  0  0  0  0
  -27.2647  -33.3629   26.2078 H   0  0  0  0  0  0
  -28.3833  -32.6912   25.0302 H   0  0  0  0  0  0
  -28.0721  -31.8454   26.5384 H   0  0  0  0  0  0
  -28.2599  -38.0108   24.7510 H   0  0  0  0  0  0
  -28.1079  -36.2637   24.6288 H   0  0  0  0  0  0
  -27.2303  -37.1466   25.8868 H   0  0  0  0  0  0
  -20.9324  -29.8774   21.6945 H   0  0  0  0  0  0
  -26.0178  -38.2864   24.1407 H   0  0  0  0  0  0
  -30.9997  -17.6257   20.2177 H   0  0  0  0  0  0
  -27.6041  -19.9720   21.5191 H   0  0  0  0  0  0
  -27.0292  -15.1420   22.5347 H   0  0  0  0  0  0
  -27.1058  -16.2997   23.8462 H   0  0  0  0  0  0
  -28.4494  -15.2134   23.5853 H   0  0  0  0  0  0
  -31.7283  -19.3971   19.1680 H   0  0  0  0  0  0
  -31.2899  -20.9325   18.4769 H   0  0  0  0  0  0
  -30.3200  -19.5088   18.1112 H   0  0  0  0  0  0
  -30.7402  -16.0599   23.5823 H   0  0  0  0  0  0
  -32.1222  -15.5413   22.6331 H   0  0  0  0  0  0
  -31.0132  -14.3437   23.3124 H   0  0  0  0  0  0
  -27.6688  -23.8531   19.2363 H   0  0  0  0  0  0
  -29.3618  -24.2472   19.1407 H   0  0  0  0  0  0
  -28.2232  -22.4761   21.3922 H   0  0  0  0  0  0
  -29.9002  -22.8358   21.0915 H   0  0  0  0  0  0
  -29.0985  -25.3001   21.5092 H   0  0  0  0  0  0
  -27.3872  -25.1622   21.3010 H   0  0  0  0  0  0
  -30.6401  -20.7129   20.8884 H   0  0  0  0  0  0
  -29.4125  -21.7823   18.8544 H   0  0  0  0  0  0
  -28.1183  -21.0949   19.5020 H   0  0  0  0  0  0
  1 25  1  0  0  0
  1 30  2  0  0  0
  1 84  1  0  0  0
  2  3  1  0  0  0
  2 25  1  0  0  0
  2 86  1  0  0  0
  2 87  1  0  0  0
  3  4  1  0  0  0
  3 88  1  0  0  0
  3 89  1  0  0  0
  4  5  1  0  0  0
  4 90  1  0  0  0
  4 91  1  0  0  0
  5  6  1  0  0  0
  5 26  1  0  0  0
  5 92  1  0  0  0
  6 25  1  0  0  0
  6 93  1  0  0  0
  6 94  1  0  0  0
  7  8  2  0  0  0
  7 26  1  0  0  0
  7 29  1  0  0  0
  8  9  1  0  0  0
  8 22  1  0  0  0
  9 10  1  0  0  0
  9 27  2  0  0  0
 10 11  2  0  0  0
 10 15  1  0  0  0
 11 12  1  0  0  0
 11 95  1  0  0  0
 12 13  2  0  0  0
 12 96  1  0  0  0
 13 14  1  0  0  0
 13 31  1  0  0  0
 14 15  2  0  0  0
 14 97  1  0  0  0
 15 98  1  0  0  0
 16 17  2  0  0  0
 16 21  1  0  0  0
 16 31  1  0  0  0
 17 18  1  0  0  0
 17 99  1  0  0  0
 18 19  2  0  0  0
 18100  1  0  0  0
 19 20  1  0  0  0
 19 24  1  0  0  0
 20 21  2  0  0  0
 20101  1  0  0  0
 21 23  1  0  0  0
 22 28  1  0  0  0
 22 32  2  0  0  0
 26 27  1  0  0  0
 28102  1  0  0  0
 28103  1  0  0  0
 29104  1  0  0  0
 29105  1  0  0  0
 33 34  1  0  0  0
 33 66  1  0  0  0
 33 70  2  0  0  0
 34 36  1  0  0  0
 34 59  1  0  0  0
 34106  1  0  0  0
 35 44  2  0  0  0
 35 45  1  0  0  0
 35 68  1  0  0  0
 36 56  1  0  0  0
 36107  1  0  0  0
 37 39  1  0  0  0
 37 47  1  0  0  0
 37 66  1  0  0  0
 37108  1  0  0  0
 38 43  2  0  0  0
 38 46  1  0  0  0
 38 47  1  0  0  0
 39 64  1  0  0  0
 39 67  2  0  0  0
 40 52  1  0  0  0
 40 53  2  0  0  0
 40 58  1  0  0  0
 41109  1  0  0  0
 41110  1  0  0  0
 41111  1  0  0  0
 41 48  1  0  0  0
 42 43  1  0  0  0
 42 66  1  0  0  0
 42112  1  0  0  0
 42113  1  0  0  0
 43 44  1  0  0  0
 44114  1  0  0  0
 45 46  2  0  0  0
 45115  1  0  0  0
 46116  1  0  0  0
 47117  1  0  0  0
 47118  1  0  0  0
 48 56  1  0  0  0
 48 65  1  0  0  0
 48119  1  0  0  0
 49 50  1  0  0  0
 49 53  1  0  0  0
 49 64  1  0  0  0
 49120  1  0  0  0
 50 51  1  0  0  0
 50121  1  0  0  0
 50122  1  0  0  0
 51 52  1  0  0  0
 51123  1  0  0  0
 51124  1  0  0  0
 52125  1  0  0  0
 52126  1  0  0  0
 53 54  1  0  0  0
 54 55  2  0  0  0
 54127  1  0  0  0
 55 57  1  0  0  0
 55128  1  0  0  0
 56 69  2  0  0  0
 57 58  2  0  0  0
 57129  1  0  0  0
 58130  1  0  0  0
 59 60  1  0  0  0
 59 61  1  0  0  0
 59 62  1  0  0  0
 60131  1  0  0  0
 60132  1  0  0  0
 60133  1  0  0  0
 61134  1  0  0  0
 61135  1  0  0  0
 61136  1  0  0  0
 62137  1  0  0  0
 62138  1  0  0  0
 62139  1  0  0  0
 63 65  1  0  0  0
 63140  1  0  0  0
 63141  1  0  0  0
 63142  1  0  0  0
 64143  1  0  0  0
 65144  1  0  0  0
 68 81  1  0  0  0
 71 73  2  0  0  0
 71 74  1  0  0  0
 71145  1  0  0  0
 72 73  1  0  0  0
 72 83  2  0  0  0
 72146  1  0  0  0
 73 82  1  0  0  0
 74 75  2  0  0  0
 74 84  1  0  0  0
 75 76  1  0  0  0
 75 83  1  0  0  0
 76147  1  0  0  0
 76148  1  0  0  0
 76149  1  0  0  0
 77150  1  0  0  0
 77151  1  0  0  0
 77152  1  0  0  0
 77 82  1  0  0  0
 78 84  1  0  0  0
 78153  1  0  0  0
 78154  1  0  0  0
 78155  1  0  0  0
 79 80  1  0  0  0
 79 81  1  0  0  0
 79156  1  0  0  0
 79157  1  0  0  0
 80 85  1  0  0  0
 80158  1  0  0  0
 80159  1  0  0  0
 81160  1  0  0  0
 81161  1  0  0  0
 82 85  1  0  0  0
 82162  1  0  0  0
 85163  1  0  0  0
 85164  1  0  0  0
M  CHG  1  85   1
M  ISO  4   1 100  68 101  81 101  84 100
M  END
> <chiral flag>
0

> <version>
0

> <s_m_source_file>
/data/baiqing/PycharmProjects/Reinvent-master-3.2/result/LINK_invent/BTK/process_docking_weight1_custom_sum_contain_oxygen_bond_distance_aromatic_linkinvent_7_9_3/rearranged_h_0112.sdf

> <i_m_source_file_index>
75

> <r_mmod_Potential_Energy-OPLS-2005>
-108.413047790527

> <r_mmod_Stretch_Energy-OPLS-2005>
65.6376876831055

> <r_mmod_Bend_Energy-OPLS-2005>
131.923294067383

> <r_mmod_Torsional_Energy-OPLS-2005>
331.785400390625

> <r_mmod_Improper_Torsional_Energy-OPLS-2005>
6.61494302749634

> <r_mmod_Van_der_Waal_Energy-OPLS-2005>
137.380157470703

> <r_mmod_Electrostatic_Energy-OPLS-2005>
-344.771942138672

> <r_mmod_Solvation_Energy-OPLS-2005>
-459.092987060547

> <b_mmod_Minimization_Converged-OPLS-2005>
0

> <r_mmod_RMS_Derivative-OPLS-2005>
1.22361040115356

$$$$
75
                    3D
 Structure written by MMmdl.
162170  0  0  1  0            999 V2000
  -30.5743  -14.7874   20.4675 C   0  0  0  0  0  0
  -30.4405  -12.4903   19.4617 C   0  0  0  0  0  0
  -29.5102  -12.5235   18.2280 C   0  0  0  0  0  0
  -28.0356  -12.3413   18.6411 C   0  0  0  0  0  0
  -27.6412  -13.2321   19.8495 C   0  0  2  0  0  0
  -28.6908  -13.1449   20.9768 C   0  0  0  0  0  0
  -25.2494  -13.8182   20.5641 C   0  0  0  0  0  0
  -24.1807  -13.0431   20.9224 C   0  0  0  0  0  0
  -24.6417  -11.6912   20.8769 C   0  0  0  0  0  0
  -23.9090  -10.4288   21.0416 C   0  0  0  0  0  0
  -24.3628   -9.4200   21.9194 C   0  0  0  0  0  0
  -23.6295   -8.2237   22.0756 C   0  0  0  0  0  0
  -22.4279   -8.0281   21.3544 C   0  0  0  0  0  0
  -21.9921   -9.0263   20.4650 C   0  0  0  0  0  0
  -22.7258  -10.2138   20.3063 C   0  0  0  0  0  0
  -21.6858   -6.0734   22.5279 C   0  0  0  0  0  0
  -21.4016   -6.5636   23.8216 C   0  0  0  0  0  0
  -21.3658   -5.6787   24.9171 C   0  0  0  0  0  0
  -21.6042   -4.3047   24.7220 C   0  0  0  0  0  0
  -21.8821   -3.8143   23.4344 C   0  0  0  0  0  0
  -21.9192   -4.6963   22.3397 C   0  0  0  0  0  0
  -22.7824  -13.5211   21.1866 C   0  0  0  0  0  0
  -22.1660   -4.2151   21.0976 F   0  0  0  0  0  0
  -21.5630   -3.4530   25.7736 F   0  0  0  0  0  0
  -29.9760  -13.5452   20.3937 N   0  0  0  0  0  0
  -26.2940  -12.9399   20.3269 N   0  0  0  0  0  0
  -25.9348  -11.6545   20.5767 N   0  0  0  0  0  0
  -22.0462  -12.8207   22.0434 N   0  0  0  0  0  0
  -25.4113  -15.1884   20.3875 N   0  0  0  0  0  0
  -31.7692  -14.8982   20.1780 O   0  0  0  0  0  0
  -21.6635   -6.8882   21.4245 O   0  0  0  0  0  0
  -22.3504  -14.5505   20.6697 O   0  0  0  0  0  0
  -24.6337  -31.8502   23.1923 C   0  0  0  0  0  0
  -25.9141  -32.4728   23.8298 C   0  0  1  0  0  0
  -27.2329  -27.2371   20.1465 C   0  0  0  0  0  0
  -25.5916  -33.8534   24.2231 N   0  0  0  0  0  0
  -23.4336  -30.4684   21.5349 C   0  0  2  0  0  0
  -24.8842  -28.8976   20.1197 C   0  0  0  0  0  0
  -22.7518  -29.4577   22.4891 C   0  0  0  0  0  0
  -18.0298  -28.1391   22.8476 C   0  0  0  0  0  0
  -24.1488  -36.7280   23.2643 C   0  0  0  0  0  0
  -25.9795  -30.7579   21.3732 C   0  0  0  0  0  0
  -26.0558  -29.3740   20.7230 C   0  0  0  0  0  0
  -27.2354  -28.5599   20.7139 C   0  0  0  0  0  0
  -26.0366  -26.8197   19.5314 C   0  0  0  0  0  0
  -24.8796  -27.6297   19.5127 C   0  0  0  0  0  0
  -23.6564  -29.7896   20.1562 C   0  0  0  0  0  0
  -25.4116  -36.3061   24.0327 C   0  0  1  0  0  0
  -20.5902  -28.3702   23.1257 C   0  0  2  0  0  0
  -20.6779  -26.9415   22.5406 C   0  0  0  0  0  0
  -19.5760  -26.6384   21.5205 C   0  0  0  0  0  0
  -18.1939  -26.7931   22.1617 C   0  0  0  0  0  0
  -19.1549  -28.8865   23.2862 C   0  0  0  0  0  0
  -18.9477  -30.1466   23.8879 C   0  0  0  0  0  0
  -17.6472  -30.6588   24.0564 C   0  0  0  0  0  0
  -25.9056  -34.9426   23.5086 C   0  0  0  0  0  0
  -16.5365  -29.9083   23.6334 C   0  0  0  0  0  0
  -16.7281  -28.6508   23.0344 C   0  0  0  0  0  0
  -26.4500  -31.6567   25.0704 C   0  0  0  0  0  0
  -25.3727  -31.3717   26.1430 C   0  0  0  0  0  0
  -27.0351  -30.2980   24.6208 C   0  0  0  0  0  0
  -27.6041  -32.4318   25.7488 C   0  0  0  0  0  0
  -27.5578  -37.1797   24.8466 C   0  0  0  0  0  0
  -21.4221  -29.3045   22.3646 N   0  0  0  0  0  0
  -26.4290  -37.3764   23.9406 N   0  0  0  0  0  0
  -24.7014  -31.0454   22.0897 N   0  0  0  0  0  0
  -23.4198  -28.8127   23.3019 O   0  0  0  0  0  0
  -28.3527  -26.3736   20.1114 O   0  0  0  0  0  0
  -26.5640  -34.8913   22.4664 O   0  0  0  0  0  0
  -23.5473  -32.1328   23.7200 O   0  0  0  0  0  0
  -27.5813  -20.9693   21.3546 C   0  0  0  0  0  0
  -29.1582  -18.6703   21.0373 C   0  0  0  0  0  0
  -28.0184  -18.7212   21.9326 C   0  0  0  0  0  0
  -28.7651  -21.0679   20.6114 C   0  0  0  0  0  0
  -28.1098  -18.3889   24.4267 C   0  0  0  0  0  0
  -28.1641  -16.3385   23.0565 C   0  0  0  0  0  0
  -26.0787  -17.5993   23.1672 C   0  0  0  0  0  0
  -30.1612  -17.4068   20.8130 C   0  0  0  0  0  0
  -28.3742  -23.5975   19.7650 C   0  0  0  0  0  0
  -28.3198  -24.9635   20.6609 C   0  0  0  0  0  0
  -27.6198  -17.7655   23.1003 C   0  0  0  0  0  0
  -27.2422  -19.8409   22.0040 N   0  0  0  0  0  0
  -29.5140  -19.8956   20.4295 N   0  0  0  0  0  0
  -29.2118  -22.3748   20.1659 N   0  0  0  0  0  0
  -29.7784  -15.9152   20.6747 N   0  0  0  0  0  0
  -31.4769  -12.6395   19.1538 H   0  0  0  0  0  0
  -30.4100  -11.5111   19.9428 H   0  0  0  0  0  0
  -29.7988  -11.7527   17.5118 H   0  0  0  0  0  0
  -29.6249  -13.4770   17.7100 H   0  0  0  0  0  0
  -27.8901  -11.2907   18.8946 H   0  0  0  0  0  0
  -27.3785  -12.5435   17.7944 H   0  0  0  0  0  0
  -27.6364  -14.2580   19.4810 H   0  0  0  0  0  0
  -28.7472  -12.1282   21.3677 H   0  0  0  0  0  0
  -28.4258  -13.7709   21.8249 H   0  0  0  0  0  0
  -25.2778   -9.5663   22.4769 H   0  0  0  0  0  0
  -24.0000   -7.4622   22.7476 H   0  0  0  0  0  0
  -21.0851   -8.8786   19.8960 H   0  0  0  0  0  0
  -22.3725  -10.9674   19.6168 H   0  0  0  0  0  0
  -21.2017   -7.6147   23.9721 H   0  0  0  0  0  0
  -21.1475   -6.0513   25.9077 H   0  0  0  0  0  0
  -22.0607   -2.7610   23.2838 H   0  0  0  0  0  0
  -22.4061  -11.9861   22.4822 H   0  0  0  0  0  0
  -21.1085  -13.1253   22.2635 H   0  0  0  0  0  0
  -24.6249  -15.8227   20.4673 H   0  0  0  0  0  0
  -26.2225  -15.6190   19.9659 H   0  0  0  0  0  0
  -26.7211  -32.5380   23.1044 H   0  0  0  0  0  0
  -25.0054  -33.9667   25.0372 H   0  0  0  0  0  0
  -22.7319  -31.2905   21.3783 H   0  0  0  0  0  0
  -23.3750  -35.9612   23.3303 H   0  0  0  0  0  0
  -24.3576  -36.8906   22.2056 H   0  0  0  0  0  0
  -23.7244  -37.6481   23.6672 H   0  0  0  0  0  0
  -26.1175  -31.5134   20.5982 H   0  0  0  0  0  0
  -26.8568  -30.8139   22.0061 H   0  0  0  0  0  0
  -28.1417  -28.9289   21.1746 H   0  0  0  0  0  0
  -25.9962  -25.8464   19.0618 H   0  0  0  0  0  0
  -23.9830  -27.2590   19.0355 H   0  0  0  0  0  0
  -23.7860  -30.5580   19.3925 H   0  0  0  0  0  0
  -22.7763  -29.2194   19.8524 H   0  0  0  0  0  0
  -25.1298  -36.1906   25.0821 H   0  0  0  0  0  0
  -20.9998  -28.3286   24.1377 H   0  0  0  0  0  0
  -20.5656  -26.2317   23.3621 H   0  0  0  0  0  0
  -21.6655  -26.7422   22.1221 H   0  0  0  0  0  0
  -19.6921  -25.6290   21.1245 H   0  0  0  0  0  0
  -19.6700  -27.3187   20.6727 H   0  0  0  0  0  0
  -17.4209  -26.6666   21.4024 H   0  0  0  0  0  0
  -18.0342  -26.0074   22.9015 H   0  0  0  0  0  0
  -19.7953  -30.7287   24.2238 H   0  0  0  0  0  0
  -17.5029  -31.6262   24.5174 H   0  0  0  0  0  0
  -15.5365  -30.2981   23.7662 H   0  0  0  0  0  0
  -15.8685  -28.0822   22.7058 H   0  0  0  0  0  0
  -24.5912  -30.7053   25.7765 H   0  0  0  0  0  0
  -24.8917  -32.2887   26.4843 H   0  0  0  0  0  0
  -25.8059  -30.8911   27.0215 H   0  0  0  0  0  0
  -26.2940  -29.6722   24.1226 H   0  0  0  0  0  0
  -27.4015  -29.7246   25.4732 H   0  0  0  0  0  0
  -27.8821  -30.4238   23.9463 H   0  0  0  0  0  0
  -27.2635  -33.3624   26.2041 H   0  0  0  0  0  0
  -28.3874  -32.6870   25.0338 H   0  0  0  0  0  0
  -28.0693  -31.8465   26.5433 H   0  0  0  0  0  0
  -28.2591  -38.0095   24.7504 H   0  0  0  0  0  0
  -28.1075  -36.2625   24.6302 H   0  0  0  0  0  0
  -27.2296  -37.1459   25.8870 H   0  0  0  0  0  0
  -20.9415  -29.8773   21.6848 H   0  0  0  0  0  0
  -26.0165  -38.2838   24.1399 H   0  0  0  0  0  0
  -26.9522  -21.8294   21.5298 H   0  0  0  0  0  0
  -29.1932  -18.5139   24.4317 H   0  0  0  0  0  0
  -27.8451  -17.7734   25.2872 H   0  0  0  0  0  0
  -27.6717  -19.3733   24.5948 H   0  0  0  0  0  0
  -29.2509  -16.3072   23.1001 H   0  0  0  0  0  0
  -27.7808  -15.8252   22.1786 H   0  0  0  0  0  0
  -27.8216  -15.7571   23.9134 H   0  0  0  0  0  0
  -25.5673  -18.5337   23.4014 H   0  0  0  0  0  0
  -25.7799  -16.8893   23.9393 H   0  0  0  0  0  0
  -25.6768  -17.2391   22.2206 H   0  0  0  0  0  0
  -30.8763  -17.4562   21.6356 H   0  0  0  0  0  0
  -30.7536  -17.6407   19.9276 H   0  0  0  0  0  0
  -28.7697  -23.8946   18.7925 H   0  0  0  0  0  0
  -27.3536  -23.2765   19.5516 H   0  0  0  0  0  0
  -29.1917  -24.9271   21.3146 H   0  0  0  0  0  0
  -27.4731  -24.8834   21.3438 H   0  0  0  0  0  0
  -30.1444  -22.3710   19.7649 H   0  0  0  0  0  0
  -28.8011  -15.7160   20.8167 H   0  0  0  0  0  0
  1 25  1  0  0  0
  1 30  2  0  0  0
  1 85  1  0  0  0
  2  3  1  0  0  0
  2 25  1  0  0  0
  2 86  1  0  0  0
  2 87  1  0  0  0
  3  4  1  0  0  0
  3 88  1  0  0  0
  3 89  1  0  0  0
  4  5  1  0  0  0
  4 90  1  0  0  0
  4 91  1  0  0  0
  5  6  1  0  0  0
  5 26  1  0  0  0
  5 92  1  0  0  0
  6 25  1  0  0  0
  6 93  1  0  0  0
  6 94  1  0  0  0
  7  8  2  0  0  0
  7 26  1  0  0  0
  7 29  1  0  0  0
  8  9  1  0  0  0
  8 22  1  0  0  0
  9 10  1  0  0  0
  9 27  2  0  0  0
 10 11  2  0  0  0
 10 15  1  0  0  0
 11 12  1  0  0  0
 11 95  1  0  0  0
 12 13  2  0  0  0
 12 96  1  0  0  0
 13 14  1  0  0  0
 13 31  1  0  0  0
 14 15  2  0  0  0
 14 97  1  0  0  0
 15 98  1  0  0  0
 16 17  2  0  0  0
 16 21  1  0  0  0
 16 31  1  0  0  0
 17 18  1  0  0  0
 17 99  1  0  0  0
 18 19  2  0  0  0
 18100  1  0  0  0
 19 20  1  0  0  0
 19 24  1  0  0  0
 20 21  2  0  0  0
 20101  1  0  0  0
 21 23  1  0  0  0
 22 28  1  0  0  0
 22 32  2  0  0  0
 26 27  1  0  0  0
 28102  1  0  0  0
 28103  1  0  0  0
 29104  1  0  0  0
 29105  1  0  0  0
 33 34  1  0  0  0
 33 66  1  0  0  0
 33 70  2  0  0  0
 34 36  1  0  0  0
 34 59  1  0  0  0
 34106  1  0  0  0
 35 44  2  0  0  0
 35 45  1  0  0  0
 35 68  1  0  0  0
 36 56  1  0  0  0
 36107  1  0  0  0
 37 39  1  0  0  0
 37 47  1  0  0  0
 37 66  1  0  0  0
 37108  1  0  0  0
 38 43  2  0  0  0
 38 46  1  0  0  0
 38 47  1  0  0  0
 39 64  1  0  0  0
 39 67  2  0  0  0
 40 52  1  0  0  0
 40 53  2  0  0  0
 40 58  1  0  0  0
 41109  1  0  0  0
 41110  1  0  0  0
 41111  1  0  0  0
 41 48  1  0  0  0
 42 43  1  0  0  0
 42 66  1  0  0  0
 42112  1  0  0  0
 42113  1  0  0  0
 43 44  1  0  0  0
 44114  1  0  0  0
 45 46  2  0  0  0
 45115  1  0  0  0
 46116  1  0  0  0
 47117  1  0  0  0
 47118  1  0  0  0
 48 56  1  0  0  0
 48 65  1  0  0  0
 48119  1  0  0  0
 49 50  1  0  0  0
 49 53  1  0  0  0
 49 64  1  0  0  0
 49120  1  0  0  0
 50 51  1  0  0  0
 50121  1  0  0  0
 50122  1  0  0  0
 51 52  1  0  0  0
 51123  1  0  0  0
 51124  1  0  0  0
 52125  1  0  0  0
 52126  1  0  0  0
 53 54  1  0  0  0
 54 55  2  0  0  0
 54127  1  0  0  0
 55 57  1  0  0  0
 55128  1  0  0  0
 56 69  2  0  0  0
 57 58  2  0  0  0
 57129  1  0  0  0
 58130  1  0  0  0
 59 60  1  0  0  0
 59 61  1  0  0  0
 59 62  1  0  0  0
 60131  1  0  0  0
 60132  1  0  0  0
 60133  1  0  0  0
 61134  1  0  0  0
 61135  1  0  0  0
 61136  1  0  0  0
 62137  1  0  0  0
 62138  1  0  0  0
 62139  1  0  0  0
 63 65  1  0  0  0
 63140  1  0  0  0
 63141  1  0  0  0
 63142  1  0  0  0
 64143  1  0  0  0
 65144  1  0  0  0
 68 80  1  0  0  0
 71 74  2  0  0  0
 71 82  1  0  0  0
 71145  1  0  0  0
 72 73  1  0  0  0
 72 78  1  0  0  0
 72 83  2  0  0  0
 73 81  1  0  0  0
 73 82  2  0  0  0
 74 83  1  0  0  0
 74 84  1  0  0  0
 75146  1  0  0  0
 75147  1  0  0  0
 75148  1  0  0  0
 75 81  1  0  0  0
 76 81  1  0  0  0
 76149  1  0  0  0
 76150  1  0  0  0
 76151  1  0  0  0
 77 81  1  0  0  0
 77152  1  0  0  0
 77153  1  0  0  0
 77154  1  0  0  0
 78 85  1  0  0  0
 78155  1  0  0  0
 78156  1  0  0  0
 79 80  1  0  0  0
 79 84  1  0  0  0
 79157  1  0  0  0
 79158  1  0  0  0
 80159  1  0  0  0
 80160  1  0  0  0
 84161  1  0  0  0
 85162  1  0  0  0
M  ISO  4   1 100  68 101  80 101  85 100
M  END
> <chiral flag>
0

> <version>
0

> <s_m_source_file>
/data/baiqing/PycharmProjects/Reinvent-master-3.2/result/LINK_invent/BTK/process_docking_weight1_custom_sum_contain_oxygen_bond_distance_aromatic_linkinvent_7_9_3/rearranged_h_0112.sdf

> <i_m_source_file_index>
76

> <r_mmod_Potential_Energy-OPLS-2005>
259.36083984375

> <r_mmod_Stretch_Energy-OPLS-2005>
160.357437133789

> <r_mmod_Bend_Energy-OPLS-2005>
245.752395629883

> <r_mmod_Torsional_Energy-OPLS-2005>
227.113418579102

> <r_mmod_Improper_Torsional_Energy-OPLS-2005>
8.09940719604492

> <r_mmod_Van_der_Waal_Energy-OPLS-2005>
144.211944580078

> <r_mmod_Electrostatic_Energy-OPLS-2005>
-398.545654296875

> <r_mmod_Solvation_Energy-OPLS-2005>
-224.468734741211

> <b_mmod_Minimization_Converged-OPLS-2005>
0

> <r_mmod_RMS_Derivative-OPLS-2005>
1.58179116249084

$$$$
76
                    3D
 Structure written by MMmdl.
163171  0  0  1  0            999 V2000
  -30.5979  -14.7618   20.4465 C   0  0  0  0  0  0
  -30.4327  -12.4615   19.4764 C   0  0  0  0  0  0
  -29.5086  -12.4978   18.2387 C   0  0  0  0  0  0
  -28.0356  -12.3194   18.6559 C   0  0  0  0  0  0
  -27.6381  -13.2307   19.8476 C   0  0  2  0  0  0
  -28.6825  -13.1737   20.9838 C   0  0  0  0  0  0
  -25.2488  -13.8184   20.5706 C   0  0  0  0  0  0
  -24.1780  -13.0427   20.9221 C   0  0  0  0  0  0
  -24.6378  -11.6908   20.8752 C   0  0  0  0  0  0
  -23.9059  -10.4284   21.0411 C   0  0  0  0  0  0
  -24.3607   -9.4204   21.9195 C   0  0  0  0  0  0
  -23.6285   -8.2236   22.0758 C   0  0  0  0  0  0
  -22.4273   -8.0270   21.3543 C   0  0  0  0  0  0
  -21.9905   -9.0241   20.4643 C   0  0  0  0  0  0
  -22.7229  -10.2122   20.3055 C   0  0  0  0  0  0
  -21.6850   -6.0729   22.5279 C   0  0  0  0  0  0
  -21.4013   -6.5636   23.8209 C   0  0  0  0  0  0
  -21.3660   -5.6791   24.9172 C   0  0  0  0  0  0
  -21.6042   -4.3051   24.7224 C   0  0  0  0  0  0
  -21.8817   -3.8140   23.4342 C   0  0  0  0  0  0
  -21.9194   -4.6958   22.3400 C   0  0  0  0  0  0
  -22.7801  -13.5208   21.1872 C   0  0  0  0  0  0
  -22.1660   -4.2143   21.0978 F   0  0  0  0  0  0
  -21.5627   -3.4537   25.7736 F   0  0  0  0  0  0
  -29.9814  -13.5296   20.3993 N   0  0  0  0  0  0
  -26.2913  -12.9397   20.3273 N   0  0  0  0  0  0
  -25.9310  -11.6539   20.5762 N   0  0  0  0  0  0
  -22.0453  -12.8196   22.0429 N   0  0  0  0  0  0
  -25.4153  -15.1903   20.4106 N   0  0  0  0  0  0
  -31.7887  -14.8604   20.1375 O   0  0  0  0  0  0
  -21.6633   -6.8866   21.4236 O   0  0  0  0  0  0
  -22.3488  -14.5519   20.6728 O   0  0  0  0  0  0
  -24.6316  -31.8518   23.1940 C   0  0  0  0  0  0
  -25.9125  -32.4747   23.8298 C   0  0  1  0  0  0
  -27.2273  -27.2423   20.1182 C   0  0  0  0  0  0
  -25.5916  -33.8550   24.2220 N   0  0  0  0  0  0
  -23.4307  -30.4694   21.5388 C   0  0  2  0  0  0
  -24.8783  -28.9107   20.1056 C   0  0  0  0  0  0
  -22.7514  -29.4559   22.4920 C   0  0  0  0  0  0
  -18.0280  -28.1376   22.8468 C   0  0  0  0  0  0
  -24.1493  -36.7280   23.2648 C   0  0  0  0  0  0
  -25.9758  -30.7553   21.3764 C   0  0  0  0  0  0
  -26.0470  -29.3754   20.7180 C   0  0  0  0  0  0
  -27.2182  -28.5501   20.7181 C   0  0  0  0  0  0
  -26.0308  -26.8416   19.4848 C   0  0  0  0  0  0
  -24.8762  -27.6525   19.4793 C   0  0  0  0  0  0
  -23.6482  -29.7978   20.1555 C   0  0  0  0  0  0
  -25.4120  -36.3066   24.0322 C   0  0  1  0  0  0
  -20.5883  -28.3676   23.1280 C   0  0  2  0  0  0
  -20.6777  -26.9396   22.5409 C   0  0  0  0  0  0
  -19.5753  -26.6362   21.5216 C   0  0  0  0  0  0
  -18.1921  -26.7909   22.1608 C   0  0  0  0  0  0
  -19.1538  -28.8839   23.2864 C   0  0  0  0  0  0
  -18.9466  -30.1446   23.8874 C   0  0  0  0  0  0
  -17.6471  -30.6581   24.0551 C   0  0  0  0  0  0
  -25.9057  -34.9438   23.5078 C   0  0  0  0  0  0
  -16.5357  -29.9075   23.6338 C   0  0  0  0  0  0
  -16.7266  -28.6505   23.0339 C   0  0  0  0  0  0
  -26.4494  -31.6596   25.0709 C   0  0  0  0  0  0
  -25.3703  -31.3728   26.1426 C   0  0  0  0  0  0
  -27.0370  -30.3024   24.6188 C   0  0  0  0  0  0
  -27.6040  -32.4353   25.7491 C   0  0  0  0  0  0
  -27.5574  -37.1794   24.8461 C   0  0  0  0  0  0
  -21.4215  -29.3038   22.3691 N   0  0  0  0  0  0
  -26.4287  -37.3770   23.9408 N   0  0  0  0  0  0
  -24.6987  -31.0444   22.0932 N   0  0  0  0  0  0
  -23.4211  -28.8112   23.3030 O   0  0  0  0  0  0
  -28.3371  -26.3629   20.2130 O   0  0  0  0  0  0
  -26.5646  -34.8925   22.4659 O   0  0  0  0  0  0
  -23.5461  -32.1353   23.7225 O   0  0  0  0  0  0
  -30.9103  -22.4574   22.3307 C   0  0  0  0  0  0
  -29.9764  -23.3511   21.7669 C   0  0  0  0  0  0
  -30.8007  -21.2627   21.6851 C   0  0  0  0  0  0
  -29.2891  -22.7162   20.7722 C   0  0  0  0  0  0
  -31.7041  -20.0843   21.8621 C   0  0  0  0  0  0
  -27.9590  -18.0374   19.5018 C   0  0  0  0  0  0
  -28.4305  -18.6235   21.8632 C   0  0  0  0  0  0
  -28.2462  -23.5140   19.9183 C   0  0  0  0  0  0
  -29.3816  -20.1001   19.9084 C   0  0  0  0  0  0
  -30.1960  -17.3794   20.4288 C   0  0  0  0  0  0
  -28.4858  -25.0707   19.4496 C   0  0  0  0  0  0
  -29.0566  -18.5625   20.4560 C   0  0  0  0  0  0
  -29.7318  -21.3143   20.7782 N   0  0  0  0  0  0
  -29.8182  -15.8991   20.6220 N   0  0  0  0  0  0
  -31.4730  -12.5891   19.1729 H   0  0  0  0  0  0
  -30.3825  -11.4887   19.9689 H   0  0  0  0  0  0
  -29.7924  -11.7152   17.5339 H   0  0  0  0  0  0
  -29.6299  -13.4457   17.7119 H   0  0  0  0  0  0
  -27.9013  -11.2732   18.9347 H   0  0  0  0  0  0
  -27.3737  -12.4935   17.8060 H   0  0  0  0  0  0
  -27.6287  -14.2488   19.4574 H   0  0  0  0  0  0
  -28.7221  -12.1768   21.4262 H   0  0  0  0  0  0
  -28.4164  -13.8577   21.7920 H   0  0  0  0  0  0
  -25.2745   -9.5686   22.4776 H   0  0  0  0  0  0
  -23.9992   -7.4628   22.7483 H   0  0  0  0  0  0
  -21.0834   -8.8750   19.8950 H   0  0  0  0  0  0
  -22.3684  -10.9657   19.6160 H   0  0  0  0  0  0
  -21.2009   -7.6146   23.9713 H   0  0  0  0  0  0
  -21.1483   -6.0520   25.9075 H   0  0  0  0  0  0
  -22.0597   -2.7604   23.2846 H   0  0  0  0  0  0
  -22.4059  -11.9843   22.4793 H   0  0  0  0  0  0
  -21.1076  -13.1222   22.2652 H   0  0  0  0  0  0
  -24.6429  -15.8385   20.5174 H   0  0  0  0  0  0
  -26.2488  -15.6274   20.0434 H   0  0  0  0  0  0
  -26.7190  -32.5384   23.1034 H   0  0  0  0  0  0
  -25.0070  -33.9696   25.0369 H   0  0  0  0  0  0
  -22.7276  -31.2914   21.3880 H   0  0  0  0  0  0
  -23.3773  -35.9598   23.3293 H   0  0  0  0  0  0
  -24.3583  -36.8915   22.2066 H   0  0  0  0  0  0
  -23.7227  -37.6464   23.6690 H   0  0  0  0  0  0
  -26.1134  -31.5127   20.6042 H   0  0  0  0  0  0
  -26.8548  -30.8059   22.0071 H   0  0  0  0  0  0
  -28.1119  -28.8980   21.2153 H   0  0  0  0  0  0
  -25.9494  -25.8696   19.0227 H   0  0  0  0  0  0
  -23.9795  -27.2855   19.0009 H   0  0  0  0  0  0
  -23.7694  -30.5722   19.3965 H   0  0  0  0  0  0
  -22.7673  -29.2281   19.8549 H   0  0  0  0  0  0
  -25.1308  -36.1902   25.0812 H   0  0  0  0  0  0
  -20.9947  -28.3228   24.1412 H   0  0  0  0  0  0
  -20.5666  -26.2283   23.3607 H   0  0  0  0  0  0
  -21.6645  -26.7413   22.1203 H   0  0  0  0  0  0
  -19.6926  -25.6276   21.1243 H   0  0  0  0  0  0
  -19.6696  -27.3182   20.6756 H   0  0  0  0  0  0
  -17.4198  -26.6657   21.3999 H   0  0  0  0  0  0
  -18.0296  -26.0055   22.8996 H   0  0  0  0  0  0
  -19.7958  -30.7254   24.2233 H   0  0  0  0  0  0
  -17.5037  -31.6265   24.5144 H   0  0  0  0  0  0
  -15.5363  -30.2972   23.7698 H   0  0  0  0  0  0
  -15.8653  -28.0830   22.7055 H   0  0  0  0  0  0
  -24.5897  -30.7057   25.7746 H   0  0  0  0  0  0
  -24.8882  -32.2892   26.4849 H   0  0  0  0  0  0
  -25.8020  -30.8912   27.0206 H   0  0  0  0  0  0
  -26.2961  -29.6756   24.1215 H   0  0  0  0  0  0
  -27.4086  -29.7301   25.4697 H   0  0  0  0  0  0
  -27.8811  -30.4347   23.9414 H   0  0  0  0  0  0
  -27.2645  -33.3674   26.2029 H   0  0  0  0  0  0
  -28.3880  -32.6871   25.0335 H   0  0  0  0  0  0
  -28.0673  -31.8491   26.5439 H   0  0  0  0  0  0
  -28.2578  -38.0107   24.7537 H   0  0  0  0  0  0
  -28.1082  -36.2636   24.6259 H   0  0  0  0  0  0
  -27.2291  -37.1398   25.8863 H   0  0  0  0  0  0
  -20.9397  -29.8801   21.6926 H   0  0  0  0  0  0
  -26.0161  -38.2836   24.1422 H   0  0  0  0  0  0
  -31.6348  -22.6853   23.1012 H   0  0  0  0  0  0
  -29.8469  -24.3918   22.0367 H   0  0  0  0  0  0
  -32.6652  -20.4011   22.2681 H   0  0  0  0  0  0
  -31.9220  -19.5949   20.9137 H   0  0  0  0  0  0
  -31.2939  -19.3611   22.5645 H   0  0  0  0  0  0
  -27.0765  -18.6780   19.5049 H   0  0  0  0  0  0
  -27.6155  -17.0389   19.7672 H   0  0  0  0  0  0
  -28.3253  -17.9907   18.4749 H   0  0  0  0  0  0
  -27.5859  -19.3137   21.8886 H   0  0  0  0  0  0
  -29.1375  -18.9593   22.6182 H   0  0  0  0  0  0
  -28.0605  -17.6483   22.1819 H   0  0  0  0  0  0
  -27.2762  -23.4565   20.4109 H   0  0  0  0  0  0
  -28.1090  -22.9453   18.9985 H   0  0  0  0  0  0
  -28.5197  -20.4347   19.3315 H   0  0  0  0  0  0
  -30.1687  -20.0189   19.1581 H   0  0  0  0  0  0
  -30.9473  -17.5795   21.1885 H   0  0  0  0  0  0
  -30.7278  -17.4448   19.4786 H   0  0  0  0  0  0
  -27.9214  -25.1934   18.5261 H   0  0  0  0  0  0
  -29.5156  -25.0992   19.0922 H   0  0  0  0  0  0
  -28.8498  -15.7205   20.8376 H   0  0  0  0  0  0
  1 25  1  0  0  0
  1 30  2  0  0  0
  1 84  1  0  0  0
  2  3  1  0  0  0
  2 25  1  0  0  0
  2 85  1  0  0  0
  2 86  1  0  0  0
  3  4  1  0  0  0
  3 87  1  0  0  0
  3 88  1  0  0  0
  4  5  1  0  0  0
  4 89  1  0  0  0
  4 90  1  0  0  0
  5  6  1  0  0  0
  5 26  1  0  0  0
  5 91  1  0  0  0
  6 25  1  0  0  0
  6 92  1  0  0  0
  6 93  1  0  0  0
  7  8  2  0  0  0
  7 26  1  0  0  0
  7 29  1  0  0  0
  8  9  1  0  0  0
  8 22  1  0  0  0
  9 10  1  0  0  0
  9 27  2  0  0  0
 10 11  2  0  0  0
 10 15  1  0  0  0
 11 12  1  0  0  0
 11 94  1  0  0  0
 12 13  2  0  0  0
 12 95  1  0  0  0
 13 14  1  0  0  0
 13 31  1  0  0  0
 14 15  2  0  0  0
 14 96  1  0  0  0
 15 97  1  0  0  0
 16 17  2  0  0  0
 16 21  1  0  0  0
 16 31  1  0  0  0
 17 18  1  0  0  0
 17 98  1  0  0  0
 18 19  2  0  0  0
 18 99  1  0  0  0
 19 20  1  0  0  0
 19 24  1  0  0  0
 20 21  2  0  0  0
 20100  1  0  0  0
 21 23  1  0  0  0
 22 28  1  0  0  0
 22 32  2  0  0  0
 26 27  1  0  0  0
 28101  1  0  0  0
 28102  1  0  0  0
 29103  1  0  0  0
 29104  1  0  0  0
 33 34  1  0  0  0
 33 66  1  0  0  0
 33 70  2  0  0  0
 34 36  1  0  0  0
 34 59  1  0  0  0
 34105  1  0  0  0
 35 44  2  0  0  0
 35 45  1  0  0  0
 35 68  1  0  0  0
 36 56  1  0  0  0
 36106  1  0  0  0
 37 39  1  0  0  0
 37 47  1  0  0  0
 37 66  1  0  0  0
 37107  1  0  0  0
 38 43  2  0  0  0
 38 46  1  0  0  0
 38 47  1  0  0  0
 39 64  1  0  0  0
 39 67  2  0  0  0
 40 52  1  0  0  0
 40 53  2  0  0  0
 40 58  1  0  0  0
 41108  1  0  0  0
 41109  1  0  0  0
 41110  1  0  0  0
 41 48  1  0  0  0
 42 43  1  0  0  0
 42 66  1  0  0  0
 42111  1  0  0  0
 42112  1  0  0  0
 43 44  1  0  0  0
 44113  1  0  0  0
 45 46  2  0  0  0
 45114  1  0  0  0
 46115  1  0  0  0
 47116  1  0  0  0
 47117  1  0  0  0
 48 56  1  0  0  0
 48 65  1  0  0  0
 48118  1  0  0  0
 49 50  1  0  0  0
 49 53  1  0  0  0
 49 64  1  0  0  0
 49119  1  0  0  0
 50 51  1  0  0  0
 50120  1  0  0  0
 50121  1  0  0  0
 51 52  1  0  0  0
 51122  1  0  0  0
 51123  1  0  0  0
 52124  1  0  0  0
 52125  1  0  0  0
 53 54  1  0  0  0
 54 55  2  0  0  0
 54126  1  0  0  0
 55 57  1  0  0  0
 55127  1  0  0  0
 56 69  2  0  0  0
 57 58  2  0  0  0
 57128  1  0  0  0
 58129  1  0  0  0
 59 60  1  0  0  0
 59 61  1  0  0  0
 59 62  1  0  0  0
 60130  1  0  0  0
 60131  1  0  0  0
 60132  1  0  0  0
 61133  1  0  0  0
 61134  1  0  0  0
 61135  1  0  0  0
 62136  1  0  0  0
 62137  1  0  0  0
 62138  1  0  0  0
 63 65  1  0  0  0
 63139  1  0  0  0
 63140  1  0  0  0
 63141  1  0  0  0
 64142  1  0  0  0
 65143  1  0  0  0
 68 81  1  0  0  0
 71 72  1  0  0  0
 71 73  2  0  0  0
 71144  1  0  0  0
 72 74  2  0  0  0
 72145  1  0  0  0
 73 75  1  0  0  0
 73 83  1  0  0  0
 74 78  1  0  0  0
 74 83  1  0  0  0
 75146  1  0  0  0
 75147  1  0  0  0
 75148  1  0  0  0
 76149  1  0  0  0
 76150  1  0  0  0
 76151  1  0  0  0
 76 82  1  0  0  0
 77 82  1  0  0  0
 77152  1  0  0  0
 77153  1  0  0  0
 77154  1  0  0  0
 78 81  1  0  0  0
 78155  1  0  0  0
 78156  1  0  0  0
 79 82  1  0  0  0
 79 83  1  0  0  0
 79157  1  0  0  0
 79158  1  0  0  0
 80 82  1  0  0  0
 80 84  1  0  0  0
 80159  1  0  0  0
 80160  1  0  0  0
 81161  1  0  0  0
 81162  1  0  0  0
 84163  1  0  0  0
M  ISO  4   1 100  68 101  81 101  84 100
M  END
> <chiral flag>
0

> <version>
0

> <s_m_source_file>
/data/baiqing/PycharmProjects/Reinvent-master-3.2/result/LINK_invent/BTK/process_docking_weight1_custom_sum_contain_oxygen_bond_distance_aromatic_linkinvent_7_9_3/rearranged_h_0112.sdf

> <i_m_source_file_index>
77

> <r_mmod_Potential_Energy-OPLS-2005>
251.059692382812

> <r_mmod_Stretch_Energy-OPLS-2005>
159.949584960938

> <r_mmod_Bend_Energy-OPLS-2005>
251.419067382812

> <r_mmod_Torsional_Energy-OPLS-2005>
229.399520874023

> <r_mmod_Improper_Torsional_Energy-OPLS-2005>
6.40178728103638

> <r_mmod_Van_der_Waal_Energy-OPLS-2005>
111.83666229248

> <r_mmod_Electrostatic_Energy-OPLS-2005>
-391.423858642578

> <r_mmod_Solvation_Energy-OPLS-2005>
-211.21907043457

> <b_mmod_Minimization_Converged-OPLS-2005>
0

> <r_mmod_RMS_Derivative-OPLS-2005>
1.72743773460388

$$$$
77
                    3D
 Structure written by MMmdl.
163171  0  0  1  0            999 V2000
  -30.6198  -14.6869   20.4665 C   0  0  0  0  0  0
  -30.4320  -12.4197   19.4591 C   0  0  0  0  0  0
  -29.5074  -12.4947   18.2257 C   0  0  0  0  0  0
  -28.0317  -12.3262   18.6403 C   0  0  0  0  0  0
  -27.6424  -13.2244   19.8448 C   0  0  2  0  0  0
  -28.6862  -13.1345   20.9782 C   0  0  0  0  0  0
  -25.2512  -13.8187   20.5670 C   0  0  0  0  0  0
  -24.1799  -13.0440   20.9208 C   0  0  0  0  0  0
  -24.6391  -11.6918   20.8749 C   0  0  0  0  0  0
  -23.9064  -10.4291   21.0407 C   0  0  0  0  0  0
  -24.3617   -9.4203   21.9180 C   0  0  0  0  0  0
  -23.6291   -8.2237   22.0750 C   0  0  0  0  0  0
  -22.4271   -8.0277   21.3543 C   0  0  0  0  0  0
  -21.9909   -9.0247   20.4644 C   0  0  0  0  0  0
  -22.7241  -10.2126   20.3049 C   0  0  0  0  0  0
  -21.6856   -6.0730   22.5283 C   0  0  0  0  0  0
  -21.4013   -6.5634   23.8216 C   0  0  0  0  0  0
  -21.3659   -5.6786   24.9177 C   0  0  0  0  0  0
  -21.6043   -4.3049   24.7230 C   0  0  0  0  0  0
  -21.8817   -3.8143   23.4354 C   0  0  0  0  0  0
  -21.9191   -4.6956   22.3408 C   0  0  0  0  0  0
  -22.7820  -13.5220   21.1859 C   0  0  0  0  0  0
  -22.1662   -4.2140   21.0987 F   0  0  0  0  0  0
  -21.5626   -3.4535   25.7746 F   0  0  0  0  0  0
  -29.9923  -13.4700   20.3990 N   0  0  0  0  0  0
  -26.2932  -12.9387   20.3237 N   0  0  0  0  0  0
  -25.9311  -11.6539   20.5728 N   0  0  0  0  0  0
  -22.0463  -12.8212   22.0423 N   0  0  0  0  0  0
  -25.4189  -15.1914   20.4078 N   0  0  0  0  0  0
  -31.8103  -14.7982   20.1618 O   0  0  0  0  0  0
  -21.6639   -6.8870   21.4243 O   0  0  0  0  0  0
  -22.3500  -14.5521   20.6701 O   0  0  0  0  0  0
  -24.6281  -31.8587   23.1996 C   0  0  0  0  0  0
  -25.9127  -32.4780   23.8325 C   0  0  1  0  0  0
  -27.2262  -27.3092   20.1012 C   0  0  0  0  0  0
  -25.5929  -33.8575   24.2274 N   0  0  0  0  0  0
  -23.4212  -30.4817   21.5428 C   0  0  2  0  0  0
  -24.8648  -28.9285   20.1102 C   0  0  0  0  0  0
  -22.7485  -29.4626   22.4929 C   0  0  0  0  0  0
  -18.0293  -28.1403   22.8491 C   0  0  0  0  0  0
  -24.1478  -36.7300   23.2637 C   0  0  0  0  0  0
  -25.9610  -30.7864   21.3667 C   0  0  0  0  0  0
  -26.0341  -29.4111   20.7094 C   0  0  0  0  0  0
  -27.2134  -28.6109   20.6967 C   0  0  0  0  0  0
  -26.0205  -26.8609   19.5220 C   0  0  0  0  0  0
  -24.8584  -27.6582   19.5115 C   0  0  0  0  0  0
  -23.6366  -29.8137   20.1581 C   0  0  0  0  0  0
  -25.4101  -36.3086   24.0336 C   0  0  1  0  0  0
  -20.5892  -28.3710   23.1280 C   0  0  2  0  0  0
  -20.6775  -26.9431   22.5403 C   0  0  0  0  0  0
  -19.5747  -26.6410   21.5206 C   0  0  0  0  0  0
  -18.1936  -26.7956   22.1625 C   0  0  0  0  0  0
  -19.1545  -28.8875   23.2886 C   0  0  0  0  0  0
  -18.9456  -30.1475   23.8915 C   0  0  0  0  0  0
  -17.6451  -30.6601   24.0574 C   0  0  0  0  0  0
  -25.9040  -34.9456   23.5103 C   0  0  0  0  0  0
  -16.5348  -29.9104   23.6319 C   0  0  0  0  0  0
  -16.7279  -28.6519   23.0349 C   0  0  0  0  0  0
  -26.4510  -31.6585   25.0696 C   0  0  0  0  0  0
  -25.3743  -31.3690   26.1416 C   0  0  0  0  0  0
  -27.0330  -30.3011   24.6122 C   0  0  0  0  0  0
  -27.6082  -32.4301   25.7472 C   0  0  0  0  0  0
  -27.5576  -37.1795   24.8468 C   0  0  0  0  0  0
  -21.4199  -29.3061   22.3672 N   0  0  0  0  0  0
  -26.4281  -37.3784   23.9421 N   0  0  0  0  0  0
  -24.6897  -31.0585   22.0955 N   0  0  0  0  0  0
  -23.4213  -28.8170   23.3009 O   0  0  0  0  0  0
  -28.3737  -26.4993   20.1564 O   0  0  0  0  0  0
  -26.5604  -34.8929   22.4665 O   0  0  0  0  0  0
  -23.5439  -32.1384   23.7323 O   0  0  0  0  0  0
  -29.0074  -23.5098   21.1872 C   0  0  0  0  0  0
  -28.5404  -22.6851   19.0127 C   0  0  0  0  0  0
  -28.6591  -23.8275   19.8571 C   0  0  0  0  0  0
  -29.2710  -22.1582   21.5920 C   0  0  0  0  0  0
  -29.1661  -21.0932   20.6423 C   0  0  0  0  0  0
  -28.5282  -21.3037   23.8624 C   0  0  0  0  0  0
  -30.3305  -23.0729   23.7692 C   0  0  0  0  0  0
  -28.2374  -25.4770   17.8240 C   0  0  0  0  0  0
  -29.3394  -18.4424   20.2800 C   0  0  0  0  0  0
  -30.2800  -17.2470   20.8042 C   0  0  0  0  0  0
  -29.6971  -21.8713   23.0412 C   0  0  0  0  0  0
  -28.6500  -25.3165   19.3018 C   0  0  1  0  0  0
  -28.7732  -21.3818   19.3806 N   0  0  0  0  0  0
  -29.5140  -19.7438   21.0049 N   0  0  0  0  0  0
  -29.8416  -15.8019   20.6832 N   0  0  0  0  0  0
  -31.4732  -12.5430   19.1570 H   0  0  0  0  0  0
  -30.3725  -11.4393   19.9334 H   0  0  0  0  0  0
  -29.7833  -11.7277   17.5005 H   0  0  0  0  0  0
  -29.6397  -13.4531   17.7213 H   0  0  0  0  0  0
  -27.8871  -11.2790   18.9056 H   0  0  0  0  0  0
  -27.3744  -12.5165   17.7911 H   0  0  0  0  0  0
  -27.6428  -14.2478   19.4690 H   0  0  0  0  0  0
  -28.7087  -12.1325   21.4090 H   0  0  0  0  0  0
  -28.4296  -13.8113   21.7943 H   0  0  0  0  0  0
  -25.2765   -9.5677   22.4750 H   0  0  0  0  0  0
  -24.0004   -7.4627   22.7474 H   0  0  0  0  0  0
  -21.0836   -8.8766   19.8951 H   0  0  0  0  0  0
  -22.3707  -10.9655   19.6147 H   0  0  0  0  0  0
  -21.2006   -7.6143   23.9717 H   0  0  0  0  0  0
  -21.1483   -6.0519   25.9078 H   0  0  0  0  0  0
  -22.0596   -2.7606   23.2862 H   0  0  0  0  0  0
  -22.4088  -11.9896   22.4844 H   0  0  0  0  0  0
  -21.1061  -13.1209   22.2583 H   0  0  0  0  0  0
  -24.6449  -15.8389   20.5093 H   0  0  0  0  0  0
  -26.2551  -15.6316   20.0462 H   0  0  0  0  0  0
  -26.7195  -32.5453   23.1068 H   0  0  0  0  0  0
  -25.0080  -33.9704   25.0419 H   0  0  0  0  0  0
  -22.7151  -31.3018   21.3966 H   0  0  0  0  0  0
  -23.3745  -35.9630   23.3306 H   0  0  0  0  0  0
  -24.3554  -36.8907   22.2046 H   0  0  0  0  0  0
  -23.7219  -37.6498   23.6653 H   0  0  0  0  0  0
  -26.0794  -31.5470   20.5945 H   0  0  0  0  0  0
  -26.8479  -30.8450   21.9859 H   0  0  0  0  0  0
  -28.1142  -28.9819   21.1651 H   0  0  0  0  0  0
  -25.9425  -25.8663   19.1133 H   0  0  0  0  0  0
  -23.9521  -27.2728   19.0641 H   0  0  0  0  0  0
  -23.7626  -30.5891   19.4017 H   0  0  0  0  0  0
  -22.7561  -29.2457   19.8523 H   0  0  0  0  0  0
  -25.1270  -36.1935   25.0829 H   0  0  0  0  0  0
  -20.9985  -28.3277   24.1399 H   0  0  0  0  0  0
  -20.5665  -26.2314   23.3599 H   0  0  0  0  0  0
  -21.6644  -26.7449   22.1191 H   0  0  0  0  0  0
  -19.6897  -25.6321   21.1238 H   0  0  0  0  0  0
  -19.6690  -27.3220   20.6737 H   0  0  0  0  0  0
  -17.4191  -26.6714   21.4038 H   0  0  0  0  0  0
  -18.0344  -26.0095   22.9021 H   0  0  0  0  0  0
  -19.7924  -30.7296   24.2303 H   0  0  0  0  0  0
  -17.4996  -31.6283   24.5181 H   0  0  0  0  0  0
  -15.5348  -30.3009   23.7637 H   0  0  0  0  0  0
  -15.8681  -28.0847   22.7051 H   0  0  0  0  0  0
  -24.5971  -30.6984   25.7743 H   0  0  0  0  0  0
  -24.8866  -32.2822   26.4832 H   0  0  0  0  0  0
  -25.8079  -30.8887   27.0193 H   0  0  0  0  0  0
  -26.2868  -29.6775   24.1188 H   0  0  0  0  0  0
  -27.4072  -29.7261   25.4600 H   0  0  0  0  0  0
  -27.8731  -30.4311   23.9297 H   0  0  0  0  0  0
  -27.2741  -33.3627   26.2033 H   0  0  0  0  0  0
  -28.3918  -32.6809   25.0312 H   0  0  0  0  0  0
  -28.0732  -31.8415   26.5386 H   0  0  0  0  0  0
  -28.2588  -38.0097   24.7509 H   0  0  0  0  0  0
  -28.1069  -36.2617   24.6299 H   0  0  0  0  0  0
  -27.2287  -37.1453   25.8869 H   0  0  0  0  0  0
  -20.9385  -29.8778   21.6865 H   0  0  0  0  0  0
  -26.0165  -38.2856   24.1443 H   0  0  0  0  0  0
  -29.1288  -24.3305   21.8762 H   0  0  0  0  0  0
  -28.3022  -22.8083   17.9667 H   0  0  0  0  0  0
  -28.1341  -20.3846   23.4274 H   0  0  0  0  0  0
  -27.7071  -22.0184   23.9288 H   0  0  0  0  0  0
  -28.8421  -21.0674   24.8794 H   0  0  0  0  0  0
  -31.1475  -23.5065   23.1921 H   0  0  0  0  0  0
  -30.7473  -22.7666   24.7292 H   0  0  0  0  0  0
  -29.6024  -23.8570   23.9783 H   0  0  0  0  0  0
  -28.2840  -26.5220   17.5171 H   0  0  0  0  0  0
  -27.2340  -25.1081   17.6209 H   0  0  0  0  0  0
  -28.9146  -24.9292   17.1679 H   0  0  0  0  0  0
  -28.2937  -18.1524   20.3867 H   0  0  0  0  0  0
  -29.5002  -18.5994   19.2122 H   0  0  0  0  0  0
  -30.4418  -17.3946   21.8724 H   0  0  0  0  0  0
  -31.2651  -17.3637   20.3489 H   0  0  0  0  0  0
  -30.4820  -21.1155   23.0037 H   0  0  0  0  0  0
  -29.7294  -25.4566   19.2305 H   0  0  0  0  0  0
  -29.7861  -19.6309   21.9737 H   0  0  0  0  0  0
  -28.8653  -15.6194   20.8608 H   0  0  0  0  0  0
  1 25  1  0  0  0
  1 30  2  0  0  0
  1 85  1  0  0  0
  2  3  1  0  0  0
  2 25  1  0  0  0
  2 86  1  0  0  0
  2 87  1  0  0  0
  3  4  1  0  0  0
  3 88  1  0  0  0
  3 89  1  0  0  0
  4  5  1  0  0  0
  4 90  1  0  0  0
  4 91  1  0  0  0
  5  6  1  0  0  0
  5 26  1  0  0  0
  5 92  1  0  0  0
  6 25  1  0  0  0
  6 93  1  0  0  0
  6 94  1  0  0  0
  7  8  2  0  0  0
  7 26  1  0  0  0
  7 29  1  0  0  0
  8  9  1  0  0  0
  8 22  1  0  0  0
  9 10  1  0  0  0
  9 27  2  0  0  0
 10 11  2  0  0  0
 10 15  1  0  0  0
 11 12  1  0  0  0
 11 95  1  0  0  0
 12 13  2  0  0  0
 12 96  1  0  0  0
 13 14  1  0  0  0
 13 31  1  0  0  0
 14 15  2  0  0  0
 14 97  1  0  0  0
 15 98  1  0  0  0
 16 17  2  0  0  0
 16 21  1  0  0  0
 16 31  1  0  0  0
 17 18  1  0  0  0
 17 99  1  0  0  0
 18 19  2  0  0  0
 18100  1  0  0  0
 19 20  1  0  0  0
 19 24  1  0  0  0
 20 21  2  0  0  0
 20101  1  0  0  0
 21 23  1  0  0  0
 22 28  1  0  0  0
 22 32  2  0  0  0
 26 27  1  0  0  0
 28102  1  0  0  0
 28103  1  0  0  0
 29104  1  0  0  0
 29105  1  0  0  0
 33 34  1  0  0  0
 33 66  1  0  0  0
 33 70  2  0  0  0
 34 36  1  0  0  0
 34 59  1  0  0  0
 34106  1  0  0  0
 35 44  2  0  0  0
 35 45  1  0  0  0
 35 68  1  0  0  0
 36 56  1  0  0  0
 36107  1  0  0  0
 37 39  1  0  0  0
 37 47  1  0  0  0
 37 66  1  0  0  0
 37108  1  0  0  0
 38 43  2  0  0  0
 38 46  1  0  0  0
 38 47  1  0  0  0
 39 64  1  0  0  0
 39 67  2  0  0  0
 40 52  1  0  0  0
 40 53  2  0  0  0
 40 58  1  0  0  0
 41109  1  0  0  0
 41110  1  0  0  0
 41111  1  0  0  0
 41 48  1  0  0  0
 42 43  1  0  0  0
 42 66  1  0  0  0
 42112  1  0  0  0
 42113  1  0  0  0
 43 44  1  0  0  0
 44114  1  0  0  0
 45 46  2  0  0  0
 45115  1  0  0  0
 46116  1  0  0  0
 47117  1  0  0  0
 47118  1  0  0  0
 48 56  1  0  0  0
 48 65  1  0  0  0
 48119  1  0  0  0
 49 50  1  0  0  0
 49 53  1  0  0  0
 49 64  1  0  0  0
 49120  1  0  0  0
 50 51  1  0  0  0
 50121  1  0  0  0
 50122  1  0  0  0
 51 52  1  0  0  0
 51123  1  0  0  0
 51124  1  0  0  0
 52125  1  0  0  0
 52126  1  0  0  0
 53 54  1  0  0  0
 54 55  2  0  0  0
 54127  1  0  0  0
 55 57  1  0  0  0
 55128  1  0  0  0
 56 69  2  0  0  0
 57 58  2  0  0  0
 57129  1  0  0  0
 58130  1  0  0  0
 59 60  1  0  0  0
 59 61  1  0  0  0
 59 62  1  0  0  0
 60131  1  0  0  0
 60132  1  0  0  0
 60133  1  0  0  0
 61134  1  0  0  0
 61135  1  0  0  0
 61136  1  0  0  0
 62137  1  0  0  0
 62138  1  0  0  0
 62139  1  0  0  0
 63 65  1  0  0  0
 63140  1  0  0  0
 63141  1  0  0  0
 63142  1  0  0  0
 64143  1  0  0  0
 65144  1  0  0  0
 68 82  1  0  0  0
 71 73  2  0  0  0
 71 74  1  0  0  0
 71145  1  0  0  0
 72 73  1  0  0  0
 72 83  2  0  0  0
 72146  1  0  0  0
 73 82  1  0  0  0
 74 75  2  0  0  0
 74 81  1  0  0  0
 75 83  1  0  0  0
 75 84  1  0  0  0
 76147  1  0  0  0
 76148  1  0  0  0
 76149  1  0  0  0
 76 81  1  0  0  0
 77 81  1  0  0  0
 77150  1  0  0  0
 77151  1  0  0  0
 77152  1  0  0  0
 78153  1  0  0  0
 78154  1  0  0  0
 78155  1  0  0  0
 78 82  1  0  0  0
 79 80  1  0  0  0
 79 84  1  0  0  0
 79156  1  0  0  0
 79157  1  0  0  0
 80 85  1  0  0  0
 80158  1  0  0  0
 80159  1  0  0  0
 81160  1  0  0  0
 82161  1  0  0  0
 84162  1  0  0  0
 85163  1  0  0  0
M  ISO  4   1 100  68 101  82 101  85 100
M  END
> <chiral flag>
0

> <version>
0

> <s_m_source_file>
/data/baiqing/PycharmProjects/Reinvent-master-3.2/result/LINK_invent/BTK/process_docking_weight1_custom_sum_contain_oxygen_bond_distance_aromatic_linkinvent_7_9_3/rearranged_h_0112.sdf

> <i_m_source_file_index>
78

> <r_mmod_Potential_Energy-OPLS-2005>
-122.744537353516

> <r_mmod_Stretch_Energy-OPLS-2005>
89.4980087280273

> <r_mmod_Bend_Energy-OPLS-2005>
198.782928466797

> <r_mmod_Torsional_Energy-OPLS-2005>
207.209259033203

> <r_mmod_Improper_Torsional_Energy-OPLS-2005>
6.29051876068115

> <r_mmod_Van_der_Waal_Energy-OPLS-2005>
147.977111816406

> <r_mmod_Electrostatic_Energy-OPLS-2005>
-599.080627441406

> <r_mmod_Solvation_Energy-OPLS-2005>
-233.283630371094

> <b_mmod_Minimization_Converged-OPLS-2005>
0

> <r_mmod_RMS_Derivative-OPLS-2005>
1.76850509643555

$$$$
78
                    3D
 Structure written by MMmdl.
161169  0  0  1  0            999 V2000
  -30.5399  -14.9728   20.4333 C   0  0  0  0  0  0
  -30.4548  -12.6197   19.4844 C   0  0  0  0  0  0
  -29.5303  -12.5341   18.2459 C   0  0  0  0  0  0
  -28.0549  -12.3361   18.6475 C   0  0  0  0  0  0
  -27.6302  -13.2524   19.8243 C   0  0  2  0  0  0
  -28.6753  -13.2839   20.9603 C   0  0  0  0  0  0
  -25.2445  -13.8242   20.5660 C   0  0  0  0  0  0
  -24.1776  -13.0425   20.9210 C   0  0  0  0  0  0
  -24.6413  -11.6930   20.8683 C   0  0  0  0  0  0
  -23.9066  -10.4299   21.0314 C   0  0  0  0  0  0
  -24.3639   -9.4228   21.9099 C   0  0  0  0  0  0
  -23.6327   -8.2253   22.0714 C   0  0  0  0  0  0
  -22.4310   -8.0256   21.3496 C   0  0  0  0  0  0
  -21.9920   -9.0202   20.4568 C   0  0  0  0  0  0
  -22.7222  -10.2104   20.2968 C   0  0  0  0  0  0
  -21.6866   -6.0703   22.5248 C   0  0  0  0  0  0
  -21.3970   -6.5612   23.8162 C   0  0  0  0  0  0
  -21.3698   -5.6784   24.9144 C   0  0  0  0  0  0
  -21.6074   -4.3044   24.7193 C   0  0  0  0  0  0
  -21.8827   -3.8118   23.4316 C   0  0  0  0  0  0
  -21.9195   -4.6929   22.3371 C   0  0  0  0  0  0
  -22.7780  -13.5163   21.1840 C   0  0  0  0  0  0
  -22.1663   -4.2106   21.0946 F   0  0  0  0  0  0
  -21.5689   -3.4540   25.7719 F   0  0  0  0  0  0
  -29.9449  -13.7142   20.3617 N   0  0  0  0  0  0
  -26.2870  -12.9474   20.3140 N   0  0  0  0  0  0
  -25.9347  -11.6591   20.5656 N   0  0  0  0  0  0
  -22.0456  -12.8142   22.0435 N   0  0  0  0  0  0
  -25.4061  -15.1965   20.4091 N   0  0  0  0  0  0
  -31.7502  -15.0342   20.1929 O   0  0  0  0  0  0
  -21.6661   -6.8853   21.4221 O   0  0  0  0  0  0
  -22.3405  -14.5408   20.6628 O   0  0  0  0  0  0
  -24.6528  -31.8366   23.1846 C   0  0  0  0  0  0
  -25.9294  -32.4631   23.8245 C   0  0  1  0  0  0
  -27.1913  -27.0717   20.1722 C   0  0  0  0  0  0
  -25.6015  -33.8438   24.2154 N   0  0  0  0  0  0
  -23.4523  -30.4615   21.5294 C   0  0  2  0  0  0
  -24.8943  -28.8804   20.1022 C   0  0  0  0  0  0
  -22.7600  -29.4539   22.4815 C   0  0  0  0  0  0
  -18.0306  -28.1371   22.8427 C   0  0  0  0  0  0
  -24.1461  -36.7252   23.2634 C   0  0  0  0  0  0
  -26.0131  -30.6937   21.3873 C   0  0  0  0  0  0
  -26.0750  -29.2998   20.7300 C   0  0  0  0  0  0
  -27.2221  -28.4130   20.7463 C   0  0  0  0  0  0
  -25.9991  -26.7857   19.4670 C   0  0  0  0  0  0
  -24.8720  -27.6361   19.4535 C   0  0  0  0  0  0
  -23.6797  -29.7981   20.1445 C   0  0  0  0  0  0
  -25.4088  -36.2994   24.0305 C   0  0  1  0  0  0
  -20.5920  -28.3707   23.1174 C   0  0  2  0  0  0
  -20.6765  -26.9396   22.5372 C   0  0  0  0  0  0
  -19.5763  -26.6351   21.5152 C   0  0  0  0  0  0
  -18.1943  -26.7905   22.1564 C   0  0  0  0  0  0
  -19.1567  -28.8861   23.2782 C   0  0  0  0  0  0
  -18.9485  -30.1454   23.8810 C   0  0  0  0  0  0
  -17.6487  -30.6557   24.0538 C   0  0  0  0  0  0
  -25.9070  -34.9368   23.5041 C   0  0  0  0  0  0
  -16.5372  -29.9058   23.6317 C   0  0  0  0  0  0
  -16.7298  -28.6477   23.0328 C   0  0  0  0  0  0
  -26.4557  -31.6545   25.0737 C   0  0  0  0  0  0
  -25.3742  -31.3797   26.1461 C   0  0  0  0  0  0
  -27.0452  -30.2925   24.6408 C   0  0  0  0  0  0
  -27.6061  -32.4341   25.7560 C   0  0  0  0  0  0
  -27.5555  -37.1763   24.8434 C   0  0  0  0  0  0
  -21.4285  -29.3053   22.3573 N   0  0  0  0  0  0
  -26.4214  -37.3741   23.9459 N   0  0  0  0  0  0
  -24.7270  -31.0205   22.0873 N   0  0  0  0  0  0
  -23.4217  -28.8047   23.2967 O   0  0  0  0  0  0
  -28.1999  -26.0264   20.3044 O   0  0  0  0  0  0
  -26.5633  -34.8903   22.4611 O   0  0  0  0  0  0
  -23.5649  -32.1253   23.7064 O   0  0  0  0  0  0
  -30.8587  -22.5032   21.9113 C   0  0  0  0  0  0
  -30.0562  -23.5246   21.3702 C   0  0  0  0  0  0
  -30.5997  -21.1161   21.7165 C   0  0  0  0  0  0
  -28.9155  -23.2157   20.6252 C   0  0  0  0  0  0
  -29.5194  -20.7259   20.8592 C   0  0  0  0  0  0
  -30.6935  -19.4186   23.6407 C   0  0  0  0  0  0
  -32.8105  -20.6325   23.0420 C   0  0  0  0  0  0
  -26.7050  -24.2810   21.3187 C   0  0  0  0  0  0
  -29.1658  -19.1027   20.5812 C   0  0  0  0  0  0
  -30.1718  -17.7042   20.6807 C   0  0  0  0  0  0
  -31.4722  -20.0953   22.4835 C   0  0  0  0  0  0
  -27.8558  -24.4710   20.3041 C   0  0  1  0  0  0
  -28.6991  -21.8102   20.3800 N   0  0  0  0  0  0
  -29.7658  -16.1674   20.5805 N   0  0  0  0  0  0
  -31.4756  -12.8145   19.1460 H   0  0  0  0  0  0
  -30.4972  -11.6740   20.0274 H   0  0  0  0  0  0
  -29.8601  -11.7260   17.5893 H   0  0  0  0  0  0
  -29.6216  -13.4531   17.6644 H   0  0  0  0  0  0
  -27.9220  -11.2917   18.9259 H   0  0  0  0  0  0
  -27.4083  -12.5056   17.7825 H   0  0  0  0  0  0
  -27.5955  -14.2552   19.4002 H   0  0  0  0  0  0
  -28.7770  -12.3080   21.4362 H   0  0  0  0  0  0
  -28.3726  -13.9822   21.7414 H   0  0  0  0  0  0
  -25.2811   -9.5732   22.4629 H   0  0  0  0  0  0
  -24.0048   -7.4671   22.7450 H   0  0  0  0  0  0
  -21.0850   -8.8659   19.8895 H   0  0  0  0  0  0
  -22.3646  -10.9591   19.6035 H   0  0  0  0  0  0
  -21.1918   -7.6116   23.9634 H   0  0  0  0  0  0
  -21.1532   -6.0519   25.9047 H   0  0  0  0  0  0
  -22.0591   -2.7574   23.2809 H   0  0  0  0  0  0
  -22.4173  -11.9954   22.5004 H   0  0  0  0  0  0
  -21.0943  -13.0917   22.2392 H   0  0  0  0  0  0
  -24.6271  -15.8383   20.5198 H   0  0  0  0  0  0
  -26.2328  -15.6447   20.0386 H   0  0  0  0  0  0
  -26.7399  -32.5201   23.1002 H   0  0  0  0  0  0
  -25.0230  -33.9495   25.0356 H   0  0  0  0  0  0
  -22.7608  -31.2915   21.3784 H   0  0  0  0  0  0
  -23.3708  -35.9588   23.3201 H   0  0  0  0  0  0
  -24.3562  -36.8977   22.2067 H   0  0  0  0  0  0
  -23.7206  -37.6422   23.6722 H   0  0  0  0  0  0
  -26.1811  -31.4402   20.6103 H   0  0  0  0  0  0
  -26.8813  -30.7377   22.0329 H   0  0  0  0  0  0
  -28.1136  -28.7229   21.2694 H   0  0  0  0  0  0
  -25.8906  -25.8366   18.9628 H   0  0  0  0  0  0
  -23.9727  -27.3075   18.9481 H   0  0  0  0  0  0
  -23.8445  -30.5777   19.4010 H   0  0  0  0  0  0
  -22.7834  -29.2687   19.8107 H   0  0  0  0  0  0
  -25.1263  -36.1763   25.0777 H   0  0  0  0  0  0
  -21.0007  -28.3297   24.1290 H   0  0  0  0  0  0
  -20.5534  -26.2359   23.3601 H   0  0  0  0  0  0
  -21.6651  -26.7314   22.1251 H   0  0  0  0  0  0
  -19.6911  -25.6236   21.1235 H   0  0  0  0  0  0
  -19.6695  -27.3092   20.6614 H   0  0  0  0  0  0
  -17.4202  -26.6589   21.3988 H   0  0  0  0  0  0
  -18.0376  -26.0055   22.8971 H   0  0  0  0  0  0
  -19.7975  -30.7277   24.2124 H   0  0  0  0  0  0
  -17.5050  -31.6205   24.5179 H   0  0  0  0  0  0
  -15.5369  -30.2937   23.7689 H   0  0  0  0  0  0
  -15.8688  -28.0779   22.7089 H   0  0  0  0  0  0
  -24.5906  -30.7115   25.7882 H   0  0  0  0  0  0
  -24.8950  -32.3003   26.4821 H   0  0  0  0  0  0
  -25.8070  -30.9079   27.0300 H   0  0  0  0  0  0
  -26.3121  -29.6622   24.1370 H   0  0  0  0  0  0
  -27.3975  -29.7262   25.5052 H   0  0  0  0  0  0
  -27.9054  -30.4140   23.9817 H   0  0  0  0  0  0
  -27.2608  -33.3671   26.2052 H   0  0  0  0  0  0
  -28.3950  -32.6866   25.0455 H   0  0  0  0  0  0
  -28.0637  -31.8519   26.5571 H   0  0  0  0  0  0
  -28.2486  -38.0148   24.7603 H   0  0  0  0  0  0
  -28.1129  -36.2692   24.6059 H   0  0  0  0  0  0
  -27.2319  -37.1189   25.8840 H   0  0  0  0  0  0
  -20.9490  -29.8882   21.6856 H   0  0  0  0  0  0
  -26.0038  -38.2772   24.1558 H   0  0  0  0  0  0
  -31.6788  -22.8296   22.5300 H   0  0  0  0  0  0
  -30.2805  -24.5585   21.5975 H   0  0  0  0  0  0
  -29.7564  -18.9613   23.3220 H   0  0  0  0  0  0
  -30.4499  -20.1320   24.4298 H   0  0  0  0  0  0
  -31.2888  -18.6258   24.0982 H   0  0  0  0  0  0
  -33.4322  -21.0755   22.2617 H   0  0  0  0  0  0
  -33.3975  -19.8286   23.4873 H   0  0  0  0  0  0
  -32.6644  -21.3647   23.8351 H   0  0  0  0  0  0
  -26.4085  -23.2368   21.3776 H   0  0  0  0  0  0
  -25.7987  -24.8295   21.0683 H   0  0  0  0  0  0
  -27.0102  -24.5922   22.3175 H   0  0  0  0  0  0
  -28.3338  -18.9200   21.2598 H   0  0  0  0  0  0
  -28.7245  -19.0821   19.5860 H   0  0  0  0  0  0
  -31.0089  -17.8481   19.9969 H   0  0  0  0  0  0
  -30.6116  -17.6887   21.6685 H   0  0  0  0  0  0
  -31.8036  -19.3596   21.7598 H   0  0  0  0  0  0
  -27.4686  -24.2481   19.3100 H   0  0  0  0  0  0
  -28.7808  -15.9911   20.7130 H   0  0  0  0  0  0
  1 25  1  0  0  0
  1 30  2  0  0  0
  1 84  1  0  0  0
  2  3  1  0  0  0
  2 25  1  0  0  0
  2 85  1  0  0  0
  2 86  1  0  0  0
  3  4  1  0  0  0
  3 87  1  0  0  0
  3 88  1  0  0  0
  4  5  1  0  0  0
  4 89  1  0  0  0
  4 90  1  0  0  0
  5  6  1  0  0  0
  5 26  1  0  0  0
  5 91  1  0  0  0
  6 25  1  0  0  0
  6 92  1  0  0  0
  6 93  1  0  0  0
  7  8  2  0  0  0
  7 26  1  0  0  0
  7 29  1  0  0  0
  8  9  1  0  0  0
  8 22  1  0  0  0
  9 10  1  0  0  0
  9 27  2  0  0  0
 10 11  2  0  0  0
 10 15  1  0  0  0
 11 12  1  0  0  0
 11 94  1  0  0  0
 12 13  2  0  0  0
 12 95  1  0  0  0
 13 14  1  0  0  0
 13 31  1  0  0  0
 14 15  2  0  0  0
 14 96  1  0  0  0
 15 97  1  0  0  0
 16 17  2  0  0  0
 16 21  1  0  0  0
 16 31  1  0  0  0
 17 18  1  0  0  0
 17 98  1  0  0  0
 18 19  2  0  0  0
 18 99  1  0  0  0
 19 20  1  0  0  0
 19 24  1  0  0  0
 20 21  2  0  0  0
 20100  1  0  0  0
 21 23  1  0  0  0
 22 28  1  0  0  0
 22 32  2  0  0  0
 26 27  1  0  0  0
 28101  1  0  0  0
 28102  1  0  0  0
 29103  1  0  0  0
 29104  1  0  0  0
 33 34  1  0  0  0
 33 66  1  0  0  0
 33 70  2  0  0  0
 34 36  1  0  0  0
 34 59  1  0  0  0
 34105  1  0  0  0
 35 44  2  0  0  0
 35 45  1  0  0  0
 35 68  1  0  0  0
 36 56  1  0  0  0
 36106  1  0  0  0
 37 39  1  0  0  0
 37 47  1  0  0  0
 37 66  1  0  0  0
 37107  1  0  0  0
 38 43  2  0  0  0
 38 46  1  0  0  0
 38 47  1  0  0  0
 39 64  1  0  0  0
 39 67  2  0  0  0
 40 52  1  0  0  0
 40 53  2  0  0  0
 40 58  1  0  0  0
 41108  1  0  0  0
 41109  1  0  0  0
 41110  1  0  0  0
 41 48  1  0  0  0
 42 43  1  0  0  0
 42 66  1  0  0  0
 42111  1  0  0  0
 42112  1  0  0  0
 43 44  1  0  0  0
 44113  1  0  0  0
 45 46  2  0  0  0
 45114  1  0  0  0
 46115  1  0  0  0
 47116  1  0  0  0
 47117  1  0  0  0
 48 56  1  0  0  0
 48 65  1  0  0  0
 48118  1  0  0  0
 49 50  1  0  0  0
 49 53  1  0  0  0
 49 64  1  0  0  0
 49119  1  0  0  0
 50 51  1  0  0  0
 50120  1  0  0  0
 50121  1  0  0  0
 51 52  1  0  0  0
 51122  1  0  0  0
 51123  1  0  0  0
 52124  1  0  0  0
 52125  1  0  0  0
 53 54  1  0  0  0
 54 55  2  0  0  0
 54126  1  0  0  0
 55 57  1  0  0  0
 55127  1  0  0  0
 56 69  2  0  0  0
 57 58  2  0  0  0
 57128  1  0  0  0
 58129  1  0  0  0
 59 60  1  0  0  0
 59 61  1  0  0  0
 59 62  1  0  0  0
 60130  1  0  0  0
 60131  1  0  0  0
 60132  1  0  0  0
 61133  1  0  0  0
 61134  1  0  0  0
 61135  1  0  0  0
 62136  1  0  0  0
 62137  1  0  0  0
 62138  1  0  0  0
 63 65  1  0  0  0
 63139  1  0  0  0
 63140  1  0  0  0
 63141  1  0  0  0
 64142  1  0  0  0
 65143  1  0  0  0
 68 82  1  0  0  0
 71 72  2  0  0  0
 71 73  1  0  0  0
 71144  1  0  0  0
 72 74  1  0  0  0
 72145  1  0  0  0
 73 75  2  0  0  0
 73 81  1  0  0  0
 74 82  1  0  0  0
 74 83  2  0  0  0
 75 79  1  0  0  0
 75 83  1  0  0  0
 76146  1  0  0  0
 76147  1  0  0  0
 76148  1  0  0  0
 76 81  1  0  0  0
 77 81  1  0  0  0
 77149  1  0  0  0
 77150  1  0  0  0
 77151  1  0  0  0
 78152  1  0  0  0
 78153  1  0  0  0
 78154  1  0  0  0
 78 82  1  0  0  0
 79 80  1  0  0  0
 79155  1  0  0  0
 79156  1  0  0  0
 80 84  1  0  0  0
 80157  1  0  0  0
 80158  1  0  0  0
 81159  1  0  0  0
 82160  1  0  0  0
 84161  1  0  0  0
M  ISO  4   1 100  68 101  82 101  84 100
M  END
> <chiral flag>
0

> <version>
0

> <s_m_source_file>
/data/baiqing/PycharmProjects/Reinvent-master-3.2/result/LINK_invent/BTK/process_docking_weight1_custom_sum_contain_oxygen_bond_distance_aromatic_linkinvent_7_9_3/rearranged_h_0112.sdf

> <i_m_source_file_index>
79

> <r_mmod_Potential_Energy-OPLS-2005>
506.409484863281

> <r_mmod_Stretch_Energy-OPLS-2005>
332.524017333984

> <r_mmod_Bend_Energy-OPLS-2005>
289.382476806641

> <r_mmod_Torsional_Energy-OPLS-2005>
211.550750732422

> <r_mmod_Improper_Torsional_Energy-OPLS-2005>
5.55093622207642

> <r_mmod_Van_der_Waal_Energy-OPLS-2005>
141.062698364258

> <r_mmod_Electrostatic_Energy-OPLS-2005>
-490.124694824219

> <r_mmod_Solvation_Energy-OPLS-2005>
-223.048980712891

> <b_mmod_Minimization_Converged-OPLS-2005>
0

> <r_mmod_RMS_Derivative-OPLS-2005>
4.74157285690308

$$$$
79
                    3D
 Structure written by MMmdl.
156165  0  0  1  0            999 V2000
  -30.6690  -14.6616   20.4817 C   0  0  0  0  0  0
  -30.4246  -12.4101   19.4619 C   0  0  0  0  0  0
  -29.4995  -12.4817   18.2290 C   0  0  0  0  0  0
  -28.0270  -12.3185   18.6485 C   0  0  0  0  0  0
  -27.6427  -13.2250   19.8482 C   0  0  2  0  0  0
  -28.6874  -13.1513   20.9831 C   0  0  0  0  0  0
  -25.2520  -13.8199   20.5678 C   0  0  0  0  0  0
  -24.1799  -13.0448   20.9206 C   0  0  0  0  0  0
  -24.6387  -11.6933   20.8757 C   0  0  0  0  0  0
  -23.9071  -10.4307   21.0417 C   0  0  0  0  0  0
  -24.3627   -9.4219   21.9192 C   0  0  0  0  0  0
  -23.6306   -8.2250   22.0755 C   0  0  0  0  0  0
  -22.4286   -8.0288   21.3544 C   0  0  0  0  0  0
  -21.9927   -9.0259   20.4640 C   0  0  0  0  0  0
  -22.7252  -10.2143   20.3057 C   0  0  0  0  0  0
  -21.6850   -6.0747   22.5284 C   0  0  0  0  0  0
  -21.4011   -6.5649   23.8215 C   0  0  0  0  0  0
  -21.3657   -5.6799   24.9175 C   0  0  0  0  0  0
  -21.6043   -4.3065   24.7220 C   0  0  0  0  0  0
  -21.8819   -3.8159   23.4342 C   0  0  0  0  0  0
  -21.9192   -4.6979   22.3401 C   0  0  0  0  0  0
  -22.7826  -13.5235   21.1862 C   0  0  0  0  0  0
  -22.1662   -4.2166   21.0979 F   0  0  0  0  0  0
  -21.5629   -3.4547   25.7731 F   0  0  0  0  0  0
  -29.9970  -13.4693   20.4007 N   0  0  0  0  0  0
  -26.2937  -12.9393   20.3274 N   0  0  0  0  0  0
  -25.9313  -11.6549   20.5780 N   0  0  0  0  0  0
  -22.0467  -12.8207   22.0408 N   0  0  0  0  0  0
  -25.4210  -15.1915   20.4072 N   0  0  0  0  0  0
  -31.8539  -14.7300   20.1474 O   0  0  0  0  0  0
  -21.6644   -6.8890   21.4244 O   0  0  0  0  0  0
  -22.3507  -14.5535   20.6710 O   0  0  0  0  0  0
  -24.6286  -31.8596   23.2021 C   0  0  0  0  0  0
  -25.9141  -32.4758   23.8346 C   0  0  1  0  0  0
  -27.2040  -27.2858   20.0991 C   0  0  0  0  0  0
  -25.5961  -33.8562   24.2266 N   0  0  0  0  0  0
  -23.4212  -30.4861   21.5465 C   0  0  2  0  0  0
  -24.8619  -28.9430   20.1083 C   0  0  0  0  0  0
  -22.7501  -29.4621   22.4934 C   0  0  0  0  0  0
  -18.0289  -28.1403   22.8478 C   0  0  0  0  0  0
  -24.1502  -36.7280   23.2627 C   0  0  0  0  0  0
  -25.9682  -30.7734   21.3848 C   0  0  0  0  0  0
  -26.0341  -29.4026   20.7187 C   0  0  0  0  0  0
  -27.2049  -28.5834   20.7083 C   0  0  0  0  0  0
  -25.9937  -26.8805   19.4863 C   0  0  0  0  0  0
  -24.8439  -27.6886   19.4882 C   0  0  0  0  0  0
  -23.6363  -29.8304   20.1586 C   0  0  0  0  0  0
  -25.4127  -36.3061   24.0310 C   0  0  1  0  0  0
  -20.5892  -28.3704   23.1283 C   0  0  2  0  0  0
  -20.6793  -26.9434   22.5402 C   0  0  0  0  0  0
  -19.5769  -26.6405   21.5207 C   0  0  0  0  0  0
  -18.1944  -26.7946   22.1615 C   0  0  0  0  0  0
  -19.1545  -28.8876   23.2866 C   0  0  0  0  0  0
  -18.9462  -30.1472   23.8895 C   0  0  0  0  0  0
  -17.6462  -30.6601   24.0574 C   0  0  0  0  0  0
  -25.9077  -34.9432   23.5088 C   0  0  0  0  0  0
  -16.5355  -29.9099   23.6336 C   0  0  0  0  0  0
  -16.7280  -28.6516   23.0354 C   0  0  0  0  0  0
  -26.4520  -31.6577   25.0734 C   0  0  0  0  0  0
  -25.3740  -31.3694   26.1446 C   0  0  0  0  0  0
  -27.0375  -30.2992   24.6225 C   0  0  0  0  0  0
  -27.6084  -32.4326   25.7493 C   0  0  0  0  0  0
  -27.5592  -37.1773   24.8450 C   0  0  0  0  0  0
  -21.4212  -29.3046   22.3679 N   0  0  0  0  0  0
  -26.4291  -37.3768   23.9417 N   0  0  0  0  0  0
  -24.6909  -31.0579   22.0993 N   0  0  0  0  0  0
  -23.4227  -28.8154   23.3005 O   0  0  0  0  0  0
  -28.3343  -26.4441   20.1481 O   0  0  0  0  0  0
  -26.5648  -34.8904   22.4653 O   0  0  0  0  0  0
  -23.5450  -32.1445   23.7325 O   0  0  0  0  0  0
  -28.7211  -18.7106   19.7881 C   0  0  0  0  0  0
  -28.1798  -20.0047   19.5116 C   0  0  0  0  0  0
  -30.3752  -19.7523   21.1943 C   0  0  0  0  0  0
  -29.8268  -21.0489   20.9333 C   0  0  0  0  0  0
  -29.8482  -18.5486   20.6316 C   0  0  0  0  0  0
  -28.7247  -21.1992   20.0619 C   0  0  0  0  0  0
  -30.4106  -22.2963   21.5946 C   0  0  0  0  0  0
  -30.0919  -23.6198   20.8474 C   0  0  0  0  0  0
  -28.6195  -23.7577   20.4020 C   0  0  1  0  0  0
  -30.5977  -17.1817   20.8843 C   0  0  0  0  0  0
  -28.3728  -25.0875   19.5300 C   0  0  0  0  0  0
  -28.2090  -22.4901   19.7231 N   0  0  0  0  0  0
  -29.9705  -15.8140   20.7575 N   0  0  0  0  0  0
  -31.4633  -12.5229   19.1481 H   0  0  0  0  0  0
  -30.3637  -11.4328   19.9426 H   0  0  0  0  0  0
  -29.7685  -11.7052   17.5111 H   0  0  0  0  0  0
  -29.6320  -13.4353   17.7162 H   0  0  0  0  0  0
  -27.8785  -11.2711   18.9156 H   0  0  0  0  0  0
  -27.3671  -12.5096   17.8011 H   0  0  0  0  0  0
  -27.6435  -14.2463   19.4670 H   0  0  0  0  0  0
  -28.7029  -12.1581   21.4340 H   0  0  0  0  0  0
  -28.4326  -13.8468   21.7840 H   0  0  0  0  0  0
  -25.2771   -9.5692   22.4771 H   0  0  0  0  0  0
  -24.0014   -7.4639   22.7472 H   0  0  0  0  0  0
  -21.0865   -8.8781   19.8936 H   0  0  0  0  0  0
  -22.3720  -10.9686   19.6166 H   0  0  0  0  0  0
  -21.2003   -7.6157   23.9721 H   0  0  0  0  0  0
  -21.1474   -6.0531   25.9075 H   0  0  0  0  0  0
  -22.0600   -2.7624   23.2836 H   0  0  0  0  0  0
  -22.4112  -11.9888   22.4806 H   0  0  0  0  0  0
  -21.1069  -13.1196   22.2590 H   0  0  0  0  0  0
  -24.6526  -15.8445   20.5158 H   0  0  0  0  0  0
  -26.2676  -15.6304   20.0680 H   0  0  0  0  0  0
  -26.7197  -32.5403   23.1073 H   0  0  0  0  0  0
  -25.0072  -33.9698   25.0387 H   0  0  0  0  0  0
  -22.7140  -31.3059   21.4067 H   0  0  0  0  0  0
  -23.3775  -35.9599   23.3263 H   0  0  0  0  0  0
  -24.3593  -36.8952   22.2050 H   0  0  0  0  0  0
  -23.7246  -37.6455   23.6698 H   0  0  0  0  0  0
  -26.1187  -31.5399   20.6238 H   0  0  0  0  0  0
  -26.8412  -30.8067   22.0249 H   0  0  0  0  0  0
  -28.1021  -28.9267   21.2034 H   0  0  0  0  0  0
  -25.8586  -25.9224   19.0147 H   0  0  0  0  0  0
  -23.9378  -27.3309   19.0179 H   0  0  0  0  0  0
  -23.7620  -30.6129   19.4086 H   0  0  0  0  0  0
  -22.7545  -29.2663   19.8503 H   0  0  0  0  0  0
  -25.1299  -36.1881   25.0797 H   0  0  0  0  0  0
  -20.9949  -28.3273   24.1419 H   0  0  0  0  0  0
  -20.5737  -26.2300   23.3587 H   0  0  0  0  0  0
  -21.6652  -26.7503   22.1163 H   0  0  0  0  0  0
  -19.6942  -25.6317   21.1231 H   0  0  0  0  0  0
  -19.6709  -27.3220   20.6737 H   0  0  0  0  0  0
  -17.4209  -26.6694   21.4023 H   0  0  0  0  0  0
  -18.0346  -26.0095   22.9019 H   0  0  0  0  0  0
  -19.7941  -30.7283   24.2280 H   0  0  0  0  0  0
  -17.5018  -31.6278   24.5185 H   0  0  0  0  0  0
  -15.5356  -30.2998   23.7674 H   0  0  0  0  0  0
  -15.8678  -28.0837   22.7081 H   0  0  0  0  0  0
  -24.5931  -30.7046   25.7737 H   0  0  0  0  0  0
  -24.8910  -32.2841   26.4891 H   0  0  0  0  0  0
  -25.8043  -30.8838   27.0214 H   0  0  0  0  0  0
  -26.2950  -29.6717   24.1280 H   0  0  0  0  0  0
  -27.4088  -29.7274   25.4738 H   0  0  0  0  0  0
  -27.8825  -30.4266   23.9456 H   0  0  0  0  0  0
  -27.2714  -33.3639   26.2062 H   0  0  0  0  0  0
  -28.3888  -32.6876   25.0310 H   0  0  0  0  0  0
  -28.0779  -31.8468   26.5410 H   0  0  0  0  0  0
  -28.2537  -38.0140   24.7583 H   0  0  0  0  0  0
  -28.1160  -36.2666   24.6171 H   0  0  0  0  0  0
  -27.2317  -37.1289   25.8850 H   0  0  0  0  0  0
  -20.9420  -29.8740   21.6850 H   0  0  0  0  0  0
  -26.0160  -38.2823   24.1478 H   0  0  0  0  0  0
  -28.2833  -17.8428   19.3142 H   0  0  0  0  0  0
  -27.3330  -20.0691   18.8424 H   0  0  0  0  0  0
  -31.2453  -19.6833   21.8333 H   0  0  0  0  0  0
  -31.4898  -22.1803   21.6979 H   0  0  0  0  0  0
  -30.0050  -22.3549   22.6053 H   0  0  0  0  0  0
  -30.7256  -23.6749   19.9614 H   0  0  0  0  0  0
  -30.3707  -24.4708   21.4695 H   0  0  0  0  0  0
  -27.9863  -23.8307   21.2883 H   0  0  0  0  0  0
  -31.0137  -17.2267   21.8917 H   0  0  0  0  0  0
  -31.4656  -17.2187   20.2239 H   0  0  0  0  0  0
  -27.5245  -24.8894   18.8875 H   0  0  0  0  0  0
  -29.1828  -25.1469   18.8022 H   0  0  0  0  0  0
  -27.3578  -22.5240   19.1679 H   0  0  0  0  0  0
  -28.9947  -15.7264   20.9962 H   0  0  0  0  0  0
  1 25  1  0  0  0
  1 30  2  0  0  0
  1 83  1  0  0  0
  2  3  1  0  0  0
  2 25  1  0  0  0
  2 84  1  0  0  0
  2 85  1  0  0  0
  3  4  1  0  0  0
  3 86  1  0  0  0
  3 87  1  0  0  0
  4  5  1  0  0  0
  4 88  1  0  0  0
  4 89  1  0  0  0
  5  6  1  0  0  0
  5 26  1  0  0  0
  5 90  1  0  0  0
  6 25  1  0  0  0
  6 91  1  0  0  0
  6 92  1  0  0  0
  7  8  2  0  0  0
  7 26  1  0  0  0
  7 29  1  0  0  0
  8  9  1  0  0  0
  8 22  1  0  0  0
  9 10  1  0  0  0
  9 27  2  0  0  0
 10 11  2  0  0  0
 10 15  1  0  0  0
 11 12  1  0  0  0
 11 93  1  0  0  0
 12 13  2  0  0  0
 12 94  1  0  0  0
 13 14  1  0  0  0
 13 31  1  0  0  0
 14 15  2  0  0  0
 14 95  1  0  0  0
 15 96  1  0  0  0
 16 17  2  0  0  0
 16 21  1  0  0  0
 16 31  1  0  0  0
 17 18  1  0  0  0
 17 97  1  0  0  0
 18 19  2  0  0  0
 18 98  1  0  0  0
 19 20  1  0  0  0
 19 24  1  0  0  0
 20 21  2  0  0  0
 20 99  1  0  0  0
 21 23  1  0  0  0
 22 28  1  0  0  0
 22 32  2  0  0  0
 26 27  1  0  0  0
 28100  1  0  0  0
 28101  1  0  0  0
 29102  1  0  0  0
 29103  1  0  0  0
 33 34  1  0  0  0
 33 66  1  0  0  0
 33 70  2  0  0  0
 34 36  1  0  0  0
 34 59  1  0  0  0
 34104  1  0  0  0
 35 44  2  0  0  0
 35 45  1  0  0  0
 35 68  1  0  0  0
 36 56  1  0  0  0
 36105  1  0  0  0
 37 39  1  0  0  0
 37 47  1  0  0  0
 37 66  1  0  0  0
 37106  1  0  0  0
 38 43  2  0  0  0
 38 46  1  0  0  0
 38 47  1  0  0  0
 39 64  1  0  0  0
 39 67  2  0  0  0
 40 52  1  0  0  0
 40 53  2  0  0  0
 40 58  1  0  0  0
 41107  1  0  0  0
 41108  1  0  0  0
 41109  1  0  0  0
 41 48  1  0  0  0
 42 43  1  0  0  0
 42 66  1  0  0  0
 42110  1  0  0  0
 42111  1  0  0  0
 43 44  1  0  0  0
 44112  1  0  0  0
 45 46  2  0  0  0
 45113  1  0  0  0
 46114  1  0  0  0
 47115  1  0  0  0
 47116  1  0  0  0
 48 56  1  0  0  0
 48 65  1  0  0  0
 48117  1  0  0  0
 49 50  1  0  0  0
 49 53  1  0  0  0
 49 64  1  0  0  0
 49118  1  0  0  0
 50 51  1  0  0  0
 50119  1  0  0  0
 50120  1  0  0  0
 51 52  1  0  0  0
 51121  1  0  0  0
 51122  1  0  0  0
 52123  1  0  0  0
 52124  1  0  0  0
 53 54  1  0  0  0
 54 55  2  0  0  0
 54125  1  0  0  0
 55 57  1  0  0  0
 55126  1  0  0  0
 56 69  2  0  0  0
 57 58  2  0  0  0
 57127  1  0  0  0
 58128  1  0  0  0
 59 60  1  0  0  0
 59 61  1  0  0  0
 59 62  1  0  0  0
 60129  1  0  0  0
 60130  1  0  0  0
 60131  1  0  0  0
 61132  1  0  0  0
 61133  1  0  0  0
 61134  1  0  0  0
 62135  1  0  0  0
 62136  1  0  0  0
 62137  1  0  0  0
 63 65  1  0  0  0
 63138  1  0  0  0
 63139  1  0  0  0
 63140  1  0  0  0
 64141  1  0  0  0
 65142  1  0  0  0
 68 81  1  0  0  0
 71 72  2  0  0  0
 71 75  1  0  0  0
 71143  1  0  0  0
 72 76  1  0  0  0
 72144  1  0  0  0
 73 74  1  0  0  0
 73 75  2  0  0  0
 73145  1  0  0  0
 74 76  2  0  0  0
 74 77  1  0  0  0
 75 80  1  0  0  0
 76 82  1  0  0  0
 77 78  1  0  0  0
 77146  1  0  0  0
 77147  1  0  0  0
 78 79  1  0  0  0
 78148  1  0  0  0
 78149  1  0  0  0
 79 81  1  0  0  0
 79 82  1  0  0  0
 79150  1  0  0  0
 80 83  1  0  0  0
 80151  1  0  0  0
 80152  1  0  0  0
 81153  1  0  0  0
 81154  1  0  0  0
 82155  1  0  0  0
 83156  1  0  0  0
M  ISO  4   1 100  68 101  81 101  83 100
M  END
> <chiral flag>
0

> <version>
0

> <s_m_source_file>
/data/baiqing/PycharmProjects/Reinvent-master-3.2/result/LINK_invent/BTK/process_docking_weight1_custom_sum_contain_oxygen_bond_distance_aromatic_linkinvent_7_9_3/rearranged_h_0112.sdf

> <i_m_source_file_index>
80

> <r_mmod_Potential_Energy-OPLS-2005>
2.33362436294556

> <r_mmod_Stretch_Energy-OPLS-2005>
85.5026016235352

> <r_mmod_Bend_Energy-OPLS-2005>
163.149658203125

> <r_mmod_Torsional_Energy-OPLS-2005>
201.167373657227

> <r_mmod_Improper_Torsional_Energy-OPLS-2005>
4.94682550430298

> <r_mmod_Van_der_Waal_Energy-OPLS-2005>
151.932098388672

> <r_mmod_Electrostatic_Energy-OPLS-2005>
-443.240661621094

> <r_mmod_Solvation_Energy-OPLS-2005>
-222.905990600586

> <b_mmod_Minimization_Converged-OPLS-2005>
0

> <r_mmod_RMS_Derivative-OPLS-2005>
1.9058655500412

$$$$
80
                    3D
 Structure written by MMmdl.
168175  0  0  1  0            999 V2000
  -30.7563  -14.4112   20.6651 C   0  0  0  0  0  0
  -30.4247  -12.2948   19.4337 C   0  0  0  0  0  0
  -29.5030  -12.5220   18.2193 C   0  0  0  0  0  0
  -28.0301  -12.3589   18.6237 C   0  0  0  0  0  0
  -27.6742  -13.1960   19.8820 C   0  0  2  0  0  0
  -28.7076  -12.9809   21.0128 C   0  0  0  0  0  0
  -25.2676  -13.8076   20.5658 C   0  0  0  0  0  0
  -24.1890  -13.0399   20.9126 C   0  0  0  0  0  0
  -24.6449  -11.6882   20.8721 C   0  0  0  0  0  0
  -23.9087  -10.4306   21.0427 C   0  0  0  0  0  0
  -24.3610   -9.4256   21.9254 C   0  0  0  0  0  0
  -23.6263   -8.2310   22.0857 C   0  0  0  0  0  0
  -22.4281   -8.0312   21.3607 C   0  0  0  0  0  0
  -21.9933   -9.0253   20.4693 C   0  0  0  0  0  0
  -22.7282  -10.2125   20.3064 C   0  0  0  0  0  0
  -21.6864   -6.0735   22.5271 C   0  0  0  0  0  0
  -21.4028   -6.5646   23.8211 C   0  0  0  0  0  0
  -21.3664   -5.6801   24.9173 C   0  0  0  0  0  0
  -21.6033   -4.3058   24.7239 C   0  0  0  0  0  0
  -21.8807   -3.8145   23.4355 C   0  0  0  0  0  0
  -21.9200   -4.6955   22.3413 C   0  0  0  0  0  0
  -22.7925  -13.5259   21.1755 C   0  0  0  0  0  0
  -22.1675   -4.2139   21.0999 F   0  0  0  0  0  0
  -21.5639   -3.4560   25.7763 F   0  0  0  0  0  0
  -30.0551  -13.2607   20.4833 N   0  0  0  0  0  0
  -26.3123  -12.9242   20.3398 N   0  0  0  0  0  0
  -25.9391  -11.6426   20.5778 N   0  0  0  0  0  0
  -22.0561  -12.8295   22.0371 N   0  0  0  0  0  0
  -25.4413  -15.1759   20.3989 N   0  0  0  0  0  0
  -31.7638  -14.6814   20.0057 O   0  0  0  0  0  0
  -21.6654   -6.8879   21.4264 O   0  0  0  0  0  0
  -22.3651  -14.5569   20.6603 O   0  0  0  0  0  0
  -24.6148  -31.8690   23.2173 C   0  0  0  0  0  0
  -25.9067  -32.4821   23.8429 C   0  0  1  0  0  0
  -27.2133  -27.4252   20.0945 C   0  0  0  0  0  0
  -25.5935  -33.8629   24.2342 N   0  0  0  0  0  0
  -23.3998  -30.4999   21.5549 C   0  0  2  0  0  0
  -24.8354  -28.9674   20.1188 C   0  0  0  0  0  0
  -22.7397  -29.4686   22.4986 C   0  0  0  0  0  0
  -18.0288  -28.1356   22.8498 C   0  0  0  0  0  0
  -24.1485  -36.7328   23.2643 C   0  0  0  0  0  0
  -25.9309  -30.8277   21.3735 C   0  0  0  0  0  0
  -25.9952  -29.4615   20.7267 C   0  0  0  0  0  0
  -27.1828  -28.6920   20.7247 C   0  0  0  0  0  0
  -26.0243  -26.9540   19.4866 C   0  0  0  0  0  0
  -24.8417  -27.7085   19.5027 C   0  0  0  0  0  0
  -23.6080  -29.8448   20.1636 C   0  0  0  0  0  0
  -25.4113  -36.3123   24.0336 C   0  0  1  0  0  0
  -20.5869  -28.3662   23.1311 C   0  0  2  0  0  0
  -20.6773  -26.9413   22.5390 C   0  0  0  0  0  0
  -19.5739  -26.6376   21.5199 C   0  0  0  0  0  0
  -18.1932  -26.7904   22.1635 C   0  0  0  0  0  0
  -19.1527  -28.8834   23.2905 C   0  0  0  0  0  0
  -18.9458  -30.1435   23.8899 C   0  0  0  0  0  0
  -17.6454  -30.6567   24.0570 C   0  0  0  0  0  0
  -25.9028  -34.9479   23.5136 C   0  0  0  0  0  0
  -16.5352  -29.9059   23.6321 C   0  0  0  0  0  0
  -16.7277  -28.6487   23.0341 C   0  0  0  0  0  0
  -26.4504  -31.6623   25.0759 C   0  0  0  0  0  0
  -25.3810  -31.3716   26.1533 C   0  0  0  0  0  0
  -27.0360  -30.3085   24.6144 C   0  0  0  0  0  0
  -27.6043  -32.4358   25.7540 C   0  0  0  0  0  0
  -27.5583  -37.1823   24.8475 C   0  0  0  0  0  0
  -21.4132  -29.3047   22.3730 N   0  0  0  0  0  0
  -26.4303  -37.3798   23.9402 N   0  0  0  0  0  0
  -24.6670  -31.0818   22.1049 N   0  0  0  0  0  0
  -23.4203  -28.8178   23.2989 O   0  0  0  0  0  0
  -28.3980  -26.7067   20.1168 O   0  0  0  0  0  0
  -26.5578  -34.8925   22.4678 O   0  0  0  0  0  0
  -23.5336  -32.1442   23.7581 O   0  0  0  0  0  0
  -28.6335  -19.9394   21.8623 C   0  0  0  0  0  0
  -28.3739  -25.1614   16.7145 C   0  0  0  0  0  0
  -30.5525  -23.8999   18.9543 C   0  0  0  0  0  0
  -32.1437  -16.9282   21.8167 C   0  0  0  0  0  0
  -29.9328  -19.1360   21.6305 C   0  0  0  0  0  0
  -28.8497  -26.0864   17.8469 C   0  0  0  0  0  0
  -29.7288  -17.6355   21.2444 C   0  0  0  0  0  0
  -28.9037  -23.5765   20.9061 C   0  0  0  0  0  0
  -29.5818  -22.2010   21.1806 C   0  0  0  0  0  0
  -29.6057  -24.5949   19.9492 C   0  0  2  0  0  0
  -30.6431  -16.6193   21.9788 C   0  0  1  0  0  0
  -28.5553  -25.5497   19.2780 C   0  0  1  0  0  0
  -28.6073  -21.2787   21.7645 N   0  0  0  0  0  0
  -30.2813  -15.2306   21.6229 N   0  0  0  0  0  0
  -27.6025  -19.3560   22.1930 O   0  0  0  0  0  0
  -31.4727  -12.3781   19.1359 H   0  0  0  0  0  0
  -30.3116  -11.2782   19.8191 H   0  0  0  0  0  0
  -29.7580  -11.8243   17.4230 H   0  0  0  0  0  0
  -29.6599  -13.5262   17.8205 H   0  0  0  0  0  0
  -27.8502  -11.2980   18.8104 H   0  0  0  0  0  0
  -27.3768  -12.6331   17.7957 H   0  0  0  0  0  0
  -27.7250  -14.2458   19.5889 H   0  0  0  0  0  0
  -28.6726  -11.9553   21.3837 H   0  0  0  0  0  0
  -28.4385  -13.5997   21.8665 H   0  0  0  0  0  0
  -25.2776   -9.5723   22.4808 H   0  0  0  0  0  0
  -23.9941   -7.4753   22.7633 H   0  0  0  0  0  0
  -21.0909   -8.8774   19.8967 H   0  0  0  0  0  0
  -22.3834  -10.9612   19.6087 H   0  0  0  0  0  0
  -21.2026   -7.6169   23.9709 H   0  0  0  0  0  0
  -21.1493   -6.0552   25.9076 H   0  0  0  0  0  0
  -22.0574   -2.7606   23.2867 H   0  0  0  0  0  0
  -22.4165  -11.9907   22.4679 H   0  0  0  0  0  0
  -21.1219  -13.1357   22.2652 H   0  0  0  0  0  0
  -24.6676  -15.8243   20.4893 H   0  0  0  0  0  0
  -26.2774  -15.5999   20.0161 H   0  0  0  0  0  0
  -26.7145  -32.5521   23.1178 H   0  0  0  0  0  0
  -25.0183  -33.9782   25.0567 H   0  0  0  0  0  0
  -22.6897  -31.3192   21.4220 H   0  0  0  0  0  0
  -23.3734  -35.9663   23.3297 H   0  0  0  0  0  0
  -24.3596  -36.8953   22.2057 H   0  0  0  0  0  0
  -23.7235  -37.6529   23.6667 H   0  0  0  0  0  0
  -26.0514  -31.5814   20.5945 H   0  0  0  0  0  0
  -26.8194  -30.8772   21.9907 H   0  0  0  0  0  0
  -28.0737  -29.0633   21.2084 H   0  0  0  0  0  0
  -25.9510  -26.0044   18.9843 H   0  0  0  0  0  0
  -23.9479  -27.3160   19.0342 H   0  0  0  0  0  0
  -23.7441  -30.6253   19.4128 H   0  0  0  0  0  0
  -22.7254  -29.2812   19.8524 H   0  0  0  0  0  0
  -25.1291  -36.1978   25.0828 H   0  0  0  0  0  0
  -21.0000  -28.3208   24.1412 H   0  0  0  0  0  0
  -20.5696  -26.2269   23.3577 H   0  0  0  0  0  0
  -21.6641  -26.7453   22.1166 H   0  0  0  0  0  0
  -19.6893  -25.6293   21.1212 H   0  0  0  0  0  0
  -19.6628  -27.3198   20.6739 H   0  0  0  0  0  0
  -17.4190  -26.6645   21.4055 H   0  0  0  0  0  0
  -18.0352  -26.0040   22.9031 H   0  0  0  0  0  0
  -19.7941  -30.7261   24.2249 H   0  0  0  0  0  0
  -17.5017  -31.6245   24.5170 H   0  0  0  0  0  0
  -15.5360  -30.2958   23.7643 H   0  0  0  0  0  0
  -15.8688  -28.0815   22.7018 H   0  0  0  0  0  0
  -24.5888  -30.7177   25.7888 H   0  0  0  0  0  0
  -24.9138  -32.2884   26.5131 H   0  0  0  0  0  0
  -25.8197  -30.8757   27.0207 H   0  0  0  0  0  0
  -26.2897  -29.6790   24.1297 H   0  0  0  0  0  0
  -27.4248  -29.7374   25.4586 H   0  0  0  0  0  0
  -27.8668  -30.4411   23.9219 H   0  0  0  0  0  0
  -27.2597  -33.3551   26.2274 H   0  0  0  0  0  0
  -28.3786  -32.7116   25.0379 H   0  0  0  0  0  0
  -28.0812  -31.8438   26.5354 H   0  0  0  0  0  0
  -28.2629  -38.0099   24.7517 H   0  0  0  0  0  0
  -28.1055  -36.2641   24.6303 H   0  0  0  0  0  0
  -27.2311  -37.1474   25.8883 H   0  0  0  0  0  0
  -20.9275  -29.8862   21.7050 H   0  0  0  0  0  0
  -26.0191  -38.2876   24.1375 H   0  0  0  0  0  0
  -28.7556  -24.1475   16.8113 H   0  0  0  0  0  0
  -28.7003  -25.5389   15.7462 H   0  0  0  0  0  0
  -27.2836  -25.1002   16.6957 H   0  0  0  0  0  0
  -31.3529  -23.3773   19.4805 H   0  0  0  0  0  0
  -31.0571  -24.6173   18.3126 H   0  0  0  0  0  0
  -30.0308  -23.1744   18.3298 H   0  0  0  0  0  0
  -32.4203  -17.8521   22.3194 H   0  0  0  0  0  0
  -32.4267  -17.0323   20.7686 H   0  0  0  0  0  0
  -32.7510  -16.1378   22.2587 H   0  0  0  0  0  0
  -30.4967  -19.2045   22.5621 H   0  0  0  0  0  0
  -30.5496  -19.6176   20.8721 H   0  0  0  0  0  0
  -28.3083  -27.0199   17.6935 H   0  0  0  0  0  0
  -29.8975  -26.3537   17.7292 H   0  0  0  0  0  0
  -29.8628  -17.5388   20.1669 H   0  0  0  0  0  0
  -28.7042  -17.3289   21.4369 H   0  0  0  0  0  0
  -27.9094  -23.3553   20.5173 H   0  0  0  0  0  0
  -28.7250  -24.0740   21.8618 H   0  0  0  0  0  0
  -30.4420  -22.3222   21.8383 H   0  0  0  0  0  0
  -29.9370  -21.7589   20.2498 H   0  0  0  0  0  0
  -30.2628  -25.2172   20.5591 H   0  0  0  0  0  0
  -30.4234  -16.7037   23.0476 H   0  0  0  0  0  0
  -27.6352  -24.9757   19.2178 H   0  0  0  0  0  0
  -27.7237  -21.6991   22.0170 H   0  0  0  0  0  0
  -29.5225  -14.8365   22.1584 H   0  0  0  0  0  0
  1 25  1  0  0  0
  1 30  2  0  0  0
  1 84  1  0  0  0
  2  3  1  0  0  0
  2 25  1  0  0  0
  2 86  1  0  0  0
  2 87  1  0  0  0
  3  4  1  0  0  0
  3 88  1  0  0  0
  3 89  1  0  0  0
  4  5  1  0  0  0
  4 90  1  0  0  0
  4 91  1  0  0  0
  5  6  1  0  0  0
  5 26  1  0  0  0
  5 92  1  0  0  0
  6 25  1  0  0  0
  6 93  1  0  0  0
  6 94  1  0  0  0
  7  8  2  0  0  0
  7 26  1  0  0  0
  7 29  1  0  0  0
  8  9  1  0  0  0
  8 22  1  0  0  0
  9 10  1  0  0  0
  9 27  2  0  0  0
 10 11  2  0  0  0
 10 15  1  0  0  0
 11 12  1  0  0  0
 11 95  1  0  0  0
 12 13  2  0  0  0
 12 96  1  0  0  0
 13 14  1  0  0  0
 13 31  1  0  0  0
 14 15  2  0  0  0
 14 97  1  0  0  0
 15 98  1  0  0  0
 16 17  2  0  0  0
 16 21  1  0  0  0
 16 31  1  0  0  0
 17 18  1  0  0  0
 17 99  1  0  0  0
 18 19  2  0  0  0
 18100  1  0  0  0
 19 20  1  0  0  0
 19 24  1  0  0  0
 20 21  2  0  0  0
 20101  1  0  0  0
 21 23  1  0  0  0
 22 28  1  0  0  0
 22 32  2  0  0  0
 26 27  1  0  0  0
 28102  1  0  0  0
 28103  1  0  0  0
 29104  1  0  0  0
 29105  1  0  0  0
 33 34  1  0  0  0
 33 66  1  0  0  0
 33 70  2  0  0  0
 34 36  1  0  0  0
 34 59  1  0  0  0
 34106  1  0  0  0
 35 44  2  0  0  0
 35 45  1  0  0  0
 35 68  1  0  0  0
 36 56  1  0  0  0
 36107  1  0  0  0
 37 39  1  0  0  0
 37 47  1  0  0  0
 37 66  1  0  0  0
 37108  1  0  0  0
 38 43  2  0  0  0
 38 46  1  0  0  0
 38 47  1  0  0  0
 39 64  1  0  0  0
 39 67  2  0  0  0
 40 52  1  0  0  0
 40 53  2  0  0  0
 40 58  1  0  0  0
 41109  1  0  0  0
 41110  1  0  0  0
 41111  1  0  0  0
 41 48  1  0  0  0
 42 43  1  0  0  0
 42 66  1  0  0  0
 42112  1  0  0  0
 42113  1  0  0  0
 43 44  1  0  0  0
 44114  1  0  0  0
 45 46  2  0  0  0
 45115  1  0  0  0
 46116  1  0  0  0
 47117  1  0  0  0
 47118  1  0  0  0
 48 56  1  0  0  0
 48 65  1  0  0  0
 48119  1  0  0  0
 49 50  1  0  0  0
 49 53  1  0  0  0
 49 64  1  0  0  0
 49120  1  0  0  0
 50 51  1  0  0  0
 50121  1  0  0  0
 50122  1  0  0  0
 51 52  1  0  0  0
 51123  1  0  0  0
 51124  1  0  0  0
 52125  1  0  0  0
 52126  1  0  0  0
 53 54  1  0  0  0
 54 55  2  0  0  0
 54127  1  0  0  0
 55 57  1  0  0  0
 55128  1  0  0  0
 56 69  2  0  0  0
 57 58  2  0  0  0
 57129  1  0  0  0
 58130  1  0  0  0
 59 60  1  0  0  0
 59 61  1  0  0  0
 59 62  1  0  0  0
 60131  1  0  0  0
 60132  1  0  0  0
 60133  1  0  0  0
 61134  1  0  0  0
 61135  1  0  0  0
 61136  1  0  0  0
 62137  1  0  0  0
 62138  1  0  0  0
 62139  1  0  0  0
 63 65  1  0  0  0
 63140  1  0  0  0
 63141  1  0  0  0
 63142  1  0  0  0
 64143  1  0  0  0
 65144  1  0  0  0
 68 82  1  0  0  0
 71 75  1  0  0  0
 71 83  1  0  0  0
 71 85  2  0  0  0
 72 76  1  0  0  0
 72145  1  0  0  0
 72146  1  0  0  0
 72147  1  0  0  0
 73148  1  0  0  0
 73149  1  0  0  0
 73150  1  0  0  0
 73 80  1  0  0  0
 74151  1  0  0  0
 74152  1  0  0  0
 74153  1  0  0  0
 74 81  1  0  0  0
 75 77  1  0  0  0
 75154  1  0  0  0
 75155  1  0  0  0
 76156  1  0  0  0
 76157  1  0  0  0
 76 82  1  0  0  0
 77 81  1  0  0  0
 77158  1  0  0  0
 77159  1  0  0  0
 78 79  1  0  0  0
 78 80  1  0  0  0
 78160  1  0  0  0
 78161  1  0  0  0
 79 83  1  0  0  0
 79162  1  0  0  0
 79163  1  0  0  0
 80 82  1  0  0  0
 80164  1  0  0  0
 81 84  1  0  0  0
 81165  1  0  0  0
 82166  1  0  0  0
 83167  1  0  0  0
 84168  1  0  0  0
M  ISO  4   1 100  68 101  82 101  84 100
M  END
> <chiral flag>
0

> <version>
0

> <s_m_source_file>
/data/baiqing/PycharmProjects/Reinvent-master-3.2/result/LINK_invent/BTK/process_docking_weight1_custom_sum_contain_oxygen_bond_distance_aromatic_linkinvent_7_9_3/rearranged_h_0112.sdf

> <i_m_source_file_index>
81

> <r_mmod_Potential_Energy-OPLS-2005>
-88.1248397827148

> <r_mmod_Stretch_Energy-OPLS-2005>
41.0011711120605

> <r_mmod_Bend_Energy-OPLS-2005>
128.976333618164

> <r_mmod_Torsional_Energy-OPLS-2005>
232.866577148438

> <r_mmod_Improper_Torsional_Energy-OPLS-2005>
2.59476494789124

> <r_mmod_Van_der_Waal_Energy-OPLS-2005>
156.925170898438

> <r_mmod_Electrostatic_Energy-OPLS-2005>
-444.475189208984

> <r_mmod_Solvation_Energy-OPLS-2005>
-217.379333496094

> <b_mmod_Minimization_Converged-OPLS-2005>
0

> <r_mmod_RMS_Derivative-OPLS-2005>
5.7371973991394

$$$$
81
                    3D
 Structure written by MMmdl.
165174  0  0  1  0            999 V2000
  -30.4721  -15.1999   20.3815 C   0  0  0  0  0  0
  -30.4367  -12.7647   19.5162 C   0  0  0  0  0  0
  -29.5296  -12.5641   18.2776 C   0  0  0  0  0  0
  -28.0746  -12.3016   18.7049 C   0  0  0  0  0  0
  -27.6129  -13.2709   19.8226 C   0  0  2  0  0  0
  -28.6499  -13.4221   20.9554 C   0  0  0  0  0  0
  -25.2393  -13.8244   20.5741 C   0  0  0  0  0  0
  -24.1745  -13.0436   20.9259 C   0  0  0  0  0  0
  -24.6396  -11.6932   20.8763 C   0  0  0  0  0  0
  -23.9092  -10.4290   21.0410 C   0  0  0  0  0  0
  -24.3637   -9.4203   21.9187 C   0  0  0  0  0  0
  -23.6304   -8.2243   22.0758 C   0  0  0  0  0  0
  -22.4286   -8.0282   21.3548 C   0  0  0  0  0  0
  -21.9925   -9.0257   20.4649 C   0  0  0  0  0  0
  -22.7263  -10.2133   20.3057 C   0  0  0  0  0  0
  -21.6852   -6.0738   22.5279 C   0  0  0  0  0  0
  -21.4015   -6.5642   23.8213 C   0  0  0  0  0  0
  -21.3656   -5.6794   24.9174 C   0  0  0  0  0  0
  -21.6046   -4.3056   24.7224 C   0  0  0  0  0  0
  -21.8817   -3.8149   23.4343 C   0  0  0  0  0  0
  -21.9195   -4.6966   22.3401 C   0  0  0  0  0  0
  -22.7761  -13.5190   21.1898 C   0  0  0  0  0  0
  -22.1662   -4.2152   21.0978 F   0  0  0  0  0  0
  -21.5627   -3.4541   25.7736 F   0  0  0  0  0  0
  -29.8894  -13.9081   20.3290 N   0  0  0  0  0  0
  -26.2819  -12.9514   20.3218 N   0  0  0  0  0  0
  -25.9333  -11.6625   20.5723 N   0  0  0  0  0  0
  -22.0421  -12.8171   22.0453 N   0  0  0  0  0  0
  -25.4025  -15.1975   20.4172 N   0  0  0  0  0  0
  -31.6939  -15.1954   20.1793 O   0  0  0  0  0  0
  -21.6646   -6.8883   21.4241 O   0  0  0  0  0  0
  -22.3439  -14.5492   20.6736 O   0  0  0  0  0  0
  -24.6600  -31.8278   23.1758 C   0  0  0  0  0  0
  -25.9298  -32.4613   23.8204 C   0  0  1  0  0  0
  -27.2141  -26.9666   20.1744 C   0  0  0  0  0  0
  -25.5987  -33.8428   24.2110 N   0  0  0  0  0  0
  -23.4728  -30.4439   21.5236 C   0  0  2  0  0  0
  -24.9252  -28.8428   20.1124 C   0  0  0  0  0  0
  -22.7653  -29.4474   22.4789 C   0  0  0  0  0  0
  -18.0321  -28.1417   22.8466 C   0  0  0  0  0  0
  -24.1492  -36.7209   23.2647 C   0  0  0  0  0  0
  -26.0421  -30.6470   21.4021 C   0  0  0  0  0  0
  -26.1099  -29.2424   20.7438 C   0  0  0  0  0  0
  -27.2513  -28.3253   20.7516 C   0  0  0  0  0  0
  -26.0004  -26.7168   19.4929 C   0  0  0  0  0  0
  -24.8939  -27.5986   19.4675 C   0  0  0  0  0  0
  -23.7110  -29.7661   20.1479 C   0  0  0  0  0  0
  -25.4132  -36.2980   24.0302 C   0  0  1  0  0  0
  -20.5947  -28.3757   23.1193 C   0  0  2  0  0  0
  -20.6804  -26.9442   22.5401 C   0  0  0  0  0  0
  -19.5778  -26.6382   21.5216 C   0  0  0  0  0  0
  -18.1956  -26.7953   22.1616 C   0  0  0  0  0  0
  -19.1583  -28.8905   23.2819 C   0  0  0  0  0  0
  -18.9493  -30.1494   23.8857 C   0  0  0  0  0  0
  -17.6487  -30.6604   24.0556 C   0  0  0  0  0  0
  -25.9096  -34.9359   23.5019 C   0  0  0  0  0  0
  -16.5378  -29.9092   23.6346 C   0  0  0  0  0  0
  -16.7301  -28.6513   23.0363 C   0  0  0  0  0  0
  -26.4561  -31.6547   25.0716 C   0  0  0  0  0  0
  -25.3690  -31.3780   26.1371 C   0  0  0  0  0  0
  -27.0457  -30.2921   24.6428 C   0  0  0  0  0  0
  -27.6068  -32.4346   25.7509 C   0  0  0  0  0  0
  -27.5567  -37.1764   24.8464 C   0  0  0  0  0  0
  -21.4326  -29.3055   22.3541 N   0  0  0  0  0  0
  -26.4274  -37.3715   23.9410 N   0  0  0  0  0  0
  -24.7462  -30.9984   22.0874 N   0  0  0  0  0  0
  -23.4214  -28.8028   23.3009 O   0  0  0  0  0  0
  -28.2055  -25.8619   20.2470 O   0  0  0  0  0  0
  -26.5696  -34.8888   22.4610 O   0  0  0  0  0  0
  -23.5675  -32.1224   23.6870 O   0  0  0  0  0  0
  -29.0826  -21.9450   19.1145 C   0  0  0  0  0  0
  -29.4657  -20.5156   19.1548 C   0  0  0  0  0  0
  -29.4153  -19.6469   20.3248 C   0  0  0  0  0  0
  -28.9208  -20.5180   21.3977 C   0  0  0  0  0  0
  -28.6095  -22.7464   20.2224 C   0  0  0  0  0  0
  -27.6346  -19.7754   24.9162 C   0  0  0  0  0  0
  -27.4146  -19.9813   23.4141 C   0  0  0  0  0  0
  -29.0674  -20.2487   25.2131 C   0  0  0  0  0  0
  -28.8197  -19.9281   22.8069 C   0  0  2  0  0  0
  -29.7116  -20.6072   23.8610 C   0  0  2  0  0  0
  -29.9768  -19.9132   17.8598 C   0  0  0  0  0  0
  -31.1949  -20.2192   23.7700 C   0  0  0  0  0  0
  -30.1631  -18.0667   20.4430 C   0  0  0  0  0  0
  -27.8040  -24.2871   20.1149 C   0  0  0  0  0  0
  -28.5359  -21.8960   21.3285 N   0  0  0  0  0  0
  -29.7307  -16.4730   20.4576 N   0  0  0  0  0  0
  -31.4587  -12.9568   19.1865 H   0  0  0  0  0  0
  -30.4882  -11.8522   20.1122 H   0  0  0  0  0  0
  -29.8962  -11.7389   17.6657 H   0  0  0  0  0  0
  -29.5703  -13.4546   17.6483 H   0  0  0  0  0  0
  -28.0182  -11.2736   19.0652 H   0  0  0  0  0  0
  -27.4062  -12.3611   17.8451 H   0  0  0  0  0  0
  -27.5345  -14.2437   19.3360 H   0  0  0  0  0  0
  -28.8034  -12.4811   21.4855 H   0  0  0  0  0  0
  -28.3029  -14.1446   21.6956 H   0  0  0  0  0  0
  -25.2783   -9.5678   22.4764 H   0  0  0  0  0  0
  -24.0008   -7.4634   22.7479 H   0  0  0  0  0  0
  -21.0858   -8.8781   19.8954 H   0  0  0  0  0  0
  -22.3726  -10.9672   19.6165 H   0  0  0  0  0  0
  -21.2006   -7.6151   23.9715 H   0  0  0  0  0  0
  -21.1478   -6.0526   25.9077 H   0  0  0  0  0  0
  -22.0600   -2.7611   23.2844 H   0  0  0  0  0  0
  -22.4056  -11.9841   22.4841 H   0  0  0  0  0  0
  -21.1030  -13.1174   22.2658 H   0  0  0  0  0  0
  -24.6304  -15.8456   20.5304 H   0  0  0  0  0  0
  -26.2388  -15.6393   20.0590 H   0  0  0  0  0  0
  -26.7360  -32.5163   23.0915 H   0  0  0  0  0  0
  -25.0107  -33.9523   25.0239 H   0  0  0  0  0  0
  -22.7848  -31.2751   21.3563 H   0  0  0  0  0  0
  -23.3775  -35.9519   23.3280 H   0  0  0  0  0  0
  -24.3566  -36.8883   22.2066 H   0  0  0  0  0  0
  -23.7227  -37.6384   23.6715 H   0  0  0  0  0  0
  -26.2215  -31.3918   20.6256 H   0  0  0  0  0  0
  -26.9036  -30.6995   22.0559 H   0  0  0  0  0  0
  -28.1468  -28.6278   21.2757 H   0  0  0  0  0  0
  -25.8598  -25.7741   18.9883 H   0  0  0  0  0  0
  -23.9938  -27.2876   18.9551 H   0  0  0  0  0  0
  -23.8676  -30.5375   19.3936 H   0  0  0  0  0  0
  -22.8213  -29.2217   19.8262 H   0  0  0  0  0  0
  -25.1328  -36.1779   25.0793 H   0  0  0  0  0  0
  -21.0035  -28.3365   24.1315 H   0  0  0  0  0  0
  -20.5704  -26.2372   23.3636 H   0  0  0  0  0  0
  -21.6666  -26.7435   22.1194 H   0  0  0  0  0  0
  -19.6944  -25.6282   21.1273 H   0  0  0  0  0  0
  -19.6725  -27.3168   20.6728 H   0  0  0  0  0  0
  -17.4228  -26.6697   21.4017 H   0  0  0  0  0  0
  -18.0350  -26.0110   22.9025 H   0  0  0  0  0  0
  -19.7969  -30.7320   24.2214 H   0  0  0  0  0  0
  -17.5039  -31.6282   24.5167 H   0  0  0  0  0  0
  -15.5378  -30.2979   23.7704 H   0  0  0  0  0  0
  -15.8699  -28.0813   22.7110 H   0  0  0  0  0  0
  -24.5903  -30.7098   25.7676 H   0  0  0  0  0  0
  -24.8844  -32.2971   26.4676 H   0  0  0  0  0  0
  -25.7928  -30.9029   27.0227 H   0  0  0  0  0  0
  -26.3116  -29.6608   24.1411 H   0  0  0  0  0  0
  -27.3982  -29.7275   25.5073 H   0  0  0  0  0  0
  -27.9062  -30.4128   23.9843 H   0  0  0  0  0  0
  -27.2659  -33.3698   26.1965 H   0  0  0  0  0  0
  -28.3943  -32.6828   25.0376 H   0  0  0  0  0  0
  -28.0664  -31.8548   26.5526 H   0  0  0  0  0  0
  -28.2566  -38.0079   24.7523 H   0  0  0  0  0  0
  -28.1083  -36.2609   24.6276 H   0  0  0  0  0  0
  -27.2282  -37.1381   25.8865 H   0  0  0  0  0  0
  -20.9572  -29.8736   21.6668 H   0  0  0  0  0  0
  -26.0126  -38.2770   24.1443 H   0  0  0  0  0  0
  -29.1282  -22.4492   18.1581 H   0  0  0  0  0  0
  -27.5414  -18.7170   25.1634 H   0  0  0  0  0  0
  -26.8919  -20.3107   25.5096 H   0  0  0  0  0  0
  -26.9707  -20.9650   23.2566 H   0  0  0  0  0  0
  -26.7417  -19.2447   22.9741 H   0  0  0  0  0  0
  -29.6194  -19.4515   25.7137 H   0  0  0  0  0  0
  -29.0717  -21.1088   25.8847 H   0  0  0  0  0  0
  -29.0931  -18.8738   22.7694 H   0  0  0  0  0  0
  -29.6269  -21.6886   23.7425 H   0  0  0  0  0  0
  -29.7012  -20.5217   16.9981 H   0  0  0  0  0  0
  -29.5598  -18.9177   17.7045 H   0  0  0  0  0  0
  -31.0638  -19.8323   17.8811 H   0  0  0  0  0  0
  -31.3365  -19.1441   23.8858 H   0  0  0  0  0  0
  -31.7788  -20.7199   24.5430 H   0  0  0  0  0  0
  -31.6124  -20.5075   22.8048 H   0  0  0  0  0  0
  -30.7641  -18.1514   21.3492 H   0  0  0  0  0  0
  -30.9228  -18.0886   19.6620 H   0  0  0  0  0  0
  -26.9622  -24.1798   20.8001 H   0  0  0  0  0  0
  -27.3539  -24.2208   19.1254 H   0  0  0  0  0  0
  -28.7365  -16.3282   20.5516 H   0  0  0  0  0  0
  1 25  1  0  0  0
  1 30  2  0  0  0
  1 86  1  0  0  0
  2  3  1  0  0  0
  2 25  1  0  0  0
  2 87  1  0  0  0
  2 88  1  0  0  0
  3  4  1  0  0  0
  3 89  1  0  0  0
  3 90  1  0  0  0
  4  5  1  0  0  0
  4 91  1  0  0  0
  4 92  1  0  0  0
  5  6  1  0  0  0
  5 26  1  0  0  0
  5 93  1  0  0  0
  6 25  1  0  0  0
  6 94  1  0  0  0
  6 95  1  0  0  0
  7  8  2  0  0  0
  7 26  1  0  0  0
  7 29  1  0  0  0
  8  9  1  0  0  0
  8 22  1  0  0  0
  9 10  1  0  0  0
  9 27  2  0  0  0
 10 11  2  0  0  0
 10 15  1  0  0  0
 11 12  1  0  0  0
 11 96  1  0  0  0
 12 13  2  0  0  0
 12 97  1  0  0  0
 13 14  1  0  0  0
 13 31  1  0  0  0
 14 15  2  0  0  0
 14 98  1  0  0  0
 15 99  1  0  0  0
 16 17  2  0  0  0
 16 21  1  0  0  0
 16 31  1  0  0  0
 17 18  1  0  0  0
 17100  1  0  0  0
 18 19  2  0  0  0
 18101  1  0  0  0
 19 20  1  0  0  0
 19 24  1  0  0  0
 20 21  2  0  0  0
 20102  1  0  0  0
 21 23  1  0  0  0
 22 28  1  0  0  0
 22 32  2  0  0  0
 26 27  1  0  0  0
 28103  1  0  0  0
 28104  1  0  0  0
 29105  1  0  0  0
 29106  1  0  0  0
 33 34  1  0  0  0
 33 66  1  0  0  0
 33 70  2  0  0  0
 34 36  1  0  0  0
 34 59  1  0  0  0
 34107  1  0  0  0
 35 44  2  0  0  0
 35 45  1  0  0  0
 35 68  1  0  0  0
 36 56  1  0  0  0
 36108  1  0  0  0
 37 39  1  0  0  0
 37 47  1  0  0  0
 37 66  1  0  0  0
 37109  1  0  0  0
 38 43  2  0  0  0
 38 46  1  0  0  0
 38 47  1  0  0  0
 39 64  1  0  0  0
 39 67  2  0  0  0
 40 52  1  0  0  0
 40 53  2  0  0  0
 40 58  1  0  0  0
 41110  1  0  0  0
 41111  1  0  0  0
 41112  1  0  0  0
 41 48  1  0  0  0
 42 43  1  0  0  0
 42 66  1  0  0  0
 42113  1  0  0  0
 42114  1  0  0  0
 43 44  1  0  0  0
 44115  1  0  0  0
 45 46  2  0  0  0
 45116  1  0  0  0
 46117  1  0  0  0
 47118  1  0  0  0
 47119  1  0  0  0
 48 56  1  0  0  0
 48 65  1  0  0  0
 48120  1  0  0  0
 49 50  1  0  0  0
 49 53  1  0  0  0
 49 64  1  0  0  0
 49121  1  0  0  0
 50 51  1  0  0  0
 50122  1  0  0  0
 50123  1  0  0  0
 51 52  1  0  0  0
 51124  1  0  0  0
 51125  1  0  0  0
 52126  1  0  0  0
 52127  1  0  0  0
 53 54  1  0  0  0
 54 55  2  0  0  0
 54128  1  0  0  0
 55 57  1  0  0  0
 55129  1  0  0  0
 56 69  2  0  0  0
 57 58  2  0  0  0
 57130  1  0  0  0
 58131  1  0  0  0
 59 60  1  0  0  0
 59 61  1  0  0  0
 59 62  1  0  0  0
 60132  1  0  0  0
 60133  1  0  0  0
 60134  1  0  0  0
 61135  1  0  0  0
 61136  1  0  0  0
 61137  1  0  0  0
 62138  1  0  0  0
 62139  1  0  0  0
 62140  1  0  0  0
 63 65  1  0  0  0
 63141  1  0  0  0
 63142  1  0  0  0
 63143  1  0  0  0
 64144  1  0  0  0
 65145  1  0  0  0
 68 84  1  0  0  0
 71 72  2  0  0  0
 71 75  1  0  0  0
 71146  1  0  0  0
 72 73  1  0  0  0
 72 81  1  0  0  0
 73 74  2  0  0  0
 73 83  1  0  0  0
 74 85  1  0  0  0
 74 79  1  0  0  0
 75 84  1  0  0  0
 75 85  2  0  0  0
 76 77  1  0  0  0
 76 78  1  0  0  0
 76147  1  0  0  0
 76148  1  0  0  0
 77 79  1  0  0  0
 77149  1  0  0  0
 77150  1  0  0  0
 78 80  1  0  0  0
 78151  1  0  0  0
 78152  1  0  0  0
 79 80  1  0  0  0
 79153  1  0  0  0
 80 82  1  0  0  0
 80154  1  0  0  0
 81155  1  0  0  0
 81156  1  0  0  0
 81157  1  0  0  0
 82158  1  0  0  0
 82159  1  0  0  0
 82160  1  0  0  0
 83 86  1  0  0  0
 83161  1  0  0  0
 83162  1  0  0  0
 84163  1  0  0  0
 84164  1  0  0  0
 86165  1  0  0  0
M  ISO  4   1 100  68 101  84 101  86 100
M  END
> <chiral flag>
0

> <version>
0

> <s_m_source_file>
/data/baiqing/PycharmProjects/Reinvent-master-3.2/result/LINK_invent/BTK/process_docking_weight1_custom_sum_contain_oxygen_bond_distance_aromatic_linkinvent_7_9_3/rearranged_h_0112.sdf

> <i_m_source_file_index>
82

> <r_mmod_Potential_Energy-OPLS-2005>
1071.34692382812

> <r_mmod_Stretch_Energy-OPLS-2005>
471.700042724609

> <r_mmod_Bend_Energy-OPLS-2005>
444.696655273438

> <r_mmod_Torsional_Energy-OPLS-2005>
270.970581054688

> <r_mmod_Improper_Torsional_Energy-OPLS-2005>
9.86161136627197

> <r_mmod_Van_der_Waal_Energy-OPLS-2005>
129.212509155273

> <r_mmod_Electrostatic_Energy-OPLS-2005>
-432.007141113281

> <r_mmod_Solvation_Energy-OPLS-2005>
-222.139190673828

> <b_mmod_Minimization_Converged-OPLS-2005>
0

> <r_mmod_RMS_Derivative-OPLS-2005>
0.90292364358902

$$$$
82
                    3D
 Structure written by MMmdl.
163171  0  0  1  0            999 V2000
  -30.7135  -14.4831   20.5827 C   0  0  0  0  0  0
  -30.4231  -12.3222   19.4181 C   0  0  0  0  0  0
  -29.4927  -12.4957   18.2010 C   0  0  0  0  0  0
  -28.0152  -12.3572   18.6176 C   0  0  0  0  0  0
  -27.6593  -13.2078   19.8671 C   0  0  2  0  0  0
  -28.7028  -13.0063   20.9882 C   0  0  0  0  0  0
  -25.2591  -13.8160   20.5683 C   0  0  0  0  0  0
  -24.1842  -13.0450   20.9179 C   0  0  0  0  0  0
  -24.6386  -11.6911   20.8734 C   0  0  0  0  0  0
  -23.9050  -10.4297   21.0397 C   0  0  0  0  0  0
  -24.3609   -9.4213   21.9176 C   0  0  0  0  0  0
  -23.6292   -8.2240   22.0748 C   0  0  0  0  0  0
  -22.4273   -8.0274   21.3537 C   0  0  0  0  0  0
  -21.9901   -9.0247   20.4640 C   0  0  0  0  0  0
  -22.7219  -10.2132   20.3047 C   0  0  0  0  0  0
  -21.6854   -6.0728   22.5277 C   0  0  0  0  0  0
  -21.4010   -6.5632   23.8210 C   0  0  0  0  0  0
  -21.3663   -5.6785   24.9174 C   0  0  0  0  0  0
  -21.6049   -4.3047   24.7221 C   0  0  0  0  0  0
  -21.8822   -3.8139   23.4341 C   0  0  0  0  0  0
  -21.9197   -4.6957   22.3399 C   0  0  0  0  0  0
  -22.7860  -13.5245   21.1846 C   0  0  0  0  0  0
  -22.1664   -4.2145   21.0972 F   0  0  0  0  0  0
  -21.5636   -3.4533   25.7732 F   0  0  0  0  0  0
  -30.0284  -13.3169   20.4292 N   0  0  0  0  0  0
  -26.3019  -12.9330   20.3341 N   0  0  0  0  0  0
  -25.9312  -11.6494   20.5757 N   0  0  0  0  0  0
  -22.0493  -12.8250   22.0399 N   0  0  0  0  0  0
  -25.4341  -15.1876   20.4094 N   0  0  0  0  0  0
  -31.8355  -14.6599   20.1009 O   0  0  0  0  0  0
  -21.6638   -6.8870   21.4234 O   0  0  0  0  0  0
  -22.3545  -14.5549   20.6683 O   0  0  0  0  0  0
  -24.6170  -31.8676   23.2081 C   0  0  0  0  0  0
  -25.9060  -32.4811   23.8383 C   0  0  1  0  0  0
  -27.2291  -27.4113   20.0993 C   0  0  0  0  0  0
  -25.5922  -33.8611   24.2322 N   0  0  0  0  0  0
  -23.4045  -30.4917   21.5501 C   0  0  2  0  0  0
  -24.8488  -28.9528   20.1157 C   0  0  0  0  0  0
  -22.7412  -29.4673   22.4982 C   0  0  0  0  0  0
  -18.0277  -28.1376   22.8488 C   0  0  0  0  0  0
  -24.1490  -36.7311   23.2636 C   0  0  0  0  0  0
  -25.9353  -30.8254   21.3641 C   0  0  0  0  0  0
  -26.0108  -29.4574   20.7120 C   0  0  0  0  0  0
  -27.2049  -28.6958   20.6964 C   0  0  0  0  0  0
  -26.0508  -26.9309   19.4877 C   0  0  0  0  0  0
  -24.8646  -27.6894   19.5006 C   0  0  0  0  0  0
  -23.6132  -29.8242   20.1646 C   0  0  0  0  0  0
  -25.4106  -36.3106   24.0337 C   0  0  1  0  0  0
  -20.5869  -28.3674   23.1304 C   0  0  2  0  0  0
  -20.6768  -26.9411   22.5412 C   0  0  0  0  0  0
  -19.5755  -26.6387   21.5206 C   0  0  0  0  0  0
  -18.1931  -26.7917   22.1615 C   0  0  0  0  0  0
  -19.1526  -28.8836   23.2888 C   0  0  0  0  0  0
  -18.9455  -30.1437   23.8901 C   0  0  0  0  0  0
  -17.6461  -30.6579   24.0569 C   0  0  0  0  0  0
  -25.9038  -34.9472   23.5121 C   0  0  0  0  0  0
  -16.5350  -29.9088   23.6331 C   0  0  0  0  0  0
  -16.7263  -28.6507   23.0345 C   0  0  0  0  0  0
  -26.4485  -31.6578   25.0705 C   0  0  0  0  0  0
  -25.3749  -31.3692   26.1454 C   0  0  0  0  0  0
  -27.0306  -30.3013   24.6075 C   0  0  0  0  0  0
  -27.6060  -32.4292   25.7470 C   0  0  0  0  0  0
  -27.5580  -37.1809   24.8466 C   0  0  0  0  0  0
  -21.4139  -29.3047   22.3704 N   0  0  0  0  0  0
  -26.4289  -37.3793   23.9410 N   0  0  0  0  0  0
  -24.6705  -31.0767   22.0986 N   0  0  0  0  0  0
  -23.4174  -28.8220   23.3031 O   0  0  0  0  0  0
  -28.3925  -26.6635   20.0773 O   0  0  0  0  0  0
  -26.5599  -34.8931   22.4682 O   0  0  0  0  0  0
  -23.5360  -32.1434   23.7472 O   0  0  0  0  0  0
  -30.4767  -18.6518   19.9521 C   0  0  0  0  0  0
  -29.0934  -18.7513   21.9372 C   0  0  0  0  0  0
  -30.0391  -18.0544   21.1541 C   0  0  0  0  0  0
  -30.0277  -19.9396   19.5658 C   0  0  0  0  0  0
  -28.6394  -20.0408   21.5644 C   0  0  0  0  0  0
  -29.1338  -20.6692   20.3929 C   0  0  0  0  0  0
  -30.5303  -20.5236   18.2578 C   0  0  0  0  0  0
  -28.2637  -21.3643   23.6972 C   0  0  0  0  0  0
  -27.6237  -20.7430   22.4507 C   0  0  0  0  0  0
  -30.6704  -16.7473   21.6637 C   0  0  0  0  0  0
  -29.2992  -24.3740   19.7190 C   0  0  0  0  0  0
  -28.3086  -25.2800   20.4972 C   0  0  0  0  0  0
  -29.6451  -22.9971   20.3640 C   0  0  0  0  0  0
  -30.0669  -15.4770   21.2229 N   0  0  0  0  0  0
  -28.7150  -21.9475   20.0550 O   0  0  0  0  0  0
  -31.4660  -12.4237   19.1118 H   0  0  0  0  0  0
  -30.3302  -11.3166   19.8308 H   0  0  0  0  0  0
  -29.7338  -11.7554   17.4367 H   0  0  0  0  0  0
  -29.6568  -13.4731   17.7447 H   0  0  0  0  0  0
  -27.8315  -11.3015   18.8247 H   0  0  0  0  0  0
  -27.3600  -12.6170   17.7845 H   0  0  0  0  0  0
  -27.6987  -14.2528   19.5590 H   0  0  0  0  0  0
  -28.6864  -11.9732   21.3376 H   0  0  0  0  0  0
  -28.4627  -13.6148   21.8615 H   0  0  0  0  0  0
  -25.2760   -9.5698   22.4746 H   0  0  0  0  0  0
  -24.0013   -7.4632   22.7462 H   0  0  0  0  0  0
  -21.0836   -8.8756   19.8946 H   0  0  0  0  0  0
  -22.3672  -10.9669   19.6155 H   0  0  0  0  0  0
  -21.1992   -7.6142   23.9713 H   0  0  0  0  0  0
  -21.1486   -6.0512   25.9080 H   0  0  0  0  0  0
  -22.0601   -2.7601   23.2842 H   0  0  0  0  0  0
  -22.4110  -11.9935   22.4824 H   0  0  0  0  0  0
  -21.1101  -13.1261   22.2567 H   0  0  0  0  0  0
  -24.6732  -15.8485   20.5227 H   0  0  0  0  0  0
  -26.2926  -15.6240   20.0965 H   0  0  0  0  0  0
  -26.7119  -32.5518   23.1139 H   0  0  0  0  0  0
  -25.0085  -33.9768   25.0476 H   0  0  0  0  0  0
  -22.6942  -31.3089   21.4111 H   0  0  0  0  0  0
  -23.3744  -35.9657   23.3304 H   0  0  0  0  0  0
  -24.3582  -36.8916   22.2050 H   0  0  0  0  0  0
  -23.7252  -37.6521   23.6641 H   0  0  0  0  0  0
  -26.0487  -31.5895   20.5938 H   0  0  0  0  0  0
  -26.8227  -30.8795   21.9827 H   0  0  0  0  0  0
  -28.1043  -29.0848   21.1514 H   0  0  0  0  0  0
  -26.0465  -25.9756   18.9830 H   0  0  0  0  0  0
  -23.9744  -27.2988   19.0266 H   0  0  0  0  0  0
  -23.7265  -30.6008   19.4073 H   0  0  0  0  0  0
  -22.7345  -29.2501   19.8651 H   0  0  0  0  0  0
  -25.1281  -36.1971   25.0830 H   0  0  0  0  0  0
  -20.9958  -28.3250   24.1428 H   0  0  0  0  0  0
  -20.5679  -26.2286   23.3602 H   0  0  0  0  0  0
  -21.6636  -26.7461   22.1204 H   0  0  0  0  0  0
  -19.6920  -25.6305   21.1226 H   0  0  0  0  0  0
  -19.6683  -27.3207   20.6745 H   0  0  0  0  0  0
  -17.4199  -26.6667   21.4019 H   0  0  0  0  0  0
  -18.0330  -26.0053   22.9005 H   0  0  0  0  0  0
  -19.7931  -30.7243   24.2280 H   0  0  0  0  0  0
  -17.5022  -31.6261   24.5166 H   0  0  0  0  0  0
  -15.5355  -30.2998   23.7635 H   0  0  0  0  0  0
  -15.8664  -28.0825   22.7061 H   0  0  0  0  0  0
  -24.5941  -30.7008   25.7803 H   0  0  0  0  0  0
  -24.8918  -32.2847   26.4877 H   0  0  0  0  0  0
  -25.8111  -30.8893   27.0223 H   0  0  0  0  0  0
  -26.2844  -29.6777   24.1132 H   0  0  0  0  0  0
  -27.4076  -29.7245   25.4528 H   0  0  0  0  0  0
  -27.8683  -30.4319   23.9218 H   0  0  0  0  0  0
  -27.2681  -33.3589   26.2063 H   0  0  0  0  0  0
  -28.3869  -32.6846   25.0291 H   0  0  0  0  0  0
  -28.0724  -31.8394   26.5374 H   0  0  0  0  0  0
  -28.2604  -38.0100   24.7505 H   0  0  0  0  0  0
  -28.1066  -36.2628   24.6298 H   0  0  0  0  0  0
  -27.2297  -37.1474   25.8871 H   0  0  0  0  0  0
  -20.9298  -29.8759   21.6919 H   0  0  0  0  0  0
  -26.0176  -38.2870   24.1409 H   0  0  0  0  0  0
  -31.1952  -18.1303   19.3336 H   0  0  0  0  0  0
  -28.7379  -18.3132   22.8593 H   0  0  0  0  0  0
  -31.5347  -20.9259   18.3857 H   0  0  0  0  0  0
  -29.8827  -21.3235   17.8971 H   0  0  0  0  0  0
  -30.5671  -19.7567   17.4835 H   0  0  0  0  0  0
  -28.7368  -20.6049   24.3198 H   0  0  0  0  0  0
  -27.5150  -21.8697   24.3073 H   0  0  0  0  0  0
  -29.0256  -22.0964   23.4300 H   0  0  0  0  0  0
  -26.8640  -20.0193   22.7512 H   0  0  0  0  0  0
  -27.0931  -21.5093   21.8847 H   0  0  0  0  0  0
  -30.6398  -16.7527   22.7540 H   0  0  0  0  0  0
  -31.7336  -16.7772   21.4215 H   0  0  0  0  0  0
  -30.2334  -24.9305   19.6363 H   0  0  0  0  0  0
  -28.9578  -24.2320   18.6933 H   0  0  0  0  0  0
  -28.5665  -25.2623   21.5562 H   0  0  0  0  0  0
  -27.3065  -24.8563   20.4333 H   0  0  0  0  0  0
  -29.7395  -23.1015   21.4451 H   0  0  0  0  0  0
  -30.6331  -22.6990   20.0093 H   0  0  0  0  0  0
  -29.1297  -15.2809   21.5387 H   0  0  0  0  0  0
  1 25  1  0  0  0
  1 30  2  0  0  0
  1 84  1  0  0  0
  2  3  1  0  0  0
  2 25  1  0  0  0
  2 86  1  0  0  0
  2 87  1  0  0  0
  3  4  1  0  0  0
  3 88  1  0  0  0
  3 89  1  0  0  0
  4  5  1  0  0  0
  4 90  1  0  0  0
  4 91  1  0  0  0
  5  6  1  0  0  0
  5 26  1  0  0  0
  5 92  1  0  0  0
  6 25  1  0  0  0
  6 93  1  0  0  0
  6 94  1  0  0  0
  7  8  2  0  0  0
  7 26  1  0  0  0
  7 29  1  0  0  0
  8  9  1  0  0  0
  8 22  1  0  0  0
  9 10  1  0  0  0
  9 27  2  0  0  0
 10 11  2  0  0  0
 10 15  1  0  0  0
 11 12  1  0  0  0
 11 95  1  0  0  0
 12 13  2  0  0  0
 12 96  1  0  0  0
 13 14  1  0  0  0
 13 31  1  0  0  0
 14 15  2  0  0  0
 14 97  1  0  0  0
 15 98  1  0  0  0
 16 17  2  0  0  0
 16 21  1  0  0  0
 16 31  1  0  0  0
 17 18  1  0  0  0
 17 99  1  0  0  0
 18 19  2  0  0  0
 18100  1  0  0  0
 19 20  1  0  0  0
 19 24  1  0  0  0
 20 21  2  0  0  0
 20101  1  0  0  0
 21 23  1  0  0  0
 22 28  1  0  0  0
 22 32  2  0  0  0
 26 27  1  0  0  0
 28102  1  0  0  0
 28103  1  0  0  0
 29104  1  0  0  0
 29105  1  0  0  0
 33 34  1  0  0  0
 33 66  1  0  0  0
 33 70  2  0  0  0
 34 36  1  0  0  0
 34 59  1  0  0  0
 34106  1  0  0  0
 35 44  2  0  0  0
 35 45  1  0  0  0
 35 68  1  0  0  0
 36 56  1  0  0  0
 36107  1  0  0  0
 37 39  1  0  0  0
 37 47  1  0  0  0
 37 66  1  0  0  0
 37108  1  0  0  0
 38 43  2  0  0  0
 38 46  1  0  0  0
 38 47  1  0  0  0
 39 64  1  0  0  0
 39 67  2  0  0  0
 40 52  1  0  0  0
 40 53  2  0  0  0
 40 58  1  0  0  0
 41109  1  0  0  0
 41110  1  0  0  0
 41111  1  0  0  0
 41 48  1  0  0  0
 42 43  1  0  0  0
 42 66  1  0  0  0
 42112  1  0  0  0
 42113  1  0  0  0
 43 44  1  0  0  0
 44114  1  0  0  0
 45 46  2  0  0  0
 45115  1  0  0  0
 46116  1  0  0  0
 47117  1  0  0  0
 47118  1  0  0  0
 48 56  1  0  0  0
 48 65  1  0  0  0
 48119  1  0  0  0
 49 50  1  0  0  0
 49 53  1  0  0  0
 49 64  1  0  0  0
 49120  1  0  0  0
 50 51  1  0  0  0
 50121  1  0  0  0
 50122  1  0  0  0
 51 52  1  0  0  0
 51123  1  0  0  0
 51124  1  0  0  0
 52125  1  0  0  0
 52126  1  0  0  0
 53 54  1  0  0  0
 54 55  2  0  0  0
 54127  1  0  0  0
 55 57  1  0  0  0
 55128  1  0  0  0
 56 69  2  0  0  0
 57 58  2  0  0  0
 57129  1  0  0  0
 58130  1  0  0  0
 59 60  1  0  0  0
 59 61  1  0  0  0
 59 62  1  0  0  0
 60131  1  0  0  0
 60132  1  0  0  0
 60133  1  0  0  0
 61134  1  0  0  0
 61135  1  0  0  0
 61136  1  0  0  0
 62137  1  0  0  0
 62138  1  0  0  0
 62139  1  0  0  0
 63 65  1  0  0  0
 63140  1  0  0  0
 63141  1  0  0  0
 63142  1  0  0  0
 64143  1  0  0  0
 65144  1  0  0  0
 68 82  1  0  0  0
 71 73  2  0  0  0
 71 74  1  0  0  0
 71145  1  0  0  0
 72 73  1  0  0  0
 72 75  2  0  0  0
 72146  1  0  0  0
 73 80  1  0  0  0
 74 76  2  0  0  0
 74 77  1  0  0  0
 75 76  1  0  0  0
 75 79  1  0  0  0
 76 85  1  0  0  0
 77147  1  0  0  0
 77148  1  0  0  0
 77149  1  0  0  0
 78 79  1  0  0  0
 78150  1  0  0  0
 78151  1  0  0  0
 78152  1  0  0  0
 79153  1  0  0  0
 79154  1  0  0  0
 80 84  1  0  0  0
 80155  1  0  0  0
 80156  1  0  0  0
 81 82  1  0  0  0
 81 83  1  0  0  0
 81157  1  0  0  0
 81158  1  0  0  0
 82159  1  0  0  0
 82160  1  0  0  0
 83 85  1  0  0  0
 83161  1  0  0  0
 83162  1  0  0  0
 84163  1  0  0  0
M  ISO  4   1 100  68 101  82 101  84 100
M  END
> <chiral flag>
0

> <version>
0

> <s_m_source_file>
/data/baiqing/PycharmProjects/Reinvent-master-3.2/result/LINK_invent/BTK/process_docking_weight1_custom_sum_contain_oxygen_bond_distance_aromatic_linkinvent_7_9_3/rearranged_h_0112.sdf

> <i_m_source_file_index>
83

> <r_mmod_Potential_Energy-OPLS-2005>
-95.9976119995117

> <r_mmod_Stretch_Energy-OPLS-2005>
41.450138092041

> <r_mmod_Bend_Energy-OPLS-2005>
98.4401168823242

> <r_mmod_Torsional_Energy-OPLS-2005>
251.180068969727

> <r_mmod_Improper_Torsional_Energy-OPLS-2005>
2.73062634468079

> <r_mmod_Van_der_Waal_Energy-OPLS-2005>
145.094619750977

> <r_mmod_Electrostatic_Energy-OPLS-2005>
-445.274841308594

> <r_mmod_Solvation_Energy-OPLS-2005>
-204.170547485352

> <b_mmod_Minimization_Converged-OPLS-2005>
0

> <r_mmod_RMS_Derivative-OPLS-2005>
1.65580892562866

$$$$
83
                    3D
 Structure written by MMmdl.
164172  0  0  1  0            999 V2000
  -30.5308  -14.9472   20.4328 C   0  0  0  0  0  0
  -30.4463  -12.5861   19.5143 C   0  0  0  0  0  0
  -29.5278  -12.5402   18.2687 C   0  0  0  0  0  0
  -28.0594  -12.3280   18.6788 C   0  0  0  0  0  0
  -27.6374  -13.2475   19.8538 C   0  0  2  0  0  0
  -28.6805  -13.2538   20.9968 C   0  0  0  0  0  0
  -25.2491  -13.8219   20.5694 C   0  0  0  0  0  0
  -24.1790  -13.0450   20.9212 C   0  0  0  0  0  0
  -24.6397  -11.6936   20.8758 C   0  0  0  0  0  0
  -23.9072  -10.4304   21.0377 C   0  0  0  0  0  0
  -24.3621   -9.4218   21.9151 C   0  0  0  0  0  0
  -23.6310   -8.2252   22.0725 C   0  0  0  0  0  0
  -22.4289   -8.0280   21.3532 C   0  0  0  0  0  0
  -21.9914   -9.0243   20.4627 C   0  0  0  0  0  0
  -22.7240  -10.2129   20.3033 C   0  0  0  0  0  0
  -21.6859   -6.0725   22.5269 C   0  0  0  0  0  0
  -21.4017   -6.5618   23.8202 C   0  0  0  0  0  0
  -21.3663   -5.6780   24.9161 C   0  0  0  0  0  0
  -21.6052   -4.3044   24.7221 C   0  0  0  0  0  0
  -21.8823   -3.8124   23.4340 C   0  0  0  0  0  0
  -21.9189   -4.6948   22.3388 C   0  0  0  0  0  0
  -22.7814  -13.5209   21.1859 C   0  0  0  0  0  0
  -22.1661   -4.2132   21.0980 F   0  0  0  0  0  0
  -21.5632   -3.4525   25.7728 F   0  0  0  0  0  0
  -29.9645  -13.6725   20.4178 N   0  0  0  0  0  0
  -26.2921  -12.9448   20.3294 N   0  0  0  0  0  0
  -25.9344  -11.6569   20.5771 N   0  0  0  0  0  0
  -22.0456  -12.8225   22.0424 N   0  0  0  0  0  0
  -25.4172  -15.1938   20.4067 N   0  0  0  0  0  0
  -31.6991  -15.0537   20.0462 O   0  0  0  0  0  0
  -21.6660   -6.8873   21.4228 O   0  0  0  0  0  0
  -22.3484  -14.5502   20.6691 O   0  0  0  0  0  0
  -24.6422  -31.8387   23.1868 C   0  0  0  0  0  0
  -25.9201  -32.4662   23.8243 C   0  0  1  0  0  0
  -27.2183  -27.1129   20.1636 C   0  0  0  0  0  0
  -25.5949  -33.8471   24.2152 N   0  0  0  0  0  0
  -23.4460  -30.4582   21.5302 C   0  0  2  0  0  0
  -24.8986  -28.8793   20.1076 C   0  0  0  0  0  0
  -22.7539  -29.4514   22.4830 C   0  0  0  0  0  0
  -18.0312  -28.1390   22.8466 C   0  0  0  0  0  0
  -24.1494  -36.7249   23.2638 C   0  0  0  0  0  0
  -26.0022  -30.7067   21.3894 C   0  0  0  0  0  0
  -26.0728  -29.3153   20.7336 C   0  0  0  0  0  0
  -27.2314  -28.4470   20.7449 C   0  0  0  0  0  0
  -26.0183  -26.7831   19.4928 C   0  0  0  0  0  0
  -24.8851  -27.6273   19.4723 C   0  0  0  0  0  0
  -23.6740  -29.7822   20.1509 C   0  0  0  0  0  0
  -25.4130  -36.3008   24.0299 C   0  0  1  0  0  0
  -20.5915  -28.3712   23.1240 C   0  0  2  0  0  0
  -20.6790  -26.9407   22.5413 C   0  0  0  0  0  0
  -19.5786  -26.6377   21.5200 C   0  0  0  0  0  0
  -18.1959  -26.7934   22.1590 C   0  0  0  0  0  0
  -19.1556  -28.8871   23.2846 C   0  0  0  0  0  0
  -18.9479  -30.1465   23.8878 C   0  0  0  0  0  0
  -17.6468  -30.6591   24.0554 C   0  0  0  0  0  0
  -25.9080  -34.9381   23.5041 C   0  0  0  0  0  0
  -16.5363  -29.9071   23.6336 C   0  0  0  0  0  0
  -16.7294  -28.6485   23.0372 C   0  0  0  0  0  0
  -26.4543  -31.6547   25.0694 C   0  0  0  0  0  0
  -25.3735  -31.3770   26.1400 C   0  0  0  0  0  0
  -27.0394  -30.2917   24.6316 C   0  0  0  0  0  0
  -27.6052  -32.4327   25.7503 C   0  0  0  0  0  0
  -27.5581  -37.1777   24.8450 C   0  0  0  0  0  0
  -21.4231  -29.3026   22.3590 N   0  0  0  0  0  0
  -26.4292  -37.3716   23.9406 N   0  0  0  0  0  0
  -24.7161  -31.0234   22.0911 N   0  0  0  0  0  0
  -23.4177  -28.8065   23.2995 O   0  0  0  0  0  0
  -28.2702  -26.1220   20.2593 O   0  0  0  0  0  0
  -26.5647  -34.8886   22.4614 O   0  0  0  0  0  0
  -23.5546  -32.1280   23.7092 O   0  0  0  0  0  0
  -30.8390  -21.2320   21.8051 C   0  0  0  0  0  0
  -31.4657  -20.3975   22.9499 C   0  0  0  0  0  0
  -29.8438  -18.5720   22.6489 C   0  0  0  0  0  0
  -29.9897  -18.9589   21.1469 C   0  0  1  0  0  0
  -29.3605  -21.4108   18.7951 C   0  0  0  0  0  0
  -27.4665  -21.1587   20.4307 C   0  0  0  0  0  0
  -29.6586  -17.6098   20.2090 C   0  0  0  0  0  0
  -29.0018  -23.2938   20.6039 C   0  0  0  0  0  0
  -28.0531  -24.5832   20.0297 C   0  0  0  0  0  0
  -28.9229  -21.6073   20.2541 C   0  0  0  0  0  0
  -29.7737  -20.5419   21.0411 N   0  0  0  0  0  0
  -29.7323  -16.0933   20.6955 N   0  0  0  0  0  0
  -30.4172  -19.5758   23.5745 N   0  3  0  0  0  0
  -31.4802  -12.7428   19.2064 H   0  0  0  0  0  0
  -30.4354  -11.6289   20.0354 H   0  0  0  0  0  0
  -29.8493  -11.7489   17.5901 H   0  0  0  0  0  0
  -29.6199  -13.4750   17.7158 H   0  0  0  0  0  0
  -27.9493  -11.2842   18.9723 H   0  0  0  0  0  0
  -27.3985  -12.4697   17.8231 H   0  0  0  0  0  0
  -27.6071  -14.2558   19.4420 H   0  0  0  0  0  0
  -28.7670  -12.2687   21.4533 H   0  0  0  0  0  0
  -28.3799  -13.9368   21.7918 H   0  0  0  0  0  0
  -25.2750   -9.5702   22.4736 H   0  0  0  0  0  0
  -24.0015   -7.4633   22.7455 H   0  0  0  0  0  0
  -21.0817   -8.8738   19.8965 H   0  0  0  0  0  0
  -22.3637  -10.9655   19.6159 H   0  0  0  0  0  0
  -21.2010   -7.6126   23.9694 H   0  0  0  0  0  0
  -21.1496   -6.0514   25.9077 H   0  0  0  0  0  0
  -22.0603   -2.7589   23.2837 H   0  0  0  0  0  0
  -22.4074  -11.9924   22.4864 H   0  0  0  0  0  0
  -21.1049  -13.1221   22.2581 H   0  0  0  0  0  0
  -24.6461  -15.8466   20.4986 H   0  0  0  0  0  0
  -26.2541  -15.6231   20.0354 H   0  0  0  0  0  0
  -26.7236  -32.5255   23.0938 H   0  0  0  0  0  0
  -25.0069  -33.9574   25.0280 H   0  0  0  0  0  0
  -22.7488  -31.2828   21.3730 H   0  0  0  0  0  0
  -23.3748  -35.9586   23.3279 H   0  0  0  0  0  0
  -24.3559  -36.8914   22.2052 H   0  0  0  0  0  0
  -23.7266  -37.6443   23.6702 H   0  0  0  0  0  0
  -26.1594  -31.4583   20.6145 H   0  0  0  0  0  0
  -26.8697  -30.7562   22.0347 H   0  0  0  0  0  0
  -28.1222  -28.7702   21.2649 H   0  0  0  0  0  0
  -25.9251  -25.8260   18.9988 H   0  0  0  0  0  0
  -23.9867  -27.2897   18.9718 H   0  0  0  0  0  0
  -23.8059  -30.5538   19.3910 H   0  0  0  0  0  0
  -22.7894  -29.2212   19.8438 H   0  0  0  0  0  0
  -25.1326  -36.1810   25.0783 H   0  0  0  0  0  0
  -21.0016  -28.3313   24.1354 H   0  0  0  0  0  0
  -20.5666  -26.2310   23.3621 H   0  0  0  0  0  0
  -21.6668  -26.7405   22.1224 H   0  0  0  0  0  0
  -19.6959  -25.6279   21.1249 H   0  0  0  0  0  0
  -19.6778  -27.3161   20.6711 H   0  0  0  0  0  0
  -17.4237  -26.6686   21.3980 H   0  0  0  0  0  0
  -18.0361  -26.0074   22.8979 H   0  0  0  0  0  0
  -19.7960  -30.7281   24.2241 H   0  0  0  0  0  0
  -17.5038  -31.6271   24.5146 H   0  0  0  0  0  0
  -15.5367  -30.2974   23.7704 H   0  0  0  0  0  0
  -15.8682  -28.0800   22.7131 H   0  0  0  0  0  0
  -24.5912  -30.7111   25.7747 H   0  0  0  0  0  0
  -24.8943  -32.2974   26.4742 H   0  0  0  0  0  0
  -25.8028  -30.9009   27.0222 H   0  0  0  0  0  0
  -26.3007  -29.6640   24.1319 H   0  0  0  0  0  0
  -27.3956  -29.7229   25.4916 H   0  0  0  0  0  0
  -27.8946  -30.4102   23.9657 H   0  0  0  0  0  0
  -27.2599  -33.3617   26.2050 H   0  0  0  0  0  0
  -28.3902  -32.6907   25.0383 H   0  0  0  0  0  0
  -28.0680  -31.8481   26.5466 H   0  0  0  0  0  0
  -28.2567  -38.0093   24.7467 H   0  0  0  0  0  0
  -28.1100  -36.2616   24.6302 H   0  0  0  0  0  0
  -27.2286  -37.1440   25.8844 H   0  0  0  0  0  0
  -20.9433  -29.8695   21.6737 H   0  0  0  0  0  0
  -26.0148  -38.2775   24.1420 H   0  0  0  0  0  0
  -31.6135  -21.5601   21.1112 H   0  0  0  0  0  0
  -30.4472  -22.1283   22.2779 H   0  0  0  0  0  0
  -31.9033  -21.0565   23.7030 H   0  0  0  0  0  0
  -32.2841  -19.7678   22.5959 H   0  0  0  0  0  0
  -30.3818  -17.6398   22.8310 H   0  0  0  0  0  0
  -28.8034  -18.3857   22.9157 H   0  0  0  0  0  0
  -31.0638  -18.9323   20.9590 H   0  0  0  0  0  0
  -28.7887  -22.0488   18.1212 H   0  0  0  0  0  0
  -29.2238  -20.3814   18.4633 H   0  0  0  0  0  0
  -30.4143  -21.6575   18.6618 H   0  0  0  0  0  0
  -26.7961  -21.7502   19.8058 H   0  0  0  0  0  0
  -27.1408  -21.2817   21.4634 H   0  0  0  0  0  0
  -27.3229  -20.1136   20.1565 H   0  0  0  0  0  0
  -30.2543  -17.6821   19.2981 H   0  0  0  0  0  0
  -28.6318  -17.7313   19.8645 H   0  0  0  0  0  0
  -28.8981  -23.3868   21.6850 H   0  0  0  0  0  0
  -30.0309  -23.5873   20.3904 H   0  0  0  0  0  0
  -27.0426  -24.3667   20.3784 H   0  0  0  0  0  0
  -27.9957  -24.4611   18.9476 H   0  0  0  0  0  0
  -28.8619  -15.8125   21.1247 H   0  0  0  0  0  0
  -29.6770  -20.2016   23.8411 H   0  0  0  0  0  0
  -30.7610  -19.1238   24.4059 H   0  0  0  0  0  0
  1 25  1  0  0  0
  1 30  2  0  0  0
  1 82  1  0  0  0
  2  3  1  0  0  0
  2 25  1  0  0  0
  2 84  1  0  0  0
  2 85  1  0  0  0
  3  4  1  0  0  0
  3 86  1  0  0  0
  3 87  1  0  0  0
  4  5  1  0  0  0
  4 88  1  0  0  0
  4 89  1  0  0  0
  5  6  1  0  0  0
  5 26  1  0  0  0
  5 90  1  0  0  0
  6 25  1  0  0  0
  6 91  1  0  0  0
  6 92  1  0  0  0
  7  8  2  0  0  0
  7 26  1  0  0  0
  7 29  1  0  0  0
  8  9  1  0  0  0
  8 22  1  0  0  0
  9 10  1  0  0  0
  9 27  2  0  0  0
 10 11  2  0  0  0
 10 15  1  0  0  0
 11 12  1  0  0  0
 11 93  1  0  0  0
 12 13  2  0  0  0
 12 94  1  0  0  0
 13 14  1  0  0  0
 13 31  1  0  0  0
 14 15  2  0  0  0
 14 95  1  0  0  0
 15 96  1  0  0  0
 16 17  2  0  0  0
 16 21  1  0  0  0
 16 31  1  0  0  0
 17 18  1  0  0  0
 17 97  1  0  0  0
 18 19  2  0  0  0
 18 98  1  0  0  0
 19 20  1  0  0  0
 19 24  1  0  0  0
 20 21  2  0  0  0
 20 99  1  0  0  0
 21 23  1  0  0  0
 22 28  1  0  0  0
 22 32  2  0  0  0
 26 27  1  0  0  0
 28100  1  0  0  0
 28101  1  0  0  0
 29102  1  0  0  0
 29103  1  0  0  0
 33 34  1  0  0  0
 33 66  1  0  0  0
 33 70  2  0  0  0
 34 36  1  0  0  0
 34 59  1  0  0  0
 34104  1  0  0  0
 35 44  2  0  0  0
 35 45  1  0  0  0
 35 68  1  0  0  0
 36 56  1  0  0  0
 36105  1  0  0  0
 37 39  1  0  0  0
 37 47  1  0  0  0
 37 66  1  0  0  0
 37106  1  0  0  0
 38 43  2  0  0  0
 38 46  1  0  0  0
 38 47  1  0  0  0
 39 64  1  0  0  0
 39 67  2  0  0  0
 40 52  1  0  0  0
 40 53  2  0  0  0
 40 58  1  0  0  0
 41107  1  0  0  0
 41108  1  0  0  0
 41109  1  0  0  0
 41 48  1  0  0  0
 42 43  1  0  0  0
 42 66  1  0  0  0
 42110  1  0  0  0
 42111  1  0  0  0
 43 44  1  0  0  0
 44112  1  0  0  0
 45 46  2  0  0  0
 45113  1  0  0  0
 46114  1  0  0  0
 47115  1  0  0  0
 47116  1  0  0  0
 48 56  1  0  0  0
 48 65  1  0  0  0
 48117  1  0  0  0
 49 50  1  0  0  0
 49 53  1  0  0  0
 49 64  1  0  0  0
 49118  1  0  0  0
 50 51  1  0  0  0
 50119  1  0  0  0
 50120  1  0  0  0
 51 52  1  0  0  0
 51121  1  0  0  0
 51122  1  0  0  0
 52123  1  0  0  0
 52124  1  0  0  0
 53 54  1  0  0  0
 54 55  2  0  0  0
 54125  1  0  0  0
 55 57  1  0  0  0
 55126  1  0  0  0
 56 69  2  0  0  0
 57 58  2  0  0  0
 57127  1  0  0  0
 58128  1  0  0  0
 59 60  1  0  0  0
 59 61  1  0  0  0
 59 62  1  0  0  0
 60129  1  0  0  0
 60130  1  0  0  0
 60131  1  0  0  0
 61132  1  0  0  0
 61133  1  0  0  0
 61134  1  0  0  0
 62135  1  0  0  0
 62136  1  0  0  0
 62137  1  0  0  0
 63 65  1  0  0  0
 63138  1  0  0  0
 63139  1  0  0  0
 63140  1  0  0  0
 64141  1  0  0  0
 65142  1  0  0  0
 68 79  1  0  0  0
 71 72  1  0  0  0
 71 81  1  0  0  0
 71143  1  0  0  0
 71144  1  0  0  0
 72 83  1  0  0  0
 72145  1  0  0  0
 72146  1  0  0  0
 73 74  1  0  0  0
 73 83  1  0  0  0
 73147  1  0  0  0
 73148  1  0  0  0
 74 77  1  0  0  0
 74 81  1  0  0  0
 74149  1  0  0  0
 75150  1  0  0  0
 75151  1  0  0  0
 75152  1  0  0  0
 75 80  1  0  0  0
 76 80  1  0  0  0
 76153  1  0  0  0
 76154  1  0  0  0
 76155  1  0  0  0
 77 82  1  0  0  0
 77156  1  0  0  0
 77157  1  0  0  0
 78 79  1  0  0  0
 78 80  1  0  0  0
 78158  1  0  0  0
 78159  1  0  0  0
 79160  1  0  0  0
 79161  1  0  0  0
 80 81  1  0  0  0
 82162  1  0  0  0
 83163  1  0  0  0
 83164  1  0  0  0
M  CHG  1  83   1
M  ISO  4   1 100  68 101  79 101  82 100
M  END
> <chiral flag>
0

> <version>
0

> <s_m_source_file>
/data/baiqing/PycharmProjects/Reinvent-master-3.2/result/LINK_invent/BTK/process_docking_weight1_custom_sum_contain_oxygen_bond_distance_aromatic_linkinvent_7_9_3/rearranged_h_0112.sdf

> <i_m_source_file_index>
84

> <r_mmod_Potential_Energy-OPLS-2005>
504.267456054688

> <r_mmod_Stretch_Energy-OPLS-2005>
311.293579101562

> <r_mmod_Bend_Energy-OPLS-2005>
398.866394042969

> <r_mmod_Torsional_Energy-OPLS-2005>
277.43603515625

> <r_mmod_Improper_Torsional_Energy-OPLS-2005>
5.24568939208984

> <r_mmod_Van_der_Waal_Energy-OPLS-2005>
129.2548828125

> <r_mmod_Electrostatic_Energy-OPLS-2005>
-348.076416015625

> <r_mmod_Solvation_Energy-OPLS-2005>
-471.735565185547

> <b_mmod_Minimization_Converged-OPLS-2005>
0

> <r_mmod_RMS_Derivative-OPLS-2005>
3.1614818572998

$$$$
84
                    3D
 Structure written by MMmdl.
163171  0  0  1  0            999 V2000
  -30.5794  -14.8630   20.4135 C   0  0  0  0  0  0
  -30.4300  -12.5254   19.4819 C   0  0  0  0  0  0
  -29.5040  -12.5117   18.2446 C   0  0  0  0  0  0
  -28.0418  -12.3031   18.6741 C   0  0  0  0  0  0
  -27.6342  -13.2383   19.8418 C   0  0  2  0  0  0
  -28.6807  -13.2437   20.9771 C   0  0  0  0  0  0
  -25.2483  -13.8216   20.5672 C   0  0  0  0  0  0
  -24.1796  -13.0449   20.9216 C   0  0  0  0  0  0
  -24.6413  -11.6925   20.8778 C   0  0  0  0  0  0
  -23.9118  -10.4287   21.0427 C   0  0  0  0  0  0
  -24.3669   -9.4184   21.9185 C   0  0  0  0  0  0
  -23.6332   -8.2221   22.0742 C   0  0  0  0  0  0
  -22.4301   -8.0290   21.3546 C   0  0  0  0  0  0
  -21.9967   -9.0264   20.4631 C   0  0  0  0  0  0
  -22.7310  -10.2133   20.3049 C   0  0  0  0  0  0
  -21.6858   -6.0760   22.5282 C   0  0  0  0  0  0
  -21.4017   -6.5659   23.8222 C   0  0  0  0  0  0
  -21.3654   -5.6804   24.9179 C   0  0  0  0  0  0
  -21.6045   -4.3071   24.7218 C   0  0  0  0  0  0
  -21.8822   -3.8169   23.4340 C   0  0  0  0  0  0
  -21.9193   -4.6988   22.3398 C   0  0  0  0  0  0
  -22.7815  -13.5200   21.1899 C   0  0  0  0  0  0
  -22.1661   -4.2178   21.0976 F   0  0  0  0  0  0
  -21.5622   -3.4547   25.7728 F   0  0  0  0  0  0
  -29.9690  -13.6183   20.3795 N   0  0  0  0  0  0
  -26.2920  -12.9432   20.3290 N   0  0  0  0  0  0
  -25.9347  -11.6578   20.5801 N   0  0  0  0  0  0
  -22.0521  -12.8117   22.0448 N   0  0  0  0  0  0
  -25.4191  -15.1924   20.3990 N   0  0  0  0  0  0
  -31.7761  -14.9389   20.1203 O   0  0  0  0  0  0
  -21.6645   -6.8898   21.4246 O   0  0  0  0  0  0
  -22.3453  -14.5499   20.6768 O   0  0  0  0  0  0
  -24.6410  -31.8506   23.1937 C   0  0  0  0  0  0
  -25.9190  -32.4732   23.8302 C   0  0  1  0  0  0
  -27.2003  -27.1923   20.1525 C   0  0  0  0  0  0
  -25.5981  -33.8544   24.2245 N   0  0  0  0  0  0
  -23.4420  -30.4763   21.5373 C   0  0  2  0  0  0
  -24.8845  -28.9150   20.1104 C   0  0  0  0  0  0
  -22.7569  -29.4616   22.4870 C   0  0  0  0  0  0
  -18.0319  -28.1445   22.8499 C   0  0  0  0  0  0
  -24.1469  -36.7264   23.2643 C   0  0  0  0  0  0
  -25.9953  -30.7416   21.3837 C   0  0  0  0  0  0
  -26.0609  -29.3577   20.7302 C   0  0  0  0  0  0
  -27.2265  -28.5114   20.7401 C   0  0  0  0  0  0
  -26.0110  -26.8508   19.4742 C   0  0  0  0  0  0
  -24.8669  -27.6705   19.4683 C   0  0  0  0  0  0
  -23.6613  -29.8131   20.1531 C   0  0  0  0  0  0
  -25.4094  -36.3071   24.0339 C   0  0  1  0  0  0
  -20.5935  -28.3759   23.1244 C   0  0  2  0  0  0
  -20.6826  -26.9457   22.5422 C   0  0  0  0  0  0
  -19.5776  -26.6406   21.5255 C   0  0  0  0  0  0
  -18.1944  -26.7996   22.1621 C   0  0  0  0  0  0
  -19.1574  -28.8911   23.2874 C   0  0  0  0  0  0
  -18.9492  -30.1510   23.8898 C   0  0  0  0  0  0
  -17.6486  -30.6631   24.0580 C   0  0  0  0  0  0
  -25.9060  -34.9439   23.5087 C   0  0  0  0  0  0
  -16.5381  -29.9137   23.6347 C   0  0  0  0  0  0
  -16.7300  -28.6561   23.0363 C   0  0  0  0  0  0
  -26.4530  -31.6598   25.0735 C   0  0  0  0  0  0
  -25.3728  -31.3790   26.1451 C   0  0  0  0  0  0
  -27.0387  -30.3009   24.6272 C   0  0  0  0  0  0
  -27.6102  -32.4339   25.7504 C   0  0  0  0  0  0
  -27.5588  -37.1769   24.8452 C   0  0  0  0  0  0
  -21.4261  -29.3090   22.3620 N   0  0  0  0  0  0
  -26.4250  -37.3804   23.9481 N   0  0  0  0  0  0
  -24.7124  -31.0440   22.0917 N   0  0  0  0  0  0
  -23.4247  -28.8144   23.2969 O   0  0  0  0  0  0
  -28.2250  -26.1990   20.2085 O   0  0  0  0  0  0
  -26.5626  -34.8944   22.4658 O   0  0  0  0  0  0
  -23.5529  -32.1331   23.7189 O   0  0  0  0  0  0
  -28.7833  -22.5277   21.6579 C   0  0  0  0  0  0
  -29.0372  -21.1077   21.5930 C   0  0  0  0  0  0
  -28.4785  -23.3614   20.5327 C   0  0  0  0  0  0
  -29.0245  -20.3453   20.3851 C   0  0  0  0  0  0
  -28.5259  -22.6311   19.2985 C   0  0  0  0  0  0
  -28.8067  -21.1942   19.2359 C   0  0  0  0  0  0
  -29.7335  -20.5138   17.0849 C   0  0  0  0  0  0
  -28.1872  -23.3856   18.0139 C   0  0  0  0  0  0
  -30.4275  -20.1787   14.6339 C   0  0  0  0  0  0
  -28.9336  -18.7007   20.3818 C   0  0  0  0  0  0
  -27.8059  -24.8332   20.7582 C   0  0  0  0  0  0
  -29.3725  -19.9239   15.7203 C   0  0  0  0  0  0
  -30.1345  -17.5535   20.4025 C   0  0  0  0  0  0
  -28.7338  -20.5712   17.9713 N   0  0  0  0  0  0
  -29.8022  -16.0293   20.5614 N   0  0  0  0  0  0
  -30.8791  -20.9093   17.3235 O   0  0  0  0  0  0
  -31.4658  -12.6578   19.1669 H   0  0  0  0  0  0
  -30.3952  -11.5663   20.0010 H   0  0  0  0  0  0
  -29.8030  -11.7243   17.5517 H   0  0  0  0  0  0
  -29.5930  -13.4532   17.6989 H   0  0  0  0  0  0
  -27.9384  -11.2613   18.9841 H   0  0  0  0  0  0
  -27.3681  -12.4386   17.8260 H   0  0  0  0  0  0
  -27.6073  -14.2412   19.4144 H   0  0  0  0  0  0
  -28.7420  -12.2688   21.4632 H   0  0  0  0  0  0
  -28.3968  -13.9600   21.7501 H   0  0  0  0  0  0
  -25.2835   -9.5624   22.4742 H   0  0  0  0  0  0
  -24.0051   -7.4587   22.7430 H   0  0  0  0  0  0
  -21.0918   -8.8795   19.8894 H   0  0  0  0  0  0
  -22.3827  -10.9672   19.6127 H   0  0  0  0  0  0
  -21.2014   -7.6170   23.9736 H   0  0  0  0  0  0
  -21.1470   -6.0533   25.9085 H   0  0  0  0  0  0
  -22.0603   -2.7636   23.2832 H   0  0  0  0  0  0
  -22.4254  -11.9787   22.4752 H   0  0  0  0  0  0
  -21.1110  -13.1009   22.2701 H   0  0  0  0  0  0
  -24.6475  -15.8468   20.4660 H   0  0  0  0  0  0
  -26.2623  -15.6172   20.0354 H   0  0  0  0  0  0
  -26.7256  -32.5338   23.1037 H   0  0  0  0  0  0
  -25.0206  -33.9684   25.0440 H   0  0  0  0  0  0
  -22.7463  -31.3031   21.3867 H   0  0  0  0  0  0
  -23.3772  -35.9549   23.3231 H   0  0  0  0  0  0
  -24.3589  -36.8943   22.2076 H   0  0  0  0  0  0
  -23.7149  -37.6429   23.6681 H   0  0  0  0  0  0
  -26.1443  -31.4876   20.6023 H   0  0  0  0  0  0
  -26.8735  -30.7910   22.0148 H   0  0  0  0  0  0
  -28.1198  -28.8416   21.2497 H   0  0  0  0  0  0
  -25.9347  -25.9051   18.9593 H   0  0  0  0  0  0
  -23.9692  -27.3282   18.9714 H   0  0  0  0  0  0
  -23.7988  -30.5886   19.3991 H   0  0  0  0  0  0
  -22.7758  -29.2576   19.8400 H   0  0  0  0  0  0
  -25.1259  -36.1894   25.0821 H   0  0  0  0  0  0
  -21.0040  -28.3347   24.1358 H   0  0  0  0  0  0
  -20.5786  -26.2368   23.3652 H   0  0  0  0  0  0
  -21.6684  -26.7507   22.1167 H   0  0  0  0  0  0
  -19.6927  -25.6319   21.1277 H   0  0  0  0  0  0
  -19.6715  -27.3237   20.6804 H   0  0  0  0  0  0
  -17.4249  -26.6797   21.3981 H   0  0  0  0  0  0
  -18.0251  -26.0174   22.9020 H   0  0  0  0  0  0
  -19.7964  -30.7336   24.2264 H   0  0  0  0  0  0
  -17.5043  -31.6303   24.5202 H   0  0  0  0  0  0
  -15.5390  -30.3040   23.7685 H   0  0  0  0  0  0
  -15.8701  -28.0880   22.7079 H   0  0  0  0  0  0
  -24.5978  -30.7023   25.7834 H   0  0  0  0  0  0
  -24.8818  -32.2966   26.4708 H   0  0  0  0  0  0
  -25.8045  -30.9151   27.0325 H   0  0  0  0  0  0
  -26.2985  -29.6767   24.1261 H   0  0  0  0  0  0
  -27.4056  -29.7292   25.4809 H   0  0  0  0  0  0
  -27.8864  -30.4328   23.9547 H   0  0  0  0  0  0
  -27.2755  -33.3710   26.1973 H   0  0  0  0  0  0
  -28.3975  -32.6763   25.0348 H   0  0  0  0  0  0
  -28.0691  -31.8503   26.5509 H   0  0  0  0  0  0
  -28.2529  -38.0154   24.7694 H   0  0  0  0  0  0
  -28.1159  -36.2721   24.5987 H   0  0  0  0  0  0
  -27.2373  -37.1075   25.8862 H   0  0  0  0  0  0
  -20.9471  -29.8810   21.6811 H   0  0  0  0  0  0
  -26.0095  -38.2839   24.1608 H   0  0  0  0  0  0
  -28.7327  -22.9730   22.6416 H   0  0  0  0  0  0
  -29.1548  -20.5739   22.5256 H   0  0  0  0  0  0
  -27.9194  -24.4279   18.1836 H   0  0  0  0  0  0
  -27.3498  -22.9163   17.4924 H   0  0  0  0  0  0
  -29.0461  -23.3923   17.3428 H   0  0  0  0  0  0
  -30.0458  -19.8877   13.6546 H   0  0  0  0  0  0
  -31.3353  -19.6044   14.8264 H   0  0  0  0  0  0
  -30.6995  -21.2345   14.5792 H   0  0  0  0  0  0
  -28.3098  -18.4575   19.5230 H   0  0  0  0  0  0
  -28.2905  -18.4685   21.2305 H   0  0  0  0  0  0
  -27.7759  -24.9838   21.8382 H   0  0  0  0  0  0
  -26.7611  -24.6528   20.5116 H   0  0  0  0  0  0
  -28.4259  -20.3608   15.4003 H   0  0  0  0  0  0
  -29.1949  -18.8550   15.8353 H   0  0  0  0  0  0
  -30.8343  -17.8039   21.2003 H   0  0  0  0  0  0
  -30.7075  -17.6526   19.4779 H   0  0  0  0  0  0
  -27.8324  -20.2161   17.6795 H   0  0  0  0  0  0
  -28.8430  -15.8367   20.8042 H   0  0  0  0  0  0
  1 25  1  0  0  0
  1 30  2  0  0  0
  1 85  1  0  0  0
  2  3  1  0  0  0
  2 25  1  0  0  0
  2 87  1  0  0  0
  2 88  1  0  0  0
  3  4  1  0  0  0
  3 89  1  0  0  0
  3 90  1  0  0  0
  4  5  1  0  0  0
  4 91  1  0  0  0
  4 92  1  0  0  0
  5  6  1  0  0  0
  5 26  1  0  0  0
  5 93  1  0  0  0
  6 25  1  0  0  0
  6 94  1  0  0  0
  6 95  1  0  0  0
  7  8  2  0  0  0
  7 26  1  0  0  0
  7 29  1  0  0  0
  8  9  1  0  0  0
  8 22  1  0  0  0
  9 10  1  0  0  0
  9 27  2  0  0  0
 10 11  2  0  0  0
 10 15  1  0  0  0
 11 12  1  0  0  0
 11 96  1  0  0  0
 12 13  2  0  0  0
 12 97  1  0  0  0
 13 14  1  0  0  0
 13 31  1  0  0  0
 14 15  2  0  0  0
 14 98  1  0  0  0
 15 99  1  0  0  0
 16 17  2  0  0  0
 16 21  1  0  0  0
 16 31  1  0  0  0
 17 18  1  0  0  0
 17100  1  0  0  0
 18 19  2  0  0  0
 18101  1  0  0  0
 19 20  1  0  0  0
 19 24  1  0  0  0
 20 21  2  0  0  0
 20102  1  0  0  0
 21 23  1  0  0  0
 22 28  1  0  0  0
 22 32  2  0  0  0
 26 27  1  0  0  0
 28103  1  0  0  0
 28104  1  0  0  0
 29105  1  0  0  0
 29106  1  0  0  0
 33 34  1  0  0  0
 33 66  1  0  0  0
 33 70  2  0  0  0
 34 36  1  0  0  0
 34 59  1  0  0  0
 34107  1  0  0  0
 35 44  2  0  0  0
 35 45  1  0  0  0
 35 68  1  0  0  0
 36 56  1  0  0  0
 36108  1  0  0  0
 37 39  1  0  0  0
 37 47  1  0  0  0
 37 66  1  0  0  0
 37109  1  0  0  0
 38 43  2  0  0  0
 38 46  1  0  0  0
 38 47  1  0  0  0
 39 64  1  0  0  0
 39 67  2  0  0  0
 40 52  1  0  0  0
 40 53  2  0  0  0
 40 58  1  0  0  0
 41110  1  0  0  0
 41111  1  0  0  0
 41112  1  0  0  0
 41 48  1  0  0  0
 42 43  1  0  0  0
 42 66  1  0  0  0
 42113  1  0  0  0
 42114  1  0  0  0
 43 44  1  0  0  0
 44115  1  0  0  0
 45 46  2  0  0  0
 45116  1  0  0  0
 46117  1  0  0  0
 47118  1  0  0  0
 47119  1  0  0  0
 48 56  1  0  0  0
 48 65  1  0  0  0
 48120  1  0  0  0
 49 50  1  0  0  0
 49 53  1  0  0  0
 49 64  1  0  0  0
 49121  1  0  0  0
 50 51  1  0  0  0
 50122  1  0  0  0
 50123  1  0  0  0
 51 52  1  0  0  0
 51124  1  0  0  0
 51125  1  0  0  0
 52126  1  0  0  0
 52127  1  0  0  0
 53 54  1  0  0  0
 54 55  2  0  0  0
 54128  1  0  0  0
 55 57  1  0  0  0
 55129  1  0  0  0
 56 69  2  0  0  0
 57 58  2  0  0  0
 57130  1  0  0  0
 58131  1  0  0  0
 59 60  1  0  0  0
 59 61  1  0  0  0
 59 62  1  0  0  0
 60132  1  0  0  0
 60133  1  0  0  0
 60134  1  0  0  0
 61135  1  0  0  0
 61136  1  0  0  0
 61137  1  0  0  0
 62138  1  0  0  0
 62139  1  0  0  0
 62140  1  0  0  0
 63 65  1  0  0  0
 63141  1  0  0  0
 63142  1  0  0  0
 63143  1  0  0  0
 64144  1  0  0  0
 65145  1  0  0  0
 68 81  1  0  0  0
 71 72  2  0  0  0
 71 73  1  0  0  0
 71146  1  0  0  0
 72 74  1  0  0  0
 72147  1  0  0  0
 73 75  2  0  0  0
 73 81  1  0  0  0
 74 76  2  0  0  0
 74 80  1  0  0  0
 75 76  1  0  0  0
 75 78  1  0  0  0
 76 84  1  0  0  0
 77 82  1  0  0  0
 77 84  1  0  0  0
 77 86  2  0  0  0
 78148  1  0  0  0
 78149  1  0  0  0
 78150  1  0  0  0
 79 82  1  0  0  0
 79151  1  0  0  0
 79152  1  0  0  0
 79153  1  0  0  0
 80 83  1  0  0  0
 80154  1  0  0  0
 80155  1  0  0  0
 81156  1  0  0  0
 81157  1  0  0  0
 82158  1  0  0  0
 82159  1  0  0  0
 83 85  1  0  0  0
 83160  1  0  0  0
 83161  1  0  0  0
 84162  1  0  0  0
 85163  1  0  0  0
M  ISO  4   1 100  68 101  81 101  85 100
M  END
> <chiral flag>
0

> <version>
0

> <s_m_source_file>
/data/baiqing/PycharmProjects/Reinvent-master-3.2/result/LINK_invent/BTK/process_docking_weight1_custom_sum_contain_oxygen_bond_distance_aromatic_linkinvent_7_9_3/rearranged_h_0112.sdf

> <i_m_source_file_index>
85

> <r_mmod_Potential_Energy-OPLS-2005>
322.310699462891

> <r_mmod_Stretch_Energy-OPLS-2005>
190.070846557617

> <r_mmod_Bend_Energy-OPLS-2005>
226.473037719727

> <r_mmod_Torsional_Energy-OPLS-2005>
283.946685791016

> <r_mmod_Improper_Torsional_Energy-OPLS-2005>
10.2150316238403

> <r_mmod_Van_der_Waal_Energy-OPLS-2005>
137.398468017578

> <r_mmod_Electrostatic_Energy-OPLS-2005>
-428.854888916016

> <r_mmod_Solvation_Energy-OPLS-2005>
-245.770172119141

> <b_mmod_Minimization_Converged-OPLS-2005>
0

> <r_mmod_RMS_Derivative-OPLS-2005>
3.69454121589661

$$$$
85
                    3D
 Structure written by MMmdl.
157165  0  0  1  0            999 V2000
  -30.3676  -15.3964   20.3820 C   0  0  0  0  0  0
  -30.4363  -12.8941   19.5713 C   0  0  0  0  0  0
  -29.5488  -12.6035   18.3287 C   0  0  0  0  0  0
  -28.1049  -12.2948   18.7525 C   0  0  0  0  0  0
  -27.6101  -13.2816   19.8360 C   0  0  2  0  0  0
  -28.6288  -13.4997   20.9790 C   0  0  0  0  0  0
  -25.2369  -13.8258   20.5778 C   0  0  0  0  0  0
  -24.1728  -13.0437   20.9247 C   0  0  0  0  0  0
  -24.6381  -11.6932   20.8754 C   0  0  0  0  0  0
  -23.9079  -10.4289   21.0399 C   0  0  0  0  0  0
  -24.3625   -9.4201   21.9181 C   0  0  0  0  0  0
  -23.6304   -8.2245   22.0753 C   0  0  0  0  0  0
  -22.4287   -8.0269   21.3539 C   0  0  0  0  0  0
  -21.9925   -9.0234   20.4647 C   0  0  0  0  0  0
  -22.7249  -10.2121   20.3057 C   0  0  0  0  0  0
  -21.6854   -6.0732   22.5269 C   0  0  0  0  0  0
  -21.4007   -6.5634   23.8190 C   0  0  0  0  0  0
  -21.3658   -5.6799   24.9163 C   0  0  0  0  0  0
  -21.6053   -4.3070   24.7225 C   0  0  0  0  0  0
  -21.8818   -3.8139   23.4345 C   0  0  0  0  0  0
  -21.9186   -4.6955   22.3400 C   0  0  0  0  0  0
  -22.7743  -13.5177   21.1894 C   0  0  0  0  0  0
  -22.1666   -4.2145   21.0988 F   0  0  0  0  0  0
  -21.5627   -3.4554   25.7740 F   0  0  0  0  0  0
  -29.8539  -14.0505   20.3724 N   0  0  0  0  0  0
  -26.2801  -12.9525   20.3275 N   0  0  0  0  0  0
  -25.9319  -11.6622   20.5742 N   0  0  0  0  0  0
  -22.0436  -12.8142   22.0465 N   0  0  0  0  0  0
  -25.4026  -15.1986   20.4193 N   0  0  0  0  0  0
  -31.5678  -15.4152   20.0641 O   0  0  0  0  0  0
  -21.6648   -6.8860   21.4225 O   0  0  0  0  0  0
  -22.3405  -14.5480   20.6744 O   0  0  0  0  0  0
  -24.6702  -31.8157   23.1598 C   0  0  0  0  0  0
  -25.9354  -32.4554   23.8089 C   0  0  1  0  0  0
  -27.2230  -26.8504   20.2063 C   0  0  0  0  0  0
  -25.5997  -33.8375   24.2024 N   0  0  0  0  0  0
  -23.4881  -30.4268   21.5080 C   0  0  2  0  0  0
  -24.9434  -28.7949   20.1072 C   0  0  0  0  0  0
  -22.7712  -29.4444   22.4707 C   0  0  0  0  0  0
  -18.0340  -28.1461   22.8495 C   0  0  0  0  0  0
  -24.1460  -36.7162   23.2640 C   0  0  0  0  0  0
  -26.0598  -30.5968   21.4012 C   0  0  0  0  0  0
  -26.1246  -29.1768   20.7530 C   0  0  0  0  0  0
  -27.2533  -28.2281   20.7774 C   0  0  0  0  0  0
  -26.0160  -26.6436   19.4926 C   0  0  0  0  0  0
  -24.9200  -27.5495   19.4521 C   0  0  0  0  0  0
  -23.7331  -29.7341   20.1378 C   0  0  0  0  0  0
  -25.4110  -36.2923   24.0291 C   0  0  1  0  0  0
  -20.5973  -28.3811   23.1170 C   0  0  2  0  0  0
  -20.6800  -26.9476   22.5419 C   0  0  0  0  0  0
  -19.5751  -26.6413   21.5242 C   0  0  0  0  0  0
  -18.1948  -26.7995   22.1655 C   0  0  0  0  0  0
  -19.1610  -28.8951   23.2832 C   0  0  0  0  0  0
  -18.9516  -30.1542   23.8860 C   0  0  0  0  0  0
  -17.6508  -30.6643   24.0591 C   0  0  0  0  0  0
  -25.9097  -34.9330   23.4985 C   0  0  0  0  0  0
  -16.5395  -29.9142   23.6371 C   0  0  0  0  0  0
  -16.7323  -28.6571   23.0390 C   0  0  0  0  0  0
  -26.4583  -31.6524   25.0658 C   0  0  0  0  0  0
  -25.3719  -31.3857   26.1335 C   0  0  0  0  0  0
  -27.0456  -30.2865   24.6439 C   0  0  0  0  0  0
  -27.6068  -32.4347   25.7473 C   0  0  0  0  0  0
  -27.5543  -37.1731   24.8476 C   0  0  0  0  0  0
  -21.4361  -29.3077   22.3484 N   0  0  0  0  0  0
  -26.4218  -37.3701   23.9439 N   0  0  0  0  0  0
  -24.7613  -30.9780   22.0754 N   0  0  0  0  0  0
  -23.4236  -28.8031   23.2980 O   0  0  0  0  0  0
  -28.2007  -25.7001   20.3486 O   0  0  0  0  0  0
  -26.5705  -34.8894   22.4574 O   0  0  0  0  0  0
  -23.5763  -32.1141   23.6676 O   0  0  0  0  0  0
  -28.9931  -22.3993   21.9464 C   0  0  0  0  0  0
  -28.8776  -21.0911   19.9684 C   0  0  0  0  0  0
  -28.6802  -22.5143   20.5709 C   0  0  0  0  0  0
  -29.3581  -21.1685   22.5929 C   0  0  0  0  0  0
  -29.2802  -19.7564   20.6485 C   0  0  0  0  0  0
  -28.2927  -20.8076   24.8607 C   0  0  0  0  0  0
  -30.1372  -22.4967   24.6860 C   0  0  0  0  0  0
  -30.7018  -20.1067   24.4848 C   0  0  0  0  0  0
  -28.0393  -24.0696   19.9546 C   0  0  0  0  0  0
  -29.6112  -21.1459   24.1281 C   0  0  0  0  0  0
  -29.4385  -19.9314   21.9808 N   0  0  0  0  0  0
  -29.6441  -18.3183   20.1133 N   0  0  0  0  0  0
  -29.5834  -16.6721   20.6059 N   0  0  0  0  0  0
  -31.4547  -13.1083   19.2422 H   0  0  0  0  0  0
  -30.5205  -12.0016   20.1953 H   0  0  0  0  0  0
  -29.9558  -11.7686   17.7563 H   0  0  0  0  0  0
  -29.5597  -13.4654   17.6602 H   0  0  0  0  0  0
  -28.0888  -11.2820   19.1566 H   0  0  0  0  0  0
  -27.4364  -12.2903   17.8927 H   0  0  0  0  0  0
  -27.5148  -14.2358   19.3162 H   0  0  0  0  0  0
  -28.8224  -12.5801   21.5333 H   0  0  0  0  0  0
  -28.2355  -14.2138   21.7041 H   0  0  0  0  0  0
  -25.2764   -9.5692   22.4758 H   0  0  0  0  0  0
  -24.0011   -7.4634   22.7481 H   0  0  0  0  0  0
  -21.0851   -8.8739   19.8954 H   0  0  0  0  0  0
  -22.3681  -10.9649   19.6172 H   0  0  0  0  0  0
  -21.2008   -7.6144   23.9689 H   0  0  0  0  0  0
  -21.1485   -6.0543   25.9067 H   0  0  0  0  0  0
  -22.0604   -2.7603   23.2850 H   0  0  0  0  0  0
  -22.4101  -11.9791   22.4796 H   0  0  0  0  0  0
  -21.1061  -13.1105   22.2738 H   0  0  0  0  0  0
  -24.6329  -15.8518   20.5144 H   0  0  0  0  0  0
  -26.2490  -15.6292   20.0683 H   0  0  0  0  0  0
  -26.7433  -32.5064   23.0811 H   0  0  0  0  0  0
  -25.0161  -33.9415   25.0189 H   0  0  0  0  0  0
  -22.8056  -31.2615   21.3343 H   0  0  0  0  0  0
  -23.3721  -35.9492   23.3285 H   0  0  0  0  0  0
  -24.3542  -36.8833   22.2060 H   0  0  0  0  0  0
  -23.7224  -37.6349   23.6711 H   0  0  0  0  0  0
  -26.2498  -31.3227   20.6082 H   0  0  0  0  0  0
  -26.9197  -30.6619   22.0563 H   0  0  0  0  0  0
  -28.1420  -28.5226   21.3188 H   0  0  0  0  0  0
  -25.8711  -25.6945   18.9949 H   0  0  0  0  0  0
  -24.0238  -27.2559   18.9210 H   0  0  0  0  0  0
  -23.8999  -30.4993   19.3800 H   0  0  0  0  0  0
  -22.8371  -29.2019   19.8135 H   0  0  0  0  0  0
  -25.1319  -36.1683   25.0781 H   0  0  0  0  0  0
  -21.0106  -28.3433   24.1278 H   0  0  0  0  0  0
  -20.5657  -26.2458   23.3693 H   0  0  0  0  0  0
  -21.6665  -26.7423   22.1239 H   0  0  0  0  0  0
  -19.6888  -25.6313   21.1311 H   0  0  0  0  0  0
  -19.6670  -27.3196   20.6738 H   0  0  0  0  0  0
  -17.4223  -26.6788   21.4044 H   0  0  0  0  0  0
  -18.0304  -26.0152   22.9050 H   0  0  0  0  0  0
  -19.7988  -30.7397   24.2188 H   0  0  0  0  0  0
  -17.5064  -31.6301   24.5220 H   0  0  0  0  0  0
  -15.5410  -30.3051   23.7682 H   0  0  0  0  0  0
  -15.8728  -28.0872   22.7121 H   0  0  0  0  0  0
  -24.5895  -30.7180   25.7723 H   0  0  0  0  0  0
  -24.8898  -32.3087   26.4544 H   0  0  0  0  0  0
  -25.7953  -30.9214   27.0240 H   0  0  0  0  0  0
  -26.3106  -29.6555   24.1409 H   0  0  0  0  0  0
  -27.3918  -29.7250   25.5120 H   0  0  0  0  0  0
  -27.9115  -30.4025   23.9918 H   0  0  0  0  0  0
  -27.2634  -33.3741   26.1813 H   0  0  0  0  0  0
  -28.4002  -32.6733   25.0390 H   0  0  0  0  0  0
  -28.0568  -31.8606   26.5567 H   0  0  0  0  0  0
  -28.2567  -38.0014   24.7517 H   0  0  0  0  0  0
  -28.1018  -36.2557   24.6292 H   0  0  0  0  0  0
  -27.2286  -37.1396   25.8881 H   0  0  0  0  0  0
  -20.9610  -29.8764   21.6613 H   0  0  0  0  0  0
  -26.0036  -38.2736   24.1483 H   0  0  0  0  0  0
  -28.9032  -23.3031   22.5319 H   0  0  0  0  0  0
  -28.7014  -21.0223   18.9046 H   0  0  0  0  0  0
  -27.5285  -21.5614   24.6649 H   0  0  0  0  0  0
  -28.4270  -20.7604   25.9424 H   0  0  0  0  0  0
  -27.8850  -19.8497   24.5370 H   0  0  0  0  0  0
  -29.3844  -23.2841   24.6701 H   0  0  0  0  0  0
  -31.0072  -22.8480   24.1292 H   0  0  0  0  0  0
  -30.4464  -22.4091   25.7307 H   0  0  0  0  0  0
  -30.3903  -19.0904   24.2376 H   0  0  0  0  0  0
  -30.9314  -20.1101   25.5517 H   0  0  0  0  0  0
  -31.6332  -20.3077   23.9493 H   0  0  0  0  0  0
  -26.9622  -23.9071   20.0013 H   0  0  0  0  0  0
  -28.2583  -24.0353   18.8870 H   0  0  0  0  0  0
  -29.7161  -18.3756   19.1021 H   0  0  0  0  0  0
  -28.6673  -16.4740   20.9831 H   0  0  0  0  0  0
  1 25  1  0  0  0
  1 30  2  0  0  0
  1 83  1  0  0  0
  2  3  1  0  0  0
  2 25  1  0  0  0
  2 84  1  0  0  0
  2 85  1  0  0  0
  3  4  1  0  0  0
  3 86  1  0  0  0
  3 87  1  0  0  0
  4  5  1  0  0  0
  4 88  1  0  0  0
  4 89  1  0  0  0
  5  6  1  0  0  0
  5 26  1  0  0  0
  5 90  1  0  0  0
  6 25  1  0  0  0
  6 91  1  0  0  0
  6 92  1  0  0  0
  7  8  2  0  0  0
  7 26  1  0  0  0
  7 29  1  0  0  0
  8  9  1  0  0  0
  8 22  1  0  0  0
  9 10  1  0  0  0
  9 27  2  0  0  0
 10 11  2  0  0  0
 10 15  1  0  0  0
 11 12  1  0  0  0
 11 93  1  0  0  0
 12 13  2  0  0  0
 12 94  1  0  0  0
 13 14  1  0  0  0
 13 31  1  0  0  0
 14 15  2  0  0  0
 14 95  1  0  0  0
 15 96  1  0  0  0
 16 17  2  0  0  0
 16 21  1  0  0  0
 16 31  1  0  0  0
 17 18  1  0  0  0
 17 97  1  0  0  0
 18 19  2  0  0  0
 18 98  1  0  0  0
 19 20  1  0  0  0
 19 24  1  0  0  0
 20 21  2  0  0  0
 20 99  1  0  0  0
 21 23  1  0  0  0
 22 28  1  0  0  0
 22 32  2  0  0  0
 26 27  1  0  0  0
 28100  1  0  0  0
 28101  1  0  0  0
 29102  1  0  0  0
 29103  1  0  0  0
 33 34  1  0  0  0
 33 66  1  0  0  0
 33 70  2  0  0  0
 34 36  1  0  0  0
 34 59  1  0  0  0
 34104  1  0  0  0
 35 44  2  0  0  0
 35 45  1  0  0  0
 35 68  1  0  0  0
 36 56  1  0  0  0
 36105  1  0  0  0
 37 39  1  0  0  0
 37 47  1  0  0  0
 37 66  1  0  0  0
 37106  1  0  0  0
 38 43  2  0  0  0
 38 46  1  0  0  0
 38 47  1  0  0  0
 39 64  1  0  0  0
 39 67  2  0  0  0
 40 52  1  0  0  0
 40 53  2  0  0  0
 40 58  1  0  0  0
 41107  1  0  0  0
 41108  1  0  0  0
 41109  1  0  0  0
 41 48  1  0  0  0
 42 43  1  0  0  0
 42 66  1  0  0  0
 42110  1  0  0  0
 42111  1  0  0  0
 43 44  1  0  0  0
 44112  1  0  0  0
 45 46  2  0  0  0
 45113  1  0  0  0
 46114  1  0  0  0
 47115  1  0  0  0
 47116  1  0  0  0
 48 56  1  0  0  0
 48 65  1  0  0  0
 48117  1  0  0  0
 49 50  1  0  0  0
 49 53  1  0  0  0
 49 64  1  0  0  0
 49118  1  0  0  0
 50 51  1  0  0  0
 50119  1  0  0  0
 50120  1  0  0  0
 51 52  1  0  0  0
 51121  1  0  0  0
 51122  1  0  0  0
 52123  1  0  0  0
 52124  1  0  0  0
 53 54  1  0  0  0
 54 55  2  0  0  0
 54125  1  0  0  0
 55 57  1  0  0  0
 55126  1  0  0  0
 56 69  2  0  0  0
 57 58  2  0  0  0
 57127  1  0  0  0
 58128  1  0  0  0
 59 60  1  0  0  0
 59 61  1  0  0  0
 59 62  1  0  0  0
 60129  1  0  0  0
 60130  1  0  0  0
 60131  1  0  0  0
 61132  1  0  0  0
 61133  1  0  0  0
 61134  1  0  0  0
 62135  1  0  0  0
 62136  1  0  0  0
 62137  1  0  0  0
 63 65  1  0  0  0
 63138  1  0  0  0
 63139  1  0  0  0
 63140  1  0  0  0
 64141  1  0  0  0
 65142  1  0  0  0
 68 79  1  0  0  0
 71 73  2  0  0  0
 71 74  1  0  0  0
 71143  1  0  0  0
 72 73  1  0  0  0
 72 75  2  0  0  0
 72144  1  0  0  0
 73 79  1  0  0  0
 74 80  1  0  0  0
 74 81  2  0  0  0
 75 81  1  0  0  0
 75 82  1  0  0  0
 76145  1  0  0  0
 76146  1  0  0  0
 76147  1  0  0  0
 76 80  1  0  0  0
 77 80  1  0  0  0
 77148  1  0  0  0
 77149  1  0  0  0
 77150  1  0  0  0
 78 80  1  0  0  0
 78151  1  0  0  0
 78152  1  0  0  0
 78153  1  0  0  0
 79154  1  0  0  0
 79155  1  0  0  0
 82 83  1  0  0  0
 82156  1  0  0  0
 83157  1  0  0  0
M  ISO  4   1 100  68 101  79 101  83 100
M  END
> <chiral flag>
0

> <version>
0

> <s_m_source_file>
/data/baiqing/PycharmProjects/Reinvent-master-3.2/result/LINK_invent/BTK/process_docking_weight1_custom_sum_contain_oxygen_bond_distance_aromatic_linkinvent_7_9_3/rearranged_h_0112.sdf

> <i_m_source_file_index>
86

> <r_mmod_Potential_Energy-OPLS-2005>
1269.26623535156

> <r_mmod_Stretch_Energy-OPLS-2005>
717.216552734375

> <r_mmod_Bend_Energy-OPLS-2005>
467.860778808594

> <r_mmod_Torsional_Energy-OPLS-2005>
220.503982543945

> <r_mmod_Improper_Torsional_Energy-OPLS-2005>
5.54877471923828

> <r_mmod_Van_der_Waal_Energy-OPLS-2005>
134.75862121582

> <r_mmod_Electrostatic_Energy-OPLS-2005>
-643.309875488281

> <r_mmod_Solvation_Energy-OPLS-2005>
-236.609481811523

> <b_mmod_Minimization_Converged-OPLS-2005>
0

> <r_mmod_RMS_Derivative-OPLS-2005>
4.32837343215942

$$$$
86
                    3D
 Structure written by MMmdl.
154162  0  0  1  0            999 V2000
  -30.4997  -14.9705   20.3880 C   0  0  0  0  0  0
  -30.4442  -12.6041   19.4890 C   0  0  0  0  0  0
  -29.5212  -12.5635   18.2474 C   0  0  0  0  0  0
  -28.0554  -12.3324   18.6648 C   0  0  0  0  0  0
  -27.6276  -13.2460   19.8431 C   0  0  2  0  0  0
  -28.6761  -13.2663   20.9758 C   0  0  0  0  0  0
  -25.2358  -13.8044   20.5739 C   0  0  0  0  0  0
  -24.1707  -13.0288   20.9254 C   0  0  0  0  0  0
  -24.6382  -11.6814   20.8758 C   0  0  0  0  0  0
  -23.9047  -10.4211   21.0402 C   0  0  0  0  0  0
  -24.3586   -9.4149   21.9191 C   0  0  0  0  0  0
  -23.6259   -8.2199   22.0758 C   0  0  0  0  0  0
  -22.4242   -8.0263   21.3562 C   0  0  0  0  0  0
  -21.9870   -9.0225   20.4654 C   0  0  0  0  0  0
  -22.7207  -10.2098   20.3063 C   0  0  0  0  0  0
  -21.6851   -6.0730   22.5298 C   0  0  0  0  0  0
  -21.4014   -6.5636   23.8217 C   0  0  0  0  0  0
  -21.3657   -5.6784   24.9178 C   0  0  0  0  0  0
  -21.6037   -4.3054   24.7218 C   0  0  0  0  0  0
  -21.8814   -3.8132   23.4338 C   0  0  0  0  0  0
  -21.9197   -4.6946   22.3405 C   0  0  0  0  0  0
  -22.7727  -13.5121   21.1897 C   0  0  0  0  0  0
  -22.1658   -4.2133   21.0977 F   0  0  0  0  0  0
  -21.5625   -3.4547   25.7728 F   0  0  0  0  0  0
  -29.9490  -13.6912   20.3755 N   0  0  0  0  0  0
  -26.2858  -12.9382   20.3262 N   0  0  0  0  0  0
  -25.9329  -11.6504   20.5692 N   0  0  0  0  0  0
  -22.0349  -12.8172   22.0455 N   0  0  0  0  0  0
  -25.3744  -15.1721   20.4186 N   0  0  0  0  0  0
  -31.7088  -15.0767   20.1498 O   0  0  0  0  0  0
  -21.6617   -6.8865   21.4258 O   0  0  0  0  0  0
  -22.3459  -14.5438   20.6699 O   0  0  0  0  0  0
  -24.6410  -31.8455   23.1883 C   0  0  0  0  0  0
  -25.9179  -32.4694   23.8280 C   0  0  1  0  0  0
  -27.2335  -27.1548   20.1257 C   0  0  0  0  0  0
  -25.5939  -33.8499   24.2192 N   0  0  0  0  0  0
  -23.4459  -30.4628   21.5345 C   0  0  2  0  0  0
  -24.8969  -28.8942   20.1067 C   0  0  0  0  0  0
  -22.7559  -29.4544   22.4861 C   0  0  0  0  0  0
  -18.0307  -28.1387   22.8483 C   0  0  0  0  0  0
  -24.1499  -36.7260   23.2652 C   0  0  0  0  0  0
  -26.0011  -30.7193   21.3900 C   0  0  0  0  0  0
  -26.0718  -29.3342   20.7271 C   0  0  0  0  0  0
  -27.2329  -28.4773   20.7281 C   0  0  0  0  0  0
  -26.0275  -26.8125   19.4716 C   0  0  0  0  0  0
  -24.8852  -27.6441   19.4715 C   0  0  0  0  0  0
  -23.6714  -29.7925   20.1536 C   0  0  0  0  0  0
  -25.4115  -36.3029   24.0324 C   0  0  1  0  0  0
  -20.5923  -28.3707   23.1241 C   0  0  2  0  0  0
  -20.6786  -26.9403   22.5417 C   0  0  0  0  0  0
  -19.5756  -26.6366   21.5228 C   0  0  0  0  0  0
  -18.1933  -26.7918   22.1638 C   0  0  0  0  0  0
  -19.1561  -28.8859   23.2853 C   0  0  0  0  0  0
  -18.9482  -30.1463   23.8867 C   0  0  0  0  0  0
  -17.6470  -30.6575   24.0561 C   0  0  0  0  0  0
  -25.9066  -34.9398   23.5065 C   0  0  0  0  0  0
  -16.5369  -29.9069   23.6335 C   0  0  0  0  0  0
  -16.7289  -28.6502   23.0338 C   0  0  0  0  0  0
  -26.4492  -31.6569   25.0723 C   0  0  0  0  0  0
  -25.3679  -31.3790   26.1431 C   0  0  0  0  0  0
  -27.0362  -30.2960   24.6338 C   0  0  0  0  0  0
  -27.6026  -32.4338   25.7490 C   0  0  0  0  0  0
  -27.5566  -37.1782   24.8444 C   0  0  0  0  0  0
  -21.4248  -29.3037   22.3606 N   0  0  0  0  0  0
  -26.4280  -37.3734   23.9401 N   0  0  0  0  0  0
  -24.7154  -31.0308   22.0925 N   0  0  0  0  0  0
  -23.4195  -28.8087   23.3009 O   0  0  0  0  0  0
  -28.3159  -26.2058   20.2279 O   0  0  0  0  0  0
  -26.5660  -34.8898   22.4651 O   0  0  0  0  0  0
  -23.5528  -32.1348   23.7109 O   0  0  0  0  0  0
  -30.7692  -18.5103   20.3476 C   0  0  0  0  0  0
  -30.6803  -19.9625   20.2389 C   0  0  0  0  0  0
  -28.3398  -19.8541   20.0928 C   0  0  0  0  0  0
  -28.4181  -18.4016   20.1536 C   0  0  0  0  0  0
  -29.6383  -17.6268   20.3167 C   0  0  0  0  0  0
  -29.4671  -20.7280   20.1165 C   0  0  0  0  0  0
  -27.1025  -17.6756   19.9743 C   0  0  0  0  0  0
  -29.3860  -24.9120   18.5067 C   0  0  0  0  0  0
  -28.6940  -23.3271   20.4542 C   0  0  0  0  0  0
  -28.3652  -24.7655   19.6431 C   0  0  1  0  0  0
  -29.6199  -16.0902   20.4515 N   0  0  0  0  0  0
  -29.4685  -22.1606   19.8254 O   0  0  0  0  0  0
  -31.4797  -12.7770   19.1853 H   0  0  0  0  0  0
  -30.4368  -11.6481   20.0112 H   0  0  0  0  0  0
  -29.8413  -11.7904   17.5490 H   0  0  0  0  0  0
  -29.6012  -13.5097   17.7071 H   0  0  0  0  0  0
  -27.9493  -11.2858   18.9486 H   0  0  0  0  0  0
  -27.3933  -12.4904   17.8140 H   0  0  0  0  0  0
  -27.5843  -14.2491   19.4250 H   0  0  0  0  0  0
  -28.7712  -12.2840   21.4402 H   0  0  0  0  0  0
  -28.3754  -13.9571   21.7674 H   0  0  0  0  0  0
  -25.2734   -9.5634   22.4759 H   0  0  0  0  0  0
  -23.9987   -7.4578   22.7465 H   0  0  0  0  0  0
  -21.0811   -8.8725   19.8957 H   0  0  0  0  0  0
  -22.3660  -10.9632   19.6166 H   0  0  0  0  0  0
  -21.2010   -7.6140   23.9717 H   0  0  0  0  0  0
  -21.1493   -6.0512   25.9079 H   0  0  0  0  0  0
  -22.0593   -2.7590   23.2838 H   0  0  0  0  0  0
  -22.3962  -11.9869   22.4929 H   0  0  0  0  0  0
  -21.0964  -13.1232   22.2622 H   0  0  0  0  0  0
  -24.5722  -15.7844   20.5156 H   0  0  0  0  0  0
  -26.1852  -15.6366   20.0383 H   0  0  0  0  0  0
  -26.7244  -32.5287   23.1007 H   0  0  0  0  0  0
  -24.9994  -33.9608   25.0281 H   0  0  0  0  0  0
  -22.7485  -31.2879   21.3789 H   0  0  0  0  0  0
  -23.3760  -35.9595   23.3275 H   0  0  0  0  0  0
  -24.3611  -36.8926   22.2078 H   0  0  0  0  0  0
  -23.7253  -37.6449   23.6711 H   0  0  0  0  0  0
  -26.1619  -31.4792   20.6245 H   0  0  0  0  0  0
  -26.8685  -30.7655   22.0360 H   0  0  0  0  0  0
  -28.1219  -28.8087   21.2462 H   0  0  0  0  0  0
  -25.9079  -25.8647   18.9729 H   0  0  0  0  0  0
  -23.9830  -27.2969   18.9872 H   0  0  0  0  0  0
  -23.8010  -30.5678   19.3980 H   0  0  0  0  0  0
  -22.7873  -29.2321   19.8450 H   0  0  0  0  0  0
  -25.1307  -36.1864   25.0820 H   0  0  0  0  0  0
  -21.0018  -28.3303   24.1364 H   0  0  0  0  0  0
  -20.5680  -26.2312   23.3635 H   0  0  0  0  0  0
  -21.6645  -26.7386   22.1209 H   0  0  0  0  0  0
  -19.6899  -25.6276   21.1250 H   0  0  0  0  0  0
  -19.6679  -27.3187   20.6766 H   0  0  0  0  0  0
  -17.4194  -26.6665   21.4046 H   0  0  0  0  0  0
  -18.0312  -26.0072   22.9045 H   0  0  0  0  0  0
  -19.7951  -30.7294   24.2202 H   0  0  0  0  0  0
  -17.5022  -31.6247   24.5172 H   0  0  0  0  0  0
  -15.5365  -30.2951   23.7668 H   0  0  0  0  0  0
  -15.8700  -28.0816   22.7037 H   0  0  0  0  0  0
  -24.5763  -30.7260   25.7743 H   0  0  0  0  0  0
  -24.8985  -32.3002   26.4899 H   0  0  0  0  0  0
  -25.7941  -30.8883   27.0189 H   0  0  0  0  0  0
  -26.2999  -29.6674   24.1324 H   0  0  0  0  0  0
  -27.3926  -29.7280   25.4942 H   0  0  0  0  0  0
  -27.8915  -30.4178   23.9691 H   0  0  0  0  0  0
  -27.2600  -33.3622   26.2071 H   0  0  0  0  0  0
  -28.3814  -32.6942   25.0309 H   0  0  0  0  0  0
  -28.0714  -31.8476   26.5404 H   0  0  0  0  0  0
  -28.2571  -38.0094   24.7497 H   0  0  0  0  0  0
  -28.1083  -36.2622   24.6253 H   0  0  0  0  0  0
  -27.2289  -37.1387   25.8852 H   0  0  0  0  0  0
  -20.9441  -29.8777   21.6818 H   0  0  0  0  0  0
  -26.0144  -38.2809   24.1415 H   0  0  0  0  0  0
  -31.7539  -18.0747   20.4432 H   0  0  0  0  0  0
  -31.6095  -20.5134   20.2343 H   0  0  0  0  0  0
  -27.3706  -20.3133   19.9479 H   0  0  0  0  0  0
  -26.3860  -18.2779   19.4082 H   0  0  0  0  0  0
  -26.6629  -17.4587   20.9495 H   0  0  0  0  0  0
  -27.2504  -16.7580   19.4035 H   0  0  0  0  0  0
  -29.4093  -24.0193   17.8816 H   0  0  0  0  0  0
  -30.3904  -25.0608   18.9011 H   0  0  0  0  0  0
  -29.1512  -25.7578   17.8585 H   0  0  0  0  0  0
  -27.7598  -22.9402   20.8618 H   0  0  0  0  0  0
  -29.2857  -23.6037   21.3270 H   0  0  0  0  0  0
  -27.4254  -24.5554   19.1466 H   0  0  0  0  0  0
  -28.6802  -15.7450   20.5717 H   0  0  0  0  0  0
  1 25  1  0  0  0
  1 30  2  0  0  0
  1 81  1  0  0  0
  2  3  1  0  0  0
  2 25  1  0  0  0
  2 83  1  0  0  0
  2 84  1  0  0  0
  3  4  1  0  0  0
  3 85  1  0  0  0
  3 86  1  0  0  0
  4  5  1  0  0  0
  4 87  1  0  0  0
  4 88  1  0  0  0
  5  6  1  0  0  0
  5 26  1  0  0  0
  5 89  1  0  0  0
  6 25  1  0  0  0
  6 90  1  0  0  0
  6 91  1  0  0  0
  7  8  2  0  0  0
  7 26  1  0  0  0
  7 29  1  0  0  0
  8  9  1  0  0  0
  8 22  1  0  0  0
  9 10  1  0  0  0
  9 27  2  0  0  0
 10 11  2  0  0  0
 10 15  1  0  0  0
 11 12  1  0  0  0
 11 92  1  0  0  0
 12 13  2  0  0  0
 12 93  1  0  0  0
 13 14  1  0  0  0
 13 31  1  0  0  0
 14 15  2  0  0  0
 14 94  1  0  0  0
 15 95  1  0  0  0
 16 17  2  0  0  0
 16 21  1  0  0  0
 16 31  1  0  0  0
 17 18  1  0  0  0
 17 96  1  0  0  0
 18 19  2  0  0  0
 18 97  1  0  0  0
 19 20  1  0  0  0
 19 24  1  0  0  0
 20 21  2  0  0  0
 20 98  1  0  0  0
 21 23  1  0  0  0
 22 28  1  0  0  0
 22 32  2  0  0  0
 26 27  1  0  0  0
 28 99  1  0  0  0
 28100  1  0  0  0
 29101  1  0  0  0
 29102  1  0  0  0
 33 34  1  0  0  0
 33 66  1  0  0  0
 33 70  2  0  0  0
 34 36  1  0  0  0
 34 59  1  0  0  0
 34103  1  0  0  0
 35 44  2  0  0  0
 35 45  1  0  0  0
 35 68  1  0  0  0
 36 56  1  0  0  0
 36104  1  0  0  0
 37 39  1  0  0  0
 37 47  1  0  0  0
 37 66  1  0  0  0
 37105  1  0  0  0
 38 43  2  0  0  0
 38 46  1  0  0  0
 38 47  1  0  0  0
 39 64  1  0  0  0
 39 67  2  0  0  0
 40 52  1  0  0  0
 40 53  2  0  0  0
 40 58  1  0  0  0
 41106  1  0  0  0
 41107  1  0  0  0
 41108  1  0  0  0
 41 48  1  0  0  0
 42 43  1  0  0  0
 42 66  1  0  0  0
 42109  1  0  0  0
 42110  1  0  0  0
 43 44  1  0  0  0
 44111  1  0  0  0
 45 46  2  0  0  0
 45112  1  0  0  0
 46113  1  0  0  0
 47114  1  0  0  0
 47115  1  0  0  0
 48 56  1  0  0  0
 48 65  1  0  0  0
 48116  1  0  0  0
 49 50  1  0  0  0
 49 53  1  0  0  0
 49 64  1  0  0  0
 49117  1  0  0  0
 50 51  1  0  0  0
 50118  1  0  0  0
 50119  1  0  0  0
 51 52  1  0  0  0
 51120  1  0  0  0
 51121  1  0  0  0
 52122  1  0  0  0
 52123  1  0  0  0
 53 54  1  0  0  0
 54 55  2  0  0  0
 54124  1  0  0  0
 55 57  1  0  0  0
 55125  1  0  0  0
 56 69  2  0  0  0
 57 58  2  0  0  0
 57126  1  0  0  0
 58127  1  0  0  0
 59 60  1  0  0  0
 59 61  1  0  0  0
 59 62  1  0  0  0
 60128  1  0  0  0
 60129  1  0  0  0
 60130  1  0  0  0
 61131  1  0  0  0
 61132  1  0  0  0
 61133  1  0  0  0
 62134  1  0  0  0
 62135  1  0  0  0
 62136  1  0  0  0
 63 65  1  0  0  0
 63137  1  0  0  0
 63138  1  0  0  0
 63139  1  0  0  0
 64140  1  0  0  0
 65141  1  0  0  0
 68 80  1  0  0  0
 71 72  2  0  0  0
 71 75  1  0  0  0
 71142  1  0  0  0
 72 76  1  0  0  0
 72143  1  0  0  0
 73 74  1  0  0  0
 73 76  2  0  0  0
 73144  1  0  0  0
 74 75  2  0  0  0
 74 77  1  0  0  0
 75 81  1  0  0  0
 76 82  1  0  0  0
 77145  1  0  0  0
 77146  1  0  0  0
 77147  1  0  0  0
 78148  1  0  0  0
 78149  1  0  0  0
 78150  1  0  0  0
 78 80  1  0  0  0
 79 80  1  0  0  0
 79 82  1  0  0  0
 79151  1  0  0  0
 79152  1  0  0  0
 80153  1  0  0  0
 81154  1  0  0  0
M  ISO  4   1 100  68 101  80 101  81 100
M  END
> <chiral flag>
0

> <version>
0

> <s_m_source_file>
/data/baiqing/PycharmProjects/Reinvent-master-3.2/result/LINK_invent/BTK/process_docking_weight1_custom_sum_contain_oxygen_bond_distance_aromatic_linkinvent_7_9_3/rearranged_h_0112.sdf

> <i_m_source_file_index>
87

> <r_mmod_Potential_Energy-OPLS-2005>
488.959167480469

> <r_mmod_Stretch_Energy-OPLS-2005>
225.652816772461

> <r_mmod_Bend_Energy-OPLS-2005>
287.985656738281

> <r_mmod_Torsional_Energy-OPLS-2005>
240.101959228516

> <r_mmod_Improper_Torsional_Energy-OPLS-2005>
6.79604816436768

> <r_mmod_Van_der_Waal_Energy-OPLS-2005>
133.862899780273

> <r_mmod_Electrostatic_Energy-OPLS-2005>
-392.151214599609

> <r_mmod_Solvation_Energy-OPLS-2005>
-208.440826416016

> <b_mmod_Minimization_Converged-OPLS-2005>
0

> <r_mmod_RMS_Derivative-OPLS-2005>
4.19355869293213

$$$$
87
                    3D
 Structure written by MMmdl.
162170  0  0  1  0            999 V2000
  -30.4065  -15.3696   20.3666 C   0  0  0  0  0  0
  -30.4339  -12.8891   19.5268 C   0  0  0  0  0  0
  -29.5378  -12.6003   18.2948 C   0  0  0  0  0  0
  -28.0935  -12.2996   18.7284 C   0  0  0  0  0  0
  -27.6042  -13.2856   19.8168 C   0  0  2  0  0  0
  -28.6340  -13.5095   20.9453 C   0  0  0  0  0  0
  -25.2356  -13.8259   20.5756 C   0  0  0  0  0  0
  -24.1725  -13.0433   20.9273 C   0  0  0  0  0  0
  -24.6400  -11.6935   20.8767 C   0  0  0  0  0  0
  -23.9101  -10.4292   21.0403 C   0  0  0  0  0  0
  -24.3642   -9.4204   21.9184 C   0  0  0  0  0  0
  -23.6309   -8.2242   22.0752 C   0  0  0  0  0  0
  -22.4291   -8.0284   21.3543 C   0  0  0  0  0  0
  -21.9933   -9.0258   20.4644 C   0  0  0  0  0  0
  -22.7270  -10.2132   20.3053 C   0  0  0  0  0  0
  -21.6859   -6.0739   22.5280 C   0  0  0  0  0  0
  -21.4019   -6.5642   23.8214 C   0  0  0  0  0  0
  -21.3659   -5.6794   24.9175 C   0  0  0  0  0  0
  -21.6042   -4.3058   24.7225 C   0  0  0  0  0  0
  -21.8820   -3.8152   23.4346 C   0  0  0  0  0  0
  -21.9195   -4.6969   22.3404 C   0  0  0  0  0  0
  -22.7742  -13.5177   21.1919 C   0  0  0  0  0  0
  -22.1660   -4.2155   21.0980 F   0  0  0  0  0  0
  -21.5628   -3.4538   25.7736 F   0  0  0  0  0  0
  -29.8483  -14.0493   20.3068 N   0  0  0  0  0  0
  -26.2786  -12.9551   20.3211 N   0  0  0  0  0  0
  -25.9339  -11.6646   20.5714 N   0  0  0  0  0  0
  -22.0404  -12.8149   22.0470 N   0  0  0  0  0  0
  -25.3976  -15.1995   20.4188 N   0  0  0  0  0  0
  -31.6350  -15.3428   20.1927 O   0  0  0  0  0  0
  -21.6650   -6.8884   21.4244 O   0  0  0  0  0  0
  -22.3412  -14.5476   20.6761 O   0  0  0  0  0  0
  -24.6699  -31.8177   23.1655 C   0  0  0  0  0  0
  -25.9351  -32.4559   23.8143 C   0  0  1  0  0  0
  -27.2157  -26.8557   20.2015 C   0  0  0  0  0  0
  -25.5992  -33.8375   24.2044 N   0  0  0  0  0  0
  -23.4876  -30.4267   21.5175 C   0  0  2  0  0  0
  -24.9419  -28.7997   20.1203 C   0  0  0  0  0  0
  -22.7700  -29.4406   22.4769 C   0  0  0  0  0  0
  -18.0325  -28.1408   22.8456 C   0  0  0  0  0  0
  -24.1494  -36.7190   23.2647 C   0  0  0  0  0  0
  -26.0617  -30.6014   21.4068 C   0  0  0  0  0  0
  -26.1299  -29.1822   20.7566 C   0  0  0  0  0  0
  -27.2627  -28.2357   20.7662 C   0  0  0  0  0  0
  -25.9976  -26.6474   19.5133 C   0  0  0  0  0  0
  -24.9057  -27.5540   19.4764 C   0  0  0  0  0  0
  -23.7324  -29.7374   20.1474 C   0  0  0  0  0  0
  -25.4140  -36.2950   24.0291 C   0  0  1  0  0  0
  -20.5952  -28.3759   23.1170 C   0  0  2  0  0  0
  -20.6796  -26.9433   22.5398 C   0  0  0  0  0  0
  -19.5772  -26.6371   21.5207 C   0  0  0  0  0  0
  -18.1955  -26.7939   22.1615 C   0  0  0  0  0  0
  -19.1588  -28.8906   23.2797 C   0  0  0  0  0  0
  -18.9497  -30.1492   23.8836 C   0  0  0  0  0  0
  -17.6488  -30.6594   24.0550 C   0  0  0  0  0  0
  -25.9111  -34.9334   23.4991 C   0  0  0  0  0  0
  -16.5378  -29.9077   23.6343 C   0  0  0  0  0  0
  -16.7307  -28.6498   23.0362 C   0  0  0  0  0  0
  -26.4578  -31.6527   25.0697 C   0  0  0  0  0  0
  -25.3687  -31.3792   26.1338 C   0  0  0  0  0  0
  -27.0482  -30.2882   24.6479 C   0  0  0  0  0  0
  -27.6053  -32.4352   25.7512 C   0  0  0  0  0  0
  -27.5568  -37.1755   24.8465 C   0  0  0  0  0  0
  -21.4362  -29.3041   22.3520 N   0  0  0  0  0  0
  -26.4279  -37.3694   23.9406 N   0  0  0  0  0  0
  -24.7618  -30.9771   22.0832 N   0  0  0  0  0  0
  -23.4216  -28.7985   23.3043 O   0  0  0  0  0  0
  -28.1953  -25.7021   20.2146 O   0  0  0  0  0  0
  -26.5726  -34.8881   22.4591 O   0  0  0  0  0  0
  -23.5753  -32.1180   23.6702 O   0  0  0  0  0  0
  -29.4056  -21.3258   20.7677 C   0  0  0  0  0  0
  -28.4730  -22.4322   20.2324 C   0  0  0  0  0  0
  -29.2097  -19.9314   20.3190 C   0  0  0  0  0  0
  -27.6498  -24.1514   22.0929 C   0  0  0  0  0  0
  -24.8220  -18.3217   17.1175 C   0  0  0  0  0  0
  -27.0207  -17.4139   16.2275 C   0  0  0  0  0  0
  -30.0169  -18.3380   20.4877 C   0  0  0  0  0  0
  -26.9579  -19.7274   17.3376 C   0  0  0  0  0  0
  -27.3069  -19.2856   18.7742 C   0  0  0  0  0  0
  -27.8551  -24.0970   20.5757 C   0  0  1  0  0  0
  -26.1883  -18.6760   16.5077 C   0  0  0  0  0  0
  -27.7039  -21.6069   19.4843 N   0  0  0  0  0  0
  -28.1099  -20.2524   19.5091 N   0  0  0  0  0  0
  -29.6586  -16.6765   20.4285 N   0  0  0  0  0  0
  -31.4452  -13.1120   19.1842 H   0  0  0  0  0  0
  -30.5294  -12.0023   20.1553 H   0  0  0  0  0  0
  -29.9396  -11.7674   17.7166 H   0  0  0  0  0  0
  -29.5456  -13.4670   17.6320 H   0  0  0  0  0  0
  -28.0721  -11.2824   19.1215 H   0  0  0  0  0  0
  -27.4235  -12.3110   17.8680 H   0  0  0  0  0  0
  -27.5022  -14.2389   19.2963 H   0  0  0  0  0  0
  -28.8294  -12.5914   21.5008 H   0  0  0  0  0  0
  -28.2524  -14.2337   21.6668 H   0  0  0  0  0  0
  -25.2783   -9.5684   22.4766 H   0  0  0  0  0  0
  -24.0022   -7.4631   22.7465 H   0  0  0  0  0  0
  -21.0868   -8.8777   19.8943 H   0  0  0  0  0  0
  -22.3728  -10.9674   19.6162 H   0  0  0  0  0  0
  -21.2013   -7.6149   23.9721 H   0  0  0  0  0  0
  -21.1480   -6.0522   25.9079 H   0  0  0  0  0  0
  -22.0600   -2.7615   23.2845 H   0  0  0  0  0  0
  -22.4042  -11.9827   22.4870 H   0  0  0  0  0  0
  -21.1006  -13.1141   22.2657 H   0  0  0  0  0  0
  -24.6231  -15.8449   20.5272 H   0  0  0  0  0  0
  -26.2321  -15.6402   20.0577 H   0  0  0  0  0  0
  -26.7424  -32.5081   23.0858 H   0  0  0  0  0  0
  -25.0087  -33.9450   25.0159 H   0  0  0  0  0  0
  -22.8042  -31.2599   21.3412 H   0  0  0  0  0  0
  -23.3773  -35.9502   23.3277 H   0  0  0  0  0  0
  -24.3564  -36.8875   22.2068 H   0  0  0  0  0  0
  -23.7236  -37.6359   23.6732 H   0  0  0  0  0  0
  -26.2479  -31.3362   20.6223 H   0  0  0  0  0  0
  -26.9195  -30.6641   22.0643 H   0  0  0  0  0  0
  -28.1640  -28.5337   21.2833 H   0  0  0  0  0  0
  -25.8578  -25.7039   19.0060 H   0  0  0  0  0  0
  -24.0072  -27.2560   18.9532 H   0  0  0  0  0  0
  -23.8959  -30.5033   19.3884 H   0  0  0  0  0  0
  -22.8402  -29.1965   19.8267 H   0  0  0  0  0  0
  -25.1342  -36.1736   25.0781 H   0  0  0  0  0  0
  -21.0031  -28.3366   24.1298 H   0  0  0  0  0  0
  -20.5660  -26.2380   23.3646 H   0  0  0  0  0  0
  -21.6660  -26.7393   22.1216 H   0  0  0  0  0  0
  -19.6933  -25.6266   21.1275 H   0  0  0  0  0  0
  -19.6713  -27.3149   20.6711 H   0  0  0  0  0  0
  -17.4224  -26.6675   21.4022 H   0  0  0  0  0  0
  -18.0354  -26.0095   22.9025 H   0  0  0  0  0  0
  -19.7972  -30.7322   24.2181 H   0  0  0  0  0  0
  -17.5039  -31.6269   24.5162 H   0  0  0  0  0  0
  -15.5375  -30.2960   23.7702 H   0  0  0  0  0  0
  -15.8706  -28.0797   22.7114 H   0  0  0  0  0  0
  -24.5895  -30.7116   25.7642 H   0  0  0  0  0  0
  -24.8850  -32.2996   26.4616 H   0  0  0  0  0  0
  -25.7905  -30.9057   27.0213 H   0  0  0  0  0  0
  -26.3162  -29.6543   24.1461 H   0  0  0  0  0  0
  -27.3958  -29.7265   25.5160 H   0  0  0  0  0  0
  -27.9128  -30.4038   23.9940 H   0  0  0  0  0  0
  -27.2610  -33.3708   26.1933 H   0  0  0  0  0  0
  -28.3951  -32.6828   25.0406 H   0  0  0  0  0  0
  -28.0626  -31.8585   26.5562 H   0  0  0  0  0  0
  -28.2561  -38.0072   24.7514 H   0  0  0  0  0  0
  -28.1088  -36.2596   24.6293 H   0  0  0  0  0  0
  -27.2280  -37.1395   25.8866 H   0  0  0  0  0  0
  -20.9634  -29.8731   21.6637 H   0  0  0  0  0  0
  -26.0119  -38.2746   24.1422 H   0  0  0  0  0  0
  -30.1729  -21.5542   21.4940 H   0  0  0  0  0  0
  -27.1059  -23.2734   22.4414 H   0  0  0  0  0  0
  -27.0808  -25.0303   22.3942 H   0  0  0  0  0  0
  -28.6084  -24.1759   22.6103 H   0  0  0  0  0  0
  -24.2454  -17.6868   16.4438 H   0  0  0  0  0  0
  -24.2290  -19.2171   17.3074 H   0  0  0  0  0  0
  -24.9250  -17.7833   18.0602 H   0  0  0  0  0  0
  -26.5066  -16.7564   15.5255 H   0  0  0  0  0  0
  -27.2069  -16.8366   17.1333 H   0  0  0  0  0  0
  -27.9857  -17.6670   15.7872 H   0  0  0  0  0  0
  -30.5232  -18.4080   21.4506 H   0  0  0  0  0  0
  -30.8435  -18.3964   19.7792 H   0  0  0  0  0  0
  -27.8771  -19.9934   16.8139 H   0  0  0  0  0  0
  -26.3649  -20.6424   17.3757 H   0  0  0  0  0  0
  -27.8512  -18.3428   18.7498 H   0  0  0  0  0  0
  -26.3995  -19.1037   19.3508 H   0  0  0  0  0  0
  -26.8459  -24.0415   20.1699 H   0  0  0  0  0  0
  -25.9880  -19.1385   15.5395 H   0  0  0  0  0  0
  -28.6657  -16.5126   20.4960 H   0  0  0  0  0  0
  1 25  1  0  0  0
  1 30  2  0  0  0
  1 84  1  0  0  0
  2  3  1  0  0  0
  2 25  1  0  0  0
  2 85  1  0  0  0
  2 86  1  0  0  0
  3  4  1  0  0  0
  3 87  1  0  0  0
  3 88  1  0  0  0
  4  5  1  0  0  0
  4 89  1  0  0  0
  4 90  1  0  0  0
  5  6  1  0  0  0
  5 26  1  0  0  0
  5 91  1  0  0  0
  6 25  1  0  0  0
  6 92  1  0  0  0
  6 93  1  0  0  0
  7  8  2  0  0  0
  7 26  1  0  0  0
  7 29  1  0  0  0
  8  9  1  0  0  0
  8 22  1  0  0  0
  9 10  1  0  0  0
  9 27  2  0  0  0
 10 11  2  0  0  0
 10 15  1  0  0  0
 11 12  1  0  0  0
 11 94  1  0  0  0
 12 13  2  0  0  0
 12 95  1  0  0  0
 13 14  1  0  0  0
 13 31  1  0  0  0
 14 15  2  0  0  0
 14 96  1  0  0  0
 15 97  1  0  0  0
 16 17  2  0  0  0
 16 21  1  0  0  0
 16 31  1  0  0  0
 17 18  1  0  0  0
 17 98  1  0  0  0
 18 19  2  0  0  0
 18 99  1  0  0  0
 19 20  1  0  0  0
 19 24  1  0  0  0
 20 21  2  0  0  0
 20100  1  0  0  0
 21 23  1  0  0  0
 22 28  1  0  0  0
 22 32  2  0  0  0
 26 27  1  0  0  0
 28101  1  0  0  0
 28102  1  0  0  0
 29103  1  0  0  0
 29104  1  0  0  0
 33 34  1  0  0  0
 33 66  1  0  0  0
 33 70  2  0  0  0
 34 36  1  0  0  0
 34 59  1  0  0  0
 34105  1  0  0  0
 35 44  2  0  0  0
 35 45  1  0  0  0
 35 68  1  0  0  0
 36 56  1  0  0  0
 36106  1  0  0  0
 37 39  1  0  0  0
 37 47  1  0  0  0
 37 66  1  0  0  0
 37107  1  0  0  0
 38 43  2  0  0  0
 38 46  1  0  0  0
 38 47  1  0  0  0
 39 64  1  0  0  0
 39 67  2  0  0  0
 40 52  1  0  0  0
 40 53  2  0  0  0
 40 58  1  0  0  0
 41108  1  0  0  0
 41109  1  0  0  0
 41110  1  0  0  0
 41 48  1  0  0  0
 42 43  1  0  0  0
 42 66  1  0  0  0
 42111  1  0  0  0
 42112  1  0  0  0
 43 44  1  0  0  0
 44113  1  0  0  0
 45 46  2  0  0  0
 45114  1  0  0  0
 46115  1  0  0  0
 47116  1  0  0  0
 47117  1  0  0  0
 48 56  1  0  0  0
 48 65  1  0  0  0
 48118  1  0  0  0
 49 50  1  0  0  0
 49 53  1  0  0  0
 49 64  1  0  0  0
 49119  1  0  0  0
 50 51  1  0  0  0
 50120  1  0  0  0
 50121  1  0  0  0
 51 52  1  0  0  0
 51122  1  0  0  0
 51123  1  0  0  0
 52124  1  0  0  0
 52125  1  0  0  0
 53 54  1  0  0  0
 54 55  2  0  0  0
 54126  1  0  0  0
 55 57  1  0  0  0
 55127  1  0  0  0
 56 69  2  0  0  0
 57 58  2  0  0  0
 57128  1  0  0  0
 58129  1  0  0  0
 59 60  1  0  0  0
 59 61  1  0  0  0
 59 62  1  0  0  0
 60130  1  0  0  0
 60131  1  0  0  0
 60132  1  0  0  0
 61133  1  0  0  0
 61134  1  0  0  0
 61135  1  0  0  0
 62136  1  0  0  0
 62137  1  0  0  0
 62138  1  0  0  0
 63 65  1  0  0  0
 63139  1  0  0  0
 63140  1  0  0  0
 63141  1  0  0  0
 64142  1  0  0  0
 65143  1  0  0  0
 68 80  1  0  0  0
 71 72  1  0  0  0
 71 73  2  0  0  0
 71144  1  0  0  0
 72 80  1  0  0  0
 72 82  2  0  0  0
 73 77  1  0  0  0
 73 83  1  0  0  0
 74145  1  0  0  0
 74146  1  0  0  0
 74147  1  0  0  0
 74 80  1  0  0  0
 75148  1  0  0  0
 75149  1  0  0  0
 75150  1  0  0  0
 75 81  1  0  0  0
 76 81  1  0  0  0
 76151  1  0  0  0
 76152  1  0  0  0
 76153  1  0  0  0
 77 84  1  0  0  0
 77154  1  0  0  0
 77155  1  0  0  0
 78 79  1  0  0  0
 78 81  1  0  0  0
 78156  1  0  0  0
 78157  1  0  0  0
 79 83  1  0  0  0
 79158  1  0  0  0
 79159  1  0  0  0
 80160  1  0  0  0
 81161  1  0  0  0
 82 83  1  0  0  0
 84162  1  0  0  0
M  ISO  4   1 100  68 101  80 101  84 100
M  END
> <chiral flag>
0

> <version>
0

> <s_m_source_file>
/data/baiqing/PycharmProjects/Reinvent-master-3.2/result/LINK_invent/BTK/process_docking_weight1_custom_sum_contain_oxygen_bond_distance_aromatic_linkinvent_7_9_3/rearranged_h_0112.sdf

> <i_m_source_file_index>
88

> <r_mmod_Potential_Energy-OPLS-2005>
1506.07092285156

> <r_mmod_Stretch_Energy-OPLS-2005>
684.907653808594

> <r_mmod_Bend_Energy-OPLS-2005>
523.493591308594

> <r_mmod_Torsional_Energy-OPLS-2005>
245.00732421875

> <r_mmod_Improper_Torsional_Energy-OPLS-2005>
6.37497711181641

> <r_mmod_Van_der_Waal_Energy-OPLS-2005>
100.374496459961

> <r_mmod_Electrostatic_Energy-OPLS-2005>
-409.259124755859

> <r_mmod_Solvation_Energy-OPLS-2005>
-218.331436157227

> <b_mmod_Minimization_Converged-OPLS-2005>
0

> <r_mmod_RMS_Derivative-OPLS-2005>
0.674932062625885

$$$$
88
                    3D
 Structure written by MMmdl.
154162  0  0  1  0            999 V2000
  -30.4094  -15.3868   20.3574 C   0  0  0  0  0  0
  -30.4369  -12.9022   19.5111 C   0  0  0  0  0  0
  -29.5364  -12.5884   18.2886 C   0  0  0  0  0  0
  -28.0969  -12.2833   18.7351 C   0  0  0  0  0  0
  -27.6051  -13.2816   19.8110 C   0  0  2  0  0  0
  -28.6391  -13.5250   20.9311 C   0  0  0  0  0  0
  -25.2385  -13.8242   20.5772 C   0  0  0  0  0  0
  -24.1747  -13.0423   20.9274 C   0  0  0  0  0  0
  -24.6410  -11.6927   20.8776 C   0  0  0  0  0  0
  -23.9104  -10.4285   21.0418 C   0  0  0  0  0  0
  -24.3645   -9.4194   21.9191 C   0  0  0  0  0  0
  -23.6304   -8.2241   22.0757 C   0  0  0  0  0  0
  -22.4280   -8.0285   21.3550 C   0  0  0  0  0  0
  -21.9931   -9.0266   20.4652 C   0  0  0  0  0  0
  -22.7279  -10.2135   20.3064 C   0  0  0  0  0  0
  -21.6853   -6.0746   22.5289 C   0  0  0  0  0  0
  -21.4016   -6.5645   23.8223 C   0  0  0  0  0  0
  -21.3655   -5.6794   24.9182 C   0  0  0  0  0  0
  -21.6039   -4.3058   24.7225 C   0  0  0  0  0  0
  -21.8814   -3.8156   23.4344 C   0  0  0  0  0  0
  -21.9188   -4.6975   22.3405 C   0  0  0  0  0  0
  -22.7758  -13.5182   21.1912 C   0  0  0  0  0  0
  -22.1660   -4.2164   21.0982 F   0  0  0  0  0  0
  -21.5621   -3.4536   25.7735 F   0  0  0  0  0  0
  -29.8446  -14.0692   20.2760 N   0  0  0  0  0  0
  -26.2808  -12.9529   20.3213 N   0  0  0  0  0  0
  -25.9345  -11.6623   20.5713 N   0  0  0  0  0  0
  -22.0411  -12.8172   22.0463 N   0  0  0  0  0  0
  -25.3998  -15.1985   20.4236 N   0  0  0  0  0  0
  -31.6451  -15.3469   20.2498 O   0  0  0  0  0  0
  -21.6636   -6.8892   21.4252 O   0  0  0  0  0  0
  -22.3446  -14.5483   20.6749 O   0  0  0  0  0  0
  -24.6721  -31.8152   23.1646 C   0  0  0  0  0  0
  -25.9360  -32.4549   23.8141 C   0  0  1  0  0  0
  -27.2186  -26.8466   20.1933 C   0  0  0  0  0  0
  -25.5988  -33.8367   24.2039 N   0  0  0  0  0  0
  -23.4904  -30.4244   21.5169 C   0  0  2  0  0  0
  -24.9443  -28.7958   20.1182 C   0  0  0  0  0  0
  -22.7703  -29.4406   22.4762 C   0  0  0  0  0  0
  -18.0333  -28.1426   22.8461 C   0  0  0  0  0  0
  -24.1498  -36.7191   23.2650 C   0  0  0  0  0  0
  -26.0647  -30.5948   21.4077 C   0  0  0  0  0  0
  -26.1324  -29.1757   20.7544 C   0  0  0  0  0  0
  -27.2637  -28.2260   20.7623 C   0  0  0  0  0  0
  -25.9982  -26.6417   19.5070 C   0  0  0  0  0  0
  -24.9070  -27.5502   19.4723 C   0  0  0  0  0  0
  -23.7350  -29.7342   20.1470 C   0  0  0  0  0  0
  -25.4138  -36.2940   24.0292 C   0  0  1  0  0  0
  -20.5963  -28.3777   23.1178 C   0  0  2  0  0  0
  -20.6808  -26.9451   22.5407 C   0  0  0  0  0  0
  -19.5782  -26.6384   21.5222 C   0  0  0  0  0  0
  -18.1965  -26.7957   22.1624 C   0  0  0  0  0  0
  -19.1597  -28.8921   23.2804 C   0  0  0  0  0  0
  -18.9500  -30.1507   23.8847 C   0  0  0  0  0  0
  -17.6491  -30.6609   24.0559 C   0  0  0  0  0  0
  -25.9106  -34.9327   23.4988 C   0  0  0  0  0  0
  -16.5382  -29.9094   23.6349 C   0  0  0  0  0  0
  -16.7312  -28.6515   23.0364 C   0  0  0  0  0  0
  -26.4575  -31.6524   25.0703 C   0  0  0  0  0  0
  -25.3675  -31.3805   26.1340 C   0  0  0  0  0  0
  -27.0481  -30.2880   24.6497 C   0  0  0  0  0  0
  -27.6049  -32.4350   25.7514 C   0  0  0  0  0  0
  -27.5564  -37.1753   24.8462 C   0  0  0  0  0  0
  -21.4367  -29.3048   22.3510 N   0  0  0  0  0  0
  -26.4277  -37.3680   23.9400 N   0  0  0  0  0  0
  -24.7647  -30.9736   22.0837 N   0  0  0  0  0  0
  -23.4203  -28.7985   23.3045 O   0  0  0  0  0  0
  -28.1991  -25.6886   20.2214 O   0  0  0  0  0  0
  -26.5726  -34.8876   22.4598 O   0  0  0  0  0  0
  -23.5765  -32.1161   23.6685 O   0  0  0  0  0  0
  -29.0819  -21.8500   18.9314 C   0  0  0  0  0  0
  -28.6292  -22.4224   20.1802 C   0  0  0  0  0  0
  -29.4700  -20.4939   18.9653 C   0  0  0  0  0  0
  -28.8362  -21.1577   20.9296 C   0  0  0  0  0  0
  -30.0206  -19.6843   17.8353 C   0  0  0  0  0  0
  -28.5716  -21.0166   22.3952 C   0  0  0  0  0  0
  -27.2878  -24.0654   21.8795 C   0  0  0  0  0  0
  -29.9468  -18.3418   20.7060 C   0  0  0  0  0  0
  -27.8481  -24.0552   20.4519 C   0  0  1  0  0  0
  -29.3459  -19.8960   20.2304 N   0  0  0  0  0  0
  -29.6627  -16.6996   20.3599 N   0  0  0  0  0  0
  -31.4453  -13.1282   19.1614 H   0  0  0  0  0  0
  -30.5396  -12.0251   20.1522 H   0  0  0  0  0  0
  -29.9388  -11.7488   17.7211 H   0  0  0  0  0  0
  -29.5365  -13.4442   17.6120 H   0  0  0  0  0  0
  -28.0918  -11.2732   19.1478 H   0  0  0  0  0  0
  -27.4196  -12.2657   17.8808 H   0  0  0  0  0  0
  -27.4957  -14.2280   19.2800 H   0  0  0  0  0  0
  -28.8458  -12.6150   21.4960 H   0  0  0  0  0  0
  -28.2555  -14.2558   21.6448 H   0  0  0  0  0  0
  -25.2785   -9.5657   22.4772 H   0  0  0  0  0  0
  -24.0000   -7.4627   22.7474 H   0  0  0  0  0  0
  -21.0859   -8.8801   19.8960 H   0  0  0  0  0  0
  -22.3744  -10.9681   19.6179 H   0  0  0  0  0  0
  -21.2024   -7.6154   23.9734 H   0  0  0  0  0  0
  -21.1476   -6.0522   25.9088 H   0  0  0  0  0  0
  -22.0595   -2.7615   23.2843 H   0  0  0  0  0  0
  -22.4028  -11.9844   22.4868 H   0  0  0  0  0  0
  -21.1027  -13.1206   22.2658 H   0  0  0  0  0  0
  -24.6267  -15.8435   20.5425 H   0  0  0  0  0  0
  -26.2372  -15.6457   20.0759 H   0  0  0  0  0  0
  -26.7432  -32.5057   23.0848 H   0  0  0  0  0  0
  -25.0047  -33.9428   25.0128 H   0  0  0  0  0  0
  -22.8089  -31.2591   21.3395 H   0  0  0  0  0  0
  -23.3765  -35.9517   23.3281 H   0  0  0  0  0  0
  -24.3568  -36.8874   22.2070 H   0  0  0  0  0  0
  -23.7254  -37.6368   23.6736 H   0  0  0  0  0  0
  -26.2522  -31.3295   20.6239 H   0  0  0  0  0  0
  -26.9223  -30.6555   22.0652 H   0  0  0  0  0  0
  -28.1646  -28.5189   21.2835 H   0  0  0  0  0  0
  -25.8522  -25.6992   19.0012 H   0  0  0  0  0  0
  -24.0071  -27.2536   18.9510 H   0  0  0  0  0  0
  -23.9009  -30.5006   19.3893 H   0  0  0  0  0  0
  -22.8415  -29.1966   19.8244 H   0  0  0  0  0  0
  -25.1344  -36.1721   25.0781 H   0  0  0  0  0  0
  -21.0044  -28.3390   24.1304 H   0  0  0  0  0  0
  -20.5712  -26.2386   23.3648 H   0  0  0  0  0  0
  -21.6669  -26.7432   22.1201 H   0  0  0  0  0  0
  -19.6946  -25.6282   21.1290 H   0  0  0  0  0  0
  -19.6729  -27.3160   20.6729 H   0  0  0  0  0  0
  -17.4233  -26.6702   21.4028 H   0  0  0  0  0  0
  -18.0357  -26.0119   22.9040 H   0  0  0  0  0  0
  -19.7970  -30.7350   24.2189 H   0  0  0  0  0  0
  -17.5037  -31.6285   24.5176 H   0  0  0  0  0  0
  -15.5382  -30.2980   23.7711 H   0  0  0  0  0  0
  -15.8708  -28.0824   22.7107 H   0  0  0  0  0  0
  -24.5865  -30.7151   25.7641 H   0  0  0  0  0  0
  -24.8856  -32.3019   26.4626 H   0  0  0  0  0  0
  -25.7880  -30.9053   27.0211 H   0  0  0  0  0  0
  -26.3165  -29.6535   24.1484 H   0  0  0  0  0  0
  -27.3953  -29.7277   25.5187 H   0  0  0  0  0  0
  -27.9131  -30.4039   23.9965 H   0  0  0  0  0  0
  -27.2608  -33.3696   26.1956 H   0  0  0  0  0  0
  -28.3939  -32.6842   25.0405 H   0  0  0  0  0  0
  -28.0635  -31.8568   26.5545 H   0  0  0  0  0  0
  -28.2567  -38.0063   24.7496 H   0  0  0  0  0  0
  -28.1079  -36.2589   24.6309 H   0  0  0  0  0  0
  -27.2277  -37.1406   25.8864 H   0  0  0  0  0  0
  -20.9646  -29.8696   21.6588 H   0  0  0  0  0  0
  -26.0119  -38.2736   24.1410 H   0  0  0  0  0  0
  -29.1061  -22.4168   18.0097 H   0  0  0  0  0  0
  -29.9859  -20.2408   16.8979 H   0  0  0  0  0  0
  -29.4530  -18.7646   17.6954 H   0  0  0  0  0  0
  -31.0611  -19.4144   18.0183 H   0  0  0  0  0  0
  -27.5173  -20.8094   22.5806 H   0  0  0  0  0  0
  -28.8367  -21.9289   22.9278 H   0  0  0  0  0  0
  -29.1559  -20.2158   22.8445 H   0  0  0  0  0  0
  -26.5933  -24.8899   22.0352 H   0  0  0  0  0  0
  -28.0878  -24.1675   22.6113 H   0  0  0  0  0  0
  -26.7415  -23.1484   22.0971 H   0  0  0  0  0  0
  -29.8792  -18.3536   21.7928 H   0  0  0  0  0  0
  -31.0205  -18.4263   20.5325 H   0  0  0  0  0  0
  -26.9810  -23.9344   19.8037 H   0  0  0  0  0  0
  -28.6737  -16.5302   20.2578 H   0  0  0  0  0  0
  1 25  1  0  0  0
  1 30  2  0  0  0
  1 81  1  0  0  0
  2  3  1  0  0  0
  2 25  1  0  0  0
  2 82  1  0  0  0
  2 83  1  0  0  0
  3  4  1  0  0  0
  3 84  1  0  0  0
  3 85  1  0  0  0
  4  5  1  0  0  0
  4 86  1  0  0  0
  4 87  1  0  0  0
  5  6  1  0  0  0
  5 26  1  0  0  0
  5 88  1  0  0  0
  6 25  1  0  0  0
  6 89  1  0  0  0
  6 90  1  0  0  0
  7  8  2  0  0  0
  7 26  1  0  0  0
  7 29  1  0  0  0
  8  9  1  0  0  0
  8 22  1  0  0  0
  9 10  1  0  0  0
  9 27  2  0  0  0
 10 11  2  0  0  0
 10 15  1  0  0  0
 11 12  1  0  0  0
 11 91  1  0  0  0
 12 13  2  0  0  0
 12 92  1  0  0  0
 13 14  1  0  0  0
 13 31  1  0  0  0
 14 15  2  0  0  0
 14 93  1  0  0  0
 15 94  1  0  0  0
 16 17  2  0  0  0
 16 21  1  0  0  0
 16 31  1  0  0  0
 17 18  1  0  0  0
 17 95  1  0  0  0
 18 19  2  0  0  0
 18 96  1  0  0  0
 19 20  1  0  0  0
 19 24  1  0  0  0
 20 21  2  0  0  0
 20 97  1  0  0  0
 21 23  1  0  0  0
 22 28  1  0  0  0
 22 32  2  0  0  0
 26 27  1  0  0  0
 28 98  1  0  0  0
 28 99  1  0  0  0
 29100  1  0  0  0
 29101  1  0  0  0
 33 34  1  0  0  0
 33 66  1  0  0  0
 33 70  2  0  0  0
 34 36  1  0  0  0
 34 59  1  0  0  0
 34102  1  0  0  0
 35 44  2  0  0  0
 35 45  1  0  0  0
 35 68  1  0  0  0
 36 56  1  0  0  0
 36103  1  0  0  0
 37 39  1  0  0  0
 37 47  1  0  0  0
 37 66  1  0  0  0
 37104  1  0  0  0
 38 43  2  0  0  0
 38 46  1  0  0  0
 38 47  1  0  0  0
 39 64  1  0  0  0
 39 67  2  0  0  0
 40 52  1  0  0  0
 40 53  2  0  0  0
 40 58  1  0  0  0
 41105  1  0  0  0
 41106  1  0  0  0
 41107  1  0  0  0
 41 48  1  0  0  0
 42 43  1  0  0  0
 42 66  1  0  0  0
 42108  1  0  0  0
 42109  1  0  0  0
 43 44  1  0  0  0
 44110  1  0  0  0
 45 46  2  0  0  0
 45111  1  0  0  0
 46112  1  0  0  0
 47113  1  0  0  0
 47114  1  0  0  0
 48 56  1  0  0  0
 48 65  1  0  0  0
 48115  1  0  0  0
 49 50  1  0  0  0
 49 53  1  0  0  0
 49 64  1  0  0  0
 49116  1  0  0  0
 50 51  1  0  0  0
 50117  1  0  0  0
 50118  1  0  0  0
 51 52  1  0  0  0
 51119  1  0  0  0
 51120  1  0  0  0
 52121  1  0  0  0
 52122  1  0  0  0
 53 54  1  0  0  0
 54 55  2  0  0  0
 54123  1  0  0  0
 55 57  1  0  0  0
 55124  1  0  0  0
 56 69  2  0  0  0
 57 58  2  0  0  0
 57125  1  0  0  0
 58126  1  0  0  0
 59 60  1  0  0  0
 59 61  1  0  0  0
 59 62  1  0  0  0
 60127  1  0  0  0
 60128  1  0  0  0
 60129  1  0  0  0
 61130  1  0  0  0
 61131  1  0  0  0
 61132  1  0  0  0
 62133  1  0  0  0
 62134  1  0  0  0
 62135  1  0  0  0
 63 65  1  0  0  0
 63136  1  0  0  0
 63137  1  0  0  0
 63138  1  0  0  0
 64139  1  0  0  0
 65140  1  0  0  0
 68 79  1  0  0  0
 71 72  1  0  0  0
 71 73  2  0  0  0
 71141  1  0  0  0
 72 74  2  0  0  0
 72 79  1  0  0  0
 73 75  1  0  0  0
 73 80  1  0  0  0
 74 76  1  0  0  0
 74 80  1  0  0  0
 75142  1  0  0  0
 75143  1  0  0  0
 75144  1  0  0  0
 76145  1  0  0  0
 76146  1  0  0  0
 76147  1  0  0  0
 77148  1  0  0  0
 77149  1  0  0  0
 77150  1  0  0  0
 77 79  1  0  0  0
 78 80  1  0  0  0
 78 81  1  0  0  0
 78151  1  0  0  0
 78152  1  0  0  0
 79153  1  0  0  0
 81154  1  0  0  0
M  ISO  4   1 100  68 101  79 101  81 100
M  END
> <chiral flag>
0

> <version>
0

> <s_m_source_file>
/data/baiqing/PycharmProjects/Reinvent-master-3.2/result/LINK_invent/BTK/process_docking_weight1_custom_sum_contain_oxygen_bond_distance_aromatic_linkinvent_7_9_3/rearranged_h_0112.sdf

> <i_m_source_file_index>
89

> <r_mmod_Potential_Energy-OPLS-2005>
1540.89440917969

> <r_mmod_Stretch_Energy-OPLS-2005>
713.558532714844

> <r_mmod_Bend_Energy-OPLS-2005>
514.995422363281

> <r_mmod_Torsional_Energy-OPLS-2005>
241.772445678711

> <r_mmod_Improper_Torsional_Energy-OPLS-2005>
8.59967136383057

> <r_mmod_Van_der_Waal_Energy-OPLS-2005>
103.425025939941

> <r_mmod_Electrostatic_Energy-OPLS-2005>
-417.753692626953

> <r_mmod_Solvation_Energy-OPLS-2005>
-218.471862792969

> <b_mmod_Minimization_Converged-OPLS-2005>
0

> <r_mmod_RMS_Derivative-OPLS-2005>
1.62259232997894

$$$$
89
                    3D
 Structure written by MMmdl.
166174  0  0  1  0            999 V2000
  -30.5251  -15.0196   20.3838 C   0  0  0  0  0  0
  -30.4398  -12.6375   19.4888 C   0  0  0  0  0  0
  -29.5216  -12.5496   18.2499 C   0  0  0  0  0  0
  -28.0563  -12.3261   18.6724 C   0  0  0  0  0  0
  -27.6243  -13.2578   19.8346 C   0  0  2  0  0  0
  -28.6720  -13.3248   20.9643 C   0  0  0  0  0  0
  -25.2452  -13.8193   20.5818 C   0  0  0  0  0  0
  -24.1776  -13.0405   20.9262 C   0  0  0  0  0  0
  -24.6409  -11.6909   20.8743 C   0  0  0  0  0  0
  -23.9097  -10.4290   21.0397 C   0  0  0  0  0  0
  -24.3644   -9.4212   21.9183 C   0  0  0  0  0  0
  -23.6320   -8.2247   22.0742 C   0  0  0  0  0  0
  -22.4289   -8.0293   21.3545 C   0  0  0  0  0  0
  -21.9933   -9.0266   20.4637 C   0  0  0  0  0  0
  -22.7261  -10.2144   20.3054 C   0  0  0  0  0  0
  -21.6868   -6.0759   22.5295 C   0  0  0  0  0  0
  -21.4010   -6.5651   23.8231 C   0  0  0  0  0  0
  -21.3650   -5.6795   24.9188 C   0  0  0  0  0  0
  -21.6051   -4.3062   24.7229 C   0  0  0  0  0  0
  -21.8812   -3.8162   23.4344 C   0  0  0  0  0  0
  -21.9199   -4.6986   22.3409 C   0  0  0  0  0  0
  -22.7803  -13.5169   21.1940 C   0  0  0  0  0  0
  -22.1673   -4.2185   21.0984 F   0  0  0  0  0  0
  -21.5633   -3.4530   25.7733 F   0  0  0  0  0  0
  -29.9344  -13.7522   20.3459 N   0  0  0  0  0  0
  -26.2888  -12.9466   20.3279 N   0  0  0  0  0  0
  -25.9348  -11.6584   20.5723 N   0  0  0  0  0  0
  -22.0431  -12.8153   22.0474 N   0  0  0  0  0  0
  -25.4083  -15.1930   20.4412 N   0  0  0  0  0  0
  -31.7411  -15.0634   20.1692 O   0  0  0  0  0  0
  -21.6642   -6.8896   21.4258 O   0  0  0  0  0  0
  -22.3497  -14.5485   20.6791 O   0  0  0  0  0  0
  -24.6468  -31.8396   23.1835 C   0  0  0  0  0  0
  -25.9224  -32.4674   23.8250 C   0  0  1  0  0  0
  -27.2174  -27.0933   20.1592 C   0  0  0  0  0  0
  -25.5939  -33.8480   24.2162 N   0  0  0  0  0  0
  -23.4525  -30.4576   21.5311 C   0  0  2  0  0  0
  -24.9024  -28.8765   20.1069 C   0  0  0  0  0  0
  -22.7582  -29.4524   22.4848 C   0  0  0  0  0  0
  -18.0303  -28.1397   22.8481 C   0  0  0  0  0  0
  -24.1485  -36.7252   23.2648 C   0  0  0  0  0  0
  -26.0097  -30.6992   21.3886 C   0  0  0  0  0  0
  -26.0788  -29.3055   20.7331 C   0  0  0  0  0  0
  -27.2326  -28.4287   20.7468 C   0  0  0  0  0  0
  -26.0194  -26.7825   19.4787 C   0  0  0  0  0  0
  -24.8879  -27.6285   19.4644 C   0  0  0  0  0  0
  -23.6806  -29.7840   20.1510 C   0  0  0  0  0  0
  -25.4114  -36.3026   24.0323 C   0  0  1  0  0  0
  -20.5918  -28.3726   23.1229 C   0  0  2  0  0  0
  -20.6792  -26.9427   22.5409 C   0  0  0  0  0  0
  -19.5765  -26.6378   21.5221 C   0  0  0  0  0  0
  -18.1942  -26.7931   22.1624 C   0  0  0  0  0  0
  -19.1562  -28.8876   23.2845 C   0  0  0  0  0  0
  -18.9483  -30.1475   23.8874 C   0  0  0  0  0  0
  -17.6484  -30.6598   24.0566 C   0  0  0  0  0  0
  -25.9066  -34.9407   23.5051 C   0  0  0  0  0  0
  -16.5372  -29.9092   23.6343 C   0  0  0  0  0  0
  -16.7289  -28.6504   23.0364 C   0  0  0  0  0  0
  -26.4527  -31.6555   25.0715 C   0  0  0  0  0  0
  -25.3693  -31.3773   26.1401 C   0  0  0  0  0  0
  -27.0406  -30.2946   24.6324 C   0  0  0  0  0  0
  -27.6038  -32.4344   25.7502 C   0  0  0  0  0  0
  -27.5571  -37.1778   24.8464 C   0  0  0  0  0  0
  -21.4270  -29.3046   22.3593 N   0  0  0  0  0  0
  -26.4277  -37.3746   23.9413 N   0  0  0  0  0  0
  -24.7236  -31.0217   22.0892 N   0  0  0  0  0  0
  -23.4193  -28.8089   23.3044 O   0  0  0  0  0  0
  -28.2596  -26.0866   20.2618 O   0  0  0  0  0  0
  -26.5674  -34.8914   22.4648 O   0  0  0  0  0  0
  -23.5578  -32.1299   23.7013 O   0  0  0  0  0  0
  -28.0048  -21.4560   18.8173 C   0  0  0  0  0  0
  -27.9033  -20.1977   18.1882 C   0  0  0  0  0  0
  -28.5539  -19.0420   18.7204 C   0  0  0  0  0  0
  -28.7609  -21.6306   19.9820 C   0  0  0  0  0  0
  -29.2906  -19.1294   19.9386 C   0  0  0  0  0  0
  -27.1033  -20.1255   16.8933 C   0  0  0  0  0  0
  -30.3792  -23.5345   20.5856 C   0  0  0  0  0  0
  -28.3794  -23.1120   22.0422 C   0  0  0  0  0  0
  -29.6927  -17.4565   17.2352 C   0  0  0  0  0  0
  -27.3667  -16.9687   18.1816 C   0  0  0  0  0  0
  -30.1120  -17.7835   20.5227 C   0  0  0  0  0  0
  -28.0839  -24.5519   19.9230 C   0  0  0  0  0  0
  -28.8830  -23.1861   20.5905 C   0  0  0  0  0  0
  -29.3772  -20.4439   20.5143 N   0  0  0  0  0  0
  -29.7509  -16.2217   20.4590 N   0  0  0  0  0  0
  -28.5034  -17.8529   17.9783 N   0  0  0  0  0  0
  -31.4695  -12.8056   19.1706 H   0  0  0  0  0  0
  -30.4451  -11.6922   20.0345 H   0  0  0  0  0  0
  -29.8494  -11.7480   17.5853 H   0  0  0  0  0  0
  -29.6038  -13.4755   17.6769 H   0  0  0  0  0  0
  -27.9609  -11.2846   18.9822 H   0  0  0  0  0  0
  -27.3887  -12.4570   17.8190 H   0  0  0  0  0  0
  -27.5685  -14.2538   19.3982 H   0  0  0  0  0  0
  -28.7797  -12.3612   21.4622 H   0  0  0  0  0  0
  -28.3607  -14.0379   21.7302 H   0  0  0  0  0  0
  -25.2782   -9.5708   22.4770 H   0  0  0  0  0  0
  -24.0054   -7.4622   22.7437 H   0  0  0  0  0  0
  -21.0879   -8.8775   19.8930 H   0  0  0  0  0  0
  -22.3713  -10.9695   19.6182 H   0  0  0  0  0  0
  -21.1990   -7.6154   23.9741 H   0  0  0  0  0  0
  -21.1481   -6.0523   25.9093 H   0  0  0  0  0  0
  -22.0596   -2.7630   23.2829 H   0  0  0  0  0  0
  -22.4023  -11.9796   22.4871 H   0  0  0  0  0  0
  -21.1041  -13.1185   22.2628 H   0  0  0  0  0  0
  -24.6406  -15.8407   20.5809 H   0  0  0  0  0  0
  -26.2636  -15.6470   20.1619 H   0  0  0  0  0  0
  -26.7295  -32.5275   23.0980 H   0  0  0  0  0  0
  -25.0059  -33.9588   25.0283 H   0  0  0  0  0  0
  -22.7578  -31.2855   21.3753 H   0  0  0  0  0  0
  -23.3762  -35.9569   23.3285 H   0  0  0  0  0  0
  -24.3574  -36.8905   22.2069 H   0  0  0  0  0  0
  -23.7219  -37.6433   23.6699 H   0  0  0  0  0  0
  -26.1676  -31.4503   20.6135 H   0  0  0  0  0  0
  -26.8782  -30.7506   22.0331 H   0  0  0  0  0  0
  -28.1222  -28.7483   21.2697 H   0  0  0  0  0  0
  -25.9183  -25.8383   18.9673 H   0  0  0  0  0  0
  -23.9934  -27.2963   18.9559 H   0  0  0  0  0  0
  -23.8158  -30.5596   19.3965 H   0  0  0  0  0  0
  -22.7926  -29.2309   19.8420 H   0  0  0  0  0  0
  -25.1300  -36.1859   25.0819 H   0  0  0  0  0  0
  -21.0012  -28.3330   24.1351 H   0  0  0  0  0  0
  -20.5692  -26.2347   23.3629 H   0  0  0  0  0  0
  -21.6657  -26.7426   22.1205 H   0  0  0  0  0  0
  -19.6928  -25.6284   21.1268 H   0  0  0  0  0  0
  -19.6705  -27.3183   20.6751 H   0  0  0  0  0  0
  -17.4213  -26.6690   21.4025 H   0  0  0  0  0  0
  -18.0326  -26.0072   22.9014 H   0  0  0  0  0  0
  -19.7965  -30.7299   24.2223 H   0  0  0  0  0  0
  -17.5038  -31.6280   24.5170 H   0  0  0  0  0  0
  -15.5366  -30.2995   23.7676 H   0  0  0  0  0  0
  -15.8683  -28.0824   22.7088 H   0  0  0  0  0  0
  -24.5870  -30.7113   25.7730 H   0  0  0  0  0  0
  -24.8886  -32.2968   26.4752 H   0  0  0  0  0  0
  -25.7961  -30.9001   27.0226 H   0  0  0  0  0  0
  -26.3041  -29.6651   24.1309 H   0  0  0  0  0  0
  -27.3985  -29.7267   25.4919 H   0  0  0  0  0  0
  -27.8960  -30.4180   23.9675 H   0  0  0  0  0  0
  -27.2614  -33.3675   26.1987 H   0  0  0  0  0  0
  -28.3893  -32.6842   25.0361 H   0  0  0  0  0  0
  -28.0647  -31.8529   26.5494 H   0  0  0  0  0  0
  -28.2572  -38.0090   24.7524 H   0  0  0  0  0  0
  -28.1082  -36.2621   24.6270 H   0  0  0  0  0  0
  -27.2298  -37.1398   25.8869 H   0  0  0  0  0  0
  -20.9474  -29.8754   21.6774 H   0  0  0  0  0  0
  -26.0148  -38.2814   24.1422 H   0  0  0  0  0  0
  -27.5138  -22.3091   18.3708 H   0  0  0  0  0  0
  -26.8554  -21.1156   16.5078 H   0  0  0  0  0  0
  -26.1682  -19.5914   17.0583 H   0  0  0  0  0  0
  -27.6629  -19.6114   16.1129 H   0  0  0  0  0  0
  -30.9570  -22.7947   21.1405 H   0  0  0  0  0  0
  -30.5616  -24.5086   21.0381 H   0  0  0  0  0  0
  -30.7672  -23.5639   19.5677 H   0  0  0  0  0  0
  -28.9383  -22.3768   22.6208 H   0  0  0  0  0  0
  -27.3309  -22.8138   22.0715 H   0  0  0  0  0  0
  -28.4657  -24.0746   22.5474 H   0  0  0  0  0  0
  -30.4164  -18.2717   17.1745 H   0  0  0  0  0  0
  -29.4281  -17.1739   16.2143 H   0  0  0  0  0  0
  -30.1862  -16.6051   17.7034 H   0  0  0  0  0  0
  -27.2103  -16.8068   19.2467 H   0  0  0  0  0  0
  -27.5285  -15.9999   17.7063 H   0  0  0  0  0  0
  -26.4519  -17.3959   17.7715 H   0  0  0  0  0  0
  -30.2759  -17.9919   21.5789 H   0  0  0  0  0  0
  -31.1065  -17.8575   20.0805 H   0  0  0  0  0  0
  -27.0237  -24.3223   20.0289 H   0  0  0  0  0  0
  -28.2726  -24.5066   18.8502 H   0  0  0  0  0  0
  -28.7603  -16.0508   20.5189 H   0  0  0  0  0  0
  1 25  1  0  0  0
  1 30  2  0  0  0
  1 85  1  0  0  0
  2  3  1  0  0  0
  2 25  1  0  0  0
  2 87  1  0  0  0
  2 88  1  0  0  0
  3  4  1  0  0  0
  3 89  1  0  0  0
  3 90  1  0  0  0
  4  5  1  0  0  0
  4 91  1  0  0  0
  4 92  1  0  0  0
  5  6  1  0  0  0
  5 26  1  0  0  0
  5 93  1  0  0  0
  6 25  1  0  0  0
  6 94  1  0  0  0
  6 95  1  0  0  0
  7  8  2  0  0  0
  7 26  1  0  0  0
  7 29  1  0  0  0
  8  9  1  0  0  0
  8 22  1  0  0  0
  9 10  1  0  0  0
  9 27  2  0  0  0
 10 11  2  0  0  0
 10 15  1  0  0  0
 11 12  1  0  0  0
 11 96  1  0  0  0
 12 13  2  0  0  0
 12 97  1  0  0  0
 13 14  1  0  0  0
 13 31  1  0  0  0
 14 15  2  0  0  0
 14 98  1  0  0  0
 15 99  1  0  0  0
 16 17  2  0  0  0
 16 21  1  0  0  0
 16 31  1  0  0  0
 17 18  1  0  0  0
 17100  1  0  0  0
 18 19  2  0  0  0
 18101  1  0  0  0
 19 20  1  0  0  0
 19 24  1  0  0  0
 20 21  2  0  0  0
 20102  1  0  0  0
 21 23  1  0  0  0
 22 28  1  0  0  0
 22 32  2  0  0  0
 26 27  1  0  0  0
 28103  1  0  0  0
 28104  1  0  0  0
 29105  1  0  0  0
 29106  1  0  0  0
 33 34  1  0  0  0
 33 66  1  0  0  0
 33 70  2  0  0  0
 34 36  1  0  0  0
 34 59  1  0  0  0
 34107  1  0  0  0
 35 44  2  0  0  0
 35 45  1  0  0  0
 35 68  1  0  0  0
 36 56  1  0  0  0
 36108  1  0  0  0
 37 39  1  0  0  0
 37 47  1  0  0  0
 37 66  1  0  0  0
 37109  1  0  0  0
 38 43  2  0  0  0
 38 46  1  0  0  0
 38 47  1  0  0  0
 39 64  1  0  0  0
 39 67  2  0  0  0
 40 52  1  0  0  0
 40 53  2  0  0  0
 40 58  1  0  0  0
 41110  1  0  0  0
 41111  1  0  0  0
 41112  1  0  0  0
 41 48  1  0  0  0
 42 43  1  0  0  0
 42 66  1  0  0  0
 42113  1  0  0  0
 42114  1  0  0  0
 43 44  1  0  0  0
 44115  1  0  0  0
 45 46  2  0  0  0
 45116  1  0  0  0
 46117  1  0  0  0
 47118  1  0  0  0
 47119  1  0  0  0
 48 56  1  0  0  0
 48 65  1  0  0  0
 48120  1  0  0  0
 49 50  1  0  0  0
 49 53  1  0  0  0
 49 64  1  0  0  0
 49121  1  0  0  0
 50 51  1  0  0  0
 50122  1  0  0  0
 50123  1  0  0  0
 51 52  1  0  0  0
 51124  1  0  0  0
 51125  1  0  0  0
 52126  1  0  0  0
 52127  1  0  0  0
 53 54  1  0  0  0
 54 55  2  0  0  0
 54128  1  0  0  0
 55 57  1  0  0  0
 55129  1  0  0  0
 56 69  2  0  0  0
 57 58  2  0  0  0
 57130  1  0  0  0
 58131  1  0  0  0
 59 60  1  0  0  0
 59 61  1  0  0  0
 59 62  1  0  0  0
 60132  1  0  0  0
 60133  1  0  0  0
 60134  1  0  0  0
 61135  1  0  0  0
 61136  1  0  0  0
 61137  1  0  0  0
 62138  1  0  0  0
 62139  1  0  0  0
 62140  1  0  0  0
 63 65  1  0  0  0
 63141  1  0  0  0
 63142  1  0  0  0
 63143  1  0  0  0
 64144  1  0  0  0
 65145  1  0  0  0
 68 82  1  0  0  0
 71 72  2  0  0  0
 71 74  1  0  0  0
 71146  1  0  0  0
 72 73  1  0  0  0
 72 76  1  0  0  0
 73 75  2  0  0  0
 73 86  1  0  0  0
 74 83  1  0  0  0
 74 84  2  0  0  0
 75 81  1  0  0  0
 75 84  1  0  0  0
 76147  1  0  0  0
 76148  1  0  0  0
 76149  1  0  0  0
 77150  1  0  0  0
 77151  1  0  0  0
 77152  1  0  0  0
 77 83  1  0  0  0
 78 83  1  0  0  0
 78153  1  0  0  0
 78154  1  0  0  0
 78155  1  0  0  0
 79 86  1  0  0  0
 79156  1  0  0  0
 79157  1  0  0  0
 79158  1  0  0  0
 80 86  1  0  0  0
 80159  1  0  0  0
 80160  1  0  0  0
 80161  1  0  0  0
 81 85  1  0  0  0
 81162  1  0  0  0
 81163  1  0  0  0
 82 83  1  0  0  0
 82164  1  0  0  0
 82165  1  0  0  0
 85166  1  0  0  0
M  ISO  4   1 100  68 101  82 101  85 100
M  END
> <chiral flag>
0

> <version>
0

> <s_m_source_file>
/data/baiqing/PycharmProjects/Reinvent-master-3.2/result/LINK_invent/BTK/process_docking_weight1_custom_sum_contain_oxygen_bond_distance_aromatic_linkinvent_7_9_3/rearranged_h_0112.sdf

> <i_m_source_file_index>
90

> <r_mmod_Potential_Energy-OPLS-2005>
463.502990722656

> <r_mmod_Stretch_Energy-OPLS-2005>
320.075988769531

> <r_mmod_Bend_Energy-OPLS-2005>
295.543426513672

> <r_mmod_Torsional_Energy-OPLS-2005>
220.257019042969

> <r_mmod_Improper_Torsional_Energy-OPLS-2005>
4.80657720565796

> <r_mmod_Van_der_Waal_Energy-OPLS-2005>
119.380905151367

> <r_mmod_Electrostatic_Energy-OPLS-2005>
-518.009948730469

> <r_mmod_Solvation_Energy-OPLS-2005>
-221.039535522461

> <b_mmod_Minimization_Converged-OPLS-2005>
0

> <r_mmod_RMS_Derivative-OPLS-2005>
2.40503644943237

$$$$
90
                    3D
 Structure written by MMmdl.
172180  0  0  1  0            999 V2000
  -30.6288  -14.4409   20.6103 C   0  0  0  0  0  0
  -30.4222  -12.2910   19.4126 C   0  0  0  0  0  0
  -29.4832  -12.5073   18.2033 C   0  0  0  0  0  0
  -28.0003  -12.3688   18.6137 C   0  0  0  0  0  0
  -27.6537  -13.1885   19.8834 C   0  0  2  0  0  0
  -28.6894  -12.8965   20.9906 C   0  0  0  0  0  0
  -25.2531  -13.8109   20.5626 C   0  0  0  0  0  0
  -24.1773  -13.0455   20.9166 C   0  0  0  0  0  0
  -24.6286  -11.6901   20.8734 C   0  0  0  0  0  0
  -23.8952  -10.4303   21.0397 C   0  0  0  0  0  0
  -24.3558   -9.4230   21.9160 C   0  0  0  0  0  0
  -23.6261   -8.2256   22.0736 C   0  0  0  0  0  0
  -22.4229   -8.0277   21.3541 C   0  0  0  0  0  0
  -21.9841   -9.0236   20.4629 C   0  0  0  0  0  0
  -22.7137  -10.2127   20.3030 C   0  0  0  0  0  0
  -21.6841   -6.0751   22.5284 C   0  0  0  0  0  0
  -21.4008   -6.5659   23.8216 C   0  0  0  0  0  0
  -21.3637   -5.6812   24.9175 C   0  0  0  0  0  0
  -21.6035   -4.3076   24.7226 C   0  0  0  0  0  0
  -21.8810   -3.8165   23.4345 C   0  0  0  0  0  0
  -21.9188   -4.6984   22.3404 C   0  0  0  0  0  0
  -22.7813  -13.5268   21.1850 C   0  0  0  0  0  0
  -22.1667   -4.2160   21.0987 F   0  0  0  0  0  0
  -21.5606   -3.4562   25.7743 F   0  0  0  0  0  0
  -30.0176  -13.2390   20.4555 N   0  0  0  0  0  0
  -26.2943  -12.9253   20.3381 N   0  0  0  0  0  0
  -25.9207  -11.6438   20.5782 N   0  0  0  0  0  0
  -22.0461  -12.8260   22.0400 N   0  0  0  0  0  0
  -25.4341  -15.1802   20.3883 N   0  0  0  0  0  0
  -31.7494  -14.6997   20.1529 O   0  0  0  0  0  0
  -21.6623   -6.8864   21.4229 O   0  0  0  0  0  0
  -22.3533  -14.5603   20.6718 O   0  0  0  0  0  0
  -24.6157  -31.8679   23.2083 C   0  0  0  0  0  0
  -25.9043  -32.4799   23.8407 C   0  0  1  0  0  0
  -27.2471  -27.4490   20.0823 C   0  0  0  0  0  0
  -25.5875  -33.8593   24.2330 N   0  0  0  0  0  0
  -23.4017  -30.4936   21.5476 C   0  0  2  0  0  0
  -24.8457  -28.9557   20.1175 C   0  0  0  0  0  0
  -22.7448  -29.4706   22.5004 C   0  0  0  0  0  0
  -18.0376  -28.1411   22.8617 C   0  0  0  0  0  0
  -24.1503  -36.7331   23.2646 C   0  0  0  0  0  0
  -25.9299  -30.8380   21.3588 C   0  0  0  0  0  0
  -26.0043  -29.4722   20.7067 C   0  0  0  0  0  0
  -27.2004  -28.7244   20.6873 C   0  0  0  0  0  0
  -26.0607  -26.9327   19.5084 C   0  0  0  0  0  0
  -24.8671  -27.6815   19.5243 C   0  0  0  0  0  0
  -23.6052  -29.8195   20.1645 C   0  0  0  0  0  0
  -25.4116  -36.3099   24.0350 C   0  0  1  0  0  0
  -20.5959  -28.3756   23.1459 C   0  0  2  0  0  0
  -20.6868  -26.9506   22.5615 C   0  0  0  0  0  0
  -19.5972  -26.6753   21.5190 C   0  0  0  0  0  0
  -18.2155  -26.7981   22.1692 C   0  0  0  0  0  0
  -19.1611  -28.8891   23.3027 C   0  0  0  0  0  0
  -18.9587  -30.1516   23.8988 C   0  0  0  0  0  0
  -17.6606  -30.6710   24.0574 C   0  0  0  0  0  0
  -25.9024  -34.9457   23.5138 C   0  0  0  0  0  0
  -16.5492  -29.9167   23.6429 C   0  0  0  0  0  0
  -16.7355  -28.6547   23.0498 C   0  0  0  0  0  0
  -26.4475  -31.6582   25.0743 C   0  0  0  0  0  0
  -25.3772  -31.3690   26.1528 C   0  0  0  0  0  0
  -27.0297  -30.3024   24.6095 C   0  0  0  0  0  0
  -27.6041  -32.4319   25.7494 C   0  0  0  0  0  0
  -27.5585  -37.1795   24.8446 C   0  0  0  0  0  0
  -21.4165  -29.3087   22.3750 N   0  0  0  0  0  0
  -26.4306  -37.3779   23.9391 N   0  0  0  0  0  0
  -24.6664  -31.0838   22.0941 N   0  0  0  0  0  0
  -23.4224  -28.8284   23.3071 O   0  0  0  0  0  0
  -28.4648  -26.7975   20.0618 O   0  0  0  0  0  0
  -26.5614  -34.8895   22.4707 O   0  0  0  0  0  0
  -23.5357  -32.1407   23.7502 O   0  0  0  0  0  0
  -25.5628  -19.0918   19.9218 C   0  0  0  0  0  0
  -30.5868  -17.6104   20.2157 C   0  0  0  0  0  0
  -30.1929  -19.0707   20.5350 C   0  0  0  0  0  0
  -28.8785  -17.5936   21.8726 C   0  0  0  0  0  0
  -30.1219  -16.7945   21.4276 C   0  0  1  0  0  0
  -24.0678  -18.8000   20.0273 C   0  0  0  0  0  0
  -26.1112  -22.5960   19.7466 C   0  0  0  0  0  0
  -28.3120  -24.4938   20.8532 C   0  0  0  0  0  0
  -28.4579  -22.9776   20.5434 C   0  0  0  0  0  0
  -28.2708  -20.0711   21.9593 C   0  0  0  0  0  0
  -28.5731  -25.4291   19.6582 C   0  0  0  0  0  0
  -27.1684  -22.1443   20.7850 C   0  0  2  0  0  0
  -27.4003  -20.5860   20.7606 C   0  0  2  0  0  0
  -26.0786  -19.9431   20.8190 N   0  0  0  0  0  0
  -29.8442  -15.3734   21.1818 N   0  0  0  0  0  0
  -29.2932  -19.0027   21.7168 N   0  3  2  0  0  0
  -26.2331  -18.5672   19.0339 O   0  0  0  0  0  0
  -31.4666  -12.4163   19.1259 H   0  0  0  0  0  0
  -30.3428  -11.2672   19.7818 H   0  0  0  0  0  0
  -29.7177  -11.7922   17.4133 H   0  0  0  0  0  0
  -29.6516  -13.4979   17.7752 H   0  0  0  0  0  0
  -27.8117  -11.3108   18.7984 H   0  0  0  0  0  0
  -27.3432  -12.6476   17.7893 H   0  0  0  0  0  0
  -27.7157  -14.2437   19.6161 H   0  0  0  0  0  0
  -28.6576  -11.8339   21.2446 H   0  0  0  0  0  0
  -28.4583  -13.4095   21.9255 H   0  0  0  0  0  0
  -25.2722   -9.5755   22.4687 H   0  0  0  0  0  0
  -24.0002   -7.4647   22.7437 H   0  0  0  0  0  0
  -21.0779   -8.8723   19.8919 H   0  0  0  0  0  0
  -22.3581  -10.9660   19.6109 H   0  0  0  0  0  0
  -21.2003   -7.6167   23.9736 H   0  0  0  0  0  0
  -21.1455   -6.0536   25.9082 H   0  0  0  0  0  0
  -22.0599   -2.7633   23.2839 H   0  0  0  0  0  0
  -22.4104  -11.9902   22.4733 H   0  0  0  0  0  0
  -21.1137  -13.1335   22.2748 H   0  0  0  0  0  0
  -24.6550  -15.8248   20.3974 H   0  0  0  0  0  0
  -26.2689  -15.5755   19.9750 H   0  0  0  0  0  0
  -26.7123  -32.5497   23.1171 H   0  0  0  0  0  0
  -24.9937  -33.9751   25.0412 H   0  0  0  0  0  0
  -22.6922  -31.3117   21.4070 H   0  0  0  0  0  0
  -23.3735  -35.9688   23.3302 H   0  0  0  0  0  0
  -24.3593  -36.8938   22.2053 H   0  0  0  0  0  0
  -23.7272  -37.6543   23.6665 H   0  0  0  0  0  0
  -26.0548  -31.6124   20.5996 H   0  0  0  0  0  0
  -26.8148  -30.8791   21.9813 H   0  0  0  0  0  0
  -28.0972  -29.1296   21.1347 H   0  0  0  0  0  0
  -26.0265  -25.9619   19.0386 H   0  0  0  0  0  0
  -23.9723  -27.2681   19.0813 H   0  0  0  0  0  0
  -23.7036  -30.5920   19.4012 H   0  0  0  0  0  0
  -22.7284  -29.2348   19.8758 H   0  0  0  0  0  0
  -25.1290  -36.1975   25.0852 H   0  0  0  0  0  0
  -21.0126  -28.3433   24.1552 H   0  0  0  0  0  0
  -21.6831  -26.7436   22.1699 H   0  0  0  0  0  0
  -20.5520  -26.2366   23.3743 H   0  0  0  0  0  0
  -19.7283  -25.6864   21.0866 H   0  0  0  0  0  0
  -19.6912  -27.3899   20.6996 H   0  0  0  0  0  0
  -18.0905  -26.0053   22.9039 H   0  0  0  0  0  0
  -17.4346  -26.6513   21.4225 H   0  0  0  0  0  0
  -19.8158  -30.7258   24.2307 H   0  0  0  0  0  0
  -17.5250  -31.6455   24.5041 H   0  0  0  0  0  0
  -15.5523  -30.3128   23.7760 H   0  0  0  0  0  0
  -15.8730  -28.0888   22.7246 H   0  0  0  0  0  0
  -24.5928  -30.7025   25.7923 H   0  0  0  0  0  0
  -24.9001  -32.2854   26.5036 H   0  0  0  0  0  0
  -25.8201  -30.8853   27.0254 H   0  0  0  0  0  0
  -26.2827  -29.6765   24.1201 H   0  0  0  0  0  0
  -27.4117  -29.7272   25.4542 H   0  0  0  0  0  0
  -27.8660  -30.4338   23.9213 H   0  0  0  0  0  0
  -27.2633  -33.3588   26.2142 H   0  0  0  0  0  0
  -28.3833  -32.6935   25.0313 H   0  0  0  0  0  0
  -28.0755  -31.8405   26.5355 H   0  0  0  0  0  0
  -28.2600  -38.0098   24.7503 H   0  0  0  0  0  0
  -28.1085  -36.2616   24.6277 H   0  0  0  0  0  0
  -27.2295  -37.1467   25.8849 H   0  0  0  0  0  0
  -20.9326  -29.8693   21.6873 H   0  0  0  0  0  0
  -26.0194  -38.2874   24.1325 H   0  0  0  0  0  0
  -31.6566  -17.5082   20.0348 H   0  0  0  0  0  0
  -30.0669  -17.2768   19.3181 H   0  0  0  0  0  0
  -29.7505  -19.5242   19.6533 H   0  0  0  0  0  0
  -31.0748  -19.6665   20.7815 H   0  0  0  0  0  0
  -28.5848  -17.3684   22.8990 H   0  0  0  0  0  0
  -28.0199  -17.3870   21.2317 H   0  0  0  0  0  0
  -30.8827  -16.8521   22.2094 H   0  0  0  0  0  0
  -23.6416  -18.6601   19.0350 H   0  0  0  0  0  0
  -23.5239  -19.6187   20.5046 H   0  0  0  0  0  0
  -23.8897  -17.8909   20.5991 H   0  0  0  0  0  0
  -26.4330  -22.3588   18.7321 H   0  0  0  0  0  0
  -25.9308  -23.6698   19.7773 H   0  0  0  0  0  0
  -25.1384  -22.1329   19.9015 H   0  0  0  0  0  0
  -27.3327  -24.7163   21.2724 H   0  0  0  0  0  0
  -29.0244  -24.7593   21.6368 H   0  0  0  0  0  0
  -29.2666  -22.6044   21.1675 H   0  0  0  0  0  0
  -28.8077  -22.8220   19.5194 H   0  0  0  0  0  0
  -27.6207  -19.7646   22.7804 H   0  0  0  0  0  0
  -28.8353  -20.8988   22.3802 H   0  0  0  0  0  0
  -27.9577  -25.1844   18.7934 H   0  0  0  0  0  0
  -29.6004  -25.2856   19.3246 H   0  0  0  0  0  0
  -26.7822  -22.4100   21.7719 H   0  0  0  0  0  0
  -27.8616  -20.3695   19.8004 H   0  0  0  0  0  0
  -25.4418  -20.2888   21.5240 H   0  0  0  0  0  0
  -28.9369  -15.0385   21.4774 H   0  0  0  0  0  0
  -29.9266  -19.1225   22.4954 H   0  0  0  0  0  0
  1 25  1  0  0  0
  1 30  2  0  0  0
  1 85  1  0  0  0
  2  3  1  0  0  0
  2 25  1  0  0  0
  2 88  1  0  0  0
  2 89  1  0  0  0
  3  4  1  0  0  0
  3 90  1  0  0  0
  3 91  1  0  0  0
  4  5  1  0  0  0
  4 92  1  0  0  0
  4 93  1  0  0  0
  5  6  1  0  0  0
  5 26  1  0  0  0
  5 94  1  0  0  0
  6 25  1  0  0  0
  6 95  1  0  0  0
  6 96  1  0  0  0
  7  8  2  0  0  0
  7 26  1  0  0  0
  7 29  1  0  0  0
  8  9  1  0  0  0
  8 22  1  0  0  0
  9 10  1  0  0  0
  9 27  2  0  0  0
 10 11  2  0  0  0
 10 15  1  0  0  0
 11 12  1  0  0  0
 11 97  1  0  0  0
 12 13  2  0  0  0
 12 98  1  0  0  0
 13 14  1  0  0  0
 13 31  1  0  0  0
 14 15  2  0  0  0
 14 99  1  0  0  0
 15100  1  0  0  0
 16 17  2  0  0  0
 16 21  1  0  0  0
 16 31  1  0  0  0
 17 18  1  0  0  0
 17101  1  0  0  0
 18 19  2  0  0  0
 18102  1  0  0  0
 19 20  1  0  0  0
 19 24  1  0  0  0
 20 21  2  0  0  0
 20103  1  0  0  0
 21 23  1  0  0  0
 22 28  1  0  0  0
 22 32  2  0  0  0
 26 27  1  0  0  0
 28104  1  0  0  0
 28105  1  0  0  0
 29106  1  0  0  0
 29107  1  0  0  0
 33 34  1  0  0  0
 33 66  1  0  0  0
 33 70  2  0  0  0
 34 36  1  0  0  0
 34 59  1  0  0  0
 34108  1  0  0  0
 35 44  2  0  0  0
 35 45  1  0  0  0
 35 68  1  0  0  0
 36 56  1  0  0  0
 36109  1  0  0  0
 37 39  1  0  0  0
 37 47  1  0  0  0
 37 66  1  0  0  0
 37110  1  0  0  0
 38 43  2  0  0  0
 38 46  1  0  0  0
 38 47  1  0  0  0
 39 64  1  0  0  0
 39 67  2  0  0  0
 40 52  1  0  0  0
 40 53  2  0  0  0
 40 58  1  0  0  0
 41111  1  0  0  0
 41112  1  0  0  0
 41113  1  0  0  0
 41 48  1  0  0  0
 42 43  1  0  0  0
 42 66  1  0  0  0
 42114  1  0  0  0
 42115  1  0  0  0
 43 44  1  0  0  0
 44116  1  0  0  0
 45 46  2  0  0  0
 45117  1  0  0  0
 46118  1  0  0  0
 47119  1  0  0  0
 47120  1  0  0  0
 48 56  1  0  0  0
 48 65  1  0  0  0
 48121  1  0  0  0
 49 50  1  0  0  0
 49 53  1  0  0  0
 49 64  1  0  0  0
 49122  1  0  0  0
 50 51  1  0  0  0
 50123  1  0  0  0
 50124  1  0  0  0
 51 52  1  0  0  0
 51125  1  0  0  0
 51126  1  0  0  0
 52127  1  0  0  0
 52128  1  0  0  0
 53 54  1  0  0  0
 54 55  2  0  0  0
 54129  1  0  0  0
 55 57  1  0  0  0
 55130  1  0  0  0
 56 69  2  0  0  0
 57 58  2  0  0  0
 57131  1  0  0  0
 58132  1  0  0  0
 59 60  1  0  0  0
 59 61  1  0  0  0
 59 62  1  0  0  0
 60133  1  0  0  0
 60134  1  0  0  0
 60135  1  0  0  0
 61136  1  0  0  0
 61137  1  0  0  0
 61138  1  0  0  0
 62139  1  0  0  0
 62140  1  0  0  0
 62141  1  0  0  0
 63 65  1  0  0  0
 63142  1  0  0  0
 63143  1  0  0  0
 63144  1  0  0  0
 64145  1  0  0  0
 65146  1  0  0  0
 68 81  1  0  0  0
 71 76  1  0  0  0
 71 84  1  0  0  0
 71 87  2  0  0  0
 72 73  1  0  0  0
 72 75  1  0  0  0
 72147  1  0  0  0
 72148  1  0  0  0
 73 86  1  0  0  0
 73149  1  0  0  0
 73150  1  0  0  0
 74 75  1  0  0  0
 74 86  1  0  0  0
 74151  1  0  0  0
 74152  1  0  0  0
 75 85  1  0  0  0
 75153  1  0  0  0
 76154  1  0  0  0
 76155  1  0  0  0
 76156  1  0  0  0
 77157  1  0  0  0
 77158  1  0  0  0
 77159  1  0  0  0
 77 82  1  0  0  0
 78 79  1  0  0  0
 78 81  1  0  0  0
 78160  1  0  0  0
 78161  1  0  0  0
 79 82  1  0  0  0
 79162  1  0  0  0
 79163  1  0  0  0
 80164  1  0  0  0
 80165  1  0  0  0
 80 83  1  0  0  0
 80 86  1  0  0  0
 81166  1  0  0  0
 81167  1  0  0  0
 82 83  1  0  0  0
 82168  1  0  0  0
 83 84  1  0  0  0
 83169  1  0  0  0
 84170  1  0  0  0
 85171  1  0  0  0
 86172  1  0  0  0
M  CHG  1  86   1
M  ISO  4   1 100  68 101  81 101  85 100
M  END
> <chiral flag>
0

> <version>
0

> <s_m_source_file>
/data/baiqing/PycharmProjects/Reinvent-master-3.2/result/LINK_invent/BTK/process_docking_weight1_custom_sum_contain_oxygen_bond_distance_aromatic_linkinvent_7_9_3/rearranged_h_0112.sdf

> <i_m_source_file_index>
91

> <r_mmod_Potential_Energy-OPLS-2005>
-186.587448120117

> <r_mmod_Stretch_Energy-OPLS-2005>
39.462947845459

> <r_mmod_Bend_Energy-OPLS-2005>
160.353439331055

> <r_mmod_Torsional_Energy-OPLS-2005>
311.039886474609

> <r_mmod_Improper_Torsional_Energy-OPLS-2005>
4.43475246429443

> <r_mmod_Van_der_Waal_Energy-OPLS-2005>
127.255126953125

> <r_mmod_Electrostatic_Energy-OPLS-2005>
-374.731170654297

> <r_mmod_Solvation_Energy-OPLS-2005>
-468.050567626953

> <b_mmod_Minimization_Converged-OPLS-2005>
0

> <r_mmod_RMS_Derivative-OPLS-2005>
4.8849663734436

$$$$
91
                    3D
 Structure written by MMmdl.
166174  0  0  1  0            999 V2000
  -30.6378  -14.7237   20.4165 C   0  0  0  0  0  0
  -30.4219  -12.4294   19.4689 C   0  0  0  0  0  0
  -29.5056  -12.4977   18.2289 C   0  0  0  0  0  0
  -28.0263  -12.3496   18.6396 C   0  0  0  0  0  0
  -27.6418  -13.2376   19.8544 C   0  0  2  0  0  0
  -28.6925  -13.1770   20.9845 C   0  0  0  0  0  0
  -25.2497  -13.8198   20.5721 C   0  0  0  0  0  0
  -24.1800  -13.0435   20.9239 C   0  0  0  0  0  0
  -24.6417  -11.6918   20.8794 C   0  0  0  0  0  0
  -23.9112  -10.4289   21.0457 C   0  0  0  0  0  0
  -24.3662   -9.4190   21.9225 C   0  0  0  0  0  0
  -23.6321   -8.2232   22.0780 C   0  0  0  0  0  0
  -22.4307   -8.0294   21.3564 C   0  0  0  0  0  0
  -21.9948   -9.0268   20.4670 C   0  0  0  0  0  0
  -22.7286  -10.2133   20.3101 C   0  0  0  0  0  0
  -21.6840   -6.0762   22.5298 C   0  0  0  0  0  0
  -21.3993   -6.5679   23.8231 C   0  0  0  0  0  0
  -21.3656   -5.6833   24.9195 C   0  0  0  0  0  0
  -21.6030   -4.3088   24.7249 C   0  0  0  0  0  0
  -21.8799   -3.8173   23.4382 C   0  0  0  0  0  0
  -21.9188   -4.6991   22.3430 C   0  0  0  0  0  0
  -22.7816  -13.5184   21.1892 C   0  0  0  0  0  0
  -22.1647   -4.2162   21.1006 F   0  0  0  0  0  0
  -21.5660   -3.4586   25.7778 F   0  0  0  0  0  0
  -29.9911  -13.5096   20.3864 N   0  0  0  0  0  0
  -26.2946  -12.9422   20.3353 N   0  0  0  0  0  0
  -25.9351  -11.6560   20.5833 N   0  0  0  0  0  0
  -22.0457  -12.8144   22.0437 N   0  0  0  0  0  0
  -25.4148  -15.1917   20.4071 N   0  0  0  0  0  0
  -31.8447  -14.7760   20.1777 O   0  0  0  0  0  0
  -21.6643   -6.8908   21.4269 O   0  0  0  0  0  0
  -22.3508  -14.5496   20.6747 O   0  0  0  0  0  0
  -24.6319  -31.8534   23.1951 C   0  0  0  0  0  0
  -25.9133  -32.4749   23.8312 C   0  0  1  0  0  0
  -27.2264  -27.2565   20.1317 C   0  0  0  0  0  0
  -25.5923  -33.8551   24.2245 N   0  0  0  0  0  0
  -23.4294  -30.4727   21.5407 C   0  0  2  0  0  0
  -24.8755  -28.9119   20.1149 C   0  0  0  0  0  0
  -22.7502  -29.4585   22.4923 C   0  0  0  0  0  0
  -18.0290  -28.1395   22.8481 C   0  0  0  0  0  0
  -24.1486  -36.7277   23.2635 C   0  0  0  0  0  0
  -25.9740  -30.7647   21.3727 C   0  0  0  0  0  0
  -26.0459  -29.3842   20.7196 C   0  0  0  0  0  0
  -27.2234  -28.5705   20.7108 C   0  0  0  0  0  0
  -26.0313  -26.8457   19.5016 C   0  0  0  0  0  0
  -24.8736  -27.6516   19.4952 C   0  0  0  0  0  0
  -23.6466  -29.7997   20.1588 C   0  0  0  0  0  0
  -25.4109  -36.3067   24.0326 C   0  0  1  0  0  0
  -20.5892  -28.3696   23.1277 C   0  0  2  0  0  0
  -20.6778  -26.9414   22.5414 C   0  0  0  0  0  0
  -19.5762  -26.6384   21.5213 C   0  0  0  0  0  0
  -18.1935  -26.7938   22.1620 C   0  0  0  0  0  0
  -19.1540  -28.8863   23.2872 C   0  0  0  0  0  0
  -18.9456  -30.1462   23.8887 C   0  0  0  0  0  0
  -17.6463  -30.6594   24.0561 C   0  0  0  0  0  0
  -25.9053  -34.9437   23.5091 C   0  0  0  0  0  0
  -16.5353  -29.9087   23.6340 C   0  0  0  0  0  0
  -16.7273  -28.6512   23.0346 C   0  0  0  0  0  0
  -26.4500  -31.6584   25.0705 C   0  0  0  0  0  0
  -25.3718  -31.3718   26.1417 C   0  0  0  0  0  0
  -27.0351  -30.3009   24.6186 C   0  0  0  0  0  0
  -27.6059  -32.4328   25.7474 C   0  0  0  0  0  0
  -27.5587  -37.1779   24.8452 C   0  0  0  0  0  0
  -21.4213  -29.3035   22.3659 N   0  0  0  0  0  0
  -26.4275  -37.3776   23.9425 N   0  0  0  0  0  0
  -24.6982  -31.0485   22.0934 N   0  0  0  0  0  0
  -23.4199  -28.8132   23.3025 O   0  0  0  0  0  0
  -28.3604  -26.4143   20.1469 O   0  0  0  0  0  0
  -26.5634  -34.8924   22.4666 O   0  0  0  0  0  0
  -23.5477  -32.1351   23.7258 O   0  0  0  0  0  0
  -31.1842  -24.6316   17.7325 C   0  0  0  0  0  0
  -30.2423  -25.0334   18.6762 C   0  0  0  0  0  0
  -31.2677  -23.2876   17.3857 C   0  0  0  0  0  0
  -29.4029  -24.1228   19.3652 C   0  0  0  0  0  0
  -29.6293  -22.6688   19.1461 C   0  0  0  0  0  0
  -30.4751  -22.3168   18.0418 C   0  0  0  0  0  0
  -30.6104  -20.3785   21.6615 C   0  0  0  0  0  0
  -30.7436  -17.3382   18.5853 C   0  0  0  0  0  0
  -31.1863  -20.6791   16.4076 C   0  0  0  0  0  0
  -28.9980  -21.4075   19.9052 C   0  0  0  0  0  0
  -28.3002  -24.9009   20.1951 C   0  0  0  0  0  0
  -29.3418  -18.5868   20.3133 C   0  0  0  0  0  0
  -29.9319  -20.1091   20.3080 C   0  0  2  0  0  0
  -30.3342  -17.3164   20.0751 C   0  0  1  0  0  0
  -29.8822  -15.8913   20.4400 N   0  0  0  0  0  0
  -30.4641  -21.0107   17.5910 O   0  0  0  0  0  0
  -31.4679  -12.5227   19.1737 H   0  0  0  0  0  0
  -30.3411  -11.4576   19.9570 H   0  0  0  0  0  0
  -29.7701  -11.7200   17.5116 H   0  0  0  0  0  0
  -29.6517  -13.4490   17.7146 H   0  0  0  0  0  0
  -27.8488  -11.3004   18.8776 H   0  0  0  0  0  0
  -27.3823  -12.5822   17.7917 H   0  0  0  0  0  0
  -27.6353  -14.2614   19.4814 H   0  0  0  0  0  0
  -28.7210  -12.1852   21.4395 H   0  0  0  0  0  0
  -28.4475  -13.8771   21.7856 H   0  0  0  0  0  0
  -25.2809   -9.5645   22.4812 H   0  0  0  0  0  0
  -24.0016   -7.4598   22.7479 H   0  0  0  0  0  0
  -21.0897   -8.8792   19.8947 H   0  0  0  0  0  0
  -22.3770  -10.9701   19.6231 H   0  0  0  0  0  0
  -21.1950   -7.6183   23.9753 H   0  0  0  0  0  0
  -21.1516   -6.0560   25.9102 H   0  0  0  0  0  0
  -22.0574   -2.7641   23.2874 H   0  0  0  0  0  0
  -22.4076  -11.9824   22.4843 H   0  0  0  0  0  0
  -21.1084  -13.1160   22.2680 H   0  0  0  0  0  0
  -24.6358  -15.8338   20.5067 H   0  0  0  0  0  0
  -26.2527  -15.6350   20.0526 H   0  0  0  0  0  0
  -26.7199  -32.5401   23.1059 H   0  0  0  0  0  0
  -25.0062  -33.9692   25.0385 H   0  0  0  0  0  0
  -22.7276  -31.2947   21.3908 H   0  0  0  0  0  0
  -23.3777  -35.9578   23.3249 H   0  0  0  0  0  0
  -24.3586  -36.8956   22.2062 H   0  0  0  0  0  0
  -23.7197  -37.6444   23.6696 H   0  0  0  0  0  0
  -26.1077  -31.5223   20.5988 H   0  0  0  0  0  0
  -26.8552  -30.8219   22.0011 H   0  0  0  0  0  0
  -28.1267  -28.9322   21.1819 H   0  0  0  0  0  0
  -25.9726  -25.8909   19.0004 H   0  0  0  0  0  0
  -23.9781  -27.2878   19.0115 H   0  0  0  0  0  0
  -23.7719  -30.5723   19.3989 H   0  0  0  0  0  0
  -22.7658  -29.2299   19.8572 H   0  0  0  0  0  0
  -25.1292  -36.1909   25.0814 H   0  0  0  0  0  0
  -20.9982  -28.3273   24.1399 H   0  0  0  0  0  0
  -20.5687  -26.2293   23.3607 H   0  0  0  0  0  0
  -21.6641  -26.7436   22.1206 H   0  0  0  0  0  0
  -19.6915  -25.6289   21.1248 H   0  0  0  0  0  0
  -19.6710  -27.3188   20.6738 H   0  0  0  0  0  0
  -17.4202  -26.6682   21.4023 H   0  0  0  0  0  0
  -18.0329  -26.0086   22.9025 H   0  0  0  0  0  0
  -19.7919  -30.7283   24.2264 H   0  0  0  0  0  0
  -17.4999  -31.6271   24.5162 H   0  0  0  0  0  0
  -15.5351  -30.2979   23.7664 H   0  0  0  0  0  0
  -15.8672  -28.0828   22.7060 H   0  0  0  0  0  0
  -24.5901  -30.7068   25.7726 H   0  0  0  0  0  0
  -24.8889  -32.2871   26.4850 H   0  0  0  0  0  0
  -25.8023  -30.8879   27.0192 H   0  0  0  0  0  0
  -26.2925  -29.6745   24.1225 H   0  0  0  0  0  0
  -27.4059  -29.7290   25.4704 H   0  0  0  0  0  0
  -27.8795  -30.4304   23.9409 H   0  0  0  0  0  0
  -27.2689  -33.3655   26.2015 H   0  0  0  0  0  0
  -28.3881  -32.6844   25.0296 H   0  0  0  0  0  0
  -28.0711  -31.8463   26.5412 H   0  0  0  0  0  0
  -28.2556  -38.0133   24.7590 H   0  0  0  0  0  0
  -28.1145  -36.2665   24.6172 H   0  0  0  0  0  0
  -27.2319  -37.1293   25.8859 H   0  0  0  0  0  0
  -20.9399  -29.8736   21.6847 H   0  0  0  0  0  0
  -26.0158  -38.2841   24.1488 H   0  0  0  0  0  0
  -31.7868  -25.3664   17.2175 H   0  0  0  0  0  0
  -30.1660  -26.0987   18.8289 H   0  0  0  0  0  0
  -31.9465  -23.0446   16.5816 H   0  0  0  0  0  0
  -31.1207  -21.3418   21.6593 H   0  0  0  0  0  0
  -31.3576  -19.6166   21.8907 H   0  0  0  0  0  0
  -29.8900  -20.3854   22.4787 H   0  0  0  0  0  0
  -31.2033  -18.2860   18.3074 H   0  0  0  0  0  0
  -29.8764  -17.1966   17.9392 H   0  0  0  0  0  0
  -31.4623  -16.5600   18.3316 H   0  0  0  0  0  0
  -31.0477  -19.6258   16.1703 H   0  0  0  0  0  0
  -32.2577  -20.8419   16.5332 H   0  0  0  0  0  0
  -30.8328  -21.2555   15.5508 H   0  0  0  0  0  0
  -28.2173  -21.0399   19.2391 H   0  0  0  0  0  0
  -28.4711  -21.7645   20.7895 H   0  0  0  0  0  0
  -28.4132  -24.6080   21.2395 H   0  0  0  0  0  0
  -27.3294  -24.5189   19.8884 H   0  0  0  0  0  0
  -28.5609  -18.5366   19.5539 H   0  0  0  0  0  0
  -28.8148  -18.4365   21.2552 H   0  0  0  0  0  0
  -30.7635  -20.0550   19.6151 H   0  0  0  0  0  0
  -31.2321  -17.4891   20.6720 H   0  0  0  0  0  0
  -28.8952  -15.7609   20.6051 H   0  0  0  0  0  0
  1 25  1  0  0  0
  1 30  2  0  0  0
  1 85  1  0  0  0
  2  3  1  0  0  0
  2 25  1  0  0  0
  2 87  1  0  0  0
  2 88  1  0  0  0
  3  4  1  0  0  0
  3 89  1  0  0  0
  3 90  1  0  0  0
  4  5  1  0  0  0
  4 91  1  0  0  0
  4 92  1  0  0  0
  5  6  1  0  0  0
  5 26  1  0  0  0
  5 93  1  0  0  0
  6 25  1  0  0  0
  6 94  1  0  0  0
  6 95  1  0  0  0
  7  8  2  0  0  0
  7 26  1  0  0  0
  7 29  1  0  0  0
  8  9  1  0  0  0
  8 22  1  0  0  0
  9 10  1  0  0  0
  9 27  2  0  0  0
 10 11  2  0  0  0
 10 15  1  0  0  0
 11 12  1  0  0  0
 11 96  1  0  0  0
 12 13  2  0  0  0
 12 97  1  0  0  0
 13 14  1  0  0  0
 13 31  1  0  0  0
 14 15  2  0  0  0
 14 98  1  0  0  0
 15 99  1  0  0  0
 16 17  2  0  0  0
 16 21  1  0  0  0
 16 31  1  0  0  0
 17 18  1  0  0  0
 17100  1  0  0  0
 18 19  2  0  0  0
 18101  1  0  0  0
 19 20  1  0  0  0
 19 24  1  0  0  0
 20 21  2  0  0  0
 20102  1  0  0  0
 21 23  1  0  0  0
 22 28  1  0  0  0
 22 32  2  0  0  0
 26 27  1  0  0  0
 28103  1  0  0  0
 28104  1  0  0  0
 29105  1  0  0  0
 29106  1  0  0  0
 33 34  1  0  0  0
 33 66  1  0  0  0
 33 70  2  0  0  0
 34 36  1  0  0  0
 34 59  1  0  0  0
 34107  1  0  0  0
 35 44  2  0  0  0
 35 45  1  0  0  0
 35 68  1  0  0  0
 36 56  1  0  0  0
 36108  1  0  0  0
 37 39  1  0  0  0
 37 47  1  0  0  0
 37 66  1  0  0  0
 37109  1  0  0  0
 38 43  2  0  0  0
 38 46  1  0  0  0
 38 47  1  0  0  0
 39 64  1  0  0  0
 39 67  2  0  0  0
 40 52  1  0  0  0
 40 53  2  0  0  0
 40 58  1  0  0  0
 41110  1  0  0  0
 41111  1  0  0  0
 41112  1  0  0  0
 41 48  1  0  0  0
 42 43  1  0  0  0
 42 66  1  0  0  0
 42113  1  0  0  0
 42114  1  0  0  0
 43 44  1  0  0  0
 44115  1  0  0  0
 45 46  2  0  0  0
 45116  1  0  0  0
 46117  1  0  0  0
 47118  1  0  0  0
 47119  1  0  0  0
 48 56  1  0  0  0
 48 65  1  0  0  0
 48120  1  0  0  0
 49 50  1  0  0  0
 49 53  1  0  0  0
 49 64  1  0  0  0
 49121  1  0  0  0
 50 51  1  0  0  0
 50122  1  0  0  0
 50123  1  0  0  0
 51 52  1  0  0  0
 51124  1  0  0  0
 51125  1  0  0  0
 52126  1  0  0  0
 52127  1  0  0  0
 53 54  1  0  0  0
 54 55  2  0  0  0
 54128  1  0  0  0
 55 57  1  0  0  0
 55129  1  0  0  0
 56 69  2  0  0  0
 57 58  2  0  0  0
 57130  1  0  0  0
 58131  1  0  0  0
 59 60  1  0  0  0
 59 61  1  0  0  0
 59 62  1  0  0  0
 60132  1  0  0  0
 60133  1  0  0  0
 60134  1  0  0  0
 61135  1  0  0  0
 61136  1  0  0  0
 61137  1  0  0  0
 62138  1  0  0  0
 62139  1  0  0  0
 62140  1  0  0  0
 63 65  1  0  0  0
 63141  1  0  0  0
 63142  1  0  0  0
 63143  1  0  0  0
 64144  1  0  0  0
 65145  1  0  0  0
 68 81  1  0  0  0
 71 72  2  0  0  0
 71 73  1  0  0  0
 71146  1  0  0  0
 72 74  1  0  0  0
 72147  1  0  0  0
 73 76  2  0  0  0
 73148  1  0  0  0
 74 75  2  0  0  0
 74 81  1  0  0  0
 75 76  1  0  0  0
 75 80  1  0  0  0
 76 86  1  0  0  0
 77149  1  0  0  0
 77150  1  0  0  0
 77151  1  0  0  0
 77 83  1  0  0  0
 78152  1  0  0  0
 78153  1  0  0  0
 78154  1  0  0  0
 78 84  1  0  0  0
 79 86  1  0  0  0
 79155  1  0  0  0
 79156  1  0  0  0
 79157  1  0  0  0
 80 83  1  0  0  0
 80158  1  0  0  0
 80159  1  0  0  0
 81160  1  0  0  0
 81161  1  0  0  0
 82 83  1  0  0  0
 82 84  1  0  0  0
 82162  1  0  0  0
 82163  1  0  0  0
 83164  1  0  0  0
 84 85  1  0  0  0
 84165  1  0  0  0
 85166  1  0  0  0
M  ISO  4   1 100  68 101  81 101  85 100
M  END
> <chiral flag>
0

> <version>
0

> <s_m_source_file>
/data/baiqing/PycharmProjects/Reinvent-master-3.2/result/LINK_invent/BTK/process_docking_weight1_custom_sum_contain_oxygen_bond_distance_aromatic_linkinvent_7_9_3/rearranged_h_0112.sdf

> <i_m_source_file_index>
92

> <r_mmod_Potential_Energy-OPLS-2005>
277.198303222656

> <r_mmod_Stretch_Energy-OPLS-2005>
152.991256713867

> <r_mmod_Bend_Energy-OPLS-2005>
198.389724731445

> <r_mmod_Torsional_Energy-OPLS-2005>
247.931884765625

> <r_mmod_Improper_Torsional_Energy-OPLS-2005>
7.08447122573853

> <r_mmod_Van_der_Waal_Energy-OPLS-2005>
153.122924804688

> <r_mmod_Electrostatic_Energy-OPLS-2005>
-357.638549804688

> <r_mmod_Solvation_Energy-OPLS-2005>
-203.781112670898

> <b_mmod_Minimization_Converged-OPLS-2005>
0

> <r_mmod_RMS_Derivative-OPLS-2005>
3.05064535140991

$$$$
92
                    3D
 Structure written by MMmdl.
151159  0  0  1  0            999 V2000
  -30.4048  -15.3839   20.3177 C   0  0  0  0  0  0
  -30.4509  -12.9040   19.4796 C   0  0  0  0  0  0
  -29.5358  -12.5902   18.2681 C   0  0  0  0  0  0
  -28.0915  -12.2961   18.7126 C   0  0  0  0  0  0
  -27.6100  -13.2826   19.8066 C   0  0  2  0  0  0
  -28.6593  -13.5063   20.9156 C   0  0  0  0  0  0
  -25.2388  -13.8243   20.5748 C   0  0  0  0  0  0
  -24.1747  -13.0420   20.9233 C   0  0  0  0  0  0
  -24.6420  -11.6928   20.8750 C   0  0  0  0  0  0
  -23.9106  -10.4277   21.0386 C   0  0  0  0  0  0
  -24.3641   -9.4188   21.9163 C   0  0  0  0  0  0
  -23.6311   -8.2236   22.0748 C   0  0  0  0  0  0
  -22.4297   -8.0277   21.3535 C   0  0  0  0  0  0
  -21.9936   -9.0250   20.4646 C   0  0  0  0  0  0
  -22.7268  -10.2120   20.3045 C   0  0  0  0  0  0
  -21.6864   -6.0724   22.5271 C   0  0  0  0  0  0
  -21.4030   -6.5625   23.8197 C   0  0  0  0  0  0
  -21.3669   -5.6774   24.9157 C   0  0  0  0  0  0
  -21.6047   -4.3036   24.7208 C   0  0  0  0  0  0
  -21.8814   -3.8137   23.4327 C   0  0  0  0  0  0
  -21.9181   -4.6955   22.3385 C   0  0  0  0  0  0
  -22.7743  -13.5174   21.1856 C   0  0  0  0  0  0
  -22.1646   -4.2145   21.0963 F   0  0  0  0  0  0
  -21.5637   -3.4516   25.7724 F   0  0  0  0  0  0
  -29.8549  -14.0607   20.2483 N   0  0  0  0  0  0
  -26.2856  -12.9544   20.3230 N   0  0  0  0  0  0
  -25.9379  -11.6637   20.5718 N   0  0  0  0  0  0
  -22.0386  -12.8219   22.0445 N   0  0  0  0  0  0
  -25.3942  -15.1984   20.4174 N   0  0  0  0  0  0
  -31.6433  -15.3637   20.2399 O   0  0  0  0  0  0
  -21.6646   -6.8888   21.4248 O   0  0  0  0  0  0
  -22.3417  -14.5435   20.6629 O   0  0  0  0  0  0
  -24.6710  -31.8171   23.1670 C   0  0  0  0  0  0
  -25.9354  -32.4576   23.8154 C   0  0  1  0  0  0
  -27.2261  -26.8431   20.1626 C   0  0  0  0  0  0
  -25.5998  -33.8393   24.2033 N   0  0  0  0  0  0
  -23.4888  -30.4272   21.5222 C   0  0  2  0  0  0
  -24.9410  -28.8079   20.1126 C   0  0  0  0  0  0
  -22.7729  -29.4378   22.4794 C   0  0  0  0  0  0
  -18.0331  -28.1416   22.8478 C   0  0  0  0  0  0
  -24.1497  -36.7212   23.2643 C   0  0  0  0  0  0
  -26.0658  -30.5886   21.4168 C   0  0  0  0  0  0
  -26.1297  -29.1740   20.7549 C   0  0  0  0  0  0
  -27.2614  -28.2188   20.7515 C   0  0  0  0  0  0
  -26.0002  -26.6699   19.4694 C   0  0  0  0  0  0
  -24.9104  -27.5783   19.4447 C   0  0  0  0  0  0
  -23.7329  -29.7505   20.1476 C   0  0  0  0  0  0
  -25.4152  -36.2980   24.0280 C   0  0  1  0  0  0
  -20.5955  -28.3748   23.1209 C   0  0  2  0  0  0
  -20.6834  -26.9438   22.5416 C   0  0  0  0  0  0
  -19.5800  -26.6371   21.5251 C   0  0  0  0  0  0
  -18.1970  -26.7951   22.1635 C   0  0  0  0  0  0
  -19.1592  -28.8914   23.2820 C   0  0  0  0  0  0
  -18.9498  -30.1507   23.8845 C   0  0  0  0  0  0
  -17.6481  -30.6608   24.0553 C   0  0  0  0  0  0
  -25.9128  -34.9358   23.4984 C   0  0  0  0  0  0
  -16.5372  -29.9085   23.6351 C   0  0  0  0  0  0
  -16.7308  -28.6505   23.0372 C   0  0  0  0  0  0
  -26.4553  -31.6571   25.0738 C   0  0  0  0  0  0
  -25.3608  -31.3880   26.1347 C   0  0  0  0  0  0
  -27.0450  -30.2910   24.6569 C   0  0  0  0  0  0
  -27.6022  -32.4406   25.7559 C   0  0  0  0  0  0
  -27.5580  -37.1794   24.8460 C   0  0  0  0  0  0
  -21.4391  -29.3011   22.3555 N   0  0  0  0  0  0
  -26.4305  -37.3718   23.9386 N   0  0  0  0  0  0
  -24.7639  -30.9732   22.0881 N   0  0  0  0  0  0
  -23.4258  -28.7963   23.3071 O   0  0  0  0  0  0
  -28.2457  -25.7071   20.1753 O   0  0  0  0  0  0
  -26.5738  -34.8905   22.4589 O   0  0  0  0  0  0
  -23.5758  -32.1181   23.6713 O   0  0  0  0  0  0
  -30.5658  -18.9875   21.2635 C   0  0  0  0  0  0
  -29.0411  -19.5094   19.8069 C   0  0  0  0  0  0
  -29.7205  -18.3043   20.3390 C   0  0  0  0  0  0
  -30.4012  -20.3823   21.2605 C   0  0  0  0  0  0
  -31.2080  -21.3065   22.1147 C   0  0  0  0  0  0
  -27.0687  -23.6587   19.0697 C   0  0  0  0  0  0
  -29.2782  -22.5789   19.9743 C   0  0  0  0  0  0
  -28.1085  -23.9998   20.1527 C   0  0  1  0  0  0
  -29.4367  -20.8860   20.3378 N   0  0  0  0  0  0
  -29.6205  -16.6647   20.1712 N   0  0  0  0  0  0
  -31.4471  -13.1544   19.1122 H   0  0  0  0  0  0
  -30.5848  -12.0285   20.1178 H   0  0  0  0  0  0
  -29.9378  -11.7518   17.6965 H   0  0  0  0  0  0
  -29.5338  -13.4465   17.5908 H   0  0  0  0  0  0
  -28.0607  -11.2774   19.0992 H   0  0  0  0  0  0
  -27.4220  -12.3173   17.8519 H   0  0  0  0  0  0
  -27.4992  -14.2356   19.2884 H   0  0  0  0  0  0
  -28.8769  -12.5809   21.4525 H   0  0  0  0  0  0
  -28.2896  -14.2165   21.6555 H   0  0  0  0  0  0
  -25.2790   -9.5662   22.4729 H   0  0  0  0  0  0
  -24.0004   -7.4636   22.7487 H   0  0  0  0  0  0
  -21.0856   -8.8763   19.8973 H   0  0  0  0  0  0
  -22.3716  -10.9645   19.6153 H   0  0  0  0  0  0
  -21.2036   -7.6132   23.9714 H   0  0  0  0  0  0
  -21.1510   -6.0494   25.9061 H   0  0  0  0  0  0
  -22.0594   -2.7607   23.2804 H   0  0  0  0  0  0
  -22.4036  -11.9955   22.4943 H   0  0  0  0  0  0
  -21.0980  -13.1242   22.2569 H   0  0  0  0  0  0
  -24.6143  -15.8391   20.5141 H   0  0  0  0  0  0
  -26.2413  -15.6520   20.1041 H   0  0  0  0  0  0
  -26.7440  -32.5052   23.0877 H   0  0  0  0  0  0
  -25.0103  -33.9486   25.0151 H   0  0  0  0  0  0
  -22.8006  -31.2591   21.3565 H   0  0  0  0  0  0
  -23.3782  -35.9530   23.3317 H   0  0  0  0  0  0
  -24.3545  -36.8857   22.2058 H   0  0  0  0  0  0
  -23.7254  -37.6400   23.6696 H   0  0  0  0  0  0
  -26.2639  -31.3284   20.6408 H   0  0  0  0  0  0
  -26.9183  -30.6349   22.0818 H   0  0  0  0  0  0
  -28.1612  -28.5132   21.2725 H   0  0  0  0  0  0
  -25.8205  -25.7772   18.9044 H   0  0  0  0  0  0
  -24.0256  -27.2998   18.8885 H   0  0  0  0  0  0
  -23.8988  -30.5267   19.3991 H   0  0  0  0  0  0
  -22.8362  -29.2200   19.8225 H   0  0  0  0  0  0
  -25.1370  -36.1786   25.0776 H   0  0  0  0  0  0
  -21.0012  -28.3358   24.1350 H   0  0  0  0  0  0
  -20.5798  -26.2361   23.3653 H   0  0  0  0  0  0
  -21.6690  -26.7493   22.1169 H   0  0  0  0  0  0
  -19.6970  -25.6273   21.1323 H   0  0  0  0  0  0
  -19.6745  -27.3160   20.6772 H   0  0  0  0  0  0
  -17.4264  -26.6712   21.4010 H   0  0  0  0  0  0
  -18.0332  -26.0104   22.9035 H   0  0  0  0  0  0
  -19.7961  -30.7347   24.2193 H   0  0  0  0  0  0
  -17.5024  -31.6290   24.5156 H   0  0  0  0  0  0
  -15.5366  -30.2963   23.7713 H   0  0  0  0  0  0
  -15.8713  -28.0808   22.7114 H   0  0  0  0  0  0
  -24.5789  -30.7256   25.7628 H   0  0  0  0  0  0
  -24.8794  -32.3106   26.4593 H   0  0  0  0  0  0
  -25.7746  -30.9135   27.0249 H   0  0  0  0  0  0
  -26.3124  -29.6570   24.1558 H   0  0  0  0  0  0
  -27.3898  -29.7327   25.5284 H   0  0  0  0  0  0
  -27.9124  -30.4067   24.0066 H   0  0  0  0  0  0
  -27.2570  -33.3750   26.2003 H   0  0  0  0  0  0
  -28.3912  -32.6902   25.0454 H   0  0  0  0  0  0
  -28.0609  -31.8623   26.5591 H   0  0  0  0  0  0
  -28.2605  -38.0082   24.7492 H   0  0  0  0  0  0
  -28.1073  -36.2610   24.6326 H   0  0  0  0  0  0
  -27.2285  -37.1502   25.8860 H   0  0  0  0  0  0
  -20.9669  -29.8642   21.6618 H   0  0  0  0  0  0
  -26.0152  -38.2796   24.1337 H   0  0  0  0  0  0
  -31.2713  -18.4907   21.9172 H   0  0  0  0  0  0
  -28.2929  -19.5279   19.0248 H   0  0  0  0  0  0
  -31.7028  -20.7485   22.9130 H   0  0  0  0  0  0
  -30.5895  -22.0737   22.5836 H   0  0  0  0  0  0
  -31.9971  -21.7849   21.5328 H   0  0  0  0  0  0
  -26.0483  -23.7547   19.4368 H   0  0  0  0  0  0
  -27.1599  -22.6286   18.7210 H   0  0  0  0  0  0
  -27.2010  -24.2846   18.1859 H   0  0  0  0  0  0
  -30.1908  -23.0052   20.3915 H   0  0  0  0  0  0
  -29.5169  -22.6059   18.9095 H   0  0  0  0  0  0
  -27.6417  -23.8004   21.1171 H   0  0  0  0  0  0
  -28.6915  -16.3973   19.8813 H   0  0  0  0  0  0
  1 25  1  0  0  0
  1 30  2  0  0  0
  1 80  1  0  0  0
  2  3  1  0  0  0
  2 25  1  0  0  0
  2 81  1  0  0  0
  2 82  1  0  0  0
  3  4  1  0  0  0
  3 83  1  0  0  0
  3 84  1  0  0  0
  4  5  1  0  0  0
  4 85  1  0  0  0
  4 86  1  0  0  0
  5  6  1  0  0  0
  5 26  1  0  0  0
  5 87  1  0  0  0
  6 25  1  0  0  0
  6 88  1  0  0  0
  6 89  1  0  0  0
  7  8  2  0  0  0
  7 26  1  0  0  0
  7 29  1  0  0  0
  8  9  1  0  0  0
  8 22  1  0  0  0
  9 10  1  0  0  0
  9 27  2  0  0  0
 10 11  2  0  0  0
 10 15  1  0  0  0
 11 12  1  0  0  0
 11 90  1  0  0  0
 12 13  2  0  0  0
 12 91  1  0  0  0
 13 14  1  0  0  0
 13 31  1  0  0  0
 14 15  2  0  0  0
 14 92  1  0  0  0
 15 93  1  0  0  0
 16 17  2  0  0  0
 16 21  1  0  0  0
 16 31  1  0  0  0
 17 18  1  0  0  0
 17 94  1  0  0  0
 18 19  2  0  0  0
 18 95  1  0  0  0
 19 20  1  0  0  0
 19 24  1  0  0  0
 20 21  2  0  0  0
 20 96  1  0  0  0
 21 23  1  0  0  0
 22 28  1  0  0  0
 22 32  2  0  0  0
 26 27  1  0  0  0
 28 97  1  0  0  0
 28 98  1  0  0  0
 29 99  1  0  0  0
 29100  1  0  0  0
 33 34  1  0  0  0
 33 66  1  0  0  0
 33 70  2  0  0  0
 34 36  1  0  0  0
 34 59  1  0  0  0
 34101  1  0  0  0
 35 44  2  0  0  0
 35 45  1  0  0  0
 35 68  1  0  0  0
 36 56  1  0  0  0
 36102  1  0  0  0
 37 39  1  0  0  0
 37 47  1  0  0  0
 37 66  1  0  0  0
 37103  1  0  0  0
 38 43  2  0  0  0
 38 46  1  0  0  0
 38 47  1  0  0  0
 39 64  1  0  0  0
 39 67  2  0  0  0
 40 52  1  0  0  0
 40 53  2  0  0  0
 40 58  1  0  0  0
 41104  1  0  0  0
 41105  1  0  0  0
 41106  1  0  0  0
 41 48  1  0  0  0
 42 43  1  0  0  0
 42 66  1  0  0  0
 42107  1  0  0  0
 42108  1  0  0  0
 43 44  1  0  0  0
 44109  1  0  0  0
 45 46  2  0  0  0
 45110  1  0  0  0
 46111  1  0  0  0
 47112  1  0  0  0
 47113  1  0  0  0
 48 56  1  0  0  0
 48 65  1  0  0  0
 48114  1  0  0  0
 49 50  1  0  0  0
 49 53  1  0  0  0
 49 64  1  0  0  0
 49115  1  0  0  0
 50 51  1  0  0  0
 50116  1  0  0  0
 50117  1  0  0  0
 51 52  1  0  0  0
 51118  1  0  0  0
 51119  1  0  0  0
 52120  1  0  0  0
 52121  1  0  0  0
 53 54  1  0  0  0
 54 55  2  0  0  0
 54122  1  0  0  0
 55 57  1  0  0  0
 55123  1  0  0  0
 56 69  2  0  0  0
 57 58  2  0  0  0
 57124  1  0  0  0
 58125  1  0  0  0
 59 60  1  0  0  0
 59 61  1  0  0  0
 59 62  1  0  0  0
 60126  1  0  0  0
 60127  1  0  0  0
 60128  1  0  0  0
 61129  1  0  0  0
 61130  1  0  0  0
 61131  1  0  0  0
 62132  1  0  0  0
 62133  1  0  0  0
 62134  1  0  0  0
 63 65  1  0  0  0
 63135  1  0  0  0
 63136  1  0  0  0
 63137  1  0  0  0
 64138  1  0  0  0
 65139  1  0  0  0
 68 78  1  0  0  0
 71 73  1  0  0  0
 71 74  2  0  0  0
 71140  1  0  0  0
 72 73  2  0  0  0
 72 79  1  0  0  0
 72141  1  0  0  0
 73 80  1  0  0  0
 74 75  1  0  0  0
 74 79  1  0  0  0
 75142  1  0  0  0
 75143  1  0  0  0
 75144  1  0  0  0
 76145  1  0  0  0
 76146  1  0  0  0
 76147  1  0  0  0
 76 78  1  0  0  0
 77 78  1  0  0  0
 77 79  1  0  0  0
 77148  1  0  0  0
 77149  1  0  0  0
 78150  1  0  0  0
 80151  1  0  0  0
M  ISO  4   1 100  68 101  78 101  80 100
M  END
> <chiral flag>
0

> <version>
0

> <s_m_source_file>
/data/baiqing/PycharmProjects/Reinvent-master-3.2/result/LINK_invent/BTK/process_docking_weight1_custom_sum_contain_oxygen_bond_distance_aromatic_linkinvent_7_9_3/rearranged_h_0112.sdf

> <i_m_source_file_index>
93

> <r_mmod_Potential_Energy-OPLS-2005>
1679.2060546875

> <r_mmod_Stretch_Energy-OPLS-2005>
731.250366210938

> <r_mmod_Bend_Energy-OPLS-2005>
544.114135742188

> <r_mmod_Torsional_Energy-OPLS-2005>
255.212219238281

> <r_mmod_Improper_Torsional_Energy-OPLS-2005>
10.3635187149048

> <r_mmod_Van_der_Waal_Energy-OPLS-2005>
115.883575439453

> <r_mmod_Electrostatic_Energy-OPLS-2005>
-344.190338134766

> <r_mmod_Solvation_Energy-OPLS-2005>
-219.444610595703

> <b_mmod_Minimization_Converged-OPLS-2005>
0

> <r_mmod_RMS_Derivative-OPLS-2005>
4.14027404785156

$$$$
93
                    3D
 Structure written by MMmdl.
173181  0  0  1  0            999 V2000
  -30.0463  -12.8892   20.1915 C   0  0  0  0  0  0
  -30.5131  -11.7479   19.2282 C   0  0  0  0  0  0
  -29.8965  -12.9272   17.8696 C   0  0  0  0  0  0
  -29.3042  -14.5535   18.5450 C   0  0  0  0  0  0
  -28.4571  -14.5503   20.3609 C   0  0  2  0  0  0
  -29.7830  -13.7941   21.4577 C   0  0  0  0  0  0
  -24.8393  -14.0056   20.6063 C   0  0  0  0  0  0
  -23.9459  -13.0635   20.9668 C   0  0  0  0  0  0
  -24.5559  -11.8183   20.8597 C   0  0  0  0  0  0
  -23.9409  -10.4680   20.9885 C   0  0  0  0  0  0
  -24.3975   -9.4701   21.8810 C   0  0  0  0  0  0
  -23.6651   -8.2652   22.0621 C   0  0  0  0  0  0
  -22.4604   -8.0427   21.3487 C   0  0  0  0  0  0
  -22.0210   -9.0278   20.4483 C   0  0  0  0  0  0
  -22.7556  -10.2125   20.2636 C   0  0  0  0  0  0
  -21.7040   -6.0861   22.5263 C   0  0  0  0  0  0
  -21.4141   -6.5731   23.8193 C   0  0  0  0  0  0
  -21.3663   -5.6856   24.9131 C   0  0  0  0  0  0
  -21.6047   -4.3121   24.7182 C   0  0  0  0  0  0
  -21.8823   -3.8226   23.4302 C   0  0  0  0  0  0
  -21.9293   -4.7061   22.3374 C   0  0  0  0  0  0
  -22.5189  -13.3762   21.2416 C   0  0  0  0  0  0
  -22.1752   -4.2233   21.0956 F   0  0  0  0  0  0
  -21.5567   -3.4585   25.7682 F   0  0  0  0  0  0
  -30.4063  -12.2748   20.8952 N   0  0  0  0  0  0
  -26.1973  -13.5382   20.5584 N   0  0  0  0  0  0
  -25.7908  -12.1047   20.4742 N   0  0  0  0  0  0
  -21.9041  -12.6453   22.1494 N   0  0  0  0  0  0
  -24.3972  -15.3053   20.3960 N   0  0  0  0  0  0
  -31.1909  -13.7488   19.8264 O   0  0  0  0  0  0
  -21.6917   -6.9028   21.4249 O   0  0  0  0  0  0
  -21.9823  -14.3547   20.7204 O   0  0  0  0  0  0
  -24.6500  -31.8420   23.1899 C   0  0  0  0  0  0
  -25.9277  -32.4663   23.8261 C   0  0  1  0  0  0
  -27.0664  -27.0560   20.1012 C   0  0  0  0  0  0
  -25.6017  -33.8477   24.2171 N   0  0  0  0  0  0
  -23.4438  -30.4776   21.5412 C   0  0  2  0  0  0
  -24.8554  -28.9066   20.0954 C   0  0  0  0  0  0
  -22.7562  -29.4572   22.4845 C   0  0  0  0  0  0
  -18.0312  -28.1395   22.8480 C   0  0  0  0  0  0
  -24.1500  -36.7226   23.2644 C   0  0  0  0  0  0
  -26.0097  -30.6813   21.3989 C   0  0  0  0  0  0
  -26.0488  -29.2956   20.7204 C   0  0  0  0  0  0
  -27.1740  -28.3813   20.7056 C   0  0  0  0  0  0
  -25.8685  -26.7920   19.4320 C   0  0  0  0  0  0
  -24.7811  -27.6758   19.4356 C   0  0  0  0  0  0
  -23.6575  -29.8347   20.1511 C   0  0  0  0  0  0
  -25.4139  -36.3000   24.0304 C   0  0  1  0  0  0
  -20.5924  -28.3727   23.1222 C   0  0  2  0  0  0
  -20.6796  -26.9432   22.5395 C   0  0  0  0  0  0
  -19.5761  -26.6379   21.5210 C   0  0  0  0  0  0
  -18.1946  -26.7934   22.1629 C   0  0  0  0  0  0
  -19.1571  -28.8876   23.2844 C   0  0  0  0  0  0
  -18.9485  -30.1472   23.8869 C   0  0  0  0  0  0
  -17.6480  -30.6590   24.0559 C   0  0  0  0  0  0
  -25.9103  -34.9385   23.5043 C   0  0  0  0  0  0
  -16.5371  -29.9079   23.6340 C   0  0  0  0  0  0
  -16.7296  -28.6498   23.0361 C   0  0  0  0  0  0
  -26.4557  -31.6554   25.0739 C   0  0  0  0  0  0
  -25.3715  -31.3783   26.1419 C   0  0  0  0  0  0
  -27.0432  -30.2930   24.6405 C   0  0  0  0  0  0
  -27.6066  -32.4343   25.7533 C   0  0  0  0  0  0
  -27.5574  -37.1777   24.8462 C   0  0  0  0  0  0
  -21.4253  -29.3062   22.3592 N   0  0  0  0  0  0
  -26.4284  -37.3728   23.9407 N   0  0  0  0  0  0
  -24.7237  -31.0227   22.0964 N   0  0  0  0  0  0
  -23.4219  -28.8091   23.2968 O   0  0  0  0  0  0
  -27.9856  -25.9548   20.0922 O   0  0  0  0  0  0
  -26.5674  -34.8889   22.4617 O   0  0  0  0  0  0
  -23.5617  -32.1346   23.7105 O   0  0  0  0  0  0
  -27.8609  -12.5249   21.7935 C   0  0  0  0  0  0
  -27.2579  -14.4203   22.4410 C   0  0  0  0  0  0
  -27.2228  -13.5417   18.5806 C   0  0  2  0  0  0
  -26.7050  -15.6409   19.4101 C   0  0  1  0  0  0
  -25.5770  -13.6534   16.5414 C   0  0  0  0  0  0
  -26.4349  -11.3973   17.3298 C   0  0  0  0  0  0
  -25.1775  -20.2463   18.8445 C   0  0  0  0  0  0
  -26.2841  -17.2135   18.8568 C   0  0  0  0  0  0
  -27.3561  -23.0582   19.4109 C   0  0  0  0  0  0
  -27.2546  -21.4210   19.9298 C   0  0  0  0  0  0
  -27.5079  -24.4675   20.3760 C   0  0  0  0  0  0
  -26.0623  -12.8294   17.7550 C   0  0  0  0  0  0
  -26.6811  -20.0464   19.0781 C   0  0  1  0  0  0
  -28.3813  -12.3990   19.9520 N   0  0  0  0  0  0
  -26.8301  -18.5449   19.5457 N   0  0  0  0  0  0
  -26.7002  -15.7694   21.2994 N   0  3  0  0  0  0
  -31.5572  -11.4730   18.9982 H   0  0  0  0  0  0
  -30.0456  -10.7595   19.0904 H   0  0  0  0  0  0
  -29.1976  -12.3860   17.2342 H   0  0  0  0  0  0
  -30.7242  -13.1465   17.1899 H   0  0  0  0  0  0
  -28.8251  -15.1448   17.7587 H   0  0  0  0  0  0
  -30.1329  -15.2673   18.5992 H   0  0  0  0  0  0
  -28.7479  -15.5629   20.6867 H   0  0  0  0  0  0
  -29.6569  -13.7659   22.5479 H   0  0  0  0  0  0
  -30.5064  -14.6119   21.6901 H   0  0  0  0  0  0
  -25.2981   -9.6414   22.4558 H   0  0  0  0  0  0
  -24.0366   -7.5190   22.7509 H   0  0  0  0  0  0
  -21.1080   -8.8701   19.8901 H   0  0  0  0  0  0
  -22.3744  -10.9561   19.5779 H   0  0  0  0  0  0
  -21.2177   -7.6245   23.9663 H   0  0  0  0  0  0
  -21.1429   -6.0618   25.9014 H   0  0  0  0  0  0
  -22.0585   -2.7686   23.2770 H   0  0  0  0  0  0
  -22.3648  -11.8718   22.6044 H   0  0  0  0  0  0
  -20.9532  -12.8635   22.4052 H   0  0  0  0  0  0
  -24.5439  -15.6218   19.4435 H   0  0  0  0  0  0
  -23.3783  -15.2618   20.5139 H   0  0  0  0  0  0
  -26.7326  -32.5180   23.0948 H   0  0  0  0  0  0
  -25.0151  -33.9586   25.0309 H   0  0  0  0  0  0
  -22.7499  -31.3098   21.4049 H   0  0  0  0  0  0
  -23.3768  -35.9547   23.3282 H   0  0  0  0  0  0
  -24.3576  -36.8892   22.2060 H   0  0  0  0  0  0
  -23.7243  -37.6411   23.6707 H   0  0  0  0  0  0
  -26.1956  -31.4400   20.6378 H   0  0  0  0  0  0
  -26.8717  -30.7038   22.0536 H   0  0  0  0  0  0
  -28.0871  -28.6537   21.2158 H   0  0  0  0  0  0
  -25.7422  -25.8490   18.9189 H   0  0  0  0  0  0
  -23.8696  -27.3862   18.9303 H   0  0  0  0  0  0
  -23.8168  -30.6214   19.4136 H   0  0  0  0  0  0
  -22.7580  -29.3088   19.8271 H   0  0  0  0  0  0
  -25.1329  -36.1812   25.0790 H   0  0  0  0  0  0
  -21.0028  -28.3322   24.1336 H   0  0  0  0  0  0
  -20.5690  -26.2348   23.3617 H   0  0  0  0  0  0
  -21.6659  -26.7433   22.1189 H   0  0  0  0  0  0
  -19.6922  -25.6277   21.1260 H   0  0  0  0  0  0
  -19.6689  -27.3169   20.6719 H   0  0  0  0  0  0
  -17.4214  -26.6679   21.4035 H   0  0  0  0  0  0
  -18.0352  -26.0078   22.9028 H   0  0  0  0  0  0
  -19.7959  -30.7301   24.2223 H   0  0  0  0  0  0
  -17.5032  -31.6268   24.5168 H   0  0  0  0  0  0
  -15.5370  -30.2972   23.7672 H   0  0  0  0  0  0
  -15.8699  -28.0802   22.7093 H   0  0  0  0  0  0
  -24.5898  -30.7127   25.7740 H   0  0  0  0  0  0
  -24.8902  -32.2980   26.4754 H   0  0  0  0  0  0
  -25.7967  -30.9012   27.0258 H   0  0  0  0  0  0
  -26.3068  -29.6627   24.1409 H   0  0  0  0  0  0
  -27.3988  -29.7270   25.5026 H   0  0  0  0  0  0
  -27.9007  -30.4129   23.9782 H   0  0  0  0  0  0
  -27.2644  -33.3670   26.2033 H   0  0  0  0  0  0
  -28.3920  -32.6869   25.0396 H   0  0  0  0  0  0
  -28.0694  -31.8531   26.5521 H   0  0  0  0  0  0
  -28.2569  -38.0095   24.7518 H   0  0  0  0  0  0
  -28.1094  -36.2621   24.6279 H   0  0  0  0  0  0
  -27.2290  -37.1406   25.8865 H   0  0  0  0  0  0
  -20.9453  -29.8812   21.6806 H   0  0  0  0  0  0
  -26.0134  -38.2788   24.1421 H   0  0  0  0  0  0
  -27.1901  -11.7473   22.1584 H   0  0  0  0  0  0
  -28.5775  -12.0687   22.4864 H   0  0  0  0  0  0
  -27.9759  -14.8565   23.1323 H   0  0  0  0  0  0
  -26.4100  -14.2670   23.1116 H   0  0  0  0  0  0
  -27.6107  -13.6007   17.5733 H   0  0  0  0  0  0
  -27.6028  -16.1588   19.0830 H   0  0  0  0  0  0
  -25.3183  -14.6709   16.8350 H   0  0  0  0  0  0
  -24.6833  -13.2078   16.1054 H   0  0  0  0  0  0
  -26.3289  -13.7135   15.7519 H   0  0  0  0  0  0
  -26.7371  -10.7975   18.1878 H   0  0  0  0  0  0
  -27.2525  -11.3818   16.6082 H   0  0  0  0  0  0
  -25.5837  -10.8965   16.8683 H   0  0  0  0  0  0
  -24.9636  -21.2792   18.5642 H   0  0  0  0  0  0
  -24.6004  -20.0297   19.7467 H   0  0  0  0  0  0
  -24.8045  -19.6108   18.0382 H   0  0  0  0  0  0
  -25.1971  -17.2940   18.8849 H   0  0  0  0  0  0
  -26.5255  -17.2784   17.7933 H   0  0  0  0  0  0
  -26.4862  -23.2306   18.7787 H   0  0  0  0  0  0
  -28.1946  -23.0866   18.7156 H   0  0  0  0  0  0
  -26.6994  -21.4400   20.8677 H   0  0  0  0  0  0
  -28.2705  -21.1660   20.2351 H   0  0  0  0  0  0
  -28.1782  -24.1627   21.1794 H   0  0  0  0  0  0
  -26.5496  -24.5633   20.8897 H   0  0  0  0  0  0
  -25.1365  -12.7539   18.3097 H   0  0  0  0  0  0
  -27.1660  -20.0837   18.1037 H   0  0  0  0  0  0
  -26.5260  -18.5283   20.5142 H   0  0  0  0  0  0
  -27.0620  -16.6595   21.5972 H   0  0  0  0  0  0
  -25.6877  -15.8206   21.4183 H   0  0  0  0  0  0
  1 25  1  0  0  0
  1 30  2  0  0  0
  1 84  1  0  0  0
  2  3  1  0  0  0
  2 25  1  0  0  0
  2 87  1  0  0  0
  2 88  1  0  0  0
  3  4  1  0  0  0
  3 89  1  0  0  0
  3 90  1  0  0  0
  4  5  1  0  0  0
  4 91  1  0  0  0
  4 92  1  0  0  0
  5  6  1  0  0  0
  5 26  1  0  0  0
  5 93  1  0  0  0
  6 25  1  0  0  0
  6 94  1  0  0  0
  6 95  1  0  0  0
  7  8  2  0  0  0
  7 26  1  0  0  0
  7 29  1  0  0  0
  8  9  1  0  0  0
  8 22  1  0  0  0
  9 10  1  0  0  0
  9 27  2  0  0  0
 10 11  2  0  0  0
 10 15  1  0  0  0
 11 12  1  0  0  0
 11 96  1  0  0  0
 12 13  2  0  0  0
 12 97  1  0  0  0
 13 14  1  0  0  0
 13 31  1  0  0  0
 14 15  2  0  0  0
 14 98  1  0  0  0
 15 99  1  0  0  0
 16 17  2  0  0  0
 16 21  1  0  0  0
 16 31  1  0  0  0
 17 18  1  0  0  0
 17100  1  0  0  0
 18 19  2  0  0  0
 18101  1  0  0  0
 19 20  1  0  0  0
 19 24  1  0  0  0
 20 21  2  0  0  0
 20102  1  0  0  0
 21 23  1  0  0  0
 22 28  1  0  0  0
 22 32  2  0  0  0
 26 27  1  0  0  0
 28103  1  0  0  0
 28104  1  0  0  0
 29105  1  0  0  0
 29106  1  0  0  0
 33 34  1  0  0  0
 33 66  1  0  0  0
 33 70  2  0  0  0
 34 36  1  0  0  0
 34 59  1  0  0  0
 34107  1  0  0  0
 35 44  2  0  0  0
 35 45  1  0  0  0
 35 68  1  0  0  0
 36 56  1  0  0  0
 36108  1  0  0  0
 37 39  1  0  0  0
 37 47  1  0  0  0
 37 66  1  0  0  0
 37109  1  0  0  0
 38 43  2  0  0  0
 38 46  1  0  0  0
 38 47  1  0  0  0
 39 64  1  0  0  0
 39 67  2  0  0  0
 40 52  1  0  0  0
 40 53  2  0  0  0
 40 58  1  0  0  0
 41110  1  0  0  0
 41111  1  0  0  0
 41112  1  0  0  0
 41 48  1  0  0  0
 42 43  1  0  0  0
 42 66  1  0  0  0
 42113  1  0  0  0
 42114  1  0  0  0
 43 44  1  0  0  0
 44115  1  0  0  0
 45 46  2  0  0  0
 45116  1  0  0  0
 46117  1  0  0  0
 47118  1  0  0  0
 47119  1  0  0  0
 48 56  1  0  0  0
 48 65  1  0  0  0
 48120  1  0  0  0
 49 50  1  0  0  0
 49 53  1  0  0  0
 49 64  1  0  0  0
 49121  1  0  0  0
 50 51  1  0  0  0
 50122  1  0  0  0
 50123  1  0  0  0
 51 52  1  0  0  0
 51124  1  0  0  0
 51125  1  0  0  0
 52126  1  0  0  0
 52127  1  0  0  0
 53 54  1  0  0  0
 54 55  2  0  0  0
 54128  1  0  0  0
 55 57  1  0  0  0
 55129  1  0  0  0
 56 69  2  0  0  0
 57 58  2  0  0  0
 57130  1  0  0  0
 58131  1  0  0  0
 59 60  1  0  0  0
 59 61  1  0  0  0
 59 62  1  0  0  0
 60132  1  0  0  0
 60133  1  0  0  0
 60134  1  0  0  0
 61135  1  0  0  0
 61136  1  0  0  0
 61137  1  0  0  0
 62138  1  0  0  0
 62139  1  0  0  0
 62140  1  0  0  0
 63 65  1  0  0  0
 63141  1  0  0  0
 63142  1  0  0  0
 63143  1  0  0  0
 64144  1  0  0  0
 65145  1  0  0  0
 68 81  1  0  0  0
 71 72  1  0  0  0
 71 84  1  0  0  0
 71146  1  0  0  0
 71147  1  0  0  0
 72 86  1  0  0  0
 72148  1  0  0  0
 72149  1  0  0  0
 73 74  1  0  0  0
 73 82  1  0  0  0
 73 84  1  0  0  0
 73150  1  0  0  0
 74 78  1  0  0  0
 74 86  1  0  0  0
 74151  1  0  0  0
 75152  1  0  0  0
 75153  1  0  0  0
 75154  1  0  0  0
 75 82  1  0  0  0
 76 82  1  0  0  0
 76155  1  0  0  0
 76156  1  0  0  0
 76157  1  0  0  0
 77158  1  0  0  0
 77159  1  0  0  0
 77160  1  0  0  0
 77 83  1  0  0  0
 78 85  1  0  0  0
 78161  1  0  0  0
 78162  1  0  0  0
 79 80  1  0  0  0
 79 81  1  0  0  0
 79163  1  0  0  0
 79164  1  0  0  0
 80 83  1  0  0  0
 80165  1  0  0  0
 80166  1  0  0  0
 81167  1  0  0  0
 81168  1  0  0  0
 82169  1  0  0  0
 83 85  1  0  0  0
 83170  1  0  0  0
 85171  1  0  0  0
 86172  1  0  0  0
 86173  1  0  0  0
M  CHG  1  86   1
M  ISO  4   1 100  68 101  81 101  84 100
M  END
> <chiral flag>
0

> <version>
0

> <s_m_source_file>
/data/baiqing/PycharmProjects/Reinvent-master-3.2/result/LINK_invent/BTK/process_docking_weight1_custom_sum_contain_oxygen_bond_distance_aromatic_linkinvent_7_9_3/rearranged_h_0112.sdf

> <i_m_source_file_index>
94

> <r_mmod_Potential_Energy-OPLS-2005>
12525.939453125

> <r_mmod_Stretch_Energy-OPLS-2005>
5970.42822265625

> <r_mmod_Bend_Energy-OPLS-2005>
1356.98107910156

> <r_mmod_Torsional_Energy-OPLS-2005>
535.232421875

> <r_mmod_Improper_Torsional_Energy-OPLS-2005>
16.8701572418213

> <r_mmod_Van_der_Waal_Energy-OPLS-2005>
3291.28637695312

> <r_mmod_Electrostatic_Energy-OPLS-2005>
-317.039794921875

> <r_mmod_Solvation_Energy-OPLS-2005>
-428.885650634766

> <b_mmod_Minimization_Converged-OPLS-2005>
0

> <r_mmod_RMS_Derivative-OPLS-2005>
7.87074851989746

$$$$
