0
                    3D
 Structure written by MMmdl.
175186  0  0  1  0            999 V2000
  -30.6828  -14.6696   20.4805 C   0  0  0  0  0  0
  -30.4177  -12.4159   19.4493 C   0  0  0  0  0  0
  -29.4910  -12.4974   18.2187 C   0  0  0  0  0  0
  -28.0193  -12.3253   18.6399 C   0  0  0  0  0  0
  -27.6342  -13.2137   19.8516 C   0  0  2  0  0  0
  -28.6907  -13.1607   20.9764 C   0  0  0  0  0  0
  -25.2507  -13.8142   20.5750 C   0  0  0  0  0  0
  -24.1785  -13.0399   20.9231 C   0  0  0  0  0  0
  -24.6371  -11.6879   20.8794 C   0  0  0  0  0  0
  -23.9058  -10.4265   21.0432 C   0  0  0  0  0  0
  -24.3607   -9.4182   21.9206 C   0  0  0  0  0  0
  -23.6270   -8.2227   22.0776 C   0  0  0  0  0  0
  -22.4259   -8.0275   21.3559 C   0  0  0  0  0  0
  -21.9908   -9.0253   20.4657 C   0  0  0  0  0  0
  -22.7237  -10.2123   20.3065 C   0  0  0  0  0  0
  -21.6852   -6.0734   22.5283 C   0  0  0  0  0  0
  -21.4018   -6.5647   23.8218 C   0  0  0  0  0  0
  -21.3649   -5.6807   24.9180 C   0  0  0  0  0  0
  -21.6038   -4.3071   24.7240 C   0  0  0  0  0  0
  -21.8823   -3.8148   23.4370 C   0  0  0  0  0  0
  -21.9195   -4.6959   22.3417 C   0  0  0  0  0  0
  -22.7811  -13.5199   21.1868 C   0  0  0  0  0  0
  -22.1665   -4.2138   21.0993 F   0  0  0  0  0  0
  -21.5607   -3.4563   25.7755 F   0  0  0  0  0  0
  -29.9969  -13.4823   20.3834 N   0  0  0  0  0  0
  -26.2908  -12.9297   20.3359 N   0  0  0  0  0  0
  -25.9288  -11.6465   20.5817 N   0  0  0  0  0  0
  -22.0457  -12.8189   22.0412 N   0  0  0  0  0  0
  -25.4186  -15.1876   20.4185 N   0  0  0  0  0  0
  -31.8800  -14.7255   20.1896 O   0  0  0  0  0  0
  -21.6615   -6.8876   21.4244 O   0  0  0  0  0  0
  -22.3510  -14.5505   20.6705 O   0  0  0  0  0  0
  -24.6277  -31.8606   23.2039 C   0  0  0  0  0  0
  -25.9123  -32.4781   23.8363 C   0  0  1  0  0  0
  -27.2150  -27.3094   20.1084 C   0  0  0  0  0  0
  -25.5938  -33.8581   24.2284 N   0  0  0  0  0  0
  -23.4203  -30.4876   21.5479 C   0  0  2  0  0  0
  -24.8639  -28.9488   20.1091 C   0  0  0  0  0  0
  -22.7476  -29.4633   22.4934 C   0  0  0  0  0  0
  -18.0293  -28.1386   22.8494 C   0  0  0  0  0  0
  -24.1488  -36.7293   23.2634 C   0  0  0  0  0  0
  -25.9648  -30.7885   21.3771 C   0  0  0  0  0  0
  -26.0373  -29.4177   20.7143 C   0  0  0  0  0  0
  -27.2164  -28.6107   20.7046 C   0  0  0  0  0  0
  -26.0145  -26.9051   19.4735 C   0  0  0  0  0  0
  -24.8555  -27.6981   19.4803 C   0  0  0  0  0  0
  -23.6341  -29.8298   20.1619 C   0  0  0  0  0  0
  -25.4116  -36.3082   24.0324 C   0  0  1  0  0  0
  -20.5890  -28.3694   23.1281 C   0  0  2  0  0  0
  -20.6781  -26.9415   22.5412 C   0  0  0  0  0  0
  -19.5754  -26.6385   21.5216 C   0  0  0  0  0  0
  -18.1932  -26.7931   22.1628 C   0  0  0  0  0  0
  -19.1543  -28.8855   23.2885 C   0  0  0  0  0  0
  -18.9464  -30.1456   23.8903 C   0  0  0  0  0  0
  -17.6465  -30.6586   24.0568 C   0  0  0  0  0  0
  -25.9058  -34.9450   23.5099 C   0  0  0  0  0  0
  -16.5354  -29.9086   23.6330 C   0  0  0  0  0  0
  -16.7279  -28.6501   23.0358 C   0  0  0  0  0  0
  -26.4510  -31.6578   25.0728 C   0  0  0  0  0  0
  -25.3732  -31.3705   26.1440 C   0  0  0  0  0  0
  -27.0360  -30.2999   24.6179 C   0  0  0  0  0  0
  -27.6063  -32.4310   25.7513 C   0  0  0  0  0  0
  -27.5590  -37.1791   24.8459 C   0  0  0  0  0  0
  -21.4189  -29.3050   22.3669 N   0  0  0  0  0  0
  -26.4291  -37.3784   23.9417 N   0  0  0  0  0  0
  -24.6899  -31.0613   22.0994 N   0  0  0  0  0  0
  -23.4197  -28.8167   23.3009 O   0  0  0  0  0  0
  -28.3167  -26.4327   20.1713 O   0  0  0  0  0  0
  -26.5627  -34.8916   22.4664 O   0  0  0  0  0  0
  -23.5435  -32.1424   23.7347 O   0  0  0  0  0  0
  -31.0724  -21.7728   20.3826 C   0  0  0  0  0  0
  -30.5188  -24.1413   19.9579 C   0  0  0  0  0  0
  -28.7515  -22.4750   20.3991 C   0  0  0  0  0  0
  -31.4724  -23.1055   20.1600 C   0  0  0  0  0  0
  -29.1345  -23.8575   20.1435 C   0  0  0  0  0  0
  -29.7147  -21.3995   20.4468 C   0  0  0  0  0  0
  -30.5134  -26.1626   18.2470 C   0  0  0  0  0  0
  -31.9454  -25.7346   18.3898 C   0  0  0  0  0  0
  -26.4817  -22.6283   21.7480 C   0  0  0  0  0  0
  -26.8515  -21.1727   21.6938 C   0  0  0  0  0  0
  -31.0072  -18.1764   21.2822 C   0  0  0  0  0  0
  -29.5375  -17.8586   19.2533 C   0  0  0  0  0  0
  -30.4429  -16.8107   21.8168 C   0  0  0  0  0  0
  -29.0460  -16.5114   19.8834 C   0  0  0  0  0  0
  -30.9794  -25.5223   19.5432 C   0  0  0  0  0  0
  -27.2997  -22.1055   20.5827 C   0  0  0  0  0  0
  -30.2063  -18.9213   20.1722 C   0  0  0  0  0  0
  -32.9694  -23.3761   20.1284 C   0  0  0  0  0  0
  -28.0500  -24.9902   19.9247 C   0  0  0  0  0  0
  -30.0006  -15.8337   20.7914 N   0  0  0  0  0  0
  -29.3315  -20.0389   20.5860 O   0  0  0  0  0  0
  -31.4577  -12.5197   19.1370 H   0  0  0  0  0  0
  -30.3442  -11.4384   19.9292 H   0  0  0  0  0  0
  -29.7610  -11.7327   17.4885 H   0  0  0  0  0  0
  -29.6207  -13.4583   17.7194 H   0  0  0  0  0  0
  -27.8668  -11.2744   18.8902 H   0  0  0  0  0  0
  -27.3601  -12.5351   17.7969 H   0  0  0  0  0  0
  -27.6011  -14.2237   19.4652 H   0  0  0  0  0  0
  -28.7159  -12.1727   21.4378 H   0  0  0  0  0  0
  -28.4372  -13.8651   21.7707 H   0  0  0  0  0  0
  -25.2755   -9.5637   22.4784 H   0  0  0  0  0  0
  -23.9973   -7.4612   22.7503 H   0  0  0  0  0  0
  -21.0844   -8.8772   19.8952 H   0  0  0  0  0  0
  -22.3710  -10.9673   19.6174 H   0  0  0  0  0  0
  -21.2024   -7.6159   23.9712 H   0  0  0  0  0  0
  -21.1462   -6.0542   25.9080 H   0  0  0  0  0  0
  -22.0612   -2.7609   23.2870 H   0  0  0  0  0  0
  -22.4102  -11.9847   22.4776 H   0  0  0  0  0  0
  -21.1077  -13.1212   22.2623 H   0  0  0  0  0  0
  -24.6525  -15.8413   20.5369 H   0  0  0  0  0  0
  -26.2761  -15.6317   20.1165 H   0  0  0  0  0  0
  -26.7189  -32.5457   23.1111 H   0  0  0  0  0  0
  -25.0076  -33.9734   25.0420 H   0  0  0  0  0  0
  -22.7136  -31.3092   21.4085 H   0  0  0  0  0  0
  -23.3773  -35.9602   23.3254 H   0  0  0  0  0  0
  -24.3589  -36.8967   22.2059 H   0  0  0  0  0  0
  -23.7208  -37.6458   23.6698 H   0  0  0  0  0  0
  -26.0979  -31.5533   20.6114 H   0  0  0  0  0  0
  -26.8447  -30.8338   22.0069 H   0  0  0  0  0  0
  -28.1144  -28.9644   21.1916 H   0  0  0  0  0  0
  -25.9239  -25.9530   18.9730 H   0  0  0  0  0  0
  -23.9569  -27.3335   19.0020 H   0  0  0  0  0  0
  -23.7541  -30.6104   19.4095 H   0  0  0  0  0  0
  -22.7525  -29.2623   19.8572 H   0  0  0  0  0  0
  -25.1285  -36.1930   25.0812 H   0  0  0  0  0  0
  -20.9988  -28.3280   24.1403 H   0  0  0  0  0  0
  -20.5691  -26.2302   23.3617 H   0  0  0  0  0  0
  -21.6649  -26.7455   22.1203 H   0  0  0  0  0  0
  -19.6916  -25.6300   21.1237 H   0  0  0  0  0  0
  -19.6681  -27.3199   20.6749 H   0  0  0  0  0  0
  -17.4205  -26.6699   21.4024 H   0  0  0  0  0  0
  -18.0318  -26.0069   22.9014 H   0  0  0  0  0  0
  -19.7939  -30.7272   24.2272 H   0  0  0  0  0  0
  -17.5020  -31.6265   24.5174 H   0  0  0  0  0  0
  -15.5353  -30.2993   23.7642 H   0  0  0  0  0  0
  -15.8683  -28.0815   22.7075 H   0  0  0  0  0  0
  -24.5935  -30.7025   25.7765 H   0  0  0  0  0  0
  -24.8889  -32.2859   26.4838 H   0  0  0  0  0  0
  -25.8050  -30.8908   27.0228 H   0  0  0  0  0  0
  -26.2939  -29.6737   24.1211 H   0  0  0  0  0  0
  -27.4071  -29.7261   25.4682 H   0  0  0  0  0  0
  -27.8803  -30.4292   23.9406 H   0  0  0  0  0  0
  -27.2678  -33.3625   26.2064 H   0  0  0  0  0  0
  -28.3894  -32.6834   25.0351 H   0  0  0  0  0  0
  -28.0705  -31.8442   26.5447 H   0  0  0  0  0  0
  -28.2558  -38.0139   24.7568 H   0  0  0  0  0  0
  -28.1133  -36.2662   24.6208 H   0  0  0  0  0  0
  -27.2311  -37.1343   25.8861 H   0  0  0  0  0  0
  -20.9356  -29.8781   21.6895 H   0  0  0  0  0  0
  -26.0165  -38.2846   24.1464 H   0  0  0  0  0  0
  -31.8440  -21.0272   20.5036 H   0  0  0  0  0  0
  -29.8845  -25.5767   17.5799 H   0  0  0  0  0  0
  -30.3171  -27.2332   18.2537 H   0  0  0  0  0  0
  -32.6890  -26.5228   18.4891 H   0  0  0  0  0  0
  -32.2531  -24.8745   17.7989 H   0  0  0  0  0  0
  -26.9817  -23.2391   22.4981 H   0  0  0  0  0  0
  -25.4393  -22.8781   21.5624 H   0  0  0  0  0  0
  -26.0494  -20.4694   21.4791 H   0  0  0  0  0  0
  -27.5899  -20.8307   22.4173 H   0  0  0  0  0  0
  -31.9966  -17.9639   20.8741 H   0  0  0  0  0  0
  -31.1855  -18.8543   22.1171 H   0  0  0  0  0  0
  -28.7254  -18.3251   18.6953 H   0  0  0  0  0  0
  -30.2742  -17.5859   18.4957 H   0  0  0  0  0  0
  -29.5882  -17.0139   22.4636 H   0  0  0  0  0  0
  -31.1889  -16.3465   22.4662 H   0  0  0  0  0  0
  -28.8131  -15.8588   19.0446 H   0  0  0  0  0  0
  -28.1145  -16.6752   20.4264 H   0  0  0  0  0  0
  -31.0852  -26.1693   20.4126 H   0  0  0  0  0  0
  -26.8031  -22.0003   19.6203 H   0  0  0  0  0  0
  -30.9497  -19.3680   19.5121 H   0  0  0  0  0  0
  -33.4965  -22.7103   20.8121 H   0  0  0  0  0  0
  -33.2137  -24.3927   20.4366 H   0  0  0  0  0  0
  -33.3652  -23.2066   19.1266 H   0  0  0  0  0  0
  -27.1754  -24.7408   20.5182 H   0  0  0  0  0  0
  -27.7628  -24.8788   18.8785 H   0  0  0  0  0  0
  1 25  1  0  0  0
  1 30  2  0  0  0
  1 90  1  0  0  0
  2  3  1  0  0  0
  2 25  1  0  0  0
  2 92  1  0  0  0
  2 93  1  0  0  0
  3  4  1  0  0  0
  3 94  1  0  0  0
  3 95  1  0  0  0
  4  5  1  0  0  0
  4 96  1  0  0  0
  4 97  1  0  0  0
  5  6  1  0  0  0
  5 26  1  0  0  0
  5 98  1  0  0  0
  6 25  1  0  0  0
  6 99  1  0  0  0
  6100  1  0  0  0
  7  8  2  0  0  0
  7 26  1  0  0  0
  7 29  1  0  0  0
  8  9  1  0  0  0
  8 22  1  0  0  0
  9 10  1  0  0  0
  9 27  2  0  0  0
 10 11  2  0  0  0
 10 15  1  0  0  0
 11 12  1  0  0  0
 11101  1  0  0  0
 12 13  2  0  0  0
 12102  1  0  0  0
 13 14  1  0  0  0
 13 31  1  0  0  0
 14 15  2  0  0  0
 14103  1  0  0  0
 15104  1  0  0  0
 16 17  2  0  0  0
 16 21  1  0  0  0
 16 31  1  0  0  0
 17 18  1  0  0  0
 17105  1  0  0  0
 18 19  2  0  0  0
 18106  1  0  0  0
 19 20  1  0  0  0
 19 24  1  0  0  0
 20 21  2  0  0  0
 20107  1  0  0  0
 21 23  1  0  0  0
 22 28  1  0  0  0
 22 32  2  0  0  0
 26 27  1  0  0  0
 28108  1  0  0  0
 28109  1  0  0  0
 29110  1  0  0  0
 29111  1  0  0  0
 33 34  1  0  0  0
 33 66  1  0  0  0
 33 70  2  0  0  0
 34 36  1  0  0  0
 34 59  1  0  0  0
 34112  1  0  0  0
 35 44  2  0  0  0
 35 45  1  0  0  0
 35 68  1  0  0  0
 36 56  1  0  0  0
 36113  1  0  0  0
 37 39  1  0  0  0
 37 47  1  0  0  0
 37 66  1  0  0  0
 37114  1  0  0  0
 38 43  2  0  0  0
 38 46  1  0  0  0
 38 47  1  0  0  0
 39 64  1  0  0  0
 39 67  2  0  0  0
 40 52  1  0  0  0
 40 53  2  0  0  0
 40 58  1  0  0  0
 41115  1  0  0  0
 41116  1  0  0  0
 41117  1  0  0  0
 41 48  1  0  0  0
 42 43  1  0  0  0
 42 66  1  0  0  0
 42118  1  0  0  0
 42119  1  0  0  0
 43 44  1  0  0  0
 44120  1  0  0  0
 45 46  2  0  0  0
 45121  1  0  0  0
 46122  1  0  0  0
 47123  1  0  0  0
 47124  1  0  0  0
 48 56  1  0  0  0
 48 65  1  0  0  0
 48125  1  0  0  0
 49 50  1  0  0  0
 49 53  1  0  0  0
 49 64  1  0  0  0
 49126  1  0  0  0
 50 51  1  0  0  0
 50127  1  0  0  0
 50128  1  0  0  0
 51 52  1  0  0  0
 51129  1  0  0  0
 51130  1  0  0  0
 52131  1  0  0  0
 52132  1  0  0  0
 53 54  1  0  0  0
 54 55  2  0  0  0
 54133  1  0  0  0
 55 57  1  0  0  0
 55134  1  0  0  0
 56 69  2  0  0  0
 57 58  2  0  0  0
 57135  1  0  0  0
 58136  1  0  0  0
 59 60  1  0  0  0
 59 61  1  0  0  0
 59 62  1  0  0  0
 60137  1  0  0  0
 60138  1  0  0  0
 60139  1  0  0  0
 61140  1  0  0  0
 61141  1  0  0  0
 61142  1  0  0  0
 62143  1  0  0  0
 62144  1  0  0  0
 62145  1  0  0  0
 63 65  1  0  0  0
 63146  1  0  0  0
 63147  1  0  0  0
 63148  1  0  0  0
 64149  1  0  0  0
 65150  1  0  0  0
 68 89  1  0  0  0
 71 74  2  0  0  0
 71 76  1  0  0  0
 71151  1  0  0  0
 72 74  1  0  0  0
 72 75  2  0  0  0
 72 85  1  0  0  0
 73 75  1  0  0  0
 73 76  2  0  0  0
 73 86  1  0  0  0
 74 88  1  0  0  0
 75 89  1  0  0  0
 76 91  1  0  0  0
 77 78  1  0  0  0
 77 85  1  0  0  0
 77152  1  0  0  0
 77153  1  0  0  0
 78 85  1  0  0  0
 78154  1  0  0  0
 78155  1  0  0  0
 79 80  1  0  0  0
 79 86  1  0  0  0
 79156  1  0  0  0
 79157  1  0  0  0
 80 86  1  0  0  0
 80158  1  0  0  0
 80159  1  0  0  0
 81 83  1  0  0  0
 81 87  1  0  0  0
 81160  1  0  0  0
 81161  1  0  0  0
 82 84  1  0  0  0
 82 87  1  0  0  0
 82162  1  0  0  0
 82163  1  0  0  0
 83 90  1  0  0  0
 83164  1  0  0  0
 83165  1  0  0  0
 84 90  1  0  0  0
 84166  1  0  0  0
 84167  1  0  0  0
 85168  1  0  0  0
 86169  1  0  0  0
 87 91  1  0  0  0
 87170  1  0  0  0
 88171  1  0  0  0
 88172  1  0  0  0
 88173  1  0  0  0
 89174  1  0  0  0
 89175  1  0  0  0
M  ISO  4   1 100  68 101  89 101  90 100
M  END
> <chiral flag>
0

> <version>
0

> <s_m_source_file>
/data/baiqing/PycharmProjects/Reinvent-master-3.2/result/LINK_invent/BTK/process_docking_weight1_custom_sum_contain_oxygen_bond_distance_aromatic_linkinvent_7_9_3/rearranged_h_0170.sdf

> <i_m_source_file_index>
1

> <r_mmod_Potential_Energy-OPLS-2005>
422.733093261719

> <r_mmod_Stretch_Energy-OPLS-2005>
94.6620559692383

> <r_mmod_Bend_Energy-OPLS-2005>
166.847122192383

> <r_mmod_Torsional_Energy-OPLS-2005>
414.106048583984

> <r_mmod_Improper_Torsional_Energy-OPLS-2005>
4.08483171463013

> <r_mmod_Van_der_Waal_Energy-OPLS-2005>
155.77961730957

> <r_mmod_Electrostatic_Energy-OPLS-2005>
-281.883087158203

> <r_mmod_Solvation_Energy-OPLS-2005>
-193.298629760742

> <b_mmod_Minimization_Converged-OPLS-2005>
0

> <r_mmod_RMS_Derivative-OPLS-2005>
1.74174916744232

$$$$
1
                    3D
 Structure written by MMmdl.
160170  0  0  1  0            999 V2000
  -30.6531  -14.6160   20.5200 C   0  0  0  0  0  0
  -30.4428  -12.3929   19.4316 C   0  0  0  0  0  0
  -29.4980  -12.4981   18.2156 C   0  0  0  0  0  0
  -28.0264  -12.3281   18.6423 C   0  0  0  0  0  0
  -27.6550  -13.2121   19.8621 C   0  0  2  0  0  0
  -28.7027  -13.0763   20.9885 C   0  0  0  0  0  0
  -25.2585  -13.8171   20.5673 C   0  0  0  0  0  0
  -24.1851  -13.0442   20.9181 C   0  0  0  0  0  0
  -24.6417  -11.6919   20.8752 C   0  0  0  0  0  0
  -23.9077  -10.4298   21.0421 C   0  0  0  0  0  0
  -24.3633   -9.4203   21.9193 C   0  0  0  0  0  0
  -23.6303   -8.2236   22.0762 C   0  0  0  0  0  0
  -22.4278   -8.0285   21.3544 C   0  0  0  0  0  0
  -21.9926   -9.0261   20.4641 C   0  0  0  0  0  0
  -22.7258  -10.2139   20.3054 C   0  0  0  0  0  0
  -21.6855   -6.0737   22.5266 C   0  0  0  0  0  0
  -21.4007   -6.5632   23.8194 C   0  0  0  0  0  0
  -21.3670   -5.6785   24.9151 C   0  0  0  0  0  0
  -21.6044   -4.3044   24.7201 C   0  0  0  0  0  0
  -21.8825   -3.8148   23.4315 C   0  0  0  0  0  0
  -21.9199   -4.6972   22.3379 C   0  0  0  0  0  0
  -22.7867  -13.5240   21.1820 C   0  0  0  0  0  0
  -22.1668   -4.2161   21.0956 F   0  0  0  0  0  0
  -21.5646   -3.4530   25.7707 F   0  0  0  0  0  0
  -30.0181  -13.4078   20.4167 N   0  0  0  0  0  0
  -26.3017  -12.9347   20.3334 N   0  0  0  0  0  0
  -25.9343  -11.6509   20.5787 N   0  0  0  0  0  0
  -22.0501  -12.8219   22.0358 N   0  0  0  0  0  0
  -25.4291  -15.1890   20.4027 N   0  0  0  0  0  0
  -31.8185  -14.7762   20.1513 O   0  0  0  0  0  0
  -21.6639   -6.8883   21.4225 O   0  0  0  0  0  0
  -22.3549  -14.5548   20.6665 O   0  0  0  0  0  0
  -24.6253  -31.8634   23.2077 C   0  0  0  0  0  0
  -25.9100  -32.4796   23.8399 C   0  0  1  0  0  0
  -27.1960  -27.3261   20.1014 C   0  0  0  0  0  0
  -25.5929  -33.8597   24.2304 N   0  0  0  0  0  0
  -23.4167  -30.4988   21.5459 C   0  0  2  0  0  0
  -24.8565  -28.9681   20.1018 C   0  0  0  0  0  0
  -22.7482  -29.4666   22.4866 C   0  0  0  0  0  0
  -18.0304  -28.1387   22.8487 C   0  0  0  0  0  0
  -24.1489  -36.7255   23.2651 C   0  0  0  0  0  0
  -25.9642  -30.7945   21.3858 C   0  0  0  0  0  0
  -26.0302  -29.4302   20.7112 C   0  0  0  0  0  0
  -27.2057  -28.6245   20.6967 C   0  0  0  0  0  0
  -25.9946  -26.9189   19.4699 C   0  0  0  0  0  0
  -24.8427  -27.7198   19.4695 C   0  0  0  0  0  0
  -23.6301  -29.8511   20.1563 C   0  0  0  0  0  0
  -25.4114  -36.3089   24.0347 C   0  0  1  0  0  0
  -20.5913  -28.3678   23.1257 C   0  0  2  0  0  0
  -20.6781  -26.9398   22.5383 C   0  0  0  0  0  0
  -19.5756  -26.6381   21.5192 C   0  0  0  0  0  0
  -18.1932  -26.7930   22.1603 C   0  0  0  0  0  0
  -19.1561  -28.8842   23.2883 C   0  0  0  0  0  0
  -18.9499  -30.1447   23.8908 C   0  0  0  0  0  0
  -17.6498  -30.6580   24.0584 C   0  0  0  0  0  0
  -25.9058  -34.9463   23.5118 C   0  0  0  0  0  0
  -16.5390  -29.9085   23.6345 C   0  0  0  0  0  0
  -16.7292  -28.6509   23.0350 C   0  0  0  0  0  0
  -26.4466  -31.6641   25.0797 C   0  0  0  0  0  0
  -25.3665  -31.3797   26.1507 C   0  0  0  0  0  0
  -27.0312  -30.3053   24.6292 C   0  0  0  0  0  0
  -27.6026  -32.4400   25.7537 C   0  0  0  0  0  0
  -27.5583  -37.1802   24.8478 C   0  0  0  0  0  0
  -21.4191  -29.3067   22.3659 N   0  0  0  0  0  0
  -26.4294  -37.3786   23.9424 N   0  0  0  0  0  0
  -24.6864  -31.0709   22.1000 N   0  0  0  0  0  0
  -23.4225  -28.8159   23.2873 O   0  0  0  0  0  0
  -28.2929  -26.4546   20.1527 O   0  0  0  0  0  0
  -26.5614  -34.8915   22.4678 O   0  0  0  0  0  0
  -23.5410  -32.1407   23.7411 O   0  0  0  0  0  0
  -31.5529  -23.5920   20.0958 C   0  0  0  0  0  0
  -30.4702  -24.4644   20.2757 C   0  0  0  0  0  0
  -31.2534  -22.2442   19.8412 C   0  0  0  0  0  0
  -29.9543  -21.7424   19.9163 C   0  0  0  0  0  0
  -29.1557  -23.9768   20.1535 C   0  0  0  0  0  0
  -32.1701  -21.2821   19.1446 C   0  0  0  0  0  0
  -31.1547  -20.3506   18.4453 C   0  0  0  0  0  0
  -29.0880  -18.1754   20.7646 C   0  0  0  0  0  0
  -30.9271  -17.9253   19.9810 C   0  0  0  0  0  0
  -29.9226  -20.2562   19.3984 C   0  0  1  0  0  0
  -30.2003  -17.1340   21.0772 C   0  0  2  0  0  0
  -27.9974  -25.0079   20.0037 C   0  0  0  0  0  0
  -28.8963  -22.6187   20.0167 N   0  0  0  0  0  0
  -29.8710  -15.6786   20.8725 N   0  0  0  0  0  0
  -30.1660  -19.1417   20.4182 N   0  3  1  0  0  0
  -31.4725  -12.5453   19.1027 H   0  0  0  0  0  0
  -30.4139  -11.3932   19.8711 H   0  0  0  0  0  0
  -29.7590  -11.7483   17.4667 H   0  0  0  0  0  0
  -29.6287  -13.4689   17.7355 H   0  0  0  0  0  0
  -27.8728  -11.2772   18.8917 H   0  0  0  0  0  0
  -27.3623  -12.5410   17.8044 H   0  0  0  0  0  0
  -27.6728  -14.2434   19.5113 H   0  0  0  0  0  0
  -28.7109  -12.0620   21.3913 H   0  0  0  0  0  0
  -28.4514  -13.7256   21.8287 H   0  0  0  0  0  0
  -25.2787   -9.5672   22.4763 H   0  0  0  0  0  0
  -24.0014   -7.4627   22.7486 H   0  0  0  0  0  0
  -21.0871   -8.8782   19.8937 H   0  0  0  0  0  0
  -22.3744  -10.9678   19.6153 H   0  0  0  0  0  0
  -21.1976   -7.6138   23.9691 H   0  0  0  0  0  0
  -21.1497   -6.0511   25.9055 H   0  0  0  0  0  0
  -22.0601   -2.7615   23.2796 H   0  0  0  0  0  0
  -22.4131  -11.9876   22.4719 H   0  0  0  0  0  0
  -21.1099  -13.1222   22.2529 H   0  0  0  0  0  0
  -24.6521  -15.8354   20.4923 H   0  0  0  0  0  0
  -26.2569  -15.6204   20.0146 H   0  0  0  0  0  0
  -26.7171  -32.5456   23.1154 H   0  0  0  0  0  0
  -25.0158  -33.9776   25.0494 H   0  0  0  0  0  0
  -22.7094  -31.3213   21.4110 H   0  0  0  0  0  0
  -23.3798  -35.9556   23.3312 H   0  0  0  0  0  0
  -24.3576  -36.8842   22.2071 H   0  0  0  0  0  0
  -23.7180  -37.6435   23.6644 H   0  0  0  0  0  0
  -26.1283  -31.5728   20.6387 H   0  0  0  0  0  0
  -26.8328  -30.8119   22.0330 H   0  0  0  0  0  0
  -28.1077  -28.9757   21.1804 H   0  0  0  0  0  0
  -25.8934  -25.9701   18.9692 H   0  0  0  0  0  0
  -23.9443  -27.3681   18.9832 H   0  0  0  0  0  0
  -23.7490  -30.6373   19.4092 H   0  0  0  0  0  0
  -22.7489  -29.2899   19.8437 H   0  0  0  0  0  0
  -25.1284  -36.1960   25.0840 H   0  0  0  0  0  0
  -21.0061  -28.3255   24.1355 H   0  0  0  0  0  0
  -20.5650  -26.2295   23.3575 H   0  0  0  0  0  0
  -21.6639  -26.7377   22.1202 H   0  0  0  0  0  0
  -19.6907  -25.6301   21.1189 H   0  0  0  0  0  0
  -19.6709  -27.3228   20.6750 H   0  0  0  0  0  0
  -17.4208  -26.6745   21.3996 H   0  0  0  0  0  0
  -18.0321  -26.0048   22.8964 H   0  0  0  0  0  0
  -19.7984  -30.7266   24.2274 H   0  0  0  0  0  0
  -17.5059  -31.6258   24.5192 H   0  0  0  0  0  0
  -15.5400  -30.2995   23.7658 H   0  0  0  0  0  0
  -15.8691  -28.0830   22.7054 H   0  0  0  0  0  0
  -24.5982  -30.6947   25.7897 H   0  0  0  0  0  0
  -24.8679  -32.2945   26.4734 H   0  0  0  0  0  0
  -25.7995  -30.9216   27.0399 H   0  0  0  0  0  0
  -26.2923  -29.6841   24.1230 H   0  0  0  0  0  0
  -27.3895  -29.7290   25.4829 H   0  0  0  0  0  0
  -27.8822  -30.4333   23.9599 H   0  0  0  0  0  0
  -27.2673  -33.3784   26.1948 H   0  0  0  0  0  0
  -28.3891  -32.6809   25.0378 H   0  0  0  0  0  0
  -28.0598  -31.8622   26.5570 H   0  0  0  0  0  0
  -28.2600  -38.0108   24.7529 H   0  0  0  0  0  0
  -28.1077  -36.2628   24.6291 H   0  0  0  0  0  0
  -27.2299  -37.1422   25.8886 H   0  0  0  0  0  0
  -20.9350  -29.8850   21.6951 H   0  0  0  0  0  0
  -26.0179  -38.2860   24.1443 H   0  0  0  0  0  0
  -32.5640  -23.9689   20.0308 H   0  0  0  0  0  0
  -30.6483  -25.5267   20.3861 H   0  0  0  0  0  0
  -32.7928  -20.7579   19.8709 H   0  0  0  0  0  0
  -32.8206  -21.7876   18.4277 H   0  0  0  0  0  0
  -31.5864  -19.4243   18.0733 H   0  0  0  0  0  0
  -30.8147  -20.8708   17.5474 H   0  0  0  0  0  0
  -28.4969  -18.4704   21.6320 H   0  0  0  0  0  0
  -28.4493  -17.9004   19.9204 H   0  0  0  0  0  0
  -30.6880  -17.5789   18.9722 H   0  0  0  0  0  0
  -32.0064  -18.0093   20.1256 H   0  0  0  0  0  0
  -29.0200  -20.0480   18.8224 H   0  0  0  0  0  0
  -30.6598  -17.3111   22.0544 H   0  0  0  0  0  0
  -27.1943  -24.7172   20.6840 H   0  0  0  0  0  0
  -27.6423  -24.8347   18.9877 H   0  0  0  0  0  0
  -28.9292  -15.4145   21.1226 H   0  0  0  0  0  0
  -30.5663  -19.5327   21.2569 H   0  0  0  0  0  0
  1 25  1  0  0  0
  1 30  2  0  0  0
  1 84  1  0  0  0
  2  3  1  0  0  0
  2 25  1  0  0  0
  2 86  1  0  0  0
  2 87  1  0  0  0
  3  4  1  0  0  0
  3 88  1  0  0  0
  3 89  1  0  0  0
  4  5  1  0  0  0
  4 90  1  0  0  0
  4 91  1  0  0  0
  5  6  1  0  0  0
  5 26  1  0  0  0
  5 92  1  0  0  0
  6 25  1  0  0  0
  6 93  1  0  0  0
  6 94  1  0  0  0
  7  8  2  0  0  0
  7 26  1  0  0  0
  7 29  1  0  0  0
  8  9  1  0  0  0
  8 22  1  0  0  0
  9 10  1  0  0  0
  9 27  2  0  0  0
 10 11  2  0  0  0
 10 15  1  0  0  0
 11 12  1  0  0  0
 11 95  1  0  0  0
 12 13  2  0  0  0
 12 96  1  0  0  0
 13 14  1  0  0  0
 13 31  1  0  0  0
 14 15  2  0  0  0
 14 97  1  0  0  0
 15 98  1  0  0  0
 16 17  2  0  0  0
 16 21  1  0  0  0
 16 31  1  0  0  0
 17 18  1  0  0  0
 17 99  1  0  0  0
 18 19  2  0  0  0
 18100  1  0  0  0
 19 20  1  0  0  0
 19 24  1  0  0  0
 20 21  2  0  0  0
 20101  1  0  0  0
 21 23  1  0  0  0
 22 28  1  0  0  0
 22 32  2  0  0  0
 26 27  1  0  0  0
 28102  1  0  0  0
 28103  1  0  0  0
 29104  1  0  0  0
 29105  1  0  0  0
 33 34  1  0  0  0
 33 66  1  0  0  0
 33 70  2  0  0  0
 34 36  1  0  0  0
 34 59  1  0  0  0
 34106  1  0  0  0
 35 44  2  0  0  0
 35 45  1  0  0  0
 35 68  1  0  0  0
 36 56  1  0  0  0
 36107  1  0  0  0
 37 39  1  0  0  0
 37 47  1  0  0  0
 37 66  1  0  0  0
 37108  1  0  0  0
 38 43  2  0  0  0
 38 46  1  0  0  0
 38 47  1  0  0  0
 39 64  1  0  0  0
 39 67  2  0  0  0
 40 52  1  0  0  0
 40 53  2  0  0  0
 40 58  1  0  0  0
 41109  1  0  0  0
 41110  1  0  0  0
 41111  1  0  0  0
 41 48  1  0  0  0
 42 43  1  0  0  0
 42 66  1  0  0  0
 42112  1  0  0  0
 42113  1  0  0  0
 43 44  1  0  0  0
 44114  1  0  0  0
 45 46  2  0  0  0
 45115  1  0  0  0
 46116  1  0  0  0
 47117  1  0  0  0
 47118  1  0  0  0
 48 56  1  0  0  0
 48 65  1  0  0  0
 48119  1  0  0  0
 49 50  1  0  0  0
 49 53  1  0  0  0
 49 64  1  0  0  0
 49120  1  0  0  0
 50 51  1  0  0  0
 50121  1  0  0  0
 50122  1  0  0  0
 51 52  1  0  0  0
 51123  1  0  0  0
 51124  1  0  0  0
 52125  1  0  0  0
 52126  1  0  0  0
 53 54  1  0  0  0
 54 55  2  0  0  0
 54127  1  0  0  0
 55 57  1  0  0  0
 55128  1  0  0  0
 56 69  2  0  0  0
 57 58  2  0  0  0
 57129  1  0  0  0
 58130  1  0  0  0
 59 60  1  0  0  0
 59 61  1  0  0  0
 59 62  1  0  0  0
 60131  1  0  0  0
 60132  1  0  0  0
 60133  1  0  0  0
 61134  1  0  0  0
 61135  1  0  0  0
 61136  1  0  0  0
 62137  1  0  0  0
 62138  1  0  0  0
 62139  1  0  0  0
 63 65  1  0  0  0
 63140  1  0  0  0
 63141  1  0  0  0
 63142  1  0  0  0
 64143  1  0  0  0
 65144  1  0  0  0
 68 82  1  0  0  0
 71 72  2  0  0  0
 71 73  1  0  0  0
 71145  1  0  0  0
 72 75  1  0  0  0
 72146  1  0  0  0
 73 74  2  0  0  0
 73 76  1  0  0  0
 74 80  1  0  0  0
 74 83  1  0  0  0
 75 82  1  0  0  0
 75 83  2  0  0  0
 76 77  1  0  0  0
 76147  1  0  0  0
 76148  1  0  0  0
 77149  1  0  0  0
 77150  1  0  0  0
 77 80  1  0  0  0
 78 81  1  0  0  0
 78151  1  0  0  0
 78152  1  0  0  0
 78 85  1  0  0  0
 79 81  1  0  0  0
 79 85  1  0  0  0
 79153  1  0  0  0
 79154  1  0  0  0
 80 85  1  0  0  0
 80155  1  0  0  0
 81 84  1  0  0  0
 81156  1  0  0  0
 82157  1  0  0  0
 82158  1  0  0  0
 84159  1  0  0  0
 85160  1  0  0  0
M  CHG  1  85   1
M  ISO  4   1 100  68 101  82 101  84 100
M  END
> <chiral flag>
0

> <version>
0

> <s_m_source_file>
/data/baiqing/PycharmProjects/Reinvent-master-3.2/result/LINK_invent/BTK/process_docking_weight1_custom_sum_contain_oxygen_bond_distance_aromatic_linkinvent_7_9_3/rearranged_h_0170.sdf

> <i_m_source_file_index>
2

> <r_mmod_Potential_Energy-OPLS-2005>
-137.468215942383

> <r_mmod_Stretch_Energy-OPLS-2005>
80.5528793334961

> <r_mmod_Bend_Energy-OPLS-2005>
223.520904541016

> <r_mmod_Torsional_Energy-OPLS-2005>
270.929504394531

> <r_mmod_Improper_Torsional_Energy-OPLS-2005>
12.1637449264526

> <r_mmod_Van_der_Waal_Energy-OPLS-2005>
155.754333496094

> <r_mmod_Electrostatic_Energy-OPLS-2005>
-454.504669189453

> <r_mmod_Solvation_Energy-OPLS-2005>
-473.931762695312

> <b_mmod_Minimization_Converged-OPLS-2005>
0

> <r_mmod_RMS_Derivative-OPLS-2005>
3.81812644004822

$$$$
2
                    3D
 Structure written by MMmdl.
166177  0  0  1  0            999 V2000
  -30.6612  -14.7758   20.4584 C   0  0  0  0  0  0
  -30.4158  -12.4892   19.4654 C   0  0  0  0  0  0
  -29.4956  -12.5057   18.2295 C   0  0  0  0  0  0
  -28.0275  -12.3255   18.6553 C   0  0  0  0  0  0
  -27.6337  -13.2400   19.8484 C   0  0  2  0  0  0
  -28.6866  -13.2080   20.9762 C   0  0  0  0  0  0
  -25.2489  -13.8214   20.5743 C   0  0  0  0  0  0
  -24.1788  -13.0447   20.9232 C   0  0  0  0  0  0
  -24.6376  -11.6926   20.8760 C   0  0  0  0  0  0
  -23.9054  -10.4298   21.0391 C   0  0  0  0  0  0
  -24.3605   -9.4209   21.9176 C   0  0  0  0  0  0
  -23.6280   -8.2246   22.0756 C   0  0  0  0  0  0
  -22.4272   -8.0269   21.3536 C   0  0  0  0  0  0
  -21.9898   -9.0243   20.4639 C   0  0  0  0  0  0
  -22.7224  -10.2126   20.3048 C   0  0  0  0  0  0
  -21.6853   -6.0719   22.5264 C   0  0  0  0  0  0
  -21.4016   -6.5629   23.8200 C   0  0  0  0  0  0
  -21.3667   -5.6789   24.9161 C   0  0  0  0  0  0
  -21.6055   -4.3049   24.7216 C   0  0  0  0  0  0
  -21.8817   -3.8132   23.4339 C   0  0  0  0  0  0
  -21.9191   -4.6947   22.3390 C   0  0  0  0  0  0
  -22.7811  -13.5228   21.1871 C   0  0  0  0  0  0
  -22.1661   -4.2132   21.0967 F   0  0  0  0  0  0
  -21.5629   -3.4538   25.7733 F   0  0  0  0  0  0
  -29.9630  -13.5849   20.3614 N   0  0  0  0  0  0
  -26.2910  -12.9437   20.3332 N   0  0  0  0  0  0
  -25.9321  -11.6573   20.5802 N   0  0  0  0  0  0
  -22.0464  -12.8211   22.0420 N   0  0  0  0  0  0
  -25.4179  -15.1932   20.4156 N   0  0  0  0  0  0
  -31.8724  -14.7272   20.2209 O   0  0  0  0  0  0
  -21.6638   -6.8864   21.4231 O   0  0  0  0  0  0
  -22.3506  -14.5531   20.6714 O   0  0  0  0  0  0
  -24.6350  -31.8547   23.2036 C   0  0  0  0  0  0
  -25.9166  -32.4744   23.8382 C   0  0  1  0  0  0
  -27.2067  -27.2350   20.1242 C   0  0  0  0  0  0
  -25.5942  -33.8551   24.2281 N   0  0  0  0  0  0
  -23.4321  -30.4829   21.5483 C   0  0  2  0  0  0
  -24.8802  -28.9420   20.1072 C   0  0  0  0  0  0
  -22.7518  -29.4611   22.4925 C   0  0  0  0  0  0
  -18.0280  -28.1411   22.8480 C   0  0  0  0  0  0
  -24.1486  -36.7284   23.2634 C   0  0  0  0  0  0
  -25.9846  -30.7578   21.3928 C   0  0  0  0  0  0
  -26.0569  -29.3828   20.7276 C   0  0  0  0  0  0
  -27.2247  -28.5424   20.7300 C   0  0  0  0  0  0
  -26.0169  -26.9083   19.4262 C   0  0  0  0  0  0
  -24.8691  -27.7140   19.4422 C   0  0  0  0  0  0
  -23.6509  -29.8288   20.1625 C   0  0  0  0  0  0
  -25.4103  -36.3058   24.0332 C   0  0  1  0  0  0
  -20.5897  -28.3728   23.1262 C   0  0  2  0  0  0
  -20.6788  -26.9447   22.5404 C   0  0  0  0  0  0
  -19.5756  -26.6408   21.5211 C   0  0  0  0  0  0
  -18.1933  -26.7955   22.1614 C   0  0  0  0  0  0
  -19.1542  -28.8888   23.2855 C   0  0  0  0  0  0
  -18.9457  -30.1482   23.8877 C   0  0  0  0  0  0
  -17.6466  -30.6611   24.0569 C   0  0  0  0  0  0
  -25.9053  -34.9428   23.5106 C   0  0  0  0  0  0
  -16.5351  -29.9114   23.6349 C   0  0  0  0  0  0
  -16.7270  -28.6531   23.0367 C   0  0  0  0  0  0
  -26.4521  -31.6582   25.0783 C   0  0  0  0  0  0
  -25.3737  -31.3708   26.1490 C   0  0  0  0  0  0
  -27.0390  -30.2985   24.6328 C   0  0  0  0  0  0
  -27.6047  -32.4370   25.7537 C   0  0  0  0  0  0
  -27.5585  -37.1768   24.8449 C   0  0  0  0  0  0
  -21.4230  -29.3057   22.3635 N   0  0  0  0  0  0
  -26.4266  -37.3773   23.9441 N   0  0  0  0  0  0
  -24.7031  -31.0506   22.1028 N   0  0  0  0  0  0
  -23.4198  -28.8122   23.3016 O   0  0  0  0  0  0
  -28.2288  -26.2435   20.2294 O   0  0  0  0  0  0
  -26.5639  -34.8909   22.4681 O   0  0  0  0  0  0
  -23.5490  -32.1402   23.7307 O   0  0  0  0  0  0
  -28.0762  -21.1267   21.3417 C   0  0  0  0  0  0
  -27.8212  -22.5326   21.3230 C   0  0  0  0  0  0
  -28.4932  -23.4287   20.4742 C   0  0  0  0  0  0
  -29.4829  -22.8078   19.6585 C   0  0  0  0  0  0
  -29.0697  -20.5677   20.4936 C   0  0  0  0  0  0
  -26.7322  -23.2357   22.0938 C   0  0  0  0  0  0
  -26.9129  -24.7346   21.7539 C   0  0  0  0  0  0
  -29.9236  -17.2125   22.4939 C   0  0  0  0  0  0
  -30.9705  -18.2271   21.9556 C   0  0  0  0  0  0
  -28.3639  -18.0393   20.7170 C   0  0  0  0  0  0
  -30.7229  -17.1832   19.6565 C   0  0  0  0  0  0
  -27.7218  -24.8242   20.4357 C   0  0  1  0  0  0
  -29.0768  -16.7132   21.3024 C   0  0  1  0  0  0
  -30.6749  -18.5514   20.4658 C   0  0  1  0  0  0
  -30.2467  -23.6083   18.6241 C   0  0  0  0  0  0
  -29.7694  -21.4490   19.7038 N   0  0  0  0  0  0
  -29.3268  -19.1343   20.3899 N   0  0  0  0  0  0
  -30.0274  -16.0333   20.3515 N   0  0  0  0  0  0
  -31.4530  -12.5995   19.1471 H   0  0  0  0  0  0
  -30.3691  -11.5256   19.9760 H   0  0  0  0  0  0
  -29.7822  -11.7189   17.5308 H   0  0  0  0  0  0
  -29.6110  -13.4505   17.6949 H   0  0  0  0  0  0
  -27.8970  -11.2788   18.9343 H   0  0  0  0  0  0
  -27.3623  -12.4973   17.8087 H   0  0  0  0  0  0
  -27.6182  -14.2558   19.4539 H   0  0  0  0  0  0
  -28.7497  -12.2147   21.4254 H   0  0  0  0  0  0
  -28.4245  -13.8824   21.7895 H   0  0  0  0  0  0
  -25.2728   -9.5713   22.4773 H   0  0  0  0  0  0
  -23.9985   -7.4659   22.7511 H   0  0  0  0  0  0
  -21.0818   -8.8761   19.8961 H   0  0  0  0  0  0
  -22.3646  -10.9670   19.6179 H   0  0  0  0  0  0
  -21.2016   -7.6137   23.9693 H   0  0  0  0  0  0
  -21.1499   -6.0514   25.9065 H   0  0  0  0  0  0
  -22.0589   -2.7592   23.2837 H   0  0  0  0  0  0
  -22.4096  -11.9856   22.4769 H   0  0  0  0  0  0
  -21.1087  -13.1239   22.2648 H   0  0  0  0  0  0
  -24.6494  -15.8467   20.5226 H   0  0  0  0  0  0
  -26.2647  -15.6260   20.0718 H   0  0  0  0  0  0
  -26.7219  -32.5391   23.1119 H   0  0  0  0  0  0
  -25.0063  -33.9680   25.0409 H   0  0  0  0  0  0
  -22.7270  -31.3045   21.4098 H   0  0  0  0  0  0
  -23.3772  -35.9582   23.3210 H   0  0  0  0  0  0
  -24.3568  -36.9031   22.2064 H   0  0  0  0  0  0
  -23.7224  -37.6444   23.6736 H   0  0  0  0  0  0
  -26.1304  -31.5171   20.6226 H   0  0  0  0  0  0
  -26.8570  -30.8047   22.0319 H   0  0  0  0  0  0
  -28.1150  -28.8677   21.2510 H   0  0  0  0  0  0
  -25.9121  -26.0015   18.8577 H   0  0  0  0  0  0
  -23.9800  -27.3798   18.9250 H   0  0  0  0  0  0
  -23.7754  -30.6129   19.4154 H   0  0  0  0  0  0
  -22.7674  -29.2679   19.8525 H   0  0  0  0  0  0
  -25.1271  -36.1878   25.0824 H   0  0  0  0  0  0
  -20.9960  -28.3340   24.1396 H   0  0  0  0  0  0
  -20.5761  -26.2321   23.3608 H   0  0  0  0  0  0
  -21.6646  -26.7527   22.1153 H   0  0  0  0  0  0
  -19.6924  -25.6312   21.1262 H   0  0  0  0  0  0
  -19.6705  -27.3192   20.6734 H   0  0  0  0  0  0
  -17.4208  -26.6705   21.4007 H   0  0  0  0  0  0
  -18.0316  -26.0104   22.9014 H   0  0  0  0  0  0
  -19.7934  -30.7299   24.2242 H   0  0  0  0  0  0
  -17.5027  -31.6290   24.5182 H   0  0  0  0  0  0
  -15.5348  -30.3013   23.7703 H   0  0  0  0  0  0
  -15.8661  -28.0858   22.7106 H   0  0  0  0  0  0
  -24.5916  -30.7052   25.7833 H   0  0  0  0  0  0
  -24.8896  -32.2841   26.4946 H   0  0  0  0  0  0
  -25.8053  -30.8874   27.0264 H   0  0  0  0  0  0
  -26.2995  -29.6697   24.1352 H   0  0  0  0  0  0
  -27.4031  -29.7304   25.4909 H   0  0  0  0  0  0
  -27.8900  -30.4245   23.9631 H   0  0  0  0  0  0
  -27.2662  -33.3741   26.1986 H   0  0  0  0  0  0
  -28.3886  -32.6842   25.0360 H   0  0  0  0  0  0
  -28.0673  -31.8591   26.5555 H   0  0  0  0  0  0
  -28.2506  -38.0163   24.7627 H   0  0  0  0  0  0
  -28.1194  -36.2699   24.6108 H   0  0  0  0  0  0
  -27.2317  -37.1222   25.8852 H   0  0  0  0  0  0
  -20.9423  -29.8761   21.6822 H   0  0  0  0  0  0
  -26.0142  -38.2822   24.1537 H   0  0  0  0  0  0
  -27.4846  -20.4972   21.9903 H   0  0  0  0  0  0
  -26.8031  -23.0472   23.1646 H   0  0  0  0  0  0
  -25.7634  -22.8786   21.7455 H   0  0  0  0  0  0
  -27.5226  -25.1829   22.5410 H   0  0  0  0  0  0
  -25.9713  -25.2836   21.7385 H   0  0  0  0  0  0
  -29.2754  -17.6962   23.2268 H   0  0  0  0  0  0
  -30.4102  -16.3861   23.0138 H   0  0  0  0  0  0
  -31.9747  -17.8124   22.0485 H   0  0  0  0  0  0
  -30.9575  -19.1365   22.5584 H   0  0  0  0  0  0
  -27.6210  -18.3967   21.4294 H   0  0  0  0  0  0
  -27.8107  -17.7912   19.8102 H   0  0  0  0  0  0
  -31.7728  -16.9669   19.4587 H   0  0  0  0  0  0
  -30.2781  -17.3139   18.6685 H   0  0  0  0  0  0
  -27.0659  -24.5809   19.6074 H   0  0  0  0  0  0
  -28.3079  -16.0196   21.6365 H   0  0  0  0  0  0
  -31.4040  -19.2576   20.0633 H   0  0  0  0  0  0
  -29.7132  -24.5188   18.3574 H   0  0  0  0  0  0
  -30.3907  -23.0278   17.7126 H   0  0  0  0  0  0
  -31.2254  -23.8911   19.0111 H   0  0  0  0  0  0
  1 25  1  0  0  0
  1 30  2  0  0  0
  1 88  1  0  0  0
  2  3  1  0  0  0
  2 25  1  0  0  0
  2 89  1  0  0  0
  2 90  1  0  0  0
  3  4  1  0  0  0
  3 91  1  0  0  0
  3 92  1  0  0  0
  4  5  1  0  0  0
  4 93  1  0  0  0
  4 94  1  0  0  0
  5  6  1  0  0  0
  5 26  1  0  0  0
  5 95  1  0  0  0
  6 25  1  0  0  0
  6 96  1  0  0  0
  6 97  1  0  0  0
  7  8  2  0  0  0
  7 26  1  0  0  0
  7 29  1  0  0  0
  8  9  1  0  0  0
  8 22  1  0  0  0
  9 10  1  0  0  0
  9 27  2  0  0  0
 10 11  2  0  0  0
 10 15  1  0  0  0
 11 12  1  0  0  0
 11 98  1  0  0  0
 12 13  2  0  0  0
 12 99  1  0  0  0
 13 14  1  0  0  0
 13 31  1  0  0  0
 14 15  2  0  0  0
 14100  1  0  0  0
 15101  1  0  0  0
 16 17  2  0  0  0
 16 21  1  0  0  0
 16 31  1  0  0  0
 17 18  1  0  0  0
 17102  1  0  0  0
 18 19  2  0  0  0
 18103  1  0  0  0
 19 20  1  0  0  0
 19 24  1  0  0  0
 20 21  2  0  0  0
 20104  1  0  0  0
 21 23  1  0  0  0
 22 28  1  0  0  0
 22 32  2  0  0  0
 26 27  1  0  0  0
 28105  1  0  0  0
 28106  1  0  0  0
 29107  1  0  0  0
 29108  1  0  0  0
 33 34  1  0  0  0
 33 66  1  0  0  0
 33 70  2  0  0  0
 34 36  1  0  0  0
 34 59  1  0  0  0
 34109  1  0  0  0
 35 44  2  0  0  0
 35 45  1  0  0  0
 35 68  1  0  0  0
 36 56  1  0  0  0
 36110  1  0  0  0
 37 39  1  0  0  0
 37 47  1  0  0  0
 37 66  1  0  0  0
 37111  1  0  0  0
 38 43  2  0  0  0
 38 46  1  0  0  0
 38 47  1  0  0  0
 39 64  1  0  0  0
 39 67  2  0  0  0
 40 52  1  0  0  0
 40 53  2  0  0  0
 40 58  1  0  0  0
 41112  1  0  0  0
 41113  1  0  0  0
 41114  1  0  0  0
 41 48  1  0  0  0
 42 43  1  0  0  0
 42 66  1  0  0  0
 42115  1  0  0  0
 42116  1  0  0  0
 43 44  1  0  0  0
 44117  1  0  0  0
 45 46  2  0  0  0
 45118  1  0  0  0
 46119  1  0  0  0
 47120  1  0  0  0
 47121  1  0  0  0
 48 56  1  0  0  0
 48 65  1  0  0  0
 48122  1  0  0  0
 49 50  1  0  0  0
 49 53  1  0  0  0
 49 64  1  0  0  0
 49123  1  0  0  0
 50 51  1  0  0  0
 50124  1  0  0  0
 50125  1  0  0  0
 51 52  1  0  0  0
 51126  1  0  0  0
 51127  1  0  0  0
 52128  1  0  0  0
 52129  1  0  0  0
 53 54  1  0  0  0
 54 55  2  0  0  0
 54130  1  0  0  0
 55 57  1  0  0  0
 55131  1  0  0  0
 56 69  2  0  0  0
 57 58  2  0  0  0
 57132  1  0  0  0
 58133  1  0  0  0
 59 60  1  0  0  0
 59 61  1  0  0  0
 59 62  1  0  0  0
 60134  1  0  0  0
 60135  1  0  0  0
 60136  1  0  0  0
 61137  1  0  0  0
 61138  1  0  0  0
 61139  1  0  0  0
 62140  1  0  0  0
 62141  1  0  0  0
 62142  1  0  0  0
 63 65  1  0  0  0
 63143  1  0  0  0
 63144  1  0  0  0
 63145  1  0  0  0
 64146  1  0  0  0
 65147  1  0  0  0
 68 82  1  0  0  0
 71 72  2  0  0  0
 71 75  1  0  0  0
 71148  1  0  0  0
 72 73  1  0  0  0
 72 76  1  0  0  0
 73 74  2  0  0  0
 73 82  1  0  0  0
 74 85  1  0  0  0
 74 86  1  0  0  0
 75 86  2  0  0  0
 75 87  1  0  0  0
 76 77  1  0  0  0
 76149  1  0  0  0
 76150  1  0  0  0
 77 82  1  0  0  0
 77151  1  0  0  0
 77152  1  0  0  0
 78 79  1  0  0  0
 78153  1  0  0  0
 78154  1  0  0  0
 78 83  1  0  0  0
 79155  1  0  0  0
 79156  1  0  0  0
 79 84  1  0  0  0
 80 83  1  0  0  0
 80 87  1  0  0  0
 80157  1  0  0  0
 80158  1  0  0  0
 81 84  1  0  0  0
 81 88  1  0  0  0
 81159  1  0  0  0
 81160  1  0  0  0
 82161  1  0  0  0
 83 88  1  0  0  0
 83162  1  0  0  0
 84 87  1  0  0  0
 84163  1  0  0  0
 85164  1  0  0  0
 85165  1  0  0  0
 85166  1  0  0  0
M  ISO  4   1 100  68 101  82 101  88 100
M  END
> <chiral flag>
0

> <version>
0

> <s_m_source_file>
/data/baiqing/PycharmProjects/Reinvent-master-3.2/result/LINK_invent/BTK/process_docking_weight1_custom_sum_contain_oxygen_bond_distance_aromatic_linkinvent_7_9_3/rearranged_h_0170.sdf

> <i_m_source_file_index>
3

> <r_mmod_Potential_Energy-OPLS-2005>
444.961791992188

> <r_mmod_Stretch_Energy-OPLS-2005>
137.611938476562

> <r_mmod_Bend_Energy-OPLS-2005>
298.399597167969

> <r_mmod_Torsional_Energy-OPLS-2005>
427.051849365234

> <r_mmod_Improper_Torsional_Energy-OPLS-2005>
21.5059013366699

> <r_mmod_Van_der_Waal_Energy-OPLS-2005>
178.103073120117

> <r_mmod_Electrostatic_Energy-OPLS-2005>
-510.059478759766

> <r_mmod_Solvation_Energy-OPLS-2005>
-222.510559082031

> <b_mmod_Minimization_Converged-OPLS-2005>
0

> <r_mmod_RMS_Derivative-OPLS-2005>
2.50582575798035

$$$$
3
                    3D
 Structure written by MMmdl.
165175  0  0  1  0            999 V2000
  -30.6810  -14.8065   20.4440 C   0  0  0  0  0  0
  -30.4109  -12.5128   19.4672 C   0  0  0  0  0  0
  -29.4929  -12.5100   18.2289 C   0  0  0  0  0  0
  -28.0262  -12.3242   18.6552 C   0  0  0  0  0  0
  -27.6283  -13.2430   19.8413 C   0  0  2  0  0  0
  -28.6843  -13.2411   20.9682 C   0  0  0  0  0  0
  -25.2449  -13.8210   20.5718 C   0  0  0  0  0  0
  -24.1766  -13.0440   20.9243 C   0  0  0  0  0  0
  -24.6378  -11.6923   20.8779 C   0  0  0  0  0  0
  -23.9067  -10.4291   21.0414 C   0  0  0  0  0  0
  -24.3623   -9.4203   21.9184 C   0  0  0  0  0  0
  -23.6301   -8.2235   22.0747 C   0  0  0  0  0  0
  -22.4286   -8.0271   21.3536 C   0  0  0  0  0  0
  -21.9918   -9.0249   20.4648 C   0  0  0  0  0  0
  -22.7245  -10.2129   20.3063 C   0  0  0  0  0  0
  -21.6850   -6.0727   22.5278 C   0  0  0  0  0  0
  -21.4009   -6.5637   23.8211 C   0  0  0  0  0  0
  -21.3660   -5.6793   24.9176 C   0  0  0  0  0  0
  -21.6052   -4.3054   24.7224 C   0  0  0  0  0  0
  -21.8820   -3.8138   23.4344 C   0  0  0  0  0  0
  -21.9190   -4.6954   22.3398 C   0  0  0  0  0  0
  -22.7789  -13.5218   21.1878 C   0  0  0  0  0  0
  -22.1664   -4.2140   21.0974 F   0  0  0  0  0  0
  -21.5631   -3.4540   25.7735 F   0  0  0  0  0  0
  -29.9564  -13.6262   20.3472 N   0  0  0  0  0  0
  -26.2886  -12.9447   20.3314 N   0  0  0  0  0  0
  -25.9316  -11.6579   20.5802 N   0  0  0  0  0  0
  -22.0439  -12.8215   22.0442 N   0  0  0  0  0  0
  -25.4083  -15.1932   20.4076 N   0  0  0  0  0  0
  -31.8925  -14.7109   20.2284 O   0  0  0  0  0  0
  -21.6645   -6.8872   21.4238 O   0  0  0  0  0  0
  -22.3487  -14.5522   20.6719 O   0  0  0  0  0  0
  -24.6339  -31.8534   23.1973 C   0  0  0  0  0  0
  -25.9149  -32.4750   23.8327 C   0  0  1  0  0  0
  -27.2126  -27.2377   20.1404 C   0  0  0  0  0  0
  -25.5934  -33.8552   24.2243 N   0  0  0  0  0  0
  -23.4331  -30.4752   21.5411 C   0  0  2  0  0  0
  -24.8826  -28.9213   20.1088 C   0  0  0  0  0  0
  -22.7527  -29.4588   22.4900 C   0  0  0  0  0  0
  -18.0295  -28.1396   22.8486 C   0  0  0  0  0  0
  -24.1487  -36.7281   23.2636 C   0  0  0  0  0  0
  -25.9822  -30.7589   21.3826 C   0  0  0  0  0  0
  -26.0560  -29.3800   20.7237 C   0  0  0  0  0  0
  -27.2294  -28.5509   20.7277 C   0  0  0  0  0  0
  -26.0239  -26.8599   19.4832 C   0  0  0  0  0  0
  -24.8728  -27.6709   19.4740 C   0  0  0  0  0  0
  -23.6542  -29.8108   20.1571 C   0  0  0  0  0  0
  -25.4113  -36.3067   24.0324 C   0  0  1  0  0  0
  -20.5902  -28.3707   23.1268 C   0  0  2  0  0  0
  -20.6783  -26.9420   22.5416 C   0  0  0  0  0  0
  -19.5757  -26.6386   21.5224 C   0  0  0  0  0  0
  -18.1937  -26.7937   22.1630 C   0  0  0  0  0  0
  -19.1549  -28.8869   23.2873 C   0  0  0  0  0  0
  -18.9466  -30.1468   23.8888 C   0  0  0  0  0  0
  -17.6464  -30.6595   24.0561 C   0  0  0  0  0  0
  -25.9060  -34.9439   23.5090 C   0  0  0  0  0  0
  -16.5355  -29.9086   23.6334 C   0  0  0  0  0  0
  -16.7282  -28.6508   23.0353 C   0  0  0  0  0  0
  -26.4502  -31.6586   25.0734 C   0  0  0  0  0  0
  -25.3709  -31.3775   26.1451 C   0  0  0  0  0  0
  -27.0332  -30.2981   24.6261 C   0  0  0  0  0  0
  -27.6056  -32.4330   25.7499 C   0  0  0  0  0  0
  -27.5585  -37.1784   24.8454 C   0  0  0  0  0  0
  -21.4226  -29.3042   22.3648 N   0  0  0  0  0  0
  -26.4280  -37.3775   23.9424 N   0  0  0  0  0  0
  -24.7021  -31.0477   22.0960 N   0  0  0  0  0  0
  -23.4213  -28.8124   23.3006 O   0  0  0  0  0  0
  -28.2485  -26.2694   20.1884 O   0  0  0  0  0  0
  -26.5639  -34.8914   22.4663 O   0  0  0  0  0  0
  -23.5481  -32.1368   23.7253 O   0  0  0  0  0  0
  -29.1187  -22.9838   19.5577 C   0  0  0  0  0  0
  -29.4387  -21.5793   19.4181 C   0  0  0  0  0  0
  -28.4075  -23.4920   20.6792 C   0  0  0  0  0  0
  -28.0728  -22.4549   21.6117 C   0  0  0  0  0  0
  -29.0593  -20.6240   20.4212 C   0  0  0  0  0  0
  -29.5722  -21.4584   16.8072 C   0  0  0  0  0  0
  -29.6707  -20.0314   17.2858 C   0  0  0  0  0  0
  -30.7198  -18.7194   20.3853 C   0  0  0  0  0  0
  -28.5336  -18.1729   21.0861 C   0  0  0  0  0  0
  -30.9453  -17.2481   19.8571 C   0  0  0  0  0  0
  -28.7412  -16.6276   20.6843 C   0  0  0  0  0  0
  -30.1602  -21.1592   18.1682 C   0  0  0  0  0  0
  -27.2984  -22.7857   22.8755 C   0  0  0  0  0  0
  -27.9003  -25.0072   20.9397 C   0  0  0  0  0  0
  -28.3783  -21.1163   21.4874 N   0  0  0  0  0  0
  -29.3291  -19.1828   20.3487 N   0  0  0  0  0  0
  -30.1232  -16.1138   20.4145 N   0  0  0  0  0  0
  -31.4492  -12.6145   19.1463 H   0  0  0  0  0  0
  -30.3601  -11.5566   19.9901 H   0  0  0  0  0  0
  -29.7870  -11.7180   17.5388 H   0  0  0  0  0  0
  -29.6030  -13.4498   17.6855 H   0  0  0  0  0  0
  -27.8970  -11.2793   18.9386 H   0  0  0  0  0  0
  -27.3606  -12.4922   17.8069 H   0  0  0  0  0  0
  -27.5982  -14.2496   19.4270 H   0  0  0  0  0  0
  -28.7596  -12.2551   21.4287 H   0  0  0  0  0  0
  -28.4149  -13.9198   21.7744 H   0  0  0  0  0  0
  -25.2754   -9.5697   22.4776 H   0  0  0  0  0  0
  -24.0000   -7.4632   22.7474 H   0  0  0  0  0  0
  -21.0840   -8.8785   19.8970 H   0  0  0  0  0  0
  -22.3687  -10.9677   19.6194 H   0  0  0  0  0  0
  -21.2006   -7.6148   23.9712 H   0  0  0  0  0  0
  -21.1486   -6.0521   25.9082 H   0  0  0  0  0  0
  -22.0599   -2.7598   23.2843 H   0  0  0  0  0  0
  -22.4049  -11.9880   22.4843 H   0  0  0  0  0  0
  -21.1058  -13.1255   22.2643 H   0  0  0  0  0  0
  -24.6315  -15.8387   20.5023 H   0  0  0  0  0  0
  -26.2451  -15.6283   20.0450 H   0  0  0  0  0  0
  -26.7218  -32.5393   23.1071 H   0  0  0  0  0  0
  -25.0058  -33.9681   25.0371 H   0  0  0  0  0  0
  -22.7310  -31.2985   21.3944 H   0  0  0  0  0  0
  -23.3764  -35.9598   23.3268 H   0  0  0  0  0  0
  -24.3582  -36.8939   22.2059 H   0  0  0  0  0  0
  -23.7216  -37.6461   23.6679 H   0  0  0  0  0  0
  -26.1254  -31.5188   20.6129 H   0  0  0  0  0  0
  -26.8579  -30.8076   22.0190 H   0  0  0  0  0  0
  -28.1246  -28.8919   21.2283 H   0  0  0  0  0  0
  -25.9705  -25.8951   18.9984 H   0  0  0  0  0  0
  -23.9769  -27.3162   18.9832 H   0  0  0  0  0  0
  -23.7811  -30.5883   19.4031 H   0  0  0  0  0  0
  -22.7725  -29.2459   19.8498 H   0  0  0  0  0  0
  -25.1289  -36.1906   25.0815 H   0  0  0  0  0  0
  -20.9996  -28.3288   24.1388 H   0  0  0  0  0  0
  -20.5694  -26.2315   23.3623 H   0  0  0  0  0  0
  -21.6647  -26.7440   22.1201 H   0  0  0  0  0  0
  -19.6912  -25.6294   21.1257 H   0  0  0  0  0  0
  -19.6695  -27.3192   20.6752 H   0  0  0  0  0  0
  -17.4210  -26.6692   21.4031 H   0  0  0  0  0  0
  -18.0324  -26.0082   22.9025 H   0  0  0  0  0  0
  -19.7943  -30.7289   24.2252 H   0  0  0  0  0  0
  -17.5018  -31.6272   24.5169 H   0  0  0  0  0  0
  -15.5355  -30.2984   23.7670 H   0  0  0  0  0  0
  -15.8683  -28.0826   22.7063 H   0  0  0  0  0  0
  -24.5863  -30.7146   25.7787 H   0  0  0  0  0  0
  -24.8923  -32.2960   26.4855 H   0  0  0  0  0  0
  -25.8002  -30.8960   27.0246 H   0  0  0  0  0  0
  -26.2920  -29.6741   24.1251 H   0  0  0  0  0  0
  -27.3937  -29.7246   25.4814 H   0  0  0  0  0  0
  -27.8842  -30.4222   23.9558 H   0  0  0  0  0  0
  -27.2659  -33.3631   26.2069 H   0  0  0  0  0  0
  -28.3862  -32.6895   25.0323 H   0  0  0  0  0  0
  -28.0732  -31.8464   26.5420 H   0  0  0  0  0  0
  -28.2571  -38.0113   24.7552 H   0  0  0  0  0  0
  -28.1110  -36.2649   24.6202 H   0  0  0  0  0  0
  -27.2319  -37.1342   25.8858 H   0  0  0  0  0  0
  -20.9423  -29.8762   21.6844 H   0  0  0  0  0  0
  -26.0158  -38.2839   24.1462 H   0  0  0  0  0  0
  -29.4060  -23.6716   18.7751 H   0  0  0  0  0  0
  -28.5739  -21.8895   16.7543 H   0  0  0  0  0  0
  -30.2538  -21.7579   16.0130 H   0  0  0  0  0  0
  -30.4200  -19.4020   16.8089 H   0  0  0  0  0  0
  -28.7450  -19.5277   17.5593 H   0  0  0  0  0  0
  -31.3500  -19.4040   19.8171 H   0  0  0  0  0  0
  -31.0688  -18.7887   21.4169 H   0  0  0  0  0  0
  -28.7649  -18.2907   22.1459 H   0  0  0  0  0  0
  -27.4778  -18.4296   20.9910 H   0  0  0  0  0  0
  -32.0118  -17.0614   19.9879 H   0  0  0  0  0  0
  -30.7887  -17.2446   18.7776 H   0  0  0  0  0  0
  -28.1771  -16.4548   19.7676 H   0  0  0  0  0  0
  -28.2638  -16.0258   21.4533 H   0  0  0  0  0  0
  -31.2359  -21.2803   18.2842 H   0  0  0  0  0  0
  -26.3709  -23.3064   22.6377 H   0  0  0  0  0  0
  -27.8930  -23.4216   23.5312 H   0  0  0  0  0  0
  -27.0326  -21.8866   23.4328 H   0  0  0  0  0  0
  -28.2030  -25.2343   21.9615 H   0  0  0  0  0  0
  -26.8160  -24.9219   20.9983 H   0  0  0  0  0  0
  1 25  1  0  0  0
  1 30  2  0  0  0
  1 87  1  0  0  0
  2  3  1  0  0  0
  2 25  1  0  0  0
  2 88  1  0  0  0
  2 89  1  0  0  0
  3  4  1  0  0  0
  3 90  1  0  0  0
  3 91  1  0  0  0
  4  5  1  0  0  0
  4 92  1  0  0  0
  4 93  1  0  0  0
  5  6  1  0  0  0
  5 26  1  0  0  0
  5 94  1  0  0  0
  6 25  1  0  0  0
  6 95  1  0  0  0
  6 96  1  0  0  0
  7  8  2  0  0  0
  7 26  1  0  0  0
  7 29  1  0  0  0
  8  9  1  0  0  0
  8 22  1  0  0  0
  9 10  1  0  0  0
  9 27  2  0  0  0
 10 11  2  0  0  0
 10 15  1  0  0  0
 11 12  1  0  0  0
 11 97  1  0  0  0
 12 13  2  0  0  0
 12 98  1  0  0  0
 13 14  1  0  0  0
 13 31  1  0  0  0
 14 15  2  0  0  0
 14 99  1  0  0  0
 15100  1  0  0  0
 16 17  2  0  0  0
 16 21  1  0  0  0
 16 31  1  0  0  0
 17 18  1  0  0  0
 17101  1  0  0  0
 18 19  2  0  0  0
 18102  1  0  0  0
 19 20  1  0  0  0
 19 24  1  0  0  0
 20 21  2  0  0  0
 20103  1  0  0  0
 21 23  1  0  0  0
 22 28  1  0  0  0
 22 32  2  0  0  0
 26 27  1  0  0  0
 28104  1  0  0  0
 28105  1  0  0  0
 29106  1  0  0  0
 29107  1  0  0  0
 33 34  1  0  0  0
 33 66  1  0  0  0
 33 70  2  0  0  0
 34 36  1  0  0  0
 34 59  1  0  0  0
 34108  1  0  0  0
 35 44  2  0  0  0
 35 45  1  0  0  0
 35 68  1  0  0  0
 36 56  1  0  0  0
 36109  1  0  0  0
 37 39  1  0  0  0
 37 47  1  0  0  0
 37 66  1  0  0  0
 37110  1  0  0  0
 38 43  2  0  0  0
 38 46  1  0  0  0
 38 47  1  0  0  0
 39 64  1  0  0  0
 39 67  2  0  0  0
 40 52  1  0  0  0
 40 53  2  0  0  0
 40 58  1  0  0  0
 41111  1  0  0  0
 41112  1  0  0  0
 41113  1  0  0  0
 41 48  1  0  0  0
 42 43  1  0  0  0
 42 66  1  0  0  0
 42114  1  0  0  0
 42115  1  0  0  0
 43 44  1  0  0  0
 44116  1  0  0  0
 45 46  2  0  0  0
 45117  1  0  0  0
 46118  1  0  0  0
 47119  1  0  0  0
 47120  1  0  0  0
 48 56  1  0  0  0
 48 65  1  0  0  0
 48121  1  0  0  0
 49 50  1  0  0  0
 49 53  1  0  0  0
 49 64  1  0  0  0
 49122  1  0  0  0
 50 51  1  0  0  0
 50123  1  0  0  0
 50124  1  0  0  0
 51 52  1  0  0  0
 51125  1  0  0  0
 51126  1  0  0  0
 52127  1  0  0  0
 52128  1  0  0  0
 53 54  1  0  0  0
 54 55  2  0  0  0
 54129  1  0  0  0
 55 57  1  0  0  0
 55130  1  0  0  0
 56 69  2  0  0  0
 57 58  2  0  0  0
 57131  1  0  0  0
 58132  1  0  0  0
 59 60  1  0  0  0
 59 61  1  0  0  0
 59 62  1  0  0  0
 60133  1  0  0  0
 60134  1  0  0  0
 60135  1  0  0  0
 61136  1  0  0  0
 61137  1  0  0  0
 61138  1  0  0  0
 62139  1  0  0  0
 62140  1  0  0  0
 62141  1  0  0  0
 63 65  1  0  0  0
 63142  1  0  0  0
 63143  1  0  0  0
 63144  1  0  0  0
 64145  1  0  0  0
 65146  1  0  0  0
 68 84  1  0  0  0
 71 72  2  0  0  0
 71 73  1  0  0  0
 71147  1  0  0  0
 72 75  1  0  0  0
 72 82  1  0  0  0
 73 74  2  0  0  0
 73 84  1  0  0  0
 74 83  1  0  0  0
 74 85  1  0  0  0
 75 85  2  0  0  0
 75 86  1  0  0  0
 76 77  1  0  0  0
 76 82  1  0  0  0
 76148  1  0  0  0
 76149  1  0  0  0
 77 82  1  0  0  0
 77150  1  0  0  0
 77151  1  0  0  0
 78 80  1  0  0  0
 78 86  1  0  0  0
 78152  1  0  0  0
 78153  1  0  0  0
 79 81  1  0  0  0
 79 86  1  0  0  0
 79154  1  0  0  0
 79155  1  0  0  0
 80 87  1  0  0  0
 80156  1  0  0  0
 80157  1  0  0  0
 81 87  1  0  0  0
 81158  1  0  0  0
 81159  1  0  0  0
 82160  1  0  0  0
 83161  1  0  0  0
 83162  1  0  0  0
 83163  1  0  0  0
 84164  1  0  0  0
 84165  1  0  0  0
M  ISO  4   1 100  68 101  84 101  87 100
M  END
> <chiral flag>
0

> <version>
0

> <s_m_source_file>
/data/baiqing/PycharmProjects/Reinvent-master-3.2/result/LINK_invent/BTK/process_docking_weight1_custom_sum_contain_oxygen_bond_distance_aromatic_linkinvent_7_9_3/rearranged_h_0170.sdf

> <i_m_source_file_index>
4

> <r_mmod_Potential_Energy-OPLS-2005>
334.609527587891

> <r_mmod_Stretch_Energy-OPLS-2005>
138.496353149414

> <r_mmod_Bend_Energy-OPLS-2005>
242.730407714844

> <r_mmod_Torsional_Energy-OPLS-2005>
388.125732421875

> <r_mmod_Improper_Torsional_Energy-OPLS-2005>
13.7689609527588

> <r_mmod_Van_der_Waal_Energy-OPLS-2005>
148.626953125

> <r_mmod_Electrostatic_Energy-OPLS-2005>
-495.862609863281

> <r_mmod_Solvation_Energy-OPLS-2005>
-221.032485961914

> <b_mmod_Minimization_Converged-OPLS-2005>
0

> <r_mmod_RMS_Derivative-OPLS-2005>
1.36820101737976

$$$$
4
                    3D
 Structure written by MMmdl.
161171  0  0  1  0            999 V2000
  -30.6813  -14.4576   20.5399 C   0  0  0  0  0  0
  -30.4265  -12.2896   19.4103 C   0  0  0  0  0  0
  -29.4896  -12.4939   18.2009 C   0  0  0  0  0  0
  -28.0116  -12.3518   18.6195 C   0  0  0  0  0  0
  -27.6603  -13.1918   19.8756 C   0  0  2  0  0  0
  -28.7076  -12.9751   20.9929 C   0  0  0  0  0  0
  -25.2602  -13.8123   20.5713 C   0  0  0  0  0  0
  -24.1831  -13.0422   20.9165 C   0  0  0  0  0  0
  -24.6370  -11.6883   20.8738 C   0  0  0  0  0  0
  -23.9034  -10.4280   21.0412 C   0  0  0  0  0  0
  -24.3581   -9.4194   21.9197 C   0  0  0  0  0  0
  -23.6260   -8.2232   22.0771 C   0  0  0  0  0  0
  -22.4254   -8.0268   21.3544 C   0  0  0  0  0  0
  -21.9891   -9.0245   20.4647 C   0  0  0  0  0  0
  -22.7214  -10.2124   20.3053 C   0  0  0  0  0  0
  -21.6843   -6.0723   22.5277 C   0  0  0  0  0  0
  -21.4010   -6.5640   23.8211 C   0  0  0  0  0  0
  -21.3657   -5.6796   24.9175 C   0  0  0  0  0  0
  -21.6043   -4.3059   24.7234 C   0  0  0  0  0  0
  -21.8816   -3.8141   23.4355 C   0  0  0  0  0  0
  -21.9188   -4.6950   22.3404 C   0  0  0  0  0  0
  -22.7853  -13.5232   21.1825 C   0  0  0  0  0  0
  -22.1651   -4.2132   21.0979 F   0  0  0  0  0  0
  -21.5637   -3.4551   25.7748 F   0  0  0  0  0  0
  -30.0364  -13.2684   20.4309 N   0  0  0  0  0  0
  -26.3018  -12.9261   20.3405 N   0  0  0  0  0  0
  -25.9293  -11.6439   20.5800 N   0  0  0  0  0  0
  -22.0477  -12.8230   22.0372 N   0  0  0  0  0  0
  -25.4372  -15.1842   20.4170 N   0  0  0  0  0  0
  -31.8474  -14.6417   20.1788 O   0  0  0  0  0  0
  -21.6622   -6.8870   21.4243 O   0  0  0  0  0  0
  -22.3544  -14.5546   20.6685 O   0  0  0  0  0  0
  -24.6126  -31.8699   23.2136 C   0  0  0  0  0  0
  -25.9026  -32.4839   23.8435 C   0  0  1  0  0  0
  -27.2433  -27.4549   20.0937 C   0  0  0  0  0  0
  -25.5889  -33.8639   24.2359 N   0  0  0  0  0  0
  -23.4028  -30.4902   21.5533 C   0  0  2  0  0  0
  -24.8529  -28.9525   20.1272 C   0  0  0  0  0  0
  -22.7405  -29.4649   22.5018 C   0  0  0  0  0  0
  -18.0267  -28.1388   22.8512 C   0  0  0  0  0  0
  -24.1481  -36.7310   23.2652 C   0  0  0  0  0  0
  -25.9301  -30.8350   21.3709 C   0  0  0  0  0  0
  -26.0098  -29.4661   20.7291 C   0  0  0  0  0  0
  -27.2100  -28.7194   20.7213 C   0  0  0  0  0  0
  -26.0753  -26.9500   19.4909 C   0  0  0  0  0  0
  -24.8765  -27.6880   19.5131 C   0  0  0  0  0  0
  -23.6146  -29.8191   20.1697 C   0  0  0  0  0  0
  -25.4114  -36.3128   24.0348 C   0  0  1  0  0  0
  -20.5862  -28.3662   23.1338 C   0  0  2  0  0  0
  -20.6760  -26.9400   22.5425 C   0  0  0  0  0  0
  -19.5725  -26.6384   21.5232 C   0  0  0  0  0  0
  -18.1906  -26.7933   22.1647 C   0  0  0  0  0  0
  -19.1520  -28.8849   23.2919 C   0  0  0  0  0  0
  -18.9452  -30.1464   23.8908 C   0  0  0  0  0  0
  -17.6449  -30.6594   24.0578 C   0  0  0  0  0  0
  -25.9039  -34.9491   23.5153 C   0  0  0  0  0  0
  -16.5342  -29.9096   23.6340 C   0  0  0  0  0  0
  -16.7256  -28.6517   23.0353 C   0  0  0  0  0  0
  -26.4467  -31.6610   25.0754 C   0  0  0  0  0  0
  -25.3737  -31.3631   26.1483 C   0  0  0  0  0  0
  -27.0354  -30.3084   24.6116 C   0  0  0  0  0  0
  -27.6018  -32.4343   25.7539 C   0  0  0  0  0  0
  -27.5579  -37.1822   24.8484 C   0  0  0  0  0  0
  -21.4137  -29.3021   22.3735 N   0  0  0  0  0  0
  -26.4301  -37.3810   23.9413 N   0  0  0  0  0  0
  -24.6663  -31.0800   22.1043 N   0  0  0  0  0  0
  -23.4172  -28.8210   23.3078 O   0  0  0  0  0  0
  -28.4027  -26.7320   19.9636 O   0  0  0  0  0  0
  -26.5598  -34.8934   22.4713 O   0  0  0  0  0  0
  -23.5310  -32.1450   23.7517 O   0  0  0  0  0  0
  -30.0714  -20.2893   21.9935 C   0  0  0  0  0  0
  -30.1819  -21.6717   22.2659 C   0  0  0  0  0  0
  -29.3166  -22.5509   21.5646 C   0  0  0  0  0  0
  -29.1046  -19.8820   21.0519 C   0  0  0  0  0  0
  -29.9432  -25.0235   20.7352 C   0  0  0  0  0  0
  -28.0336  -24.9064   21.6424 C   0  0  0  0  0  0
  -30.0521  -16.5670   21.7421 C   0  0  0  0  0  0
  -29.5988  -16.4588   19.6680 C   0  0  0  0  0  0
  -29.3238  -24.0700   21.7657 C   0  0  1  0  0  0
  -29.9404  -17.5935   20.6187 C   0  0  0  0  0  0
  -28.8902  -26.0755   21.1280 C   0  0  2  0  0  0
  -31.2030  -22.1643   23.2770 C   0  0  0  0  0  0
  -28.4464  -22.0867   20.6327 N   0  0  0  0  0  0
  -28.3277  -20.7752   20.3980 N   0  0  0  0  0  0
  -29.8508  -15.4980   20.7520 N   0  0  0  0  0  0
  -28.8420  -18.5472   20.7438 N   0  0  0  0  0  0
  -31.4693  -12.3995   19.1052 H   0  0  0  0  0  0
  -30.3291  -11.2772   19.8066 H   0  0  0  0  0  0
  -29.7239  -11.7735   17.4146 H   0  0  0  0  0  0
  -29.6519  -13.4833   17.7704 H   0  0  0  0  0  0
  -27.8245  -11.2958   18.8198 H   0  0  0  0  0  0
  -27.3571  -12.6248   17.7910 H   0  0  0  0  0  0
  -27.7003  -14.2358   19.5717 H   0  0  0  0  0  0
  -28.6795  -11.9466   21.3530 H   0  0  0  0  0  0
  -28.4890  -13.6016   21.8603 H   0  0  0  0  0  0
  -25.2720   -9.5685   22.4785 H   0  0  0  0  0  0
  -23.9954   -7.4638   22.7508 H   0  0  0  0  0  0
  -21.0817   -8.8772   19.8955 H   0  0  0  0  0  0
  -22.3675  -10.9666   19.6165 H   0  0  0  0  0  0
  -21.2007   -7.6149   23.9706 H   0  0  0  0  0  0
  -21.1486   -6.0536   25.9078 H   0  0  0  0  0  0
  -22.0601   -2.7606   23.2871 H   0  0  0  0  0  0
  -22.4070  -11.9860   22.4719 H   0  0  0  0  0  0
  -21.1115  -13.1293   22.2619 H   0  0  0  0  0  0
  -24.6842  -15.8508   20.5460 H   0  0  0  0  0  0
  -26.3150  -15.6201   20.1657 H   0  0  0  0  0  0
  -26.7107  -32.5579   23.1215 H   0  0  0  0  0  0
  -25.0050  -33.9812   25.0511 H   0  0  0  0  0  0
  -22.6904  -31.3062   21.4111 H   0  0  0  0  0  0
  -23.3762  -35.9623   23.3317 H   0  0  0  0  0  0
  -24.3571  -36.8924   22.2063 H   0  0  0  0  0  0
  -23.7211  -37.6506   23.6672 H   0  0  0  0  0  0
  -26.0412  -31.5971   20.5981 H   0  0  0  0  0  0
  -26.8177  -30.8934   21.9877 H   0  0  0  0  0  0
  -28.1101  -29.1203   21.1668 H   0  0  0  0  0  0
  -26.1015  -25.9906   18.9938 H   0  0  0  0  0  0
  -23.9893  -27.2874   19.0430 H   0  0  0  0  0  0
  -23.7266  -30.5928   19.4089 H   0  0  0  0  0  0
  -22.7397  -29.2376   19.8725 H   0  0  0  0  0  0
  -25.1287  -36.2005   25.0842 H   0  0  0  0  0  0
  -20.9955  -28.3224   24.1463 H   0  0  0  0  0  0
  -20.5706  -26.2258   23.3602 H   0  0  0  0  0  0
  -21.6622  -26.7464   22.1188 H   0  0  0  0  0  0
  -19.6874  -25.6306   21.1241 H   0  0  0  0  0  0
  -19.6655  -27.3215   20.6783 H   0  0  0  0  0  0
  -17.4176  -26.6708   21.4042 H   0  0  0  0  0  0
  -18.0284  -26.0078   22.9042 H   0  0  0  0  0  0
  -19.7926  -30.7291   24.2256 H   0  0  0  0  0  0
  -17.5003  -31.6272   24.5185 H   0  0  0  0  0  0
  -15.5342  -30.2996   23.7664 H   0  0  0  0  0  0
  -15.8661  -28.0847   22.7041 H   0  0  0  0  0  0
  -24.5936  -30.6972   25.7771 H   0  0  0  0  0  0
  -24.8901  -32.2744   26.5004 H   0  0  0  0  0  0
  -25.8103  -30.8737   27.0197 H   0  0  0  0  0  0
  -26.2918  -29.6801   24.1200 H   0  0  0  0  0  0
  -27.4193  -29.7350   25.4564 H   0  0  0  0  0  0
  -27.8705  -30.4452   23.9242 H   0  0  0  0  0  0
  -27.2621  -33.3626   26.2144 H   0  0  0  0  0  0
  -28.3823  -32.6930   25.0374 H   0  0  0  0  0  0
  -28.0700  -31.8464   26.5441 H   0  0  0  0  0  0
  -28.2599  -38.0118   24.7564 H   0  0  0  0  0  0
  -28.1081  -36.2655   24.6310 H   0  0  0  0  0  0
  -27.2287  -37.1463   25.8883 H   0  0  0  0  0  0
  -20.9306  -29.8726   21.6943 H   0  0  0  0  0  0
  -26.0192  -38.2889   24.1436 H   0  0  0  0  0  0
  -30.6856  -19.5655   22.5082 H   0  0  0  0  0  0
  -29.8170  -24.6656   19.7121 H   0  0  0  0  0  0
  -30.9791  -25.2979   20.9340 H   0  0  0  0  0  0
  -27.5163  -25.0872   22.5845 H   0  0  0  0  0  0
  -27.3503  -24.5325   20.8795 H   0  0  0  0  0  0
  -29.2548  -16.6246   22.4835 H   0  0  0  0  0  0
  -31.0325  -16.5613   22.2231 H   0  0  0  0  0  0
  -30.2862  -16.3950   18.8209 H   0  0  0  0  0  0
  -28.5665  -16.4473   19.3174 H   0  0  0  0  0  0
  -29.7572  -24.2881   22.7422 H   0  0  0  0  0  0
  -30.9001  -18.0554   20.3741 H   0  0  0  0  0  0
  -29.2364  -26.7448   21.9181 H   0  0  0  0  0  0
  -31.7698  -21.3348   23.7005 H   0  0  0  0  0  0
  -30.7139  -22.6835   24.1013 H   0  0  0  0  0  0
  -31.9113  -22.8467   22.8057 H   0  0  0  0  0  0
  -28.1058  -18.4487   20.0545 H   0  0  0  0  0  0
  1 25  1  0  0  0
  1 30  2  0  0  0
  1 85  1  0  0  0
  2  3  1  0  0  0
  2 25  1  0  0  0
  2 87  1  0  0  0
  2 88  1  0  0  0
  3  4  1  0  0  0
  3 89  1  0  0  0
  3 90  1  0  0  0
  4  5  1  0  0  0
  4 91  1  0  0  0
  4 92  1  0  0  0
  5  6  1  0  0  0
  5 26  1  0  0  0
  5 93  1  0  0  0
  6 25  1  0  0  0
  6 94  1  0  0  0
  6 95  1  0  0  0
  7  8  2  0  0  0
  7 26  1  0  0  0
  7 29  1  0  0  0
  8  9  1  0  0  0
  8 22  1  0  0  0
  9 10  1  0  0  0
  9 27  2  0  0  0
 10 11  2  0  0  0
 10 15  1  0  0  0
 11 12  1  0  0  0
 11 96  1  0  0  0
 12 13  2  0  0  0
 12 97  1  0  0  0
 13 14  1  0  0  0
 13 31  1  0  0  0
 14 15  2  0  0  0
 14 98  1  0  0  0
 15 99  1  0  0  0
 16 17  2  0  0  0
 16 21  1  0  0  0
 16 31  1  0  0  0
 17 18  1  0  0  0
 17100  1  0  0  0
 18 19  2  0  0  0
 18101  1  0  0  0
 19 20  1  0  0  0
 19 24  1  0  0  0
 20 21  2  0  0  0
 20102  1  0  0  0
 21 23  1  0  0  0
 22 28  1  0  0  0
 22 32  2  0  0  0
 26 27  1  0  0  0
 28103  1  0  0  0
 28104  1  0  0  0
 29105  1  0  0  0
 29106  1  0  0  0
 33 34  1  0  0  0
 33 66  1  0  0  0
 33 70  2  0  0  0
 34 36  1  0  0  0
 34 59  1  0  0  0
 34107  1  0  0  0
 35 44  2  0  0  0
 35 45  1  0  0  0
 35 68  1  0  0  0
 36 56  1  0  0  0
 36108  1  0  0  0
 37 39  1  0  0  0
 37 47  1  0  0  0
 37 66  1  0  0  0
 37109  1  0  0  0
 38 43  2  0  0  0
 38 46  1  0  0  0
 38 47  1  0  0  0
 39 64  1  0  0  0
 39 67  2  0  0  0
 40 52  1  0  0  0
 40 53  2  0  0  0
 40 58  1  0  0  0
 41110  1  0  0  0
 41111  1  0  0  0
 41112  1  0  0  0
 41 48  1  0  0  0
 42 43  1  0  0  0
 42 66  1  0  0  0
 42113  1  0  0  0
 42114  1  0  0  0
 43 44  1  0  0  0
 44115  1  0  0  0
 45 46  2  0  0  0
 45116  1  0  0  0
 46117  1  0  0  0
 47118  1  0  0  0
 47119  1  0  0  0
 48 56  1  0  0  0
 48 65  1  0  0  0
 48120  1  0  0  0
 49 50  1  0  0  0
 49 53  1  0  0  0
 49 64  1  0  0  0
 49121  1  0  0  0
 50 51  1  0  0  0
 50122  1  0  0  0
 50123  1  0  0  0
 51 52  1  0  0  0
 51124  1  0  0  0
 51125  1  0  0  0
 52126  1  0  0  0
 52127  1  0  0  0
 53 54  1  0  0  0
 54 55  2  0  0  0
 54128  1  0  0  0
 55 57  1  0  0  0
 55129  1  0  0  0
 56 69  2  0  0  0
 57 58  2  0  0  0
 57130  1  0  0  0
 58131  1  0  0  0
 59 60  1  0  0  0
 59 61  1  0  0  0
 59 62  1  0  0  0
 60132  1  0  0  0
 60133  1  0  0  0
 60134  1  0  0  0
 61135  1  0  0  0
 61136  1  0  0  0
 61137  1  0  0  0
 62138  1  0  0  0
 62139  1  0  0  0
 62140  1  0  0  0
 63 65  1  0  0  0
 63141  1  0  0  0
 63142  1  0  0  0
 63143  1  0  0  0
 64144  1  0  0  0
 65145  1  0  0  0
 68 81  1  0  0  0
 71 72  2  0  0  0
 71 74  1  0  0  0
 71146  1  0  0  0
 72 73  1  0  0  0
 72 82  1  0  0  0
 73 83  2  0  0  0
 73 79  1  0  0  0
 74 84  2  0  0  0
 74 86  1  0  0  0
 75 79  1  0  0  0
 75 81  1  0  0  0
 75147  1  0  0  0
 75148  1  0  0  0
 76 79  1  0  0  0
 76 81  1  0  0  0
 76149  1  0  0  0
 76150  1  0  0  0
 77 80  1  0  0  0
 77 85  1  0  0  0
 77151  1  0  0  0
 77152  1  0  0  0
 78 80  1  0  0  0
 78 85  1  0  0  0
 78153  1  0  0  0
 78154  1  0  0  0
 79155  1  0  0  0
 80 86  1  0  0  0
 80156  1  0  0  0
 81157  1  0  0  0
 82158  1  0  0  0
 82159  1  0  0  0
 82160  1  0  0  0
 83 84  1  0  0  0
 86161  1  0  0  0
M  ISO  4   1 100  68 101  81 101  85 100
M  END
> <chiral flag>
0

> <version>
0

> <s_m_source_file>
/data/baiqing/PycharmProjects/Reinvent-master-3.2/result/LINK_invent/BTK/process_docking_weight1_custom_sum_contain_oxygen_bond_distance_aromatic_linkinvent_7_9_3/rearranged_h_0170.sdf

> <i_m_source_file_index>
5

> <r_mmod_Potential_Energy-OPLS-2005>
22.362211227417

> <r_mmod_Stretch_Energy-OPLS-2005>
34.7095375061035

> <r_mmod_Bend_Energy-OPLS-2005>
121.104026794434

> <r_mmod_Torsional_Energy-OPLS-2005>
316.136108398438

> <r_mmod_Improper_Torsional_Energy-OPLS-2005>
18.4496669769287

> <r_mmod_Van_der_Waal_Energy-OPLS-2005>
146.358245849609

> <r_mmod_Electrostatic_Energy-OPLS-2005>
-403.012329101562

> <r_mmod_Solvation_Energy-OPLS-2005>
-224.149795532227

> <b_mmod_Minimization_Converged-OPLS-2005>
0

> <r_mmod_RMS_Derivative-OPLS-2005>
1.66093111038208

$$$$
5
                    3D
 Structure written by MMmdl.
168177  0  0  1  0            999 V2000
  -30.6978  -14.5022   20.5846 C   0  0  0  0  0  0
  -30.4267  -12.3368   19.4206 C   0  0  0  0  0  0
  -29.4960  -12.5250   18.2057 C   0  0  0  0  0  0
  -28.0158  -12.3819   18.6127 C   0  0  0  0  0  0
  -27.6592  -13.2142   19.8722 C   0  0  2  0  0  0
  -28.7022  -13.0048   20.9915 C   0  0  0  0  0  0
  -25.2571  -13.8175   20.5678 C   0  0  0  0  0  0
  -24.1839  -13.0441   20.9178 C   0  0  0  0  0  0
  -24.6412  -11.6911   20.8735 C   0  0  0  0  0  0
  -23.9081  -10.4297   21.0412 C   0  0  0  0  0  0
  -24.3636   -9.4206   21.9185 C   0  0  0  0  0  0
  -23.6312   -8.2242   22.0751 C   0  0  0  0  0  0
  -22.4295   -8.0287   21.3543 C   0  0  0  0  0  0
  -21.9944   -9.0250   20.4633 C   0  0  0  0  0  0
  -22.7265  -10.2133   20.3045 C   0  0  0  0  0  0
  -21.6850   -6.0756   22.5284 C   0  0  0  0  0  0
  -21.4016   -6.5661   23.8221 C   0  0  0  0  0  0
  -21.3660   -5.6804   24.9181 C   0  0  0  0  0  0
  -21.6048   -4.3067   24.7224 C   0  0  0  0  0  0
  -21.8827   -3.8167   23.4343 C   0  0  0  0  0  0
  -21.9196   -4.6987   22.3404 C   0  0  0  0  0  0
  -22.7858  -13.5212   21.1859 C   0  0  0  0  0  0
  -22.1663   -4.2182   21.0984 F   0  0  0  0  0  0
  -21.5630   -3.4544   25.7728 F   0  0  0  0  0  0
  -30.0293  -13.3240   20.4366 N   0  0  0  0  0  0
  -26.3019  -12.9362   20.3352 N   0  0  0  0  0  0
  -25.9338  -11.6510   20.5747 N   0  0  0  0  0  0
  -22.0515  -12.8162   22.0395 N   0  0  0  0  0  0
  -25.4276  -15.1895   20.4072 N   0  0  0  0  0  0
  -31.8330  -14.6833   20.1387 O   0  0  0  0  0  0
  -21.6642   -6.8897   21.4249 O   0  0  0  0  0  0
  -22.3532  -14.5532   20.6737 O   0  0  0  0  0  0
  -24.6171  -31.8663   23.2085 C   0  0  0  0  0  0
  -25.9055  -32.4809   23.8392 C   0  0  1  0  0  0
  -27.2368  -27.4145   20.1064 C   0  0  0  0  0  0
  -25.5908  -33.8607   24.2320 N   0  0  0  0  0  0
  -23.4081  -30.4894   21.5483 C   0  0  2  0  0  0
  -24.8574  -28.9535   20.1125 C   0  0  0  0  0  0
  -22.7434  -29.4657   22.4970 C   0  0  0  0  0  0
  -18.0285  -28.1400   22.8497 C   0  0  0  0  0  0
  -24.1487  -36.7305   23.2641 C   0  0  0  0  0  0
  -25.9391  -30.8264   21.3653 C   0  0  0  0  0  0
  -26.0186  -29.4600   20.7115 C   0  0  0  0  0  0
  -27.2144  -28.6992   20.7014 C   0  0  0  0  0  0
  -26.0622  -26.9328   19.4900 C   0  0  0  0  0  0
  -24.8758  -27.6912   19.4953 C   0  0  0  0  0  0
  -23.6186  -29.8211   20.1638 C   0  0  0  0  0  0
  -25.4112  -36.3100   24.0335 C   0  0  1  0  0  0
  -20.5873  -28.3695   23.1310 C   0  0  2  0  0  0
  -20.6772  -26.9431   22.5419 C   0  0  0  0  0  0
  -19.5746  -26.6401   21.5219 C   0  0  0  0  0  0
  -18.1925  -26.7945   22.1632 C   0  0  0  0  0  0
  -19.1533  -28.8867   23.2897 C   0  0  0  0  0  0
  -18.9453  -30.1471   23.8905 C   0  0  0  0  0  0
  -17.6456  -30.6600   24.0579 C   0  0  0  0  0  0
  -25.9045  -34.9464   23.5126 C   0  0  0  0  0  0
  -16.5352  -29.9102   23.6335 C   0  0  0  0  0  0
  -16.7276  -28.6528   23.0347 C   0  0  0  0  0  0
  -26.4470  -31.6585   25.0725 C   0  0  0  0  0  0
  -25.3728  -31.3648   26.1452 C   0  0  0  0  0  0
  -27.0333  -30.3042   24.6096 C   0  0  0  0  0  0
  -27.6008  -32.4318   25.7533 C   0  0  0  0  0  0
  -27.5571  -37.1827   24.8464 C   0  0  0  0  0  0
  -21.4158  -29.3051   22.3710 N   0  0  0  0  0  0
  -26.4289  -37.3788   23.9403 N   0  0  0  0  0  0
  -24.6731  -31.0752   22.0987 N   0  0  0  0  0  0
  -23.4183  -28.8202   23.3031 O   0  0  0  0  0  0
  -28.3697  -26.6218   20.1254 O   0  0  0  0  0  0
  -26.5608  -34.8918   22.4684 O   0  0  0  0  0  0
  -23.5352  -32.1426   23.7452 O   0  0  0  0  0  0
  -29.6869  -21.0746   20.4361 C   0  0  0  0  0  0
  -30.6281  -22.2482   18.5176 C   0  0  0  0  0  0
  -29.7278  -22.2320   19.6161 C   0  0  0  0  0  0
  -31.4704  -21.1170   18.3673 C   0  0  0  0  0  0
  -30.5449  -19.9725   20.2013 C   0  0  0  0  0  0
  -29.4482  -18.0041   21.2945 C   0  0  0  0  0  0
  -31.3395  -17.6264   20.5367 C   0  0  0  0  0  0
  -30.4581  -16.8558   21.5347 C   0  0  0  0  0  0
  -32.5242  -21.0056   17.2749 C   0  0  0  0  0  0
  -31.8046  -24.4289   17.8659 C   0  0  0  0  0  0
  -29.3921  -24.0914   17.1425 C   0  0  0  0  0  0
  -28.2218  -25.4220   20.9194 C   0  0  0  0  0  0
  -29.2967  -24.3122   20.7254 C   0  0  0  0  0  0
  -30.7209  -23.4008   17.4956 C   0  0  0  0  0  0
  -31.4181  -20.0427   19.1784 N   0  0  0  0  0  0
  -30.6395  -18.8129   21.0405 N   0  0  0  0  0  0
  -29.9922  -15.5068   21.1469 N   0  0  0  0  0  0
  -28.8459  -23.2703   19.8483 O   0  0  0  0  0  0
  -31.4693  -12.4490   19.1172 H   0  0  0  0  0  0
  -30.3382  -11.3268   19.8247 H   0  0  0  0  0  0
  -29.7391  -11.8057   17.4228 H   0  0  0  0  0  0
  -29.6587  -13.5133   17.7724 H   0  0  0  0  0  0
  -27.8168  -11.3254   18.7925 H   0  0  0  0  0  0
  -27.3735  -12.6760   17.7830 H   0  0  0  0  0  0
  -27.6981  -14.2620   19.5747 H   0  0  0  0  0  0
  -28.6885  -11.9699   21.3372 H   0  0  0  0  0  0
  -28.4573  -13.6069   21.8671 H   0  0  0  0  0  0
  -25.2788   -9.5683   22.4743 H   0  0  0  0  0  0
  -24.0031   -7.4642   22.7472 H   0  0  0  0  0  0
  -21.0893   -8.8774   19.8921 H   0  0  0  0  0  0
  -22.3743  -10.9678   19.6144 H   0  0  0  0  0  0
  -21.2005   -7.6171   23.9734 H   0  0  0  0  0  0
  -21.1471   -6.0535   25.9086 H   0  0  0  0  0  0
  -22.0601   -2.7632   23.2828 H   0  0  0  0  0  0
  -22.4153  -11.9789   22.4709 H   0  0  0  0  0  0
  -21.1127  -13.1144   22.2639 H   0  0  0  0  0  0
  -24.6585  -15.8426   20.5053 H   0  0  0  0  0  0
  -26.2786  -15.6281   20.0788 H   0  0  0  0  0  0
  -26.7132  -32.5525   23.1164 H   0  0  0  0  0  0
  -25.0064  -33.9765   25.0468 H   0  0  0  0  0  0
  -22.6986  -31.3072   21.4076 H   0  0  0  0  0  0
  -23.3747  -35.9636   23.3298 H   0  0  0  0  0  0
  -24.3575  -36.8926   22.2055 H   0  0  0  0  0  0
  -23.7239  -37.6506   23.6667 H   0  0  0  0  0  0
  -26.0525  -31.5924   20.5970 H   0  0  0  0  0  0
  -26.8265  -30.8805   21.9841 H   0  0  0  0  0  0
  -28.1097  -29.0844   21.1692 H   0  0  0  0  0  0
  -26.0628  -25.9631   19.0119 H   0  0  0  0  0  0
  -23.9850  -27.2969   19.0266 H   0  0  0  0  0  0
  -23.7276  -30.5964   19.4048 H   0  0  0  0  0  0
  -22.7429  -29.2400   19.8684 H   0  0  0  0  0  0
  -25.1282  -36.1963   25.0829 H   0  0  0  0  0  0
  -20.9970  -28.3266   24.1428 H   0  0  0  0  0  0
  -20.5706  -26.2296   23.3605 H   0  0  0  0  0  0
  -21.6635  -26.7480   22.1200 H   0  0  0  0  0  0
  -19.6905  -25.6311   21.1244 H   0  0  0  0  0  0
  -19.6679  -27.3214   20.6755 H   0  0  0  0  0  0
  -17.4196  -26.6712   21.4034 H   0  0  0  0  0  0
  -18.0319  -26.0094   22.9040 H   0  0  0  0  0  0
  -19.7924  -30.7297   24.2266 H   0  0  0  0  0  0
  -17.5009  -31.6274   24.5195 H   0  0  0  0  0  0
  -15.5353  -30.3009   23.7657 H   0  0  0  0  0  0
  -15.8681  -28.0864   22.7031 H   0  0  0  0  0  0
  -24.5910  -30.7000   25.7754 H   0  0  0  0  0  0
  -24.8910  -32.2785   26.4941 H   0  0  0  0  0  0
  -25.8081  -30.8775   27.0187 H   0  0  0  0  0  0
  -26.2906  -29.6813   24.1095 H   0  0  0  0  0  0
  -27.4062  -29.7253   25.4555 H   0  0  0  0  0  0
  -27.8747  -30.4385   23.9291 H   0  0  0  0  0  0
  -27.2591  -33.3607   26.2117 H   0  0  0  0  0  0
  -28.3846  -32.6895   25.0399 H   0  0  0  0  0  0
  -28.0651  -31.8439   26.5464 H   0  0  0  0  0  0
  -28.2572  -38.0140   24.7518 H   0  0  0  0  0  0
  -28.1088  -36.2662   24.6298 H   0  0  0  0  0  0
  -27.2285  -37.1483   25.8867 H   0  0  0  0  0  0
  -20.9327  -29.8762   21.6916 H   0  0  0  0  0  0
  -26.0167  -38.2859   24.1398 H   0  0  0  0  0  0
  -28.9952  -21.0397   21.2652 H   0  0  0  0  0  0
  -28.8835  -18.3077   22.1772 H   0  0  0  0  0  0
  -28.8191  -17.8821   20.4097 H   0  0  0  0  0  0
  -31.1294  -17.4048   19.4877 H   0  0  0  0  0  0
  -32.4062  -17.6117   20.7628 H   0  0  0  0  0  0
  -30.8725  -16.8819   22.5457 H   0  0  0  0  0  0
  -33.1507  -21.8953   17.2285 H   0  0  0  0  0  0
  -32.0614  -20.8582   16.2992 H   0  0  0  0  0  0
  -33.1905  -20.1612   17.4540 H   0  0  0  0  0  0
  -32.7585  -23.9526   18.0869 H   0  0  0  0  0  0
  -31.5346  -25.0277   18.7308 H   0  0  0  0  0  0
  -31.9776  -25.1216   17.0420 H   0  0  0  0  0  0
  -28.6139  -23.3644   16.9095 H   0  0  0  0  0  0
  -29.5196  -24.7231   16.2629 H   0  0  0  0  0  0
  -29.0300  -24.7415   17.9377 H   0  0  0  0  0  0
  -28.2737  -25.7494   21.9588 H   0  0  0  0  0  0
  -27.2351  -24.9691   20.8098 H   0  0  0  0  0  0
  -29.4898  -23.8516   21.6953 H   0  0  0  0  0  0
  -30.2442  -24.7410   20.4090 H   0  0  0  0  0  0
  -31.0310  -22.9550   16.5509 H   0  0  0  0  0  0
  -29.0585  -15.2640   21.4401 H   0  0  0  0  0  0
  1 25  1  0  0  0
  1 30  2  0  0  0
  1 87  1  0  0  0
  2  3  1  0  0  0
  2 25  1  0  0  0
  2 89  1  0  0  0
  2 90  1  0  0  0
  3  4  1  0  0  0
  3 91  1  0  0  0
  3 92  1  0  0  0
  4  5  1  0  0  0
  4 93  1  0  0  0
  4 94  1  0  0  0
  5  6  1  0  0  0
  5 26  1  0  0  0
  5 95  1  0  0  0
  6 25  1  0  0  0
  6 96  1  0  0  0
  6 97  1  0  0  0
  7  8  2  0  0  0
  7 26  1  0  0  0
  7 29  1  0  0  0
  8  9  1  0  0  0
  8 22  1  0  0  0
  9 10  1  0  0  0
  9 27  2  0  0  0
 10 11  2  0  0  0
 10 15  1  0  0  0
 11 12  1  0  0  0
 11 98  1  0  0  0
 12 13  2  0  0  0
 12 99  1  0  0  0
 13 14  1  0  0  0
 13 31  1  0  0  0
 14 15  2  0  0  0
 14100  1  0  0  0
 15101  1  0  0  0
 16 17  2  0  0  0
 16 21  1  0  0  0
 16 31  1  0  0  0
 17 18  1  0  0  0
 17102  1  0  0  0
 18 19  2  0  0  0
 18103  1  0  0  0
 19 20  1  0  0  0
 19 24  1  0  0  0
 20 21  2  0  0  0
 20104  1  0  0  0
 21 23  1  0  0  0
 22 28  1  0  0  0
 22 32  2  0  0  0
 26 27  1  0  0  0
 28105  1  0  0  0
 28106  1  0  0  0
 29107  1  0  0  0
 29108  1  0  0  0
 33 34  1  0  0  0
 33 66  1  0  0  0
 33 70  2  0  0  0
 34 36  1  0  0  0
 34 59  1  0  0  0
 34109  1  0  0  0
 35 44  2  0  0  0
 35 45  1  0  0  0
 35 68  1  0  0  0
 36 56  1  0  0  0
 36110  1  0  0  0
 37 39  1  0  0  0
 37 47  1  0  0  0
 37 66  1  0  0  0
 37111  1  0  0  0
 38 43  2  0  0  0
 38 46  1  0  0  0
 38 47  1  0  0  0
 39 64  1  0  0  0
 39 67  2  0  0  0
 40 52  1  0  0  0
 40 53  2  0  0  0
 40 58  1  0  0  0
 41112  1  0  0  0
 41113  1  0  0  0
 41114  1  0  0  0
 41 48  1  0  0  0
 42 43  1  0  0  0
 42 66  1  0  0  0
 42115  1  0  0  0
 42116  1  0  0  0
 43 44  1  0  0  0
 44117  1  0  0  0
 45 46  2  0  0  0
 45118  1  0  0  0
 46119  1  0  0  0
 47120  1  0  0  0
 47121  1  0  0  0
 48 56  1  0  0  0
 48 65  1  0  0  0
 48122  1  0  0  0
 49 50  1  0  0  0
 49 53  1  0  0  0
 49 64  1  0  0  0
 49123  1  0  0  0
 50 51  1  0  0  0
 50124  1  0  0  0
 50125  1  0  0  0
 51 52  1  0  0  0
 51126  1  0  0  0
 51127  1  0  0  0
 52128  1  0  0  0
 52129  1  0  0  0
 53 54  1  0  0  0
 54 55  2  0  0  0
 54130  1  0  0  0
 55 57  1  0  0  0
 55131  1  0  0  0
 56 69  2  0  0  0
 57 58  2  0  0  0
 57132  1  0  0  0
 58133  1  0  0  0
 59 60  1  0  0  0
 59 61  1  0  0  0
 59 62  1  0  0  0
 60134  1  0  0  0
 60135  1  0  0  0
 60136  1  0  0  0
 61137  1  0  0  0
 61138  1  0  0  0
 61139  1  0  0  0
 62140  1  0  0  0
 62141  1  0  0  0
 62142  1  0  0  0
 63 65  1  0  0  0
 63143  1  0  0  0
 63144  1  0  0  0
 63145  1  0  0  0
 64146  1  0  0  0
 65147  1  0  0  0
 68 82  1  0  0  0
 71 73  2  0  0  0
 71 75  1  0  0  0
 71148  1  0  0  0
 72 73  1  0  0  0
 72 74  2  0  0  0
 72 84  1  0  0  0
 73 88  1  0  0  0
 74 79  1  0  0  0
 74 85  1  0  0  0
 75 85  2  0  0  0
 75 86  1  0  0  0
 76 78  1  0  0  0
 76 86  1  0  0  0
 76149  1  0  0  0
 76150  1  0  0  0
 77 78  1  0  0  0
 77 86  1  0  0  0
 77151  1  0  0  0
 77152  1  0  0  0
 78 87  1  0  0  0
 78153  1  0  0  0
 79154  1  0  0  0
 79155  1  0  0  0
 79156  1  0  0  0
 80157  1  0  0  0
 80158  1  0  0  0
 80159  1  0  0  0
 80 84  1  0  0  0
 81 84  1  0  0  0
 81160  1  0  0  0
 81161  1  0  0  0
 81162  1  0  0  0
 82 83  1  0  0  0
 82163  1  0  0  0
 82164  1  0  0  0
 83 88  1  0  0  0
 83165  1  0  0  0
 83166  1  0  0  0
 84167  1  0  0  0
 87168  1  0  0  0
M  ISO  4   1 100  68 101  82 101  87 100
M  END
> <chiral flag>
0

> <version>
0

> <s_m_source_file>
/data/baiqing/PycharmProjects/Reinvent-master-3.2/result/LINK_invent/BTK/process_docking_weight1_custom_sum_contain_oxygen_bond_distance_aromatic_linkinvent_7_9_3/rearranged_h_0170.sdf

> <i_m_source_file_index>
6

> <r_mmod_Potential_Energy-OPLS-2005>
-215.77685546875

> <r_mmod_Stretch_Energy-OPLS-2005>
43.6057548522949

> <r_mmod_Bend_Energy-OPLS-2005>
153.706893920898

> <r_mmod_Torsional_Energy-OPLS-2005>
285.401977539062

> <r_mmod_Improper_Torsional_Energy-OPLS-2005>
10.8277568817139

> <r_mmod_Van_der_Waal_Energy-OPLS-2005>
159.522552490234

> <r_mmod_Electrostatic_Energy-OPLS-2005>
-640.472290039062

> <r_mmod_Solvation_Energy-OPLS-2005>
-245.440628051758

> <b_mmod_Minimization_Converged-OPLS-2005>
0

> <r_mmod_RMS_Derivative-OPLS-2005>
1.84619152545929

$$$$
6
                    3D
 Structure written by MMmdl.
173183  0  0  1  0            999 V2000
  -30.6585  -14.6553   20.4870 C   0  0  0  0  0  0
  -30.4207  -12.4014   19.4620 C   0  0  0  0  0  0
  -29.5038  -12.5034   18.2254 C   0  0  0  0  0  0
  -28.0262  -12.3508   18.6351 C   0  0  0  0  0  0
  -27.6457  -13.2317   19.8562 C   0  0  2  0  0  0
  -28.6893  -13.1298   20.9887 C   0  0  0  0  0  0
  -25.2532  -13.8209   20.5708 C   0  0  0  0  0  0
  -24.1807  -13.0455   20.9186 C   0  0  0  0  0  0
  -24.6395  -11.6932   20.8731 C   0  0  0  0  0  0
  -23.9073  -10.4308   21.0405 C   0  0  0  0  0  0
  -24.3623   -9.4215   21.9182 C   0  0  0  0  0  0
  -23.6291   -8.2252   22.0754 C   0  0  0  0  0  0
  -22.4274   -8.0288   21.3544 C   0  0  0  0  0  0
  -21.9907   -9.0268   20.4649 C   0  0  0  0  0  0
  -22.7242  -10.2144   20.3057 C   0  0  0  0  0  0
  -21.6856   -6.0734   22.5278 C   0  0  0  0  0  0
  -21.4021   -6.5639   23.8212 C   0  0  0  0  0  0
  -21.3661   -5.6792   24.9174 C   0  0  0  0  0  0
  -21.6047   -4.3054   24.7221 C   0  0  0  0  0  0
  -21.8822   -3.8144   23.4342 C   0  0  0  0  0  0
  -21.9196   -4.6962   22.3401 C   0  0  0  0  0  0
  -22.7827  -13.5243   21.1850 C   0  0  0  0  0  0
  -22.1664   -4.2149   21.0975 F   0  0  0  0  0  0
  -21.5624   -3.4537   25.7733 F   0  0  0  0  0  0
  -29.9975  -13.4557   20.4087 N   0  0  0  0  0  0
  -26.2961  -12.9418   20.3308 N   0  0  0  0  0  0
  -25.9328  -11.6558   20.5749 N   0  0  0  0  0  0
  -22.0470  -12.8241   22.0407 N   0  0  0  0  0  0
  -25.4248  -15.1933   20.4178 N   0  0  0  0  0  0
  -31.8415  -14.7324   20.1365 O   0  0  0  0  0  0
  -21.6641   -6.8879   21.4240 O   0  0  0  0  0  0
  -22.3513  -14.5546   20.6698 O   0  0  0  0  0  0
  -24.6263  -31.8585   23.2019 C   0  0  0  0  0  0
  -25.9104  -32.4772   23.8353 C   0  0  1  0  0  0
  -27.2189  -27.3037   20.1195 C   0  0  0  0  0  0
  -25.5913  -33.8577   24.2270 N   0  0  0  0  0  0
  -23.4206  -30.4816   21.5453 C   0  0  2  0  0  0
  -24.8653  -28.9304   20.1171 C   0  0  0  0  0  0
  -22.7475  -29.4608   22.4935 C   0  0  0  0  0  0
  -18.0281  -28.1384   22.8487 C   0  0  0  0  0  0
  -24.1487  -36.7291   23.2641 C   0  0  0  0  0  0
  -25.9633  -30.7833   21.3760 C   0  0  0  0  0  0
  -26.0356  -29.4088   20.7192 C   0  0  0  0  0  0
  -27.2169  -28.6081   20.7068 C   0  0  0  0  0  0
  -26.0254  -26.8772   19.4981 C   0  0  0  0  0  0
  -24.8618  -27.6699   19.4997 C   0  0  0  0  0  0
  -23.6369  -29.8157   20.1615 C   0  0  0  0  0  0
  -25.4116  -36.3081   24.0326 C   0  0  1  0  0  0
  -20.5883  -28.3680   23.1285 C   0  0  2  0  0  0
  -20.6768  -26.9402   22.5412 C   0  0  0  0  0  0
  -19.5745  -26.6383   21.5211 C   0  0  0  0  0  0
  -18.1924  -26.7927   22.1624 C   0  0  0  0  0  0
  -19.1535  -28.8850   23.2881 C   0  0  0  0  0  0
  -18.9461  -30.1455   23.8896 C   0  0  0  0  0  0
  -17.6463  -30.6587   24.0565 C   0  0  0  0  0  0
  -25.9051  -34.9449   23.5100 C   0  0  0  0  0  0
  -16.5352  -29.9088   23.6332 C   0  0  0  0  0  0
  -16.7269  -28.6506   23.0350 C   0  0  0  0  0  0
  -26.4490  -31.6595   25.0732 C   0  0  0  0  0  0
  -25.3725  -31.3741   26.1462 C   0  0  0  0  0  0
  -27.0337  -30.3017   24.6199 C   0  0  0  0  0  0
  -27.6038  -32.4343   25.7504 C   0  0  0  0  0  0
  -27.5579  -37.1801   24.8463 C   0  0  0  0  0  0
  -21.4186  -29.3035   22.3683 N   0  0  0  0  0  0
  -26.4292  -37.3777   23.9405 N   0  0  0  0  0  0
  -24.6889  -31.0587   22.0975 N   0  0  0  0  0  0
  -23.4197  -28.8139   23.3010 O   0  0  0  0  0  0
  -28.3500  -26.4733   20.1204 O   0  0  0  0  0  0
  -26.5629  -34.8916   22.4672 O   0  0  0  0  0  0
  -23.5421  -32.1385   23.7341 O   0  0  0  0  0  0
  -29.1949  -20.2159   21.3183 C   0  0  0  0  0  0
  -29.9945  -19.3152   18.8171 C   0  0  0  0  0  0
  -29.3030  -18.8068   21.0586 C   0  0  0  0  0  0
  -29.5574  -21.2253   20.3591 C   0  0  0  0  0  0
  -29.7294  -18.3403   19.8074 C   0  0  0  0  0  0
  -29.9317  -20.7168   19.0748 C   0  0  0  0  0  0
  -28.9927  -17.7382   22.1019 C   0  0  0  0  0  0
  -29.8986  -16.8164   19.5130 C   0  0  0  0  0  0
  -30.7335  -25.0167   20.3256 C   0  0  0  0  0  0
  -29.8605  -16.4425   21.9783 C   0  0  0  0  0  0
  -30.8433  -25.3052   21.8390 C   0  0  0  0  0  0
  -29.9577  -22.9950   22.3259 C   0  0  0  0  0  0
  -29.8718  -22.7297   20.8026 C   0  0  2  0  0  0
  -29.5140  -24.1128   20.0250 C   0  0  1  0  0  0
  -30.3497  -21.6414   17.9432 C   0  0  0  0  0  0
  -31.0167  -24.3437   24.1029 C   0  0  0  0  0  0
  -28.2150  -25.0026   20.3364 C   0  0  0  0  0  0
  -29.9164  -15.8156   20.6369 N   0  0  0  0  0  0
  -30.9508  -24.0622   22.6512 N   0  3  2  0  0  0
  -31.4658  -12.5000   19.1635 H   0  0  0  0  0  0
  -30.3341  -11.4177   19.9270 H   0  0  0  0  0  0
  -29.7685  -11.7404   17.4922 H   0  0  0  0  0  0
  -29.6517  -13.4656   17.7321 H   0  0  0  0  0  0
  -27.8556  -11.2995   18.8689 H   0  0  0  0  0  0
  -27.3763  -12.5831   17.7905 H   0  0  0  0  0  0
  -27.6519  -14.2624   19.5013 H   0  0  0  0  0  0
  -28.7040  -12.1272   21.4179 H   0  0  0  0  0  0
  -28.4355  -13.8085   21.8034 H   0  0  0  0  0  0
  -25.2769   -9.5694   22.4753 H   0  0  0  0  0  0
  -24.0005   -7.4648   22.7478 H   0  0  0  0  0  0
  -21.0834   -8.8794   19.8953 H   0  0  0  0  0  0
  -22.3706  -10.9685   19.6165 H   0  0  0  0  0  0
  -21.2018   -7.6151   23.9716 H   0  0  0  0  0  0
  -21.1475   -6.0518   25.9077 H   0  0  0  0  0  0
  -22.0595   -2.7604   23.2842 H   0  0  0  0  0  0
  -22.4086  -11.9912   22.4814 H   0  0  0  0  0  0
  -21.1088  -13.1270   22.2615 H   0  0  0  0  0  0
  -24.6623  -15.8509   20.5377 H   0  0  0  0  0  0
  -26.2878  -15.6339   20.1246 H   0  0  0  0  0  0
  -26.7167  -32.5433   23.1093 H   0  0  0  0  0  0
  -25.0047  -33.9727   25.0404 H   0  0  0  0  0  0
  -22.7145  -31.3023   21.4012 H   0  0  0  0  0  0
  -23.3751  -35.9622   23.3310 H   0  0  0  0  0  0
  -24.3572  -36.8912   22.2054 H   0  0  0  0  0  0
  -23.7241  -37.6491   23.6667 H   0  0  0  0  0  0
  -26.0996  -31.5460   20.6081 H   0  0  0  0  0  0
  -26.8417  -30.8295   22.0084 H   0  0  0  0  0  0
  -28.1193  -28.9734   21.1770 H   0  0  0  0  0  0
  -25.9708  -25.9247   18.9941 H   0  0  0  0  0  0
  -23.9652  -27.2988   19.0225 H   0  0  0  0  0  0
  -23.7644  -30.5918   19.4060 H   0  0  0  0  0  0
  -22.7552  -29.2504   19.8543 H   0  0  0  0  0  0
  -25.1298  -36.1933   25.0819 H   0  0  0  0  0  0
  -20.9974  -28.3254   24.1406 H   0  0  0  0  0  0
  -20.5658  -26.2289   23.3610 H   0  0  0  0  0  0
  -21.6637  -26.7425   22.1211 H   0  0  0  0  0  0
  -19.6903  -25.6293   21.1238 H   0  0  0  0  0  0
  -19.6686  -27.3195   20.6743 H   0  0  0  0  0  0
  -17.4190  -26.6668   21.4030 H   0  0  0  0  0  0
  -18.0330  -26.0072   22.9024 H   0  0  0  0  0  0
  -19.7938  -30.7269   24.2264 H   0  0  0  0  0  0
  -17.5018  -31.6267   24.5166 H   0  0  0  0  0  0
  -15.5352  -30.2991   23.7661 H   0  0  0  0  0  0
  -15.8666  -28.0829   22.7065 H   0  0  0  0  0  0
  -24.5880  -30.7112   25.7793 H   0  0  0  0  0  0
  -24.8944  -32.2916   26.4904 H   0  0  0  0  0  0
  -25.8049  -30.8902   27.0228 H   0  0  0  0  0  0
  -26.2919  -29.6772   24.1207 H   0  0  0  0  0  0
  -27.4009  -29.7270   25.4712 H   0  0  0  0  0  0
  -27.8799  -30.4302   23.9446 H   0  0  0  0  0  0
  -27.2629  -33.3634   26.2086 H   0  0  0  0  0  0
  -28.3844  -32.6926   25.0336 H   0  0  0  0  0  0
  -28.0712  -31.8477   26.5422 H   0  0  0  0  0  0
  -28.2594  -38.0100   24.7511 H   0  0  0  0  0  0
  -28.1076  -36.2629   24.6291 H   0  0  0  0  0  0
  -27.2295  -37.1451   25.8866 H   0  0  0  0  0  0
  -20.9357  -29.8781   21.6917 H   0  0  0  0  0  0
  -26.0172  -38.2850   24.1416 H   0  0  0  0  0  0
  -28.8983  -20.5068   22.3152 H   0  0  0  0  0  0
  -30.3057  -18.9731   17.8390 H   0  0  0  0  0  0
  -27.9376  -17.4784   22.0087 H   0  0  0  0  0  0
  -29.1159  -18.1644   23.0982 H   0  0  0  0  0  0
  -30.8081  -16.7165   18.9169 H   0  0  0  0  0  0
  -29.0877  -16.5241   18.8450 H   0  0  0  0  0  0
  -31.6556  -24.5592   19.9649 H   0  0  0  0  0  0
  -30.6742  -25.9545   19.7733 H   0  0  0  0  0  0
  -29.5113  -15.7114   22.7090 H   0  0  0  0  0  0
  -30.8844  -16.6870   22.2688 H   0  0  0  0  0  0
  -29.9919  -25.8940   22.1814 H   0  0  0  0  0  0
  -31.7234  -25.9253   22.0178 H   0  0  0  0  0  0
  -30.3060  -22.1032   22.8465 H   0  0  0  0  0  0
  -28.9734  -23.2311   22.7306 H   0  0  0  0  0  0
  -30.9290  -22.6087   20.5645 H   0  0  0  0  0  0
  -29.5222  -23.9459   18.9514 H   0  0  0  0  0  0
  -30.7362  -21.0803   17.0916 H   0  0  0  0  0  0
  -31.1364  -22.3295   18.2529 H   0  0  0  0  0  0
  -29.4940  -22.2112   17.5830 H   0  0  0  0  0  0
  -31.8232  -25.0425   24.3279 H   0  0  0  0  0  0
  -31.2089  -23.4309   24.6677 H   0  0  0  0  0  0
  -30.0832  -24.7753   24.4660 H   0  0  0  0  0  0
  -27.9208  -24.8674   21.3768 H   0  0  0  0  0  0
  -27.3979  -24.5839   19.7523 H   0  0  0  0  0  0
  -31.8517  -23.6694   22.4193 H   0  0  0  0  0  0
  1 25  1  0  0  0
  1 30  2  0  0  0
  1 88  1  0  0  0
  2  3  1  0  0  0
  2 25  1  0  0  0
  2 90  1  0  0  0
  2 91  1  0  0  0
  3  4  1  0  0  0
  3 92  1  0  0  0
  3 93  1  0  0  0
  4  5  1  0  0  0
  4 94  1  0  0  0
  4 95  1  0  0  0
  5  6  1  0  0  0
  5 26  1  0  0  0
  5 96  1  0  0  0
  6 25  1  0  0  0
  6 97  1  0  0  0
  6 98  1  0  0  0
  7  8  2  0  0  0
  7 26  1  0  0  0
  7 29  1  0  0  0
  8  9  1  0  0  0
  8 22  1  0  0  0
  9 10  1  0  0  0
  9 27  2  0  0  0
 10 11  2  0  0  0
 10 15  1  0  0  0
 11 12  1  0  0  0
 11 99  1  0  0  0
 12 13  2  0  0  0
 12100  1  0  0  0
 13 14  1  0  0  0
 13 31  1  0  0  0
 14 15  2  0  0  0
 14101  1  0  0  0
 15102  1  0  0  0
 16 17  2  0  0  0
 16 21  1  0  0  0
 16 31  1  0  0  0
 17 18  1  0  0  0
 17103  1  0  0  0
 18 19  2  0  0  0
 18104  1  0  0  0
 19 20  1  0  0  0
 19 24  1  0  0  0
 20 21  2  0  0  0
 20105  1  0  0  0
 21 23  1  0  0  0
 22 28  1  0  0  0
 22 32  2  0  0  0
 26 27  1  0  0  0
 28106  1  0  0  0
 28107  1  0  0  0
 29108  1  0  0  0
 29109  1  0  0  0
 33 34  1  0  0  0
 33 66  1  0  0  0
 33 70  2  0  0  0
 34 36  1  0  0  0
 34 59  1  0  0  0
 34110  1  0  0  0
 35 44  2  0  0  0
 35 45  1  0  0  0
 35 68  1  0  0  0
 36 56  1  0  0  0
 36111  1  0  0  0
 37 39  1  0  0  0
 37 47  1  0  0  0
 37 66  1  0  0  0
 37112  1  0  0  0
 38 43  2  0  0  0
 38 46  1  0  0  0
 38 47  1  0  0  0
 39 64  1  0  0  0
 39 67  2  0  0  0
 40 52  1  0  0  0
 40 53  2  0  0  0
 40 58  1  0  0  0
 41113  1  0  0  0
 41114  1  0  0  0
 41115  1  0  0  0
 41 48  1  0  0  0
 42 43  1  0  0  0
 42 66  1  0  0  0
 42116  1  0  0  0
 42117  1  0  0  0
 43 44  1  0  0  0
 44118  1  0  0  0
 45 46  2  0  0  0
 45119  1  0  0  0
 46120  1  0  0  0
 47121  1  0  0  0
 47122  1  0  0  0
 48 56  1  0  0  0
 48 65  1  0  0  0
 48123  1  0  0  0
 49 50  1  0  0  0
 49 53  1  0  0  0
 49 64  1  0  0  0
 49124  1  0  0  0
 50 51  1  0  0  0
 50125  1  0  0  0
 50126  1  0  0  0
 51 52  1  0  0  0
 51127  1  0  0  0
 51128  1  0  0  0
 52129  1  0  0  0
 52130  1  0  0  0
 53 54  1  0  0  0
 54 55  2  0  0  0
 54131  1  0  0  0
 55 57  1  0  0  0
 55132  1  0  0  0
 56 69  2  0  0  0
 57 58  2  0  0  0
 57133  1  0  0  0
 58134  1  0  0  0
 59 60  1  0  0  0
 59 61  1  0  0  0
 59 62  1  0  0  0
 60135  1  0  0  0
 60136  1  0  0  0
 60137  1  0  0  0
 61138  1  0  0  0
 61139  1  0  0  0
 61140  1  0  0  0
 62141  1  0  0  0
 62142  1  0  0  0
 62143  1  0  0  0
 63 65  1  0  0  0
 63144  1  0  0  0
 63145  1  0  0  0
 63146  1  0  0  0
 64147  1  0  0  0
 65148  1  0  0  0
 68 87  1  0  0  0
 71 73  2  0  0  0
 71 74  1  0  0  0
 71149  1  0  0  0
 72 75  2  0  0  0
 72 76  1  0  0  0
 72150  1  0  0  0
 73 75  1  0  0  0
 73 77  1  0  0  0
 74 76  2  0  0  0
 74 83  1  0  0  0
 75 78  1  0  0  0
 76 85  1  0  0  0
 77 80  1  0  0  0
 77151  1  0  0  0
 77152  1  0  0  0
 78 88  1  0  0  0
 78153  1  0  0  0
 78154  1  0  0  0
 79 81  1  0  0  0
 79 84  1  0  0  0
 79155  1  0  0  0
 79156  1  0  0  0
 80 88  1  0  0  0
 80157  1  0  0  0
 80158  1  0  0  0
 81 89  1  0  0  0
 81159  1  0  0  0
 81160  1  0  0  0
 82 83  1  0  0  0
 82 89  1  0  0  0
 82161  1  0  0  0
 82162  1  0  0  0
 83 84  1  0  0  0
 83163  1  0  0  0
 84 87  1  0  0  0
 84164  1  0  0  0
 85165  1  0  0  0
 85166  1  0  0  0
 85167  1  0  0  0
 86168  1  0  0  0
 86169  1  0  0  0
 86170  1  0  0  0
 86 89  1  0  0  0
 87171  1  0  0  0
 87172  1  0  0  0
 89173  1  0  0  0
M  CHG  1  89   1
M  ISO  4   1 100  68 101  87 101  88 100
M  END
> <chiral flag>
0

> <version>
0

> <s_m_source_file>
/data/baiqing/PycharmProjects/Reinvent-master-3.2/result/LINK_invent/BTK/process_docking_weight1_custom_sum_contain_oxygen_bond_distance_aromatic_linkinvent_7_9_3/rearranged_h_0170.sdf

> <i_m_source_file_index>
7

> <r_mmod_Potential_Energy-OPLS-2005>
235.673522949219

> <r_mmod_Stretch_Energy-OPLS-2005>
102.921447753906

> <r_mmod_Bend_Energy-OPLS-2005>
202.520263671875

> <r_mmod_Torsional_Energy-OPLS-2005>
367.946838378906

> <r_mmod_Improper_Torsional_Energy-OPLS-2005>
13.6663293838501

> <r_mmod_Van_der_Waal_Energy-OPLS-2005>
158.57307434082

> <r_mmod_Electrostatic_Energy-OPLS-2005>
-242.007797241211

> <r_mmod_Solvation_Energy-OPLS-2005>
-420.993469238281

> <b_mmod_Minimization_Converged-OPLS-2005>
0

> <r_mmod_RMS_Derivative-OPLS-2005>
1.06713271141052

$$$$
7
                    3D
 Structure written by MMmdl.
153162  0  0  1  0            999 V2000
  -30.6224  -14.8395   20.4414 C   0  0  0  0  0  0
  -30.4506  -12.5293   19.4684 C   0  0  0  0  0  0
  -29.5171  -12.5367   18.2361 C   0  0  0  0  0  0
  -28.0462  -12.3514   18.6553 C   0  0  0  0  0  0
  -27.6463  -13.2523   19.8536 C   0  0  2  0  0  0
  -28.7043  -13.2251   20.9831 C   0  0  0  0  0  0
  -25.2532  -13.8238   20.5801 C   0  0  0  0  0  0
  -24.1822  -13.0454   20.9240 C   0  0  0  0  0  0
  -24.6436  -11.6940   20.8747 C   0  0  0  0  0  0
  -23.9114  -10.4306   21.0394 C   0  0  0  0  0  0
  -24.3653   -9.4215   21.9168 C   0  0  0  0  0  0
  -23.6311   -8.2257   22.0751 C   0  0  0  0  0  0
  -22.4286   -8.0291   21.3550 C   0  0  0  0  0  0
  -21.9943   -9.0266   20.4643 C   0  0  0  0  0  0
  -22.7282  -10.2139   20.3046 C   0  0  0  0  0  0
  -21.6859   -6.0744   22.5282 C   0  0  0  0  0  0
  -21.4012   -6.5648   23.8212 C   0  0  0  0  0  0
  -21.3660   -5.6796   24.9177 C   0  0  0  0  0  0
  -21.6047   -4.3063   24.7225 C   0  0  0  0  0  0
  -21.8822   -3.8154   23.4348 C   0  0  0  0  0  0
  -21.9200   -4.6975   22.3401 C   0  0  0  0  0  0
  -22.7829  -13.5205   21.1871 C   0  0  0  0  0  0
  -22.1664   -4.2160   21.0983 F   0  0  0  0  0  0
  -21.5634   -3.4546   25.7743 F   0  0  0  0  0  0
  -29.9966  -13.6027   20.3912 N   0  0  0  0  0  0
  -26.2996  -12.9490   20.3356 N   0  0  0  0  0  0
  -25.9389  -11.6607   20.5769 N   0  0  0  0  0  0
  -22.0471  -12.8184   22.0426 N   0  0  0  0  0  0
  -25.4193  -15.1973   20.4334 N   0  0  0  0  0  0
  -31.8100  -14.9168   20.1148 O   0  0  0  0  0  0
  -21.6647   -6.8887   21.4245 O   0  0  0  0  0  0
  -22.3512  -14.5497   20.6705 O   0  0  0  0  0  0
  -24.6397  -31.8514   23.1991 C   0  0  0  0  0  0
  -25.9199  -32.4732   23.8346 C   0  0  1  0  0  0
  -27.2177  -27.1968   20.1181 C   0  0  0  0  0  0
  -25.5968  -33.8540   24.2250 N   0  0  0  0  0  0
  -23.4377  -30.4790   21.5451 C   0  0  2  0  0  0
  -24.8866  -28.9281   20.1101 C   0  0  0  0  0  0
  -22.7528  -29.4597   22.4894 C   0  0  0  0  0  0
  -18.0295  -28.1388   22.8498 C   0  0  0  0  0  0
  -24.1492  -36.7261   23.2639 C   0  0  0  0  0  0
  -25.9956  -30.7393   21.3978 C   0  0  0  0  0  0
  -26.0651  -29.3600   20.7326 C   0  0  0  0  0  0
  -27.2279  -28.5058   20.7359 C   0  0  0  0  0  0
  -26.0165  -26.8847   19.4294 C   0  0  0  0  0  0
  -24.8718  -27.6966   19.4513 C   0  0  0  0  0  0
  -23.6606  -29.8218   20.1606 C   0  0  0  0  0  0
  -25.4118  -36.3051   24.0325 C   0  0  1  0  0  0
  -20.5907  -28.3715   23.1249 C   0  0  2  0  0  0
  -20.6775  -26.9420   22.5409 C   0  0  0  0  0  0
  -19.5744  -26.6382   21.5219 C   0  0  0  0  0  0
  -18.1925  -26.7931   22.1635 C   0  0  0  0  0  0
  -19.1552  -28.8867   23.2867 C   0  0  0  0  0  0
  -18.9472  -30.1468   23.8887 C   0  0  0  0  0  0
  -17.6468  -30.6591   24.0565 C   0  0  0  0  0  0
  -25.9072  -34.9429   23.5089 C   0  0  0  0  0  0
  -16.5359  -29.9087   23.6346 C   0  0  0  0  0  0
  -16.7283  -28.6502   23.0375 C   0  0  0  0  0  0
  -26.4520  -31.6578   25.0764 C   0  0  0  0  0  0
  -25.3704  -31.3784   26.1465 C   0  0  0  0  0  0
  -27.0371  -30.2964   24.6348 C   0  0  0  0  0  0
  -27.6075  -32.4318   25.7536 C   0  0  0  0  0  0
  -27.5590  -37.1771   24.8445 C   0  0  0  0  0  0
  -21.4225  -29.3061   22.3629 N   0  0  0  0  0  0
  -26.4268  -37.3776   23.9439 N   0  0  0  0  0  0
  -24.7102  -31.0420   22.1015 N   0  0  0  0  0  0
  -23.4192  -28.8110   23.2996 O   0  0  0  0  0  0
  -28.2553  -26.1998   20.2040 O   0  0  0  0  0  0
  -26.5637  -34.8916   22.4652 O   0  0  0  0  0  0
  -23.5527  -32.1377   23.7238 O   0  0  0  0  0  0
  -27.5568  -22.2460   19.7034 C   0  0  0  0  0  0
  -27.8614  -20.8620   19.8375 C   0  0  0  0  0  0
  -28.4621  -23.2933   20.0347 C   0  0  0  0  0  0
  -29.0997  -20.3976   20.3359 C   0  0  0  0  0  0
  -29.7262  -22.7590   20.4674 C   0  0  0  0  0  0
  -29.1816  -18.0483   19.3344 C   0  0  0  0  0  0
  -29.2483  -18.8050   20.6437 C   0  0  1  0  0  0
  -30.1622  -17.4697   20.2913 C   0  0  1  0  0  0
  -30.8823  -23.7046   20.7276 C   0  0  0  0  0  0
  -27.9035  -24.7932   19.7179 C   0  0  0  0  0  0
  -30.0112  -21.3923   20.6416 N   0  0  0  0  0  0
  -29.8602  -16.0006   20.6155 N   0  0  0  0  0  0
  -31.4821  -12.6776   19.1418 H   0  0  0  0  0  0
  -30.4333  -11.5612   19.9690 H   0  0  0  0  0  0
  -29.8060  -11.7528   17.5345 H   0  0  0  0  0  0
  -29.6273  -13.4805   17.6981 H   0  0  0  0  0  0
  -27.9063  -11.3021   18.9170 H   0  0  0  0  0  0
  -27.3887  -12.5445   17.8069 H   0  0  0  0  0  0
  -27.6222  -14.2706   19.4657 H   0  0  0  0  0  0
  -28.7685  -12.2345   21.4359 H   0  0  0  0  0  0
  -28.4357  -13.9148   21.7841 H   0  0  0  0  0  0
  -25.2802   -9.5693   22.4733 H   0  0  0  0  0  0
  -24.0034   -7.4651   22.7473 H   0  0  0  0  0  0
  -21.0882   -8.8779   19.8940 H   0  0  0  0  0  0
  -22.3732  -10.9678   19.6153 H   0  0  0  0  0  0
  -21.1985   -7.6149   23.9719 H   0  0  0  0  0  0
  -21.1482   -6.0527   25.9078 H   0  0  0  0  0  0
  -22.0597   -2.7620   23.2852 H   0  0  0  0  0  0
  -22.4115  -11.9880   22.4856 H   0  0  0  0  0  0
  -21.1064  -13.1171   22.2573 H   0  0  0  0  0  0
  -24.6582  -15.8516   20.5817 H   0  0  0  0  0  0
  -26.2719  -15.6503   20.1318 H   0  0  0  0  0  0
  -26.7258  -32.5354   23.1071 H   0  0  0  0  0  0
  -25.0118  -33.9670   25.0397 H   0  0  0  0  0  0
  -22.7386  -31.3058   21.4009 H   0  0  0  0  0  0
  -23.3789  -35.9550   23.3217 H   0  0  0  0  0  0
  -24.3596  -36.8973   22.2068 H   0  0  0  0  0  0
  -23.7190  -37.6414   23.6720 H   0  0  0  0  0  0
  -26.1523  -31.4999   20.6313 H   0  0  0  0  0  0
  -26.8649  -30.7795   22.0413 H   0  0  0  0  0  0
  -28.1164  -28.8289   21.2603 H   0  0  0  0  0  0
  -25.8945  -25.9740   18.8661 H   0  0  0  0  0  0
  -23.9773  -27.3614   18.9452 H   0  0  0  0  0  0
  -23.7915  -30.6049   19.4130 H   0  0  0  0  0  0
  -22.7750  -29.2642   19.8490 H   0  0  0  0  0  0
  -25.1287  -36.1877   25.0814 H   0  0  0  0  0  0
  -21.0011  -28.3306   24.1365 H   0  0  0  0  0  0
  -20.5674  -26.2325   23.3621 H   0  0  0  0  0  0
  -21.6638  -26.7417   22.1207 H   0  0  0  0  0  0
  -19.6897  -25.6291   21.1253 H   0  0  0  0  0  0
  -19.6678  -27.3191   20.6744 H   0  0  0  0  0  0
  -17.4190  -26.6699   21.4039 H   0  0  0  0  0  0
  -18.0311  -26.0070   22.9028 H   0  0  0  0  0  0
  -19.7941  -30.7293   24.2247 H   0  0  0  0  0  0
  -17.5018  -31.6275   24.5166 H   0  0  0  0  0  0
  -15.5358  -30.2983   23.7677 H   0  0  0  0  0  0
  -15.8679  -28.0812   22.7105 H   0  0  0  0  0  0
  -24.5882  -30.7127   25.7795 H   0  0  0  0  0  0
  -24.8898  -32.2982   26.4818 H   0  0  0  0  0  0
  -25.7988  -30.9009   27.0285 H   0  0  0  0  0  0
  -26.2992  -29.6693   24.1330 H   0  0  0  0  0  0
  -27.3936  -29.7266   25.4937 H   0  0  0  0  0  0
  -27.8925  -30.4184   23.9696 H   0  0  0  0  0  0
  -27.2707  -33.3670   26.2022 H   0  0  0  0  0  0
  -28.3936  -32.6776   25.0381 H   0  0  0  0  0  0
  -28.0668  -31.8477   26.5520 H   0  0  0  0  0  0
  -28.2520  -38.0152   24.7607 H   0  0  0  0  0  0
  -28.1172  -36.2688   24.6112 H   0  0  0  0  0  0
  -27.2326  -37.1222   25.8846 H   0  0  0  0  0  0
  -20.9402  -29.8813   21.6859 H   0  0  0  0  0  0
  -26.0129  -38.2822   24.1533 H   0  0  0  0  0  0
  -26.5806  -22.5074   19.3212 H   0  0  0  0  0  0
  -27.1018  -20.1371   19.5785 H   0  0  0  0  0  0
  -29.6161  -18.5279   18.4587 H   0  0  0  0  0  0
  -28.2597  -17.5084   19.1338 H   0  0  0  0  0  0
  -28.4933  -18.5900   21.3969 H   0  0  0  0  0  0
  -31.2155  -17.6994   20.1348 H   0  0  0  0  0  0
  -30.8880  -24.5082   19.9899 H   0  0  0  0  0  0
  -31.8430  -23.1921   20.6591 H   0  0  0  0  0  0
  -30.7975  -24.1539   21.7165 H   0  0  0  0  0  0
  -26.8927  -24.6435   20.0958 H   0  0  0  0  0  0
  -27.8332  -24.8505   18.6307 H   0  0  0  0  0  0
  -28.9079  -15.8195   20.8955 H   0  0  0  0  0  0
  1 25  1  0  0  0
  1 30  2  0  0  0
  1 82  1  0  0  0
  2  3  1  0  0  0
  2 25  1  0  0  0
  2 83  1  0  0  0
  2 84  1  0  0  0
  3  4  1  0  0  0
  3 85  1  0  0  0
  3 86  1  0  0  0
  4  5  1  0  0  0
  4 87  1  0  0  0
  4 88  1  0  0  0
  5  6  1  0  0  0
  5 26  1  0  0  0
  5 89  1  0  0  0
  6 25  1  0  0  0
  6 90  1  0  0  0
  6 91  1  0  0  0
  7  8  2  0  0  0
  7 26  1  0  0  0
  7 29  1  0  0  0
  8  9  1  0  0  0
  8 22  1  0  0  0
  9 10  1  0  0  0
  9 27  2  0  0  0
 10 11  2  0  0  0
 10 15  1  0  0  0
 11 12  1  0  0  0
 11 92  1  0  0  0
 12 13  2  0  0  0
 12 93  1  0  0  0
 13 14  1  0  0  0
 13 31  1  0  0  0
 14 15  2  0  0  0
 14 94  1  0  0  0
 15 95  1  0  0  0
 16 17  2  0  0  0
 16 21  1  0  0  0
 16 31  1  0  0  0
 17 18  1  0  0  0
 17 96  1  0  0  0
 18 19  2  0  0  0
 18 97  1  0  0  0
 19 20  1  0  0  0
 19 24  1  0  0  0
 20 21  2  0  0  0
 20 98  1  0  0  0
 21 23  1  0  0  0
 22 28  1  0  0  0
 22 32  2  0  0  0
 26 27  1  0  0  0
 28 99  1  0  0  0
 28100  1  0  0  0
 29101  1  0  0  0
 29102  1  0  0  0
 33 34  1  0  0  0
 33 66  1  0  0  0
 33 70  2  0  0  0
 34 36  1  0  0  0
 34 59  1  0  0  0
 34103  1  0  0  0
 35 44  2  0  0  0
 35 45  1  0  0  0
 35 68  1  0  0  0
 36 56  1  0  0  0
 36104  1  0  0  0
 37 39  1  0  0  0
 37 47  1  0  0  0
 37 66  1  0  0  0
 37105  1  0  0  0
 38 43  2  0  0  0
 38 46  1  0  0  0
 38 47  1  0  0  0
 39 64  1  0  0  0
 39 67  2  0  0  0
 40 52  1  0  0  0
 40 53  2  0  0  0
 40 58  1  0  0  0
 41106  1  0  0  0
 41107  1  0  0  0
 41108  1  0  0  0
 41 48  1  0  0  0
 42 43  1  0  0  0
 42 66  1  0  0  0
 42109  1  0  0  0
 42110  1  0  0  0
 43 44  1  0  0  0
 44111  1  0  0  0
 45 46  2  0  0  0
 45112  1  0  0  0
 46113  1  0  0  0
 47114  1  0  0  0
 47115  1  0  0  0
 48 56  1  0  0  0
 48 65  1  0  0  0
 48116  1  0  0  0
 49 50  1  0  0  0
 49 53  1  0  0  0
 49 64  1  0  0  0
 49117  1  0  0  0
 50 51  1  0  0  0
 50118  1  0  0  0
 50119  1  0  0  0
 51 52  1  0  0  0
 51120  1  0  0  0
 51121  1  0  0  0
 52122  1  0  0  0
 52123  1  0  0  0
 53 54  1  0  0  0
 54 55  2  0  0  0
 54124  1  0  0  0
 55 57  1  0  0  0
 55125  1  0  0  0
 56 69  2  0  0  0
 57 58  2  0  0  0
 57126  1  0  0  0
 58127  1  0  0  0
 59 60  1  0  0  0
 59 61  1  0  0  0
 59 62  1  0  0  0
 60128  1  0  0  0
 60129  1  0  0  0
 60130  1  0  0  0
 61131  1  0  0  0
 61132  1  0  0  0
 61133  1  0  0  0
 62134  1  0  0  0
 62135  1  0  0  0
 62136  1  0  0  0
 63 65  1  0  0  0
 63137  1  0  0  0
 63138  1  0  0  0
 63139  1  0  0  0
 64140  1  0  0  0
 65141  1  0  0  0
 68 80  1  0  0  0
 71 72  2  0  0  0
 71 73  1  0  0  0
 71142  1  0  0  0
 72 74  1  0  0  0
 72143  1  0  0  0
 73 75  2  0  0  0
 73 80  1  0  0  0
 74 81  2  0  0  0
 74 77  1  0  0  0
 75 79  1  0  0  0
 75 81  1  0  0  0
 76 77  1  0  0  0
 76 78  1  0  0  0
 76144  1  0  0  0
 76145  1  0  0  0
 77 78  1  0  0  0
 77146  1  0  0  0
 78 82  1  0  0  0
 78147  1  0  0  0
 79148  1  0  0  0
 79149  1  0  0  0
 79150  1  0  0  0
 80151  1  0  0  0
 80152  1  0  0  0
 82153  1  0  0  0
M  ISO  4   1 100  68 101  80 101  82 100
M  END
> <chiral flag>
0

> <version>
0

> <s_m_source_file>
/data/baiqing/PycharmProjects/Reinvent-master-3.2/result/LINK_invent/BTK/process_docking_weight1_custom_sum_contain_oxygen_bond_distance_aromatic_linkinvent_7_9_3/rearranged_h_0170.sdf

> <i_m_source_file_index>
8

> <r_mmod_Potential_Energy-OPLS-2005>
332.679565429688

> <r_mmod_Stretch_Energy-OPLS-2005>
187.797103881836

> <r_mmod_Bend_Energy-OPLS-2005>
302.332153320312

> <r_mmod_Torsional_Energy-OPLS-2005>
256.570556640625

> <r_mmod_Improper_Torsional_Energy-OPLS-2005>
6.71873474121094

> <r_mmod_Van_der_Waal_Energy-OPLS-2005>
147.420547485352

> <r_mmod_Electrostatic_Energy-OPLS-2005>
-472.215484619141

> <r_mmod_Solvation_Energy-OPLS-2005>
-233.018981933594

> <b_mmod_Minimization_Converged-OPLS-2005>
0

> <r_mmod_RMS_Derivative-OPLS-2005>
2.36760258674622

$$$$
8
                    3D
 Structure written by MMmdl.
171181  0  0  1  0            999 V2000
  -30.7770  -14.4429   20.5755 C   0  0  0  0  0  0
  -30.3981  -12.2950   19.4320 C   0  0  0  0  0  0
  -29.4870  -12.5035   18.2060 C   0  0  0  0  0  0
  -28.0059  -12.3835   18.6105 C   0  0  0  0  0  0
  -27.6550  -13.2253   19.8650 C   0  0  2  0  0  0
  -28.6987  -13.0345   20.9885 C   0  0  0  0  0  0
  -25.2540  -13.8228   20.5712 C   0  0  0  0  0  0
  -24.1799  -13.0457   20.9171 C   0  0  0  0  0  0
  -24.6375  -11.6934   20.8702 C   0  0  0  0  0  0
  -23.9051  -10.4302   21.0376 C   0  0  0  0  0  0
  -24.3623   -9.4207   21.9146 C   0  0  0  0  0  0
  -23.6297   -8.2243   22.0731 C   0  0  0  0  0  0
  -22.4276   -8.0287   21.3537 C   0  0  0  0  0  0
  -21.9873   -9.0258   20.4649 C   0  0  0  0  0  0
  -22.7209  -10.2139   20.3044 C   0  0  0  0  0  0
  -21.6847   -6.0744   22.5303 C   0  0  0  0  0  0
  -21.4034   -6.5651   23.8240 C   0  0  0  0  0  0
  -21.3645   -5.6801   24.9191 C   0  0  0  0  0  0
  -21.6027   -4.3056   24.7253 C   0  0  0  0  0  0
  -21.8803   -3.8146   23.4371 C   0  0  0  0  0  0
  -21.9199   -4.6970   22.3424 C   0  0  0  0  0  0
  -22.7822  -13.5256   21.1853 C   0  0  0  0  0  0
  -22.1654   -4.2150   21.0994 F   0  0  0  0  0  0
  -21.5618   -3.4539   25.7757 F   0  0  0  0  0  0
  -30.0291  -13.3128   20.4301 N   0  0  0  0  0  0
  -26.2983  -12.9421   20.3339 N   0  0  0  0  0  0
  -25.9324  -11.6554   20.5744 N   0  0  0  0  0  0
  -22.0461  -12.8207   22.0407 N   0  0  0  0  0  0
  -25.4231  -15.1954   20.4152 N   0  0  0  0  0  0
  -31.9246  -14.5195   20.1286 O   0  0  0  0  0  0
  -21.6635   -6.8887   21.4261 O   0  0  0  0  0  0
  -22.3455  -14.5559   20.6726 O   0  0  0  0  0  0
  -24.6186  -31.8691   23.2202 C   0  0  0  0  0  0
  -25.9087  -32.4829   23.8423 C   0  0  1  0  0  0
  -27.1940  -27.4021   20.0397 C   0  0  0  0  0  0
  -25.5949  -33.8613   24.2343 N   0  0  0  0  0  0
  -23.4010  -30.5075   21.5653 C   0  0  2  0  0  0
  -24.8324  -28.9942   20.1129 C   0  0  0  0  0  0
  -22.7422  -29.4663   22.5003 C   0  0  0  0  0  0
  -18.0273  -28.1388   22.8482 C   0  0  0  0  0  0
  -24.1526  -36.7334   23.2611 C   0  0  0  0  0  0
  -25.9421  -30.8176   21.3869 C   0  0  0  0  0  0
  -26.0047  -29.4577   20.7196 C   0  0  0  0  0  0
  -27.1852  -28.6626   20.6977 C   0  0  0  0  0  0
  -26.0031  -27.0190   19.3920 C   0  0  0  0  0  0
  -24.8260  -27.7672   19.4516 C   0  0  0  0  0  0
  -23.6043  -29.8712   20.1689 C   0  0  0  0  0  0
  -25.4136  -36.3102   24.0326 C   0  0  1  0  0  0
  -20.5874  -28.3681   23.1327 C   0  0  2  0  0  0
  -20.6787  -26.9431   22.5423 C   0  0  0  0  0  0
  -19.5758  -26.6413   21.5223 C   0  0  0  0  0  0
  -18.1933  -26.7935   22.1628 C   0  0  0  0  0  0
  -19.1522  -28.8851   23.2891 C   0  0  0  0  0  0
  -18.9448  -30.1447   23.8927 C   0  0  0  0  0  0
  -17.6449  -30.6595   24.0570 C   0  0  0  0  0  0
  -25.9081  -34.9455   23.5134 C   0  0  0  0  0  0
  -16.5345  -29.9111   23.6310 C   0  0  0  0  0  0
  -16.7264  -28.6522   23.0339 C   0  0  0  0  0  0
  -26.4523  -31.6598   25.0733 C   0  0  0  0  0  0
  -25.3795  -31.3702   26.1486 C   0  0  0  0  0  0
  -27.0317  -30.3019   24.6100 C   0  0  0  0  0  0
  -27.6120  -32.4276   25.7487 C   0  0  0  0  0  0
  -27.5603  -37.1844   24.8450 C   0  0  0  0  0  0
  -21.4158  -29.3034   22.3713 N   0  0  0  0  0  0
  -26.4312  -37.3793   23.9409 N   0  0  0  0  0  0
  -24.6733  -31.0774   22.1144 N   0  0  0  0  0  0
  -23.4195  -28.8171   23.3016 O   0  0  0  0  0  0
  -28.3214  -26.5840   20.0446 O   0  0  0  0  0  0
  -26.5609  -34.8907   22.4674 O   0  0  0  0  0  0
  -23.5377  -32.1476   23.7573 O   0  0  0  0  0  0
  -30.0001  -20.2229   20.0575 C   0  0  0  0  0  0
  -30.1225  -19.8274   21.4073 C   0  0  0  0  0  0
  -29.2549  -21.3688   19.7230 C   0  0  0  0  0  0
  -28.6549  -22.1123   20.7627 C   0  0  0  0  0  0
  -29.5715  -20.7077   22.3676 C   0  0  0  0  0  0
  -29.7493  -17.5377   22.4986 C   0  0  0  0  0  0
  -31.4080  -17.6994   20.6212 C   0  0  0  0  0  0
  -26.9901  -24.1790   21.1792 C   0  0  0  0  0  0
  -29.9891  -16.0111   22.3003 C   0  0  0  0  0  0
  -30.3780  -16.7402   19.9789 C   0  0  0  0  0  0
  -30.7693  -18.4770   21.7939 C   0  0  0  0  0  0
  -27.4174  -22.9227   20.5071 C   0  0  1  0  0  0
  -27.2942  -24.2133   19.6824 C   0  0  1  0  0  0
  -28.9986  -21.6569   18.2531 C   0  0  0  0  0  0
  -26.3138  -23.8889   18.5395 C   0  0  0  0  0  0
  -28.3397  -25.3118   19.3142 C   0  0  0  0  0  0
  -28.8595  -21.8032   22.0610 N   0  0  0  0  0  0
  -30.1238  -15.5940   20.8812 N   0  0  0  0  0  0
  -29.6752  -20.4848   23.7300 N   0  0  0  0  0  0
  -31.4475  -12.3433   19.1378 H   0  0  0  0  0  0
  -30.2583  -11.2987   19.8527 H   0  0  0  0  0  0
  -29.7221  -11.7772   17.4258 H   0  0  0  0  0  0
  -29.6682  -13.4871   17.7687 H   0  0  0  0  0  0
  -27.7903  -11.3310   18.7949 H   0  0  0  0  0  0
  -27.3684  -12.6793   17.7769 H   0  0  0  0  0  0
  -27.6915  -14.2714   19.5559 H   0  0  0  0  0  0
  -28.6652  -12.0123   21.3642 H   0  0  0  0  0  0
  -28.4661  -13.6677   21.8405 H   0  0  0  0  0  0
  -25.2767   -9.5708   22.4708 H   0  0  0  0  0  0
  -24.0017   -7.4641   22.7452 H   0  0  0  0  0  0
  -21.0771   -8.8788   19.8995 H   0  0  0  0  0  0
  -22.3618  -10.9669   19.6167 H   0  0  0  0  0  0
  -21.2045   -7.6164   23.9745 H   0  0  0  0  0  0
  -21.1466   -6.0529   25.9095 H   0  0  0  0  0  0
  -22.0590   -2.7615   23.2880 H   0  0  0  0  0  0
  -22.4050  -11.9793   22.4669 H   0  0  0  0  0  0
  -21.1088  -13.1211   22.2670 H   0  0  0  0  0  0
  -24.6638  -15.8565   20.5410 H   0  0  0  0  0  0
  -26.2939  -15.6371   20.1419 H   0  0  0  0  0  0
  -26.7103  -32.5506   23.1120 H   0  0  0  0  0  0
  -25.0083  -33.9751   25.0463 H   0  0  0  0  0  0
  -22.6900  -31.3281   21.4498 H   0  0  0  0  0  0
  -23.3747  -35.9710   23.3272 H   0  0  0  0  0  0
  -24.3654  -36.8923   22.2027 H   0  0  0  0  0  0
  -23.7287  -37.6554   23.6610 H   0  0  0  0  0  0
  -26.0723  -31.5940   20.6303 H   0  0  0  0  0  0
  -26.8230  -30.8482   22.0158 H   0  0  0  0  0  0
  -28.0855  -29.0163   21.1800 H   0  0  0  0  0  0
  -25.9292  -26.1587   18.7816 H   0  0  0  0  0  0
  -23.9372  -27.4174   18.9453 H   0  0  0  0  0  0
  -23.7251  -30.6649   19.4282 H   0  0  0  0  0  0
  -22.7217  -29.3062   19.8564 H   0  0  0  0  0  0
  -25.1280  -36.2000   25.0813 H   0  0  0  0  0  0
  -20.9932  -28.3242   24.1458 H   0  0  0  0  0  0
  -20.5736  -26.2275   23.3594 H   0  0  0  0  0  0
  -21.6651  -26.7516   22.1174 H   0  0  0  0  0  0
  -19.6905  -25.6335   21.1215 H   0  0  0  0  0  0
  -19.6676  -27.3252   20.6776 H   0  0  0  0  0  0
  -17.4201  -26.6682   21.4029 H   0  0  0  0  0  0
  -18.0338  -26.0098   22.9052 H   0  0  0  0  0  0
  -19.7918  -30.7237   24.2347 H   0  0  0  0  0  0
  -17.5006  -31.6276   24.5158 H   0  0  0  0  0  0
  -15.5342  -30.3013   23.7622 H   0  0  0  0  0  0
  -15.8671  -28.0836   22.7057 H   0  0  0  0  0  0
  -24.6081  -30.6889   25.7858 H   0  0  0  0  0  0
  -24.8887  -32.2851   26.4821 H   0  0  0  0  0  0
  -25.8220  -30.9009   27.0284 H   0  0  0  0  0  0
  -26.2864  -29.6842   24.1074 H   0  0  0  0  0  0
  -27.3965  -29.7173   25.4558 H   0  0  0  0  0  0
  -27.8776  -30.4287   23.9327 H   0  0  0  0  0  0
  -27.2796  -33.3594   26.2065 H   0  0  0  0  0  0
  -28.3972  -32.6787   25.0336 H   0  0  0  0  0  0
  -28.0742  -31.8359   26.5399 H   0  0  0  0  0  0
  -28.2595  -38.0163   24.7507 H   0  0  0  0  0  0
  -28.1131  -36.2694   24.6270 H   0  0  0  0  0  0
  -27.2345  -37.1480   25.8855 H   0  0  0  0  0  0
  -20.9338  -29.8776   21.6943 H   0  0  0  0  0  0
  -26.0187  -38.2856   24.1435 H   0  0  0  0  0  0
  -30.3895  -19.6193   19.2541 H   0  0  0  0  0  0
  -29.6874  -17.7739   23.5600 H   0  0  0  0  0  0
  -28.7583  -17.7544   22.0983 H   0  0  0  0  0  0
  -31.9096  -18.3355   19.8935 H   0  0  0  0  0  0
  -32.2213  -17.0972   21.0276 H   0  0  0  0  0  0
  -27.7081  -24.6329   21.8566 H   0  0  0  0  0  0
  -25.9484  -24.3009   21.4615 H   0  0  0  0  0  0
  -29.1749  -15.4707   22.7793 H   0  0  0  0  0  0
  -30.8957  -15.7320   22.8416 H   0  0  0  0  0  0
  -30.7314  -16.4232   18.9954 H   0  0  0  0  0  0
  -29.4372  -17.2548   19.7795 H   0  0  0  0  0  0
  -31.5744  -18.7189   22.4879 H   0  0  0  0  0  0
  -26.6130  -22.1950   20.4198 H   0  0  0  0  0  0
  -29.8032  -21.2510   17.6380 H   0  0  0  0  0  0
  -28.9420  -22.7248   18.0493 H   0  0  0  0  0  0
  -28.0687  -21.1885   17.9311 H   0  0  0  0  0  0
  -26.3857  -22.8431   18.2362 H   0  0  0  0  0  0
  -26.5112  -24.4730   17.6395 H   0  0  0  0  0  0
  -25.2814  -24.0513   18.8572 H   0  0  0  0  0  0
  -28.3012  -25.5325   18.2465 H   0  0  0  0  0  0
  -29.3265  -24.8775   19.4676 H   0  0  0  0  0  0
  -30.1306  -19.6669   24.1110 H   0  0  0  0  0  0
  -29.2057  -21.0857   24.3938 H   0  0  0  0  0  0
  1 25  1  0  0  0
  1 30  2  0  0  0
  1 88  1  0  0  0
  2  3  1  0  0  0
  2 25  1  0  0  0
  2 90  1  0  0  0
  2 91  1  0  0  0
  3  4  1  0  0  0
  3 92  1  0  0  0
  3 93  1  0  0  0
  4  5  1  0  0  0
  4 94  1  0  0  0
  4 95  1  0  0  0
  5  6  1  0  0  0
  5 26  1  0  0  0
  5 96  1  0  0  0
  6 25  1  0  0  0
  6 97  1  0  0  0
  6 98  1  0  0  0
  7  8  2  0  0  0
  7 26  1  0  0  0
  7 29  1  0  0  0
  8  9  1  0  0  0
  8 22  1  0  0  0
  9 10  1  0  0  0
  9 27  2  0  0  0
 10 11  2  0  0  0
 10 15  1  0  0  0
 11 12  1  0  0  0
 11 99  1  0  0  0
 12 13  2  0  0  0
 12100  1  0  0  0
 13 14  1  0  0  0
 13 31  1  0  0  0
 14 15  2  0  0  0
 14101  1  0  0  0
 15102  1  0  0  0
 16 17  2  0  0  0
 16 21  1  0  0  0
 16 31  1  0  0  0
 17 18  1  0  0  0
 17103  1  0  0  0
 18 19  2  0  0  0
 18104  1  0  0  0
 19 20  1  0  0  0
 19 24  1  0  0  0
 20 21  2  0  0  0
 20105  1  0  0  0
 21 23  1  0  0  0
 22 28  1  0  0  0
 22 32  2  0  0  0
 26 27  1  0  0  0
 28106  1  0  0  0
 28107  1  0  0  0
 29108  1  0  0  0
 29109  1  0  0  0
 33 34  1  0  0  0
 33 66  1  0  0  0
 33 70  2  0  0  0
 34 36  1  0  0  0
 34 59  1  0  0  0
 34110  1  0  0  0
 35 44  2  0  0  0
 35 45  1  0  0  0
 35 68  1  0  0  0
 36 56  1  0  0  0
 36111  1  0  0  0
 37 39  1  0  0  0
 37 47  1  0  0  0
 37 66  1  0  0  0
 37112  1  0  0  0
 38 43  2  0  0  0
 38 46  1  0  0  0
 38 47  1  0  0  0
 39 64  1  0  0  0
 39 67  2  0  0  0
 40 52  1  0  0  0
 40 53  2  0  0  0
 40 58  1  0  0  0
 41113  1  0  0  0
 41114  1  0  0  0
 41115  1  0  0  0
 41 48  1  0  0  0
 42 43  1  0  0  0
 42 66  1  0  0  0
 42116  1  0  0  0
 42117  1  0  0  0
 43 44  1  0  0  0
 44118  1  0  0  0
 45 46  2  0  0  0
 45119  1  0  0  0
 46120  1  0  0  0
 47121  1  0  0  0
 47122  1  0  0  0
 48 56  1  0  0  0
 48 65  1  0  0  0
 48123  1  0  0  0
 49 50  1  0  0  0
 49 53  1  0  0  0
 49 64  1  0  0  0
 49124  1  0  0  0
 50 51  1  0  0  0
 50125  1  0  0  0
 50126  1  0  0  0
 51 52  1  0  0  0
 51127  1  0  0  0
 51128  1  0  0  0
 52129  1  0  0  0
 52130  1  0  0  0
 53 54  1  0  0  0
 54 55  2  0  0  0
 54131  1  0  0  0
 55 57  1  0  0  0
 55132  1  0  0  0
 56 69  2  0  0  0
 57 58  2  0  0  0
 57133  1  0  0  0
 58134  1  0  0  0
 59 60  1  0  0  0
 59 61  1  0  0  0
 59 62  1  0  0  0
 60135  1  0  0  0
 60136  1  0  0  0
 60137  1  0  0  0
 61138  1  0  0  0
 61139  1  0  0  0
 61140  1  0  0  0
 62141  1  0  0  0
 62142  1  0  0  0
 62143  1  0  0  0
 63 65  1  0  0  0
 63144  1  0  0  0
 63145  1  0  0  0
 63146  1  0  0  0
 64147  1  0  0  0
 65148  1  0  0  0
 68 86  1  0  0  0
 71 72  2  0  0  0
 71 73  1  0  0  0
 71149  1  0  0  0
 72 75  1  0  0  0
 72 81  1  0  0  0
 73 74  2  0  0  0
 73 84  1  0  0  0
 74 87  1  0  0  0
 74 82  1  0  0  0
 75 87  2  0  0  0
 75 89  1  0  0  0
 76 79  1  0  0  0
 76 81  1  0  0  0
 76150  1  0  0  0
 76151  1  0  0  0
 77 80  1  0  0  0
 77 81  1  0  0  0
 77152  1  0  0  0
 77153  1  0  0  0
 78 82  1  0  0  0
 78 83  1  0  0  0
 78154  1  0  0  0
 78155  1  0  0  0
 79 88  1  0  0  0
 79156  1  0  0  0
 79157  1  0  0  0
 80 88  1  0  0  0
 80158  1  0  0  0
 80159  1  0  0  0
 81160  1  0  0  0
 82 83  1  0  0  0
 82161  1  0  0  0
 83 85  1  0  0  0
 83 86  1  0  0  0
 84162  1  0  0  0
 84163  1  0  0  0
 84164  1  0  0  0
 85165  1  0  0  0
 85166  1  0  0  0
 85167  1  0  0  0
 86168  1  0  0  0
 86169  1  0  0  0
 89170  1  0  0  0
 89171  1  0  0  0
M  ISO  4   1 100  68 101  86 101  88 100
M  END
> <chiral flag>
0

> <version>
0

> <s_m_source_file>
/data/baiqing/PycharmProjects/Reinvent-master-3.2/result/LINK_invent/BTK/process_docking_weight1_custom_sum_contain_oxygen_bond_distance_aromatic_linkinvent_7_9_3/rearranged_h_0170.sdf

> <i_m_source_file_index>
9

> <r_mmod_Potential_Energy-OPLS-2005>
90.7166137695312

> <r_mmod_Stretch_Energy-OPLS-2005>
52.6697883605957

> <r_mmod_Bend_Energy-OPLS-2005>
182.177368164062

> <r_mmod_Torsional_Energy-OPLS-2005>
374.723052978516

> <r_mmod_Improper_Torsional_Energy-OPLS-2005>
17.9592933654785

> <r_mmod_Van_der_Waal_Energy-OPLS-2005>
193.476776123047

> <r_mmod_Electrostatic_Energy-OPLS-2005>
-544.868225097656

> <r_mmod_Solvation_Energy-OPLS-2005>
-211.338409423828

> <b_mmod_Minimization_Converged-OPLS-2005>
0

> <r_mmod_RMS_Derivative-OPLS-2005>
4.64582204818726

$$$$
9
                    3D
 Structure written by MMmdl.
176186  0  0  1  0            999 V2000
  -30.7693  -14.4746   20.6609 C   0  0  0  0  0  0
  -30.4125  -12.3489   19.4390 C   0  0  0  0  0  0
  -29.4875  -12.5226   18.2184 C   0  0  0  0  0  0
  -28.0135  -12.3613   18.6270 C   0  0  0  0  0  0
  -27.6541  -13.2123   19.8737 C   0  0  2  0  0  0
  -28.6924  -13.0473   21.0092 C   0  0  0  0  0  0
  -25.2507  -13.8155   20.5640 C   0  0  0  0  0  0
  -24.1771  -13.0442   20.9179 C   0  0  0  0  0  0
  -24.6336  -11.6907   20.8732 C   0  0  0  0  0  0
  -23.9020  -10.4282   21.0408 C   0  0  0  0  0  0
  -24.3586   -9.4197   21.9179 C   0  0  0  0  0  0
  -23.6251   -8.2230   22.0752 C   0  0  0  0  0  0
  -22.4224   -8.0280   21.3559 C   0  0  0  0  0  0
  -21.9872   -9.0236   20.4646 C   0  0  0  0  0  0
  -22.7205  -10.2124   20.3042 C   0  0  0  0  0  0
  -21.6848   -6.0717   22.5263 C   0  0  0  0  0  0
  -21.4021   -6.5604   23.8206 C   0  0  0  0  0  0
  -21.3669   -5.6765   24.9163 C   0  0  0  0  0  0
  -21.6051   -4.3019   24.7203 C   0  0  0  0  0  0
  -21.8816   -3.8125   23.4317 C   0  0  0  0  0  0
  -21.9190   -4.6941   22.3388 C   0  0  0  0  0  0
  -22.7802  -13.5249   21.1843 C   0  0  0  0  0  0
  -22.1658   -4.2160   21.0955 F   0  0  0  0  0  0
  -21.5646   -3.4493   25.7704 F   0  0  0  0  0  0
  -30.0309  -13.3420   20.4624 N   0  0  0  0  0  0
  -26.2951  -12.9343   20.3316 N   0  0  0  0  0  0
  -25.9258  -11.6500   20.5738 N   0  0  0  0  0  0
  -22.0417  -12.8260   22.0391 N   0  0  0  0  0  0
  -25.4182  -15.1886   20.4032 N   0  0  0  0  0  0
  -31.8433  -14.6633   20.0763 O   0  0  0  0  0  0
  -21.6619   -6.8844   21.4225 O   0  0  0  0  0  0
  -22.3518  -14.5563   20.6730 O   0  0  0  0  0  0
  -24.6271  -31.8731   23.2097 C   0  0  0  0  0  0
  -25.9158  -32.4840   23.8381 C   0  0  1  0  0  0
  -27.2422  -27.4093   20.1061 C   0  0  0  0  0  0
  -25.5992  -33.8620   24.2308 N   0  0  0  0  0  0
  -23.4166  -30.5041   21.5527 C   0  0  2  0  0  0
  -24.8619  -28.9762   20.1227 C   0  0  0  0  0  0
  -22.7490  -29.4829   22.5001 C   0  0  0  0  0  0
  -18.0087  -28.1495   22.8261 C   0  0  0  0  0  0
  -24.1506  -36.7271   23.2625 C   0  0  0  0  0  0
  -25.9562  -30.8367   21.3662 C   0  0  0  0  0  0
  -26.0361  -29.4759   20.6982 C   0  0  0  0  0  0
  -27.2353  -28.7101   20.6736 C   0  0  0  0  0  0
  -26.0345  -26.9620   19.5080 C   0  0  0  0  0  0
  -24.8556  -27.7118   19.5302 C   0  0  0  0  0  0
  -23.6278  -29.8426   20.1725 C   0  0  0  0  0  0
  -25.4130  -36.3078   24.0320 C   0  0  1  0  0  0
  -20.5962  -28.3722   23.1105 C   0  0  2  0  0  0
  -20.7773  -26.9709   22.4633 C   0  0  0  0  0  0
  -19.5475  -26.4175   21.7125 C   0  0  0  0  0  0
  -18.1061  -26.8553   22.0295 C   0  0  0  0  0  0
  -19.1496  -28.8718   23.2782 C   0  0  0  0  0  0
  -18.9474  -30.1253   23.8992 C   0  0  0  0  0  0
  -17.6543  -30.6530   24.0744 C   0  0  0  0  0  0
  -25.9077  -34.9468   23.5100 C   0  0  0  0  0  0
  -16.5353  -29.9181   23.6528 C   0  0  0  0  0  0
  -16.7145  -28.6684   23.0378 C   0  0  0  0  0  0
  -26.4525  -31.6591   25.0714 C   0  0  0  0  0  0
  -25.3721  -31.3747   26.1406 C   0  0  0  0  0  0
  -27.0313  -30.2987   24.6131 C   0  0  0  0  0  0
  -27.6116  -32.4279   25.7484 C   0  0  0  0  0  0
  -27.5585  -37.1786   24.8455 C   0  0  0  0  0  0
  -21.4162  -29.3469   22.3933 N   0  0  0  0  0  0
  -26.4299  -37.3766   23.9415 N   0  0  0  0  0  0
  -24.6845  -31.0854   22.0993 N   0  0  0  0  0  0
  -23.4261  -28.8132   23.2856 O   0  0  0  0  0  0
  -28.3394  -26.5466   20.2354 O   0  0  0  0  0  0
  -26.5612  -34.8943   22.4646 O   0  0  0  0  0  0
  -23.5464  -32.1470   23.7501 O   0  0  0  0  0  0
  -30.1059  -24.2919   21.6812 C   0  0  0  0  0  0
  -28.7180  -24.2384   21.4681 C   0  0  0  0  0  0
  -28.0123  -23.0820   21.8892 C   0  0  0  0  0  0
  -30.7752  -23.1865   22.2725 C   0  0  0  0  0  0
  -28.6321  -22.0858   22.6848 C   0  0  0  0  0  0
  -30.0494  -22.0709   22.7997 C   0  0  0  0  0  0
  -26.6168  -22.8611   21.2906 C   0  0  0  0  0  0
  -26.5907  -23.2034   19.7684 C   0  0  0  0  0  0
  -27.6466  -24.2537   19.3293 C   0  0  0  0  0  0
  -30.7969  -17.8458   20.9276 C   0  0  0  0  0  0
  -30.7152  -17.1041   23.3746 C   0  0  0  0  0  0
  -31.2381  -19.1945   21.5524 C   0  0  0  0  0  0
  -29.9036  -18.4216   23.5324 C   0  0  0  0  0  0
  -27.9342  -25.1729   20.5335 C   0  0  2  0  0  0
  -30.9990  -16.6610   21.9074 C   0  0  1  0  0  0
  -32.2924  -23.2134   22.2656 C   0  0  0  0  0  0
  -27.7549  -21.0338   23.3649 C   0  0  0  0  0  0
  -30.7620  -20.8319   23.4079 C   0  0  0  0  0  0
  -30.2839  -15.4163   21.5031 N   0  0  0  0  0  0
  -30.3672  -19.5749   22.6943 N   0  3  1  0  0  0
  -31.4606  -12.4286   19.1366 H   0  0  0  0  0  0
  -30.3000  -11.3483   19.8541 H   0  0  0  0  0  0
  -29.7415  -11.8003   17.4407 H   0  0  0  0  0  0
  -29.6349  -13.5129   17.7813 H   0  0  0  0  0  0
  -27.8319  -11.3051   18.8275 H   0  0  0  0  0  0
  -27.3614  -12.6254   17.7910 H   0  0  0  0  0  0
  -27.6854  -14.2522   19.5525 H   0  0  0  0  0  0
  -28.6723  -12.0287   21.4012 H   0  0  0  0  0  0
  -28.4252  -13.6877   21.8520 H   0  0  0  0  0  0
  -25.2712   -9.5694   22.4775 H   0  0  0  0  0  0
  -23.9974   -7.4622   22.7470 H   0  0  0  0  0  0
  -21.0818   -8.8745   19.8940 H   0  0  0  0  0  0
  -22.3631  -10.9676   19.6169 H   0  0  0  0  0  0
  -21.2007   -7.6116   23.9720 H   0  0  0  0  0  0
  -21.1526   -6.0478   25.9086 H   0  0  0  0  0  0
  -22.0596   -2.7592   23.2803 H   0  0  0  0  0  0
  -22.4008  -11.9885   22.4740 H   0  0  0  0  0  0
  -21.1076  -13.1389   22.2659 H   0  0  0  0  0  0
  -24.6267  -15.8212   20.4497 H   0  0  0  0  0  0
  -26.2575  -15.6246   20.0428 H   0  0  0  0  0  0
  -26.7217  -32.5551   23.1124 H   0  0  0  0  0  0
  -25.0146  -33.9702   25.0461 H   0  0  0  0  0  0
  -22.7107  -31.3239   21.4114 H   0  0  0  0  0  0
  -23.3763  -35.9600   23.3286 H   0  0  0  0  0  0
  -24.3594  -36.8907   22.2037 H   0  0  0  0  0  0
  -23.7268  -37.6477   23.6649 H   0  0  0  0  0  0
  -26.0862  -31.6131   20.6093 H   0  0  0  0  0  0
  -26.8322  -30.8726   22.0029 H   0  0  0  0  0  0
  -28.1357  -29.0983   21.1315 H   0  0  0  0  0  0
  -25.9242  -25.9902   19.0753 H   0  0  0  0  0  0
  -23.9449  -27.2921   19.1255 H   0  0  0  0  0  0
  -23.7513  -30.6164   19.4148 H   0  0  0  0  0  0
  -22.7534  -29.2642   19.8659 H   0  0  0  0  0  0
  -25.1297  -36.1908   25.0805 H   0  0  0  0  0  0
  -20.9880  -28.3089   24.1286 H   0  0  0  0  0  0
  -21.1646  -26.2884   23.2328 H   0  0  0  0  0  0
  -21.6149  -26.9839   21.7619 H   0  0  0  0  0  0
  -19.3871  -26.0209   22.7148 H   0  0  0  0  0  0
  -19.6088  -27.3459   21.1373 H   0  0  0  0  0  0
  -17.5770  -27.0116   21.0862 H   0  0  0  0  0  0
  -17.5031  -26.0840   22.5256 H   0  0  0  0  0  0
  -19.7976  -30.6976   24.2444 H   0  0  0  0  0  0
  -17.5203  -31.6170   24.5435 H   0  0  0  0  0  0
  -15.5406  -30.3161   23.7914 H   0  0  0  0  0  0
  -15.8471  -28.1195   22.6965 H   0  0  0  0  0  0
  -24.5970  -30.7009   25.7699 H   0  0  0  0  0  0
  -24.8817  -32.2923   26.4669 H   0  0  0  0  0  0
  -25.8032  -30.9040   27.0245 H   0  0  0  0  0  0
  -26.2864  -29.6777   24.1130 H   0  0  0  0  0  0
  -27.3939  -29.7211   25.4638 H   0  0  0  0  0  0
  -27.8782  -30.4190   23.9372 H   0  0  0  0  0  0
  -27.2768  -33.3620   26.1989 H   0  0  0  0  0  0
  -28.3978  -32.6753   25.0334 H   0  0  0  0  0  0
  -28.0678  -31.8401   26.5450 H   0  0  0  0  0  0
  -28.2566  -38.0106   24.7515 H   0  0  0  0  0  0
  -28.1107  -36.2641   24.6249 H   0  0  0  0  0  0
  -27.2295  -37.1393   25.8847 H   0  0  0  0  0  0
  -20.9299  -29.9394   21.7341 H   0  0  0  0  0  0
  -26.0178  -38.2834   24.1422 H   0  0  0  0  0  0
  -30.6639  -25.1252   21.2752 H   0  0  0  0  0  0
  -25.9086  -23.5033   21.8165 H   0  0  0  0  0  0
  -26.2499  -21.8458   21.4384 H   0  0  0  0  0  0
  -25.5876  -23.5473   19.5120 H   0  0  0  0  0  0
  -26.7523  -22.2982   19.1832 H   0  0  0  0  0  0
  -28.5759  -23.7566   19.0459 H   0  0  0  0  0  0
  -27.3505  -24.7662   18.4166 H   0  0  0  0  0  0
  -31.3666  -17.6690   20.0162 H   0  0  0  0  0  0
  -29.7509  -17.9232   20.6287 H   0  0  0  0  0  0
  -30.2083  -16.3069   23.9238 H   0  0  0  0  0  0
  -31.6660  -17.2332   23.8976 H   0  0  0  0  0  0
  -31.1926  -19.9926   20.8081 H   0  0  0  0  0  0
  -32.2766  -19.1322   21.8828 H   0  0  0  0  0  0
  -29.8366  -18.6970   24.5858 H   0  0  0  0  0  0
  -28.8782  -18.2154   23.2279 H   0  0  0  0  0  0
  -27.0249  -25.3148   21.1225 H   0  0  0  0  0  0
  -32.0644  -16.4251   21.8923 H   0  0  0  0  0  0
  -32.6654  -24.1283   21.7996 H   0  0  0  0  0  0
  -32.6858  -22.3779   21.6855 H   0  0  0  0  0  0
  -32.6948  -23.1629   23.2762 H   0  0  0  0  0  0
  -26.8086  -21.4752   23.6834 H   0  0  0  0  0  0
  -28.2025  -20.6340   24.2756 H   0  0  0  0  0  0
  -27.5231  -20.2082   22.6929 H   0  0  0  0  0  0
  -30.5311  -20.7871   24.4726 H   0  0  0  0  0  0
  -31.8465  -20.9265   23.3838 H   0  0  0  0  0  0
  -29.3778  -15.2321   21.9115 H   0  0  0  0  0  0
  -29.5128  -19.8855   22.2585 H   0  0  0  0  0  0
  1 25  1  0  0  0
  1 30  2  0  0  0
  1 89  1  0  0  0
  2  3  1  0  0  0
  2 25  1  0  0  0
  2 91  1  0  0  0
  2 92  1  0  0  0
  3  4  1  0  0  0
  3 93  1  0  0  0
  3 94  1  0  0  0
  4  5  1  0  0  0
  4 95  1  0  0  0
  4 96  1  0  0  0
  5  6  1  0  0  0
  5 26  1  0  0  0
  5 97  1  0  0  0
  6 25  1  0  0  0
  6 98  1  0  0  0
  6 99  1  0  0  0
  7  8  2  0  0  0
  7 26  1  0  0  0
  7 29  1  0  0  0
  8  9  1  0  0  0
  8 22  1  0  0  0
  9 10  1  0  0  0
  9 27  2  0  0  0
 10 11  2  0  0  0
 10 15  1  0  0  0
 11 12  1  0  0  0
 11100  1  0  0  0
 12 13  2  0  0  0
 12101  1  0  0  0
 13 14  1  0  0  0
 13 31  1  0  0  0
 14 15  2  0  0  0
 14102  1  0  0  0
 15103  1  0  0  0
 16 17  2  0  0  0
 16 21  1  0  0  0
 16 31  1  0  0  0
 17 18  1  0  0  0
 17104  1  0  0  0
 18 19  2  0  0  0
 18105  1  0  0  0
 19 20  1  0  0  0
 19 24  1  0  0  0
 20 21  2  0  0  0
 20106  1  0  0  0
 21 23  1  0  0  0
 22 28  1  0  0  0
 22 32  2  0  0  0
 26 27  1  0  0  0
 28107  1  0  0  0
 28108  1  0  0  0
 29109  1  0  0  0
 29110  1  0  0  0
 33 34  1  0  0  0
 33 66  1  0  0  0
 33 70  2  0  0  0
 34 36  1  0  0  0
 34 59  1  0  0  0
 34111  1  0  0  0
 35 44  2  0  0  0
 35 45  1  0  0  0
 35 68  1  0  0  0
 36 56  1  0  0  0
 36112  1  0  0  0
 37 39  1  0  0  0
 37 47  1  0  0  0
 37 66  1  0  0  0
 37113  1  0  0  0
 38 43  2  0  0  0
 38 46  1  0  0  0
 38 47  1  0  0  0
 39 64  1  0  0  0
 39 67  2  0  0  0
 40 52  1  0  0  0
 40 53  2  0  0  0
 40 58  1  0  0  0
 41114  1  0  0  0
 41115  1  0  0  0
 41116  1  0  0  0
 41 48  1  0  0  0
 42 43  1  0  0  0
 42 66  1  0  0  0
 42117  1  0  0  0
 42118  1  0  0  0
 43 44  1  0  0  0
 44119  1  0  0  0
 45 46  2  0  0  0
 45120  1  0  0  0
 46121  1  0  0  0
 47122  1  0  0  0
 47123  1  0  0  0
 48 56  1  0  0  0
 48 65  1  0  0  0
 48124  1  0  0  0
 49 50  1  0  0  0
 49 53  1  0  0  0
 49 64  1  0  0  0
 49125  1  0  0  0
 50 51  1  0  0  0
 50126  1  0  0  0
 50127  1  0  0  0
 51 52  1  0  0  0
 51128  1  0  0  0
 51129  1  0  0  0
 52130  1  0  0  0
 52131  1  0  0  0
 53 54  1  0  0  0
 54 55  2  0  0  0
 54132  1  0  0  0
 55 57  1  0  0  0
 55133  1  0  0  0
 56 69  2  0  0  0
 57 58  2  0  0  0
 57134  1  0  0  0
 58135  1  0  0  0
 59 60  1  0  0  0
 59 61  1  0  0  0
 59 62  1  0  0  0
 60136  1  0  0  0
 60137  1  0  0  0
 60138  1  0  0  0
 61139  1  0  0  0
 61140  1  0  0  0
 61141  1  0  0  0
 62142  1  0  0  0
 62143  1  0  0  0
 62144  1  0  0  0
 63 65  1  0  0  0
 63145  1  0  0  0
 63146  1  0  0  0
 63147  1  0  0  0
 64148  1  0  0  0
 65149  1  0  0  0
 68 84  1  0  0  0
 71 72  2  0  0  0
 71 74  1  0  0  0
 71150  1  0  0  0
 72 73  1  0  0  0
 72 84  1  0  0  0
 73 75  2  0  0  0
 73 77  1  0  0  0
 74 76  2  0  0  0
 74 86  1  0  0  0
 75 76  1  0  0  0
 75 87  1  0  0  0
 76 88  1  0  0  0
 77 78  1  0  0  0
 77151  1  0  0  0
 77152  1  0  0  0
 78 79  1  0  0  0
 78153  1  0  0  0
 78154  1  0  0  0
 79 84  1  0  0  0
 79155  1  0  0  0
 79156  1  0  0  0
 80 82  1  0  0  0
 80 85  1  0  0  0
 80157  1  0  0  0
 80158  1  0  0  0
 81 83  1  0  0  0
 81 85  1  0  0  0
 81159  1  0  0  0
 81160  1  0  0  0
 82 90  1  0  0  0
 82161  1  0  0  0
 82162  1  0  0  0
 83 90  1  0  0  0
 83163  1  0  0  0
 83164  1  0  0  0
 84165  1  0  0  0
 85 89  1  0  0  0
 85166  1  0  0  0
 86167  1  0  0  0
 86168  1  0  0  0
 86169  1  0  0  0
 87170  1  0  0  0
 87171  1  0  0  0
 87172  1  0  0  0
 88173  1  0  0  0
 88174  1  0  0  0
 88 90  1  0  0  0
 89175  1  0  0  0
 90176  1  0  0  0
M  CHG  1  90   1
M  ISO  4   1 100  68 101  84 101  89 100
M  END
> <chiral flag>
0

> <version>
0

> <s_m_source_file>
/data/baiqing/PycharmProjects/Reinvent-master-3.2/result/LINK_invent/BTK/process_docking_weight1_custom_sum_contain_oxygen_bond_distance_aromatic_linkinvent_7_9_3/rearranged_h_0170.sdf

> <i_m_source_file_index>
10

> <r_mmod_Potential_Energy-OPLS-2005>
339.319274902344

> <r_mmod_Stretch_Energy-OPLS-2005>
60.487865447998

> <r_mmod_Bend_Energy-OPLS-2005>
392.131408691406

> <r_mmod_Torsional_Energy-OPLS-2005>
314.337646484375

> <r_mmod_Improper_Torsional_Energy-OPLS-2005>
5.87596225738525

> <r_mmod_Van_der_Waal_Energy-OPLS-2005>
222.847747802734

> <r_mmod_Electrostatic_Energy-OPLS-2005>
-260.599456787109

> <r_mmod_Solvation_Energy-OPLS-2005>
-433.9921875

> <b_mmod_Minimization_Converged-OPLS-2005>
0

> <r_mmod_RMS_Derivative-OPLS-2005>
6.19086265563965

$$$$
10
                    3D
 Structure written by MMmdl.
174185  0  0  1  0            999 V2000
  -30.5367  -14.9365   20.4887 C   0  0  0  0  0  0
  -30.4448  -12.5997   19.4866 C   0  0  0  0  0  0
  -29.5200  -12.5426   18.2468 C   0  0  0  0  0  0
  -28.0512  -12.3219   18.6589 C   0  0  0  0  0  0
  -27.6306  -13.2355   19.8368 C   0  0  2  0  0  0
  -28.6695  -13.1975   20.9686 C   0  0  0  0  0  0
  -25.2489  -13.8181   20.5675 C   0  0  0  0  0  0
  -24.1776  -13.0436   20.9189 C   0  0  0  0  0  0
  -24.6359  -11.6907   20.8708 C   0  0  0  0  0  0
  -23.9042  -10.4287   21.0393 C   0  0  0  0  0  0
  -24.3603   -9.4213   21.9178 C   0  0  0  0  0  0
  -23.6280   -8.2249   22.0763 C   0  0  0  0  0  0
  -22.4260   -8.0280   21.3556 C   0  0  0  0  0  0
  -21.9886   -9.0252   20.4662 C   0  0  0  0  0  0
  -22.7213  -10.2123   20.3047 C   0  0  0  0  0  0
  -21.6853   -6.0727   22.5285 C   0  0  0  0  0  0
  -21.4020   -6.5633   23.8216 C   0  0  0  0  0  0
  -21.3654   -5.6786   24.9178 C   0  0  0  0  0  0
  -21.6035   -4.3048   24.7229 C   0  0  0  0  0  0
  -21.8820   -3.8140   23.4352 C   0  0  0  0  0  0
  -21.9195   -4.6956   22.3408 C   0  0  0  0  0  0
  -22.7812  -13.5245   21.1870 C   0  0  0  0  0  0
  -22.1673   -4.2152   21.0983 F   0  0  0  0  0  0
  -21.5613   -3.4522   25.7735 F   0  0  0  0  0  0
  -29.9384  -13.6749   20.3907 N   0  0  0  0  0  0
  -26.2874  -12.9377   20.3178 N   0  0  0  0  0  0
  -25.9280  -11.6521   20.5664 N   0  0  0  0  0  0
  -22.0460  -12.8234   22.0419 N   0  0  0  0  0  0
  -25.4221  -15.1909   20.4157 N   0  0  0  0  0  0
  -31.7276  -15.0050   20.1587 O   0  0  0  0  0  0
  -21.6632   -6.8870   21.4248 O   0  0  0  0  0  0
  -22.3519  -14.5563   20.6730 O   0  0  0  0  0  0
  -24.6412  -31.8451   23.1864 C   0  0  0  0  0  0
  -25.9182  -32.4718   23.8269 C   0  0  1  0  0  0
  -27.2321  -27.1403   20.1815 C   0  0  0  0  0  0
  -25.5928  -33.8512   24.2187 N   0  0  0  0  0  0
  -23.4458  -30.4595   21.5329 C   0  0  2  0  0  0
  -24.8981  -28.8703   20.1294 C   0  0  0  0  0  0
  -22.7562  -29.4550   22.4881 C   0  0  0  0  0  0
  -18.0305  -28.1402   22.8500 C   0  0  0  0  0  0
  -24.1481  -36.7262   23.2639 C   0  0  0  0  0  0
  -25.9983  -30.7214   21.3824 C   0  0  0  0  0  0
  -26.0729  -29.3245   20.7426 C   0  0  0  0  0  0
  -27.2420  -28.4780   20.7441 C   0  0  0  0  0  0
  -26.0294  -26.7697   19.5489 C   0  0  0  0  0  0
  -24.8887  -27.6039   19.5190 C   0  0  0  0  0  0
  -23.6759  -29.7754   20.1580 C   0  0  0  0  0  0
  -25.4113  -36.3046   24.0324 C   0  0  1  0  0  0
  -20.5918  -28.3732   23.1252 C   0  0  2  0  0  0
  -20.6776  -26.9434   22.5415 C   0  0  0  0  0  0
  -19.5754  -26.6395   21.5219 C   0  0  0  0  0  0
  -18.1937  -26.7944   22.1634 C   0  0  0  0  0  0
  -19.1561  -28.8886   23.2860 C   0  0  0  0  0  0
  -18.9471  -30.1482   23.8891 C   0  0  0  0  0  0
  -17.6464  -30.6593   24.0582 C   0  0  0  0  0  0
  -25.9072  -34.9426   23.5065 C   0  0  0  0  0  0
  -16.5358  -29.9097   23.6342 C   0  0  0  0  0  0
  -16.7288  -28.6518   23.0360 C   0  0  0  0  0  0
  -26.4501  -31.6584   25.0713 C   0  0  0  0  0  0
  -25.3686  -31.3787   26.1420 C   0  0  0  0  0  0
  -27.0361  -30.2986   24.6278 C   0  0  0  0  0  0
  -27.6036  -32.4348   25.7496 C   0  0  0  0  0  0
  -27.5573  -37.1785   24.8459 C   0  0  0  0  0  0
  -21.4254  -29.3056   22.3621 N   0  0  0  0  0  0
  -26.4273  -37.3765   23.9425 N   0  0  0  0  0  0
  -24.7149  -31.0298   22.0904 N   0  0  0  0  0  0
  -23.4210  -28.8099   23.3028 O   0  0  0  0  0  0
  -28.3506  -26.2465   20.0825 O   0  0  0  0  0  0
  -26.5664  -34.8916   22.4652 O   0  0  0  0  0  0
  -23.5532  -32.1330   23.7087 O   0  0  0  0  0  0
  -32.5871  -20.3082   23.4305 C   0  0  0  0  0  0
  -33.6503  -20.2157   22.5155 C   0  0  0  0  0  0
  -32.0688  -20.3995   20.6929 C   0  0  0  0  0  0
  -31.2416  -20.4564   23.0059 C   0  0  0  0  0  0
  -30.9814  -20.4820   21.5980 C   0  0  0  0  0  0
  -33.3922  -20.2711   21.1403 C   0  0  0  0  0  0
  -30.4277  -21.1847   25.4311 C   0  0  0  0  0  0
  -30.2153  -19.6920   25.3137 C   0  0  0  0  0  0
  -30.3896  -23.1774   21.0827 C   0  0  0  0  0  0
  -30.0620  -24.6507   20.7375 C   0  0  0  0  0  0
  -29.8955  -17.4255   22.3438 C   0  0  0  0  0  0
  -28.1958  -23.2762   20.2261 C   0  0  0  0  0  0
  -28.9728  -16.2918   21.9289 C   0  0  0  0  0  0
  -30.1685  -20.5623   24.0763 C   0  0  0  0  0  0
  -29.4515  -22.1879   20.3229 C   0  0  2  0  0  0
  -28.5401  -24.8344   20.7006 C   0  0  2  0  0  0
  -30.1680  -17.6766   20.8737 C   0  0  2  0  0  0
  -29.4017  -19.0493   20.2328 C   0  0  0  0  0  0
  -29.5866  -20.5831   20.9485 C   0  0  1  0  0  0
  -29.7801  -16.1392   20.7085 N   0  0  0  0  0  0
  -34.6883  -20.1779   20.0048 Cl  0  0  0  0  0  0
  -31.4729  -12.7809   19.1675 H   0  0  0  0  0  0
  -30.4649  -11.6391   20.0039 H   0  0  0  0  0  0
  -29.8410  -11.7512   17.5686 H   0  0  0  0  0  0
  -29.6039  -13.4768   17.6889 H   0  0  0  0  0  0
  -27.9428  -11.2755   18.9495 H   0  0  0  0  0  0
  -27.3879  -12.4715   17.8059 H   0  0  0  0  0  0
  -27.6134  -14.2516   19.4416 H   0  0  0  0  0  0
  -28.7711  -12.1846   21.3636 H   0  0  0  0  0  0
  -28.3213  -13.7883   21.8066 H   0  0  0  0  0  0
  -25.2751   -9.5684   22.4744 H   0  0  0  0  0  0
  -23.9992   -7.4639   22.7478 H   0  0  0  0  0  0
  -21.0815   -8.8766   19.8975 H   0  0  0  0  0  0
  -22.3676  -10.9657   19.6151 H   0  0  0  0  0  0
  -21.2011   -7.6141   23.9725 H   0  0  0  0  0  0
  -21.1479   -6.0509   25.9084 H   0  0  0  0  0  0
  -22.0593   -2.7601   23.2849 H   0  0  0  0  0  0
  -22.4077  -11.9874   22.4758 H   0  0  0  0  0  0
  -21.1109  -13.1302   22.2680 H   0  0  0  0  0  0
  -24.6596  -15.8475   20.5392 H   0  0  0  0  0  0
  -26.2742  -15.6282   20.0894 H   0  0  0  0  0  0
  -26.7255  -32.5341   23.1004 H   0  0  0  0  0  0
  -25.0031  -33.9627   25.0307 H   0  0  0  0  0  0
  -22.7477  -31.2831   21.3708 H   0  0  0  0  0  0
  -23.3759  -35.9575   23.3288 H   0  0  0  0  0  0
  -24.3552  -36.8919   22.2050 H   0  0  0  0  0  0
  -23.7220  -37.6445   23.6696 H   0  0  0  0  0  0
  -26.1443  -31.4661   20.5977 H   0  0  0  0  0  0
  -26.8697  -30.7842   22.0224 H   0  0  0  0  0  0
  -28.1497  -28.8373   21.2082 H   0  0  0  0  0  0
  -25.9738  -25.8024   19.0685 H   0  0  0  0  0  0
  -23.9921  -27.2491   19.0281 H   0  0  0  0  0  0
  -23.8188  -30.5415   19.3954 H   0  0  0  0  0  0
  -22.7908  -29.2166   19.8463 H   0  0  0  0  0  0
  -25.1292  -36.1878   25.0818 H   0  0  0  0  0  0
  -21.0012  -28.3318   24.1375 H   0  0  0  0  0  0
  -20.5668  -26.2333   23.3623 H   0  0  0  0  0  0
  -21.6637  -26.7436   22.1210 H   0  0  0  0  0  0
  -19.6904  -25.6304   21.1253 H   0  0  0  0  0  0
  -19.6681  -27.3192   20.6737 H   0  0  0  0  0  0
  -17.4195  -26.6708   21.4037 H   0  0  0  0  0  0
  -18.0336  -26.0070   22.9014 H   0  0  0  0  0  0
  -19.7936  -30.7309   24.2241 H   0  0  0  0  0  0
  -17.5016  -31.6271   24.5184 H   0  0  0  0  0  0
  -15.5359  -30.2998   23.7664 H   0  0  0  0  0  0
  -15.8685  -28.0831   22.7089 H   0  0  0  0  0  0
  -24.5828  -30.7176   25.7745 H   0  0  0  0  0  0
  -24.8907  -32.2975   26.4824 H   0  0  0  0  0  0
  -25.7950  -30.8963   27.0222 H   0  0  0  0  0  0
  -26.2972  -29.6722   24.1261 H   0  0  0  0  0  0
  -27.3955  -29.7276   25.4847 H   0  0  0  0  0  0
  -27.8890  -30.4226   23.9602 H   0  0  0  0  0  0
  -27.2626  -33.3655   26.2032 H   0  0  0  0  0  0
  -28.3859  -32.6899   25.0341 H   0  0  0  0  0  0
  -28.0688  -31.8508   26.5444 H   0  0  0  0  0  0
  -28.2583  -38.0089   24.7527 H   0  0  0  0  0  0
  -28.1080  -36.2627   24.6258 H   0  0  0  0  0  0
  -27.2299  -37.1402   25.8861 H   0  0  0  0  0  0
  -20.9456  -29.8762   21.6793 H   0  0  0  0  0  0
  -26.0152  -38.2840   24.1435 H   0  0  0  0  0  0
  -32.8307  -20.2567   24.4817 H   0  0  0  0  0  0
  -34.6651  -20.1013   22.8690 H   0  0  0  0  0  0
  -31.8835  -20.4346   19.6295 H   0  0  0  0  0  0
  -31.4274  -21.5476   25.6579 H   0  0  0  0  0  0
  -29.6193  -21.7572   25.8830 H   0  0  0  0  0  0
  -29.2732  -19.2954   25.6887 H   0  0  0  0  0  0
  -31.0801  -19.0501   25.4728 H   0  0  0  0  0  0
  -30.2482  -23.0491   22.1570 H   0  0  0  0  0  0
  -31.4439  -22.9923   20.8771 H   0  0  0  0  0  0
  -30.4773  -24.8813   19.7548 H   0  0  0  0  0  0
  -30.5302  -25.3376   21.4440 H   0  0  0  0  0  0
  -30.7746  -17.0925   22.8995 H   0  0  0  0  0  0
  -29.3755  -18.2291   22.8621 H   0  0  0  0  0  0
  -27.3595  -22.9112   20.8238 H   0  0  0  0  0  0
  -27.8336  -23.2962   19.1981 H   0  0  0  0  0  0
  -27.9414  -16.5991   21.7447 H   0  0  0  0  0  0
  -29.0298  -15.5014   22.6749 H   0  0  0  0  0  0
  -29.1854  -20.7833   23.6843 H   0  0  0  0  0  0
  -29.8611  -22.1290   19.3141 H   0  0  0  0  0  0
  -28.2050  -24.9198   21.7358 H   0  0  0  0  0  0
  -31.2453  -17.7842   20.7463 H   0  0  0  0  0  0
  -28.3324  -18.8583   20.1448 H   0  0  0  0  0  0
  -29.7390  -19.1443   19.2006 H   0  0  0  0  0  0
  -28.8301  -20.5611   21.7217 H   0  0  0  0  0  0
  1 25  1  0  0  0
  1 30  2  0  0  0
  1 90  1  0  0  0
  2  3  1  0  0  0
  2 25  1  0  0  0
  2 92  1  0  0  0
  2 93  1  0  0  0
  3  4  1  0  0  0
  3 94  1  0  0  0
  3 95  1  0  0  0
  4  5  1  0  0  0
  4 96  1  0  0  0
  4 97  1  0  0  0
  5  6  1  0  0  0
  5 26  1  0  0  0
  5 98  1  0  0  0
  6 25  1  0  0  0
  6 99  1  0  0  0
  6100  1  0  0  0
  7  8  2  0  0  0
  7 26  1  0  0  0
  7 29  1  0  0  0
  8  9  1  0  0  0
  8 22  1  0  0  0
  9 10  1  0  0  0
  9 27  2  0  0  0
 10 11  2  0  0  0
 10 15  1  0  0  0
 11 12  1  0  0  0
 11101  1  0  0  0
 12 13  2  0  0  0
 12102  1  0  0  0
 13 14  1  0  0  0
 13 31  1  0  0  0
 14 15  2  0  0  0
 14103  1  0  0  0
 15104  1  0  0  0
 16 17  2  0  0  0
 16 21  1  0  0  0
 16 31  1  0  0  0
 17 18  1  0  0  0
 17105  1  0  0  0
 18 19  2  0  0  0
 18106  1  0  0  0
 19 20  1  0  0  0
 19 24  1  0  0  0
 20 21  2  0  0  0
 20107  1  0  0  0
 21 23  1  0  0  0
 22 28  1  0  0  0
 22 32  2  0  0  0
 26 27  1  0  0  0
 28108  1  0  0  0
 28109  1  0  0  0
 29110  1  0  0  0
 29111  1  0  0  0
 33 34  1  0  0  0
 33 66  1  0  0  0
 33 70  2  0  0  0
 34 36  1  0  0  0
 34 59  1  0  0  0
 34112  1  0  0  0
 35 44  2  0  0  0
 35 45  1  0  0  0
 35 68  1  0  0  0
 36 56  1  0  0  0
 36113  1  0  0  0
 37 39  1  0  0  0
 37 47  1  0  0  0
 37 66  1  0  0  0
 37114  1  0  0  0
 38 43  2  0  0  0
 38 46  1  0  0  0
 38 47  1  0  0  0
 39 64  1  0  0  0
 39 67  2  0  0  0
 40 52  1  0  0  0
 40 53  2  0  0  0
 40 58  1  0  0  0
 41115  1  0  0  0
 41116  1  0  0  0
 41117  1  0  0  0
 41 48  1  0  0  0
 42 43  1  0  0  0
 42 66  1  0  0  0
 42118  1  0  0  0
 42119  1  0  0  0
 43 44  1  0  0  0
 44120  1  0  0  0
 45 46  2  0  0  0
 45121  1  0  0  0
 46122  1  0  0  0
 47123  1  0  0  0
 47124  1  0  0  0
 48 56  1  0  0  0
 48 65  1  0  0  0
 48125  1  0  0  0
 49 50  1  0  0  0
 49 53  1  0  0  0
 49 64  1  0  0  0
 49126  1  0  0  0
 50 51  1  0  0  0
 50127  1  0  0  0
 50128  1  0  0  0
 51 52  1  0  0  0
 51129  1  0  0  0
 51130  1  0  0  0
 52131  1  0  0  0
 52132  1  0  0  0
 53 54  1  0  0  0
 54 55  2  0  0  0
 54133  1  0  0  0
 55 57  1  0  0  0
 55134  1  0  0  0
 56 69  2  0  0  0
 57 58  2  0  0  0
 57135  1  0  0  0
 58136  1  0  0  0
 59 60  1  0  0  0
 59 61  1  0  0  0
 59 62  1  0  0  0
 60137  1  0  0  0
 60138  1  0  0  0
 60139  1  0  0  0
 61140  1  0  0  0
 61141  1  0  0  0
 61142  1  0  0  0
 62143  1  0  0  0
 62144  1  0  0  0
 62145  1  0  0  0
 63 65  1  0  0  0
 63146  1  0  0  0
 63147  1  0  0  0
 63148  1  0  0  0
 64149  1  0  0  0
 65150  1  0  0  0
 68 86  1  0  0  0
 71 72  2  0  0  0
 71 74  1  0  0  0
 71151  1  0  0  0
 72 76  1  0  0  0
 72152  1  0  0  0
 73 75  1  0  0  0
 73 76  2  0  0  0
 73153  1  0  0  0
 74 75  2  0  0  0
 74 84  1  0  0  0
 75 89  1  0  0  0
 76 91  1  0  0  0
 77 78  1  0  0  0
 77 84  1  0  0  0
 77154  1  0  0  0
 77155  1  0  0  0
 78 84  1  0  0  0
 78156  1  0  0  0
 78157  1  0  0  0
 79 80  1  0  0  0
 79158  1  0  0  0
 79159  1  0  0  0
 79 85  1  0  0  0
 80 86  1  0  0  0
 80160  1  0  0  0
 80161  1  0  0  0
 81 83  1  0  0  0
 81 87  1  0  0  0
 81162  1  0  0  0
 81163  1  0  0  0
 82 85  1  0  0  0
 82 86  1  0  0  0
 82164  1  0  0  0
 82165  1  0  0  0
 83 90  1  0  0  0
 83166  1  0  0  0
 83167  1  0  0  0
 84168  1  0  0  0
 85 89  1  0  0  0
 85169  1  0  0  0
 86170  1  0  0  0
 87 88  1  0  0  0
 87 90  1  0  0  0
 87171  1  0  0  0
 88172  1  0  0  0
 88173  1  0  0  0
 88 89  1  0  0  0
 89174  1  0  0  0
M  ISO  4   1 100  68 101  86 101  90 100
M  END
> <chiral flag>
0

> <version>
0

> <s_m_source_file>
/data/baiqing/PycharmProjects/Reinvent-master-3.2/result/LINK_invent/BTK/process_docking_weight1_custom_sum_contain_oxygen_bond_distance_aromatic_linkinvent_7_9_3/rearranged_h_0170.sdf

> <i_m_source_file_index>
11

> <r_mmod_Potential_Energy-OPLS-2005>
891.129455566406

> <r_mmod_Stretch_Energy-OPLS-2005>
301.60498046875

> <r_mmod_Bend_Energy-OPLS-2005>
405.764282226562

> <r_mmod_Torsional_Energy-OPLS-2005>
375.70361328125

> <r_mmod_Improper_Torsional_Energy-OPLS-2005>
12.185037612915

> <r_mmod_Van_der_Waal_Energy-OPLS-2005>
136.691680908203

> <r_mmod_Electrostatic_Energy-OPLS-2005>
-312.325622558594

> <r_mmod_Solvation_Energy-OPLS-2005>
-196.778259277344

> <b_mmod_Minimization_Converged-OPLS-2005>
0

> <r_mmod_RMS_Derivative-OPLS-2005>
2.65202498435974

$$$$
11
                    3D
 Structure written by MMmdl.
161171  0  0  1  0            999 V2000
  -30.5705  -15.0426   20.3402 C   0  0  0  0  0  0
  -30.4430  -12.6499   19.4846 C   0  0  0  0  0  0
  -29.5126  -12.5134   18.2581 C   0  0  0  0  0  0
  -28.0637  -12.2720   18.7168 C   0  0  0  0  0  0
  -27.6250  -13.2557   19.8293 C   0  0  2  0  0  0
  -28.6764  -13.4043   20.9474 C   0  0  0  0  0  0
  -25.2491  -13.8270   20.5849 C   0  0  0  0  0  0
  -24.1759  -13.0490   20.9271 C   0  0  0  0  0  0
  -24.6381  -11.6967   20.8747 C   0  0  0  0  0  0
  -23.9080  -10.4337   21.0406 C   0  0  0  0  0  0
  -24.3651   -9.4250   21.9185 C   0  0  0  0  0  0
  -23.6346   -8.2261   22.0764 C   0  0  0  0  0  0
  -22.4310   -8.0291   21.3551 C   0  0  0  0  0  0
  -21.9932   -9.0280   20.4648 C   0  0  0  0  0  0
  -22.7235  -10.2187   20.3078 C   0  0  0  0  0  0
  -21.6832   -6.0746   22.5255 C   0  0  0  0  0  0
  -21.3977   -6.5638   23.8200 C   0  0  0  0  0  0
  -21.3688   -5.6813   24.9162 C   0  0  0  0  0  0
  -21.6064   -4.3084   24.7223 C   0  0  0  0  0  0
  -21.8821   -3.8160   23.4341 C   0  0  0  0  0  0
  -21.9190   -4.6964   22.3378 C   0  0  0  0  0  0
  -22.7785  -13.5257   21.1936 C   0  0  0  0  0  0
  -22.1680   -4.2154   21.0978 F   0  0  0  0  0  0
  -21.5653   -3.4558   25.7743 F   0  0  0  0  0  0
  -29.9394  -13.7956   20.3018 N   0  0  0  0  0  0
  -26.2908  -12.9507   20.3354 N   0  0  0  0  0  0
  -25.9296  -11.6643   20.5764 N   0  0  0  0  0  0
  -22.0454  -12.8179   22.0466 N   0  0  0  0  0  0
  -25.4307  -15.1990   20.4340 N   0  0  0  0  0  0
  -31.8032  -15.0243   20.2314 O   0  0  0  0  0  0
  -21.6673   -6.8876   21.4224 O   0  0  0  0  0  0
  -22.3467  -14.5584   20.6838 O   0  0  0  0  0  0
  -24.6477  -31.8375   23.1813 C   0  0  0  0  0  0
  -25.9239  -32.4661   23.8245 C   0  0  1  0  0  0
  -27.2312  -27.0994   20.1381 C   0  0  0  0  0  0
  -25.5955  -33.8472   24.2167 N   0  0  0  0  0  0
  -23.4559  -30.4541   21.5262 C   0  0  2  0  0  0
  -24.9068  -28.8728   20.1090 C   0  0  0  0  0  0
  -22.7571  -29.4532   22.4840 C   0  0  0  0  0  0
  -18.0243  -28.1319   22.8486 C   0  0  0  0  0  0
  -24.1494  -36.7246   23.2646 C   0  0  0  0  0  0
  -26.0117  -30.7053   21.3776 C   0  0  0  0  0  0
  -26.0867  -29.3114   20.7218 C   0  0  0  0  0  0
  -27.2493  -28.4441   20.7115 C   0  0  0  0  0  0
  -26.0198  -26.7719   19.4996 C   0  0  0  0  0  0
  -24.8871  -27.6172   19.4846 C   0  0  0  0  0  0
  -23.6833  -29.7776   20.1492 C   0  0  0  0  0  0
  -25.4132  -36.3026   24.0323 C   0  0  1  0  0  0
  -20.5881  -28.3701   23.1204 C   0  0  2  0  0  0
  -20.6729  -26.9403   22.5384 C   0  0  0  0  0  0
  -19.5727  -26.6263   21.5193 C   0  0  0  0  0  0
  -18.1893  -26.7816   22.1648 C   0  0  0  0  0  0
  -19.1513  -28.8842   23.2826 C   0  0  0  0  0  0
  -18.9413  -30.1444   23.8803 C   0  0  0  0  0  0
  -17.6403  -30.6553   24.0530 C   0  0  0  0  0  0
  -25.9084  -34.9399   23.5067 C   0  0  0  0  0  0
  -16.5308  -29.9038   23.6318 C   0  0  0  0  0  0
  -16.7238  -28.6443   23.0337 C   0  0  0  0  0  0
  -26.4559  -31.6536   25.0688 C   0  0  0  0  0  0
  -25.3708  -31.3720   26.1358 C   0  0  0  0  0  0
  -27.0423  -30.2937   24.6263 C   0  0  0  0  0  0
  -27.6116  -32.4255   25.7448 C   0  0  0  0  0  0
  -27.5574  -37.1776   24.8477 C   0  0  0  0  0  0
  -21.4257  -29.3034   22.3556 N   0  0  0  0  0  0
  -26.4301  -37.3733   23.9394 N   0  0  0  0  0  0
  -24.7261  -31.0221   22.0833 N   0  0  0  0  0  0
  -23.4156  -28.8099   23.3041 O   0  0  0  0  0  0
  -28.2876  -26.1002   20.1749 O   0  0  0  0  0  0
  -26.5684  -34.8942   22.4658 O   0  0  0  0  0  0
  -23.5597  -32.1269   23.6992 O   0  0  0  0  0  0
  -27.9865  -23.9091   18.6365 C   0  0  0  0  0  0
  -27.9680  -18.6561   19.2542 C   0  0  0  0  0  0
  -29.8027  -16.8065   18.7316 C   0  0  0  0  0  0
  -29.8677  -17.6945   20.8266 C   0  0  0  0  0  0
  -28.4723  -22.3949   18.6341 C   0  0  0  0  0  0
  -28.9869  -23.3096   20.6927 C   0  0  0  0  0  0
  -29.2758  -18.2622   18.6281 C   0  0  1  0  0  0
  -28.0659  -24.5318   20.0612 C   0  0  1  0  0  0
  -29.2715  -18.9700   19.9759 C   0  0  2  0  0  0
  -30.5475  -20.7569   21.4611 C   0  0  0  0  0  0
  -29.7016  -20.6155   20.1787 C   0  0  2  0  0  0
  -29.8576  -16.2814   20.1231 N   0  0  0  0  0  0
  -28.7373  -21.9067   20.0185 N   0  3  2  0  0  0
  -31.4659  -12.8072   19.1430 H   0  0  0  0  0  0
  -30.4708  -11.7338   20.0813 H   0  0  0  0  0  0
  -29.8356  -11.6993   17.6140 H   0  0  0  0  0  0
  -29.5634  -13.4217   17.6539 H   0  0  0  0  0  0
  -28.0164  -11.2476   19.0928 H   0  0  0  0  0  0
  -27.3792  -12.3208   17.8705 H   0  0  0  0  0  0
  -27.5591  -14.2256   19.3386 H   0  0  0  0  0  0
  -28.7845  -12.4987   21.5462 H   0  0  0  0  0  0
  -28.3634  -14.1994   21.6285 H   0  0  0  0  0  0
  -25.2778   -9.5716   22.4775 H   0  0  0  0  0  0
  -24.0032   -7.4650   22.7462 H   0  0  0  0  0  0
  -21.0890   -8.8815   19.8937 H   0  0  0  0  0  0
  -22.3684  -10.9758   19.6252 H   0  0  0  0  0  0
  -21.1942   -7.6149   23.9675 H   0  0  0  0  0  0
  -21.1523   -6.0553   25.9073 H   0  0  0  0  0  0
  -22.0577   -2.7615   23.2837 H   0  0  0  0  0  0
  -22.4109  -11.9780   22.4671 H   0  0  0  0  0  0
  -21.1118  -13.1170   22.2885 H   0  0  0  0  0  0
  -24.6894  -15.8813   20.5491 H   0  0  0  0  0  0
  -26.3102  -15.6077   20.1544 H   0  0  0  0  0  0
  -26.7310  -32.5296   23.0995 H   0  0  0  0  0  0
  -25.0006  -33.9564   25.0252 H   0  0  0  0  0  0
  -22.7595  -31.2808   21.3661 H   0  0  0  0  0  0
  -23.3766  -35.9564   23.3310 H   0  0  0  0  0  0
  -24.3559  -36.8861   22.2051 H   0  0  0  0  0  0
  -23.7260  -37.6462   23.6666 H   0  0  0  0  0  0
  -26.1650  -31.4631   20.6053 H   0  0  0  0  0  0
  -26.8847  -30.7646   22.0173 H   0  0  0  0  0  0
  -28.1574  -28.7914   21.1805 H   0  0  0  0  0  0
  -25.9157  -25.8187   19.0122 H   0  0  0  0  0  0
  -23.9890  -27.2774   18.9901 H   0  0  0  0  0  0
  -23.8123  -30.5483   19.3883 H   0  0  0  0  0  0
  -22.7985  -29.2090   19.8522 H   0  0  0  0  0  0
  -25.1313  -36.1857   25.0811 H   0  0  0  0  0  0
  -20.9962  -28.3265   24.1331 H   0  0  0  0  0  0
  -20.5675  -26.2292   23.3620 H   0  0  0  0  0  0
  -21.6626  -26.7505   22.1233 H   0  0  0  0  0  0
  -19.6955  -25.6204   21.1235 H   0  0  0  0  0  0
  -19.6543  -27.3037   20.6694 H   0  0  0  0  0  0
  -17.4171  -26.6535   21.4054 H   0  0  0  0  0  0
  -18.0334  -25.9995   22.9092 H   0  0  0  0  0  0
  -19.7897  -30.7261   24.2139 H   0  0  0  0  0  0
  -17.4971  -31.6203   24.5145 H   0  0  0  0  0  0
  -15.5307  -30.2915   23.7643 H   0  0  0  0  0  0
  -15.8627  -28.0791   22.7002 H   0  0  0  0  0  0
  -24.5949  -30.7014   25.7659 H   0  0  0  0  0  0
  -24.8845  -32.2883   26.4685 H   0  0  0  0  0  0
  -25.7962  -30.8964   27.0204 H   0  0  0  0  0  0
  -26.3042  -29.6648   24.1288 H   0  0  0  0  0  0
  -27.4078  -29.7251   25.4832 H   0  0  0  0  0  0
  -27.8933  -30.4208   23.9567 H   0  0  0  0  0  0
  -27.2790  -33.3621   26.1953 H   0  0  0  0  0  0
  -28.3965  -32.6689   25.0255 H   0  0  0  0  0  0
  -28.0761  -31.8406   26.5408 H   0  0  0  0  0  0
  -28.2626  -38.0042   24.7483 H   0  0  0  0  0  0
  -28.1047  -36.2577   24.6358 H   0  0  0  0  0  0
  -27.2278  -37.1466   25.8882 H   0  0  0  0  0  0
  -20.9464  -29.8761   21.6780 H   0  0  0  0  0  0
  -26.0180  -38.2811   24.1379 H   0  0  0  0  0  0
  -26.9725  -23.9833   18.2346 H   0  0  0  0  0  0
  -28.6238  -24.4838   17.9619 H   0  0  0  0  0  0
  -27.3961  -19.4288   18.7399 H   0  0  0  0  0  0
  -27.3606  -17.8598   19.6851 H   0  0  0  0  0  0
  -29.2400  -16.1516   18.0645 H   0  0  0  0  0  0
  -30.8236  -16.8224   18.3443 H   0  0  0  0  0  0
  -30.8718  -17.9218   21.1825 H   0  0  0  0  0  0
  -29.2536  -17.5972   21.7183 H   0  0  0  0  0  0
  -29.4008  -22.3623   18.0610 H   0  0  0  0  0  0
  -27.7700  -21.7303   18.1285 H   0  0  0  0  0  0
  -28.8242  -23.2419   21.7647 H   0  0  0  0  0  0
  -30.0344  -23.5769   20.5601 H   0  0  0  0  0  0
  -29.5991  -18.8101   17.7466 H   0  0  0  0  0  0
  -27.0945  -24.3683   20.5275 H   0  0  0  0  0  0
  -29.9446  -20.6430   22.3616 H   0  0  0  0  0  0
  -31.0548  -21.7217   21.5229 H   0  0  0  0  0  0
  -31.3432  -20.0110   21.4991 H   0  0  0  0  0  0
  -30.4428  -20.7678   19.3880 H   0  0  0  0  0  0
  -27.8418  -21.6016   20.3798 H   0  0  0  0  0  0
  1 25  1  0  0  0
  1 30  2  0  0  0
  1 82  1  0  0  0
  2  3  1  0  0  0
  2 25  1  0  0  0
  2 84  1  0  0  0
  2 85  1  0  0  0
  3  4  1  0  0  0
  3 86  1  0  0  0
  3 87  1  0  0  0
  4  5  1  0  0  0
  4 88  1  0  0  0
  4 89  1  0  0  0
  5  6  1  0  0  0
  5 26  1  0  0  0
  5 90  1  0  0  0
  6 25  1  0  0  0
  6 91  1  0  0  0
  6 92  1  0  0  0
  7  8  2  0  0  0
  7 26  1  0  0  0
  7 29  1  0  0  0
  8  9  1  0  0  0
  8 22  1  0  0  0
  9 10  1  0  0  0
  9 27  2  0  0  0
 10 11  2  0  0  0
 10 15  1  0  0  0
 11 12  1  0  0  0
 11 93  1  0  0  0
 12 13  2  0  0  0
 12 94  1  0  0  0
 13 14  1  0  0  0
 13 31  1  0  0  0
 14 15  2  0  0  0
 14 95  1  0  0  0
 15 96  1  0  0  0
 16 17  2  0  0  0
 16 21  1  0  0  0
 16 31  1  0  0  0
 17 18  1  0  0  0
 17 97  1  0  0  0
 18 19  2  0  0  0
 18 98  1  0  0  0
 19 20  1  0  0  0
 19 24  1  0  0  0
 20 21  2  0  0  0
 20 99  1  0  0  0
 21 23  1  0  0  0
 22 28  1  0  0  0
 22 32  2  0  0  0
 26 27  1  0  0  0
 28100  1  0  0  0
 28101  1  0  0  0
 29102  1  0  0  0
 29103  1  0  0  0
 33 34  1  0  0  0
 33 66  1  0  0  0
 33 70  2  0  0  0
 34 36  1  0  0  0
 34 59  1  0  0  0
 34104  1  0  0  0
 35 44  2  0  0  0
 35 45  1  0  0  0
 35 68  1  0  0  0
 36 56  1  0  0  0
 36105  1  0  0  0
 37 39  1  0  0  0
 37 47  1  0  0  0
 37 66  1  0  0  0
 37106  1  0  0  0
 38 43  2  0  0  0
 38 46  1  0  0  0
 38 47  1  0  0  0
 39 64  1  0  0  0
 39 67  2  0  0  0
 40 52  1  0  0  0
 40 53  2  0  0  0
 40 58  1  0  0  0
 41107  1  0  0  0
 41108  1  0  0  0
 41109  1  0  0  0
 41 48  1  0  0  0
 42 43  1  0  0  0
 42 66  1  0  0  0
 42110  1  0  0  0
 42111  1  0  0  0
 43 44  1  0  0  0
 44112  1  0  0  0
 45 46  2  0  0  0
 45113  1  0  0  0
 46114  1  0  0  0
 47115  1  0  0  0
 47116  1  0  0  0
 48 56  1  0  0  0
 48 65  1  0  0  0
 48117  1  0  0  0
 49 50  1  0  0  0
 49 53  1  0  0  0
 49 64  1  0  0  0
 49118  1  0  0  0
 50 51  1  0  0  0
 50119  1  0  0  0
 50120  1  0  0  0
 51 52  1  0  0  0
 51121  1  0  0  0
 51122  1  0  0  0
 52123  1  0  0  0
 52124  1  0  0  0
 53 54  1  0  0  0
 54 55  2  0  0  0
 54125  1  0  0  0
 55 57  1  0  0  0
 55126  1  0  0  0
 56 69  2  0  0  0
 57 58  2  0  0  0
 57127  1  0  0  0
 58128  1  0  0  0
 59 60  1  0  0  0
 59 61  1  0  0  0
 59 62  1  0  0  0
 60129  1  0  0  0
 60130  1  0  0  0
 60131  1  0  0  0
 61132  1  0  0  0
 61133  1  0  0  0
 61134  1  0  0  0
 62135  1  0  0  0
 62136  1  0  0  0
 62137  1  0  0  0
 63 65  1  0  0  0
 63138  1  0  0  0
 63139  1  0  0  0
 63140  1  0  0  0
 64141  1  0  0  0
 65142  1  0  0  0
 68 78  1  0  0  0
 71 75  1  0  0  0
 71 78  1  0  0  0
 71143  1  0  0  0
 71144  1  0  0  0
 72145  1  0  0  0
 72146  1  0  0  0
 72 77  1  0  0  0
 72 79  1  0  0  0
 73 77  1  0  0  0
 73 82  1  0  0  0
 73147  1  0  0  0
 73148  1  0  0  0
 74 79  1  0  0  0
 74 82  1  0  0  0
 74149  1  0  0  0
 74150  1  0  0  0
 75151  1  0  0  0
 75152  1  0  0  0
 75 83  1  0  0  0
 76 78  1  0  0  0
 76 83  1  0  0  0
 76153  1  0  0  0
 76154  1  0  0  0
 77 79  1  0  0  0
 77155  1  0  0  0
 78156  1  0  0  0
 79 81  1  0  0  0
 80157  1  0  0  0
 80158  1  0  0  0
 80159  1  0  0  0
 80 81  1  0  0  0
 81 83  1  0  0  0
 81160  1  0  0  0
 83161  1  0  0  0
M  CHG  1  83   1
M  ISO  4   1 100  68 101  78 101  82 100
M  END
> <chiral flag>
0

> <version>
0

> <s_m_source_file>
/data/baiqing/PycharmProjects/Reinvent-master-3.2/result/LINK_invent/BTK/process_docking_weight1_custom_sum_contain_oxygen_bond_distance_aromatic_linkinvent_7_9_3/rearranged_h_0170.sdf

> <i_m_source_file_index>
12

> <r_mmod_Potential_Energy-OPLS-2005>
958.068115234375

> <r_mmod_Stretch_Energy-OPLS-2005>
310.562835693359

> <r_mmod_Bend_Energy-OPLS-2005>
391.463073730469

> <r_mmod_Torsional_Energy-OPLS-2005>
499.274261474609

> <r_mmod_Improper_Torsional_Energy-OPLS-2005>
14.5222606658936

> <r_mmod_Van_der_Waal_Energy-OPLS-2005>
99.005744934082

> <r_mmod_Electrostatic_Energy-OPLS-2005>
-187.424301147461

> <r_mmod_Solvation_Energy-OPLS-2005>
-422.527252197266

> <b_mmod_Minimization_Converged-OPLS-2005>
0

> <r_mmod_RMS_Derivative-OPLS-2005>
8.92942714691162

$$$$
12
                    3D
 Structure written by MMmdl.
176186  0  0  1  0            999 V2000
  -30.7055  -14.7616   20.3296 C   0  0  0  0  0  0
  -30.3889  -12.4689   19.4343 C   0  0  0  0  0  0
  -29.4564  -12.3749   18.2142 C   0  0  0  0  0  0
  -27.9864  -12.2651   18.6509 C   0  0  0  0  0  0
  -27.6076  -13.2304   19.8030 C   0  0  2  0  0  0
  -28.6754  -13.2982   20.9099 C   0  0  0  0  0  0
  -25.2478  -13.8184   20.5769 C   0  0  0  0  0  0
  -24.1780  -13.0461   20.9262 C   0  0  0  0  0  0
  -24.6341  -11.6926   20.8801 C   0  0  0  0  0  0
  -23.9025  -10.4306   21.0446 C   0  0  0  0  0  0
  -24.3590   -9.4215   21.9216 C   0  0  0  0  0  0
  -23.6300   -8.2227   22.0745 C   0  0  0  0  0  0
  -22.4291   -8.0265   21.3521 C   0  0  0  0  0  0
  -21.9904   -9.0231   20.4625 C   0  0  0  0  0  0
  -22.7215  -10.2134   20.3066 C   0  0  0  0  0  0
  -21.6873   -6.0730   22.5270 C   0  0  0  0  0  0
  -21.4028   -6.5637   23.8193 C   0  0  0  0  0  0
  -21.3669   -5.6795   24.9168 C   0  0  0  0  0  0
  -21.6038   -4.3053   24.7223 C   0  0  0  0  0  0
  -21.8830   -3.8145   23.4345 C   0  0  0  0  0  0
  -21.9201   -4.6960   22.3402 C   0  0  0  0  0  0
  -22.7833  -13.5277   21.1902 C   0  0  0  0  0  0
  -22.1669   -4.2130   21.0985 F   0  0  0  0  0  0
  -21.5590   -3.4535   25.7732 F   0  0  0  0  0  0
  -29.9326  -13.6277   20.2318 N   0  0  0  0  0  0
  -26.2819  -12.9383   20.3241 N   0  0  0  0  0  0
  -25.9251  -11.6537   20.5803 N   0  0  0  0  0  0
  -22.0499  -12.8224   22.0407 N   0  0  0  0  0  0
  -25.4228  -15.1885   20.4225 N   0  0  0  0  0  0
  -31.9180  -14.5834   20.4681 O   0  0  0  0  0  0
  -21.6665   -6.8863   21.4225 O   0  0  0  0  0  0
  -22.3545  -14.5619   20.6802 O   0  0  0  0  0  0
  -24.6314  -31.8529   23.1973 C   0  0  0  0  0  0
  -25.9140  -32.4742   23.8301 C   0  0  1  0  0  0
  -27.1938  -27.2622   20.1136 C   0  0  0  0  0  0
  -25.5949  -33.8545   24.2243 N   0  0  0  0  0  0
  -23.4220  -30.4804   21.5442 C   0  0  2  0  0  0
  -24.8592  -28.9310   20.1056 C   0  0  0  0  0  0
  -22.7472  -29.4585   22.4922 C   0  0  0  0  0  0
  -18.0286  -28.1365   22.8481 C   0  0  0  0  0  0
  -24.1497  -36.7300   23.2640 C   0  0  0  0  0  0
  -25.9689  -30.7660   21.3732 C   0  0  0  0  0  0
  -26.0316  -29.3893   20.7177 C   0  0  0  0  0  0
  -27.1982  -28.5644   20.7134 C   0  0  0  0  0  0
  -25.9906  -26.8663   19.4806 C   0  0  0  0  0  0
  -24.8434  -27.6793   19.4787 C   0  0  0  0  0  0
  -23.6312  -29.8187   20.1586 C   0  0  0  0  0  0
  -25.4116  -36.3073   24.0329 C   0  0  1  0  0  0
  -20.5877  -28.3651   23.1291 C   0  0  2  0  0  0
  -20.6769  -26.9366   22.5408 C   0  0  0  0  0  0
  -19.5771  -26.6353   21.5199 C   0  0  0  0  0  0
  -18.1941  -26.7913   22.1598 C   0  0  0  0  0  0
  -19.1536  -28.8834   23.2877 C   0  0  0  0  0  0
  -18.9464  -30.1454   23.8867 C   0  0  0  0  0  0
  -17.6461  -30.6565   24.0580 C   0  0  0  0  0  0
  -25.9050  -34.9435   23.5076 C   0  0  0  0  0  0
  -16.5349  -29.9069   23.6359 C   0  0  0  0  0  0
  -16.7272  -28.6496   23.0347 C   0  0  0  0  0  0
  -26.4515  -31.6560   25.0688 C   0  0  0  0  0  0
  -25.3752  -31.3719   26.1427 C   0  0  0  0  0  0
  -27.0369  -30.2991   24.6126 C   0  0  0  0  0  0
  -27.6069  -32.4314   25.7478 C   0  0  0  0  0  0
  -27.5581  -37.1784   24.8468 C   0  0  0  0  0  0
  -21.4178  -29.3025   22.3710 N   0  0  0  0  0  0
  -26.4299  -37.3748   23.9411 N   0  0  0  0  0  0
  -24.6951  -31.0489   22.0963 N   0  0  0  0  0  0
  -23.4197  -28.8099   23.2983 O   0  0  0  0  0  0
  -28.3170  -26.4084   20.1814 O   0  0  0  0  0  0
  -26.5611  -34.8906   22.4637 O   0  0  0  0  0  0
  -23.5472  -32.1353   23.7286 O   0  0  0  0  0  0
  -27.9128  -16.3492   17.1278 C   0  0  0  0  0  0
  -29.0384  -16.1840   17.9406 C   0  0  0  0  0  0
  -28.2180  -17.7010   19.5845 C   0  0  0  0  0  0
  -26.7897  -16.9710   17.6972 C   0  0  0  0  0  0
  -26.9342  -17.6643   18.9366 C   0  0  0  0  0  0
  -29.0471  -16.5228   19.2971 C   0  0  0  0  0  0
  -30.4435  -15.9739   17.4360 C   0  0  0  0  0  0
  -28.0246  -19.8524   21.2521 C   0  0  0  0  0  0
  -31.2421  -16.3955   18.6855 C   0  0  0  0  0  0
  -28.4041  -21.3524   21.5598 C   0  0  0  0  0  0
  -29.0925  -21.7444   19.3032 C   0  0  0  0  0  0
  -28.7492  -19.1537   20.0456 C   0  0  2  0  0  0
  -28.7117  -20.2574   18.8949 C   0  0  2  0  0  0
  -25.4965  -16.9943   16.8952 C   0  0  0  0  0  0
  -25.7253  -18.4058   19.4999 C   0  0  0  0  0  0
  -29.5451  -19.8596   17.6651 C   0  0  0  0  0  0
  -28.4810  -23.7878   20.8012 C   0  0  0  0  0  0
  -28.3010  -24.9749   19.7338 C   0  0  0  0  0  0
  -30.3259  -16.0141   19.7843 N   0  0  0  0  0  0
  -28.2601  -22.3081   20.4063 N   0  3  2  0  0  0
  -31.4216  -12.5660   19.1022 H   0  0  0  0  0  0
  -30.3434  -11.5539   20.0258 H   0  0  0  0  0  0
  -29.7225  -11.5038   17.6141 H   0  0  0  0  0  0
  -29.5602  -13.2311   17.5602 H   0  0  0  0  0  0
  -27.8208  -11.2310   18.9560 H   0  0  0  0  0  0
  -27.3235  -12.4293   17.8009 H   0  0  0  0  0  0
  -27.5507  -14.2127   19.3370 H   0  0  0  0  0  0
  -28.7369  -12.3517   21.4480 H   0  0  0  0  0  0
  -28.4284  -14.0678   21.6409 H   0  0  0  0  0  0
  -25.2691   -9.5712   22.4860 H   0  0  0  0  0  0
  -24.0007   -7.4616   22.7475 H   0  0  0  0  0  0
  -21.0807   -8.8752   19.8938 H   0  0  0  0  0  0
  -22.3627  -10.9701   19.6212 H   0  0  0  0  0  0
  -21.2034   -7.6150   23.9676 H   0  0  0  0  0  0
  -21.1487   -6.0539   25.9064 H   0  0  0  0  0  0
  -22.0605   -2.7602   23.2856 H   0  0  0  0  0  0
  -22.4123  -11.9813   22.4651 H   0  0  0  0  0  0
  -21.1164  -13.1278   22.2709 H   0  0  0  0  0  0
  -24.6496  -15.8403   20.4872 H   0  0  0  0  0  0
  -26.2541  -15.6035   20.0138 H   0  0  0  0  0  0
  -26.7177  -32.5374   23.1008 H   0  0  0  0  0  0
  -25.0217  -33.9683   25.0476 H   0  0  0  0  0  0
  -22.7224  -31.3068   21.4032 H   0  0  0  0  0  0
  -23.3760  -35.9634   23.3317 H   0  0  0  0  0  0
  -24.3593  -36.8902   22.2050 H   0  0  0  0  0  0
  -23.7225  -37.6490   23.6665 H   0  0  0  0  0  0
  -26.0936  -31.5163   20.5919 H   0  0  0  0  0  0
  -26.8567  -30.8177   21.9921 H   0  0  0  0  0  0
  -28.0953  -28.9008   21.2126 H   0  0  0  0  0  0
  -25.8639  -25.9178   18.9881 H   0  0  0  0  0  0
  -23.9424  -27.3256   18.9974 H   0  0  0  0  0  0
  -23.7470  -30.5979   19.4058 H   0  0  0  0  0  0
  -22.7497  -29.2503   19.8555 H   0  0  0  0  0  0
  -25.1266  -36.1945   25.0809 H   0  0  0  0  0  0
  -20.9964  -28.3198   24.1417 H   0  0  0  0  0  0
  -20.5661  -26.2219   23.3567 H   0  0  0  0  0  0
  -21.6628  -26.7388   22.1183 H   0  0  0  0  0  0
  -19.6935  -25.6267   21.1222 H   0  0  0  0  0  0
  -19.6765  -27.3183   20.6749 H   0  0  0  0  0  0
  -17.4194  -26.6696   21.4004 H   0  0  0  0  0  0
  -18.0354  -26.0024   22.8967 H   0  0  0  0  0  0
  -19.7941  -30.7311   24.2145 H   0  0  0  0  0  0
  -17.5014  -31.6235   24.5203 H   0  0  0  0  0  0
  -15.5358  -30.2974   23.7669 H   0  0  0  0  0  0
  -15.8663  -28.0832   22.7036 H   0  0  0  0  0  0
  -24.5953  -30.7024   25.7775 H   0  0  0  0  0  0
  -24.8940  -32.2903   26.4792 H   0  0  0  0  0  0
  -25.8070  -30.8951   27.0231 H   0  0  0  0  0  0
  -26.2920  -29.6736   24.1185 H   0  0  0  0  0  0
  -27.4141  -29.7225   25.4576 H   0  0  0  0  0  0
  -27.8751  -30.4315   23.9289 H   0  0  0  0  0  0
  -27.2662  -33.3648   26.1962 H   0  0  0  0  0  0
  -28.3912  -32.6782   25.0322 H   0  0  0  0  0  0
  -28.0683  -31.8495   26.5456 H   0  0  0  0  0  0
  -28.2541  -38.0126   24.7482 H   0  0  0  0  0  0
  -28.1110  -36.2623   24.6319 H   0  0  0  0  0  0
  -27.2305  -37.1436   25.8873 H   0  0  0  0  0  0
  -20.9328  -29.8818   21.6996 H   0  0  0  0  0  0
  -26.0205  -38.2827   24.1422 H   0  0  0  0  0  0
  -27.9213  -16.0262   16.0958 H   0  0  0  0  0  0
  -30.6558  -16.6187   16.5829 H   0  0  0  0  0  0
  -30.6478  -14.9477   17.1452 H   0  0  0  0  0  0
  -26.9545  -19.8860   21.1098 H   0  0  0  0  0  0
  -28.1768  -19.2466   22.1461 H   0  0  0  0  0  0
  -31.3418  -17.4814   18.7111 H   0  0  0  0  0  0
  -32.2606  -16.0025   18.6710 H   0  0  0  0  0  0
  -29.4300  -21.3911   21.9226 H   0  0  0  0  0  0
  -27.7802  -21.7032   22.3840 H   0  0  0  0  0  0
  -28.9860  -22.3983   18.4370 H   0  0  0  0  0  0
  -30.1461  -21.7903   19.5886 H   0  0  0  0  0  0
  -29.7923  -19.0095   20.3274 H   0  0  0  0  0  0
  -27.6840  -20.3169   18.5392 H   0  0  0  0  0  0
  -25.6227  -16.5192   15.9213 H   0  0  0  0  0  0
  -25.1512  -18.0131   16.7178 H   0  0  0  0  0  0
  -24.7185  -16.4435   17.4221 H   0  0  0  0  0  0
  -25.7366  -19.4622   19.2346 H   0  0  0  0  0  0
  -25.6887  -18.2887   20.5821 H   0  0  0  0  0  0
  -24.7776  -17.9932   19.1535 H   0  0  0  0  0  0
  -30.6132  -19.8823   17.8857 H   0  0  0  0  0  0
  -29.3630  -20.5523   16.8411 H   0  0  0  0  0  0
  -29.2924  -18.8672   17.2997 H   0  0  0  0  0  0
  -27.7726  -23.9969   21.6034 H   0  0  0  0  0  0
  -29.4677  -23.8742   21.2551 H   0  0  0  0  0  0
  -27.4540  -24.7382   19.1055 H   0  0  0  0  0  0
  -29.1435  -24.8982   19.0475 H   0  0  0  0  0  0
  -27.2986  -22.2492   20.1009 H   0  0  0  0  0  0
  1 25  1  0  0  0
  1 30  2  0  0  0
  1 89  1  0  0  0
  2  3  1  0  0  0
  2 25  1  0  0  0
  2 91  1  0  0  0
  2 92  1  0  0  0
  3  4  1  0  0  0
  3 93  1  0  0  0
  3 94  1  0  0  0
  4  5  1  0  0  0
  4 95  1  0  0  0
  4 96  1  0  0  0
  5  6  1  0  0  0
  5 26  1  0  0  0
  5 97  1  0  0  0
  6 25  1  0  0  0
  6 98  1  0  0  0
  6 99  1  0  0  0
  7  8  2  0  0  0
  7 26  1  0  0  0
  7 29  1  0  0  0
  8  9  1  0  0  0
  8 22  1  0  0  0
  9 10  1  0  0  0
  9 27  2  0  0  0
 10 11  2  0  0  0
 10 15  1  0  0  0
 11 12  1  0  0  0
 11100  1  0  0  0
 12 13  2  0  0  0
 12101  1  0  0  0
 13 14  1  0  0  0
 13 31  1  0  0  0
 14 15  2  0  0  0
 14102  1  0  0  0
 15103  1  0  0  0
 16 17  2  0  0  0
 16 21  1  0  0  0
 16 31  1  0  0  0
 17 18  1  0  0  0
 17104  1  0  0  0
 18 19  2  0  0  0
 18105  1  0  0  0
 19 20  1  0  0  0
 19 24  1  0  0  0
 20 21  2  0  0  0
 20106  1  0  0  0
 21 23  1  0  0  0
 22 28  1  0  0  0
 22 32  2  0  0  0
 26 27  1  0  0  0
 28107  1  0  0  0
 28108  1  0  0  0
 29109  1  0  0  0
 29110  1  0  0  0
 33 34  1  0  0  0
 33 66  1  0  0  0
 33 70  2  0  0  0
 34 36  1  0  0  0
 34 59  1  0  0  0
 34111  1  0  0  0
 35 44  2  0  0  0
 35 45  1  0  0  0
 35 68  1  0  0  0
 36 56  1  0  0  0
 36112  1  0  0  0
 37 39  1  0  0  0
 37 47  1  0  0  0
 37 66  1  0  0  0
 37113  1  0  0  0
 38 43  2  0  0  0
 38 46  1  0  0  0
 38 47  1  0  0  0
 39 64  1  0  0  0
 39 67  2  0  0  0
 40 52  1  0  0  0
 40 53  2  0  0  0
 40 58  1  0  0  0
 41114  1  0  0  0
 41115  1  0  0  0
 41116  1  0  0  0
 41 48  1  0  0  0
 42 43  1  0  0  0
 42 66  1  0  0  0
 42117  1  0  0  0
 42118  1  0  0  0
 43 44  1  0  0  0
 44119  1  0  0  0
 45 46  2  0  0  0
 45120  1  0  0  0
 46121  1  0  0  0
 47122  1  0  0  0
 47123  1  0  0  0
 48 56  1  0  0  0
 48 65  1  0  0  0
 48124  1  0  0  0
 49 50  1  0  0  0
 49 53  1  0  0  0
 49 64  1  0  0  0
 49125  1  0  0  0
 50 51  1  0  0  0
 50126  1  0  0  0
 50127  1  0  0  0
 51 52  1  0  0  0
 51128  1  0  0  0
 51129  1  0  0  0
 52130  1  0  0  0
 52131  1  0  0  0
 53 54  1  0  0  0
 54 55  2  0  0  0
 54132  1  0  0  0
 55 57  1  0  0  0
 55133  1  0  0  0
 56 69  2  0  0  0
 57 58  2  0  0  0
 57134  1  0  0  0
 58135  1  0  0  0
 59 60  1  0  0  0
 59 61  1  0  0  0
 59 62  1  0  0  0
 60136  1  0  0  0
 60137  1  0  0  0
 60138  1  0  0  0
 61139  1  0  0  0
 61140  1  0  0  0
 61141  1  0  0  0
 62142  1  0  0  0
 62143  1  0  0  0
 62144  1  0  0  0
 63 65  1  0  0  0
 63145  1  0  0  0
 63146  1  0  0  0
 63147  1  0  0  0
 64148  1  0  0  0
 65149  1  0  0  0
 68 88  1  0  0  0
 71 72  2  0  0  0
 71 74  1  0  0  0
 71150  1  0  0  0
 72 76  1  0  0  0
 72 77  1  0  0  0
 73 75  1  0  0  0
 73 76  2  0  0  0
 73 82  1  0  0  0
 74 75  2  0  0  0
 74 84  1  0  0  0
 75 85  1  0  0  0
 76 89  1  0  0  0
 77 79  1  0  0  0
 77151  1  0  0  0
 77152  1  0  0  0
 78 80  1  0  0  0
 78 82  1  0  0  0
 78153  1  0  0  0
 78154  1  0  0  0
 79 89  1  0  0  0
 79155  1  0  0  0
 79156  1  0  0  0
 80 90  1  0  0  0
 80157  1  0  0  0
 80158  1  0  0  0
 81 83  1  0  0  0
 81 90  1  0  0  0
 81159  1  0  0  0
 81160  1  0  0  0
 82 83  1  0  0  0
 82161  1  0  0  0
 83 86  1  0  0  0
 83162  1  0  0  0
 84163  1  0  0  0
 84164  1  0  0  0
 84165  1  0  0  0
 85166  1  0  0  0
 85167  1  0  0  0
 85168  1  0  0  0
 86169  1  0  0  0
 86170  1  0  0  0
 86171  1  0  0  0
 87 88  1  0  0  0
 87172  1  0  0  0
 87173  1  0  0  0
 87 90  1  0  0  0
 88174  1  0  0  0
 88175  1  0  0  0
 90176  1  0  0  0
M  CHG  1  90   1
M  ISO  4   1 100  68 101  88 101  89 100
M  END
> <chiral flag>
0

> <version>
0

> <s_m_source_file>
/data/baiqing/PycharmProjects/Reinvent-master-3.2/result/LINK_invent/BTK/process_docking_weight1_custom_sum_contain_oxygen_bond_distance_aromatic_linkinvent_7_9_3/rearranged_h_0170.sdf

> <i_m_source_file_index>
13

> <r_mmod_Potential_Energy-OPLS-2005>
654.388793945312

> <r_mmod_Stretch_Energy-OPLS-2005>
132.561721801758

> <r_mmod_Bend_Energy-OPLS-2005>
330.885559082031

> <r_mmod_Torsional_Energy-OPLS-2005>
477.359924316406

> <r_mmod_Improper_Torsional_Energy-OPLS-2005>
42.7266082763672

> <r_mmod_Van_der_Waal_Energy-OPLS-2005>
148.544952392578

> <r_mmod_Electrostatic_Energy-OPLS-2005>
-204.571411132812

> <r_mmod_Solvation_Energy-OPLS-2005>
-405.336853027344

> <b_mmod_Minimization_Converged-OPLS-2005>
0

> <r_mmod_RMS_Derivative-OPLS-2005>
4.72916746139526

$$$$
13
                    3D
 Structure written by MMmdl.
163174  0  0  1  0            999 V2000
  -30.6329  -14.6077   20.4901 C   0  0  0  0  0  0
  -30.4313  -12.3696   19.4503 C   0  0  0  0  0  0
  -29.5060  -12.5037   18.2207 C   0  0  0  0  0  0
  -28.0267  -12.3486   18.6279 C   0  0  0  0  0  0
  -27.6518  -13.2148   19.8609 C   0  0  2  0  0  0
  -28.6951  -13.0680   20.9921 C   0  0  0  0  0  0
  -25.2559  -13.8168   20.5682 C   0  0  0  0  0  0
  -24.1829  -13.0434   20.9188 C   0  0  0  0  0  0
  -24.6391  -11.6903   20.8731 C   0  0  0  0  0  0
  -23.9060  -10.4294   21.0402 C   0  0  0  0  0  0
  -24.3612   -9.4211   21.9180 C   0  0  0  0  0  0
  -23.6292   -8.2243   22.0751 C   0  0  0  0  0  0
  -22.4277   -8.0279   21.3540 C   0  0  0  0  0  0
  -21.9906   -9.0252   20.4641 C   0  0  0  0  0  0
  -22.7228  -10.2134   20.3052 C   0  0  0  0  0  0
  -21.6855   -6.0734   22.5279 C   0  0  0  0  0  0
  -21.4008   -6.5637   23.8213 C   0  0  0  0  0  0
  -21.3662   -5.6792   24.9175 C   0  0  0  0  0  0
  -21.6050   -4.3054   24.7225 C   0  0  0  0  0  0
  -21.8818   -3.8145   23.4349 C   0  0  0  0  0  0
  -21.9193   -4.6964   22.3402 C   0  0  0  0  0  0
  -22.7854  -13.5234   21.1857 C   0  0  0  0  0  0
  -22.1661   -4.2149   21.0981 F   0  0  0  0  0  0
  -21.5634   -3.4537   25.7738 F   0  0  0  0  0  0
  -30.0127  -13.3916   20.4274 N   0  0  0  0  0  0
  -26.2980  -12.9343   20.3298 N   0  0  0  0  0  0
  -25.9317  -11.6501   20.5730 N   0  0  0  0  0  0
  -22.0493  -12.8223   22.0409 N   0  0  0  0  0  0
  -25.4272  -15.1887   20.4097 N   0  0  0  0  0  0
  -31.8076  -14.7569   20.1417 O   0  0  0  0  0  0
  -21.6640   -6.8875   21.4239 O   0  0  0  0  0  0
  -22.3539  -14.5544   20.6712 O   0  0  0  0  0  0
  -24.6208  -31.8608   23.2031 C   0  0  0  0  0  0
  -25.9075  -32.4777   23.8341 C   0  0  1  0  0  0
  -27.2345  -27.3593   20.1115 C   0  0  0  0  0  0
  -25.5911  -33.8576   24.2270 N   0  0  0  0  0  0
  -23.4106  -30.4824   21.5445 C   0  0  2  0  0  0
  -24.8573  -28.9335   20.1133 C   0  0  0  0  0  0
  -22.7436  -29.4624   22.4958 C   0  0  0  0  0  0
  -18.0275  -28.1384   22.8484 C   0  0  0  0  0  0
  -24.1490  -36.7299   23.2638 C   0  0  0  0  0  0
  -25.9450  -30.8060   21.3629 C   0  0  0  0  0  0
  -26.0203  -29.4323   20.7119 C   0  0  0  0  0  0
  -27.2078  -28.6536   20.7032 C   0  0  0  0  0  0
  -26.0483  -26.8894   19.5054 C   0  0  0  0  0  0
  -24.8711  -27.6662   19.5044 C   0  0  0  0  0  0
  -23.6214  -29.8085   20.1612 C   0  0  0  0  0  0
  -25.4112  -36.3074   24.0326 C   0  0  1  0  0  0
  -20.5871  -28.3670   23.1309 C   0  0  2  0  0  0
  -20.6764  -26.9400   22.5416 C   0  0  0  0  0  0
  -19.5743  -26.6386   21.5213 C   0  0  0  0  0  0
  -18.1923  -26.7926   22.1621 C   0  0  0  0  0  0
  -19.1527  -28.8842   23.2893 C   0  0  0  0  0  0
  -18.9456  -30.1454   23.8896 C   0  0  0  0  0  0
  -17.6456  -30.6584   24.0568 C   0  0  0  0  0  0
  -25.9048  -34.9446   23.5098 C   0  0  0  0  0  0
  -16.5348  -29.9087   23.6331 C   0  0  0  0  0  0
  -16.7265  -28.6512   23.0338 C   0  0  0  0  0  0
  -26.4480  -31.6573   25.0689 C   0  0  0  0  0  0
  -25.3741  -31.3719   26.1441 C   0  0  0  0  0  0
  -27.0302  -30.3001   24.6095 C   0  0  0  0  0  0
  -27.6044  -32.4298   25.7465 C   0  0  0  0  0  0
  -27.5573  -37.1803   24.8464 C   0  0  0  0  0  0
  -21.4157  -29.3032   22.3711 N   0  0  0  0  0  0
  -26.4285  -37.3770   23.9405 N   0  0  0  0  0  0
  -24.6773  -31.0665   22.0944 N   0  0  0  0  0  0
  -23.4189  -28.8169   23.3015 O   0  0  0  0  0  0
  -28.4043  -26.6039   20.1507 O   0  0  0  0  0  0
  -26.5619  -34.8914   22.4667 O   0  0  0  0  0  0
  -23.5391  -32.1373   23.7410 O   0  0  0  0  0  0
  -28.3993  -20.6036   19.3564 C   0  0  0  0  0  0
  -29.0633  -19.7468   20.2933 C   0  0  0  0  0  0
  -28.9683  -22.5280   20.5684 C   0  0  0  0  0  0
  -29.6445  -21.6712   21.4903 C   0  0  0  0  0  0
  -28.4039  -19.6021   16.9357 C   0  0  0  0  0  0
  -27.5717  -20.8497   16.8605 C   0  0  0  0  0  0
  -29.7310  -17.5685   19.0505 C   0  0  0  0  0  0
  -29.9124  -24.8491   19.8754 C   0  0  0  0  0  0
  -27.6510  -20.0737   18.1639 C   0  0  0  0  0  0
  -29.0035  -18.1945   20.2173 C   0  0  1  0  0  0
  -28.9348  -24.0755   20.7227 C   0  0  1  0  0  0
  -30.1148  -17.0989   20.4234 C   0  0  1  0  0  0
  -28.4493  -25.1959   19.7430 C   0  0  1  0  0  0
  -30.3759  -22.2346   22.6936 C   0  0  0  0  0  0
  -28.3413  -21.9642   19.5044 N   0  0  0  0  0  0
  -29.6807  -20.3089   21.3652 N   0  0  0  0  0  0
  -29.8171  -15.6828   20.6898 N   0  0  0  0  0  0
  -31.4745  -12.4857   19.1506 H   0  0  0  0  0  0
  -30.3537  -11.3729   19.8871 H   0  0  0  0  0  0
  -29.7665  -11.7581   17.4685 H   0  0  0  0  0  0
  -29.6569  -13.4771   17.7509 H   0  0  0  0  0  0
  -27.8547  -11.2946   18.8481 H   0  0  0  0  0  0
  -27.3777  -12.5916   17.7851 H   0  0  0  0  0  0
  -27.6695  -14.2503   19.5215 H   0  0  0  0  0  0
  -28.6977  -12.0505   21.3852 H   0  0  0  0  0  0
  -28.4497  -13.7145   21.8365 H   0  0  0  0  0  0
  -25.2758   -9.5689   22.4752 H   0  0  0  0  0  0
  -24.0008   -7.4633   22.7467 H   0  0  0  0  0  0
  -21.0837   -8.8760   19.8946 H   0  0  0  0  0  0
  -22.3682  -10.9670   19.6159 H   0  0  0  0  0  0
  -21.1992   -7.6144   23.9714 H   0  0  0  0  0  0
  -21.1488   -6.0522   25.9080 H   0  0  0  0  0  0
  -22.0597   -2.7608   23.2847 H   0  0  0  0  0  0
  -22.4102  -11.9880   22.4793 H   0  0  0  0  0  0
  -21.1108  -13.1243   22.2604 H   0  0  0  0  0  0
  -24.6563  -15.8396   20.5164 H   0  0  0  0  0  0
  -26.2680  -15.6273   20.0586 H   0  0  0  0  0  0
  -26.7142  -32.5455   23.1097 H   0  0  0  0  0  0
  -25.0059  -33.9727   25.0414 H   0  0  0  0  0  0
  -22.7012  -31.3004   21.4011 H   0  0  0  0  0  0
  -23.3740  -35.9642   23.3295 H   0  0  0  0  0  0
  -24.3590  -36.8926   22.2053 H   0  0  0  0  0  0
  -23.7252  -37.6504   23.6669 H   0  0  0  0  0  0
  -26.0641  -31.5676   20.5909 H   0  0  0  0  0  0
  -26.8314  -30.8628   21.9828 H   0  0  0  0  0  0
  -28.1045  -29.0349   21.1715 H   0  0  0  0  0  0
  -26.0103  -25.9174   19.0367 H   0  0  0  0  0  0
  -23.9768  -27.2770   19.0373 H   0  0  0  0  0  0
  -23.7338  -30.5808   19.3999 H   0  0  0  0  0  0
  -22.7419  -29.2339   19.8644 H   0  0  0  0  0  0
  -25.1296  -36.1919   25.0818 H   0  0  0  0  0  0
  -20.9975  -28.3244   24.1426 H   0  0  0  0  0  0
  -20.5670  -26.2278   23.3609 H   0  0  0  0  0  0
  -21.6632  -26.7435   22.1202 H   0  0  0  0  0  0
  -19.6909  -25.6304   21.1229 H   0  0  0  0  0  0
  -19.6688  -27.3208   20.6754 H   0  0  0  0  0  0
  -17.4193  -26.6668   21.4027 H   0  0  0  0  0  0
  -18.0329  -26.0073   22.9019 H   0  0  0  0  0  0
  -19.7938  -30.7271   24.2254 H   0  0  0  0  0  0
  -17.5016  -31.6265   24.5170 H   0  0  0  0  0  0
  -15.5350  -30.2989   23.7664 H   0  0  0  0  0  0
  -15.8663  -28.0845   22.7032 H   0  0  0  0  0  0
  -24.5897  -30.7078   25.7794 H   0  0  0  0  0  0
  -24.8959  -32.2894   26.4881 H   0  0  0  0  0  0
  -25.8090  -30.8890   27.0199 H   0  0  0  0  0  0
  -26.2844  -29.6768   24.1145 H   0  0  0  0  0  0
  -27.4049  -29.7235   25.4561 H   0  0  0  0  0  0
  -27.8695  -30.4295   23.9257 H   0  0  0  0  0  0
  -27.2658  -33.3614   26.2016 H   0  0  0  0  0  0
  -28.3883  -32.6824   25.0310 H   0  0  0  0  0  0
  -28.0671  -31.8424   26.5406 H   0  0  0  0  0  0
  -28.2587  -38.0099   24.7494 H   0  0  0  0  0  0
  -28.1066  -36.2627   24.6304 H   0  0  0  0  0  0
  -27.2294  -37.1473   25.8868 H   0  0  0  0  0  0
  -20.9325  -29.8759   21.6934 H   0  0  0  0  0  0
  -26.0160  -38.2843   24.1403 H   0  0  0  0  0  0
  -29.4841  -19.7327   16.9138 H   0  0  0  0  0  0
  -28.0285  -18.7239   16.4146 H   0  0  0  0  0  0
  -26.6516  -20.7869   16.2837 H   0  0  0  0  0  0
  -28.1055  -21.7956   16.7863 H   0  0  0  0  0  0
  -30.4773  -18.1665   18.5314 H   0  0  0  0  0  0
  -29.1548  -16.8985   18.4151 H   0  0  0  0  0  0
  -30.3657  -24.3369   19.0288 H   0  0  0  0  0  0
  -30.5668  -25.5477   20.3941 H   0  0  0  0  0  0
  -26.7726  -19.5075   18.4689 H   0  0  0  0  0  0
  -27.9755  -17.8765   20.3819 H   0  0  0  0  0  0
  -28.8658  -24.3354   21.7768 H   0  0  0  0  0  0
  -31.0538  -17.4696   20.8306 H   0  0  0  0  0  0
  -27.9944  -24.9618   18.7821 H   0  0  0  0  0  0
  -31.0940  -22.9935   22.3817 H   0  0  0  0  0  0
  -30.9188  -21.4602   23.2365 H   0  0  0  0  0  0
  -29.6689  -22.6947   23.3838 H   0  0  0  0  0  0
  -28.8703  -15.4645   20.9605 H   0  0  0  0  0  0
  1 25  1  0  0  0
  1 30  2  0  0  0
  1 87  1  0  0  0
  2  3  1  0  0  0
  2 25  1  0  0  0
  2 88  1  0  0  0
  2 89  1  0  0  0
  3  4  1  0  0  0
  3 90  1  0  0  0
  3 91  1  0  0  0
  4  5  1  0  0  0
  4 92  1  0  0  0
  4 93  1  0  0  0
  5  6  1  0  0  0
  5 26  1  0  0  0
  5 94  1  0  0  0
  6 25  1  0  0  0
  6 95  1  0  0  0
  6 96  1  0  0  0
  7  8  2  0  0  0
  7 26  1  0  0  0
  7 29  1  0  0  0
  8  9  1  0  0  0
  8 22  1  0  0  0
  9 10  1  0  0  0
  9 27  2  0  0  0
 10 11  2  0  0  0
 10 15  1  0  0  0
 11 12  1  0  0  0
 11 97  1  0  0  0
 12 13  2  0  0  0
 12 98  1  0  0  0
 13 14  1  0  0  0
 13 31  1  0  0  0
 14 15  2  0  0  0
 14 99  1  0  0  0
 15100  1  0  0  0
 16 17  2  0  0  0
 16 21  1  0  0  0
 16 31  1  0  0  0
 17 18  1  0  0  0
 17101  1  0  0  0
 18 19  2  0  0  0
 18102  1  0  0  0
 19 20  1  0  0  0
 19 24  1  0  0  0
 20 21  2  0  0  0
 20103  1  0  0  0
 21 23  1  0  0  0
 22 28  1  0  0  0
 22 32  2  0  0  0
 26 27  1  0  0  0
 28104  1  0  0  0
 28105  1  0  0  0
 29106  1  0  0  0
 29107  1  0  0  0
 33 34  1  0  0  0
 33 66  1  0  0  0
 33 70  2  0  0  0
 34 36  1  0  0  0
 34 59  1  0  0  0
 34108  1  0  0  0
 35 44  2  0  0  0
 35 45  1  0  0  0
 35 68  1  0  0  0
 36 56  1  0  0  0
 36109  1  0  0  0
 37 39  1  0  0  0
 37 47  1  0  0  0
 37 66  1  0  0  0
 37110  1  0  0  0
 38 43  2  0  0  0
 38 46  1  0  0  0
 38 47  1  0  0  0
 39 64  1  0  0  0
 39 67  2  0  0  0
 40 52  1  0  0  0
 40 53  2  0  0  0
 40 58  1  0  0  0
 41111  1  0  0  0
 41112  1  0  0  0
 41113  1  0  0  0
 41 48  1  0  0  0
 42 43  1  0  0  0
 42 66  1  0  0  0
 42114  1  0  0  0
 42115  1  0  0  0
 43 44  1  0  0  0
 44116  1  0  0  0
 45 46  2  0  0  0
 45117  1  0  0  0
 46118  1  0  0  0
 47119  1  0  0  0
 47120  1  0  0  0
 48 56  1  0  0  0
 48 65  1  0  0  0
 48121  1  0  0  0
 49 50  1  0  0  0
 49 53  1  0  0  0
 49 64  1  0  0  0
 49122  1  0  0  0
 50 51  1  0  0  0
 50123  1  0  0  0
 50124  1  0  0  0
 51 52  1  0  0  0
 51125  1  0  0  0
 51126  1  0  0  0
 52127  1  0  0  0
 52128  1  0  0  0
 53 54  1  0  0  0
 54 55  2  0  0  0
 54129  1  0  0  0
 55 57  1  0  0  0
 55130  1  0  0  0
 56 69  2  0  0  0
 57 58  2  0  0  0
 57131  1  0  0  0
 58132  1  0  0  0
 59 60  1  0  0  0
 59 61  1  0  0  0
 59 62  1  0  0  0
 60133  1  0  0  0
 60134  1  0  0  0
 60135  1  0  0  0
 61136  1  0  0  0
 61137  1  0  0  0
 61138  1  0  0  0
 62139  1  0  0  0
 62140  1  0  0  0
 62141  1  0  0  0
 63 65  1  0  0  0
 63142  1  0  0  0
 63143  1  0  0  0
 63144  1  0  0  0
 64145  1  0  0  0
 65146  1  0  0  0
 68 83  1  0  0  0
 71 72  1  0  0  0
 71 85  2  0  0  0
 71 79  1  0  0  0
 72 86  2  0  0  0
 72 80  1  0  0  0
 73 74  2  0  0  0
 73 85  1  0  0  0
 73 81  1  0  0  0
 74 84  1  0  0  0
 74 86  1  0  0  0
 75 76  1  0  0  0
 75 79  1  0  0  0
 75147  1  0  0  0
 75148  1  0  0  0
 76 79  1  0  0  0
 76149  1  0  0  0
 76150  1  0  0  0
 77 80  1  0  0  0
 77 82  1  0  0  0
 77151  1  0  0  0
 77152  1  0  0  0
 78 81  1  0  0  0
 78 83  1  0  0  0
 78153  1  0  0  0
 78154  1  0  0  0
 79155  1  0  0  0
 80 82  1  0  0  0
 80156  1  0  0  0
 81 83  1  0  0  0
 81157  1  0  0  0
 82 87  1  0  0  0
 82158  1  0  0  0
 83159  1  0  0  0
 84160  1  0  0  0
 84161  1  0  0  0
 84162  1  0  0  0
 87163  1  0  0  0
M  ISO  4   1 100  68 101  83 101  87 100
M  END
> <chiral flag>
0

> <version>
0

> <s_m_source_file>
/data/baiqing/PycharmProjects/Reinvent-master-3.2/result/LINK_invent/BTK/process_docking_weight1_custom_sum_contain_oxygen_bond_distance_aromatic_linkinvent_7_9_3/rearranged_h_0170.sdf

> <i_m_source_file_index>
14

> <r_mmod_Potential_Energy-OPLS-2005>
146.507629394531

> <r_mmod_Stretch_Energy-OPLS-2005>
70.8686981201172

> <r_mmod_Bend_Energy-OPLS-2005>
146.447189331055

> <r_mmod_Torsional_Energy-OPLS-2005>
308.286010742188

> <r_mmod_Improper_Torsional_Energy-OPLS-2005>
7.04023361206055

> <r_mmod_Van_der_Waal_Energy-OPLS-2005>
135.550079345703

> <r_mmod_Electrostatic_Energy-OPLS-2005>
-328.81005859375

> <r_mmod_Solvation_Energy-OPLS-2005>
-227.878311157227

> <b_mmod_Minimization_Converged-OPLS-2005>
0

> <r_mmod_RMS_Derivative-OPLS-2005>
1.21141529083252

$$$$
14
                    3D
 Structure written by MMmdl.
175185  0  0  1  0            999 V2000
  -30.7983  -14.3052   20.7363 C   0  0  0  0  0  0
  -30.4149  -12.2836   19.3762 C   0  0  0  0  0  0
  -29.4780  -12.5358   18.1826 C   0  0  0  0  0  0
  -28.0055  -12.3840   18.6039 C   0  0  0  0  0  0
  -27.6680  -13.1996   19.8786 C   0  0  2  0  0  0
  -28.7040  -12.9278   20.9912 C   0  0  0  0  0  0
  -25.2615  -13.8151   20.5657 C   0  0  0  0  0  0
  -24.1855  -13.0440   20.9161 C   0  0  0  0  0  0
  -24.6395  -11.6902   20.8719 C   0  0  0  0  0  0
  -23.9062  -10.4294   21.0399 C   0  0  0  0  0  0
  -24.3613   -9.4210   21.9178 C   0  0  0  0  0  0
  -23.6289   -8.2245   22.0753 C   0  0  0  0  0  0
  -22.4271   -8.0282   21.3549 C   0  0  0  0  0  0
  -21.9907   -9.0252   20.4645 C   0  0  0  0  0  0
  -22.7234  -10.2131   20.3050 C   0  0  0  0  0  0
  -21.6850   -6.0738   22.5280 C   0  0  0  0  0  0
  -21.4011   -6.5640   23.8215 C   0  0  0  0  0  0
  -21.3660   -5.6793   24.9177 C   0  0  0  0  0  0
  -21.6041   -4.3056   24.7222 C   0  0  0  0  0  0
  -21.8820   -3.8152   23.4345 C   0  0  0  0  0  0
  -21.9191   -4.6969   22.3404 C   0  0  0  0  0  0
  -22.7878  -13.5245   21.1831 C   0  0  0  0  0  0
  -22.1659   -4.2154   21.0982 F   0  0  0  0  0  0
  -21.5630   -3.4538   25.7738 F   0  0  0  0  0  0
  -30.0548  -13.2047   20.4625 N   0  0  0  0  0  0
  -26.3049  -12.9308   20.3362 N   0  0  0  0  0  0
  -25.9317  -11.6475   20.5740 N   0  0  0  0  0  0
  -22.0513  -12.8239   22.0387 N   0  0  0  0  0  0
  -25.4360  -15.1863   20.4065 N   0  0  0  0  0  0
  -31.7588  -14.6727   20.0513 O   0  0  0  0  0  0
  -21.6637   -6.8878   21.4244 O   0  0  0  0  0  0
  -22.3571  -14.5561   20.6695 O   0  0  0  0  0  0
  -24.6113  -31.8716   23.2125 C   0  0  0  0  0  0
  -25.9034  -32.4833   23.8400 C   0  0  1  0  0  0
  -27.2300  -27.4630   20.0841 C   0  0  0  0  0  0
  -25.5912  -33.8631   24.2330 N   0  0  0  0  0  0
  -23.3970  -30.4963   21.5539 C   0  0  2  0  0  0
  -24.8405  -28.9705   20.1111 C   0  0  0  0  0  0
  -22.7395  -29.4676   22.5012 C   0  0  0  0  0  0
  -18.0278  -28.1380   22.8483 C   0  0  0  0  0  0
  -24.1499  -36.7306   23.2637 C   0  0  0  0  0  0
  -25.9240  -30.8433   21.3645 C   0  0  0  0  0  0
  -25.9988  -29.4818   20.7090 C   0  0  0  0  0  0
  -27.1945  -28.7332   20.6970 C   0  0  0  0  0  0
  -26.0574  -26.9734   19.4596 C   0  0  0  0  0  0
  -24.8626  -27.7132   19.4864 C   0  0  0  0  0  0
  -23.6017  -29.8322   20.1671 C   0  0  0  0  0  0
  -25.4122  -36.3112   24.0340 C   0  0  1  0  0  0
  -20.5865  -28.3659   23.1335 C   0  0  2  0  0  0
  -20.6775  -26.9400   22.5430 C   0  0  0  0  0  0
  -19.5760  -26.6383   21.5222 C   0  0  0  0  0  0
  -18.1926  -26.7928   22.1608 C   0  0  0  0  0  0
  -19.1524  -28.8836   23.2903 C   0  0  0  0  0  0
  -18.9456  -30.1439   23.8917 C   0  0  0  0  0  0
  -17.6461  -30.6579   24.0575 C   0  0  0  0  0  0
  -25.9051  -34.9480   23.5127 C   0  0  0  0  0  0
  -16.5350  -29.9089   23.6333 C   0  0  0  0  0  0
  -16.7271  -28.6512   23.0337 C   0  0  0  0  0  0
  -26.4469  -31.6599   25.0715 C   0  0  0  0  0  0
  -25.3730  -31.3721   26.1458 C   0  0  0  0  0  0
  -27.0290  -30.3047   24.6062 C   0  0  0  0  0  0
  -27.6042  -32.4317   25.7481 C   0  0  0  0  0  0
  -27.5594  -37.1806   24.8465 C   0  0  0  0  0  0
  -21.4131  -29.3021   22.3746 N   0  0  0  0  0  0
  -26.4307  -37.3792   23.9410 N   0  0  0  0  0  0
  -24.6620  -31.0843   22.1020 N   0  0  0  0  0  0
  -23.4181  -28.8219   23.3047 O   0  0  0  0  0  0
  -28.4105  -26.7523   20.1186 O   0  0  0  0  0  0
  -26.5595  -34.8922   22.4676 O   0  0  0  0  0  0
  -23.5316  -32.1463   23.7535 O   0  0  0  0  0  0
  -31.1984  -24.6517   22.4999 C   0  0  0  0  0  0
  -30.8868  -23.3620   22.9640 C   0  0  0  0  0  0
  -30.3647  -25.2810   21.5601 C   0  0  0  0  0  0
  -29.7445  -22.6807   22.4841 C   0  0  0  0  0  0
  -29.2305  -24.6139   21.0522 C   0  0  0  0  0  0
  -28.9415  -23.2880   21.4788 C   0  0  0  0  0  0
  -30.1197  -20.1547   22.3576 C   0  0  0  0  0  0
  -30.4788  -16.6566   23.6690 C   0  0  0  0  0  0
  -30.8171  -17.3752   21.7670 C   0  0  0  0  0  0
  -29.3942  -21.2998   23.0458 C   0  0  1  0  0  0
  -29.9010  -19.0042   23.3408 C   0  0  2  0  0  0
  -31.1815  -16.0541   22.4482 C   0  0  0  0  0  0
  -29.9726  -19.6996   24.7404 C   0  0  0  0  0  0
  -27.7738  -22.5210   20.8537 C   0  0  0  0  0  0
  -28.9203  -19.1060   25.6958 C   0  0  0  0  0  0
  -31.3707  -19.6124   25.3951 C   0  0  0  0  0  0
  -28.3182  -25.3272   20.0607 C   0  0  0  0  0  0
  -30.8914  -17.9459   23.1115 N   0  0  0  0  0  0
  -30.4851  -14.9065   21.8876 N   0  0  0  0  0  0
  -29.6727  -21.1294   24.4799 N   0  3  0  0  0  0
  -31.4565  -12.3917   19.0683 H   0  0  0  0  0  0
  -30.3171  -11.2539   19.7236 H   0  0  0  0  0  0
  -29.7074  -11.8432   17.3716 H   0  0  0  0  0  0
  -29.6461  -13.5386   17.7869 H   0  0  0  0  0  0
  -27.8154  -11.3243   18.7791 H   0  0  0  0  0  0
  -27.3485  -12.6783   17.7845 H   0  0  0  0  0  0
  -27.7316  -14.2556   19.6148 H   0  0  0  0  0  0
  -28.6555  -11.8834   21.3033 H   0  0  0  0  0  0
  -28.4459  -13.5063   21.8783 H   0  0  0  0  0  0
  -25.2759   -9.5684   22.4749 H   0  0  0  0  0  0
  -24.0000   -7.4637   22.7468 H   0  0  0  0  0  0
  -21.0842   -8.8765   19.8947 H   0  0  0  0  0  0
  -22.3694  -10.9666   19.6154 H   0  0  0  0  0  0
  -21.2005   -7.6145   23.9720 H   0  0  0  0  0  0
  -21.1477   -6.0521   25.9077 H   0  0  0  0  0  0
  -22.0598   -2.7611   23.2843 H   0  0  0  0  0  0
  -22.4111  -11.9886   22.4764 H   0  0  0  0  0  0
  -21.1128  -13.1265   22.2581 H   0  0  0  0  0  0
  -24.6733  -15.8466   20.5107 H   0  0  0  0  0  0
  -26.2972  -15.6210   20.0989 H   0  0  0  0  0  0
  -26.7102  -32.5561   23.1164 H   0  0  0  0  0  0
  -25.0104  -33.9801   25.0502 H   0  0  0  0  0  0
  -22.6843  -31.3125   21.4175 H   0  0  0  0  0  0
  -23.3765  -35.9636   23.3311 H   0  0  0  0  0  0
  -24.3593  -36.8906   22.2049 H   0  0  0  0  0  0
  -23.7247  -37.6514   23.6638 H   0  0  0  0  0  0
  -26.0367  -31.6122   20.5988 H   0  0  0  0  0  0
  -26.8120  -30.8925   21.9830 H   0  0  0  0  0  0
  -28.0868  -29.1206   21.1686 H   0  0  0  0  0  0
  -26.0464  -26.0266   18.9385 H   0  0  0  0  0  0
  -23.9741  -27.3190   19.0128 H   0  0  0  0  0  0
  -23.7033  -30.6084   19.4084 H   0  0  0  0  0  0
  -22.7275  -29.2488   19.8724 H   0  0  0  0  0  0
  -25.1297  -36.1978   25.0834 H   0  0  0  0  0  0
  -20.9944  -28.3220   24.1461 H   0  0  0  0  0  0
  -20.5703  -26.2260   23.3607 H   0  0  0  0  0  0
  -21.6647  -26.7461   22.1209 H   0  0  0  0  0  0
  -19.6940  -25.6303   21.1228 H   0  0  0  0  0  0
  -19.6722  -27.3218   20.6772 H   0  0  0  0  0  0
  -17.4213  -26.6705   21.3987 H   0  0  0  0  0  0
  -18.0302  -26.0057   22.8985 H   0  0  0  0  0  0
  -19.7930  -30.7247   24.2290 H   0  0  0  0  0  0
  -17.5018  -31.6262   24.5166 H   0  0  0  0  0  0
  -15.5352  -30.2998   23.7649 H   0  0  0  0  0  0
  -15.8666  -28.0848   22.7031 H   0  0  0  0  0  0
  -24.5925  -30.7034   25.7812 H   0  0  0  0  0  0
  -24.8886  -32.2881   26.4848 H   0  0  0  0  0  0
  -25.8068  -30.8947   27.0248 H   0  0  0  0  0  0
  -26.2824  -29.6830   24.1099 H   0  0  0  0  0  0
  -27.4072  -29.7255   25.4495 H   0  0  0  0  0  0
  -27.8654  -30.4387   23.9197 H   0  0  0  0  0  0
  -27.2654  -33.3606   26.2079 H   0  0  0  0  0  0
  -28.3837  -32.6893   25.0300 H   0  0  0  0  0  0
  -28.0720  -31.8429   26.5379 H   0  0  0  0  0  0
  -28.2604  -38.0109   24.7502 H   0  0  0  0  0  0
  -28.1089  -36.2630   24.6291 H   0  0  0  0  0  0
  -27.2307  -37.1466   25.8868 H   0  0  0  0  0  0
  -20.9290  -29.8719   21.6951 H   0  0  0  0  0  0
  -26.0201  -38.2875   24.1398 H   0  0  0  0  0  0
  -32.0727  -25.1657   22.8773 H   0  0  0  0  0  0
  -31.5417  -22.9072   23.6936 H   0  0  0  0  0  0
  -30.6020  -26.2827   21.2295 H   0  0  0  0  0  0
  -31.1821  -20.3851   22.2646 H   0  0  0  0  0  0
  -29.7321  -19.9529   21.3597 H   0  0  0  0  0  0
  -30.9416  -16.4668   24.6385 H   0  0  0  0  0  0
  -29.3917  -16.5406   23.6688 H   0  0  0  0  0  0
  -29.8006  -17.4163   21.3651 H   0  0  0  0  0  0
  -31.5720  -17.8054   21.1067 H   0  0  0  0  0  0
  -28.3195  -21.1341   22.9632 H   0  0  0  0  0  0
  -28.8906  -18.6232   23.1748 H   0  0  0  0  0  0
  -32.2573  -15.9184   22.5905 H   0  0  0  0  0  0
  -27.9722  -21.4533   20.7790 H   0  0  0  0  0  0
  -27.5729  -22.8337   19.8298 H   0  0  0  0  0  0
  -26.8650  -22.6630   21.4392 H   0  0  0  0  0  0
  -29.1010  -18.0445   25.8673 H   0  0  0  0  0  0
  -27.9095  -19.2013   25.2978 H   0  0  0  0  0  0
  -28.9405  -19.5962   26.6695 H   0  0  0  0  0  0
  -31.6378  -18.5832   25.6366 H   0  0  0  0  0  0
  -31.4124  -20.1740   26.3292 H   0  0  0  0  0  0
  -32.1485  -20.0028   24.7379 H   0  0  0  0  0  0
  -27.3125  -24.9964   20.3131 H   0  0  0  0  0  0
  -28.5400  -24.9890   19.0479 H   0  0  0  0  0  0
  -29.7290  -14.5055   22.4210 H   0  0  0  0  0  0
  -28.8881  -21.4525   25.0238 H   0  0  0  0  0  0
  -30.4754  -21.6853   24.7194 H   0  0  0  0  0  0
  1 25  1  0  0  0
  1 30  2  0  0  0
  1 89  1  0  0  0
  2  3  1  0  0  0
  2 25  1  0  0  0
  2 91  1  0  0  0
  2 92  1  0  0  0
  3  4  1  0  0  0
  3 93  1  0  0  0
  3 94  1  0  0  0
  4  5  1  0  0  0
  4 95  1  0  0  0
  4 96  1  0  0  0
  5  6  1  0  0  0
  5 26  1  0  0  0
  5 97  1  0  0  0
  6 25  1  0  0  0
  6 98  1  0  0  0
  6 99  1  0  0  0
  7  8  2  0  0  0
  7 26  1  0  0  0
  7 29  1  0  0  0
  8  9  1  0  0  0
  8 22  1  0  0  0
  9 10  1  0  0  0
  9 27  2  0  0  0
 10 11  2  0  0  0
 10 15  1  0  0  0
 11 12  1  0  0  0
 11100  1  0  0  0
 12 13  2  0  0  0
 12101  1  0  0  0
 13 14  1  0  0  0
 13 31  1  0  0  0
 14 15  2  0  0  0
 14102  1  0  0  0
 15103  1  0  0  0
 16 17  2  0  0  0
 16 21  1  0  0  0
 16 31  1  0  0  0
 17 18  1  0  0  0
 17104  1  0  0  0
 18 19  2  0  0  0
 18105  1  0  0  0
 19 20  1  0  0  0
 19 24  1  0  0  0
 20 21  2  0  0  0
 20106  1  0  0  0
 21 23  1  0  0  0
 22 28  1  0  0  0
 22 32  2  0  0  0
 26 27  1  0  0  0
 28107  1  0  0  0
 28108  1  0  0  0
 29109  1  0  0  0
 29110  1  0  0  0
 33 34  1  0  0  0
 33 66  1  0  0  0
 33 70  2  0  0  0
 34 36  1  0  0  0
 34 59  1  0  0  0
 34111  1  0  0  0
 35 44  2  0  0  0
 35 45  1  0  0  0
 35 68  1  0  0  0
 36 56  1  0  0  0
 36112  1  0  0  0
 37 39  1  0  0  0
 37 47  1  0  0  0
 37 66  1  0  0  0
 37113  1  0  0  0
 38 43  2  0  0  0
 38 46  1  0  0  0
 38 47  1  0  0  0
 39 64  1  0  0  0
 39 67  2  0  0  0
 40 52  1  0  0  0
 40 53  2  0  0  0
 40 58  1  0  0  0
 41114  1  0  0  0
 41115  1  0  0  0
 41116  1  0  0  0
 41 48  1  0  0  0
 42 43  1  0  0  0
 42 66  1  0  0  0
 42117  1  0  0  0
 42118  1  0  0  0
 43 44  1  0  0  0
 44119  1  0  0  0
 45 46  2  0  0  0
 45120  1  0  0  0
 46121  1  0  0  0
 47122  1  0  0  0
 47123  1  0  0  0
 48 56  1  0  0  0
 48 65  1  0  0  0
 48124  1  0  0  0
 49 50  1  0  0  0
 49 53  1  0  0  0
 49 64  1  0  0  0
 49125  1  0  0  0
 50 51  1  0  0  0
 50126  1  0  0  0
 50127  1  0  0  0
 51 52  1  0  0  0
 51128  1  0  0  0
 51129  1  0  0  0
 52130  1  0  0  0
 52131  1  0  0  0
 53 54  1  0  0  0
 54 55  2  0  0  0
 54132  1  0  0  0
 55 57  1  0  0  0
 55133  1  0  0  0
 56 69  2  0  0  0
 57 58  2  0  0  0
 57134  1  0  0  0
 58135  1  0  0  0
 59 60  1  0  0  0
 59 61  1  0  0  0
 59 62  1  0  0  0
 60136  1  0  0  0
 60137  1  0  0  0
 60138  1  0  0  0
 61139  1  0  0  0
 61140  1  0  0  0
 61141  1  0  0  0
 62142  1  0  0  0
 62143  1  0  0  0
 62144  1  0  0  0
 63 65  1  0  0  0
 63145  1  0  0  0
 63146  1  0  0  0
 63147  1  0  0  0
 64148  1  0  0  0
 65149  1  0  0  0
 68 87  1  0  0  0
 71 72  2  0  0  0
 71 73  1  0  0  0
 71150  1  0  0  0
 72 74  1  0  0  0
 72151  1  0  0  0
 73 75  2  0  0  0
 73152  1  0  0  0
 74 76  2  0  0  0
 74 80  1  0  0  0
 75 76  1  0  0  0
 75 87  1  0  0  0
 76 84  1  0  0  0
 77 80  1  0  0  0
 77 81  1  0  0  0
 77153  1  0  0  0
 77154  1  0  0  0
 78 82  1  0  0  0
 78155  1  0  0  0
 78156  1  0  0  0
 78 88  1  0  0  0
 79 82  1  0  0  0
 79 88  1  0  0  0
 79157  1  0  0  0
 79158  1  0  0  0
 80 90  1  0  0  0
 80159  1  0  0  0
 81 83  1  0  0  0
 81 88  1  0  0  0
 81160  1  0  0  0
 82 89  1  0  0  0
 82161  1  0  0  0
 83 85  1  0  0  0
 83 86  1  0  0  0
 83 90  1  0  0  0
 84162  1  0  0  0
 84163  1  0  0  0
 84164  1  0  0  0
 85165  1  0  0  0
 85166  1  0  0  0
 85167  1  0  0  0
 86168  1  0  0  0
 86169  1  0  0  0
 86170  1  0  0  0
 87171  1  0  0  0
 87172  1  0  0  0
 89173  1  0  0  0
 90174  1  0  0  0
 90175  1  0  0  0
M  CHG  1  90   1
M  ISO  4   1 100  68 101  87 101  89 100
M  END
> <chiral flag>
0

> <version>
0

> <s_m_source_file>
/data/baiqing/PycharmProjects/Reinvent-master-3.2/result/LINK_invent/BTK/process_docking_weight1_custom_sum_contain_oxygen_bond_distance_aromatic_linkinvent_7_9_3/rearranged_h_0170.sdf

> <i_m_source_file_index>
15

> <r_mmod_Potential_Energy-OPLS-2005>
-103.523178100586

> <r_mmod_Stretch_Energy-OPLS-2005>
36.5204544067383

> <r_mmod_Bend_Energy-OPLS-2005>
146.137908935547

> <r_mmod_Torsional_Energy-OPLS-2005>
302.569061279297

> <r_mmod_Improper_Torsional_Energy-OPLS-2005>
2.438880443573

> <r_mmod_Van_der_Waal_Energy-OPLS-2005>
173.157104492188

> <r_mmod_Electrostatic_Energy-OPLS-2005>
-316.517028808594

> <r_mmod_Solvation_Energy-OPLS-2005>
-456.930572509766

> <b_mmod_Minimization_Converged-OPLS-2005>
0

> <r_mmod_RMS_Derivative-OPLS-2005>
1.28434503078461

$$$$
15
                    3D
 Structure written by MMmdl.
172181  0  0  1  0            999 V2000
  -30.7618  -14.3970   20.6413 C   0  0  0  0  0  0
  -30.4156  -12.2921   19.4039 C   0  0  0  0  0  0
  -29.4847  -12.5087   18.1958 C   0  0  0  0  0  0
  -28.0092  -12.3676   18.6152 C   0  0  0  0  0  0
  -27.6641  -13.2044   19.8761 C   0  0  2  0  0  0
  -28.7057  -12.9699   20.9924 C   0  0  0  0  0  0
  -25.2606  -13.8156   20.5673 C   0  0  0  0  0  0
  -24.1846  -13.0441   20.9166 C   0  0  0  0  0  0
  -24.6392  -11.6905   20.8738 C   0  0  0  0  0  0
  -23.9059  -10.4294   21.0399 C   0  0  0  0  0  0
  -24.3607   -9.4213   21.9182 C   0  0  0  0  0  0
  -23.6285   -8.2247   22.0758 C   0  0  0  0  0  0
  -22.4273   -8.0280   21.3540 C   0  0  0  0  0  0
  -21.9903   -9.0256   20.4647 C   0  0  0  0  0  0
  -22.7231  -10.2133   20.3055 C   0  0  0  0  0  0
  -21.6847   -6.0737   22.5279 C   0  0  0  0  0  0
  -21.4012   -6.5640   23.8217 C   0  0  0  0  0  0
  -21.3661   -5.6788   24.9177 C   0  0  0  0  0  0
  -21.6039   -4.3052   24.7227 C   0  0  0  0  0  0
  -21.8823   -3.8146   23.4347 C   0  0  0  0  0  0
  -21.9195   -4.6961   22.3400 C   0  0  0  0  0  0
  -22.7867  -13.5244   21.1829 C   0  0  0  0  0  0
  -22.1661   -4.2145   21.0973 F   0  0  0  0  0  0
  -21.5632   -3.4539   25.7741 F   0  0  0  0  0  0
  -30.0420  -13.2615   20.4437 N   0  0  0  0  0  0
  -26.3042  -12.9324   20.3375 N   0  0  0  0  0  0
  -25.9321  -11.6491   20.5775 N   0  0  0  0  0  0
  -22.0504  -12.8244   22.0377 N   0  0  0  0  0  0
  -25.4353  -15.1879   20.4078 N   0  0  0  0  0  0
  -31.8344  -14.6201   20.0710 O   0  0  0  0  0  0
  -21.6637   -6.8880   21.4236 O   0  0  0  0  0  0
  -22.3555  -14.5550   20.6671 O   0  0  0  0  0  0
  -24.6132  -31.8713   23.2133 C   0  0  0  0  0  0
  -25.9022  -32.4841   23.8419 C   0  0  1  0  0  0
  -27.2234  -27.4412   20.0859 C   0  0  0  0  0  0
  -25.5880  -33.8642   24.2341 N   0  0  0  0  0  0
  -23.4008  -30.4955   21.5534 C   0  0  2  0  0  0
  -24.8448  -28.9710   20.1119 C   0  0  0  0  0  0
  -22.7412  -29.4660   22.4991 C   0  0  0  0  0  0
  -18.0259  -28.1379   22.8481 C   0  0  0  0  0  0
  -24.1492  -36.7326   23.2633 C   0  0  0  0  0  0
  -25.9322  -30.8343   21.3704 C   0  0  0  0  0  0
  -26.0075  -29.4742   20.7082 C   0  0  0  0  0  0
  -27.2015  -28.7163   20.6926 C   0  0  0  0  0  0
  -26.0419  -26.9628   19.4688 C   0  0  0  0  0  0
  -24.8552  -27.7128   19.4897 C   0  0  0  0  0  0
  -23.6071  -29.8350   20.1658 C   0  0  0  0  0  0
  -25.4111  -36.3126   24.0340 C   0  0  1  0  0  0
  -20.5858  -28.3658   23.1323 C   0  0  2  0  0  0
  -20.6764  -26.9404   22.5413 C   0  0  0  0  0  0
  -19.5739  -26.6384   21.5216 C   0  0  0  0  0  0
  -18.1907  -26.7927   22.1628 C   0  0  0  0  0  0
  -19.1516  -28.8836   23.2893 C   0  0  0  0  0  0
  -18.9460  -30.1441   23.8903 C   0  0  0  0  0  0
  -17.6465  -30.6582   24.0561 C   0  0  0  0  0  0
  -25.9038  -34.9488   23.5144 C   0  0  0  0  0  0
  -16.5347  -29.9083   23.6335 C   0  0  0  0  0  0
  -16.7260  -28.6510   23.0346 C   0  0  0  0  0  0
  -26.4461  -31.6611   25.0737 C   0  0  0  0  0  0
  -25.3740  -31.3705   26.1487 C   0  0  0  0  0  0
  -27.0310  -30.3059   24.6116 C   0  0  0  0  0  0
  -27.6036  -32.4338   25.7492 C   0  0  0  0  0  0
  -27.5585  -37.1803   24.8453 C   0  0  0  0  0  0
  -21.4142  -29.3020   22.3735 N   0  0  0  0  0  0
  -26.4300  -37.3799   23.9411 N   0  0  0  0  0  0
  -24.6665  -31.0805   22.1040 N   0  0  0  0  0  0
  -23.4189  -28.8184   23.3013 O   0  0  0  0  0  0
  -28.3761  -26.6801   20.1256 O   0  0  0  0  0  0
  -26.5607  -34.8923   22.4703 O   0  0  0  0  0  0
  -23.5324  -32.1460   23.7500 O   0  0  0  0  0  0
  -32.1982  -18.7039   22.9860 C   0  0  0  0  0  0
  -31.8515  -16.3087   22.9262 C   0  0  0  0  0  0
  -31.2096  -18.9058   21.9907 C   0  0  0  0  0  0
  -30.5298  -17.7698   21.4571 C   0  0  0  0  0  0
  -30.8647  -16.4703   21.9335 C   0  0  0  0  0  0
  -32.5344  -17.4150   23.4546 C   0  0  0  0  0  0
  -28.2888  -23.1804   22.4880 C   0  0  0  0  0  0
  -29.6192  -22.5203   22.2105 C   0  0  1  0  0  0
  -29.4737  -17.9364   20.3656 C   0  0  0  0  0  0
  -32.1722  -21.2551   21.5354 C   0  0  0  0  0  0
  -34.2133  -18.2666   24.9509 C   0  0  0  0  0  0
  -29.3207  -24.4770   20.7935 C   0  0  0  0  0  0
  -28.1621  -25.2621   20.1523 C   0  0  0  0  0  0
  -30.9148  -20.3525   21.5240 C   0  0  2  0  0  0
  -29.6663  -20.9864   22.2236 C   0  0  1  0  0  0
  -28.8382  -23.1327   21.1395 N   0  0  0  0  0  0
  -30.2085  -15.3047   21.4598 N   0  0  0  0  0  0
  -29.5220  -20.5168   23.6136 N   0  3  0  0  0  0
  -33.4986  -17.1625   24.4069 O   0  0  0  0  0  0
  -31.4599  -12.3834   19.0988 H   0  0  0  0  0  0
  -30.3110  -11.2776   19.7918 H   0  0  0  0  0  0
  -29.7188  -11.7922   17.4077 H   0  0  0  0  0  0
  -29.6524  -13.4995   17.7706 H   0  0  0  0  0  0
  -27.8200  -11.3108   18.8091 H   0  0  0  0  0  0
  -27.3549  -12.6446   17.7875 H   0  0  0  0  0  0
  -27.7155  -14.2531   19.5849 H   0  0  0  0  0  0
  -28.6757  -11.9309   21.3241 H   0  0  0  0  0  0
  -28.4624  -13.5592   21.8760 H   0  0  0  0  0  0
  -25.2755   -9.5687   22.4757 H   0  0  0  0  0  0
  -23.9995   -7.4639   22.7480 H   0  0  0  0  0  0
  -21.0839   -8.8771   19.8953 H   0  0  0  0  0  0
  -22.3693  -10.9669   19.6163 H   0  0  0  0  0  0
  -21.2002   -7.6149   23.9712 H   0  0  0  0  0  0
  -21.1478   -6.0523   25.9073 H   0  0  0  0  0  0
  -22.0601   -2.7608   23.2848 H   0  0  0  0  0  0
  -22.4106  -11.9899   22.4764 H   0  0  0  0  0  0
  -21.1125  -13.1278   22.2580 H   0  0  0  0  0  0
  -24.6719  -15.8489   20.5129 H   0  0  0  0  0  0
  -26.2946  -15.6218   20.0920 H   0  0  0  0  0  0
  -26.7086  -32.5561   23.1171 H   0  0  0  0  0  0
  -25.0011  -33.9801   25.0469 H   0  0  0  0  0  0
  -22.6888  -31.3121   21.4175 H   0  0  0  0  0  0
  -23.3761  -35.9656   23.3313 H   0  0  0  0  0  0
  -24.3570  -36.8937   22.2043 H   0  0  0  0  0  0
  -23.7244  -37.6531   23.6656 H   0  0  0  0  0  0
  -26.0504  -31.6083   20.6098 H   0  0  0  0  0  0
  -26.8180  -30.8773   21.9938 H   0  0  0  0  0  0
  -28.0965  -29.0893   21.1697 H   0  0  0  0  0  0
  -26.0140  -26.0052   18.9691 H   0  0  0  0  0  0
  -23.9610  -27.3231   19.0208 H   0  0  0  0  0  0
  -23.7135  -30.6129   19.4097 H   0  0  0  0  0  0
  -22.7308  -29.2543   19.8722 H   0  0  0  0  0  0
  -25.1280  -36.1999   25.0839 H   0  0  0  0  0  0
  -20.9923  -28.3228   24.1459 H   0  0  0  0  0  0
  -20.5701  -26.2265   23.3604 H   0  0  0  0  0  0
  -21.6629  -26.7471   22.1189 H   0  0  0  0  0  0
  -19.6929  -25.6300   21.1243 H   0  0  0  0  0  0
  -19.6695  -27.3206   20.6765 H   0  0  0  0  0  0
  -17.4187  -26.6671   21.4016 H   0  0  0  0  0  0
  -18.0294  -26.0066   22.9029 H   0  0  0  0  0  0
  -19.7946  -30.7223   24.2290 H   0  0  0  0  0  0
  -17.5040  -31.6272   24.5148 H   0  0  0  0  0  0
  -15.5355  -30.2989   23.7672 H   0  0  0  0  0  0
  -15.8660  -28.0833   22.7062 H   0  0  0  0  0  0
  -24.5887  -30.7081   25.7815 H   0  0  0  0  0  0
  -24.8944  -32.2857   26.4980 H   0  0  0  0  0  0
  -25.8075  -30.8834   27.0226 H   0  0  0  0  0  0
  -26.2856  -29.6789   24.1204 H   0  0  0  0  0  0
  -27.4117  -29.7312   25.4567 H   0  0  0  0  0  0
  -27.8678  -30.4388   23.9256 H   0  0  0  0  0  0
  -27.2659  -33.3625   26.2108 H   0  0  0  0  0  0
  -28.3823  -32.6921   25.0306 H   0  0  0  0  0  0
  -28.0747  -31.8456   26.5379 H   0  0  0  0  0  0
  -28.2579  -38.0120   24.7521 H   0  0  0  0  0  0
  -28.1109  -36.2643   24.6271 H   0  0  0  0  0  0
  -27.2293  -37.1430   25.8850 H   0  0  0  0  0  0
  -20.9305  -29.8763   21.6980 H   0  0  0  0  0  0
  -26.0210  -38.2882   24.1423 H   0  0  0  0  0  0
  -32.7100  -19.5608   23.3924 H   0  0  0  0  0  0
  -32.0990  -15.3210   23.2869 H   0  0  0  0  0  0
  -28.2914  -24.1182   23.0429 H   0  0  0  0  0  0
  -27.4346  -22.5377   22.6949 H   0  0  0  0  0  0
  -30.5015  -23.0349   22.5867 H   0  0  0  0  0  0
  -28.6574  -18.5690   20.7048 H   0  0  0  0  0  0
  -29.0227  -16.9968   20.0517 H   0  0  0  0  0  0
  -29.9132  -18.3849   19.4748 H   0  0  0  0  0  0
  -33.0116  -20.7633   21.0445 H   0  0  0  0  0  0
  -32.4834  -21.5328   22.5418 H   0  0  0  0  0  0
  -31.9980  -22.1820   20.9876 H   0  0  0  0  0  0
  -34.9481  -17.9060   25.6712 H   0  0  0  0  0  0
  -33.5463  -18.9502   25.4781 H   0  0  0  0  0  0
  -34.7545  -18.8163   24.1793 H   0  0  0  0  0  0
  -29.7002  -25.0146   21.6660 H   0  0  0  0  0  0
  -30.1506  -24.4071   20.0893 H   0  0  0  0  0  0
  -27.2595  -25.0475   20.7311 H   0  0  0  0  0  0
  -27.9896  -24.8935   19.1408 H   0  0  0  0  0  0
  -30.6624  -20.2958   20.4653 H   0  0  0  0  0  0
  -28.7790  -20.6175   21.7069 H   0  0  0  0  0  0
  -29.2848  -15.1075   21.8138 H   0  0  0  0  0  0
  -30.2556  -20.8734   24.1986 H   0  0  0  0  0  0
  -29.5575  -19.5130   23.6290 H   0  0  0  0  0  0
  -28.6375  -20.8031   23.9943 H   0  0  0  0  0  0
  1 25  1  0  0  0
  1 30  2  0  0  0
  1 87  1  0  0  0
  2  3  1  0  0  0
  2 25  1  0  0  0
  2 90  1  0  0  0
  2 91  1  0  0  0
  3  4  1  0  0  0
  3 92  1  0  0  0
  3 93  1  0  0  0
  4  5  1  0  0  0
  4 94  1  0  0  0
  4 95  1  0  0  0
  5  6  1  0  0  0
  5 26  1  0  0  0
  5 96  1  0  0  0
  6 25  1  0  0  0
  6 97  1  0  0  0
  6 98  1  0  0  0
  7  8  2  0  0  0
  7 26  1  0  0  0
  7 29  1  0  0  0
  8  9  1  0  0  0
  8 22  1  0  0  0
  9 10  1  0  0  0
  9 27  2  0  0  0
 10 11  2  0  0  0
 10 15  1  0  0  0
 11 12  1  0  0  0
 11 99  1  0  0  0
 12 13  2  0  0  0
 12100  1  0  0  0
 13 14  1  0  0  0
 13 31  1  0  0  0
 14 15  2  0  0  0
 14101  1  0  0  0
 15102  1  0  0  0
 16 17  2  0  0  0
 16 21  1  0  0  0
 16 31  1  0  0  0
 17 18  1  0  0  0
 17103  1  0  0  0
 18 19  2  0  0  0
 18104  1  0  0  0
 19 20  1  0  0  0
 19 24  1  0  0  0
 20 21  2  0  0  0
 20105  1  0  0  0
 21 23  1  0  0  0
 22 28  1  0  0  0
 22 32  2  0  0  0
 26 27  1  0  0  0
 28106  1  0  0  0
 28107  1  0  0  0
 29108  1  0  0  0
 29109  1  0  0  0
 33 34  1  0  0  0
 33 66  1  0  0  0
 33 70  2  0  0  0
 34 36  1  0  0  0
 34 59  1  0  0  0
 34110  1  0  0  0
 35 44  2  0  0  0
 35 45  1  0  0  0
 35 68  1  0  0  0
 36 56  1  0  0  0
 36111  1  0  0  0
 37 39  1  0  0  0
 37 47  1  0  0  0
 37 66  1  0  0  0
 37112  1  0  0  0
 38 43  2  0  0  0
 38 46  1  0  0  0
 38 47  1  0  0  0
 39 64  1  0  0  0
 39 67  2  0  0  0
 40 52  1  0  0  0
 40 53  2  0  0  0
 40 58  1  0  0  0
 41113  1  0  0  0
 41114  1  0  0  0
 41115  1  0  0  0
 41 48  1  0  0  0
 42 43  1  0  0  0
 42 66  1  0  0  0
 42116  1  0  0  0
 42117  1  0  0  0
 43 44  1  0  0  0
 44118  1  0  0  0
 45 46  2  0  0  0
 45119  1  0  0  0
 46120  1  0  0  0
 47121  1  0  0  0
 47122  1  0  0  0
 48 56  1  0  0  0
 48 65  1  0  0  0
 48123  1  0  0  0
 49 50  1  0  0  0
 49 53  1  0  0  0
 49 64  1  0  0  0
 49124  1  0  0  0
 50 51  1  0  0  0
 50125  1  0  0  0
 50126  1  0  0  0
 51 52  1  0  0  0
 51127  1  0  0  0
 51128  1  0  0  0
 52129  1  0  0  0
 52130  1  0  0  0
 53 54  1  0  0  0
 54 55  2  0  0  0
 54131  1  0  0  0
 55 57  1  0  0  0
 55132  1  0  0  0
 56 69  2  0  0  0
 57 58  2  0  0  0
 57133  1  0  0  0
 58134  1  0  0  0
 59 60  1  0  0  0
 59 61  1  0  0  0
 59 62  1  0  0  0
 60135  1  0  0  0
 60136  1  0  0  0
 60137  1  0  0  0
 61138  1  0  0  0
 61139  1  0  0  0
 61140  1  0  0  0
 62141  1  0  0  0
 62142  1  0  0  0
 62143  1  0  0  0
 63 65  1  0  0  0
 63144  1  0  0  0
 63145  1  0  0  0
 63146  1  0  0  0
 64147  1  0  0  0
 65148  1  0  0  0
 68 83  1  0  0  0
 71 73  2  0  0  0
 71 76  1  0  0  0
 71149  1  0  0  0
 72 75  1  0  0  0
 72 76  2  0  0  0
 72150  1  0  0  0
 73 74  1  0  0  0
 73 84  1  0  0  0
 74 75  2  0  0  0
 74 79  1  0  0  0
 75 87  1  0  0  0
 76 89  1  0  0  0
 77 86  1  0  0  0
 77151  1  0  0  0
 77152  1  0  0  0
 77 78  1  0  0  0
 78 85  1  0  0  0
 78 86  1  0  0  0
 78153  1  0  0  0
 79154  1  0  0  0
 79155  1  0  0  0
 79156  1  0  0  0
 80157  1  0  0  0
 80158  1  0  0  0
 80159  1  0  0  0
 80 84  1  0  0  0
 81 89  1  0  0  0
 81160  1  0  0  0
 81161  1  0  0  0
 81162  1  0  0  0
 82 83  1  0  0  0
 82 86  1  0  0  0
 82163  1  0  0  0
 82164  1  0  0  0
 83165  1  0  0  0
 83166  1  0  0  0
 84 85  1  0  0  0
 84167  1  0  0  0
 85 88  1  0  0  0
 85168  1  0  0  0
 87169  1  0  0  0
 88170  1  0  0  0
 88171  1  0  0  0
 88172  1  0  0  0
M  CHG  1  88   1
M  ISO  4   1 100  68 101  83 101  87 100
M  END
> <chiral flag>
0

> <version>
0

> <s_m_source_file>
/data/baiqing/PycharmProjects/Reinvent-master-3.2/result/LINK_invent/BTK/process_docking_weight1_custom_sum_contain_oxygen_bond_distance_aromatic_linkinvent_7_9_3/rearranged_h_0170.sdf

> <i_m_source_file_index>
16

> <r_mmod_Potential_Energy-OPLS-2005>
-211.266662597656

> <r_mmod_Stretch_Energy-OPLS-2005>
41.1467094421387

> <r_mmod_Bend_Energy-OPLS-2005>
108.078712463379

> <r_mmod_Torsional_Energy-OPLS-2005>
303.778533935547

> <r_mmod_Improper_Torsional_Energy-OPLS-2005>
1.90236937999725

> <r_mmod_Van_der_Waal_Energy-OPLS-2005>
182.440841674805

> <r_mmod_Electrostatic_Energy-OPLS-2005>
-337.461944580078

> <r_mmod_Solvation_Energy-OPLS-2005>
-521.722106933594

> <b_mmod_Minimization_Converged-OPLS-2005>
0

> <r_mmod_RMS_Derivative-OPLS-2005>
2.29866576194763

$$$$
16
                    3D
 Structure written by MMmdl.
163172  0  0  1  0            999 V2000
  -30.6243  -14.7478   20.4372 C   0  0  0  0  0  0
  -30.4399  -12.4473   19.4863 C   0  0  0  0  0  0
  -29.5196  -12.4879   18.2456 C   0  0  0  0  0  0
  -28.0426  -12.3222   18.6565 C   0  0  0  0  0  0
  -27.6467  -13.2274   19.8537 C   0  0  2  0  0  0
  -28.6937  -13.1716   20.9895 C   0  0  0  0  0  0
  -25.2533  -13.8159   20.5691 C   0  0  0  0  0  0
  -24.1836  -13.0422   20.9229 C   0  0  0  0  0  0
  -24.6423  -11.6908   20.8783 C   0  0  0  0  0  0
  -23.9106  -10.4281   21.0422 C   0  0  0  0  0  0
  -24.3633   -9.4191   21.9201 C   0  0  0  0  0  0
  -23.6304   -8.2226   22.0746 C   0  0  0  0  0  0
  -22.4283   -8.0276   21.3531 C   0  0  0  0  0  0
  -21.9932   -9.0260   20.4641 C   0  0  0  0  0  0
  -22.7278  -10.2137   20.3065 C   0  0  0  0  0  0
  -21.6832   -6.0761   22.5307 C   0  0  0  0  0  0
  -21.4003   -6.5660   23.8248 C   0  0  0  0  0  0
  -21.3660   -5.6798   24.9200 C   0  0  0  0  0  0
  -21.6042   -4.3058   24.7231 C   0  0  0  0  0  0
  -21.8809   -3.8165   23.4343 C   0  0  0  0  0  0
  -21.9179   -4.6991   22.3410 C   0  0  0  0  0  0
  -22.7854  -13.5223   21.1878 C   0  0  0  0  0  0
  -22.1645   -4.2184   21.0978 F   0  0  0  0  0  0
  -21.5633   -3.4532   25.7735 F   0  0  0  0  0  0
  -29.9947  -13.5211   20.4058 N   0  0  0  0  0  0
  -26.2980  -12.9369   20.3312 N   0  0  0  0  0  0
  -25.9356  -11.6519   20.5791 N   0  0  0  0  0  0
  -22.0466  -12.8221   22.0426 N   0  0  0  0  0  0
  -25.4150  -15.1894   20.4054 N   0  0  0  0  0  0
  -31.8043  -14.8389   20.0977 O   0  0  0  0  0  0
  -21.6613   -6.8906   21.4260 O   0  0  0  0  0  0
  -22.3560  -14.5550   20.6749 O   0  0  0  0  0  0
  -24.6362  -31.8562   23.1980 C   0  0  0  0  0  0
  -25.9174  -32.4770   23.8344 C   0  0  1  0  0  0
  -27.2163  -27.2446   20.1178 C   0  0  0  0  0  0
  -25.5972  -33.8570   24.2274 N   0  0  0  0  0  0
  -23.4338  -30.4815   21.5410 C   0  0  2  0  0  0
  -24.8808  -28.9354   20.1061 C   0  0  0  0  0  0
  -22.7547  -29.4603   22.4865 C   0  0  0  0  0  0
  -18.0316  -28.1393   22.8503 C   0  0  0  0  0  0
  -24.1461  -36.7252   23.2640 C   0  0  0  0  0  0
  -25.9848  -30.7634   21.3835 C   0  0  0  0  0  0
  -26.0548  -29.3855   20.7230 C   0  0  0  0  0  0
  -27.2246  -28.5519   20.7219 C   0  0  0  0  0  0
  -26.0160  -26.8828   19.4595 C   0  0  0  0  0  0
  -24.8669  -27.6919   19.4640 C   0  0  0  0  0  0
  -23.6561  -29.8262   20.1538 C   0  0  0  0  0  0
  -25.4093  -36.3059   24.0324 C   0  0  1  0  0  0
  -20.5933  -28.3707   23.1251 C   0  0  2  0  0  0
  -20.6787  -26.9407   22.5415 C   0  0  0  0  0  0
  -19.5751  -26.6385   21.5230 C   0  0  0  0  0  0
  -18.1933  -26.7949   22.1629 C   0  0  0  0  0  0
  -19.1572  -28.8872   23.2875 C   0  0  0  0  0  0
  -18.9483  -30.1475   23.8890 C   0  0  0  0  0  0
  -17.6474  -30.6583   24.0578 C   0  0  0  0  0  0
  -25.9056  -34.9445   23.5086 C   0  0  0  0  0  0
  -16.5368  -29.9078   23.6344 C   0  0  0  0  0  0
  -16.7300  -28.6498   23.0367 C   0  0  0  0  0  0
  -26.4512  -31.6609   25.0750 C   0  0  0  0  0  0
  -25.3715  -31.3833   26.1468 C   0  0  0  0  0  0
  -27.0349  -30.3013   24.6269 C   0  0  0  0  0  0
  -27.6071  -32.4350   25.7523 C   0  0  0  0  0  0
  -27.5544  -37.1776   24.8467 C   0  0  0  0  0  0
  -21.4251  -29.3043   22.3624 N   0  0  0  0  0  0
  -26.4252  -37.3764   23.9427 N   0  0  0  0  0  0
  -24.7042  -31.0527   22.0963 N   0  0  0  0  0  0
  -23.4248  -28.8138   23.2962 O   0  0  0  0  0  0
  -28.2878  -26.3101   20.1883 O   0  0  0  0  0  0
  -26.5598  -34.8917   22.4637 O   0  0  0  0  0  0
  -23.5501  -32.1380   23.7250 O   0  0  0  0  0  0
  -28.5365  -22.2187   19.9915 C   0  0  0  0  0  0
  -28.8907  -23.6039   20.2512 C   0  0  0  0  0  0
  -29.4303  -21.1576   20.3951 C   0  0  0  0  0  0
  -30.8310  -22.8047   21.1940 C   0  0  0  0  0  0
  -29.7844  -18.6102   21.0182 C   0  0  0  0  0  0
  -29.4361  -19.2828   18.7961 C   0  0  0  0  0  0
  -30.1727  -17.3351   20.1237 C   0  0  2  0  0  0
  -29.4492  -17.7293   18.8194 C   0  0  2  0  0  0
  -27.2005  -21.9079   19.3290 C   0  0  0  0  0  0
  -32.1439  -23.1326   21.8689 C   0  0  0  0  0  0
  -27.9660  -24.8596   19.8906 C   0  0  0  0  0  0
  -30.0686  -23.8464   20.8543 N   0  0  0  0  0  0
  -30.5717  -21.5084   21.0010 N   0  0  0  0  0  0
  -29.2378  -19.7325   20.1697 N   0  0  0  0  0  0
  -29.8571  -15.8967   20.5754 N   0  0  0  0  0  0
  -30.0550  -17.1369   17.6148 N   0  3  0  0  0  0
  -31.4846  -12.5580   19.1910 H   0  0  0  0  0  0
  -30.3769  -11.4763   19.9783 H   0  0  0  0  0  0
  -29.7991  -11.6989   17.5463 H   0  0  0  0  0  0
  -29.6555  -13.4304   17.7148 H   0  0  0  0  0  0
  -27.8991  -11.2758   18.9295 H   0  0  0  0  0  0
  -27.3870  -12.5066   17.8034 H   0  0  0  0  0  0
  -27.6400  -14.2455   19.4673 H   0  0  0  0  0  0
  -28.7327  -12.1751   21.4297 H   0  0  0  0  0  0
  -28.4298  -13.8530   21.7996 H   0  0  0  0  0  0
  -25.2746   -9.5656   22.4820 H   0  0  0  0  0  0
  -24.0000   -7.4600   22.7455 H   0  0  0  0  0  0
  -21.0859   -8.8802   19.8945 H   0  0  0  0  0  0
  -22.3744  -10.9690   19.6192 H   0  0  0  0  0  0
  -21.2002   -7.6163   23.9782 H   0  0  0  0  0  0
  -21.1489   -6.0509   25.9119 H   0  0  0  0  0  0
  -22.0589   -2.7634   23.2824 H   0  0  0  0  0  0
  -22.3998  -11.9849   22.4812 H   0  0  0  0  0  0
  -21.1108  -13.1310   22.2661 H   0  0  0  0  0  0
  -24.6284  -15.8207   20.5083 H   0  0  0  0  0  0
  -26.2424  -15.6440   20.0465 H   0  0  0  0  0  0
  -26.7262  -32.5408   23.1116 H   0  0  0  0  0  0
  -25.0209  -33.9733   25.0480 H   0  0  0  0  0  0
  -22.7326  -31.3059   21.3979 H   0  0  0  0  0  0
  -23.3735  -35.9568   23.3304 H   0  0  0  0  0  0
  -24.3560  -36.8861   22.2053 H   0  0  0  0  0  0
  -23.7191  -37.6443   23.6661 H   0  0  0  0  0  0
  -26.1265  -31.5231   20.6130 H   0  0  0  0  0  0
  -26.8634  -30.8156   22.0153 H   0  0  0  0  0  0
  -28.1197  -28.8883   21.2275 H   0  0  0  0  0  0
  -25.9166  -25.9444   18.9364 H   0  0  0  0  0  0
  -23.9724  -27.3470   18.9655 H   0  0  0  0  0  0
  -23.7902  -30.6096   19.4064 H   0  0  0  0  0  0
  -22.7734  -29.2682   19.8361 H   0  0  0  0  0  0
  -25.1270  -36.1881   25.0810 H   0  0  0  0  0  0
  -21.0046  -28.3274   24.1363 H   0  0  0  0  0  0
  -20.5690  -26.2313   23.3634 H   0  0  0  0  0  0
  -21.6644  -26.7411   22.1196 H   0  0  0  0  0  0
  -19.6879  -25.6297   21.1249 H   0  0  0  0  0  0
  -19.6666  -27.3209   20.6772 H   0  0  0  0  0  0
  -17.4212  -26.6763   21.4008 H   0  0  0  0  0  0
  -18.0258  -26.0091   22.9011 H   0  0  0  0  0  0
  -19.7954  -30.7313   24.2216 H   0  0  0  0  0  0
  -17.5023  -31.6251   24.5193 H   0  0  0  0  0  0
  -15.5360  -30.2970   23.7672 H   0  0  0  0  0  0
  -15.8712  -28.0812   22.7064 H   0  0  0  0  0  0
  -24.5920  -30.7129   25.7848 H   0  0  0  0  0  0
  -24.8878  -32.3039   26.4744 H   0  0  0  0  0  0
  -25.8020  -30.9157   27.0337 H   0  0  0  0  0  0
  -26.2939  -29.6789   24.1259 H   0  0  0  0  0  0
  -27.3974  -29.7256   25.4798 H   0  0  0  0  0  0
  -27.8847  -30.4271   23.9560 H   0  0  0  0  0  0
  -27.2687  -33.3687   26.2035 H   0  0  0  0  0  0
  -28.3928  -32.6853   25.0380 H   0  0  0  0  0  0
  -28.0708  -31.8522   26.5498 H   0  0  0  0  0  0
  -28.2576  -38.0058   24.7501 H   0  0  0  0  0  0
  -28.1007  -36.2589   24.6284 H   0  0  0  0  0  0
  -27.2287  -37.1429   25.8878 H   0  0  0  0  0  0
  -20.9418  -29.8802   21.6873 H   0  0  0  0  0  0
  -26.0107  -38.2807   24.1498 H   0  0  0  0  0  0
  -30.6593  -18.9464   21.5769 H   0  0  0  0  0  0
  -29.0303  -18.3380   21.7571 H   0  0  0  0  0  0
  -28.6565  -19.6641   18.1362 H   0  0  0  0  0  0
  -30.3927  -19.6701   18.4401 H   0  0  0  0  0  0
  -31.2486  -17.4026   19.9505 H   0  0  0  0  0  0
  -28.4138  -17.3882   18.8777 H   0  0  0  0  0  0
  -26.3787  -22.3207   19.9162 H   0  0  0  0  0  0
  -27.0173  -20.8383   19.2381 H   0  0  0  0  0  0
  -27.1572  -22.3438   18.3298 H   0  0  0  0  0  0
  -32.0410  -24.0117   22.5044 H   0  0  0  0  0  0
  -32.9103  -23.3412   21.1234 H   0  0  0  0  0  0
  -32.4859  -22.3031   22.4903 H   0  0  0  0  0  0
  -27.0201  -24.6276   20.3789 H   0  0  0  0  0  0
  -27.7938  -24.7865   18.8160 H   0  0  0  0  0  0
  -28.9055  -15.7380   20.8706 H   0  0  0  0  0  0
  -30.9942  -17.4688   17.4828 H   0  0  0  0  0  0
  -29.5159  -17.3730   16.8003 H   0  0  0  0  0  0
  -30.0833  -16.1373   17.6904 H   0  0  0  0  0  0
  1 25  1  0  0  0
  1 30  2  0  0  0
  1 85  1  0  0  0
  2  3  1  0  0  0
  2 25  1  0  0  0
  2 87  1  0  0  0
  2 88  1  0  0  0
  3  4  1  0  0  0
  3 89  1  0  0  0
  3 90  1  0  0  0
  4  5  1  0  0  0
  4 91  1  0  0  0
  4 92  1  0  0  0
  5  6  1  0  0  0
  5 26  1  0  0  0
  5 93  1  0  0  0
  6 25  1  0  0  0
  6 94  1  0  0  0
  6 95  1  0  0  0
  7  8  2  0  0  0
  7 26  1  0  0  0
  7 29  1  0  0  0
  8  9  1  0  0  0
  8 22  1  0  0  0
  9 10  1  0  0  0
  9 27  2  0  0  0
 10 11  2  0  0  0
 10 15  1  0  0  0
 11 12  1  0  0  0
 11 96  1  0  0  0
 12 13  2  0  0  0
 12 97  1  0  0  0
 13 14  1  0  0  0
 13 31  1  0  0  0
 14 15  2  0  0  0
 14 98  1  0  0  0
 15 99  1  0  0  0
 16 17  2  0  0  0
 16 21  1  0  0  0
 16 31  1  0  0  0
 17 18  1  0  0  0
 17100  1  0  0  0
 18 19  2  0  0  0
 18101  1  0  0  0
 19 20  1  0  0  0
 19 24  1  0  0  0
 20 21  2  0  0  0
 20102  1  0  0  0
 21 23  1  0  0  0
 22 28  1  0  0  0
 22 32  2  0  0  0
 26 27  1  0  0  0
 28103  1  0  0  0
 28104  1  0  0  0
 29105  1  0  0  0
 29106  1  0  0  0
 33 34  1  0  0  0
 33 66  1  0  0  0
 33 70  2  0  0  0
 34 36  1  0  0  0
 34 59  1  0  0  0
 34107  1  0  0  0
 35 44  2  0  0  0
 35 45  1  0  0  0
 35 68  1  0  0  0
 36 56  1  0  0  0
 36108  1  0  0  0
 37 39  1  0  0  0
 37 47  1  0  0  0
 37 66  1  0  0  0
 37109  1  0  0  0
 38 43  2  0  0  0
 38 46  1  0  0  0
 38 47  1  0  0  0
 39 64  1  0  0  0
 39 67  2  0  0  0
 40 52  1  0  0  0
 40 53  2  0  0  0
 40 58  1  0  0  0
 41110  1  0  0  0
 41111  1  0  0  0
 41112  1  0  0  0
 41 48  1  0  0  0
 42 43  1  0  0  0
 42 66  1  0  0  0
 42113  1  0  0  0
 42114  1  0  0  0
 43 44  1  0  0  0
 44115  1  0  0  0
 45 46  2  0  0  0
 45116  1  0  0  0
 46117  1  0  0  0
 47118  1  0  0  0
 47119  1  0  0  0
 48 56  1  0  0  0
 48 65  1  0  0  0
 48120  1  0  0  0
 49 50  1  0  0  0
 49 53  1  0  0  0
 49 64  1  0  0  0
 49121  1  0  0  0
 50 51  1  0  0  0
 50122  1  0  0  0
 50123  1  0  0  0
 51 52  1  0  0  0
 51124  1  0  0  0
 51125  1  0  0  0
 52126  1  0  0  0
 52127  1  0  0  0
 53 54  1  0  0  0
 54 55  2  0  0  0
 54128  1  0  0  0
 55 57  1  0  0  0
 55129  1  0  0  0
 56 69  2  0  0  0
 57 58  2  0  0  0
 57130  1  0  0  0
 58131  1  0  0  0
 59 60  1  0  0  0
 59 61  1  0  0  0
 59 62  1  0  0  0
 60132  1  0  0  0
 60133  1  0  0  0
 60134  1  0  0  0
 61135  1  0  0  0
 61136  1  0  0  0
 61137  1  0  0  0
 62138  1  0  0  0
 62139  1  0  0  0
 62140  1  0  0  0
 63 65  1  0  0  0
 63141  1  0  0  0
 63142  1  0  0  0
 63143  1  0  0  0
 64144  1  0  0  0
 65145  1  0  0  0
 68 81  1  0  0  0
 71 72  2  0  0  0
 71 73  1  0  0  0
 71 79  1  0  0  0
 72 81  1  0  0  0
 72 82  1  0  0  0
 73 83  2  0  0  0
 73 84  1  0  0  0
 74 80  1  0  0  0
 74 82  2  0  0  0
 74 83  1  0  0  0
 75 77  1  0  0  0
 75 84  1  0  0  0
 75146  1  0  0  0
 75147  1  0  0  0
 76 78  1  0  0  0
 76 84  1  0  0  0
 76148  1  0  0  0
 76149  1  0  0  0
 77 78  1  0  0  0
 77 85  1  0  0  0
 77150  1  0  0  0
 78 86  1  0  0  0
 78151  1  0  0  0
 79152  1  0  0  0
 79153  1  0  0  0
 79154  1  0  0  0
 80155  1  0  0  0
 80156  1  0  0  0
 80157  1  0  0  0
 81158  1  0  0  0
 81159  1  0  0  0
 85160  1  0  0  0
 86161  1  0  0  0
 86162  1  0  0  0
 86163  1  0  0  0
M  CHG  1  86   1
M  ISO  4   1 100  68 101  81 101  85 100
M  END
> <chiral flag>
0

> <version>
0

> <s_m_source_file>
/data/baiqing/PycharmProjects/Reinvent-master-3.2/result/LINK_invent/BTK/process_docking_weight1_custom_sum_contain_oxygen_bond_distance_aromatic_linkinvent_7_9_3/rearranged_h_0170.sdf

> <i_m_source_file_index>
17

> <r_mmod_Potential_Energy-OPLS-2005>
-612.859008789062

> <r_mmod_Stretch_Energy-OPLS-2005>
121.858047485352

> <r_mmod_Bend_Energy-OPLS-2005>
199.356948852539

> <r_mmod_Torsional_Energy-OPLS-2005>
301.382049560547

> <r_mmod_Improper_Torsional_Energy-OPLS-2005>
11.4596567153931

> <r_mmod_Van_der_Waal_Energy-OPLS-2005>
146.694427490234

> <r_mmod_Electrostatic_Energy-OPLS-2005>
-947.516540527344

> <r_mmod_Solvation_Energy-OPLS-2005>
-540.630554199219

> <b_mmod_Minimization_Converged-OPLS-2005>
0

> <r_mmod_RMS_Derivative-OPLS-2005>
2.80958485603333

$$$$
17
                    3D
 Structure written by MMmdl.
164174  0  0  1  0            999 V2000
  -30.6357  -14.8211   20.4621 C   0  0  0  0  0  0
  -30.4330  -12.5138   19.4862 C   0  0  0  0  0  0
  -29.5139  -12.5160   18.2460 C   0  0  0  0  0  0
  -28.0444  -12.3241   18.6641 C   0  0  0  0  0  0
  -27.6331  -13.2418   19.8461 C   0  0  2  0  0  0
  -28.6831  -13.2465   20.9800 C   0  0  0  0  0  0
  -25.2354  -13.7904   20.5737 C   0  0  0  0  0  0
  -24.1705  -13.0200   20.9266 C   0  0  0  0  0  0
  -24.6393  -11.6741   20.8780 C   0  0  0  0  0  0
  -23.9080  -10.4157   21.0411 C   0  0  0  0  0  0
  -24.3621   -9.4095   21.9197 C   0  0  0  0  0  0
  -23.6276   -8.2152   22.0756 C   0  0  0  0  0  0
  -22.4256   -8.0222   21.3535 C   0  0  0  0  0  0
  -21.9903   -9.0198   20.4633 C   0  0  0  0  0  0
  -22.7254  -10.2052   20.3045 C   0  0  0  0  0  0
  -21.6825   -6.0710   22.5285 C   0  0  0  0  0  0
  -21.3991   -6.5616   23.8219 C   0  0  0  0  0  0
  -21.3655   -5.6771   24.9179 C   0  0  0  0  0  0
  -21.6047   -4.3039   24.7230 C   0  0  0  0  0  0
  -21.8824   -3.8127   23.4349 C   0  0  0  0  0  0
  -21.9185   -4.6942   22.3404 C   0  0  0  0  0  0
  -22.7737  -13.5044   21.1910 C   0  0  0  0  0  0
  -22.1660   -4.2137   21.0981 F   0  0  0  0  0  0
  -21.5640   -3.4522   25.7743 F   0  0  0  0  0  0
  -29.9748  -13.6070   20.3812 N   0  0  0  0  0  0
  -26.2898  -12.9293   20.3314 N   0  0  0  0  0  0
  -25.9350  -11.6419   20.5789 N   0  0  0  0  0  0
  -22.0360  -12.8090   22.0486 N   0  0  0  0  0  0
  -25.3732  -15.1506   20.4140 N   0  0  0  0  0  0
  -31.8391  -14.8530   20.1896 O   0  0  0  0  0  0
  -21.6597   -6.8847   21.4246 O   0  0  0  0  0  0
  -22.3455  -14.5365   20.6750 O   0  0  0  0  0  0
  -24.6368  -31.8577   23.2054 C   0  0  0  0  0  0
  -25.9191  -32.4770   23.8392 C   0  0  1  0  0  0
  -27.2035  -27.1995   20.1349 C   0  0  0  0  0  0
  -25.5982  -33.8575   24.2298 N   0  0  0  0  0  0
  -23.4344  -30.4876   21.5506 C   0  0  2  0  0  0
  -24.8789  -28.9428   20.1225 C   0  0  0  0  0  0
  -22.7536  -29.4623   22.4912 C   0  0  0  0  0  0
  -18.0303  -28.1390   22.8483 C   0  0  0  0  0  0
  -24.1491  -36.7282   23.2634 C   0  0  0  0  0  0
  -25.9912  -30.7442   21.4084 C   0  0  0  0  0  0
  -26.0545  -29.3614   20.7573 C   0  0  0  0  0  0
  -27.2105  -28.5005   20.7672 C   0  0  0  0  0  0
  -26.0278  -26.9440   19.3927 C   0  0  0  0  0  0
  -24.8736  -27.7350   19.4314 C   0  0  0  0  0  0
  -23.6570  -29.8371   20.1651 C   0  0  0  0  0  0
  -25.4119  -36.3078   24.0327 C   0  0  1  0  0  0
  -20.5913  -28.3715   23.1242 C   0  0  2  0  0  0
  -20.6793  -26.9426   22.5391 C   0  0  0  0  0  0
  -19.5759  -26.6382   21.5207 C   0  0  0  0  0  0
  -18.1940  -26.7930   22.1626 C   0  0  0  0  0  0
  -19.1557  -28.8867   23.2861 C   0  0  0  0  0  0
  -18.9476  -30.1464   23.8887 C   0  0  0  0  0  0
  -17.6473  -30.6586   24.0559 C   0  0  0  0  0  0
  -25.9071  -34.9445   23.5109 C   0  0  0  0  0  0
  -16.5366  -29.9083   23.6329 C   0  0  0  0  0  0
  -16.7288  -28.6498   23.0358 C   0  0  0  0  0  0
  -26.4522  -31.6593   25.0789 C   0  0  0  0  0  0
  -25.3719  -31.3768   26.1488 C   0  0  0  0  0  0
  -27.0381  -30.2996   24.6336 C   0  0  0  0  0  0
  -27.6077  -32.4336   25.7556 C   0  0  0  0  0  0
  -27.5580  -37.1796   24.8470 C   0  0  0  0  0  0
  -21.4242  -29.3068   22.3640 N   0  0  0  0  0  0
  -26.4291  -37.3779   23.9407 N   0  0  0  0  0  0
  -24.7064  -31.0498   22.1082 N   0  0  0  0  0  0
  -23.4209  -28.8129   23.3007 O   0  0  0  0  0  0
  -28.3089  -26.2805   20.1024 O   0  0  0  0  0  0
  -26.5623  -34.8914   22.4666 O   0  0  0  0  0  0
  -23.5501  -32.1433   23.7296 O   0  0  0  0  0  0
  -28.9067  -20.9331   20.2992 C   0  0  0  0  0  0
  -26.8058  -21.1955   19.2030 C   0  0  0  0  0  0
  -27.8802  -21.8915   19.8242 C   0  0  0  0  0  0
  -28.7498  -19.4486   20.2695 C   0  0  0  0  0  0
  -26.5580  -19.8300   19.2544 C   0  0  0  0  0  0
  -27.4772  -18.9741   19.8684 C   0  0  0  0  0  0
  -26.1691  -23.9093   19.6472 C   0  0  0  0  0  0
  -27.0505  -24.0020   18.3974 C   0  0  0  0  0  0
  -29.9358  -17.0964   21.5556 C   0  0  0  0  0  0
  -30.1256  -17.1299   19.4910 C   0  0  0  0  0  0
  -29.8629  -18.2877   20.5183 C   0  0  0  0  0  0
  -27.6418  -23.5355   19.7053 C   0  0  0  0  0  0
  -25.2637  -19.3195   18.6247 C   0  0  0  0  0  0
  -27.0426  -17.5411   20.0562 C   0  0  0  0  0  0
  -28.3696  -24.7656   20.4862 C   0  0  0  0  0  0
  -29.9092  -16.0261   20.4936 N   0  0  0  0  0  0
  -31.4718  -12.6398   19.1778 H   0  0  0  0  0  0
  -30.3888  -11.5530   20.0009 H   0  0  0  0  0  0
  -29.8119  -11.7265   17.5556 H   0  0  0  0  0  0
  -29.6235  -13.4565   17.7040 H   0  0  0  0  0  0
  -27.9236  -11.2787   18.9507 H   0  0  0  0  0  0
  -27.3842  -12.4821   17.8107 H   0  0  0  0  0  0
  -27.6011  -14.2539   19.4408 H   0  0  0  0  0  0
  -28.7401  -12.2739   21.4700 H   0  0  0  0  0  0
  -28.4061  -13.9709   21.7478 H   0  0  0  0  0  0
  -25.2760   -9.5558   22.4783 H   0  0  0  0  0  0
  -23.9967   -7.4526   22.7466 H   0  0  0  0  0  0
  -21.0828   -8.8716   19.8941 H   0  0  0  0  0  0
  -22.3725  -10.9601   19.6156 H   0  0  0  0  0  0
  -21.1958   -7.6121   23.9720 H   0  0  0  0  0  0
  -21.1491   -6.0496   25.9090 H   0  0  0  0  0  0
  -22.0612   -2.7594   23.2845 H   0  0  0  0  0  0
  -22.3957  -11.9774   22.4925 H   0  0  0  0  0  0
  -21.0984  -13.1140   22.2676 H   0  0  0  0  0  0
  -24.5889  -15.7842   20.5193 H   0  0  0  0  0  0
  -26.2242  -15.6017   20.1091 H   0  0  0  0  0  0
  -26.7253  -32.5397   23.1124 H   0  0  0  0  0  0
  -25.0163  -33.9729   25.0463 H   0  0  0  0  0  0
  -22.7331  -31.3126   21.4100 H   0  0  0  0  0  0
  -23.3769  -35.9603   23.3300 H   0  0  0  0  0  0
  -24.3585  -36.8898   22.2051 H   0  0  0  0  0  0
  -23.7227  -37.6476   23.6653 H   0  0  0  0  0  0
  -26.1456  -31.4950   20.6322 H   0  0  0  0  0  0
  -26.8650  -30.7914   22.0463 H   0  0  0  0  0  0
  -28.1032  -28.8208   21.2851 H   0  0  0  0  0  0
  -25.9301  -26.1255   18.7174 H   0  0  0  0  0  0
  -23.9988  -27.4301   18.8732 H   0  0  0  0  0  0
  -23.7948  -30.6200   19.4188 H   0  0  0  0  0  0
  -22.7720  -29.2806   19.8499 H   0  0  0  0  0  0
  -25.1287  -36.1936   25.0820 H   0  0  0  0  0  0
  -21.0009  -28.3295   24.1361 H   0  0  0  0  0  0
  -20.5697  -26.2333   23.3608 H   0  0  0  0  0  0
  -21.6656  -26.7441   22.1180 H   0  0  0  0  0  0
  -19.6926  -25.6288   21.1247 H   0  0  0  0  0  0
  -19.6687  -27.3185   20.6731 H   0  0  0  0  0  0
  -17.4207  -26.6681   21.4031 H   0  0  0  0  0  0
  -18.0344  -26.0067   22.9021 H   0  0  0  0  0  0
  -19.7950  -30.7280   24.2251 H   0  0  0  0  0  0
  -17.5026  -31.6261   24.5167 H   0  0  0  0  0  0
  -15.5366  -30.2982   23.7647 H   0  0  0  0  0  0
  -15.8693  -28.0807   22.7083 H   0  0  0  0  0  0
  -24.5918  -30.7090   25.7809 H   0  0  0  0  0  0
  -24.8888  -32.2951   26.4846 H   0  0  0  0  0  0
  -25.8011  -30.8993   27.0309 H   0  0  0  0  0  0
  -26.3002  -29.6738   24.1309 H   0  0  0  0  0  0
  -27.3972  -29.7262   25.4892 H   0  0  0  0  0  0
  -27.8919  -30.4249   23.9677 H   0  0  0  0  0  0
  -27.2699  -33.3659   26.2100 H   0  0  0  0  0  0
  -28.3902  -32.6860   25.0384 H   0  0  0  0  0  0
  -28.0738  -31.8488   26.5499 H   0  0  0  0  0  0
  -28.2586  -38.0099   24.7509 H   0  0  0  0  0  0
  -28.1075  -36.2626   24.6293 H   0  0  0  0  0  0
  -27.2299  -37.1444   25.8872 H   0  0  0  0  0  0
  -20.9435  -29.8820   21.6862 H   0  0  0  0  0  0
  -26.0174  -38.2851   24.1411 H   0  0  0  0  0  0
  -29.8414  -21.3359   20.6628 H   0  0  0  0  0  0
  -26.0428  -21.6917   18.6351 H   0  0  0  0  0  0
  -25.3594  -23.1897   19.6852 H   0  0  0  0  0  0
  -25.9357  -24.7250   20.3180 H   0  0  0  0  0  0
  -27.4424  -24.9499   18.0388 H   0  0  0  0  0  0
  -26.9102  -23.2836   17.5944 H   0  0  0  0  0  0
  -30.8723  -17.1083   22.1162 H   0  0  0  0  0  0
  -29.1097  -17.0632   22.2663 H   0  0  0  0  0  0
  -29.4164  -17.1176   18.6641 H   0  0  0  0  0  0
  -31.1375  -17.1674   19.0835 H   0  0  0  0  0  0
  -30.7945  -18.8463   20.6218 H   0  0  0  0  0  0
  -25.4045  -18.3580   18.1314 H   0  0  0  0  0  0
  -24.8844  -20.0043   17.8655 H   0  0  0  0  0  0
  -24.4893  -19.2084   19.3846 H   0  0  0  0  0  0
  -27.4785  -17.0586   20.9200 H   0  0  0  0  0  0
  -27.2164  -16.9427   19.1621 H   0  0  0  0  0  0
  -25.9790  -17.5468   20.2829 H   0  0  0  0  0  0
  -29.4334  -24.5270   20.4774 H   0  0  0  0  0  0
  -28.0802  -24.6960   21.5354 H   0  0  0  0  0  0
  1 25  1  0  0  0
  1 30  2  0  0  0
  1 86  1  0  0  0
  2  3  1  0  0  0
  2 25  1  0  0  0
  2 87  1  0  0  0
  2 88  1  0  0  0
  3  4  1  0  0  0
  3 89  1  0  0  0
  3 90  1  0  0  0
  4  5  1  0  0  0
  4 91  1  0  0  0
  4 92  1  0  0  0
  5  6  1  0  0  0
  5 26  1  0  0  0
  5 93  1  0  0  0
  6 25  1  0  0  0
  6 94  1  0  0  0
  6 95  1  0  0  0
  7  8  2  0  0  0
  7 26  1  0  0  0
  7 29  1  0  0  0
  8  9  1  0  0  0
  8 22  1  0  0  0
  9 10  1  0  0  0
  9 27  2  0  0  0
 10 11  2  0  0  0
 10 15  1  0  0  0
 11 12  1  0  0  0
 11 96  1  0  0  0
 12 13  2  0  0  0
 12 97  1  0  0  0
 13 14  1  0  0  0
 13 31  1  0  0  0
 14 15  2  0  0  0
 14 98  1  0  0  0
 15 99  1  0  0  0
 16 17  2  0  0  0
 16 21  1  0  0  0
 16 31  1  0  0  0
 17 18  1  0  0  0
 17100  1  0  0  0
 18 19  2  0  0  0
 18101  1  0  0  0
 19 20  1  0  0  0
 19 24  1  0  0  0
 20 21  2  0  0  0
 20102  1  0  0  0
 21 23  1  0  0  0
 22 28  1  0  0  0
 22 32  2  0  0  0
 26 27  1  0  0  0
 28103  1  0  0  0
 28104  1  0  0  0
 29105  1  0  0  0
 29106  1  0  0  0
 33 34  1  0  0  0
 33 66  1  0  0  0
 33 70  2  0  0  0
 34 36  1  0  0  0
 34 59  1  0  0  0
 34107  1  0  0  0
 35 44  2  0  0  0
 35 45  1  0  0  0
 35 68  1  0  0  0
 36 56  1  0  0  0
 36108  1  0  0  0
 37 39  1  0  0  0
 37 47  1  0  0  0
 37 66  1  0  0  0
 37109  1  0  0  0
 38 43  2  0  0  0
 38 46  1  0  0  0
 38 47  1  0  0  0
 39 64  1  0  0  0
 39 67  2  0  0  0
 40 52  1  0  0  0
 40 53  2  0  0  0
 40 58  1  0  0  0
 41110  1  0  0  0
 41111  1  0  0  0
 41112  1  0  0  0
 41 48  1  0  0  0
 42 43  1  0  0  0
 42 66  1  0  0  0
 42113  1  0  0  0
 42114  1  0  0  0
 43 44  1  0  0  0
 44115  1  0  0  0
 45 46  2  0  0  0
 45116  1  0  0  0
 46117  1  0  0  0
 47118  1  0  0  0
 47119  1  0  0  0
 48 56  1  0  0  0
 48 65  1  0  0  0
 48120  1  0  0  0
 49 50  1  0  0  0
 49 53  1  0  0  0
 49 64  1  0  0  0
 49121  1  0  0  0
 50 51  1  0  0  0
 50122  1  0  0  0
 50123  1  0  0  0
 51 52  1  0  0  0
 51124  1  0  0  0
 51125  1  0  0  0
 52126  1  0  0  0
 52127  1  0  0  0
 53 54  1  0  0  0
 54 55  2  0  0  0
 54128  1  0  0  0
 55 57  1  0  0  0
 55129  1  0  0  0
 56 69  2  0  0  0
 57 58  2  0  0  0
 57130  1  0  0  0
 58131  1  0  0  0
 59 60  1  0  0  0
 59 61  1  0  0  0
 59 62  1  0  0  0
 60132  1  0  0  0
 60133  1  0  0  0
 60134  1  0  0  0
 61135  1  0  0  0
 61136  1  0  0  0
 61137  1  0  0  0
 62138  1  0  0  0
 62139  1  0  0  0
 62140  1  0  0  0
 63 65  1  0  0  0
 63141  1  0  0  0
 63142  1  0  0  0
 63143  1  0  0  0
 64144  1  0  0  0
 65145  1  0  0  0
 68 85  1  0  0  0
 71 73  2  0  0  0
 71 74  1  0  0  0
 71146  1  0  0  0
 72 73  1  0  0  0
 72 75  2  0  0  0
 72147  1  0  0  0
 73 82  1  0  0  0
 74 76  2  0  0  0
 74 81  1  0  0  0
 75 76  1  0  0  0
 75 83  1  0  0  0
 76 84  1  0  0  0
 77 78  1  0  0  0
 77 82  1  0  0  0
 77148  1  0  0  0
 77149  1  0  0  0
 78 82  1  0  0  0
 78150  1  0  0  0
 78151  1  0  0  0
 79 81  1  0  0  0
 79 86  1  0  0  0
 79152  1  0  0  0
 79153  1  0  0  0
 80 81  1  0  0  0
 80 86  1  0  0  0
 80154  1  0  0  0
 80155  1  0  0  0
 81156  1  0  0  0
 82 85  1  0  0  0
 83157  1  0  0  0
 83158  1  0  0  0
 83159  1  0  0  0
 84160  1  0  0  0
 84161  1  0  0  0
 84162  1  0  0  0
 85163  1  0  0  0
 85164  1  0  0  0
M  ISO  4   1 100  68 101  85 101  86 100
M  END
> <chiral flag>
0

> <version>
0

> <s_m_source_file>
/data/baiqing/PycharmProjects/Reinvent-master-3.2/result/LINK_invent/BTK/process_docking_weight1_custom_sum_contain_oxygen_bond_distance_aromatic_linkinvent_7_9_3/rearranged_h_0170.sdf

> <i_m_source_file_index>
18

> <r_mmod_Potential_Energy-OPLS-2005>
722.740844726562

> <r_mmod_Stretch_Energy-OPLS-2005>
214.494232177734

> <r_mmod_Bend_Energy-OPLS-2005>
342.100067138672

> <r_mmod_Torsional_Energy-OPLS-2005>
364.689208984375

> <r_mmod_Improper_Torsional_Energy-OPLS-2005>
17.0393619537354

> <r_mmod_Van_der_Waal_Energy-OPLS-2005>
204.74235534668

> <r_mmod_Electrostatic_Energy-OPLS-2005>
-357.283142089844

> <r_mmod_Solvation_Energy-OPLS-2005>
-186.562103271484

> <b_mmod_Minimization_Converged-OPLS-2005>
0

> <r_mmod_RMS_Derivative-OPLS-2005>
1.47752952575684

$$$$
18
                    3D
 Structure written by MMmdl.
167176  0  0  1  0            999 V2000
  -30.6314  -14.6739   20.4491 C   0  0  0  0  0  0
  -30.4274  -12.4067   19.4525 C   0  0  0  0  0  0
  -29.4992  -12.4887   18.2205 C   0  0  0  0  0  0
  -28.0232  -12.3348   18.6375 C   0  0  0  0  0  0
  -27.6462  -13.2211   19.8537 C   0  0  2  0  0  0
  -28.6962  -13.1181   20.9834 C   0  0  0  0  0  0
  -25.2541  -13.8179   20.5694 C   0  0  0  0  0  0
  -24.1815  -13.0442   20.9193 C   0  0  0  0  0  0
  -24.6376  -11.6900   20.8749 C   0  0  0  0  0  0
  -23.9046  -10.4292   21.0412 C   0  0  0  0  0  0
  -24.3616   -9.4219   21.9185 C   0  0  0  0  0  0
  -23.6292   -8.2256   22.0757 C   0  0  0  0  0  0
  -22.4275   -8.0280   21.3549 C   0  0  0  0  0  0
  -21.9914   -9.0250   20.4653 C   0  0  0  0  0  0
  -22.7229  -10.2125   20.3059 C   0  0  0  0  0  0
  -21.6846   -6.0731   22.5273 C   0  0  0  0  0  0
  -21.4021   -6.5641   23.8202 C   0  0  0  0  0  0
  -21.3659   -5.6803   24.9164 C   0  0  0  0  0  0
  -21.6037   -4.3064   24.7230 C   0  0  0  0  0  0
  -21.8818   -3.8141   23.4355 C   0  0  0  0  0  0
  -21.9199   -4.6959   22.3398 C   0  0  0  0  0  0
  -22.7841  -13.5240   21.1845 C   0  0  0  0  0  0
  -22.1660   -4.2149   21.0977 F   0  0  0  0  0  0
  -21.5628   -3.4538   25.7738 F   0  0  0  0  0  0
  -30.0033  -13.4553   20.4036 N   0  0  0  0  0  0
  -26.2962  -12.9360   20.3311 N   0  0  0  0  0  0
  -25.9308  -11.6513   20.5783 N   0  0  0  0  0  0
  -22.0484  -12.8235   22.0398 N   0  0  0  0  0  0
  -25.4257  -15.1896   20.4060 N   0  0  0  0  0  0
  -31.7961  -14.8062   20.0611 O   0  0  0  0  0  0
  -21.6639   -6.8872   21.4233 O   0  0  0  0  0  0
  -22.3540  -14.5556   20.6690 O   0  0  0  0  0  0
  -24.6251  -31.8593   23.1966 C   0  0  0  0  0  0
  -25.9102  -32.4783   23.8287 C   0  0  1  0  0  0
  -27.2289  -27.3090   20.1506 C   0  0  0  0  0  0
  -25.5937  -33.8568   24.2230 N   0  0  0  0  0  0
  -23.4219  -30.4752   21.5413 C   0  0  2  0  0  0
  -24.8747  -28.9239   20.1122 C   0  0  0  0  0  0
  -22.7490  -29.4601   22.4944 C   0  0  0  0  0  0
  -18.0278  -28.1389   22.8463 C   0  0  0  0  0  0
  -24.1496  -36.7280   23.2642 C   0  0  0  0  0  0
  -25.9592  -30.7905   21.3662 C   0  0  0  0  0  0
  -26.0400  -29.4119   20.7207 C   0  0  0  0  0  0
  -27.2242  -28.6154   20.7303 C   0  0  0  0  0  0
  -26.0511  -26.8724   19.5128 C   0  0  0  0  0  0
  -24.8836  -27.6612   19.4935 C   0  0  0  0  0  0
  -23.6380  -29.7996   20.1580 C   0  0  0  0  0  0
  -25.4122  -36.3064   24.0315 C   0  0  1  0  0  0
  -20.5889  -28.3681   23.1288 C   0  0  2  0  0  0
  -20.6769  -26.9396   22.5419 C   0  0  0  0  0  0
  -19.5745  -26.6349   21.5232 C   0  0  0  0  0  0
  -18.1913  -26.7926   22.1619 C   0  0  0  0  0  0
  -19.1536  -28.8853   23.2850 C   0  0  0  0  0  0
  -18.9462  -30.1463   23.8848 C   0  0  0  0  0  0
  -17.6466  -30.6578   24.0564 C   0  0  0  0  0  0
  -25.9062  -34.9452   23.5071 C   0  0  0  0  0  0
  -16.5344  -29.9077   23.6363 C   0  0  0  0  0  0
  -16.7273  -28.6516   23.0346 C   0  0  0  0  0  0
  -26.4494  -31.6619   25.0671 C   0  0  0  0  0  0
  -25.3734  -31.3790   26.1413 C   0  0  0  0  0  0
  -27.0381  -30.3052   24.6131 C   0  0  0  0  0  0
  -27.6002  -32.4410   25.7493 C   0  0  0  0  0  0
  -27.5585  -37.1761   24.8453 C   0  0  0  0  0  0
  -21.4200  -29.3038   22.3698 N   0  0  0  0  0  0
  -26.4291  -37.3772   23.9423 N   0  0  0  0  0  0
  -24.6879  -31.0577   22.0949 N   0  0  0  0  0  0
  -23.4206  -28.8116   23.2997 O   0  0  0  0  0  0
  -28.3272  -26.4424   20.1546 O   0  0  0  0  0  0
  -26.5624  -34.8934   22.4633 O   0  0  0  0  0  0
  -23.5415  -32.1397   23.7303 O   0  0  0  0  0  0
  -27.7924  -21.4186   20.5441 C   0  0  0  0  0  0
  -27.4666  -22.8183   20.7021 C   0  0  0  0  0  0
  -29.1476  -20.9884   20.3633 C   0  0  0  0  0  0
  -28.4984  -23.8090   20.7035 C   0  0  0  0  0  0
  -30.0911  -22.0682   20.3738 C   0  0  0  0  0  0
  -29.2598  -18.3822   20.9375 C   0  0  0  0  0  0
  -30.2007  -19.1866   18.8914 C   0  0  0  0  0  0
  -30.2568  -17.2490   20.4568 C   0  0  2  0  0  0
  -30.4013  -17.6415   18.9668 C   0  0  2  0  0  0
  -26.6868  -20.3636   20.5530 C   0  0  0  0  0  0
  -26.0070  -23.2348   20.8781 C   0  0  0  0  0  0
  -31.5880  -21.8337   20.2549 C   0  0  0  0  0  0
  -28.2948  -25.3306   21.1325 C   0  0  0  0  0  0
  -29.7774  -23.3901   20.5370 N   0  0  0  0  0  0
  -29.5399  -19.6056   20.1328 N   0  0  0  0  0  0
  -29.8655  -15.7945   20.6657 N   0  0  0  0  0  0
  -31.6683  -17.1807   18.3664 N   0  3  0  0  0  0
  -31.4709  -12.5134   19.1518 H   0  0  0  0  0  0
  -30.3521  -11.4244   19.9229 H   0  0  0  0  0  0
  -29.7616  -11.7121   17.5002 H   0  0  0  0  0  0
  -29.6381  -13.4421   17.7078 H   0  0  0  0  0  0
  -27.8603  -11.2836   18.8808 H   0  0  0  0  0  0
  -27.3672  -12.5530   17.7942 H   0  0  0  0  0  0
  -27.6514  -14.2495   19.4897 H   0  0  0  0  0  0
  -28.7191  -12.1085   21.3960 H   0  0  0  0  0  0
  -28.4492  -13.7815   21.8133 H   0  0  0  0  0  0
  -25.2752   -9.5689   22.4762 H   0  0  0  0  0  0
  -23.9989   -7.4652   22.7480 H   0  0  0  0  0  0
  -21.0845   -8.8763   19.8958 H   0  0  0  0  0  0
  -22.3686  -10.9667   19.6173 H   0  0  0  0  0  0
  -21.2013   -7.6146   23.9705 H   0  0  0  0  0  0
  -21.1478   -6.0529   25.9069 H   0  0  0  0  0  0
  -22.0599   -2.7607   23.2847 H   0  0  0  0  0  0
  -22.4095  -11.9901   22.4790 H   0  0  0  0  0  0
  -21.1098  -13.1262   22.2596 H   0  0  0  0  0  0
  -24.6570  -15.8437   20.5066 H   0  0  0  0  0  0
  -26.2592  -15.6166   20.0225 H   0  0  0  0  0  0
  -26.7169  -32.5486   23.1046 H   0  0  0  0  0  0
  -25.0168  -33.9701   25.0427 H   0  0  0  0  0  0
  -22.7162  -31.2953   21.3912 H   0  0  0  0  0  0
  -23.3767  -35.9612   23.3309 H   0  0  0  0  0  0
  -24.3587  -36.8926   22.2056 H   0  0  0  0  0  0
  -23.7231  -37.6456   23.6705 H   0  0  0  0  0  0
  -26.0764  -31.5478   20.5901 H   0  0  0  0  0  0
  -26.8420  -30.8554   21.9906 H   0  0  0  0  0  0
  -28.1219  -28.9837   21.2093 H   0  0  0  0  0  0
  -26.0327  -25.9004   19.0386 H   0  0  0  0  0  0
  -23.9957  -27.2846   19.0023 H   0  0  0  0  0  0
  -23.7430  -30.5710   19.3923 H   0  0  0  0  0  0
  -22.7611  -29.2169   19.8694 H   0  0  0  0  0  0
  -25.1294  -36.1911   25.0801 H   0  0  0  0  0  0
  -20.9951  -28.3265   24.1426 H   0  0  0  0  0  0
  -20.5759  -26.2274   23.3612 H   0  0  0  0  0  0
  -21.6627  -26.7487   22.1156 H   0  0  0  0  0  0
  -19.6938  -25.6264   21.1274 H   0  0  0  0  0  0
  -19.6703  -27.3167   20.6762 H   0  0  0  0  0  0
  -17.4193  -26.6707   21.3993 H   0  0  0  0  0  0
  -18.0267  -26.0090   22.9030 H   0  0  0  0  0  0
  -19.7970  -30.7278   24.2187 H   0  0  0  0  0  0
  -17.5048  -31.6283   24.5144 H   0  0  0  0  0  0
  -15.5363  -30.2955   23.7732 H   0  0  0  0  0  0
  -15.8681  -28.0833   22.7056 H   0  0  0  0  0  0
  -24.5898  -30.7160   25.7758 H   0  0  0  0  0  0
  -24.8940  -32.2974   26.4804 H   0  0  0  0  0  0
  -25.8026  -30.8997   27.0220 H   0  0  0  0  0  0
  -26.2962  -29.6759   24.1206 H   0  0  0  0  0  0
  -27.4171  -29.7345   25.4620 H   0  0  0  0  0  0
  -27.8784  -30.4371   23.9317 H   0  0  0  0  0  0
  -27.2552  -33.3744   26.1975 H   0  0  0  0  0  0
  -28.3861  -32.6939   25.0366 H   0  0  0  0  0  0
  -28.0625  -31.8621   26.5506 H   0  0  0  0  0  0
  -28.2511  -38.0131   24.7566 H   0  0  0  0  0  0
  -28.1145  -36.2643   24.6202 H   0  0  0  0  0  0
  -27.2298  -37.1311   25.8847 H   0  0  0  0  0  0
  -20.9400  -29.8809   21.6929 H   0  0  0  0  0  0
  -26.0166  -38.2841   24.1480 H   0  0  0  0  0  0
  -29.3667  -18.5746   22.0061 H   0  0  0  0  0  0
  -28.2349  -18.0552   20.7613 H   0  0  0  0  0  0
  -29.5914  -19.4562   18.0259 H   0  0  0  0  0  0
  -31.1542  -19.6942   18.7556 H   0  0  0  0  0  0
  -31.2104  -17.4223   20.9611 H   0  0  0  0  0  0
  -29.5822  -17.1782   18.4129 H   0  0  0  0  0  0
  -25.6839  -20.7602   20.4123 H   0  0  0  0  0  0
  -26.6899  -19.8172   21.4970 H   0  0  0  0  0  0
  -26.8389  -19.6492   19.7457 H   0  0  0  0  0  0
  -25.4419  -22.9927   19.9773 H   0  0  0  0  0  0
  -25.8483  -24.2973   21.0443 H   0  0  0  0  0  0
  -25.5518  -22.7008   21.7132 H   0  0  0  0  0  0
  -31.9311  -22.1242   19.2621 H   0  0  0  0  0  0
  -31.8742  -20.7998   20.4336 H   0  0  0  0  0  0
  -32.1329  -22.4265   20.9900 H   0  0  0  0  0  0
  -29.1348  -25.5382   21.7990 H   0  0  0  0  0  0
  -27.4381  -25.4333   21.7994 H   0  0  0  0  0  0
  -28.9063  -15.6270   20.9337 H   0  0  0  0  0  0
  -32.4510  -17.6959   18.7256 H   0  0  0  0  0  0
  -31.6533  -17.2865   17.3668 H   0  0  0  0  0  0
  -31.8127  -16.2089   18.5977 H   0  0  0  0  0  0
  1 25  1  0  0  0
  1 30  2  0  0  0
  1 86  1  0  0  0
  2  3  1  0  0  0
  2 25  1  0  0  0
  2 88  1  0  0  0
  2 89  1  0  0  0
  3  4  1  0  0  0
  3 90  1  0  0  0
  3 91  1  0  0  0
  4  5  1  0  0  0
  4 92  1  0  0  0
  4 93  1  0  0  0
  5  6  1  0  0  0
  5 26  1  0  0  0
  5 94  1  0  0  0
  6 25  1  0  0  0
  6 95  1  0  0  0
  6 96  1  0  0  0
  7  8  2  0  0  0
  7 26  1  0  0  0
  7 29  1  0  0  0
  8  9  1  0  0  0
  8 22  1  0  0  0
  9 10  1  0  0  0
  9 27  2  0  0  0
 10 11  2  0  0  0
 10 15  1  0  0  0
 11 12  1  0  0  0
 11 97  1  0  0  0
 12 13  2  0  0  0
 12 98  1  0  0  0
 13 14  1  0  0  0
 13 31  1  0  0  0
 14 15  2  0  0  0
 14 99  1  0  0  0
 15100  1  0  0  0
 16 17  2  0  0  0
 16 21  1  0  0  0
 16 31  1  0  0  0
 17 18  1  0  0  0
 17101  1  0  0  0
 18 19  2  0  0  0
 18102  1  0  0  0
 19 20  1  0  0  0
 19 24  1  0  0  0
 20 21  2  0  0  0
 20103  1  0  0  0
 21 23  1  0  0  0
 22 28  1  0  0  0
 22 32  2  0  0  0
 26 27  1  0  0  0
 28104  1  0  0  0
 28105  1  0  0  0
 29106  1  0  0  0
 29107  1  0  0  0
 33 34  1  0  0  0
 33 66  1  0  0  0
 33 70  2  0  0  0
 34 36  1  0  0  0
 34 59  1  0  0  0
 34108  1  0  0  0
 35 44  2  0  0  0
 35 45  1  0  0  0
 35 68  1  0  0  0
 36 56  1  0  0  0
 36109  1  0  0  0
 37 39  1  0  0  0
 37 47  1  0  0  0
 37 66  1  0  0  0
 37110  1  0  0  0
 38 43  2  0  0  0
 38 46  1  0  0  0
 38 47  1  0  0  0
 39 64  1  0  0  0
 39 67  2  0  0  0
 40 52  1  0  0  0
 40 53  2  0  0  0
 40 58  1  0  0  0
 41111  1  0  0  0
 41112  1  0  0  0
 41113  1  0  0  0
 41 48  1  0  0  0
 42 43  1  0  0  0
 42 66  1  0  0  0
 42114  1  0  0  0
 42115  1  0  0  0
 43 44  1  0  0  0
 44116  1  0  0  0
 45 46  2  0  0  0
 45117  1  0  0  0
 46118  1  0  0  0
 47119  1  0  0  0
 47120  1  0  0  0
 48 56  1  0  0  0
 48 65  1  0  0  0
 48121  1  0  0  0
 49 50  1  0  0  0
 49 53  1  0  0  0
 49 64  1  0  0  0
 49122  1  0  0  0
 50 51  1  0  0  0
 50123  1  0  0  0
 50124  1  0  0  0
 51 52  1  0  0  0
 51125  1  0  0  0
 51126  1  0  0  0
 52127  1  0  0  0
 52128  1  0  0  0
 53 54  1  0  0  0
 54 55  2  0  0  0
 54129  1  0  0  0
 55 57  1  0  0  0
 55130  1  0  0  0
 56 69  2  0  0  0
 57 58  2  0  0  0
 57131  1  0  0  0
 58132  1  0  0  0
 59 60  1  0  0  0
 59 61  1  0  0  0
 59 62  1  0  0  0
 60133  1  0  0  0
 60134  1  0  0  0
 60135  1  0  0  0
 61136  1  0  0  0
 61137  1  0  0  0
 61138  1  0  0  0
 62139  1  0  0  0
 62140  1  0  0  0
 62141  1  0  0  0
 63 65  1  0  0  0
 63142  1  0  0  0
 63143  1  0  0  0
 63144  1  0  0  0
 64145  1  0  0  0
 65146  1  0  0  0
 68 83  1  0  0  0
 71 72  2  0  0  0
 71 73  1  0  0  0
 71 80  1  0  0  0
 72 74  1  0  0  0
 72 81  1  0  0  0
 73 75  2  0  0  0
 73 85  1  0  0  0
 74 83  1  0  0  0
 74 84  2  0  0  0
 75 82  1  0  0  0
 75 84  1  0  0  0
 76 78  1  0  0  0
 76 85  1  0  0  0
 76147  1  0  0  0
 76148  1  0  0  0
 77 79  1  0  0  0
 77 85  1  0  0  0
 77149  1  0  0  0
 77150  1  0  0  0
 78 79  1  0  0  0
 78 86  1  0  0  0
 78151  1  0  0  0
 79 87  1  0  0  0
 79152  1  0  0  0
 80153  1  0  0  0
 80154  1  0  0  0
 80155  1  0  0  0
 81156  1  0  0  0
 81157  1  0  0  0
 81158  1  0  0  0
 82159  1  0  0  0
 82160  1  0  0  0
 82161  1  0  0  0
 83162  1  0  0  0
 83163  1  0  0  0
 86164  1  0  0  0
 87165  1  0  0  0
 87166  1  0  0  0
 87167  1  0  0  0
M  CHG  1  87   1
M  ISO  4   1 100  68 101  83 101  86 100
M  END
> <chiral flag>
0

> <version>
0

> <s_m_source_file>
/data/baiqing/PycharmProjects/Reinvent-master-3.2/result/LINK_invent/BTK/process_docking_weight1_custom_sum_contain_oxygen_bond_distance_aromatic_linkinvent_7_9_3/rearranged_h_0170.sdf

> <i_m_source_file_index>
19

> <r_mmod_Potential_Energy-OPLS-2005>
-186.719909667969

> <r_mmod_Stretch_Energy-OPLS-2005>
93.576042175293

> <r_mmod_Bend_Energy-OPLS-2005>
192.360565185547

> <r_mmod_Torsional_Energy-OPLS-2005>
350.011413574219

> <r_mmod_Improper_Torsional_Energy-OPLS-2005>
8.0540018081665

> <r_mmod_Van_der_Waal_Energy-OPLS-2005>
143.227401733398

> <r_mmod_Electrostatic_Energy-OPLS-2005>
-554.860656738281

> <r_mmod_Solvation_Energy-OPLS-2005>
-477.850250244141

> <b_mmod_Minimization_Converged-OPLS-2005>
0

> <r_mmod_RMS_Derivative-OPLS-2005>
4.61689376831055

$$$$
19
                    3D
 Structure written by MMmdl.
173184  0  0  1  0            999 V2000
  -30.7075  -14.6974   20.4992 C   0  0  0  0  0  0
  -30.4060  -12.4409   19.4729 C   0  0  0  0  0  0
  -29.4934  -12.4924   18.2321 C   0  0  0  0  0  0
  -28.0273  -12.2935   18.6528 C   0  0  0  0  0  0
  -27.6312  -13.2090   19.8369 C   0  0  2  0  0  0
  -28.6788  -13.1809   20.9793 C   0  0  0  0  0  0
  -25.2478  -13.8135   20.5667 C   0  0  0  0  0  0
  -24.1770  -13.0411   20.9233 C   0  0  0  0  0  0
  -24.6350  -11.6886   20.8793 C   0  0  0  0  0  0
  -23.9037  -10.4271   21.0446 C   0  0  0  0  0  0
  -24.3598   -9.4182   21.9215 C   0  0  0  0  0  0
  -23.6280   -8.2214   22.0766 C   0  0  0  0  0  0
  -22.4266   -8.0262   21.3547 C   0  0  0  0  0  0
  -21.9900   -9.0236   20.4653 C   0  0  0  0  0  0
  -22.7223  -10.2117   20.3077 C   0  0  0  0  0  0
  -21.6841   -6.0731   22.5285 C   0  0  0  0  0  0
  -21.4000   -6.5638   23.8215 C   0  0  0  0  0  0
  -21.3654   -5.6793   24.9179 C   0  0  0  0  0  0
  -21.6043   -4.3056   24.7230 C   0  0  0  0  0  0
  -21.8818   -3.8147   23.4350 C   0  0  0  0  0  0
  -21.9188   -4.6962   22.3406 C   0  0  0  0  0  0
  -22.7794  -13.5215   21.1884 C   0  0  0  0  0  0
  -22.1654   -4.2149   21.0984 F   0  0  0  0  0  0
  -21.5639   -3.4540   25.7745 F   0  0  0  0  0  0
  -29.9788  -13.5274   20.3933 N   0  0  0  0  0  0
  -26.2871  -12.9299   20.3241 N   0  0  0  0  0  0
  -25.9267  -11.6475   20.5790 N   0  0  0  0  0  0
  -22.0428  -12.8216   22.0440 N   0  0  0  0  0  0
  -25.4141  -15.1852   20.4016 N   0  0  0  0  0  0
  -31.8845  -14.6722   20.1279 O   0  0  0  0  0  0
  -21.6625   -6.8865   21.4244 O   0  0  0  0  0  0
  -22.3495  -14.5524   20.6731 O   0  0  0  0  0  0
  -24.6255  -31.8590   23.2017 C   0  0  0  0  0  0
  -25.9104  -32.4775   23.8353 C   0  0  1  0  0  0
  -27.2246  -27.3174   20.1277 C   0  0  0  0  0  0
  -25.5931  -33.8576   24.2284 N   0  0  0  0  0  0
  -23.4216  -30.4792   21.5433 C   0  0  2  0  0  0
  -24.8724  -28.9304   20.1135 C   0  0  0  0  0  0
  -22.7482  -29.4608   22.4939 C   0  0  0  0  0  0
  -18.0287  -28.1380   22.8483 C   0  0  0  0  0  0
  -24.1481  -36.7274   23.2637 C   0  0  0  0  0  0
  -25.9619  -30.7866   21.3755 C   0  0  0  0  0  0
  -26.0390  -29.4108   20.7249 C   0  0  0  0  0  0
  -27.2217  -28.6121   20.7309 C   0  0  0  0  0  0
  -26.0447  -26.8856   19.4936 C   0  0  0  0  0  0
  -24.8757  -27.6713   19.4903 C   0  0  0  0  0  0
  -23.6392  -29.8104   20.1600 C   0  0  0  0  0  0
  -25.4106  -36.3076   24.0333 C   0  0  1  0  0  0
  -20.5888  -28.3679   23.1279 C   0  0  2  0  0  0
  -20.6775  -26.9399   22.5413 C   0  0  0  0  0  0
  -19.5756  -26.6374   21.5213 C   0  0  0  0  0  0
  -18.1929  -26.7931   22.1604 C   0  0  0  0  0  0
  -19.1541  -28.8845   23.2876 C   0  0  0  0  0  0
  -18.9463  -30.1454   23.8891 C   0  0  0  0  0  0
  -17.6468  -30.6583   24.0561 C   0  0  0  0  0  0
  -25.9048  -34.9449   23.5106 C   0  0  0  0  0  0
  -16.5353  -29.9078   23.6340 C   0  0  0  0  0  0
  -16.7273  -28.6500   23.0355 C   0  0  0  0  0  0
  -26.4496  -31.6576   25.0721 C   0  0  0  0  0  0
  -25.3740  -31.3733   26.1462 C   0  0  0  0  0  0
  -27.0313  -30.2988   24.6165 C   0  0  0  0  0  0
  -27.6074  -32.4296   25.7480 C   0  0  0  0  0  0
  -27.5581  -37.1778   24.8457 C   0  0  0  0  0  0
  -21.4193  -29.3029   22.3675 N   0  0  0  0  0  0
  -26.4276  -37.3783   23.9429 N   0  0  0  0  0  0
  -24.6881  -31.0591   22.0969 N   0  0  0  0  0  0
  -23.4200  -28.8159   23.3030 O   0  0  0  0  0  0
  -28.2994  -26.4214   20.1313 O   0  0  0  0  0  0
  -26.5612  -34.8919   22.4669 O   0  0  0  0  0  0
  -23.5414  -32.1395   23.7330 O   0  0  0  0  0  0
  -29.2699  -23.0669   18.9100 C   0  0  0  0  0  0
  -28.9020  -22.9812   20.2652 C   0  0  0  0  0  0
  -29.3535  -20.4713   20.1034 C   0  0  0  0  0  0
  -28.5210  -23.9913   21.2578 C   0  0  0  0  0  0
  -28.9157  -21.6457   20.8447 C   0  0  0  0  0  0
  -29.6734  -20.7386   18.7451 C   0  0  0  0  0  0
  -28.3187  -23.2382   22.3943 C   0  0  0  0  0  0
  -27.0488  -19.8513   22.7385 C   0  0  0  0  0  0
  -26.7660  -20.9013   23.7775 C   0  0  0  0  0  0
  -28.5605  -17.8622   20.3183 C   0  0  0  0  0  0
  -30.9580  -18.3728   20.6213 C   0  0  0  0  0  0
  -28.8030  -16.4619   21.0167 C   0  0  0  0  0  0
  -31.0962  -17.0181   21.3967 C   0  0  0  0  0  0
  -29.5443  -19.0096   20.7352 C   0  0  0  0  0  0
  -28.1411  -20.8262   23.1346 C   0  0  0  0  0  0
  -30.1392  -19.6977   17.7392 C   0  0  0  0  0  0
  -28.0003  -23.7669   23.7654 C   0  0  0  0  0  0
  -28.3993  -25.5609   21.3137 C   0  0  0  0  0  0
  -29.6195  -21.9723   18.2005 N   0  0  0  0  0  0
  -28.4252  -21.8580   22.1403 N   0  0  0  0  0  0
  -30.1899  -15.9242   20.9342 N   0  0  0  0  0  0
  -31.4493  -12.5188   19.1640 H   0  0  0  0  0  0
  -30.3269  -11.4706   19.9668 H   0  0  0  0  0  0
  -29.7843  -11.7228   17.5162 H   0  0  0  0  0  0
  -29.6095  -13.4500   17.7221 H   0  0  0  0  0  0
  -27.9037  -11.2473   18.9355 H   0  0  0  0  0  0
  -27.3616  -12.4607   17.8046 H   0  0  0  0  0  0
  -27.6053  -14.1975   19.3886 H   0  0  0  0  0  0
  -28.7217  -12.1914   21.4376 H   0  0  0  0  0  0
  -28.4104  -13.8642   21.7852 H   0  0  0  0  0  0
  -25.2737   -9.5657   22.4804 H   0  0  0  0  0  0
  -23.9988   -7.4600   22.7478 H   0  0  0  0  0  0
  -21.0836   -8.8752   19.8952 H   0  0  0  0  0  0
  -22.3689  -10.9664   19.6190 H   0  0  0  0  0  0
  -21.1977   -7.6141   23.9719 H   0  0  0  0  0  0
  -21.1482   -6.0525   25.9087 H   0  0  0  0  0  0
  -22.0605   -2.7613   23.2853 H   0  0  0  0  0  0
  -22.4016  -11.9864   22.4827 H   0  0  0  0  0  0
  -21.1047  -13.1253   22.2641 H   0  0  0  0  0  0
  -24.6466  -15.8367   20.5210 H   0  0  0  0  0  0
  -26.2575  -15.6255   20.0594 H   0  0  0  0  0  0
  -26.7176  -32.5453   23.1105 H   0  0  0  0  0  0
  -25.0121  -33.9735   25.0461 H   0  0  0  0  0  0
  -22.7152  -31.2989   21.3967 H   0  0  0  0  0  0
  -23.3778  -35.9567   23.3246 H   0  0  0  0  0  0
  -24.3590  -36.8947   22.2064 H   0  0  0  0  0  0
  -23.7181  -37.6435   23.6693 H   0  0  0  0  0  0
  -26.0911  -31.5456   20.6030 H   0  0  0  0  0  0
  -26.8426  -30.8409   22.0033 H   0  0  0  0  0  0
  -28.1165  -28.9715   21.2197 H   0  0  0  0  0  0
  -26.0230  -25.9132   19.0220 H   0  0  0  0  0  0
  -23.9819  -27.2958   19.0113 H   0  0  0  0  0  0
  -23.7574  -30.5849   19.4014 H   0  0  0  0  0  0
  -22.7610  -29.2361   19.8599 H   0  0  0  0  0  0
  -25.1283  -36.1917   25.0825 H   0  0  0  0  0  0
  -20.9971  -28.3248   24.1402 H   0  0  0  0  0  0
  -20.5658  -26.2294   23.3615 H   0  0  0  0  0  0
  -21.6644  -26.7423   22.1206 H   0  0  0  0  0  0
  -19.6914  -25.6285   21.1242 H   0  0  0  0  0  0
  -19.6702  -27.3189   20.6750 H   0  0  0  0  0  0
  -17.4206  -26.6701   21.3993 H   0  0  0  0  0  0
  -18.0299  -26.0067   22.8985 H   0  0  0  0  0  0
  -19.7942  -30.7276   24.2245 H   0  0  0  0  0  0
  -17.5021  -31.6268   24.5148 H   0  0  0  0  0  0
  -15.5357  -30.2976   23.7681 H   0  0  0  0  0  0
  -15.8669  -28.0821   22.7070 H   0  0  0  0  0  0
  -24.5898  -30.7097   25.7802 H   0  0  0  0  0  0
  -24.8962  -32.2910   26.4902 H   0  0  0  0  0  0
  -25.8071  -30.8898   27.0229 H   0  0  0  0  0  0
  -26.2863  -29.6745   24.1215 H   0  0  0  0  0  0
  -27.4030  -29.7240   25.4659 H   0  0  0  0  0  0
  -27.8738  -30.4257   23.9365 H   0  0  0  0  0  0
  -27.2721  -33.3633   26.2009 H   0  0  0  0  0  0
  -28.3919  -32.6778   25.0319 H   0  0  0  0  0  0
  -28.0697  -31.8436   26.5436 H   0  0  0  0  0  0
  -28.2562  -38.0112   24.7560 H   0  0  0  0  0  0
  -28.1113  -36.2649   24.6199 H   0  0  0  0  0  0
  -27.2321  -37.1321   25.8863 H   0  0  0  0  0  0
  -20.9369  -29.8758   21.6891 H   0  0  0  0  0  0
  -26.0150  -38.2841   24.1486 H   0  0  0  0  0  0
  -29.2835  -24.0187   18.3981 H   0  0  0  0  0  0
  -26.5725  -19.9751   21.7674 H   0  0  0  0  0  0
  -27.1495  -18.8225   23.0779 H   0  0  0  0  0  0
  -26.6738  -20.5688   24.8091 H   0  0  0  0  0  0
  -26.0836  -21.6978   23.4859 H   0  0  0  0  0  0
  -27.5365  -18.1758   20.5192 H   0  0  0  0  0  0
  -28.5893  -17.6874   19.2481 H   0  0  0  0  0  0
  -31.2304  -18.1830   19.5866 H   0  0  0  0  0  0
  -31.6980  -19.0764   21.0066 H   0  0  0  0  0  0
  -28.0902  -15.7710   20.6000 H   0  0  0  0  0  0
  -28.5406  -16.5414   22.0728 H   0  0  0  0  0  0
  -30.8936  -17.1941   22.4543 H   0  0  0  0  0  0
  -32.1446  -16.7187   21.3720 H   0  0  0  0  0  0
  -29.4211  -19.1333   21.8046 H   0  0  0  0  0  0
  -29.0118  -20.5063   23.7057 H   0  0  0  0  0  0
  -29.6110  -18.7554   17.8189 H   0  0  0  0  0  0
  -31.2086  -19.5161   17.8374 H   0  0  0  0  0  0
  -29.9717  -20.0423   16.7174 H   0  0  0  0  0  0
  -28.4995  -24.7179   23.9500 H   0  0  0  0  0  0
  -28.3338  -23.0926   24.5544 H   0  0  0  0  0  0
  -26.9288  -23.9269   23.8846 H   0  0  0  0  0  0
  -29.2609  -25.9417   21.8630 H   0  0  0  0  0  0
  -27.5529  -25.7987   21.9618 H   0  0  0  0  0  0
  1 25  1  0  0  0
  1 30  2  0  0  0
  1 91  1  0  0  0
  2  3  1  0  0  0
  2 25  1  0  0  0
  2 92  1  0  0  0
  2 93  1  0  0  0
  3  4  1  0  0  0
  3 94  1  0  0  0
  3 95  1  0  0  0
  4  5  1  0  0  0
  4 96  1  0  0  0
  4 97  1  0  0  0
  5  6  1  0  0  0
  5 26  1  0  0  0
  5 98  1  0  0  0
  6 25  1  0  0  0
  6 99  1  0  0  0
  6100  1  0  0  0
  7  8  2  0  0  0
  7 26  1  0  0  0
  7 29  1  0  0  0
  8  9  1  0  0  0
  8 22  1  0  0  0
  9 10  1  0  0  0
  9 27  2  0  0  0
 10 11  2  0  0  0
 10 15  1  0  0  0
 11 12  1  0  0  0
 11101  1  0  0  0
 12 13  2  0  0  0
 12102  1  0  0  0
 13 14  1  0  0  0
 13 31  1  0  0  0
 14 15  2  0  0  0
 14103  1  0  0  0
 15104  1  0  0  0
 16 17  2  0  0  0
 16 21  1  0  0  0
 16 31  1  0  0  0
 17 18  1  0  0  0
 17105  1  0  0  0
 18 19  2  0  0  0
 18106  1  0  0  0
 19 20  1  0  0  0
 19 24  1  0  0  0
 20 21  2  0  0  0
 20107  1  0  0  0
 21 23  1  0  0  0
 22 28  1  0  0  0
 22 32  2  0  0  0
 26 27  1  0  0  0
 28108  1  0  0  0
 28109  1  0  0  0
 29110  1  0  0  0
 29111  1  0  0  0
 33 34  1  0  0  0
 33 66  1  0  0  0
 33 70  2  0  0  0
 34 36  1  0  0  0
 34 59  1  0  0  0
 34112  1  0  0  0
 35 44  2  0  0  0
 35 45  1  0  0  0
 35 68  1  0  0  0
 36 56  1  0  0  0
 36113  1  0  0  0
 37 39  1  0  0  0
 37 47  1  0  0  0
 37 66  1  0  0  0
 37114  1  0  0  0
 38 43  2  0  0  0
 38 46  1  0  0  0
 38 47  1  0  0  0
 39 64  1  0  0  0
 39 67  2  0  0  0
 40 52  1  0  0  0
 40 53  2  0  0  0
 40 58  1  0  0  0
 41115  1  0  0  0
 41116  1  0  0  0
 41117  1  0  0  0
 41 48  1  0  0  0
 42 43  1  0  0  0
 42 66  1  0  0  0
 42118  1  0  0  0
 42119  1  0  0  0
 43 44  1  0  0  0
 44120  1  0  0  0
 45 46  2  0  0  0
 45121  1  0  0  0
 46122  1  0  0  0
 47123  1  0  0  0
 47124  1  0  0  0
 48 56  1  0  0  0
 48 65  1  0  0  0
 48125  1  0  0  0
 49 50  1  0  0  0
 49 53  1  0  0  0
 49 64  1  0  0  0
 49126  1  0  0  0
 50 51  1  0  0  0
 50127  1  0  0  0
 50128  1  0  0  0
 51 52  1  0  0  0
 51129  1  0  0  0
 51130  1  0  0  0
 52131  1  0  0  0
 52132  1  0  0  0
 53 54  1  0  0  0
 54 55  2  0  0  0
 54133  1  0  0  0
 55 57  1  0  0  0
 55134  1  0  0  0
 56 69  2  0  0  0
 57 58  2  0  0  0
 57135  1  0  0  0
 58136  1  0  0  0
 59 60  1  0  0  0
 59 61  1  0  0  0
 59 62  1  0  0  0
 60137  1  0  0  0
 60138  1  0  0  0
 60139  1  0  0  0
 61140  1  0  0  0
 61141  1  0  0  0
 61142  1  0  0  0
 62143  1  0  0  0
 62144  1  0  0  0
 62145  1  0  0  0
 63 65  1  0  0  0
 63146  1  0  0  0
 63147  1  0  0  0
 63148  1  0  0  0
 64149  1  0  0  0
 65150  1  0  0  0
 68 88  1  0  0  0
 71 72  2  0  0  0
 71 89  1  0  0  0
 71151  1  0  0  0
 72 74  1  0  0  0
 72 75  1  0  0  0
 73 75  2  0  0  0
 73 76  1  0  0  0
 73 84  1  0  0  0
 74 77  2  0  0  0
 74 88  1  0  0  0
 75 90  1  0  0  0
 76 86  1  0  0  0
 76 89  2  0  0  0
 77 87  1  0  0  0
 77 90  1  0  0  0
 78 79  1  0  0  0
 78 85  1  0  0  0
 78152  1  0  0  0
 78153  1  0  0  0
 79 85  1  0  0  0
 79154  1  0  0  0
 79155  1  0  0  0
 80 82  1  0  0  0
 80 84  1  0  0  0
 80156  1  0  0  0
 80157  1  0  0  0
 81 83  1  0  0  0
 81 84  1  0  0  0
 81158  1  0  0  0
 81159  1  0  0  0
 82 91  1  0  0  0
 82160  1  0  0  0
 82161  1  0  0  0
 83 91  1  0  0  0
 83162  1  0  0  0
 83163  1  0  0  0
 84164  1  0  0  0
 85 90  1  0  0  0
 85165  1  0  0  0
 86166  1  0  0  0
 86167  1  0  0  0
 86168  1  0  0  0
 87169  1  0  0  0
 87170  1  0  0  0
 87171  1  0  0  0
 88172  1  0  0  0
 88173  1  0  0  0
M  ISO  4   1 100  68 101  88 101  91 100
M  END
> <chiral flag>
0

> <version>
0

> <s_m_source_file>
/data/baiqing/PycharmProjects/Reinvent-master-3.2/result/LINK_invent/BTK/process_docking_weight1_custom_sum_contain_oxygen_bond_distance_aromatic_linkinvent_7_9_3/rearranged_h_0170.sdf

> <i_m_source_file_index>
20

> <r_mmod_Potential_Energy-OPLS-2005>
285.474395751953

> <r_mmod_Stretch_Energy-OPLS-2005>
99.2228546142578

> <r_mmod_Bend_Energy-OPLS-2005>
215.625701904297

> <r_mmod_Torsional_Energy-OPLS-2005>
389.383758544922

> <r_mmod_Improper_Torsional_Energy-OPLS-2005>
2.29627895355225

> <r_mmod_Van_der_Waal_Energy-OPLS-2005>
151.103958129883

> <r_mmod_Electrostatic_Energy-OPLS-2005>
-425.440734863281

> <r_mmod_Solvation_Energy-OPLS-2005>
-213.830368041992

> <b_mmod_Minimization_Converged-OPLS-2005>
0

> <r_mmod_RMS_Derivative-OPLS-2005>
1.18408942222595

$$$$
20
                    3D
 Structure written by MMmdl.
173184  0  0  1  0            999 V2000
  -30.7213  -14.4471   20.6498 C   0  0  0  0  0  0
  -30.4228  -12.3227   19.4099 C   0  0  0  0  0  0
  -29.4878  -12.5227   18.1997 C   0  0  0  0  0  0
  -28.0116  -12.3565   18.6112 C   0  0  0  0  0  0
  -27.6629  -13.1777   19.8778 C   0  0  2  0  0  0
  -28.7079  -12.9104   20.9921 C   0  0  0  0  0  0
  -25.2602  -13.8090   20.5656 C   0  0  0  0  0  0
  -24.1834  -13.0410   20.9194 C   0  0  0  0  0  0
  -24.6360  -11.6871   20.8770 C   0  0  0  0  0  0
  -23.9024  -10.4272   21.0439 C   0  0  0  0  0  0
  -24.3592   -9.4186   21.9202 C   0  0  0  0  0  0
  -23.6275   -8.2218   22.0757 C   0  0  0  0  0  0
  -22.4253   -8.0266   21.3546 C   0  0  0  0  0  0
  -21.9885   -9.0242   20.4649 C   0  0  0  0  0  0
  -22.7211  -10.2122   20.3071 C   0  0  0  0  0  0
  -21.6833   -6.0736   22.5288 C   0  0  0  0  0  0
  -21.4000   -6.5645   23.8224 C   0  0  0  0  0  0
  -21.3658   -5.6796   24.9187 C   0  0  0  0  0  0
  -21.6044   -4.3059   24.7233 C   0  0  0  0  0  0
  -21.8813   -3.8151   23.4350 C   0  0  0  0  0  0
  -21.9186   -4.6969   22.3410 C   0  0  0  0  0  0
  -22.7862  -13.5239   21.1863 C   0  0  0  0  0  0
  -22.1652   -4.2160   21.0986 F   0  0  0  0  0  0
  -21.5638   -3.4539   25.7736 F   0  0  0  0  0  0
  -30.0292  -13.2800   20.4624 N   0  0  0  0  0  0
  -26.3017  -12.9206   20.3371 N   0  0  0  0  0  0
  -25.9272  -11.6397   20.5790 N   0  0  0  0  0  0
  -22.0481  -12.8245   22.0414 N   0  0  0  0  0  0
  -25.4323  -15.1796   20.4003 N   0  0  0  0  0  0
  -31.7929  -14.6440   20.0626 O   0  0  0  0  0  0
  -21.6618   -6.8870   21.4244 O   0  0  0  0  0  0
  -22.3567  -14.5558   20.6718 O   0  0  0  0  0  0
  -24.6129  -31.8695   23.2131 C   0  0  0  0  0  0
  -25.9030  -32.4831   23.8414 C   0  0  1  0  0  0
  -27.2403  -27.4541   20.0699 C   0  0  0  0  0  0
  -25.5898  -33.8635   24.2336 N   0  0  0  0  0  0
  -23.3996  -30.4936   21.5539 C   0  0  2  0  0  0
  -24.8447  -28.9626   20.1153 C   0  0  0  0  0  0
  -22.7400  -29.4658   22.5012 C   0  0  0  0  0  0
  -18.0264  -28.1375   22.8491 C   0  0  0  0  0  0
  -24.1482  -36.7314   23.2637 C   0  0  0  0  0  0
  -25.9286  -30.8349   21.3677 C   0  0  0  0  0  0
  -26.0037  -29.4720   20.7120 C   0  0  0  0  0  0
  -27.1994  -28.7205   20.6958 C   0  0  0  0  0  0
  -26.0517  -26.9446   19.4955 C   0  0  0  0  0  0
  -24.8618  -27.6951   19.5105 C   0  0  0  0  0  0
  -23.6065  -29.8281   20.1676 C   0  0  0  0  0  0
  -25.4106  -36.3125   24.0343 C   0  0  1  0  0  0
  -20.5855  -28.3650   23.1338 C   0  0  2  0  0  0
  -20.6753  -26.9385   22.5442 C   0  0  0  0  0  0
  -19.5750  -26.6376   21.5223 C   0  0  0  0  0  0
  -18.1914  -26.7931   22.1599 C   0  0  0  0  0  0
  -19.1512  -28.8828   23.2911 C   0  0  0  0  0  0
  -18.9441  -30.1438   23.8914 C   0  0  0  0  0  0
  -17.6444  -30.6583   24.0562 C   0  0  0  0  0  0
  -25.9035  -34.9487   23.5133 C   0  0  0  0  0  0
  -16.5333  -29.9080   23.6328 C   0  0  0  0  0  0
  -16.7254  -28.6498   23.0348 C   0  0  0  0  0  0
  -26.4461  -31.6618   25.0744 C   0  0  0  0  0  0
  -25.3727  -31.3754   26.1501 C   0  0  0  0  0  0
  -27.0268  -30.3048   24.6135 C   0  0  0  0  0  0
  -27.6061  -32.4327   25.7475 C   0  0  0  0  0  0
  -27.5595  -37.1800   24.8448 C   0  0  0  0  0  0
  -21.4131  -29.3018   22.3745 N   0  0  0  0  0  0
  -26.4289  -37.3814   23.9422 N   0  0  0  0  0  0
  -24.6650  -31.0803   22.1028 N   0  0  0  0  0  0
  -23.4182  -28.8199   23.3043 O   0  0  0  0  0  0
  -28.4250  -26.7476   20.0867 O   0  0  0  0  0  0
  -26.5594  -34.8934   22.4693 O   0  0  0  0  0  0
  -23.5325  -32.1443   23.7533 O   0  0  0  0  0  0
  -30.1135  -20.9699   18.9382 C   0  0  0  0  0  0
  -30.2341  -19.7539   19.6347 C   0  0  0  0  0  0
  -29.3586  -22.0541   20.9703 C   0  0  0  0  0  0
  -29.6582  -22.1287   19.5949 C   0  0  0  0  0  0
  -29.9015  -19.6615   21.0053 C   0  0  0  0  0  0
  -29.4762  -20.8366   21.6894 C   0  0  0  0  0  0
  -29.2148  -22.0929   25.2446 C   0  0  0  0  0  0
  -29.8218  -22.9874   24.1889 C   0  0  0  0  0  0
  -28.9161  -17.3225   21.0547 C   0  0  0  0  0  0
  -31.3402  -17.6075   21.6681 C   0  0  0  0  0  0
  -30.6469  -24.2097   18.3592 C   0  0  0  0  0  0
  -28.9640  -15.9391   21.7240 C   0  0  0  0  0  0
  -31.2854  -16.1920   22.2997 C   0  0  0  0  0  0
  -29.4651  -23.3938   18.8059 C   0  0  2  0  0  0
  -29.9486  -18.2773   21.6766 C   0  0  0  0  0  0
  -29.6765  -24.7910   19.3697 C   0  0  2  0  0  0
  -28.7747  -21.9687   23.8061 C   0  0  0  0  0  0
  -28.7639  -25.9375   18.9577 C   0  0  0  0  0  0
  -30.3058  -15.3285   21.6085 N   0  0  0  0  0  0
  -29.1586  -20.7825   23.0571 N   0  0  0  0  0  0
  -31.4638  -12.4349   19.1020 H   0  0  0  0  0  0
  -30.3461  -11.3005   19.7837 H   0  0  0  0  0  0
  -29.7385  -11.8147   17.4082 H   0  0  0  0  0  0
  -29.6402  -13.5182   17.7798 H   0  0  0  0  0  0
  -27.8306  -11.2969   18.7934 H   0  0  0  0  0  0
  -27.3556  -12.6384   17.7864 H   0  0  0  0  0  0
  -27.7134  -14.2199   19.5683 H   0  0  0  0  0  0
  -28.7059  -11.8489   21.2431 H   0  0  0  0  0  0
  -28.4666  -13.3915   21.9378 H   0  0  0  0  0  0
  -25.2739   -9.5660   22.4774 H   0  0  0  0  0  0
  -23.9988   -7.4600   22.7461 H   0  0  0  0  0  0
  -21.0820   -8.8760   19.8947 H   0  0  0  0  0  0
  -22.3679  -10.9668   19.6181 H   0  0  0  0  0  0
  -21.1976   -7.6152   23.9732 H   0  0  0  0  0  0
  -21.1494   -6.0524   25.9092 H   0  0  0  0  0  0
  -22.0591   -2.7612   23.2844 H   0  0  0  0  0  0
  -22.4070  -11.9905   22.4820 H   0  0  0  0  0  0
  -21.1100  -13.1293   22.2610 H   0  0  0  0  0  0
  -24.6627  -15.8315   20.5079 H   0  0  0  0  0  0
  -26.2801  -15.6189   20.0660 H   0  0  0  0  0  0
  -26.7093  -32.5534   23.1170 H   0  0  0  0  0  0
  -25.0077  -33.9804   25.0498 H   0  0  0  0  0  0
  -22.6873  -31.3102   21.4180 H   0  0  0  0  0  0
  -23.3774  -35.9613   23.3263 H   0  0  0  0  0  0
  -24.3591  -36.8964   22.2060 H   0  0  0  0  0  0
  -23.7182  -37.6486   23.6672 H   0  0  0  0  0  0
  -26.0455  -31.6035   20.6030 H   0  0  0  0  0  0
  -26.8148  -30.8821   21.9889 H   0  0  0  0  0  0
  -28.0951  -29.1142   21.1560 H   0  0  0  0  0  0
  -26.0076  -25.9622   19.0514 H   0  0  0  0  0  0
  -23.9653  -27.2891   19.0624 H   0  0  0  0  0  0
  -23.7112  -30.6043   19.4087 H   0  0  0  0  0  0
  -22.7309  -29.2467   19.8734 H   0  0  0  0  0  0
  -25.1278  -36.1993   25.0835 H   0  0  0  0  0  0
  -20.9941  -28.3208   24.1461 H   0  0  0  0  0  0
  -20.5635  -26.2257   23.3625 H   0  0  0  0  0  0
  -21.6628  -26.7419   22.1245 H   0  0  0  0  0  0
  -19.6908  -25.6288   21.1248 H   0  0  0  0  0  0
  -19.6727  -27.3189   20.6758 H   0  0  0  0  0  0
  -17.4213  -26.6724   21.3963 H   0  0  0  0  0  0
  -18.0265  -26.0047   22.8955 H   0  0  0  0  0  0
  -19.7919  -30.7246   24.2287 H   0  0  0  0  0  0
  -17.5001  -31.6268   24.5154 H   0  0  0  0  0  0
  -15.5334  -30.2987   23.7653 H   0  0  0  0  0  0
  -15.8651  -28.0827   22.7055 H   0  0  0  0  0  0
  -24.5922  -30.7056   25.7871 H   0  0  0  0  0  0
  -24.8880  -32.2912   26.4898 H   0  0  0  0  0  0
  -25.8081  -30.8990   27.0292 H   0  0  0  0  0  0
  -26.2805  -29.6829   24.1175 H   0  0  0  0  0  0
  -27.3999  -29.7280   25.4607 H   0  0  0  0  0  0
  -27.8666  -30.4348   23.9304 H   0  0  0  0  0  0
  -27.2717  -33.3640   26.2062 H   0  0  0  0  0  0
  -28.3856  -32.6862   25.0276 H   0  0  0  0  0  0
  -28.0742  -31.8438   26.5373 H   0  0  0  0  0  0
  -28.2597  -38.0116   24.7547 H   0  0  0  0  0  0
  -28.1109  -36.2658   24.6195 H   0  0  0  0  0  0
  -27.2335  -37.1350   25.8854 H   0  0  0  0  0  0
  -20.9286  -29.8744   21.6973 H   0  0  0  0  0  0
  -26.0185  -38.2886   24.1470 H   0  0  0  0  0  0
  -30.3488  -21.0053   17.8829 H   0  0  0  0  0  0
  -30.5591  -18.8758   19.0943 H   0  0  0  0  0  0
  -29.0126  -22.9528   21.4597 H   0  0  0  0  0  0
  -28.5223  -22.5528   25.9485 H   0  0  0  0  0  0
  -29.8533  -21.3159   25.6622 H   0  0  0  0  0  0
  -30.8530  -22.7956   23.8960 H   0  0  0  0  0  0
  -29.5258  -24.0350   24.1914 H   0  0  0  0  0  0
  -27.9160  -17.7459   21.1621 H   0  0  0  0  0  0
  -29.0882  -17.2119   19.9834 H   0  0  0  0  0  0
  -31.7209  -17.5302   20.6495 H   0  0  0  0  0  0
  -32.0496  -18.2295   22.2150 H   0  0  0  0  0  0
  -30.6228  -24.6160   17.3493 H   0  0  0  0  0  0
  -31.6315  -23.9202   18.7217 H   0  0  0  0  0  0
  -28.1644  -15.3638   21.2853 H   0  0  0  0  0  0
  -28.7057  -16.0268   22.7797 H   0  0  0  0  0  0
  -31.0061  -16.2656   23.3517 H   0  0  0  0  0  0
  -32.2814  -15.7450   22.2997 H   0  0  0  0  0  0
  -28.6553  -23.2613   18.0902 H   0  0  0  0  0  0
  -29.6745  -18.3753   22.7250 H   0  0  0  0  0  0
  -30.0696  -24.8735   20.3816 H   0  0  0  0  0  0
  -27.7764  -22.3191   23.5475 H   0  0  0  0  0  0
  -27.9192  -25.5204   18.4153 H   0  0  0  0  0  0
  -29.2973  -26.5710   18.2476 H   0  0  0  0  0  0
  -29.1449  -19.8841   23.5312 H   0  0  0  0  0  0
  1 25  1  0  0  0
  1 30  2  0  0  0
  1 89  1  0  0  0
  2  3  1  0  0  0
  2 25  1  0  0  0
  2 91  1  0  0  0
  2 92  1  0  0  0
  3  4  1  0  0  0
  3 93  1  0  0  0
  3 94  1  0  0  0
  4  5  1  0  0  0
  4 95  1  0  0  0
  4 96  1  0  0  0
  5  6  1  0  0  0
  5 26  1  0  0  0
  5 97  1  0  0  0
  6 25  1  0  0  0
  6 98  1  0  0  0
  6 99  1  0  0  0
  7  8  2  0  0  0
  7 26  1  0  0  0
  7 29  1  0  0  0
  8  9  1  0  0  0
  8 22  1  0  0  0
  9 10  1  0  0  0
  9 27  2  0  0  0
 10 11  2  0  0  0
 10 15  1  0  0  0
 11 12  1  0  0  0
 11100  1  0  0  0
 12 13  2  0  0  0
 12101  1  0  0  0
 13 14  1  0  0  0
 13 31  1  0  0  0
 14 15  2  0  0  0
 14102  1  0  0  0
 15103  1  0  0  0
 16 17  2  0  0  0
 16 21  1  0  0  0
 16 31  1  0  0  0
 17 18  1  0  0  0
 17104  1  0  0  0
 18 19  2  0  0  0
 18105  1  0  0  0
 19 20  1  0  0  0
 19 24  1  0  0  0
 20 21  2  0  0  0
 20106  1  0  0  0
 21 23  1  0  0  0
 22 28  1  0  0  0
 22 32  2  0  0  0
 26 27  1  0  0  0
 28107  1  0  0  0
 28108  1  0  0  0
 29109  1  0  0  0
 29110  1  0  0  0
 33 34  1  0  0  0
 33 66  1  0  0  0
 33 70  2  0  0  0
 34 36  1  0  0  0
 34 59  1  0  0  0
 34111  1  0  0  0
 35 44  2  0  0  0
 35 45  1  0  0  0
 35 68  1  0  0  0
 36 56  1  0  0  0
 36112  1  0  0  0
 37 39  1  0  0  0
 37 47  1  0  0  0
 37 66  1  0  0  0
 37113  1  0  0  0
 38 43  2  0  0  0
 38 46  1  0  0  0
 38 47  1  0  0  0
 39 64  1  0  0  0
 39 67  2  0  0  0
 40 52  1  0  0  0
 40 53  2  0  0  0
 40 58  1  0  0  0
 41114  1  0  0  0
 41115  1  0  0  0
 41116  1  0  0  0
 41 48  1  0  0  0
 42 43  1  0  0  0
 42 66  1  0  0  0
 42117  1  0  0  0
 42118  1  0  0  0
 43 44  1  0  0  0
 44119  1  0  0  0
 45 46  2  0  0  0
 45120  1  0  0  0
 46121  1  0  0  0
 47122  1  0  0  0
 47123  1  0  0  0
 48 56  1  0  0  0
 48 65  1  0  0  0
 48124  1  0  0  0
 49 50  1  0  0  0
 49 53  1  0  0  0
 49 64  1  0  0  0
 49125  1  0  0  0
 50 51  1  0  0  0
 50126  1  0  0  0
 50127  1  0  0  0
 51 52  1  0  0  0
 51128  1  0  0  0
 51129  1  0  0  0
 52130  1  0  0  0
 52131  1  0  0  0
 53 54  1  0  0  0
 54 55  2  0  0  0
 54132  1  0  0  0
 55 57  1  0  0  0
 55133  1  0  0  0
 56 69  2  0  0  0
 57 58  2  0  0  0
 57134  1  0  0  0
 58135  1  0  0  0
 59 60  1  0  0  0
 59 61  1  0  0  0
 59 62  1  0  0  0
 60136  1  0  0  0
 60137  1  0  0  0
 60138  1  0  0  0
 61139  1  0  0  0
 61140  1  0  0  0
 61141  1  0  0  0
 62142  1  0  0  0
 62143  1  0  0  0
 62144  1  0  0  0
 63 65  1  0  0  0
 63145  1  0  0  0
 63146  1  0  0  0
 63147  1  0  0  0
 64148  1  0  0  0
 65149  1  0  0  0
 68 88  1  0  0  0
 71 72  2  0  0  0
 71 74  1  0  0  0
 71150  1  0  0  0
 72 75  1  0  0  0
 72151  1  0  0  0
 73 74  2  0  0  0
 73 76  1  0  0  0
 73152  1  0  0  0
 74 84  1  0  0  0
 75 76  2  0  0  0
 75 85  1  0  0  0
 76 90  1  0  0  0
 77 78  1  0  0  0
 77 87  1  0  0  0
 77153  1  0  0  0
 77154  1  0  0  0
 78 87  1  0  0  0
 78155  1  0  0  0
 78156  1  0  0  0
 79 82  1  0  0  0
 79 85  1  0  0  0
 79157  1  0  0  0
 79158  1  0  0  0
 80 83  1  0  0  0
 80 85  1  0  0  0
 80159  1  0  0  0
 80160  1  0  0  0
 81 84  1  0  0  0
 81 86  1  0  0  0
 81161  1  0  0  0
 81162  1  0  0  0
 82 89  1  0  0  0
 82163  1  0  0  0
 82164  1  0  0  0
 83 89  1  0  0  0
 83165  1  0  0  0
 83166  1  0  0  0
 84 86  1  0  0  0
 84167  1  0  0  0
 85168  1  0  0  0
 86 88  1  0  0  0
 86169  1  0  0  0
 87 90  1  0  0  0
 87170  1  0  0  0
 88171  1  0  0  0
 88172  1  0  0  0
 90173  1  0  0  0
M  ISO  4   1 100  68 101  88 101  89 100
M  END
> <chiral flag>
0

> <version>
0

> <s_m_source_file>
/data/baiqing/PycharmProjects/Reinvent-master-3.2/result/LINK_invent/BTK/process_docking_weight1_custom_sum_contain_oxygen_bond_distance_aromatic_linkinvent_7_9_3/rearranged_h_0170.sdf

> <i_m_source_file_index>
21

> <r_mmod_Potential_Energy-OPLS-2005>
218.749404907227

> <r_mmod_Stretch_Energy-OPLS-2005>
41.7551612854004

> <r_mmod_Bend_Energy-OPLS-2005>
129.517044067383

> <r_mmod_Torsional_Energy-OPLS-2005>
361.285888671875

> <r_mmod_Improper_Torsional_Energy-OPLS-2005>
5.1133246421814

> <r_mmod_Van_der_Waal_Energy-OPLS-2005>
168.852340698242

> <r_mmod_Electrostatic_Energy-OPLS-2005>
-295.627166748047

> <r_mmod_Solvation_Energy-OPLS-2005>
-202.619323730469

> <b_mmod_Minimization_Converged-OPLS-2005>
0

> <r_mmod_RMS_Derivative-OPLS-2005>
1.13416540622711

$$$$
21
                    3D
 Structure written by MMmdl.
156165  0  0  1  0            999 V2000
  -30.3937  -15.4150   20.3473 C   0  0  0  0  0  0
  -30.4356  -12.9231   19.5119 C   0  0  0  0  0  0
  -29.5418  -12.5982   18.2870 C   0  0  0  0  0  0
  -28.0996  -12.2920   18.7291 C   0  0  0  0  0  0
  -27.6022  -13.2882   19.8053 C   0  0  2  0  0  0
  -28.6339  -13.5389   20.9243 C   0  0  0  0  0  0
  -25.2385  -13.8267   20.5766 C   0  0  0  0  0  0
  -24.1743  -13.0441   20.9260 C   0  0  0  0  0  0
  -24.6414  -11.6937   20.8750 C   0  0  0  0  0  0
  -23.9116  -10.4292   21.0392 C   0  0  0  0  0  0
  -24.3652   -9.4205   21.9174 C   0  0  0  0  0  0
  -23.6313   -8.2246   22.0752 C   0  0  0  0  0  0
  -22.4292   -8.0290   21.3546 C   0  0  0  0  0  0
  -21.9931   -9.0270   20.4651 C   0  0  0  0  0  0
  -22.7280  -10.2142   20.3048 C   0  0  0  0  0  0
  -21.6857   -6.0751   22.5278 C   0  0  0  0  0  0
  -21.4029   -6.5649   23.8217 C   0  0  0  0  0  0
  -21.3652   -5.6795   24.9169 C   0  0  0  0  0  0
  -21.6036   -4.3060   24.7216 C   0  0  0  0  0  0
  -21.8821   -3.8156   23.4335 C   0  0  0  0  0  0
  -21.9192   -4.6979   22.3394 C   0  0  0  0  0  0
  -22.7755  -13.5190   21.1902 C   0  0  0  0  0  0
  -22.1657   -4.2164   21.0973 F   0  0  0  0  0  0
  -21.5615   -3.4538   25.7730 F   0  0  0  0  0  0
  -29.8305  -14.0927   20.2628 N   0  0  0  0  0  0
  -26.2802  -12.9560   20.3185 N   0  0  0  0  0  0
  -25.9355  -11.6653   20.5694 N   0  0  0  0  0  0
  -22.0393  -12.8186   22.0449 N   0  0  0  0  0  0
  -25.4042  -15.2006   20.4257 N   0  0  0  0  0  0
  -31.6344  -15.3581   20.2935 O   0  0  0  0  0  0
  -21.6645   -6.8894   21.4241 O   0  0  0  0  0  0
  -22.3430  -14.5474   20.6720 O   0  0  0  0  0  0
  -24.6723  -31.8134   23.1626 C   0  0  0  0  0  0
  -25.9356  -32.4538   23.8130 C   0  0  1  0  0  0
  -27.2197  -26.8291   20.2029 C   0  0  0  0  0  0
  -25.5982  -33.8358   24.2030 N   0  0  0  0  0  0
  -23.4916  -30.4207   21.5145 C   0  0  2  0  0  0
  -24.9465  -28.7854   20.1218 C   0  0  0  0  0  0
  -22.7713  -29.4385   22.4762 C   0  0  0  0  0  0
  -18.0332  -28.1423   22.8464 C   0  0  0  0  0  0
  -24.1494  -36.7184   23.2648 C   0  0  0  0  0  0
  -26.0668  -30.5891   21.4066 C   0  0  0  0  0  0
  -26.1345  -29.1661   20.7575 C   0  0  0  0  0  0
  -27.2659  -28.2142   20.7646 C   0  0  0  0  0  0
  -25.9979  -26.6234   19.5215 C   0  0  0  0  0  0
  -24.9086  -27.5363   19.4823 C   0  0  0  0  0  0
  -23.7388  -29.7272   20.1464 C   0  0  0  0  0  0
  -25.4141  -36.2939   24.0291 C   0  0  1  0  0  0
  -20.5960  -28.3771   23.1173 C   0  0  2  0  0  0
  -20.6802  -26.9445   22.5404 C   0  0  0  0  0  0
  -19.5776  -26.6382   21.5217 C   0  0  0  0  0  0
  -18.1959  -26.7951   22.1623 C   0  0  0  0  0  0
  -19.1592  -28.8921   23.2802 C   0  0  0  0  0  0
  -18.9498  -30.1508   23.8840 C   0  0  0  0  0  0
  -17.6488  -30.6603   24.0557 C   0  0  0  0  0  0
  -25.9106  -34.9322   23.4988 C   0  0  0  0  0  0
  -16.5383  -29.9086   23.6351 C   0  0  0  0  0  0
  -16.7314  -28.6514   23.0362 C   0  0  0  0  0  0
  -26.4579  -31.6520   25.0699 C   0  0  0  0  0  0
  -25.3670  -31.3793   26.1326 C   0  0  0  0  0  0
  -27.0484  -30.2878   24.6492 C   0  0  0  0  0  0
  -27.6056  -32.4344   25.7503 C   0  0  0  0  0  0
  -27.5571  -37.1748   24.8467 C   0  0  0  0  0  0
  -21.4374  -29.3036   22.3506 N   0  0  0  0  0  0
  -26.4280  -37.3682   23.9403 N   0  0  0  0  0  0
  -24.7660  -30.9702   22.0817 N   0  0  0  0  0  0
  -23.4215  -28.7965   23.3047 O   0  0  0  0  0  0
  -28.2135  -25.6810   20.2030 O   0  0  0  0  0  0
  -26.5730  -34.8872   22.4597 O   0  0  0  0  0  0
  -23.5769  -32.1147   23.6662 O   0  0  0  0  0  0
  -29.4795  -19.7839   18.7894 C   0  0  0  0  0  0
  -29.4514  -21.0100   18.0408 C   0  0  0  0  0  0
  -29.0439  -22.2836   18.5964 C   0  0  0  0  0  0
  -29.2337  -19.8156   20.1612 C   0  0  0  0  0  0
  -28.6855  -22.4587   19.9699 C   0  0  0  0  0  0
  -29.8377  -18.3994   18.1625 C   0  0  0  0  0  0
  -29.5517  -18.2571   20.8917 C   0  0  0  0  0  0
  -29.2319  -17.0823   18.8069 C   0  0  0  0  0  0
  -29.8842  -20.9468   16.5745 C   0  0  0  0  0  0
  -28.9522  -23.4866   17.6540 C   0  0  0  0  0  0
  -27.9614  -24.0270   20.4944 C   0  0  0  0  0  0
  -28.8259  -21.1534   20.6905 N   0  0  0  0  0  0
  -29.6632  -16.7408   20.1861 N   0  0  0  0  0  0
  -31.4433  -13.1551   19.1662 H   0  0  0  0  0  0
  -30.5434  -12.0512   20.1591 H   0  0  0  0  0  0
  -29.9549  -11.7587   17.7264 H   0  0  0  0  0  0
  -29.5409  -13.4502   17.6057 H   0  0  0  0  0  0
  -28.0909  -11.2819   19.1405 H   0  0  0  0  0  0
  -27.4280  -12.2802   17.8693 H   0  0  0  0  0  0
  -27.4892  -14.2325   19.2699 H   0  0  0  0  0  0
  -28.8433  -12.6305   21.4918 H   0  0  0  0  0  0
  -28.2465  -14.2690   21.6369 H   0  0  0  0  0  0
  -25.2793   -9.5684   22.4756 H   0  0  0  0  0  0
  -24.0015   -7.4639   22.7479 H   0  0  0  0  0  0
  -21.0851   -8.8809   19.8962 H   0  0  0  0  0  0
  -22.3741  -10.9683   19.6157 H   0  0  0  0  0  0
  -21.2045   -7.6164   23.9733 H   0  0  0  0  0  0
  -21.1463   -6.0517   25.9076 H   0  0  0  0  0  0
  -22.0605   -2.7621   23.2827 H   0  0  0  0  0  0
  -22.4009  -11.9879   22.4899 H   0  0  0  0  0  0
  -21.0997  -13.1205   22.2607 H   0  0  0  0  0  0
  -24.6407  -15.8559   20.5570 H   0  0  0  0  0  0
  -26.2627  -15.6457   20.1288 H   0  0  0  0  0  0
  -26.7432  -32.5056   23.0840 H   0  0  0  0  0  0
  -25.0043  -33.9419   25.0122 H   0  0  0  0  0  0
  -22.8107  -31.2552   21.3349 H   0  0  0  0  0  0
  -23.3766  -35.9502   23.3274 H   0  0  0  0  0  0
  -24.3565  -36.8877   22.2071 H   0  0  0  0  0  0
  -23.7246  -37.6357   23.6736 H   0  0  0  0  0  0
  -26.2534  -31.3225   20.6200 H   0  0  0  0  0  0
  -26.9240  -30.6544   22.0655 H   0  0  0  0  0  0
  -28.1701  -28.5130   21.2761 H   0  0  0  0  0  0
  -25.8562  -25.6761   19.0216 H   0  0  0  0  0  0
  -24.0082  -27.2383   18.9627 H   0  0  0  0  0  0
  -23.9073  -30.4902   19.3860 H   0  0  0  0  0  0
  -22.8458  -29.1883   19.8254 H   0  0  0  0  0  0
  -25.1342  -36.1717   25.0782 H   0  0  0  0  0  0
  -21.0046  -28.3384   24.1295 H   0  0  0  0  0  0
  -20.5687  -26.2386   23.3650 H   0  0  0  0  0  0
  -21.6664  -26.7410   22.1210 H   0  0  0  0  0  0
  -19.6930  -25.6275   21.1289 H   0  0  0  0  0  0
  -19.6719  -27.3158   20.6718 H   0  0  0  0  0  0
  -17.4227  -26.6699   21.4032 H   0  0  0  0  0  0
  -18.0354  -26.0115   22.9044 H   0  0  0  0  0  0
  -19.7972  -30.7350   24.2182 H   0  0  0  0  0  0
  -17.5033  -31.6279   24.5173 H   0  0  0  0  0  0
  -15.5376  -30.2968   23.7704 H   0  0  0  0  0  0
  -15.8715  -28.0813   22.7100 H   0  0  0  0  0  0
  -24.5874  -30.7128   25.7618 H   0  0  0  0  0  0
  -24.8834  -32.3002   26.4602 H   0  0  0  0  0  0
  -25.7867  -30.9052   27.0209 H   0  0  0  0  0  0
  -26.3174  -29.6529   24.1482 H   0  0  0  0  0  0
  -27.3963  -29.7276   25.5182 H   0  0  0  0  0  0
  -27.9135  -30.4038   23.9958 H   0  0  0  0  0  0
  -27.2626  -33.3700   26.1929 H   0  0  0  0  0  0
  -28.3944  -32.6818   25.0385 H   0  0  0  0  0  0
  -28.0638  -31.8574   26.5546 H   0  0  0  0  0  0
  -28.2561  -38.0068   24.7507 H   0  0  0  0  0  0
  -28.1092  -36.2592   24.6297 H   0  0  0  0  0  0
  -27.2282  -37.1389   25.8868 H   0  0  0  0  0  0
  -20.9647  -29.8709   21.6605 H   0  0  0  0  0  0
  -26.0119  -38.2736   24.1411 H   0  0  0  0  0  0
  -30.9251  -18.3159   18.1318 H   0  0  0  0  0  0
  -29.5105  -18.3993   17.1222 H   0  0  0  0  0  0
  -28.8061  -18.1527   21.6804 H   0  0  0  0  0  0
  -30.4930  -18.3844   21.4265 H   0  0  0  0  0  0
  -29.4690  -16.2496   18.1418 H   0  0  0  0  0  0
  -28.1431  -17.1454   18.7998 H   0  0  0  0  0  0
  -30.6687  -20.2074   16.4199 H   0  0  0  0  0  0
  -30.3154  -21.8780   16.2122 H   0  0  0  0  0  0
  -29.0375  -20.6906   15.9381 H   0  0  0  0  0  0
  -28.3973  -23.2242   16.7521 H   0  0  0  0  0  0
  -29.9481  -23.8202   17.3604 H   0  0  0  0  0  0
  -28.4424  -24.3503   18.0689 H   0  0  0  0  0  0
  -27.9813  -23.9595   21.5822 H   0  0  0  0  0  0
  -26.9076  -23.8894   20.2525 H   0  0  0  0  0  0
  1 25  1  0  0  0
  1 30  2  0  0  0
  1 83  1  0  0  0
  2  3  1  0  0  0
  2 25  1  0  0  0
  2 84  1  0  0  0
  2 85  1  0  0  0
  3  4  1  0  0  0
  3 86  1  0  0  0
  3 87  1  0  0  0
  4  5  1  0  0  0
  4 88  1  0  0  0
  4 89  1  0  0  0
  5  6  1  0  0  0
  5 26  1  0  0  0
  5 90  1  0  0  0
  6 25  1  0  0  0
  6 91  1  0  0  0
  6 92  1  0  0  0
  7  8  2  0  0  0
  7 26  1  0  0  0
  7 29  1  0  0  0
  8  9  1  0  0  0
  8 22  1  0  0  0
  9 10  1  0  0  0
  9 27  2  0  0  0
 10 11  2  0  0  0
 10 15  1  0  0  0
 11 12  1  0  0  0
 11 93  1  0  0  0
 12 13  2  0  0  0
 12 94  1  0  0  0
 13 14  1  0  0  0
 13 31  1  0  0  0
 14 15  2  0  0  0
 14 95  1  0  0  0
 15 96  1  0  0  0
 16 17  2  0  0  0
 16 21  1  0  0  0
 16 31  1  0  0  0
 17 18  1  0  0  0
 17 97  1  0  0  0
 18 19  2  0  0  0
 18 98  1  0  0  0
 19 20  1  0  0  0
 19 24  1  0  0  0
 20 21  2  0  0  0
 20 99  1  0  0  0
 21 23  1  0  0  0
 22 28  1  0  0  0
 22 32  2  0  0  0
 26 27  1  0  0  0
 28100  1  0  0  0
 28101  1  0  0  0
 29102  1  0  0  0
 29103  1  0  0  0
 33 34  1  0  0  0
 33 66  1  0  0  0
 33 70  2  0  0  0
 34 36  1  0  0  0
 34 59  1  0  0  0
 34104  1  0  0  0
 35 44  2  0  0  0
 35 45  1  0  0  0
 35 68  1  0  0  0
 36 56  1  0  0  0
 36105  1  0  0  0
 37 39  1  0  0  0
 37 47  1  0  0  0
 37 66  1  0  0  0
 37106  1  0  0  0
 38 43  2  0  0  0
 38 46  1  0  0  0
 38 47  1  0  0  0
 39 64  1  0  0  0
 39 67  2  0  0  0
 40 52  1  0  0  0
 40 53  2  0  0  0
 40 58  1  0  0  0
 41107  1  0  0  0
 41108  1  0  0  0
 41109  1  0  0  0
 41 48  1  0  0  0
 42 43  1  0  0  0
 42 66  1  0  0  0
 42110  1  0  0  0
 42111  1  0  0  0
 43 44  1  0  0  0
 44112  1  0  0  0
 45 46  2  0  0  0
 45113  1  0  0  0
 46114  1  0  0  0
 47115  1  0  0  0
 47116  1  0  0  0
 48 56  1  0  0  0
 48 65  1  0  0  0
 48117  1  0  0  0
 49 50  1  0  0  0
 49 53  1  0  0  0
 49 64  1  0  0  0
 49118  1  0  0  0
 50 51  1  0  0  0
 50119  1  0  0  0
 50120  1  0  0  0
 51 52  1  0  0  0
 51121  1  0  0  0
 51122  1  0  0  0
 52123  1  0  0  0
 52124  1  0  0  0
 53 54  1  0  0  0
 54 55  2  0  0  0
 54125  1  0  0  0
 55 57  1  0  0  0
 55126  1  0  0  0
 56 69  2  0  0  0
 57 58  2  0  0  0
 57127  1  0  0  0
 58128  1  0  0  0
 59 60  1  0  0  0
 59 61  1  0  0  0
 59 62  1  0  0  0
 60129  1  0  0  0
 60130  1  0  0  0
 60131  1  0  0  0
 61132  1  0  0  0
 61133  1  0  0  0
 61134  1  0  0  0
 62135  1  0  0  0
 62136  1  0  0  0
 62137  1  0  0  0
 63 65  1  0  0  0
 63138  1  0  0  0
 63139  1  0  0  0
 63140  1  0  0  0
 64141  1  0  0  0
 65142  1  0  0  0
 68 81  1  0  0  0
 71 72  2  0  0  0
 71 74  1  0  0  0
 71 76  1  0  0  0
 72 73  1  0  0  0
 72 79  1  0  0  0
 73 75  2  0  0  0
 73 80  1  0  0  0
 74 77  1  0  0  0
 74 82  2  0  0  0
 75 81  1  0  0  0
 75 82  1  0  0  0
 76 78  1  0  0  0
 76143  1  0  0  0
 76144  1  0  0  0
 77 83  1  0  0  0
 77145  1  0  0  0
 77146  1  0  0  0
 78 83  1  0  0  0
 78147  1  0  0  0
 78148  1  0  0  0
 79149  1  0  0  0
 79150  1  0  0  0
 79151  1  0  0  0
 80152  1  0  0  0
 80153  1  0  0  0
 80154  1  0  0  0
 81155  1  0  0  0
 81156  1  0  0  0
M  ISO  4   1 100  68 101  81 101  83 100
M  END
> <chiral flag>
0

> <version>
0

> <s_m_source_file>
/data/baiqing/PycharmProjects/Reinvent-master-3.2/result/LINK_invent/BTK/process_docking_weight1_custom_sum_contain_oxygen_bond_distance_aromatic_linkinvent_7_9_3/rearranged_h_0170.sdf

> <i_m_source_file_index>
22

> <r_mmod_Potential_Energy-OPLS-2005>
1593.21264648438

> <r_mmod_Stretch_Energy-OPLS-2005>
711.440307617188

> <r_mmod_Bend_Energy-OPLS-2005>
488.452575683594

> <r_mmod_Torsional_Energy-OPLS-2005>
332.022125244141

> <r_mmod_Improper_Torsional_Energy-OPLS-2005>
10.5003337860107

> <r_mmod_Van_der_Waal_Energy-OPLS-2005>
138.073715209961

> <r_mmod_Electrostatic_Energy-OPLS-2005>
-478.3583984375

> <r_mmod_Solvation_Energy-OPLS-2005>
-232.663955688477

> <b_mmod_Minimization_Converged-OPLS-2005>
0

> <r_mmod_RMS_Derivative-OPLS-2005>
1.70628130435944

$$$$
22
                    3D
 Structure written by MMmdl.
172182  0  0  1  0            999 V2000
  -30.7258  -14.4262   20.6137 C   0  0  0  0  0  0
  -30.4231  -12.2968   19.3990 C   0  0  0  0  0  0
  -29.4892  -12.5111   18.1918 C   0  0  0  0  0  0
  -28.0108  -12.3736   18.6058 C   0  0  0  0  0  0
  -27.6642  -13.2019   19.8718 C   0  0  2  0  0  0
  -28.7074  -12.9558   20.9852 C   0  0  0  0  0  0
  -25.2598  -13.8149   20.5674 C   0  0  0  0  0  0
  -24.1840  -13.0438   20.9172 C   0  0  0  0  0  0
  -24.6378  -11.6901   20.8706 C   0  0  0  0  0  0
  -23.9033  -10.4291   21.0385 C   0  0  0  0  0  0
  -24.3589   -9.4215   21.9172 C   0  0  0  0  0  0
  -23.6280   -8.2242   22.0745 C   0  0  0  0  0  0
  -22.4263   -8.0270   21.3542 C   0  0  0  0  0  0
  -21.9882   -9.0238   20.4643 C   0  0  0  0  0  0
  -22.7201  -10.2129   20.3043 C   0  0  0  0  0  0
  -21.6851   -6.0720   22.5279 C   0  0  0  0  0  0
  -21.4013   -6.5625   23.8209 C   0  0  0  0  0  0
  -21.3663   -5.6782   24.9173 C   0  0  0  0  0  0
  -21.6050   -4.3040   24.7228 C   0  0  0  0  0  0
  -21.8823   -3.8133   23.4350 C   0  0  0  0  0  0
  -21.9193   -4.6943   22.3405 C   0  0  0  0  0  0
  -22.7863  -13.5247   21.1848 C   0  0  0  0  0  0
  -22.1667   -4.2129   21.0980 F   0  0  0  0  0  0
  -21.5636   -3.4528   25.7745 F   0  0  0  0  0  0
  -30.0409  -13.2639   20.4374 N   0  0  0  0  0  0
  -26.3030  -12.9311   20.3338 N   0  0  0  0  0  0
  -25.9300  -11.6473   20.5718 N   0  0  0  0  0  0
  -22.0489  -12.8253   22.0403 N   0  0  0  0  0  0
  -25.4319  -15.1871   20.4140 N   0  0  0  0  0  0
  -31.8238  -14.6524   20.1001 O   0  0  0  0  0  0
  -21.6630   -6.8859   21.4245 O   0  0  0  0  0  0
  -22.3563  -14.5568   20.6713 O   0  0  0  0  0  0
  -24.6128  -31.8688   23.2137 C   0  0  0  0  0  0
  -25.9017  -32.4842   23.8410 C   0  0  1  0  0  0
  -27.2380  -27.4437   20.0727 C   0  0  0  0  0  0
  -25.5882  -33.8638   24.2340 N   0  0  0  0  0  0
  -23.4028  -30.4915   21.5548 C   0  0  2  0  0  0
  -24.8491  -28.9641   20.1112 C   0  0  0  0  0  0
  -22.7409  -29.4629   22.4998 C   0  0  0  0  0  0
  -18.0255  -28.1382   22.8470 C   0  0  0  0  0  0
  -24.1481  -36.7327   23.2640 C   0  0  0  0  0  0
  -25.9319  -30.8304   21.3722 C   0  0  0  0  0  0
  -26.0074  -29.4645   20.7193 C   0  0  0  0  0  0
  -27.1991  -28.7019   20.7150 C   0  0  0  0  0  0
  -26.0642  -26.9664   19.4537 C   0  0  0  0  0  0
  -24.8717  -27.7098   19.4791 C   0  0  0  0  0  0
  -23.6116  -29.8298   20.1664 C   0  0  0  0  0  0
  -25.4106  -36.3123   24.0336 C   0  0  1  0  0  0
  -20.5844  -28.3659   23.1318 C   0  0  2  0  0  0
  -20.6749  -26.9399   22.5411 C   0  0  0  0  0  0
  -19.5740  -26.6387   21.5199 C   0  0  0  0  0  0
  -18.1912  -26.7920   22.1611 C   0  0  0  0  0  0
  -19.1504  -28.8842   23.2889 C   0  0  0  0  0  0
  -18.9436  -30.1442   23.8901 C   0  0  0  0  0  0
  -17.6440  -30.6590   24.0564 C   0  0  0  0  0  0
  -25.9025  -34.9490   23.5133 C   0  0  0  0  0  0
  -16.5328  -29.9096   23.6323 C   0  0  0  0  0  0
  -16.7243  -28.6518   23.0331 C   0  0  0  0  0  0
  -26.4450  -31.6622   25.0740 C   0  0  0  0  0  0
  -25.3720  -31.3738   26.1490 C   0  0  0  0  0  0
  -27.0259  -30.3059   24.6119 C   0  0  0  0  0  0
  -27.6047  -32.4333   25.7482 C   0  0  0  0  0  0
  -27.5587  -37.1810   24.8466 C   0  0  0  0  0  0
  -21.4130  -29.3025   22.3740 N   0  0  0  0  0  0
  -26.4310  -37.3794   23.9399 N   0  0  0  0  0  0
  -24.6676  -31.0760   22.1057 N   0  0  0  0  0  0
  -23.4178  -28.8143   23.3022 O   0  0  0  0  0  0
  -28.3911  -26.6892   20.1207 O   0  0  0  0  0  0
  -26.5584  -34.8941   22.4687 O   0  0  0  0  0  0
  -23.5322  -32.1455   23.7523 O   0  0  0  0  0  0
  -30.9898  -21.4216   18.2348 C   0  0  0  0  0  0
  -30.9466  -20.2262   18.9898 C   0  0  0  0  0  0
  -29.6467  -21.3445   20.7304 C   0  0  0  0  0  0
  -30.3401  -22.5639   18.7373 C   0  0  0  0  0  0
  -29.6940  -22.5246   19.9630 C   0  0  0  0  0  0
  -30.2725  -20.1646   20.2402 C   0  0  0  0  0  0
  -29.0043  -23.8375   20.2477 C   0  0  0  0  0  0
  -29.6165  -17.3960   22.6451 C   0  0  0  0  0  0
  -29.7845  -18.8856   22.3570 C   0  0  0  0  0  0
  -30.6997  -17.6633   20.4873 C   0  0  0  0  0  0
  -30.5855  -16.6910   21.6854 C   0  0  2  0  0  0
  -30.1897  -23.9224   18.0758 C   0  0  0  0  0  0
  -28.9341  -24.5308   18.8513 C   0  0  1  0  0  0
  -30.0149  -23.8171   16.5444 C   0  0  0  0  0  0
  -31.5136  -24.6783   18.3443 C   0  0  0  0  0  0
  -27.6241  -24.0182   18.1903 C   0  0  0  0  0  0
  -28.8947  -26.1042   18.9135 C   0  0  0  0  0  0
  -30.2055  -18.9531   20.9672 N   0  0  0  0  0  0
  -30.0855  -15.3593   21.3307 N   0  0  0  0  0  0
  -31.4654  -12.4027   19.0933 H   0  0  0  0  0  0
  -30.3271  -11.2789   19.7812 H   0  0  0  0  0  0
  -29.7246  -11.7980   17.4014 H   0  0  0  0  0  0
  -29.6602  -13.5019   17.7676 H   0  0  0  0  0  0
  -27.8134  -11.3171   18.7899 H   0  0  0  0  0  0
  -27.3619  -12.6624   17.7791 H   0  0  0  0  0  0
  -27.7169  -14.2533   19.5880 H   0  0  0  0  0  0
  -28.6769  -11.9103   21.2981 H   0  0  0  0  0  0
  -28.4633  -13.5293   21.8801 H   0  0  0  0  0  0
  -25.2734   -9.5699   22.4742 H   0  0  0  0  0  0
  -23.9992   -7.4634   22.7463 H   0  0  0  0  0  0
  -21.0807   -8.8751   19.8953 H   0  0  0  0  0  0
  -22.3648  -10.9658   19.6145 H   0  0  0  0  0  0
  -21.1984   -7.6130   23.9707 H   0  0  0  0  0  0
  -21.1499   -6.0507   25.9079 H   0  0  0  0  0  0
  -22.0592   -2.7590   23.2854 H   0  0  0  0  0  0
  -22.4082  -11.9916   22.4811 H   0  0  0  0  0  0
  -21.1113  -13.1298   22.2589 H   0  0  0  0  0  0
  -24.6677  -15.8420   20.5353 H   0  0  0  0  0  0
  -26.2911  -15.6318   20.1172 H   0  0  0  0  0  0
  -26.7087  -32.5568   23.1175 H   0  0  0  0  0  0
  -24.9995  -33.9778   25.0462 H   0  0  0  0  0  0
  -22.6935  -31.3100   21.4173 H   0  0  0  0  0  0
  -23.3732  -35.9673   23.3344 H   0  0  0  0  0  0
  -24.3570  -36.8898   22.2049 H   0  0  0  0  0  0
  -23.7247  -37.6558   23.6611 H   0  0  0  0  0  0
  -26.0418  -31.5962   20.6024 H   0  0  0  0  0  0
  -26.8206  -30.8849   21.9894 H   0  0  0  0  0  0
  -28.0901  -29.0742   21.2010 H   0  0  0  0  0  0
  -26.0487  -26.0183   18.9532 H   0  0  0  0  0  0
  -23.9830  -27.3188   19.0015 H   0  0  0  0  0  0
  -23.7254  -30.6111   19.4142 H   0  0  0  0  0  0
  -22.7333  -29.2548   19.8660 H   0  0  0  0  0  0
  -25.1286  -36.1988   25.0834 H   0  0  0  0  0  0
  -20.9933  -28.3213   24.1443 H   0  0  0  0  0  0
  -20.5637  -26.2262   23.3587 H   0  0  0  0  0  0
  -21.6619  -26.7431   22.1221 H   0  0  0  0  0  0
  -19.6912  -25.6296   21.1232 H   0  0  0  0  0  0
  -19.6699  -27.3194   20.6720 H   0  0  0  0  0  0
  -17.4184  -26.6631   21.4019 H   0  0  0  0  0  0
  -18.0339  -26.0072   22.9022 H   0  0  0  0  0  0
  -19.7915  -30.7251   24.2290 H   0  0  0  0  0  0
  -17.4995  -31.6269   24.5174 H   0  0  0  0  0  0
  -15.5327  -30.3005   23.7665 H   0  0  0  0  0  0
  -15.8630  -28.0863   22.7035 H   0  0  0  0  0  0
  -24.5875  -30.7107   25.7822 H   0  0  0  0  0  0
  -24.8932  -32.2906   26.4951 H   0  0  0  0  0  0
  -25.8070  -30.8894   27.0238 H   0  0  0  0  0  0
  -26.2795  -29.6843   24.1168 H   0  0  0  0  0  0
  -27.4004  -29.7271   25.4566 H   0  0  0  0  0  0
  -27.8645  -30.4372   23.9281 H   0  0  0  0  0  0
  -27.2696  -33.3626   26.2104 H   0  0  0  0  0  0
  -28.3832  -32.6906   25.0286 H   0  0  0  0  0  0
  -28.0751  -31.8437   26.5363 H   0  0  0  0  0  0
  -28.2618  -38.0090   24.7476 H   0  0  0  0  0  0
  -28.1061  -36.2607   24.6337 H   0  0  0  0  0  0
  -27.2294  -37.1549   25.8871 H   0  0  0  0  0  0
  -20.9291  -29.8797   21.7009 H   0  0  0  0  0  0
  -26.0210  -38.2880   24.1385 H   0  0  0  0  0  0
  -31.4950  -21.4465   17.2799 H   0  0  0  0  0  0
  -31.4376  -19.3551   18.5816 H   0  0  0  0  0  0
  -29.1012  -21.3574   21.6616 H   0  0  0  0  0  0
  -29.6212  -24.4122   20.9388 H   0  0  0  0  0  0
  -28.0270  -23.6959   20.7115 H   0  0  0  0  0  0
  -28.5845  -17.1187   22.4196 H   0  0  0  0  0  0
  -29.7992  -17.1520   23.6929 H   0  0  0  0  0  0
  -30.5582  -19.3227   22.9907 H   0  0  0  0  0  0
  -28.8488  -19.4145   22.5415 H   0  0  0  0  0  0
  -30.0840  -17.3405   19.6454 H   0  0  0  0  0  0
  -31.7338  -17.7268   20.1435 H   0  0  0  0  0  0
  -31.5590  -16.6015   22.1714 H   0  0  0  0  0  0
  -29.2087  -23.1451   16.2536 H   0  0  0  0  0  0
  -30.9202  -23.4357   16.0728 H   0  0  0  0  0  0
  -29.8156  -24.7954   16.1064 H   0  0  0  0  0  0
  -31.6661  -24.8613   19.4077 H   0  0  0  0  0  0
  -31.5576  -25.6365   17.8283 H   0  0  0  0  0  0
  -32.3749  -24.1074   17.9956 H   0  0  0  0  0  0
  -27.6843  -22.9544   17.9568 H   0  0  0  0  0  0
  -27.3988  -24.5407   17.2601 H   0  0  0  0  0  0
  -26.7645  -24.1069   18.8499 H   0  0  0  0  0  0
  -28.4014  -26.5129   18.0299 H   0  0  0  0  0  0
  -29.8952  -26.5201   18.8662 H   0  0  0  0  0  0
  -29.1716  -15.1070   21.6746 H   0  0  0  0  0  0
  1 25  1  0  0  0
  1 30  2  0  0  0
  1 89  1  0  0  0
  2  3  1  0  0  0
  2 25  1  0  0  0
  2 90  1  0  0  0
  2 91  1  0  0  0
  3  4  1  0  0  0
  3 92  1  0  0  0
  3 93  1  0  0  0
  4  5  1  0  0  0
  4 94  1  0  0  0
  4 95  1  0  0  0
  5  6  1  0  0  0
  5 26  1  0  0  0
  5 96  1  0  0  0
  6 25  1  0  0  0
  6 97  1  0  0  0
  6 98  1  0  0  0
  7  8  2  0  0  0
  7 26  1  0  0  0
  7 29  1  0  0  0
  8  9  1  0  0  0
  8 22  1  0  0  0
  9 10  1  0  0  0
  9 27  2  0  0  0
 10 11  2  0  0  0
 10 15  1  0  0  0
 11 12  1  0  0  0
 11 99  1  0  0  0
 12 13  2  0  0  0
 12100  1  0  0  0
 13 14  1  0  0  0
 13 31  1  0  0  0
 14 15  2  0  0  0
 14101  1  0  0  0
 15102  1  0  0  0
 16 17  2  0  0  0
 16 21  1  0  0  0
 16 31  1  0  0  0
 17 18  1  0  0  0
 17103  1  0  0  0
 18 19  2  0  0  0
 18104  1  0  0  0
 19 20  1  0  0  0
 19 24  1  0  0  0
 20 21  2  0  0  0
 20105  1  0  0  0
 21 23  1  0  0  0
 22 28  1  0  0  0
 22 32  2  0  0  0
 26 27  1  0  0  0
 28106  1  0  0  0
 28107  1  0  0  0
 29108  1  0  0  0
 29109  1  0  0  0
 33 34  1  0  0  0
 33 66  1  0  0  0
 33 70  2  0  0  0
 34 36  1  0  0  0
 34 59  1  0  0  0
 34110  1  0  0  0
 35 44  2  0  0  0
 35 45  1  0  0  0
 35 68  1  0  0  0
 36 56  1  0  0  0
 36111  1  0  0  0
 37 39  1  0  0  0
 37 47  1  0  0  0
 37 66  1  0  0  0
 37112  1  0  0  0
 38 43  2  0  0  0
 38 46  1  0  0  0
 38 47  1  0  0  0
 39 64  1  0  0  0
 39 67  2  0  0  0
 40 52  1  0  0  0
 40 53  2  0  0  0
 40 58  1  0  0  0
 41113  1  0  0  0
 41114  1  0  0  0
 41115  1  0  0  0
 41 48  1  0  0  0
 42 43  1  0  0  0
 42 66  1  0  0  0
 42116  1  0  0  0
 42117  1  0  0  0
 43 44  1  0  0  0
 44118  1  0  0  0
 45 46  2  0  0  0
 45119  1  0  0  0
 46120  1  0  0  0
 47121  1  0  0  0
 47122  1  0  0  0
 48 56  1  0  0  0
 48 65  1  0  0  0
 48123  1  0  0  0
 49 50  1  0  0  0
 49 53  1  0  0  0
 49 64  1  0  0  0
 49124  1  0  0  0
 50 51  1  0  0  0
 50125  1  0  0  0
 50126  1  0  0  0
 51 52  1  0  0  0
 51127  1  0  0  0
 51128  1  0  0  0
 52129  1  0  0  0
 52130  1  0  0  0
 53 54  1  0  0  0
 54 55  2  0  0  0
 54131  1  0  0  0
 55 57  1  0  0  0
 55132  1  0  0  0
 56 69  2  0  0  0
 57 58  2  0  0  0
 57133  1  0  0  0
 58134  1  0  0  0
 59 60  1  0  0  0
 59 61  1  0  0  0
 59 62  1  0  0  0
 60135  1  0  0  0
 60136  1  0  0  0
 60137  1  0  0  0
 61138  1  0  0  0
 61139  1  0  0  0
 61140  1  0  0  0
 62141  1  0  0  0
 62142  1  0  0  0
 62143  1  0  0  0
 63 65  1  0  0  0
 63144  1  0  0  0
 63145  1  0  0  0
 63146  1  0  0  0
 64147  1  0  0  0
 65148  1  0  0  0
 68 87  1  0  0  0
 71 72  2  0  0  0
 71 74  1  0  0  0
 71149  1  0  0  0
 72 76  1  0  0  0
 72150  1  0  0  0
 73 75  1  0  0  0
 73 76  2  0  0  0
 73151  1  0  0  0
 74 75  2  0  0  0
 74 82  1  0  0  0
 75 77  1  0  0  0
 76 88  1  0  0  0
 77 83  1  0  0  0
 77152  1  0  0  0
 77153  1  0  0  0
 78 79  1  0  0  0
 78 81  1  0  0  0
 78154  1  0  0  0
 78155  1  0  0  0
 79 88  1  0  0  0
 79156  1  0  0  0
 79157  1  0  0  0
 80 81  1  0  0  0
 80 88  1  0  0  0
 80158  1  0  0  0
 80159  1  0  0  0
 81 89  1  0  0  0
 81160  1  0  0  0
 82 83  1  0  0  0
 82 84  1  0  0  0
 82 85  1  0  0  0
 83 86  1  0  0  0
 83 87  1  0  0  0
 84161  1  0  0  0
 84162  1  0  0  0
 84163  1  0  0  0
 85164  1  0  0  0
 85165  1  0  0  0
 85166  1  0  0  0
 86167  1  0  0  0
 86168  1  0  0  0
 86169  1  0  0  0
 87170  1  0  0  0
 87171  1  0  0  0
 89172  1  0  0  0
M  ISO  4   1 100  68 101  87 101  89 100
M  END
> <chiral flag>
0

> <version>
0

> <s_m_source_file>
/data/baiqing/PycharmProjects/Reinvent-master-3.2/result/LINK_invent/BTK/process_docking_weight1_custom_sum_contain_oxygen_bond_distance_aromatic_linkinvent_7_9_3/rearranged_h_0170.sdf

> <i_m_source_file_index>
23

> <r_mmod_Potential_Energy-OPLS-2005>
47.9141044616699

> <r_mmod_Stretch_Energy-OPLS-2005>
45.3283233642578

> <r_mmod_Bend_Energy-OPLS-2005>
200.538040161133

> <r_mmod_Torsional_Energy-OPLS-2005>
280.466796875

> <r_mmod_Improper_Torsional_Energy-OPLS-2005>
2.67352223396301

> <r_mmod_Van_der_Waal_Energy-OPLS-2005>
162.523178100586

> <r_mmod_Electrostatic_Energy-OPLS-2005>
-439.772918701172

> <r_mmod_Solvation_Energy-OPLS-2005>
-214.805053710938

> <b_mmod_Minimization_Converged-OPLS-2005>
0

> <r_mmod_RMS_Derivative-OPLS-2005>
2.11389923095703

$$$$
23
                    3D
 Structure written by MMmdl.
156165  0  0  1  0            999 V2000
  -30.3903  -15.4734   20.3497 C   0  0  0  0  0  0
  -30.4215  -12.9600   19.5415 C   0  0  0  0  0  0
  -29.5396  -12.6167   18.3121 C   0  0  0  0  0  0
  -28.1026  -12.2977   18.7491 C   0  0  0  0  0  0
  -27.5983  -13.2983   19.8157 C   0  0  2  0  0  0
  -28.6195  -13.5794   20.9414 C   0  0  0  0  0  0
  -25.2338  -13.8286   20.5794 C   0  0  0  0  0  0
  -24.1712  -13.0441   20.9270 C   0  0  0  0  0  0
  -24.6399  -11.6945   20.8758 C   0  0  0  0  0  0
  -23.9105  -10.4292   21.0398 C   0  0  0  0  0  0
  -24.3648   -9.4205   21.9179 C   0  0  0  0  0  0
  -23.6311   -8.2244   22.0751 C   0  0  0  0  0  0
  -22.4291   -8.0287   21.3543 C   0  0  0  0  0  0
  -21.9935   -9.0262   20.4643 C   0  0  0  0  0  0
  -22.7272  -10.2136   20.3052 C   0  0  0  0  0  0
  -21.6858   -6.0740   22.5278 C   0  0  0  0  0  0
  -21.4017   -6.5642   23.8210 C   0  0  0  0  0  0
  -21.3656   -5.6794   24.9170 C   0  0  0  0  0  0
  -21.6047   -4.3056   24.7222 C   0  0  0  0  0  0
  -21.8818   -3.8151   23.4343 C   0  0  0  0  0  0
  -21.9191   -4.6967   22.3398 C   0  0  0  0  0  0
  -22.7725  -13.5178   21.1911 C   0  0  0  0  0  0
  -22.1660   -4.2150   21.0975 F   0  0  0  0  0  0
  -21.5624   -3.4540   25.7734 F   0  0  0  0  0  0
  -29.8211  -14.1432   20.2960 N   0  0  0  0  0  0
  -26.2772  -12.9600   20.3238 N   0  0  0  0  0  0
  -25.9343  -11.6681   20.5714 N   0  0  0  0  0  0
  -22.0393  -12.8158   22.0473 N   0  0  0  0  0  0
  -25.3967  -15.2029   20.4275 N   0  0  0  0  0  0
  -31.6151  -15.3878   20.1421 O   0  0  0  0  0  0
  -21.6648   -6.8889   21.4242 O   0  0  0  0  0  0
  -22.3393  -14.5467   20.6734 O   0  0  0  0  0  0
  -24.6770  -31.8104   23.1585 C   0  0  0  0  0  0
  -25.9398  -32.4515   23.8095 C   0  0  1  0  0  0
  -27.2188  -26.7922   20.1964 C   0  0  0  0  0  0
  -25.6019  -33.8333   24.1998 N   0  0  0  0  0  0
  -23.4976  -30.4171   21.5099 C   0  0  2  0  0  0
  -24.9530  -28.7774   20.1104 C   0  0  0  0  0  0
  -22.7737  -29.4376   22.4723 C   0  0  0  0  0  0
  -18.0343  -28.1425   22.8466 C   0  0  0  0  0  0
  -24.1488  -36.7153   23.2648 C   0  0  0  0  0  0
  -26.0742  -30.5712   21.4112 C   0  0  0  0  0  0
  -26.1393  -29.1472   20.7560 C   0  0  0  0  0  0
  -27.2600  -28.1774   20.7730 C   0  0  0  0  0  0
  -26.0049  -26.6137   19.4902 C   0  0  0  0  0  0
  -24.9190  -27.5354   19.4554 C   0  0  0  0  0  0
  -23.7455  -29.7227   20.1407 C   0  0  0  0  0  0
  -25.4139  -36.2916   24.0287 C   0  0  1  0  0  0
  -20.5976  -28.3781   23.1168 C   0  0  2  0  0  0
  -20.6809  -26.9449   22.5413 C   0  0  0  0  0  0
  -19.5776  -26.6386   21.5228 C   0  0  0  0  0  0
  -18.1960  -26.7959   22.1631 C   0  0  0  0  0  0
  -19.1607  -28.8924   23.2799 C   0  0  0  0  0  0
  -18.9506  -30.1512   23.8834 C   0  0  0  0  0  0
  -17.6497  -30.6608   24.0559 C   0  0  0  0  0  0
  -25.9121  -34.9310   23.4967 C   0  0  0  0  0  0
  -16.5387  -29.9088   23.6352 C   0  0  0  0  0  0
  -16.7324  -28.6514   23.0369 C   0  0  0  0  0  0
  -26.4602  -31.6512   25.0677 C   0  0  0  0  0  0
  -25.3687  -31.3829   26.1307 C   0  0  0  0  0  0
  -27.0507  -30.2852   24.6523 C   0  0  0  0  0  0
  -27.6074  -32.4350   25.7484 C   0  0  0  0  0  0
  -27.5559  -37.1736   24.8470 C   0  0  0  0  0  0
  -21.4390  -29.3036   22.3477 N   0  0  0  0  0  0
  -26.4265  -37.3676   23.9417 N   0  0  0  0  0  0
  -24.7716  -30.9642   22.0790 N   0  0  0  0  0  0
  -23.4220  -28.7980   23.3039 O   0  0  0  0  0  0
  -28.1749  -25.6022   20.3046 O   0  0  0  0  0  0
  -26.5730  -34.8878   22.4565 O   0  0  0  0  0  0
  -23.5813  -32.1135   23.6607 O   0  0  0  0  0  0
  -28.6362  -20.9900   19.5405 C   0  0  0  0  0  0
  -29.0940  -19.5851   19.9886 C   0  0  0  0  0  0
  -28.6334  -22.3054   20.3424 C   0  0  0  0  0  0
  -29.5264  -19.4567   21.2662 C   0  0  0  0  0  0
  -29.1689  -21.8947   21.6254 C   0  0  0  0  0  0
  -29.2589  -18.0053   19.4502 C   0  0  0  0  0  0
  -29.9030  -17.9104   21.6447 C   0  0  0  0  0  0
  -29.3200  -22.9602   22.6914 C   0  0  0  0  0  0
  -28.9710  -17.4660   22.7866 C   0  0  0  0  0  0
  -31.3633  -17.8902   22.1381 C   0  0  0  0  0  0
  -27.9219  -23.9449   19.9618 C   0  0  0  0  0  0
  -29.5651  -20.6021   22.0478 N   0  0  0  0  0  0
  -29.7139  -16.8511   20.4921 N   0  0  0  0  0  0
  -31.4313  -13.1777   19.1927 H   0  0  0  0  0  0
  -30.5302  -12.0930   20.1956 H   0  0  0  0  0  0
  -29.9619  -11.7755   17.7605 H   0  0  0  0  0  0
  -29.5334  -13.4638   17.6247 H   0  0  0  0  0  0
  -28.1001  -11.2901   19.1669 H   0  0  0  0  0  0
  -27.4334  -12.2764   17.8881 H   0  0  0  0  0  0
  -27.4785  -14.2354   19.2700 H   0  0  0  0  0  0
  -28.8376  -12.6840   21.5250 H   0  0  0  0  0  0
  -28.2149  -14.3138   21.6396 H   0  0  0  0  0  0
  -25.2789   -9.5675   22.4759 H   0  0  0  0  0  0
  -24.0007   -7.4639   22.7481 H   0  0  0  0  0  0
  -21.0858   -8.8794   19.8959 H   0  0  0  0  0  0
  -22.3729  -10.9678   19.6165 H   0  0  0  0  0  0
  -21.2016   -7.6151   23.9710 H   0  0  0  0  0  0
  -21.1477   -6.0525   25.9071 H   0  0  0  0  0  0
  -22.0600   -2.7614   23.2841 H   0  0  0  0  0  0
  -22.4037  -11.9833   22.4865 H   0  0  0  0  0  0
  -21.1006  -13.1167   22.2680 H   0  0  0  0  0  0
  -24.6306  -15.8555   20.5550 H   0  0  0  0  0  0
  -26.2533  -15.6524   20.1308 H   0  0  0  0  0  0
  -26.7470  -32.5006   23.0801 H   0  0  0  0  0  0
  -25.0134  -33.9382   25.0132 H   0  0  0  0  0  0
  -22.8177  -31.2524   21.3292 H   0  0  0  0  0  0
  -23.3770  -35.9463   23.3280 H   0  0  0  0  0  0
  -24.3561  -36.8836   22.2069 H   0  0  0  0  0  0
  -23.7227  -37.6324   23.6727 H   0  0  0  0  0  0
  -26.2747  -31.3050   20.6293 H   0  0  0  0  0  0
  -26.9265  -30.6292   22.0758 H   0  0  0  0  0  0
  -28.1506  -28.4600   21.3165 H   0  0  0  0  0  0
  -25.8498  -25.6698   18.9883 H   0  0  0  0  0  0
  -24.0216  -27.2463   18.9253 H   0  0  0  0  0  0
  -23.9146  -30.4872   19.3818 H   0  0  0  0  0  0
  -22.8508  -29.1872   19.8180 H   0  0  0  0  0  0
  -25.1349  -36.1677   25.0777 H   0  0  0  0  0  0
  -21.0066  -28.3402   24.1293 H   0  0  0  0  0  0
  -20.5670  -26.2414   23.3675 H   0  0  0  0  0  0
  -21.6673  -26.7397   22.1228 H   0  0  0  0  0  0
  -19.6926  -25.6281   21.1299 H   0  0  0  0  0  0
  -19.6715  -27.3155   20.6724 H   0  0  0  0  0  0
  -17.4239  -26.6724   21.4023 H   0  0  0  0  0  0
  -18.0330  -26.0113   22.9034 H   0  0  0  0  0  0
  -19.7979  -30.7355   24.2171 H   0  0  0  0  0  0
  -17.5049  -31.6280   24.5181 H   0  0  0  0  0  0
  -15.5387  -30.2978   23.7706 H   0  0  0  0  0  0
  -15.8727  -28.0816   22.7112 H   0  0  0  0  0  0
  -24.5895  -30.7137   25.7639 H   0  0  0  0  0  0
  -24.8837  -32.3050   26.4517 H   0  0  0  0  0  0
  -25.7889  -30.9156   27.0217 H   0  0  0  0  0  0
  -26.3195  -29.6501   24.1501 H   0  0  0  0  0  0
  -27.3944  -29.7268   25.5242 H   0  0  0  0  0  0
  -27.9191  -30.3994   24.0030 H   0  0  0  0  0  0
  -27.2627  -33.3718   26.1879 H   0  0  0  0  0  0
  -28.3976  -32.6802   25.0372 H   0  0  0  0  0  0
  -28.0635  -31.8587   26.5544 H   0  0  0  0  0  0
  -28.2568  -38.0039   24.7511 H   0  0  0  0  0  0
  -28.1060  -36.2566   24.6297 H   0  0  0  0  0  0
  -27.2283  -37.1386   25.8876 H   0  0  0  0  0  0
  -20.9676  -29.8695   21.6555 H   0  0  0  0  0  0
  -26.0090  -38.2724   24.1436 H   0  0  0  0  0  0
  -28.2444  -21.0538   18.5355 H   0  0  0  0  0  0
  -29.9715  -18.0036   18.6247 H   0  0  0  0  0  0
  -28.3038  -17.6973   19.0233 H   0  0  0  0  0  0
  -28.3436  -23.2444   23.0852 H   0  0  0  0  0  0
  -29.7920  -23.8503   22.2719 H   0  0  0  0  0  0
  -29.9394  -22.6167   23.5211 H   0  0  0  0  0  0
  -29.0802  -18.1097   23.6603 H   0  0  0  0  0  0
  -29.1756  -16.4426   23.1019 H   0  0  0  0  0  0
  -27.9262  -17.5154   22.4761 H   0  0  0  0  0  0
  -31.5049  -18.5882   22.9644 H   0  0  0  0  0  0
  -32.0500  -18.1845   21.3444 H   0  0  0  0  0  0
  -31.6642  -16.9064   22.4983 H   0  0  0  0  0  0
  -26.8865  -23.8047   20.2729 H   0  0  0  0  0  0
  -27.8674  -23.9343   18.8728 H   0  0  0  0  0  0
  1 25  1  0  0  0
  1 30  2  0  0  0
  1 83  1  0  0  0
  2  3  1  0  0  0
  2 25  1  0  0  0
  2 84  1  0  0  0
  2 85  1  0  0  0
  3  4  1  0  0  0
  3 86  1  0  0  0
  3 87  1  0  0  0
  4  5  1  0  0  0
  4 88  1  0  0  0
  4 89  1  0  0  0
  5  6  1  0  0  0
  5 26  1  0  0  0
  5 90  1  0  0  0
  6 25  1  0  0  0
  6 91  1  0  0  0
  6 92  1  0  0  0
  7  8  2  0  0  0
  7 26  1  0  0  0
  7 29  1  0  0  0
  8  9  1  0  0  0
  8 22  1  0  0  0
  9 10  1  0  0  0
  9 27  2  0  0  0
 10 11  2  0  0  0
 10 15  1  0  0  0
 11 12  1  0  0  0
 11 93  1  0  0  0
 12 13  2  0  0  0
 12 94  1  0  0  0
 13 14  1  0  0  0
 13 31  1  0  0  0
 14 15  2  0  0  0
 14 95  1  0  0  0
 15 96  1  0  0  0
 16 17  2  0  0  0
 16 21  1  0  0  0
 16 31  1  0  0  0
 17 18  1  0  0  0
 17 97  1  0  0  0
 18 19  2  0  0  0
 18 98  1  0  0  0
 19 20  1  0  0  0
 19 24  1  0  0  0
 20 21  2  0  0  0
 20 99  1  0  0  0
 21 23  1  0  0  0
 22 28  1  0  0  0
 22 32  2  0  0  0
 26 27  1  0  0  0
 28100  1  0  0  0
 28101  1  0  0  0
 29102  1  0  0  0
 29103  1  0  0  0
 33 34  1  0  0  0
 33 66  1  0  0  0
 33 70  2  0  0  0
 34 36  1  0  0  0
 34 59  1  0  0  0
 34104  1  0  0  0
 35 44  2  0  0  0
 35 45  1  0  0  0
 35 68  1  0  0  0
 36 56  1  0  0  0
 36105  1  0  0  0
 37 39  1  0  0  0
 37 47  1  0  0  0
 37 66  1  0  0  0
 37106  1  0  0  0
 38 43  2  0  0  0
 38 46  1  0  0  0
 38 47  1  0  0  0
 39 64  1  0  0  0
 39 67  2  0  0  0
 40 52  1  0  0  0
 40 53  2  0  0  0
 40 58  1  0  0  0
 41107  1  0  0  0
 41108  1  0  0  0
 41109  1  0  0  0
 41 48  1  0  0  0
 42 43  1  0  0  0
 42 66  1  0  0  0
 42110  1  0  0  0
 42111  1  0  0  0
 43 44  1  0  0  0
 44112  1  0  0  0
 45 46  2  0  0  0
 45113  1  0  0  0
 46114  1  0  0  0
 47115  1  0  0  0
 47116  1  0  0  0
 48 56  1  0  0  0
 48 65  1  0  0  0
 48117  1  0  0  0
 49 50  1  0  0  0
 49 53  1  0  0  0
 49 64  1  0  0  0
 49118  1  0  0  0
 50 51  1  0  0  0
 50119  1  0  0  0
 50120  1  0  0  0
 51 52  1  0  0  0
 51121  1  0  0  0
 51122  1  0  0  0
 52123  1  0  0  0
 52124  1  0  0  0
 53 54  1  0  0  0
 54 55  2  0  0  0
 54125  1  0  0  0
 55 57  1  0  0  0
 55126  1  0  0  0
 56 69  2  0  0  0
 57 58  2  0  0  0
 57127  1  0  0  0
 58128  1  0  0  0
 59 60  1  0  0  0
 59 61  1  0  0  0
 59 62  1  0  0  0
 60129  1  0  0  0
 60130  1  0  0  0
 60131  1  0  0  0
 61132  1  0  0  0
 61133  1  0  0  0
 61134  1  0  0  0
 62135  1  0  0  0
 62136  1  0  0  0
 62137  1  0  0  0
 63 65  1  0  0  0
 63138  1  0  0  0
 63139  1  0  0  0
 63140  1  0  0  0
 64141  1  0  0  0
 65142  1  0  0  0
 68 81  1  0  0  0
 71 72  2  0  0  0
 71 73  1  0  0  0
 71143  1  0  0  0
 72 74  1  0  0  0
 72 76  1  0  0  0
 73 75  2  0  0  0
 73 81  1  0  0  0
 74 77  1  0  0  0
 74 82  2  0  0  0
 75 78  1  0  0  0
 75 82  1  0  0  0
 76 83  1  0  0  0
 76144  1  0  0  0
 76145  1  0  0  0
 77 79  1  0  0  0
 77 80  1  0  0  0
 77 83  1  0  0  0
 78146  1  0  0  0
 78147  1  0  0  0
 78148  1  0  0  0
 79149  1  0  0  0
 79150  1  0  0  0
 79151  1  0  0  0
 80152  1  0  0  0
 80153  1  0  0  0
 80154  1  0  0  0
 81155  1  0  0  0
 81156  1  0  0  0
M  ISO  4   1 100  68 101  81 101  83 100
M  END
> <chiral flag>
0

> <version>
0

> <s_m_source_file>
/data/baiqing/PycharmProjects/Reinvent-master-3.2/result/LINK_invent/BTK/process_docking_weight1_custom_sum_contain_oxygen_bond_distance_aromatic_linkinvent_7_9_3/rearranged_h_0170.sdf

> <i_m_source_file_index>
24

> <r_mmod_Potential_Energy-OPLS-2005>
1726.12939453125

> <r_mmod_Stretch_Energy-OPLS-2005>
731.762756347656

> <r_mmod_Bend_Energy-OPLS-2005>
564.052734375

> <r_mmod_Torsional_Energy-OPLS-2005>
282.874237060547

> <r_mmod_Improper_Torsional_Energy-OPLS-2005>
6.49487495422363

> <r_mmod_Van_der_Waal_Energy-OPLS-2005>
116.840377807617

> <r_mmod_Electrostatic_Energy-OPLS-2005>
-464.888854980469

> <r_mmod_Solvation_Energy-OPLS-2005>
-206.723739624023

> <b_mmod_Minimization_Converged-OPLS-2005>
0

> <r_mmod_RMS_Derivative-OPLS-2005>
1.38512814044952

$$$$
24
                    3D
 Structure written by MMmdl.
174184  0  0  1  0            999 V2000
  -30.6346  -14.7202   20.6031 C   0  0  0  0  0  0
  -30.4408  -12.4789   19.4950 C   0  0  0  0  0  0
  -29.5161  -12.5461   18.2579 C   0  0  0  0  0  0
  -28.0295  -12.3967   18.6539 C   0  0  0  0  0  0
  -27.6408  -13.2428   19.8950 C   0  0  2  0  0  0
  -28.6876  -13.1224   21.0314 C   0  0  0  0  0  0
  -25.2236  -13.8050   20.5579 C   0  0  0  0  0  0
  -24.1670  -13.0265   20.9297 C   0  0  0  0  0  0
  -24.6350  -11.6834   20.8880 C   0  0  0  0  0  0
  -23.9078  -10.4184   21.0463 C   0  0  0  0  0  0
  -24.3647   -9.4112   21.9210 C   0  0  0  0  0  0
  -23.6278   -8.2152   22.0772 C   0  0  0  0  0  0
  -22.4239   -8.0214   21.3553 C   0  0  0  0  0  0
  -21.9909   -9.0220   20.4659 C   0  0  0  0  0  0
  -22.7262  -10.2090   20.3063 C   0  0  0  0  0  0
  -21.6836   -6.0651   22.5256 C   0  0  0  0  0  0
  -21.4009   -6.5591   23.8202 C   0  0  0  0  0  0
  -21.3700   -5.6749   24.9156 C   0  0  0  0  0  0
  -21.6086   -4.3014   24.7229 C   0  0  0  0  0  0
  -21.8854   -3.8083   23.4370 C   0  0  0  0  0  0
  -21.9202   -4.6871   22.3390 C   0  0  0  0  0  0
  -22.7727  -13.5081   21.1944 C   0  0  0  0  0  0
  -22.1658   -4.2004   21.0973 F   0  0  0  0  0  0
  -21.5672   -3.4561   25.7801 F   0  0  0  0  0  0
  -29.9962  -13.5009   20.4736 N   0  0  0  0  0  0
  -26.2874  -12.9389   20.3548 N   0  0  0  0  0  0
  -25.9314  -11.6527   20.6045 N   0  0  0  0  0  0
  -22.0397  -12.8070   22.0552 N   0  0  0  0  0  0
  -25.3378  -15.1690   20.3405 N   0  0  0  0  0  0
  -31.7777  -14.8729   20.1595 O   0  0  0  0  0  0
  -21.6625   -6.8781   21.4215 O   0  0  0  0  0  0
  -22.3429  -14.5391   20.6824 O   0  0  0  0  0  0
  -24.6258  -31.8638   23.2092 C   0  0  0  0  0  0
  -25.9100  -32.4815   23.8398 C   0  0  1  0  0  0
  -27.2119  -27.3287   20.1210 C   0  0  0  0  0  0
  -25.5983  -33.8603   24.2360 N   0  0  0  0  0  0
  -23.4181  -30.4886   21.5500 C   0  0  2  0  0  0
  -24.8648  -28.9452   20.1143 C   0  0  0  0  0  0
  -22.7461  -29.4679   22.4951 C   0  0  0  0  0  0
  -18.0278  -28.1371   22.8484 C   0  0  0  0  0  0
  -24.1467  -36.7274   23.2638 C   0  0  0  0  0  0
  -25.9590  -30.7967   21.3732 C   0  0  0  0  0  0
  -26.0366  -29.4234   20.7165 C   0  0  0  0  0  0
  -27.2187  -28.6235   20.7170 C   0  0  0  0  0  0
  -26.0350  -26.9209   19.4584 C   0  0  0  0  0  0
  -24.8622  -27.6951   19.4817 C   0  0  0  0  0  0
  -23.6351  -29.8250   20.1642 C   0  0  0  0  0  0
  -25.4099  -36.3096   24.0344 C   0  0  1  0  0  0
  -20.5887  -28.3681   23.1253 C   0  0  2  0  0  0
  -20.6750  -26.9407   22.5376 C   0  0  0  0  0  0
  -19.5733  -26.6366   21.5183 C   0  0  0  0  0  0
  -18.1909  -26.7928   22.1605 C   0  0  0  0  0  0
  -19.1547  -28.8838   23.2847 C   0  0  0  0  0  0
  -18.9493  -30.1433   23.8856 C   0  0  0  0  0  0
  -17.6501  -30.6552   24.0546 C   0  0  0  0  0  0
  -25.9039  -34.9456   23.5132 C   0  0  0  0  0  0
  -16.5370  -29.9052   23.6349 C   0  0  0  0  0  0
  -16.7276  -28.6478   23.0362 C   0  0  0  0  0  0
  -26.4487  -31.6618   25.0751 C   0  0  0  0  0  0
  -25.3735  -31.3699   26.1504 C   0  0  0  0  0  0
  -27.0376  -30.3058   24.6149 C   0  0  0  0  0  0
  -27.6070  -32.4346   25.7529 C   0  0  0  0  0  0
  -27.5560  -37.1784   24.8479 C   0  0  0  0  0  0
  -21.4190  -29.3070   22.3695 N   0  0  0  0  0  0
  -26.4276  -37.3787   23.9424 N   0  0  0  0  0  0
  -24.6870  -31.0667   22.1022 N   0  0  0  0  0  0
  -23.4168  -28.8185   23.2998 O   0  0  0  0  0  0
  -28.2682  -26.4124   20.2025 O   0  0  0  0  0  0
  -26.5565  -34.8898   22.4684 O   0  0  0  0  0  0
  -23.5441  -32.1481   23.7410 O   0  0  0  0  0  0
  -29.8556  -23.5527   21.3866 C   0  0  0  0  0  0
  -30.3457  -22.2248   21.5806 C   0  0  0  0  0  0
  -28.6314  -23.7977   20.7187 C   0  0  0  0  0  0
  -28.0306  -22.6433   20.1332 C   0  0  0  0  0  0
  -29.5269  -21.1202   21.1670 C   0  0  0  0  0  0
  -32.1133  -21.6890   23.5402 C   0  0  0  0  0  0
  -32.5633  -23.0037   22.9347 C   0  0  0  0  0  0
  -28.9933  -20.0226   23.0991 C   0  0  0  0  0  0
  -31.7543  -22.0079   22.1064 C   0  0  0  0  0  0
  -27.9323  -18.1768   22.0963 C   0  0  1  0  0  0
  -28.3346  -18.7033   23.4713 C   0  0  2  0  0  0
  -29.2115  -18.4689   21.2603 C   0  0  2  0  0  0
  -26.8379  -22.7392   19.1876 C   0  0  0  0  0  0
  -27.3835  -16.7432   22.1351 C   0  0  0  0  0  0
  -27.8716  -25.1642   20.8894 C   0  0  0  0  0  0
  -30.3158  -17.2632   21.3127 C   0  0  0  0  0  0
  -28.4356  -21.3613   20.3993 N   0  0  0  0  0  0
  -29.6649  -19.8250   21.7925 N   0  0  0  0  0  0
  -29.9197  -15.7949   21.1009 N   0  0  0  0  0  0
  -27.2130  -18.8394   24.4234 N   0  3  0  0  0  0
  -31.4763  -12.6386   19.1903 H   0  0  0  0  0  0
  -30.4261  -11.4898   19.9492 H   0  0  0  0  0  0
  -29.7896  -11.7658   17.5445 H   0  0  0  0  0  0
  -29.6761  -13.4924   17.7395 H   0  0  0  0  0  0
  -27.8386  -11.3482   18.8717 H   0  0  0  0  0  0
  -27.3949  -12.6505   17.8035 H   0  0  0  0  0  0
  -27.6491  -14.2802   19.5718 H   0  0  0  0  0  0
  -28.7219  -12.1039   21.4218 H   0  0  0  0  0  0
  -28.4130  -13.7445   21.8846 H   0  0  0  0  0  0
  -25.2797   -9.5592   22.4799 H   0  0  0  0  0  0
  -24.0001   -7.4509   22.7466 H   0  0  0  0  0  0
  -21.0853   -8.8783   19.8892 H   0  0  0  0  0  0
  -22.3748  -10.9695   19.6217 H   0  0  0  0  0  0
  -21.1930   -7.6080   23.9682 H   0  0  0  0  0  0
  -21.1549   -6.0458   25.9081 H   0  0  0  0  0  0
  -22.0583   -2.7521   23.2921 H   0  0  0  0  0  0
  -22.4034  -11.9815   22.5031 H   0  0  0  0  0  0
  -21.1037  -13.1167   22.2730 H   0  0  0  0  0  0
  -24.5056  -15.7526   20.3445 H   0  0  0  0  0  0
  -26.1043  -15.5913   19.8354 H   0  0  0  0  0  0
  -26.7181  -32.5483   23.1151 H   0  0  0  0  0  0
  -25.0285  -33.9770   25.0607 H   0  0  0  0  0  0
  -22.7172  -31.3117   21.4053 H   0  0  0  0  0  0
  -23.3741  -35.9582   23.3321 H   0  0  0  0  0  0
  -24.3593  -36.8882   22.2048 H   0  0  0  0  0  0
  -23.7158  -37.6468   23.6654 H   0  0  0  0  0  0
  -26.0854  -31.5534   20.5997 H   0  0  0  0  0  0
  -26.8435  -30.8561   21.9963 H   0  0  0  0  0  0
  -28.1089  -28.9784   21.2182 H   0  0  0  0  0  0
  -25.9948  -25.9642   18.9559 H   0  0  0  0  0  0
  -23.9658  -27.3229   19.0100 H   0  0  0  0  0  0
  -23.7529  -30.6036   19.4082 H   0  0  0  0  0  0
  -22.7490  -29.2607   19.8647 H   0  0  0  0  0  0
  -25.1235  -36.1982   25.0826 H   0  0  0  0  0  0
  -20.9979  -28.3235   24.1355 H   0  0  0  0  0  0
  -20.5657  -26.2290   23.3559 H   0  0  0  0  0  0
  -21.6610  -26.7407   22.1184 H   0  0  0  0  0  0
  -19.6903  -25.6271   21.1199 H   0  0  0  0  0  0
  -19.6666  -27.3153   20.6699 H   0  0  0  0  0  0
  -17.4190  -26.6698   21.3965 H   0  0  0  0  0  0
  -18.0287  -26.0030   22.8968 H   0  0  0  0  0  0
  -19.7963  -30.7259   24.2188 H   0  0  0  0  0  0
  -17.5046  -31.6233   24.5138 H   0  0  0  0  0  0
  -15.5357  -30.2935   23.7709 H   0  0  0  0  0  0
  -15.8682  -28.0766   22.7131 H   0  0  0  0  0  0
  -24.5936  -30.7014   25.7846 H   0  0  0  0  0  0
  -24.8882  -32.2830   26.4949 H   0  0  0  0  0  0
  -25.8087  -30.8895   27.0277 H   0  0  0  0  0  0
  -26.2959  -29.6781   24.1191 H   0  0  0  0  0  0
  -27.4173  -29.7315   25.4631 H   0  0  0  0  0  0
  -27.8762  -30.4434   23.9317 H   0  0  0  0  0  0
  -27.2726  -33.3686   26.2034 H   0  0  0  0  0  0
  -28.3905  -32.6829   25.0360 H   0  0  0  0  0  0
  -28.0683  -31.8495   26.5507 H   0  0  0  0  0  0
  -28.2566  -38.0085   24.7578 H   0  0  0  0  0  0
  -28.1061  -36.2642   24.6255 H   0  0  0  0  0  0
  -27.2304  -37.1365   25.8877 H   0  0  0  0  0  0
  -20.9389  -29.8878   21.6971 H   0  0  0  0  0  0
  -26.0170  -38.2844   24.1486 H   0  0  0  0  0  0
  -30.4061  -24.3911   21.7869 H   0  0  0  0  0  0
  -31.3816  -21.7860   24.3388 H   0  0  0  0  0  0
  -32.8513  -20.9014   23.6784 H   0  0  0  0  0  0
  -33.6296  -23.1084   22.7030 H   0  0  0  0  0  0
  -32.1116  -23.8850   23.4028 H   0  0  0  0  0  0
  -29.6809  -20.3598   23.8789 H   0  0  0  0  0  0
  -28.2021  -20.7818   23.0361 H   0  0  0  0  0  0
  -32.3211  -21.4933   21.3307 H   0  0  0  0  0  0
  -27.1423  -18.8066   21.6829 H   0  0  0  0  0  0
  -29.0871  -18.0503   23.9172 H   0  0  0  0  0  0
  -28.9182  -18.5894   20.2172 H   0  0  0  0  0  0
  -26.5976  -23.7655   18.9125 H   0  0  0  0  0  0
  -25.9433  -22.2957   19.6165 H   0  0  0  0  0  0
  -27.0539  -22.2273   18.2503 H   0  0  0  0  0  0
  -27.9499  -16.1035   22.8160 H   0  0  0  0  0  0
  -27.4114  -16.3220   21.1367 H   0  0  0  0  0  0
  -26.3407  -16.7076   22.4631 H   0  0  0  0  0  0
  -27.9058  -25.3782   21.9615 H   0  0  0  0  0  0
  -26.8171  -24.9337   20.7542 H   0  0  0  0  0  0
  -30.8019  -17.2981   22.2889 H   0  0  0  0  0  0
  -31.1016  -17.5051   20.5972 H   0  0  0  0  0  0
  -28.9874  -15.5648   21.4177 H   0  0  0  0  0  0
  -26.4172  -19.2696   23.9899 H   0  0  0  0  0  0
  -27.4738  -19.3903   25.2226 H   0  0  0  0  0  0
  -26.9453  -17.9319   24.7623 H   0  0  0  0  0  0
  1 25  1  0  0  0
  1 30  2  0  0  0
  1 89  1  0  0  0
  2  3  1  0  0  0
  2 25  1  0  0  0
  2 91  1  0  0  0
  2 92  1  0  0  0
  3  4  1  0  0  0
  3 93  1  0  0  0
  3 94  1  0  0  0
  4  5  1  0  0  0
  4 95  1  0  0  0
  4 96  1  0  0  0
  5  6  1  0  0  0
  5 26  1  0  0  0
  5 97  1  0  0  0
  6 25  1  0  0  0
  6 98  1  0  0  0
  6 99  1  0  0  0
  7  8  2  0  0  0
  7 26  1  0  0  0
  7 29  1  0  0  0
  8  9  1  0  0  0
  8 22  1  0  0  0
  9 10  1  0  0  0
  9 27  2  0  0  0
 10 11  2  0  0  0
 10 15  1  0  0  0
 11 12  1  0  0  0
 11100  1  0  0  0
 12 13  2  0  0  0
 12101  1  0  0  0
 13 14  1  0  0  0
 13 31  1  0  0  0
 14 15  2  0  0  0
 14102  1  0  0  0
 15103  1  0  0  0
 16 17  2  0  0  0
 16 21  1  0  0  0
 16 31  1  0  0  0
 17 18  1  0  0  0
 17104  1  0  0  0
 18 19  2  0  0  0
 18105  1  0  0  0
 19 20  1  0  0  0
 19 24  1  0  0  0
 20 21  2  0  0  0
 20106  1  0  0  0
 21 23  1  0  0  0
 22 28  1  0  0  0
 22 32  2  0  0  0
 26 27  1  0  0  0
 28107  1  0  0  0
 28108  1  0  0  0
 29109  1  0  0  0
 29110  1  0  0  0
 33 34  1  0  0  0
 33 66  1  0  0  0
 33 70  2  0  0  0
 34 36  1  0  0  0
 34 59  1  0  0  0
 34111  1  0  0  0
 35 44  2  0  0  0
 35 45  1  0  0  0
 35 68  1  0  0  0
 36 56  1  0  0  0
 36112  1  0  0  0
 37 39  1  0  0  0
 37 47  1  0  0  0
 37 66  1  0  0  0
 37113  1  0  0  0
 38 43  2  0  0  0
 38 46  1  0  0  0
 38 47  1  0  0  0
 39 64  1  0  0  0
 39 67  2  0  0  0
 40 52  1  0  0  0
 40 53  2  0  0  0
 40 58  1  0  0  0
 41114  1  0  0  0
 41115  1  0  0  0
 41116  1  0  0  0
 41 48  1  0  0  0
 42 43  1  0  0  0
 42 66  1  0  0  0
 42117  1  0  0  0
 42118  1  0  0  0
 43 44  1  0  0  0
 44119  1  0  0  0
 45 46  2  0  0  0
 45120  1  0  0  0
 46121  1  0  0  0
 47122  1  0  0  0
 47123  1  0  0  0
 48 56  1  0  0  0
 48 65  1  0  0  0
 48124  1  0  0  0
 49 50  1  0  0  0
 49 53  1  0  0  0
 49 64  1  0  0  0
 49125  1  0  0  0
 50 51  1  0  0  0
 50126  1  0  0  0
 50127  1  0  0  0
 51 52  1  0  0  0
 51128  1  0  0  0
 51129  1  0  0  0
 52130  1  0  0  0
 52131  1  0  0  0
 53 54  1  0  0  0
 54 55  2  0  0  0
 54132  1  0  0  0
 55 57  1  0  0  0
 55133  1  0  0  0
 56 69  2  0  0  0
 57 58  2  0  0  0
 57134  1  0  0  0
 58135  1  0  0  0
 59 60  1  0  0  0
 59 61  1  0  0  0
 59 62  1  0  0  0
 60136  1  0  0  0
 60137  1  0  0  0
 60138  1  0  0  0
 61139  1  0  0  0
 61140  1  0  0  0
 61141  1  0  0  0
 62142  1  0  0  0
 62143  1  0  0  0
 62144  1  0  0  0
 63 65  1  0  0  0
 63145  1  0  0  0
 63146  1  0  0  0
 63147  1  0  0  0
 64148  1  0  0  0
 65149  1  0  0  0
 68 85  1  0  0  0
 71 72  2  0  0  0
 71 73  1  0  0  0
 71150  1  0  0  0
 72 75  1  0  0  0
 72 79  1  0  0  0
 73 74  2  0  0  0
 73 85  1  0  0  0
 74 83  1  0  0  0
 74 87  1  0  0  0
 75 87  2  0  0  0
 75 88  1  0  0  0
 76 77  1  0  0  0
 76 79  1  0  0  0
 76151  1  0  0  0
 76152  1  0  0  0
 77 79  1  0  0  0
 77153  1  0  0  0
 77154  1  0  0  0
 78 81  1  0  0  0
 78 88  1  0  0  0
 78155  1  0  0  0
 78156  1  0  0  0
 79157  1  0  0  0
 80 81  1  0  0  0
 80 82  1  0  0  0
 80 84  1  0  0  0
 80158  1  0  0  0
 81 90  1  0  0  0
 81159  1  0  0  0
 82 86  1  0  0  0
 82 88  1  0  0  0
 82160  1  0  0  0
 83161  1  0  0  0
 83162  1  0  0  0
 83163  1  0  0  0
 84164  1  0  0  0
 84165  1  0  0  0
 84166  1  0  0  0
 85167  1  0  0  0
 85168  1  0  0  0
 86 89  1  0  0  0
 86169  1  0  0  0
 86170  1  0  0  0
 89171  1  0  0  0
 90172  1  0  0  0
 90173  1  0  0  0
 90174  1  0  0  0
M  CHG  1  90   1
M  ISO  4   1 100  68 101  85 101  89 100
M  END
> <chiral flag>
0

> <version>
0

> <s_m_source_file>
/data/baiqing/PycharmProjects/Reinvent-master-3.2/result/LINK_invent/BTK/process_docking_weight1_custom_sum_contain_oxygen_bond_distance_aromatic_linkinvent_7_9_3/rearranged_h_0170.sdf

> <i_m_source_file_index>
25

> <r_mmod_Potential_Energy-OPLS-2005>
-157.275802612305

> <r_mmod_Stretch_Energy-OPLS-2005>
107.790481567383

> <r_mmod_Bend_Energy-OPLS-2005>
211.654083251953

> <r_mmod_Torsional_Energy-OPLS-2005>
395.161376953125

> <r_mmod_Improper_Torsional_Energy-OPLS-2005>
14.6733055114746

> <r_mmod_Van_der_Waal_Energy-OPLS-2005>
148.970626831055

> <r_mmod_Electrostatic_Energy-OPLS-2005>
-583.404907226562

> <r_mmod_Solvation_Energy-OPLS-2005>
-523.561889648438

> <b_mmod_Minimization_Converged-OPLS-2005>
0

> <r_mmod_RMS_Derivative-OPLS-2005>
9.83629894256592

$$$$
25
                    3D
 Structure written by MMmdl.
160170  0  0  1  0            999 V2000
  -30.5540  -14.7805   20.4610 C   0  0  0  0  0  0
  -30.4441  -12.4801   19.4461 C   0  0  0  0  0  0
  -29.5079  -12.5012   18.2160 C   0  0  0  0  0  0
  -28.0374  -12.3086   18.6439 C   0  0  0  0  0  0
  -27.6370  -13.2186   19.8354 C   0  0  2  0  0  0
  -28.6867  -13.1535   20.9638 C   0  0  0  0  0  0
  -25.2532  -13.8157   20.5656 C   0  0  0  0  0  0
  -24.1817  -13.0432   20.9184 C   0  0  0  0  0  0
  -24.6382  -11.6904   20.8731 C   0  0  0  0  0  0
  -23.9058  -10.4296   21.0399 C   0  0  0  0  0  0
  -24.3629   -9.4219   21.9170 C   0  0  0  0  0  0
  -23.6308   -8.2253   22.0747 C   0  0  0  0  0  0
  -22.4280   -8.0286   21.3545 C   0  0  0  0  0  0
  -21.9913   -9.0253   20.4639 C   0  0  0  0  0  0
  -22.7233  -10.2138   20.3039 C   0  0  0  0  0  0
  -21.6867   -6.0731   22.5264 C   0  0  0  0  0  0
  -21.4024   -6.5632   23.8198 C   0  0  0  0  0  0
  -21.3653   -5.6780   24.9155 C   0  0  0  0  0  0
  -21.6050   -4.3048   24.7200 C   0  0  0  0  0  0
  -21.8819   -3.8138   23.4321 C   0  0  0  0  0  0
  -21.9207   -4.6961   22.3384 C   0  0  0  0  0  0
  -22.7836  -13.5228   21.1853 C   0  0  0  0  0  0
  -22.1669   -4.2151   21.0962 F   0  0  0  0  0  0
  -21.5640   -3.4528   25.7715 F   0  0  0  0  0  0
  -29.9734  -13.5353   20.3684 N   0  0  0  0  0  0
  -26.2919  -12.9329   20.3198 N   0  0  0  0  0  0
  -25.9293  -11.6490   20.5702 N   0  0  0  0  0  0
  -22.0498  -12.8221   22.0426 N   0  0  0  0  0  0
  -25.4242  -15.1881   20.4075 N   0  0  0  0  0  0
  -31.7668  -14.9122   20.2820 O   0  0  0  0  0  0
  -21.6651   -6.8877   21.4225 O   0  0  0  0  0  0
  -22.3525  -14.5531   20.6697 O   0  0  0  0  0  0
  -24.6317  -31.8511   23.1960 C   0  0  0  0  0  0
  -25.9137  -32.4732   23.8314 C   0  0  1  0  0  0
  -27.2345  -27.2470   20.1534 C   0  0  0  0  0  0
  -25.5917  -33.8538   24.2240 N   0  0  0  0  0  0
  -23.4305  -30.4700   21.5374 C   0  0  2  0  0  0
  -24.8816  -28.9009   20.1236 C   0  0  0  0  0  0
  -22.7494  -29.4582   22.4900 C   0  0  0  0  0  0
  -18.0291  -28.1384   22.8480 C   0  0  0  0  0  0
  -24.1486  -36.7282   23.2646 C   0  0  0  0  0  0
  -25.9754  -30.7637   21.3726 C   0  0  0  0  0  0
  -26.0518  -29.3785   20.7265 C   0  0  0  0  0  0
  -27.2326  -28.5680   20.7205 C   0  0  0  0  0  0
  -26.0406  -26.8269   19.5347 C   0  0  0  0  0  0
  -24.8813  -27.6324   19.5177 C   0  0  0  0  0  0
  -23.6524  -29.7911   20.1583 C   0  0  0  0  0  0
  -25.4112  -36.3058   24.0326 C   0  0  1  0  0  0
  -20.5893  -28.3700   23.1268 C   0  0  2  0  0  0
  -20.6772  -26.9410   22.5412 C   0  0  0  0  0  0
  -19.5756  -26.6380   21.5213 C   0  0  0  0  0  0
  -18.1939  -26.7926   22.1620 C   0  0  0  0  0  0
  -19.1543  -28.8862   23.2872 C   0  0  0  0  0  0
  -18.9467  -30.1459   23.8888 C   0  0  0  0  0  0
  -17.6464  -30.6587   24.0567 C   0  0  0  0  0  0
  -25.9052  -34.9426   23.5094 C   0  0  0  0  0  0
  -16.5357  -29.9080   23.6333 C   0  0  0  0  0  0
  -16.7277  -28.6503   23.0350 C   0  0  0  0  0  0
  -26.4506  -31.6567   25.0706 C   0  0  0  0  0  0
  -25.3737  -31.3717   26.1428 C   0  0  0  0  0  0
  -27.0357  -30.2983   24.6201 C   0  0  0  0  0  0
  -27.6050  -32.4310   25.7484 C   0  0  0  0  0  0
  -27.5572  -37.1796   24.8469 C   0  0  0  0  0  0
  -21.4203  -29.3044   22.3645 N   0  0  0  0  0  0
  -26.4289  -37.3750   23.9405 N   0  0  0  0  0  0
  -24.6980  -31.0473   22.0923 N   0  0  0  0  0  0
  -23.4184  -28.8130   23.3020 O   0  0  0  0  0  0
  -28.3701  -26.4088   20.0945 O   0  0  0  0  0  0
  -26.5631  -34.8901   22.4664 O   0  0  0  0  0  0
  -23.5463  -32.1333   23.7252 O   0  0  0  0  0  0
  -31.7048  -20.4273   20.5976 C   0  0  0  0  0  0
  -30.7076  -21.4057   20.4178 C   0  0  0  0  0  0
  -31.3752  -19.0615   20.7615 C   0  0  0  0  0  0
  -29.3586  -21.0297   20.3536 C   0  0  0  0  0  0
  -30.0119  -18.6769   20.7098 C   0  0  0  0  0  0
  -32.6434  -17.4335   22.3950 C   0  0  0  0  0  0
  -33.6730  -18.4152   21.9051 C   0  0  0  0  0  0
  -28.5597  -23.0470   18.8108 C   0  0  0  0  0  0
  -32.4787  -18.0740   21.0336 C   0  0  0  0  0  0
  -28.2326  -22.0829   19.9446 C   0  0  2  0  0  0
  -27.8823  -23.6802   19.9943 C   0  0  2  0  0  0
  -29.5951  -17.2077   21.2110 C   0  0  0  0  0  0
  -28.4391  -25.0140   20.6775 C   0  0  0  0  0  0
  -29.0463  -19.6696   20.4981 N   0  0  0  0  0  0
  -29.6818  -15.8598   20.4838 N   0  0  0  0  0  0
  -31.4798  -12.6388   19.1408 H   0  0  0  0  0  0
  -30.4168  -11.5037   19.9319 H   0  0  0  0  0  0
  -29.7978  -11.7221   17.5076 H   0  0  0  0  0  0
  -29.6148  -13.4493   17.6875 H   0  0  0  0  0  0
  -27.9194  -11.2620   18.9285 H   0  0  0  0  0  0
  -27.3663  -12.4712   17.8001 H   0  0  0  0  0  0
  -27.6230  -14.2340   19.4429 H   0  0  0  0  0  0
  -28.7422  -12.1494   21.3884 H   0  0  0  0  0  0
  -28.4189  -13.8231   21.7850 H   0  0  0  0  0  0
  -25.2782   -9.5711   22.4728 H   0  0  0  0  0  0
  -24.0029   -7.4647   22.7459 H   0  0  0  0  0  0
  -21.0847   -8.8755   19.8944 H   0  0  0  0  0  0
  -22.3676  -10.9672   19.6151 H   0  0  0  0  0  0
  -21.2008   -7.6139   23.9695 H   0  0  0  0  0  0
  -21.1483   -6.0507   25.9058 H   0  0  0  0  0  0
  -22.0613   -2.7605   23.2809 H   0  0  0  0  0  0
  -22.4133  -11.9893   22.4815 H   0  0  0  0  0  0
  -21.1104  -13.1212   22.2601 H   0  0  0  0  0  0
  -24.6555  -15.8386   20.5298 H   0  0  0  0  0  0
  -26.2604  -15.6363   20.0574 H   0  0  0  0  0  0
  -26.7200  -32.5383   23.1048 H   0  0  0  0  0  0
  -25.0041  -33.9663   25.0370 H   0  0  0  0  0  0
  -22.7297  -31.2934   21.3833 H   0  0  0  0  0  0
  -23.3730  -35.9633   23.3315 H   0  0  0  0  0  0
  -24.3591  -36.8900   22.2066 H   0  0  0  0  0  0
  -23.7261  -37.6493   23.6665 H   0  0  0  0  0  0
  -26.1086  -31.5202   20.5977 H   0  0  0  0  0  0
  -26.8540  -30.8219   22.0031 H   0  0  0  0  0  0
  -28.1385  -28.9434   21.1757 H   0  0  0  0  0  0
  -26.0046  -25.8611   19.0525 H   0  0  0  0  0  0
  -23.9853  -27.2591   19.0413 H   0  0  0  0  0  0
  -23.7810  -30.5612   19.3967 H   0  0  0  0  0  0
  -22.7702  -29.2255   19.8533 H   0  0  0  0  0  0
  -25.1295  -36.1907   25.0819 H   0  0  0  0  0  0
  -21.0003  -28.3280   24.1381 H   0  0  0  0  0  0
  -20.5685  -26.2304   23.3614 H   0  0  0  0  0  0
  -21.6641  -26.7431   22.1207 H   0  0  0  0  0  0
  -19.6925  -25.6296   21.1240 H   0  0  0  0  0  0
  -19.6698  -27.3189   20.6747 H   0  0  0  0  0  0
  -17.4204  -26.6674   21.4019 H   0  0  0  0  0  0
  -18.0338  -26.0065   22.9021 H   0  0  0  0  0  0
  -19.7947  -30.7285   24.2241 H   0  0  0  0  0  0
  -17.5021  -31.6267   24.5167 H   0  0  0  0  0  0
  -15.5359  -30.2985   23.7666 H   0  0  0  0  0  0
  -15.8676  -28.0832   22.7056 H   0  0  0  0  0  0
  -24.5909  -30.7062   25.7763 H   0  0  0  0  0  0
  -24.8929  -32.2889   26.4843 H   0  0  0  0  0  0
  -25.8061  -30.8905   27.0212 H   0  0  0  0  0  0
  -26.2948  -29.6711   24.1228 H   0  0  0  0  0  0
  -27.4040  -29.7259   25.4729 H   0  0  0  0  0  0
  -27.8819  -30.4247   23.9441 H   0  0  0  0  0  0
  -27.2647  -33.3608   26.2051 H   0  0  0  0  0  0
  -28.3866  -32.6877   25.0323 H   0  0  0  0  0  0
  -28.0705  -31.8446   26.5414 H   0  0  0  0  0  0
  -28.2590  -38.0088   24.7481 H   0  0  0  0  0  0
  -28.1055  -36.2614   24.6320 H   0  0  0  0  0  0
  -27.2290  -37.1484   25.8872 H   0  0  0  0  0  0
  -20.9384  -29.8754   21.6835 H   0  0  0  0  0  0
  -26.0161  -38.2822   24.1387 H   0  0  0  0  0  0
  -32.7395  -20.7409   20.6273 H   0  0  0  0  0  0
  -30.9948  -22.4404   20.2952 H   0  0  0  0  0  0
  -32.0029  -17.7704   23.2068 H   0  0  0  0  0  0
  -32.9275  -16.3839   22.4257 H   0  0  0  0  0  0
  -34.6437  -17.9971   21.6439 H   0  0  0  0  0  0
  -33.7023  -19.3739   22.4213 H   0  0  0  0  0  0
  -27.9871  -22.9484   17.8905 H   0  0  0  0  0  0
  -29.6005  -23.3270   18.6601 H   0  0  0  0  0  0
  -32.6739  -17.4602   20.1565 H   0  0  0  0  0  0
  -27.3313  -21.4859   19.8181 H   0  0  0  0  0  0
  -26.8141  -23.8230   19.8532 H   0  0  0  0  0  0
  -28.5378  -17.2963   21.4578 H   0  0  0  0  0  0
  -30.0470  -17.0568   22.1894 H   0  0  0  0  0  0
  -29.4946  -24.8379   20.8861 H   0  0  0  0  0  0
  -27.9723  -25.0754   21.6609 H   0  0  0  0  0  0
  -28.7521  -15.5447   20.2608 H   0  0  0  0  0  0
  1 25  1  0  0  0
  1 30  2  0  0  0
  1 85  1  0  0  0
  2  3  1  0  0  0
  2 25  1  0  0  0
  2 86  1  0  0  0
  2 87  1  0  0  0
  3  4  1  0  0  0
  3 88  1  0  0  0
  3 89  1  0  0  0
  4  5  1  0  0  0
  4 90  1  0  0  0
  4 91  1  0  0  0
  5  6  1  0  0  0
  5 26  1  0  0  0
  5 92  1  0  0  0
  6 25  1  0  0  0
  6 93  1  0  0  0
  6 94  1  0  0  0
  7  8  2  0  0  0
  7 26  1  0  0  0
  7 29  1  0  0  0
  8  9  1  0  0  0
  8 22  1  0  0  0
  9 10  1  0  0  0
  9 27  2  0  0  0
 10 11  2  0  0  0
 10 15  1  0  0  0
 11 12  1  0  0  0
 11 95  1  0  0  0
 12 13  2  0  0  0
 12 96  1  0  0  0
 13 14  1  0  0  0
 13 31  1  0  0  0
 14 15  2  0  0  0
 14 97  1  0  0  0
 15 98  1  0  0  0
 16 17  2  0  0  0
 16 21  1  0  0  0
 16 31  1  0  0  0
 17 18  1  0  0  0
 17 99  1  0  0  0
 18 19  2  0  0  0
 18100  1  0  0  0
 19 20  1  0  0  0
 19 24  1  0  0  0
 20 21  2  0  0  0
 20101  1  0  0  0
 21 23  1  0  0  0
 22 28  1  0  0  0
 22 32  2  0  0  0
 26 27  1  0  0  0
 28102  1  0  0  0
 28103  1  0  0  0
 29104  1  0  0  0
 29105  1  0  0  0
 33 34  1  0  0  0
 33 66  1  0  0  0
 33 70  2  0  0  0
 34 36  1  0  0  0
 34 59  1  0  0  0
 34106  1  0  0  0
 35 44  2  0  0  0
 35 45  1  0  0  0
 35 68  1  0  0  0
 36 56  1  0  0  0
 36107  1  0  0  0
 37 39  1  0  0  0
 37 47  1  0  0  0
 37 66  1  0  0  0
 37108  1  0  0  0
 38 43  2  0  0  0
 38 46  1  0  0  0
 38 47  1  0  0  0
 39 64  1  0  0  0
 39 67  2  0  0  0
 40 52  1  0  0  0
 40 53  2  0  0  0
 40 58  1  0  0  0
 41109  1  0  0  0
 41110  1  0  0  0
 41111  1  0  0  0
 41 48  1  0  0  0
 42 43  1  0  0  0
 42 66  1  0  0  0
 42112  1  0  0  0
 42113  1  0  0  0
 43 44  1  0  0  0
 44114  1  0  0  0
 45 46  2  0  0  0
 45115  1  0  0  0
 46116  1  0  0  0
 47117  1  0  0  0
 47118  1  0  0  0
 48 56  1  0  0  0
 48 65  1  0  0  0
 48119  1  0  0  0
 49 50  1  0  0  0
 49 53  1  0  0  0
 49 64  1  0  0  0
 49120  1  0  0  0
 50 51  1  0  0  0
 50121  1  0  0  0
 50122  1  0  0  0
 51 52  1  0  0  0
 51123  1  0  0  0
 51124  1  0  0  0
 52125  1  0  0  0
 52126  1  0  0  0
 53 54  1  0  0  0
 54 55  2  0  0  0
 54127  1  0  0  0
 55 57  1  0  0  0
 55128  1  0  0  0
 56 69  2  0  0  0
 57 58  2  0  0  0
 57129  1  0  0  0
 58130  1  0  0  0
 59 60  1  0  0  0
 59 61  1  0  0  0
 59 62  1  0  0  0
 60131  1  0  0  0
 60132  1  0  0  0
 60133  1  0  0  0
 61134  1  0  0  0
 61135  1  0  0  0
 61136  1  0  0  0
 62137  1  0  0  0
 62138  1  0  0  0
 62139  1  0  0  0
 63 65  1  0  0  0
 63140  1  0  0  0
 63141  1  0  0  0
 63142  1  0  0  0
 64143  1  0  0  0
 65144  1  0  0  0
 68 83  1  0  0  0
 71 72  2  0  0  0
 71 73  1  0  0  0
 71145  1  0  0  0
 72 74  1  0  0  0
 72146  1  0  0  0
 73 75  2  0  0  0
 73 79  1  0  0  0
 74 84  2  0  0  0
 74 80  1  0  0  0
 75 82  1  0  0  0
 75 84  1  0  0  0
 76 77  1  0  0  0
 76 79  1  0  0  0
 76147  1  0  0  0
 76148  1  0  0  0
 77 79  1  0  0  0
 77149  1  0  0  0
 77150  1  0  0  0
 78 80  1  0  0  0
 78 81  1  0  0  0
 78151  1  0  0  0
 78152  1  0  0  0
 79153  1  0  0  0
 80 81  1  0  0  0
 80154  1  0  0  0
 81 83  1  0  0  0
 81155  1  0  0  0
 82 85  1  0  0  0
 82156  1  0  0  0
 82157  1  0  0  0
 83158  1  0  0  0
 83159  1  0  0  0
 85160  1  0  0  0
M  ISO  4   1 100  68 101  83 101  85 100
M  END
> <chiral flag>
0

> <version>
0

> <s_m_source_file>
/data/baiqing/PycharmProjects/Reinvent-master-3.2/result/LINK_invent/BTK/process_docking_weight1_custom_sum_contain_oxygen_bond_distance_aromatic_linkinvent_7_9_3/rearranged_h_0170.sdf

> <i_m_source_file_index>
26

> <r_mmod_Potential_Energy-OPLS-2005>
118.972282409668

> <r_mmod_Stretch_Energy-OPLS-2005>
142.847091674805

> <r_mmod_Bend_Energy-OPLS-2005>
271.826232910156

> <r_mmod_Torsional_Energy-OPLS-2005>
307.779998779297

> <r_mmod_Improper_Torsional_Energy-OPLS-2005>
10.8891534805298

> <r_mmod_Van_der_Waal_Energy-OPLS-2005>
123.602653503418

> <r_mmod_Electrostatic_Energy-OPLS-2005>
-612.881591796875

> <r_mmod_Solvation_Energy-OPLS-2005>
-222.080123901367

> <b_mmod_Minimization_Converged-OPLS-2005>
0

> <r_mmod_RMS_Derivative-OPLS-2005>
2.53231382369995

$$$$
26
                    3D
 Structure written by MMmdl.
156165  0  0  1  0            999 V2000
  -30.6124  -14.9787   20.4205 C   0  0  0  0  0  0
  -30.4161  -12.6212   19.4998 C   0  0  0  0  0  0
  -29.5079  -12.5286   18.2546 C   0  0  0  0  0  0
  -28.0466  -12.3124   18.6821 C   0  0  0  0  0  0
  -27.6178  -13.2652   19.8291 C   0  0  2  0  0  0
  -28.6628  -13.3582   20.9627 C   0  0  0  0  0  0
  -25.2408  -13.8261   20.5761 C   0  0  0  0  0  0
  -24.1741  -13.0459   20.9252 C   0  0  0  0  0  0
  -24.6387  -11.6946   20.8763 C   0  0  0  0  0  0
  -23.9087  -10.4302   21.0404 C   0  0  0  0  0  0
  -24.3633   -9.4217   21.9178 C   0  0  0  0  0  0
  -23.6300   -8.2250   22.0745 C   0  0  0  0  0  0
  -22.4278   -8.0292   21.3542 C   0  0  0  0  0  0
  -21.9928   -9.0263   20.4634 C   0  0  0  0  0  0
  -22.7261  -10.2142   20.3046 C   0  0  0  0  0  0
  -21.6856   -6.0742   22.5278 C   0  0  0  0  0  0
  -21.4018   -6.5643   23.8216 C   0  0  0  0  0  0
  -21.3658   -5.6788   24.9172 C   0  0  0  0  0  0
  -21.6043   -4.3053   24.7213 C   0  0  0  0  0  0
  -21.8812   -3.8152   23.4334 C   0  0  0  0  0  0
  -21.9191   -4.6972   22.3397 C   0  0  0  0  0  0
  -22.7762  -13.5209   21.1905 C   0  0  0  0  0  0
  -22.1656   -4.2160   21.0976 F   0  0  0  0  0  0
  -21.5630   -3.4539   25.7727 F   0  0  0  0  0  0
  -29.9259  -13.7628   20.3354 N   0  0  0  0  0  0
  -26.2844  -12.9524   20.3261 N   0  0  0  0  0  0
  -25.9327  -11.6641   20.5757 N   0  0  0  0  0  0
  -22.0418  -12.8167   22.0449 N   0  0  0  0  0  0
  -25.4079  -15.1988   20.4204 N   0  0  0  0  0  0
  -31.8243  -14.9145   20.1912 O   0  0  0  0  0  0
  -21.6645   -6.8886   21.4240 O   0  0  0  0  0  0
  -22.3431  -14.5514   20.6761 O   0  0  0  0  0  0
  -24.6481  -31.8416   23.1844 C   0  0  0  0  0  0
  -25.9242  -32.4700   23.8238 C   0  0  1  0  0  0
  -27.2091  -27.0963   20.1671 C   0  0  0  0  0  0
  -25.5977  -33.8505   24.2160 N   0  0  0  0  0  0
  -23.4530  -30.4598   21.5315 C   0  0  2  0  0  0
  -24.9015  -28.8770   20.1132 C   0  0  0  0  0  0
  -22.7591  -29.4541   22.4852 C   0  0  0  0  0  0
  -18.0304  -28.1431   22.8465 C   0  0  0  0  0  0
  -24.1483  -36.7251   23.2635 C   0  0  0  0  0  0
  -26.0125  -30.7026   21.3873 C   0  0  0  0  0  0
  -26.0813  -29.3082   20.7336 C   0  0  0  0  0  0
  -27.2396  -28.4362   20.7401 C   0  0  0  0  0  0
  -26.0074  -26.7777   19.5004 C   0  0  0  0  0  0
  -24.8796  -27.6272   19.4774 C   0  0  0  0  0  0
  -23.6791  -29.7835   20.1531 C   0  0  0  0  0  0
  -25.4113  -36.3030   24.0311 C   0  0  1  0  0  0
  -20.5912  -28.3748   23.1240 C   0  0  2  0  0  0
  -20.6797  -26.9456   22.5401 C   0  0  0  0  0  0
  -19.5764  -26.6387   21.5227 C   0  0  0  0  0  0
  -18.1933  -26.7967   22.1613 C   0  0  0  0  0  0
  -19.1562  -28.8906   23.2838 C   0  0  0  0  0  0
  -18.9484  -30.1501   23.8867 C   0  0  0  0  0  0
  -17.6485  -30.6626   24.0558 C   0  0  0  0  0  0
  -25.9076  -34.9420   23.5035 C   0  0  0  0  0  0
  -16.5370  -29.9114   23.6361 C   0  0  0  0  0  0
  -16.7288  -28.6534   23.0367 C   0  0  0  0  0  0
  -26.4533  -31.6601   25.0713 C   0  0  0  0  0  0
  -25.3685  -31.3831   26.1392 C   0  0  0  0  0  0
  -27.0404  -30.2991   24.6320 C   0  0  0  0  0  0
  -27.6062  -32.4372   25.7493 C   0  0  0  0  0  0
  -27.5579  -37.1754   24.8445 C   0  0  0  0  0  0
  -21.4275  -29.3075   22.3621 N   0  0  0  0  0  0
  -26.4255  -37.3760   23.9443 N   0  0  0  0  0  0
  -24.7261  -31.0220   22.0902 N   0  0  0  0  0  0
  -23.4226  -28.8089   23.3020 O   0  0  0  0  0  0
  -28.2308  -26.0687   20.1920 O   0  0  0  0  0  0
  -26.5649  -34.8921   22.4608 O   0  0  0  0  0  0
  -23.5589  -32.1299   23.7044 O   0  0  0  0  0  0
  -27.9739  -20.6055   20.0135 C   0  0  0  0  0  0
  -29.2286  -20.1197   20.5027 C   0  0  0  0  0  0
  -27.5977  -22.0139   19.9544 C   0  0  0  0  0  0
  -30.0388  -21.2683   20.8684 C   0  0  0  0  0  0
  -28.4479  -23.0953   20.3949 C   0  0  0  0  0  0
  -28.8285  -17.1166   20.7858 C   0  0  0  0  0  0
  -30.6266  -17.5862   19.8411 C   0  0  0  0  0  0
  -29.6483  -18.4985   20.6845 C   0  0  0  0  0  0
  -26.2015  -22.3335   19.4458 C   0  0  0  0  0  0
  -31.4666  -21.0594   21.3466 C   0  0  0  0  0  0
  -27.8839  -24.6433   20.7461 C   0  0  0  0  0  0
  -29.6669  -22.6239   20.8379 N   0  0  0  0  0  0
  -30.0254  -16.2922   20.3547 N   0  0  0  0  0  0
  -31.4527  -12.7430   19.1821 H   0  0  0  0  0  0
  -30.3914  -11.6880   20.0666 H   0  0  0  0  0  0
  -29.8341  -11.7151   17.6047 H   0  0  0  0  0  0
  -29.5903  -13.4451   17.6675 H   0  0  0  0  0  0
  -27.9554  -11.2767   19.0121 H   0  0  0  0  0  0
  -27.3779  -12.4181   17.8269 H   0  0  0  0  0  0
  -27.5603  -14.2552   19.3737 H   0  0  0  0  0  0
  -28.7632  -12.4080   21.4897 H   0  0  0  0  0  0
  -28.3565  -14.0996   21.7028 H   0  0  0  0  0  0
  -25.2779   -9.5696   22.4750 H   0  0  0  0  0  0
  -24.0008   -7.4644   22.7473 H   0  0  0  0  0  0
  -21.0860   -8.8782   19.8936 H   0  0  0  0  0  0
  -22.3723  -10.9680   19.6147 H   0  0  0  0  0  0
  -21.2011   -7.6147   23.9723 H   0  0  0  0  0  0
  -21.1487   -6.0516   25.9072 H   0  0  0  0  0  0
  -22.0590   -2.7616   23.2830 H   0  0  0  0  0  0
  -22.4053  -11.9822   22.4805 H   0  0  0  0  0  0
  -21.1040  -13.1176   22.2684 H   0  0  0  0  0  0
  -24.6426  -15.8549   20.5362 H   0  0  0  0  0  0
  -26.2611  -15.6363   20.0974 H   0  0  0  0  0  0
  -26.7300  -32.5294   23.0947 H   0  0  0  0  0  0
  -25.0206  -33.9616   25.0372 H   0  0  0  0  0  0
  -22.7567  -31.2860   21.3711 H   0  0  0  0  0  0
  -23.3785  -35.9539   23.3224 H   0  0  0  0  0  0
  -24.3566  -36.8965   22.2062 H   0  0  0  0  0  0
  -23.7184  -37.6401   23.6722 H   0  0  0  0  0  0
  -26.1662  -31.4500   20.6078 H   0  0  0  0  0  0
  -26.8844  -30.7579   22.0281 H   0  0  0  0  0  0
  -28.1380  -28.7604   21.2429 H   0  0  0  0  0  0
  -25.9175  -25.8197   19.0089 H   0  0  0  0  0  0
  -23.9819  -27.2941   18.9747 H   0  0  0  0  0  0
  -23.8155  -30.5535   19.3934 H   0  0  0  0  0  0
  -22.7934  -29.2236   19.8467 H   0  0  0  0  0  0
  -25.1291  -36.1816   25.0794 H   0  0  0  0  0  0
  -20.9995  -28.3340   24.1369 H   0  0  0  0  0  0
  -20.5727  -26.2373   23.3627 H   0  0  0  0  0  0
  -21.6654  -26.7481   22.1168 H   0  0  0  0  0  0
  -19.6934  -25.6282   21.1297 H   0  0  0  0  0  0
  -19.6714  -27.3160   20.6730 H   0  0  0  0  0  0
  -17.4212  -26.6750   21.3999 H   0  0  0  0  0  0
  -18.0287  -26.0115   22.9005 H   0  0  0  0  0  0
  -19.7960  -30.7328   24.2224 H   0  0  0  0  0  0
  -17.5031  -31.6306   24.5152 H   0  0  0  0  0  0
  -15.5367  -30.3008   23.7722 H   0  0  0  0  0  0
  -15.8676  -28.0845   22.7122 H   0  0  0  0  0  0
  -24.5864  -30.7180   25.7707 H   0  0  0  0  0  0
  -24.8869  -32.3042   26.4707 H   0  0  0  0  0  0
  -25.7919  -30.9072   27.0244 H   0  0  0  0  0  0
  -26.3034  -29.6720   24.1296 H   0  0  0  0  0  0
  -27.3993  -29.7292   25.4899 H   0  0  0  0  0  0
  -27.8941  -30.4258   23.9664 H   0  0  0  0  0  0
  -27.2689  -33.3763   26.1895 H   0  0  0  0  0  0
  -28.3964  -32.6788   25.0373 H   0  0  0  0  0  0
  -28.0611  -31.8600   26.5546 H   0  0  0  0  0  0
  -28.2515  -38.0136   24.7602 H   0  0  0  0  0  0
  -28.1159  -36.2669   24.6116 H   0  0  0  0  0  0
  -27.2312  -37.1203   25.8846 H   0  0  0  0  0  0
  -20.9509  -29.8809   21.6804 H   0  0  0  0  0  0
  -26.0117  -38.2811   24.1521 H   0  0  0  0  0  0
  -27.2511  -19.8677   19.6992 H   0  0  0  0  0  0
  -28.0018  -17.0621   20.0768 H   0  0  0  0  0  0
  -28.4701  -16.9024   21.7942 H   0  0  0  0  0  0
  -31.6773  -17.7339   20.0980 H   0  0  0  0  0  0
  -30.4930  -17.7066   18.7642 H   0  0  0  0  0  0
  -30.1114  -18.5475   21.6706 H   0  0  0  0  0  0
  -25.7534  -21.4747   18.9443 H   0  0  0  0  0  0
  -26.2281  -23.1537   18.7278 H   0  0  0  0  0  0
  -25.5459  -22.6121   20.2704 H   0  0  0  0  0  0
  -32.1358  -20.9402   20.4943 H   0  0  0  0  0  0
  -31.5663  -20.1811   21.9804 H   0  0  0  0  0  0
  -31.8197  -21.9135   21.9282 H   0  0  0  0  0  0
  -28.1191  -24.7447   21.8056 H   0  0  0  0  0  0
  -26.7987  -24.5672   20.7569 H   0  0  0  0  0  0
  1 25  1  0  0  0
  1 30  2  0  0  0
  1 83  1  0  0  0
  2  3  1  0  0  0
  2 25  1  0  0  0
  2 84  1  0  0  0
  2 85  1  0  0  0
  3  4  1  0  0  0
  3 86  1  0  0  0
  3 87  1  0  0  0
  4  5  1  0  0  0
  4 88  1  0  0  0
  4 89  1  0  0  0
  5  6  1  0  0  0
  5 26  1  0  0  0
  5 90  1  0  0  0
  6 25  1  0  0  0
  6 91  1  0  0  0
  6 92  1  0  0  0
  7  8  2  0  0  0
  7 26  1  0  0  0
  7 29  1  0  0  0
  8  9  1  0  0  0
  8 22  1  0  0  0
  9 10  1  0  0  0
  9 27  2  0  0  0
 10 11  2  0  0  0
 10 15  1  0  0  0
 11 12  1  0  0  0
 11 93  1  0  0  0
 12 13  2  0  0  0
 12 94  1  0  0  0
 13 14  1  0  0  0
 13 31  1  0  0  0
 14 15  2  0  0  0
 14 95  1  0  0  0
 15 96  1  0  0  0
 16 17  2  0  0  0
 16 21  1  0  0  0
 16 31  1  0  0  0
 17 18  1  0  0  0
 17 97  1  0  0  0
 18 19  2  0  0  0
 18 98  1  0  0  0
 19 20  1  0  0  0
 19 24  1  0  0  0
 20 21  2  0  0  0
 20 99  1  0  0  0
 21 23  1  0  0  0
 22 28  1  0  0  0
 22 32  2  0  0  0
 26 27  1  0  0  0
 28100  1  0  0  0
 28101  1  0  0  0
 29102  1  0  0  0
 29103  1  0  0  0
 33 34  1  0  0  0
 33 66  1  0  0  0
 33 70  2  0  0  0
 34 36  1  0  0  0
 34 59  1  0  0  0
 34104  1  0  0  0
 35 44  2  0  0  0
 35 45  1  0  0  0
 35 68  1  0  0  0
 36 56  1  0  0  0
 36105  1  0  0  0
 37 39  1  0  0  0
 37 47  1  0  0  0
 37 66  1  0  0  0
 37106  1  0  0  0
 38 43  2  0  0  0
 38 46  1  0  0  0
 38 47  1  0  0  0
 39 64  1  0  0  0
 39 67  2  0  0  0
 40 52  1  0  0  0
 40 53  2  0  0  0
 40 58  1  0  0  0
 41107  1  0  0  0
 41108  1  0  0  0
 41109  1  0  0  0
 41 48  1  0  0  0
 42 43  1  0  0  0
 42 66  1  0  0  0
 42110  1  0  0  0
 42111  1  0  0  0
 43 44  1  0  0  0
 44112  1  0  0  0
 45 46  2  0  0  0
 45113  1  0  0  0
 46114  1  0  0  0
 47115  1  0  0  0
 47116  1  0  0  0
 48 56  1  0  0  0
 48 65  1  0  0  0
 48117  1  0  0  0
 49 50  1  0  0  0
 49 53  1  0  0  0
 49 64  1  0  0  0
 49118  1  0  0  0
 50 51  1  0  0  0
 50119  1  0  0  0
 50120  1  0  0  0
 51 52  1  0  0  0
 51121  1  0  0  0
 51122  1  0  0  0
 52123  1  0  0  0
 52124  1  0  0  0
 53 54  1  0  0  0
 54 55  2  0  0  0
 54125  1  0  0  0
 55 57  1  0  0  0
 55126  1  0  0  0
 56 69  2  0  0  0
 57 58  2  0  0  0
 57127  1  0  0  0
 58128  1  0  0  0
 59 60  1  0  0  0
 59 61  1  0  0  0
 59 62  1  0  0  0
 60129  1  0  0  0
 60130  1  0  0  0
 60131  1  0  0  0
 61132  1  0  0  0
 61133  1  0  0  0
 61134  1  0  0  0
 62135  1  0  0  0
 62136  1  0  0  0
 62137  1  0  0  0
 63 65  1  0  0  0
 63138  1  0  0  0
 63139  1  0  0  0
 63140  1  0  0  0
 64141  1  0  0  0
 65142  1  0  0  0
 68 81  1  0  0  0
 71 72  2  0  0  0
 71 73  1  0  0  0
 71143  1  0  0  0
 72 74  1  0  0  0
 72 78  1  0  0  0
 73 75  2  0  0  0
 73 79  1  0  0  0
 74 80  1  0  0  0
 74 82  2  0  0  0
 75 81  1  0  0  0
 75 82  1  0  0  0
 76 78  1  0  0  0
 76 83  1  0  0  0
 76144  1  0  0  0
 76145  1  0  0  0
 77 78  1  0  0  0
 77 83  1  0  0  0
 77146  1  0  0  0
 77147  1  0  0  0
 78148  1  0  0  0
 79149  1  0  0  0
 79150  1  0  0  0
 79151  1  0  0  0
 80152  1  0  0  0
 80153  1  0  0  0
 80154  1  0  0  0
 81155  1  0  0  0
 81156  1  0  0  0
M  ISO  4   1 100  68 101  81 101  83 100
M  END
> <chiral flag>
0

> <version>
0

> <s_m_source_file>
/data/baiqing/PycharmProjects/Reinvent-master-3.2/result/LINK_invent/BTK/process_docking_weight1_custom_sum_contain_oxygen_bond_distance_aromatic_linkinvent_7_9_3/rearranged_h_0170.sdf

> <i_m_source_file_index>
27

> <r_mmod_Potential_Energy-OPLS-2005>
573.346862792969

> <r_mmod_Stretch_Energy-OPLS-2005>
258.842559814453

> <r_mmod_Bend_Energy-OPLS-2005>
337.974090576172

> <r_mmod_Torsional_Energy-OPLS-2005>
285.966217041016

> <r_mmod_Improper_Torsional_Energy-OPLS-2005>
14.0703182220459

> <r_mmod_Van_der_Waal_Energy-OPLS-2005>
129.776504516602

> <r_mmod_Electrostatic_Energy-OPLS-2005>
-453.026428222656

> <r_mmod_Solvation_Energy-OPLS-2005>
-226.617462158203

> <b_mmod_Minimization_Converged-OPLS-2005>
0

> <r_mmod_RMS_Derivative-OPLS-2005>
2.32081723213196

$$$$
27
                    3D
 Structure written by MMmdl.
165174  0  0  1  0            999 V2000
  -30.5288  -14.9961   20.4220 C   0  0  0  0  0  0
  -30.4446  -12.6261   19.4912 C   0  0  0  0  0  0
  -29.5235  -12.5340   18.2533 C   0  0  0  0  0  0
  -28.0607  -12.3040   18.6778 C   0  0  0  0  0  0
  -27.6265  -13.2477   19.8299 C   0  0  2  0  0  0
  -28.6702  -13.3029   20.9631 C   0  0  0  0  0  0
  -25.2447  -13.8217   20.5721 C   0  0  0  0  0  0
  -24.1768  -13.0437   20.9239 C   0  0  0  0  0  0
  -24.6391  -11.6923   20.8745 C   0  0  0  0  0  0
  -23.9082  -10.4291   21.0403 C   0  0  0  0  0  0
  -24.3633   -9.4200   21.9181 C   0  0  0  0  0  0
  -23.6299   -8.2237   22.0755 C   0  0  0  0  0  0
  -22.4278   -8.0282   21.3543 C   0  0  0  0  0  0
  -21.9915   -9.0261   20.4648 C   0  0  0  0  0  0
  -22.7252  -10.2135   20.3048 C   0  0  0  0  0  0
  -21.6853   -6.0731   22.5282 C   0  0  0  0  0  0
  -21.4019   -6.5634   23.8216 C   0  0  0  0  0  0
  -21.3654   -5.6781   24.9172 C   0  0  0  0  0  0
  -21.6046   -4.3046   24.7226 C   0  0  0  0  0  0
  -21.8816   -3.8141   23.4346 C   0  0  0  0  0  0
  -21.9192   -4.6959   22.3402 C   0  0  0  0  0  0
  -22.7784  -13.5209   21.1876 C   0  0  0  0  0  0
  -22.1661   -4.2141   21.0980 F   0  0  0  0  0  0
  -21.5621   -3.4534   25.7740 F   0  0  0  0  0  0
  -29.9350  -13.7323   20.3509 N   0  0  0  0  0  0
  -26.2864  -12.9446   20.3213 N   0  0  0  0  0  0
  -25.9315  -11.6577   20.5710 N   0  0  0  0  0  0
  -22.0426  -12.8216   22.0442 N   0  0  0  0  0  0
  -25.4110  -15.1946   20.4143 N   0  0  0  0  0  0
  -31.7484  -15.0459   20.2306 O   0  0  0  0  0  0
  -21.6636   -6.8879   21.4245 O   0  0  0  0  0  0
  -22.3468  -14.5506   20.6706 O   0  0  0  0  0  0
  -24.6468  -31.8388   23.1856 C   0  0  0  0  0  0
  -25.9219  -32.4676   23.8247 C   0  0  1  0  0  0
  -27.2249  -27.1066   20.1532 C   0  0  0  0  0  0
  -25.5949  -33.8483   24.2161 N   0  0  0  0  0  0
  -23.4535  -30.4577   21.5294 C   0  0  2  0  0  0
  -24.9053  -28.8749   20.1130 C   0  0  0  0  0  0
  -22.7582  -29.4531   22.4825 C   0  0  0  0  0  0
  -18.0305  -28.1394   22.8468 C   0  0  0  0  0  0
  -24.1501  -36.7247   23.2641 C   0  0  0  0  0  0
  -26.0119  -30.7049   21.3880 C   0  0  0  0  0  0
  -26.0839  -29.3124   20.7287 C   0  0  0  0  0  0
  -27.2455  -28.4462   20.7251 C   0  0  0  0  0  0
  -26.0165  -26.7726   19.5026 C   0  0  0  0  0  0
  -24.8859  -27.6206   19.4837 C   0  0  0  0  0  0
  -23.6837  -29.7816   20.1509 C   0  0  0  0  0  0
  -25.4138  -36.3019   24.0302 C   0  0  1  0  0  0
  -20.5923  -28.3730   23.1215 C   0  0  2  0  0  0
  -20.6792  -26.9428   22.5398 C   0  0  0  0  0  0
  -19.5762  -26.6376   21.5210 C   0  0  0  0  0  0
  -18.1942  -26.7930   22.1619 C   0  0  0  0  0  0
  -19.1566  -28.8878   23.2833 C   0  0  0  0  0  0
  -18.9477  -30.1466   23.8867 C   0  0  0  0  0  0
  -17.6474  -30.6587   24.0555 C   0  0  0  0  0  0
  -25.9085  -34.9395   23.5047 C   0  0  0  0  0  0
  -16.5365  -29.9076   23.6333 C   0  0  0  0  0  0
  -16.7289  -28.6499   23.0347 C   0  0  0  0  0  0
  -26.4537  -31.6558   25.0704 C   0  0  0  0  0  0
  -25.3719  -31.3752   26.1397 C   0  0  0  0  0  0
  -27.0392  -30.2947   24.6301 C   0  0  0  0  0  0
  -27.6063  -32.4325   25.7487 C   0  0  0  0  0  0
  -27.5575  -37.1784   24.8454 C   0  0  0  0  0  0
  -21.4267  -29.3045   22.3574 N   0  0  0  0  0  0
  -26.4288  -37.3746   23.9395 N   0  0  0  0  0  0
  -24.7239  -31.0224   22.0896 N   0  0  0  0  0  0
  -23.4208  -28.8082   23.2997 O   0  0  0  0  0  0
  -28.2858  -26.1200   20.2155 O   0  0  0  0  0  0
  -26.5678  -34.8902   22.4632 O   0  0  0  0  0  0
  -23.5577  -32.1252   23.7072 O   0  0  0  0  0  0
  -29.2830  -20.4585   20.7444 C   0  0  0  0  0  0
  -29.2061  -21.7255   19.9637 C   0  0  0  0  0  0
  -29.5832  -21.5168   18.6352 C   0  0  0  0  0  0
  -29.5822  -19.1173   20.1509 C   0  0  0  0  0  0
  -29.7967  -20.2240   18.0825 C   0  0  0  0  0  0
  -29.9884  -22.8254   17.9921 C   0  0  0  0  0  0
  -30.2652  -23.7590   19.1916 C   0  0  0  0  0  0
  -29.2631  -23.3641   20.3047 C   0  0  2  0  0  0
  -29.8595  -23.5546   21.7064 C   0  0  0  0  0  0
  -29.3603  -19.0722   15.8548 C   0  0  0  0  0  0
  -31.7456  -19.6447   16.5806 C   0  0  0  0  0  0
  -30.0348  -17.7025   20.8969 C   0  0  0  0  0  0
  -28.0643  -24.5623   20.1012 C   0  0  0  0  0  0
  -30.2591  -20.0416   16.6375 C   0  0  0  0  0  0
  -29.7602  -19.0773   18.8139 N   0  0  0  0  0  0
  -29.7426  -16.1846   20.5154 N   0  0  0  0  0  0
  -31.4732  -12.7989   19.1740 H   0  0  0  0  0  0
  -30.4581  -11.6842   20.0429 H   0  0  0  0  0  0
  -29.8554  -11.7329   17.5913 H   0  0  0  0  0  0
  -29.5987  -13.4573   17.6759 H   0  0  0  0  0  0
  -27.9737  -11.2667   19.0025 H   0  0  0  0  0  0
  -27.3940  -12.4088   17.8212 H   0  0  0  0  0  0
  -27.5834  -14.2434   19.3873 H   0  0  0  0  0  0
  -28.7734  -12.3335   21.4519 H   0  0  0  0  0  0
  -28.3602  -14.0095   21.7353 H   0  0  0  0  0  0
  -25.2778   -9.5666   22.4765 H   0  0  0  0  0  0
  -23.9994   -7.4621   22.7478 H   0  0  0  0  0  0
  -21.0839   -8.8787   19.8967 H   0  0  0  0  0  0
  -22.3712  -10.9673   19.6155 H   0  0  0  0  0  0
  -21.2024   -7.6145   23.9720 H   0  0  0  0  0  0
  -21.1473   -6.0510   25.9074 H   0  0  0  0  0  0
  -22.0601   -2.7605   23.2845 H   0  0  0  0  0  0
  -22.4028  -11.9891   22.4873 H   0  0  0  0  0  0
  -21.1035  -13.1236   22.2620 H   0  0  0  0  0  0
  -24.6427  -15.8465   20.5285 H   0  0  0  0  0  0
  -26.2456  -15.6341   20.0510 H   0  0  0  0  0  0
  -26.7288  -32.5289   23.0967 H   0  0  0  0  0  0
  -25.0043  -33.9588   25.0273 H   0  0  0  0  0  0
  -22.7597  -31.2860   21.3691 H   0  0  0  0  0  0
  -23.3772  -35.9569   23.3282 H   0  0  0  0  0  0
  -24.3590  -36.8910   22.2062 H   0  0  0  0  0  0
  -23.7266  -37.6435   23.6706 H   0  0  0  0  0  0
  -26.1719  -31.4631   20.6198 H   0  0  0  0  0  0
  -26.8807  -30.7551   22.0332 H   0  0  0  0  0  0
  -28.1493  -28.7781   21.2171 H   0  0  0  0  0  0
  -25.9157  -25.8134   19.0181 H   0  0  0  0  0  0
  -23.9834  -27.2833   18.9925 H   0  0  0  0  0  0
  -23.8293  -30.5529   19.3935 H   0  0  0  0  0  0
  -22.7975  -29.2259   19.8381 H   0  0  0  0  0  0
  -25.1353  -36.1825   25.0799 H   0  0  0  0  0  0
  -21.0012  -28.3333   24.1335 H   0  0  0  0  0  0
  -20.5678  -26.2343   23.3623 H   0  0  0  0  0  0
  -21.6663  -26.7431   22.1204 H   0  0  0  0  0  0
  -19.6930  -25.6276   21.1257 H   0  0  0  0  0  0
  -19.6704  -27.3174   20.6731 H   0  0  0  0  0  0
  -17.4214  -26.6665   21.4019 H   0  0  0  0  0  0
  -18.0346  -26.0079   22.9023 H   0  0  0  0  0  0
  -19.7950  -30.7290   24.2230 H   0  0  0  0  0  0
  -17.5025  -31.6267   24.5154 H   0  0  0  0  0  0
  -15.5364  -30.2968   23.7676 H   0  0  0  0  0  0
  -15.8686  -28.0816   22.7067 H   0  0  0  0  0  0
  -24.5921  -30.7074   25.7714 H   0  0  0  0  0  0
  -24.8883  -32.2928   26.4755 H   0  0  0  0  0  0
  -25.8005  -30.8976   27.0214 H   0  0  0  0  0  0
  -26.2997  -29.6667   24.1319 H   0  0  0  0  0  0
  -27.3990  -29.7268   25.4884 H   0  0  0  0  0  0
  -27.8917  -30.4163   23.9619 H   0  0  0  0  0  0
  -27.2657  -33.3640   26.2012 H   0  0  0  0  0  0
  -28.3899  -32.6853   25.0333 H   0  0  0  0  0  0
  -28.0703  -31.8490   26.5448 H   0  0  0  0  0  0
  -28.2582  -38.0089   24.7522 H   0  0  0  0  0  0
  -28.1077  -36.2623   24.6265 H   0  0  0  0  0  0
  -27.2278  -37.1418   25.8848 H   0  0  0  0  0  0
  -20.9470  -29.8742   21.6744 H   0  0  0  0  0  0
  -26.0136  -38.2795   24.1430 H   0  0  0  0  0  0
  -29.2201  -20.5280   21.8224 H   0  0  0  0  0  0
  -29.1756  -23.1992   17.3694 H   0  0  0  0  0  0
  -30.8811  -22.7272   17.3741 H   0  0  0  0  0  0
  -30.2640  -24.8161   18.9232 H   0  0  0  0  0  0
  -31.2764  -23.5436   19.5416 H   0  0  0  0  0  0
  -30.7874  -22.9936   21.8273 H   0  0  0  0  0  0
  -29.1660  -23.2068   22.4715 H   0  0  0  0  0  0
  -30.0772  -24.6040   21.9060 H   0  0  0  0  0  0
  -28.3265  -19.4214   15.8485 H   0  0  0  0  0  0
  -29.3716  -18.0732   16.2903 H   0  0  0  0  0  0
  -29.6872  -18.9869   14.8185 H   0  0  0  0  0  0
  -32.3591  -20.3833   17.0979 H   0  0  0  0  0  0
  -32.1014  -19.5788   15.5531 H   0  0  0  0  0  0
  -31.9216  -18.6798   17.0589 H   0  0  0  0  0  0
  -29.6958  -17.8061   21.9272 H   0  0  0  0  0  0
  -31.1212  -17.7698   20.9676 H   0  0  0  0  0  0
  -27.6561  -24.4019   19.1031 H   0  0  0  0  0  0
  -27.2477  -24.3170   20.7794 H   0  0  0  0  0  0
  -30.1661  -20.9954   16.1211 H   0  0  0  0  0  0
  -28.7540  -15.9946   20.4862 H   0  0  0  0  0  0
  1 25  1  0  0  0
  1 30  2  0  0  0
  1 86  1  0  0  0
  2  3  1  0  0  0
  2 25  1  0  0  0
  2 87  1  0  0  0
  2 88  1  0  0  0
  3  4  1  0  0  0
  3 89  1  0  0  0
  3 90  1  0  0  0
  4  5  1  0  0  0
  4 91  1  0  0  0
  4 92  1  0  0  0
  5  6  1  0  0  0
  5 26  1  0  0  0
  5 93  1  0  0  0
  6 25  1  0  0  0
  6 94  1  0  0  0
  6 95  1  0  0  0
  7  8  2  0  0  0
  7 26  1  0  0  0
  7 29  1  0  0  0
  8  9  1  0  0  0
  8 22  1  0  0  0
  9 10  1  0  0  0
  9 27  2  0  0  0
 10 11  2  0  0  0
 10 15  1  0  0  0
 11 12  1  0  0  0
 11 96  1  0  0  0
 12 13  2  0  0  0
 12 97  1  0  0  0
 13 14  1  0  0  0
 13 31  1  0  0  0
 14 15  2  0  0  0
 14 98  1  0  0  0
 15 99  1  0  0  0
 16 17  2  0  0  0
 16 21  1  0  0  0
 16 31  1  0  0  0
 17 18  1  0  0  0
 17100  1  0  0  0
 18 19  2  0  0  0
 18101  1  0  0  0
 19 20  1  0  0  0
 19 24  1  0  0  0
 20 21  2  0  0  0
 20102  1  0  0  0
 21 23  1  0  0  0
 22 28  1  0  0  0
 22 32  2  0  0  0
 26 27  1  0  0  0
 28103  1  0  0  0
 28104  1  0  0  0
 29105  1  0  0  0
 29106  1  0  0  0
 33 34  1  0  0  0
 33 66  1  0  0  0
 33 70  2  0  0  0
 34 36  1  0  0  0
 34 59  1  0  0  0
 34107  1  0  0  0
 35 44  2  0  0  0
 35 45  1  0  0  0
 35 68  1  0  0  0
 36 56  1  0  0  0
 36108  1  0  0  0
 37 39  1  0  0  0
 37 47  1  0  0  0
 37 66  1  0  0  0
 37109  1  0  0  0
 38 43  2  0  0  0
 38 46  1  0  0  0
 38 47  1  0  0  0
 39 64  1  0  0  0
 39 67  2  0  0  0
 40 52  1  0  0  0
 40 53  2  0  0  0
 40 58  1  0  0  0
 41110  1  0  0  0
 41111  1  0  0  0
 41112  1  0  0  0
 41 48  1  0  0  0
 42 43  1  0  0  0
 42 66  1  0  0  0
 42113  1  0  0  0
 42114  1  0  0  0
 43 44  1  0  0  0
 44115  1  0  0  0
 45 46  2  0  0  0
 45116  1  0  0  0
 46117  1  0  0  0
 47118  1  0  0  0
 47119  1  0  0  0
 48 56  1  0  0  0
 48 65  1  0  0  0
 48120  1  0  0  0
 49 50  1  0  0  0
 49 53  1  0  0  0
 49 64  1  0  0  0
 49121  1  0  0  0
 50 51  1  0  0  0
 50122  1  0  0  0
 50123  1  0  0  0
 51 52  1  0  0  0
 51124  1  0  0  0
 51125  1  0  0  0
 52126  1  0  0  0
 52127  1  0  0  0
 53 54  1  0  0  0
 54 55  2  0  0  0
 54128  1  0  0  0
 55 57  1  0  0  0
 55129  1  0  0  0
 56 69  2  0  0  0
 57 58  2  0  0  0
 57130  1  0  0  0
 58131  1  0  0  0
 59 60  1  0  0  0
 59 61  1  0  0  0
 59 62  1  0  0  0
 60132  1  0  0  0
 60133  1  0  0  0
 60134  1  0  0  0
 61135  1  0  0  0
 61136  1  0  0  0
 61137  1  0  0  0
 62138  1  0  0  0
 62139  1  0  0  0
 62140  1  0  0  0
 63 65  1  0  0  0
 63141  1  0  0  0
 63142  1  0  0  0
 63143  1  0  0  0
 64144  1  0  0  0
 65145  1  0  0  0
 68 83  1  0  0  0
 71 72  2  0  0  0
 71 74  1  0  0  0
 71146  1  0  0  0
 72 73  1  0  0  0
 72 78  1  0  0  0
 73 75  2  0  0  0
 73 76  1  0  0  0
 74 82  1  0  0  0
 74 85  2  0  0  0
 75 84  1  0  0  0
 75 85  1  0  0  0
 76 77  1  0  0  0
 76147  1  0  0  0
 76148  1  0  0  0
 77 78  1  0  0  0
 77149  1  0  0  0
 77150  1  0  0  0
 78 79  1  0  0  0
 78 83  1  0  0  0
 79151  1  0  0  0
 79152  1  0  0  0
 79153  1  0  0  0
 80154  1  0  0  0
 80155  1  0  0  0
 80156  1  0  0  0
 80 84  1  0  0  0
 81 84  1  0  0  0
 81157  1  0  0  0
 81158  1  0  0  0
 81159  1  0  0  0
 82 86  1  0  0  0
 82160  1  0  0  0
 82161  1  0  0  0
 83162  1  0  0  0
 83163  1  0  0  0
 84164  1  0  0  0
 86165  1  0  0  0
M  ISO  4   1 100  68 101  83 101  86 100
M  END
> <chiral flag>
0

> <version>
0

> <s_m_source_file>
/data/baiqing/PycharmProjects/Reinvent-master-3.2/result/LINK_invent/BTK/process_docking_weight1_custom_sum_contain_oxygen_bond_distance_aromatic_linkinvent_7_9_3/rearranged_h_0170.sdf

> <i_m_source_file_index>
28

> <r_mmod_Potential_Energy-OPLS-2005>
358.543701171875

> <r_mmod_Stretch_Energy-OPLS-2005>
291.484741210938

> <r_mmod_Bend_Energy-OPLS-2005>
343.351715087891

> <r_mmod_Torsional_Energy-OPLS-2005>
235.072448730469

> <r_mmod_Improper_Torsional_Energy-OPLS-2005>
12.9558715820312

> <r_mmod_Van_der_Waal_Energy-OPLS-2005>
125.996917724609

> <r_mmod_Electrostatic_Energy-OPLS-2005>
-652.317993164062

> <r_mmod_Solvation_Energy-OPLS-2005>
-222.076782226562

> <b_mmod_Minimization_Converged-OPLS-2005>
0

> <r_mmod_RMS_Derivative-OPLS-2005>
2.00731611251831

$$$$
28
                    3D
 Structure written by MMmdl.
170180  0  0  1  0            999 V2000
  -30.6554  -14.6743   20.4625 C   0  0  0  0  0  0
  -30.4244  -12.3979   19.4727 C   0  0  0  0  0  0
  -29.5081  -12.4774   18.2330 C   0  0  0  0  0  0
  -28.0265  -12.3513   18.6391 C   0  0  0  0  0  0
  -27.6487  -13.2333   19.8614 C   0  0  2  0  0  0
  -28.6970  -13.1404   20.9901 C   0  0  0  0  0  0
  -25.2533  -13.8207   20.5712 C   0  0  0  0  0  0
  -24.1809  -13.0472   20.9222 C   0  0  0  0  0  0
  -24.6390  -11.6947   20.8767 C   0  0  0  0  0  0
  -23.9075  -10.4322   21.0423 C   0  0  0  0  0  0
  -24.3627   -9.4229   21.9194 C   0  0  0  0  0  0
  -23.6303   -8.2268   22.0753 C   0  0  0  0  0  0
  -22.4289   -8.0305   21.3552 C   0  0  0  0  0  0
  -21.9939   -9.0277   20.4654 C   0  0  0  0  0  0
  -22.7252  -10.2158   20.3073 C   0  0  0  0  0  0
  -21.6857   -6.0756   22.5282 C   0  0  0  0  0  0
  -21.4003   -6.5647   23.8207 C   0  0  0  0  0  0
  -21.3671   -5.6796   24.9167 C   0  0  0  0  0  0
  -21.6055   -4.3066   24.7213 C   0  0  0  0  0  0
  -21.8818   -3.8157   23.4326 C   0  0  0  0  0  0
  -21.9188   -4.6983   22.3384 C   0  0  0  0  0  0
  -22.7839  -13.5254   21.1910 C   0  0  0  0  0  0
  -22.1666   -4.2174   21.0966 F   0  0  0  0  0  0
  -21.5643   -3.4542   25.7720 F   0  0  0  0  0  0
  -30.0012  -13.4678   20.4014 N   0  0  0  0  0  0
  -26.2969  -12.9418   20.3350 N   0  0  0  0  0  0
  -25.9326  -11.6562   20.5803 N   0  0  0  0  0  0
  -22.0497  -12.8205   22.0450 N   0  0  0  0  0  0
  -25.4247  -15.1923   20.4094 N   0  0  0  0  0  0
  -31.8503  -14.7492   20.1655 O   0  0  0  0  0  0
  -21.6655   -6.8906   21.4240 O   0  0  0  0  0  0
  -22.3518  -14.5578   20.6797 O   0  0  0  0  0  0
  -24.6303  -31.8576   23.2040 C   0  0  0  0  0  0
  -25.9146  -32.4760   23.8356 C   0  0  1  0  0  0
  -27.2194  -27.2795   20.1148 C   0  0  0  0  0  0
  -25.5945  -33.8563   24.2266 N   0  0  0  0  0  0
  -23.4255  -30.4849   21.5476 C   0  0  2  0  0  0
  -24.8721  -28.9448   20.1085 C   0  0  0  0  0  0
  -22.7497  -29.4627   22.4941 C   0  0  0  0  0  0
  -18.0293  -28.1381   22.8486 C   0  0  0  0  0  0
  -24.1491  -36.7271   23.2648 C   0  0  0  0  0  0
  -25.9734  -30.7743   21.3884 C   0  0  0  0  0  0
  -26.0459  -29.4041   20.7180 C   0  0  0  0  0  0
  -27.2218  -28.5860   20.7109 C   0  0  0  0  0  0
  -26.0151  -26.8899   19.4792 C   0  0  0  0  0  0
  -24.8626  -27.6942   19.4777 C   0  0  0  0  0  0
  -23.6396  -29.8252   20.1611 C   0  0  0  0  0  0
  -25.4129  -36.3096   24.0331 C   0  0  1  0  0  0
  -20.5890  -28.3684   23.1277 C   0  0  2  0  0  0
  -20.6802  -26.9399   22.5417 C   0  0  0  0  0  0
  -19.5772  -26.6367   21.5233 C   0  0  0  0  0  0
  -18.1943  -26.7922   22.1628 C   0  0  0  0  0  0
  -19.1546  -28.8852   23.2875 C   0  0  0  0  0  0
  -18.9471  -30.1462   23.8861 C   0  0  0  0  0  0
  -17.6475  -30.6580   24.0557 C   0  0  0  0  0  0
  -25.9061  -34.9454   23.5094 C   0  0  0  0  0  0
  -16.5359  -29.9066   23.6352 C   0  0  0  0  0  0
  -16.7284  -28.6503   23.0347 C   0  0  0  0  0  0
  -26.4508  -31.6588   25.0749 C   0  0  0  0  0  0
  -25.3700  -31.3715   26.1440 C   0  0  0  0  0  0
  -27.0377  -30.3010   24.6262 C   0  0  0  0  0  0
  -27.6060  -32.4345   25.7502 C   0  0  0  0  0  0
  -27.5590  -37.1806   24.8471 C   0  0  0  0  0  0
  -21.4210  -29.3034   22.3656 N   0  0  0  0  0  0
  -26.4308  -37.3798   23.9404 N   0  0  0  0  0  0
  -24.6954  -31.0547   22.1016 N   0  0  0  0  0  0
  -23.4198  -28.8162   23.3033 O   0  0  0  0  0  0
  -28.3207  -26.3886   20.1457 O   0  0  0  0  0  0
  -26.5653  -34.8931   22.4673 O   0  0  0  0  0  0
  -23.5453  -32.1420   23.7307 O   0  0  0  0  0  0
  -28.3741  -20.8214   18.9835 C   0  0  0  0  0  0
  -29.6471  -19.7866   20.7433 C   0  0  0  0  0  0
  -29.0229  -20.9857   20.2208 C   0  0  0  0  0  0
  -29.0421  -18.4351   18.7984 C   0  0  0  0  0  0
  -28.3601  -19.5839   18.2945 C   0  0  0  0  0  0
  -29.6573  -18.4991   20.0793 C   0  0  0  0  0  0
  -30.4689  -16.6371   17.5089 C   0  0  0  0  0  0
  -29.4803  -17.1512   16.5039 C   0  0  0  0  0  0
  -29.2034  -22.3576   22.4861 C   0  0  0  0  0  0
  -27.7781  -22.3384   22.0665 C   0  0  0  0  0  0
  -29.1278  -17.1661   17.9807 C   0  0  0  0  0  0
  -28.8674  -22.3622   20.9928 C   0  0  0  0  0  0
  -27.5680  -19.5378   16.9955 C   0  0  0  0  0  0
  -30.5223  -24.3306   20.5557 C   0  0  0  0  0  0
  -30.4299  -17.2549   20.7018 C   0  0  0  0  0  0
  -28.0300  -24.9142   20.1786 C   0  0  0  0  0  0
  -29.1489  -23.7394   20.1910 C   0  0  2  0  0  0
  -29.9173  -15.8227   20.6522 N   0  0  0  0  0  0
  -31.4723  -12.4893   19.1781 H   0  0  0  0  0  0
  -30.3365  -11.4205   19.9503 H   0  0  0  0  0  0
  -29.7599  -11.6860   17.5240 H   0  0  0  0  0  0
  -29.6729  -13.4178   17.7086 H   0  0  0  0  0  0
  -27.8368  -11.3023   18.8642 H   0  0  0  0  0  0
  -27.3858  -12.5972   17.7912 H   0  0  0  0  0  0
  -27.6565  -14.2646   19.5100 H   0  0  0  0  0  0
  -28.7109  -12.1385   21.4202 H   0  0  0  0  0  0
  -28.4546  -13.8167   21.8107 H   0  0  0  0  0  0
  -25.2779   -9.5690   22.4771 H   0  0  0  0  0  0
  -24.0014   -7.4643   22.7450 H   0  0  0  0  0  0
  -21.0893   -8.8783   19.8947 H   0  0  0  0  0  0
  -22.3710  -10.9696   19.6184 H   0  0  0  0  0  0
  -21.1988   -7.6157   23.9716 H   0  0  0  0  0  0
  -21.1507   -6.0530   25.9072 H   0  0  0  0  0  0
  -22.0590   -2.7629   23.2815 H   0  0  0  0  0  0
  -22.4092  -11.9810   22.4764 H   0  0  0  0  0  0
  -21.1134  -13.1226   22.2722 H   0  0  0  0  0  0
  -24.6649  -15.8526   20.5240 H   0  0  0  0  0  0
  -26.2772  -15.6325   20.0892 H   0  0  0  0  0  0
  -26.7190  -32.5433   23.1074 H   0  0  0  0  0  0
  -25.0097  -33.9664   25.0413 H   0  0  0  0  0  0
  -22.7253  -31.3107   21.4058 H   0  0  0  0  0  0
  -23.3791  -35.9569   23.3337 H   0  0  0  0  0  0
  -24.3575  -36.8871   22.2058 H   0  0  0  0  0  0
  -23.7198  -37.6458   23.6658 H   0  0  0  0  0  0
  -26.1222  -31.5468   20.6343 H   0  0  0  0  0  0
  -26.8436  -30.8021   22.0329 H   0  0  0  0  0  0
  -28.1197  -28.9346   21.2038 H   0  0  0  0  0  0
  -25.9159  -25.9493   18.9653 H   0  0  0  0  0  0
  -23.9666  -27.3372   18.9896 H   0  0  0  0  0  0
  -23.7511  -30.6057   19.4072 H   0  0  0  0  0  0
  -22.7593  -29.2536   19.8626 H   0  0  0  0  0  0
  -25.1305  -36.1959   25.0828 H   0  0  0  0  0  0
  -20.9975  -28.3281   24.1406 H   0  0  0  0  0  0
  -20.5747  -26.2293   23.3621 H   0  0  0  0  0  0
  -21.6667  -26.7460   22.1180 H   0  0  0  0  0  0
  -19.6951  -25.6286   21.1252 H   0  0  0  0  0  0
  -19.6723  -27.3194   20.6773 H   0  0  0  0  0  0
  -17.4232  -26.6689   21.4011 H   0  0  0  0  0  0
  -18.0319  -26.0045   22.9002 H   0  0  0  0  0  0
  -19.7948  -30.7300   24.2194 H   0  0  0  0  0  0
  -17.5019  -31.6253   24.5168 H   0  0  0  0  0  0
  -15.5357  -30.2944   23.7697 H   0  0  0  0  0  0
  -15.8693  -28.0811   22.7045 H   0  0  0  0  0  0
  -24.5868  -30.7092   25.7736 H   0  0  0  0  0  0
  -24.8883  -32.2856   26.4920 H   0  0  0  0  0  0
  -25.7960  -30.8830   27.0205 H   0  0  0  0  0  0
  -26.2975  -29.6738   24.1274 H   0  0  0  0  0  0
  -27.4045  -29.7307   25.4813 H   0  0  0  0  0  0
  -27.8866  -30.4312   23.9539 H   0  0  0  0  0  0
  -27.2687  -33.3662   26.2062 H   0  0  0  0  0  0
  -28.3858  -32.6879   25.0306 H   0  0  0  0  0  0
  -28.0752  -31.8488   26.5420 H   0  0  0  0  0  0
  -28.2621  -38.0101   24.7544 H   0  0  0  0  0  0
  -28.1066  -36.2624   24.6268 H   0  0  0  0  0  0
  -27.2294  -37.1428   25.8875 H   0  0  0  0  0  0
  -20.9414  -29.8725   21.6823 H   0  0  0  0  0  0
  -26.0198  -38.2881   24.1410 H   0  0  0  0  0  0
  -27.8435  -21.6637   18.5594 H   0  0  0  0  0  0
  -30.1404  -19.8414   21.7004 H   0  0  0  0  0  0
  -31.3562  -17.2467   17.6642 H   0  0  0  0  0  0
  -30.6351  -15.5620   17.5309 H   0  0  0  0  0  0
  -28.9973  -16.4078   15.8707 H   0  0  0  0  0  0
  -29.7477  -18.0818   16.0083 H   0  0  0  0  0  0
  -29.5600  -21.4541   22.9718 H   0  0  0  0  0  0
  -29.5310  -23.2786   22.9609 H   0  0  0  0  0  0
  -27.2295  -23.2238   22.3736 H   0  0  0  0  0  0
  -27.2347  -21.4053   22.2012 H   0  0  0  0  0  0
  -28.3921  -16.4393   18.3176 H   0  0  0  0  0  0
  -28.1953  -19.8569   16.1622 H   0  0  0  0  0  0
  -26.7113  -20.2113   17.0427 H   0  0  0  0  0  0
  -27.1713  -18.5457   16.7780 H   0  0  0  0  0  0
  -30.5159  -24.8164   21.5312 H   0  0  0  0  0  0
  -30.8298  -25.0759   19.8210 H   0  0  0  0  0  0
  -31.2925  -23.5596   20.5670 H   0  0  0  0  0  0
  -31.4247  -17.2785   20.2482 H   0  0  0  0  0  0
  -30.6001  -17.4802   21.7544 H   0  0  0  0  0  0
  -27.3588  -24.7878   21.0215 H   0  0  0  0  0  0
  -27.4454  -24.6657   19.2965 H   0  0  0  0  0  0
  -29.2596  -23.4405   19.1498 H   0  0  0  0  0  0
  -28.9358  -15.6946   20.8443 H   0  0  0  0  0  0
  1 25  1  0  0  0
  1 30  2  0  0  0
  1 88  1  0  0  0
  2  3  1  0  0  0
  2 25  1  0  0  0
  2 89  1  0  0  0
  2 90  1  0  0  0
  3  4  1  0  0  0
  3 91  1  0  0  0
  3 92  1  0  0  0
  4  5  1  0  0  0
  4 93  1  0  0  0
  4 94  1  0  0  0
  5  6  1  0  0  0
  5 26  1  0  0  0
  5 95  1  0  0  0
  6 25  1  0  0  0
  6 96  1  0  0  0
  6 97  1  0  0  0
  7  8  2  0  0  0
  7 26  1  0  0  0
  7 29  1  0  0  0
  8  9  1  0  0  0
  8 22  1  0  0  0
  9 10  1  0  0  0
  9 27  2  0  0  0
 10 11  2  0  0  0
 10 15  1  0  0  0
 11 12  1  0  0  0
 11 98  1  0  0  0
 12 13  2  0  0  0
 12 99  1  0  0  0
 13 14  1  0  0  0
 13 31  1  0  0  0
 14 15  2  0  0  0
 14100  1  0  0  0
 15101  1  0  0  0
 16 17  2  0  0  0
 16 21  1  0  0  0
 16 31  1  0  0  0
 17 18  1  0  0  0
 17102  1  0  0  0
 18 19  2  0  0  0
 18103  1  0  0  0
 19 20  1  0  0  0
 19 24  1  0  0  0
 20 21  2  0  0  0
 20104  1  0  0  0
 21 23  1  0  0  0
 22 28  1  0  0  0
 22 32  2  0  0  0
 26 27  1  0  0  0
 28105  1  0  0  0
 28106  1  0  0  0
 29107  1  0  0  0
 29108  1  0  0  0
 33 34  1  0  0  0
 33 66  1  0  0  0
 33 70  2  0  0  0
 34 36  1  0  0  0
 34 59  1  0  0  0
 34109  1  0  0  0
 35 44  2  0  0  0
 35 45  1  0  0  0
 35 68  1  0  0  0
 36 56  1  0  0  0
 36110  1  0  0  0
 37 39  1  0  0  0
 37 47  1  0  0  0
 37 66  1  0  0  0
 37111  1  0  0  0
 38 43  2  0  0  0
 38 46  1  0  0  0
 38 47  1  0  0  0
 39 64  1  0  0  0
 39 67  2  0  0  0
 40 52  1  0  0  0
 40 53  2  0  0  0
 40 58  1  0  0  0
 41112  1  0  0  0
 41113  1  0  0  0
 41114  1  0  0  0
 41 48  1  0  0  0
 42 43  1  0  0  0
 42 66  1  0  0  0
 42115  1  0  0  0
 42116  1  0  0  0
 43 44  1  0  0  0
 44117  1  0  0  0
 45 46  2  0  0  0
 45118  1  0  0  0
 46119  1  0  0  0
 47120  1  0  0  0
 47121  1  0  0  0
 48 56  1  0  0  0
 48 65  1  0  0  0
 48122  1  0  0  0
 49 50  1  0  0  0
 49 53  1  0  0  0
 49 64  1  0  0  0
 49123  1  0  0  0
 50 51  1  0  0  0
 50124  1  0  0  0
 50125  1  0  0  0
 51 52  1  0  0  0
 51126  1  0  0  0
 51127  1  0  0  0
 52128  1  0  0  0
 52129  1  0  0  0
 53 54  1  0  0  0
 54 55  2  0  0  0
 54130  1  0  0  0
 55 57  1  0  0  0
 55131  1  0  0  0
 56 69  2  0  0  0
 57 58  2  0  0  0
 57132  1  0  0  0
 58133  1  0  0  0
 59 60  1  0  0  0
 59 61  1  0  0  0
 59 62  1  0  0  0
 60134  1  0  0  0
 60135  1  0  0  0
 60136  1  0  0  0
 61137  1  0  0  0
 61138  1  0  0  0
 61139  1  0  0  0
 62140  1  0  0  0
 62141  1  0  0  0
 62142  1  0  0  0
 63 65  1  0  0  0
 63143  1  0  0  0
 63144  1  0  0  0
 63145  1  0  0  0
 64146  1  0  0  0
 65147  1  0  0  0
 68 86  1  0  0  0
 71 73  2  0  0  0
 71 75  1  0  0  0
 71148  1  0  0  0
 72 73  1  0  0  0
 72 76  2  0  0  0
 72149  1  0  0  0
 73 82  1  0  0  0
 74 75  2  0  0  0
 74 76  1  0  0  0
 74 81  1  0  0  0
 75 83  1  0  0  0
 76 85  1  0  0  0
 77 78  1  0  0  0
 77 81  1  0  0  0
 77150  1  0  0  0
 77151  1  0  0  0
 78 81  1  0  0  0
 78152  1  0  0  0
 78153  1  0  0  0
 79 80  1  0  0  0
 79 82  1  0  0  0
 79154  1  0  0  0
 79155  1  0  0  0
 80 82  1  0  0  0
 80156  1  0  0  0
 80157  1  0  0  0
 81158  1  0  0  0
 82 87  1  0  0  0
 83159  1  0  0  0
 83160  1  0  0  0
 83161  1  0  0  0
 84162  1  0  0  0
 84163  1  0  0  0
 84164  1  0  0  0
 84 87  1  0  0  0
 85 88  1  0  0  0
 85165  1  0  0  0
 85166  1  0  0  0
 86 87  1  0  0  0
 86167  1  0  0  0
 86168  1  0  0  0
 87169  1  0  0  0
 88170  1  0  0  0
M  ISO  4   1 100  68 101  86 101  88 100
M  END
> <chiral flag>
0

> <version>
0

> <s_m_source_file>
/data/baiqing/PycharmProjects/Reinvent-master-3.2/result/LINK_invent/BTK/process_docking_weight1_custom_sum_contain_oxygen_bond_distance_aromatic_linkinvent_7_9_3/rearranged_h_0170.sdf

> <i_m_source_file_index>
29

> <r_mmod_Potential_Energy-OPLS-2005>
178.168487548828

> <r_mmod_Stretch_Energy-OPLS-2005>
122.91259765625

> <r_mmod_Bend_Energy-OPLS-2005>
169.319534301758

> <r_mmod_Torsional_Energy-OPLS-2005>
303.432952880859

> <r_mmod_Improper_Torsional_Energy-OPLS-2005>
5.37698793411255

> <r_mmod_Van_der_Waal_Energy-OPLS-2005>
143.689651489258

> <r_mmod_Electrostatic_Energy-OPLS-2005>
-433.89208984375

> <r_mmod_Solvation_Energy-OPLS-2005>
-199.08203125

> <b_mmod_Minimization_Converged-OPLS-2005>
0

> <r_mmod_RMS_Derivative-OPLS-2005>
3.50236821174622

$$$$
29
                    3D
 Structure written by MMmdl.
176186  0  0  1  0            999 V2000
  -30.7629  -14.4651   20.6155 C   0  0  0  0  0  0
  -30.4156  -12.3145   19.4447 C   0  0  0  0  0  0
  -29.4949  -12.4920   18.2203 C   0  0  0  0  0  0
  -28.0188  -12.3262   18.6291 C   0  0  0  0  0  0
  -27.6588  -13.1769   19.8709 C   0  0  2  0  0  0
  -28.7028  -12.9604   20.9990 C   0  0  0  0  0  0
  -25.2599  -13.8075   20.5662 C   0  0  0  0  0  0
  -24.1825  -13.0394   20.9194 C   0  0  0  0  0  0
  -24.6349  -11.6855   20.8766 C   0  0  0  0  0  0
  -23.9016  -10.4263   21.0433 C   0  0  0  0  0  0
  -24.3577   -9.4180   21.9207 C   0  0  0  0  0  0
  -23.6257   -8.2214   22.0765 C   0  0  0  0  0  0
  -22.4247   -8.0262   21.3541 C   0  0  0  0  0  0
  -21.9870   -9.0241   20.4654 C   0  0  0  0  0  0
  -22.7198  -10.2118   20.3074 C   0  0  0  0  0  0
  -21.6835   -6.0721   22.5280 C   0  0  0  0  0  0
  -21.4008   -6.5631   23.8213 C   0  0  0  0  0  0
  -21.3663   -5.6787   24.9176 C   0  0  0  0  0  0
  -21.6039   -4.3051   24.7230 C   0  0  0  0  0  0
  -21.8817   -3.8139   23.4355 C   0  0  0  0  0  0
  -21.9188   -4.6949   22.3408 C   0  0  0  0  0  0
  -22.7865  -13.5242   21.1856 C   0  0  0  0  0  0
  -22.1654   -4.2136   21.0981 F   0  0  0  0  0  0
  -21.5634   -3.4539   25.7744 F   0  0  0  0  0  0
  -30.0309  -13.3127   20.4674 N   0  0  0  0  0  0
  -26.2989  -12.9179   20.3335 N   0  0  0  0  0  0
  -25.9254  -11.6377   20.5781 N   0  0  0  0  0  0
  -22.0488  -12.8248   22.0415 N   0  0  0  0  0  0
  -25.4342  -15.1778   20.4026 N   0  0  0  0  0  0
  -31.8416  -14.5882   20.0245 O   0  0  0  0  0  0
  -21.6618   -6.8859   21.4238 O   0  0  0  0  0  0
  -22.3574  -14.5562   20.6717 O   0  0  0  0  0  0
  -24.6144  -31.8703   23.2150 C   0  0  0  0  0  0
  -25.9051  -32.4824   23.8428 C   0  0  1  0  0  0
  -27.2298  -27.4398   20.0525 C   0  0  0  0  0  0
  -25.5911  -33.8624   24.2358 N   0  0  0  0  0  0
  -23.3997  -30.5001   21.5566 C   0  0  2  0  0  0
  -24.8420  -28.9790   20.1108 C   0  0  0  0  0  0
  -22.7403  -29.4675   22.4993 C   0  0  0  0  0  0
  -18.0274  -28.1362   22.8494 C   0  0  0  0  0  0
  -24.1488  -36.7316   23.2639 C   0  0  0  0  0  0
  -25.9336  -30.8306   21.3743 C   0  0  0  0  0  0
  -26.0054  -29.4698   20.7128 C   0  0  0  0  0  0
  -27.1947  -28.7026   20.6945 C   0  0  0  0  0  0
  -26.0318  -26.9699   19.4610 C   0  0  0  0  0  0
  -24.8499  -27.7242   19.4896 C   0  0  0  0  0  0
  -23.6055  -29.8450   20.1674 C   0  0  0  0  0  0
  -25.4106  -36.3118   24.0343 C   0  0  1  0  0  0
  -20.5859  -28.3659   23.1313 C   0  0  2  0  0  0
  -20.6758  -26.9394   22.5409 C   0  0  0  0  0  0
  -19.5739  -26.6379   21.5202 C   0  0  0  0  0  0
  -18.1922  -26.7911   22.1619 C   0  0  0  0  0  0
  -19.1520  -28.8828   23.2904 C   0  0  0  0  0  0
  -18.9449  -30.1435   23.8912 C   0  0  0  0  0  0
  -17.6451  -30.6574   24.0559 C   0  0  0  0  0  0
  -25.9031  -34.9480   23.5146 C   0  0  0  0  0  0
  -16.5341  -29.9075   23.6317 C   0  0  0  0  0  0
  -16.7265  -28.6483   23.0351 C   0  0  0  0  0  0
  -26.4481  -31.6593   25.0745 C   0  0  0  0  0  0
  -25.3751  -31.3691   26.1497 C   0  0  0  0  0  0
  -27.0298  -30.3028   24.6117 C   0  0  0  0  0  0
  -27.6060  -32.4307   25.7501 C   0  0  0  0  0  0
  -27.5582  -37.1815   24.8467 C   0  0  0  0  0  0
  -21.4133  -29.3031   22.3725 N   0  0  0  0  0  0
  -26.4297  -37.3793   23.9408 N   0  0  0  0  0  0
  -24.6674  -31.0806   22.1057 N   0  0  0  0  0  0
  -23.4188  -28.8204   23.3021 O   0  0  0  0  0  0
  -28.4036  -26.7017   20.1035 O   0  0  0  0  0  0
  -26.5585  -34.8927   22.4703 O   0  0  0  0  0  0
  -23.5340  -32.1458   23.7551 O   0  0  0  0  0  0
  -28.7794  -23.4596   18.3907 C   0  0  0  0  0  0
  -27.8838  -24.6523   18.6722 C   0  0  0  0  0  0
  -31.1602  -17.3751   23.0506 C   0  0  0  0  0  0
  -31.7665  -20.2688   19.0856 C   0  0  0  0  0  0
  -31.8270  -21.4809   21.3144 C   0  0  0  0  0  0
  -30.1499  -25.1271   19.4238 C   0  0  0  0  0  0
  -31.7139  -18.7622   22.6991 C   0  0  0  0  0  0
  -30.6838  -21.3284   18.7918 C   0  0  0  0  0  0
  -32.0174  -22.7023   20.3822 C   0  0  0  0  0  0
  -31.3596  -17.6713   20.6156 C   0  0  0  0  0  0
  -31.3221  -16.5953   21.7311 C   0  0  1  0  0  0
  -29.8726  -23.6009   19.4517 C   0  0  2  0  0  0
  -32.0763  -20.1208   20.6027 C   0  0  1  0  0  0
  -28.8158  -25.8264   19.0334 C   0  0  2  0  0  0
  -28.9745  -15.8913   21.7280 C   0  0  0  0  0  0
  -30.3611  -15.4898   21.4380 N   0  0  0  0  0  0
  -31.3456  -18.9999   21.2832 N   0  3  2  0  0  0
  -31.0569  -22.7084   19.2381 N   0  3  2  0  0  0
  -31.4620  -12.3844   19.1418 H   0  0  0  0  0  0
  -30.3126  -11.3079   19.8539 H   0  0  0  0  0  0
  -29.7522  -11.7627   17.4507 H   0  0  0  0  0  0
  -29.6515  -13.4763   17.7773 H   0  0  0  0  0  0
  -27.8492  -11.2696   18.8430 H   0  0  0  0  0  0
  -27.3625  -12.5730   17.7943 H   0  0  0  0  0  0
  -27.6920  -14.2056   19.5185 H   0  0  0  0  0  0
  -28.7004  -11.9104   21.2942 H   0  0  0  0  0  0
  -28.4433  -13.4760   21.9186 H   0  0  0  0  0  0
  -25.2723   -9.5643   22.4784 H   0  0  0  0  0  0
  -23.9970   -7.4589   22.7465 H   0  0  0  0  0  0
  -21.0812   -8.8753   19.8954 H   0  0  0  0  0  0
  -22.3664  -10.9661   19.6188 H   0  0  0  0  0  0
  -21.1999   -7.6141   23.9707 H   0  0  0  0  0  0
  -21.1490   -6.0523   25.9075 H   0  0  0  0  0  0
  -22.0594   -2.7602   23.2857 H   0  0  0  0  0  0
  -22.4087  -11.9904   22.4802 H   0  0  0  0  0  0
  -21.1123  -13.1302   22.2646 H   0  0  0  0  0  0
  -24.6657  -15.8322   20.5058 H   0  0  0  0  0  0
  -26.2806  -15.6117   20.0579 H   0  0  0  0  0  0
  -26.7109  -32.5533   23.1178 H   0  0  0  0  0  0
  -25.0058  -33.9793   25.0503 H   0  0  0  0  0  0
  -22.6875  -31.3178   21.4261 H   0  0  0  0  0  0
  -23.3743  -35.9652   23.3301 H   0  0  0  0  0  0
  -24.3587  -36.8927   22.2052 H   0  0  0  0  0  0
  -23.7243  -37.6527   23.6642 H   0  0  0  0  0  0
  -26.0552  -31.6020   20.6128 H   0  0  0  0  0  0
  -26.8187  -30.8730   21.9967 H   0  0  0  0  0  0
  -28.0885  -29.0765   21.1744 H   0  0  0  0  0  0
  -25.9322  -26.0156   18.9846 H   0  0  0  0  0  0
  -23.9532  -27.3333   19.0300 H   0  0  0  0  0  0
  -23.7106  -30.6258   19.4134 H   0  0  0  0  0  0
  -22.7276  -29.2686   19.8706 H   0  0  0  0  0  0
  -25.1278  -36.1985   25.0830 H   0  0  0  0  0  0
  -20.9955  -28.3218   24.1433 H   0  0  0  0  0  0
  -20.5639  -26.2271   23.3598 H   0  0  0  0  0  0
  -21.6637  -26.7419   22.1219 H   0  0  0  0  0  0
  -19.6899  -25.6296   21.1224 H   0  0  0  0  0  0
  -19.6677  -27.3197   20.6739 H   0  0  0  0  0  0
  -17.4188  -26.6659   21.4024 H   0  0  0  0  0  0
  -18.0328  -26.0044   22.9008 H   0  0  0  0  0  0
  -19.7924  -30.7245   24.2288 H   0  0  0  0  0  0
  -17.5003  -31.6257   24.5160 H   0  0  0  0  0  0
  -15.5340  -30.2982   23.7627 H   0  0  0  0  0  0
  -15.8661  -28.0803   22.7063 H   0  0  0  0  0  0
  -24.5933  -30.7017   25.7851 H   0  0  0  0  0  0
  -24.8926  -32.2838   26.4951 H   0  0  0  0  0  0
  -25.8122  -30.8872   27.0251 H   0  0  0  0  0  0
  -26.2829  -29.6795   24.1172 H   0  0  0  0  0  0
  -27.4066  -29.7256   25.4576 H   0  0  0  0  0  0
  -27.8681  -30.4340   23.9265 H   0  0  0  0  0  0
  -27.2674  -33.3593   26.2112 H   0  0  0  0  0  0
  -28.3848  -32.6886   25.0309 H   0  0  0  0  0  0
  -28.0741  -31.8401   26.5388 H   0  0  0  0  0  0
  -28.2609  -38.0106   24.7502 H   0  0  0  0  0  0
  -28.1072  -36.2637   24.6300 H   0  0  0  0  0  0
  -27.2302  -37.1479   25.8874 H   0  0  0  0  0  0
  -20.9285  -29.8784   21.6982 H   0  0  0  0  0  0
  -26.0189  -38.2875   24.1391 H   0  0  0  0  0  0
  -29.1976  -23.5375   17.3866 H   0  0  0  0  0  0
  -28.2226  -22.5242   18.4591 H   0  0  0  0  0  0
  -27.2476  -24.3974   19.5213 H   0  0  0  0  0  0
  -27.2543  -24.8676   17.8077 H   0  0  0  0  0  0
  -30.1269  -17.4828   23.3763 H   0  0  0  0  0  0
  -31.7015  -16.9138   23.8772 H   0  0  0  0  0  0
  -32.6808  -20.5741   18.5755 H   0  0  0  0  0  0
  -31.5002  -19.3244   18.6128 H   0  0  0  0  0  0
  -30.8168  -21.5186   21.7236 H   0  0  0  0  0  0
  -32.4966  -21.5699   22.1702 H   0  0  0  0  0  0
  -30.9070  -25.3671   18.6754 H   0  0  0  0  0  0
  -30.5301  -25.4820   20.3819 H   0  0  0  0  0  0
  -32.8007  -18.7579   22.7986 H   0  0  0  0  0  0
  -31.3252  -19.5371   23.3608 H   0  0  0  0  0  0
  -29.7655  -21.0128   19.2896 H   0  0  0  0  0  0
  -30.4683  -21.3470   17.7225 H   0  0  0  0  0  0
  -33.0295  -22.6868   19.9756 H   0  0  0  0  0  0
  -31.9483  -23.6274   20.9540 H   0  0  0  0  0  0
  -30.5149  -17.5945   19.9298 H   0  0  0  0  0  0
  -32.2668  -17.5447   20.0225 H   0  0  0  0  0  0
  -32.3290  -16.1749   21.8000 H   0  0  0  0  0  0
  -29.4294  -23.3469   20.4169 H   0  0  0  0  0  0
  -33.1405  -19.8884   20.6736 H   0  0  0  0  0  0
  -28.9843  -26.4356   18.1431 H   0  0  0  0  0  0
  -28.2539  -15.5305   21.0100 H   0  0  0  0  0  0
  -28.8396  -16.9714   21.6841 H   0  0  0  0  0  0
  -28.6788  -15.5616   22.7247 H   0  0  0  0  0  0
  -30.3702  -19.2587   21.3122 H   0  0  0  0  0  0
  -31.5679  -23.1143   18.4668 H   0  0  0  0  0  0
  1 25  1  0  0  0
  1 30  2  0  0  0
  1 86  1  0  0  0
  2  3  1  0  0  0
  2 25  1  0  0  0
  2 89  1  0  0  0
  2 90  1  0  0  0
  3  4  1  0  0  0
  3 91  1  0  0  0
  3 92  1  0  0  0
  4  5  1  0  0  0
  4 93  1  0  0  0
  4 94  1  0  0  0
  5  6  1  0  0  0
  5 26  1  0  0  0
  5 95  1  0  0  0
  6 25  1  0  0  0
  6 96  1  0  0  0
  6 97  1  0  0  0
  7  8  2  0  0  0
  7 26  1  0  0  0
  7 29  1  0  0  0
  8  9  1  0  0  0
  8 22  1  0  0  0
  9 10  1  0  0  0
  9 27  2  0  0  0
 10 11  2  0  0  0
 10 15  1  0  0  0
 11 12  1  0  0  0
 11 98  1  0  0  0
 12 13  2  0  0  0
 12 99  1  0  0  0
 13 14  1  0  0  0
 13 31  1  0  0  0
 14 15  2  0  0  0
 14100  1  0  0  0
 15101  1  0  0  0
 16 17  2  0  0  0
 16 21  1  0  0  0
 16 31  1  0  0  0
 17 18  1  0  0  0
 17102  1  0  0  0
 18 19  2  0  0  0
 18103  1  0  0  0
 19 20  1  0  0  0
 19 24  1  0  0  0
 20 21  2  0  0  0
 20104  1  0  0  0
 21 23  1  0  0  0
 22 28  1  0  0  0
 22 32  2  0  0  0
 26 27  1  0  0  0
 28105  1  0  0  0
 28106  1  0  0  0
 29107  1  0  0  0
 29108  1  0  0  0
 33 34  1  0  0  0
 33 66  1  0  0  0
 33 70  2  0  0  0
 34 36  1  0  0  0
 34 59  1  0  0  0
 34109  1  0  0  0
 35 44  2  0  0  0
 35 45  1  0  0  0
 35 68  1  0  0  0
 36 56  1  0  0  0
 36110  1  0  0  0
 37 39  1  0  0  0
 37 47  1  0  0  0
 37 66  1  0  0  0
 37111  1  0  0  0
 38 43  2  0  0  0
 38 46  1  0  0  0
 38 47  1  0  0  0
 39 64  1  0  0  0
 39 67  2  0  0  0
 40 52  1  0  0  0
 40 53  2  0  0  0
 40 58  1  0  0  0
 41112  1  0  0  0
 41113  1  0  0  0
 41114  1  0  0  0
 41 48  1  0  0  0
 42 43  1  0  0  0
 42 66  1  0  0  0
 42115  1  0  0  0
 42116  1  0  0  0
 43 44  1  0  0  0
 44117  1  0  0  0
 45 46  2  0  0  0
 45118  1  0  0  0
 46119  1  0  0  0
 47120  1  0  0  0
 47121  1  0  0  0
 48 56  1  0  0  0
 48 65  1  0  0  0
 48122  1  0  0  0
 49 50  1  0  0  0
 49 53  1  0  0  0
 49 64  1  0  0  0
 49123  1  0  0  0
 50 51  1  0  0  0
 50124  1  0  0  0
 50125  1  0  0  0
 51 52  1  0  0  0
 51126  1  0  0  0
 51127  1  0  0  0
 52128  1  0  0  0
 52129  1  0  0  0
 53 54  1  0  0  0
 54 55  2  0  0  0
 54130  1  0  0  0
 55 57  1  0  0  0
 55131  1  0  0  0
 56 69  2  0  0  0
 57 58  2  0  0  0
 57132  1  0  0  0
 58133  1  0  0  0
 59 60  1  0  0  0
 59 61  1  0  0  0
 59 62  1  0  0  0
 60134  1  0  0  0
 60135  1  0  0  0
 60136  1  0  0  0
 61137  1  0  0  0
 61138  1  0  0  0
 61139  1  0  0  0
 62140  1  0  0  0
 62141  1  0  0  0
 62142  1  0  0  0
 63 65  1  0  0  0
 63143  1  0  0  0
 63144  1  0  0  0
 63145  1  0  0  0
 64146  1  0  0  0
 65147  1  0  0  0
 68 84  1  0  0  0
 71 72  1  0  0  0
 71148  1  0  0  0
 71149  1  0  0  0
 71 82  1  0  0  0
 72 84  1  0  0  0
 72150  1  0  0  0
 72151  1  0  0  0
 73 77  1  0  0  0
 73 81  1  0  0  0
 73152  1  0  0  0
 73153  1  0  0  0
 74 78  1  0  0  0
 74154  1  0  0  0
 74155  1  0  0  0
 74 83  1  0  0  0
 75 79  1  0  0  0
 75 83  1  0  0  0
 75156  1  0  0  0
 75157  1  0  0  0
 76 82  1  0  0  0
 76 84  1  0  0  0
 76158  1  0  0  0
 76159  1  0  0  0
 77160  1  0  0  0
 77161  1  0  0  0
 77 87  1  0  0  0
 78162  1  0  0  0
 78163  1  0  0  0
 78 88  1  0  0  0
 79 88  1  0  0  0
 79164  1  0  0  0
 79165  1  0  0  0
 80 81  1  0  0  0
 80 87  1  0  0  0
 80166  1  0  0  0
 80167  1  0  0  0
 81 86  1  0  0  0
 81168  1  0  0  0
 82 88  1  0  0  0
 82169  1  0  0  0
 83 87  1  0  0  0
 83170  1  0  0  0
 84171  1  0  0  0
 85 86  1  0  0  0
 85172  1  0  0  0
 85173  1  0  0  0
 85174  1  0  0  0
 87175  1  0  0  0
 88176  1  0  0  0
M  CHG  2  87   1  88   1
M  ISO  4   1 100  68 101  84 101  86 100
M  END
> <chiral flag>
0

> <version>
0

> <s_m_source_file>
/data/baiqing/PycharmProjects/Reinvent-master-3.2/result/LINK_invent/BTK/process_docking_weight1_custom_sum_contain_oxygen_bond_distance_aromatic_linkinvent_7_9_3/rearranged_h_0170.sdf

> <i_m_source_file_index>
30

> <r_mmod_Potential_Energy-OPLS-2005>
161.001922607422

> <r_mmod_Stretch_Energy-OPLS-2005>
50.443229675293

> <r_mmod_Bend_Energy-OPLS-2005>
204.47639465332

> <r_mmod_Torsional_Energy-OPLS-2005>
459.322082519531

> <r_mmod_Improper_Torsional_Energy-OPLS-2005>
3.13041996955872

> <r_mmod_Van_der_Waal_Energy-OPLS-2005>
175.770950317383

> <r_mmod_Electrostatic_Energy-OPLS-2005>
186.021026611328

> <r_mmod_Solvation_Energy-OPLS-2005>
-933.092163085938

> <b_mmod_Minimization_Converged-OPLS-2005>
0

> <r_mmod_RMS_Derivative-OPLS-2005>
1.87555861473083

$$$$
30
                    3D
 Structure written by MMmdl.
187198  0  0  1  0            999 V2000
  -30.7106  -14.4342   20.6071 C   0  0  0  0  0  0
  -30.4230  -12.2945   19.4166 C   0  0  0  0  0  0
  -29.4904  -12.5002   18.2050 C   0  0  0  0  0  0
  -28.0132  -12.3605   18.6208 C   0  0  0  0  0  0
  -27.6626  -13.1978   19.8794 C   0  0  2  0  0  0
  -28.7025  -12.9612   20.9991 C   0  0  0  0  0  0
  -25.2596  -13.8133   20.5693 C   0  0  0  0  0  0
  -24.1837  -13.0425   20.9193 C   0  0  0  0  0  0
  -24.6375  -11.6890   20.8743 C   0  0  0  0  0  0
  -23.9043  -10.4281   21.0417 C   0  0  0  0  0  0
  -24.3600   -9.4198   21.9195 C   0  0  0  0  0  0
  -23.6283   -8.2233   22.0758 C   0  0  0  0  0  0
  -22.4266   -8.0271   21.3542 C   0  0  0  0  0  0
  -21.9896   -9.0243   20.4647 C   0  0  0  0  0  0
  -22.7217  -10.2128   20.3060 C   0  0  0  0  0  0
  -21.6850   -6.0731   22.5275 C   0  0  0  0  0  0
  -21.4008   -6.5634   23.8211 C   0  0  0  0  0  0
  -21.3656   -5.6790   24.9172 C   0  0  0  0  0  0
  -21.6047   -4.3051   24.7222 C   0  0  0  0  0  0
  -21.8818   -3.8141   23.4346 C   0  0  0  0  0  0
  -21.9193   -4.6961   22.3400 C   0  0  0  0  0  0
  -22.7861  -13.5241   21.1849 C   0  0  0  0  0  0
  -22.1661   -4.2150   21.0980 F   0  0  0  0  0  0
  -21.5632   -3.4536   25.7737 F   0  0  0  0  0  0
  -30.0377  -13.2642   20.4522 N   0  0  0  0  0  0
  -26.3027  -12.9286   20.3381 N   0  0  0  0  0  0
  -25.9302  -11.6458   20.5783 N   0  0  0  0  0  0
  -22.0494  -12.8242   22.0405 N   0  0  0  0  0  0
  -25.4320  -15.1851   20.4074 N   0  0  0  0  0  0
  -31.8139  -14.6520   20.0997 O   0  0  0  0  0  0
  -21.6631   -6.8871   21.4239 O   0  0  0  0  0  0
  -22.3567  -14.5566   20.6710 O   0  0  0  0  0  0
  -24.6095  -31.8731   23.2133 C   0  0  0  0  0  0
  -25.9007  -32.4852   23.8437 C   0  0  1  0  0  0
  -27.2643  -27.4802   20.0943 C   0  0  0  0  0  0
  -25.5905  -33.8647   24.2386 N   0  0  0  0  0  0
  -23.3984  -30.4932   21.5517 C   0  0  2  0  0  0
  -24.8511  -28.9646   20.1162 C   0  0  0  0  0  0
  -22.7414  -29.4657   22.5009 C   0  0  0  0  0  0
  -18.0274  -28.1371   22.8463 C   0  0  0  0  0  0
  -24.1490  -36.7289   23.2651 C   0  0  0  0  0  0
  -25.9210  -30.8500   21.3647 C   0  0  0  0  0  0
  -26.0045  -29.4883   20.7145 C   0  0  0  0  0  0
  -27.2077  -28.7559   20.7082 C   0  0  0  0  0  0
  -26.0915  -26.9643   19.5036 C   0  0  0  0  0  0
  -24.8884  -27.6963   19.5104 C   0  0  0  0  0  0
  -23.6083  -29.8237   20.1665 C   0  0  0  0  0  0
  -25.4109  -36.3121   24.0374 C   0  0  1  0  0  0
  -20.5864  -28.3641   23.1321 C   0  0  2  0  0  0
  -20.6766  -26.9376   22.5425 C   0  0  0  0  0  0
  -19.5752  -26.6361   21.5213 C   0  0  0  0  0  0
  -18.1917  -26.7915   22.1604 C   0  0  0  0  0  0
  -19.1533  -28.8823   23.2879 C   0  0  0  0  0  0
  -18.9463  -30.1419   23.8907 C   0  0  0  0  0  0
  -17.6470  -30.6571   24.0542 C   0  0  0  0  0  0
  -25.9034  -34.9483   23.5174 C   0  0  0  0  0  0
  -16.5346  -29.9066   23.6325 C   0  0  0  0  0  0
  -16.7266  -28.6486   23.0342 C   0  0  0  0  0  0
  -26.4458  -31.6592   25.0727 C   0  0  0  0  0  0
  -25.3741  -31.3692   26.1493 C   0  0  0  0  0  0
  -27.0279  -30.3049   24.6014 C   0  0  0  0  0  0
  -27.6039  -32.4305   25.7486 C   0  0  0  0  0  0
  -27.5591  -37.1788   24.8474 C   0  0  0  0  0  0
  -21.4151  -29.3012   22.3736 N   0  0  0  0  0  0
  -26.4306  -37.3803   23.9428 N   0  0  0  0  0  0
  -24.6610  -31.0868   22.1011 N   0  0  0  0  0  0
  -23.4200  -28.8215   23.3056 O   0  0  0  0  0  0
  -28.3941  -26.6891   20.0176 O   0  0  0  0  0  0
  -26.5554  -34.8918   22.4705 O   0  0  0  0  0  0
  -23.5290  -32.1459   23.7534 O   0  0  0  0  0  0
  -32.3205  -19.9876   25.7190 C   0  0  0  0  0  0
  -31.6983  -19.0543   24.8765 C   0  0  0  0  0  0
  -32.1576  -21.3656   25.4755 C   0  0  0  0  0  0
  -31.3646  -21.7476   24.3620 C   0  0  0  0  0  0
  -30.9366  -19.5145   23.7913 C   0  0  0  0  0  0
  -33.0217  -22.0993   27.8582 C   0  0  0  0  0  0
  -32.0983  -23.1901   27.3742 C   0  0  0  0  0  0
  -29.6358  -23.5983   24.0240 C   0  0  0  0  0  0
  -30.8104  -17.2433   22.7489 C   0  0  0  0  0  0
  -29.6250  -19.0606   21.7255 C   0  0  0  0  0  0
  -29.4066  -25.0863   23.6987 C   0  0  0  0  0  0
  -31.4639  -25.1445   22.3489 C   0  0  0  0  0  0
  -32.8577  -22.3516   26.3723 C   0  0  0  0  0  0
  -31.1289  -23.2239   23.9938 C   0  0  2  0  0  0
  -31.7589  -23.6512   22.6431 C   0  0  2  0  0  0
  -30.4193  -16.8203   21.3185 C   0  0  2  0  0  0
  -29.2577  -17.7747   20.9784 C   0  0  2  0  0  0
  -33.2775  -23.3917   22.6028 C   0  0  0  0  0  0
  -29.7353  -26.9055   22.0591 C   0  0  0  0  0  0
  -29.6392  -27.1581   20.5382 C   0  0  0  0  0  0
  -30.7756  -20.8340   23.5471 N   0  0  0  0  0  0
  -30.3004  -18.6028   22.9283 N   0  0  0  0  0  0
  -30.0280  -15.4055   21.2338 N   0  0  0  0  0  0
  -30.0113  -25.4773   22.3963 N   0  3  2  0  0  0
  -29.0539  -17.9847   19.5346 N   0  3  0  0  0  0
  -31.4676  -12.3956   19.1143 H   0  0  0  0  0  0
  -30.3266  -11.2784   19.8047 H   0  0  0  0  0  0
  -29.7255  -11.7761   17.4237 H   0  0  0  0  0  0
  -29.6592  -13.4857   17.7700 H   0  0  0  0  0  0
  -27.8256  -11.3040   18.8190 H   0  0  0  0  0  0
  -27.3585  -12.6324   17.7925 H   0  0  0  0  0  0
  -27.7137  -14.2472   19.5905 H   0  0  0  0  0  0
  -28.6728  -11.9204   21.3266 H   0  0  0  0  0  0
  -28.4606  -13.5459   21.8882 H   0  0  0  0  0  0
  -25.2745   -9.5682   22.4766 H   0  0  0  0  0  0
  -23.9996   -7.4628   22.7472 H   0  0  0  0  0  0
  -21.0832   -8.8759   19.8950 H   0  0  0  0  0  0
  -22.3680  -10.9667   19.6170 H   0  0  0  0  0  0
  -21.1992   -7.6139   23.9716 H   0  0  0  0  0  0
  -21.1479   -6.0513   25.9077 H   0  0  0  0  0  0
  -22.0603   -2.7603   23.2843 H   0  0  0  0  0  0
  -22.4086  -11.9884   22.4772 H   0  0  0  0  0  0
  -21.1121  -13.1284   22.2623 H   0  0  0  0  0  0
  -24.6586  -15.8343   20.5003 H   0  0  0  0  0  0
  -26.2674  -15.6128   20.0339 H   0  0  0  0  0  0
  -26.7085  -32.5605   23.1219 H   0  0  0  0  0  0
  -25.0121  -33.9816   25.0561 H   0  0  0  0  0  0
  -22.6839  -31.3064   21.4111 H   0  0  0  0  0  0
  -23.3780  -35.9591   23.3320 H   0  0  0  0  0  0
  -24.3605  -36.8873   22.2066 H   0  0  0  0  0  0
  -23.7190  -37.6484   23.6627 H   0  0  0  0  0  0
  -26.0314  -31.6192   20.5996 H   0  0  0  0  0  0
  -26.8085  -30.9049   21.9833 H   0  0  0  0  0  0
  -28.0741  -29.1933   21.1810 H   0  0  0  0  0  0
  -26.1144  -25.9923   19.0299 H   0  0  0  0  0  0
  -24.0026  -27.2809   19.0487 H   0  0  0  0  0  0
  -23.7109  -30.5970   19.4046 H   0  0  0  0  0  0
  -22.7366  -29.2377   19.8699 H   0  0  0  0  0  0
  -25.1280  -36.2030   25.0876 H   0  0  0  0  0  0
  -20.9917  -28.3186   24.1459 H   0  0  0  0  0  0
  -20.5674  -26.2239   23.3600 H   0  0  0  0  0  0
  -21.6628  -26.7422   22.1203 H   0  0  0  0  0  0
  -19.6913  -25.6283   21.1217 H   0  0  0  0  0  0
  -19.6714  -27.3184   20.6754 H   0  0  0  0  0  0
  -17.4197  -26.6666   21.3991 H   0  0  0  0  0  0
  -18.0282  -26.0068   22.9010 H   0  0  0  0  0  0
  -19.7963  -30.7191   24.2289 H   0  0  0  0  0  0
  -17.5055  -31.6268   24.5107 H   0  0  0  0  0  0
  -15.5362  -30.2962   23.7686 H   0  0  0  0  0  0
  -15.8660  -28.0805   22.7075 H   0  0  0  0  0  0
  -24.5886  -30.7087   25.7819 H   0  0  0  0  0  0
  -24.8978  -32.2867   26.4972 H   0  0  0  0  0  0
  -25.8105  -30.8827   27.0225 H   0  0  0  0  0  0
  -26.2786  -29.6828   24.1112 H   0  0  0  0  0  0
  -27.4157  -29.7271   25.4409 H   0  0  0  0  0  0
  -27.8583  -30.4425   23.9080 H   0  0  0  0  0  0
  -27.2637  -33.3577   26.2119 H   0  0  0  0  0  0
  -28.3804  -32.6922   25.0282 H   0  0  0  0  0  0
  -28.0745  -31.8409   26.5353 H   0  0  0  0  0  0
  -28.2592  -38.0103   24.7542 H   0  0  0  0  0  0
  -28.1106  -36.2625   24.6279 H   0  0  0  0  0  0
  -27.2307  -37.1417   25.8879 H   0  0  0  0  0  0
  -20.9312  -29.8725   21.6950 H   0  0  0  0  0  0
  -26.0217  -38.2894   24.1438 H   0  0  0  0  0  0
  -32.9222  -19.6388   26.5455 H   0  0  0  0  0  0
  -31.8166  -18.0004   25.0849 H   0  0  0  0  0  0
  -32.5493  -21.2261   28.3044 H   0  0  0  0  0  0
  -33.9538  -22.4132   28.3276 H   0  0  0  0  0  0
  -32.4277  -24.2168   27.5255 H   0  0  0  0  0  0
  -31.0282  -23.0225   27.4784 H   0  0  0  0  0  0
  -29.0767  -22.9808   23.3208 H   0  0  0  0  0  0
  -29.2280  -23.3789   25.0117 H   0  0  0  0  0  0
  -31.8921  -17.1879   22.8847 H   0  0  0  0  0  0
  -30.3451  -16.5967   23.4944 H   0  0  0  0  0  0
  -28.7430  -19.6557   21.9675 H   0  0  0  0  0  0
  -30.3098  -19.6804   21.1445 H   0  0  0  0  0  0
  -29.8225  -25.7112   24.4915 H   0  0  0  0  0  0
  -28.3329  -25.2817   23.6775 H   0  0  0  0  0  0
  -31.8671  -25.4052   21.3685 H   0  0  0  0  0  0
  -31.9969  -25.7694   23.0689 H   0  0  0  0  0  0
  -33.6910  -22.8209   25.8509 H   0  0  0  0  0  0
  -31.6032  -23.8403   24.7558 H   0  0  0  0  0  0
  -31.3035  -23.0535   21.8517 H   0  0  0  0  0  0
  -31.2621  -17.0425   20.6604 H   0  0  0  0  0  0
  -28.3322  -17.3848   21.4089 H   0  0  0  0  0  0
  -33.7932  -23.9196   23.4068 H   0  0  0  0  0  0
  -33.7076  -23.7239   21.6577 H   0  0  0  0  0  0
  -33.5086  -22.3310   22.7075 H   0  0  0  0  0  0
  -28.8046  -27.2357   22.5223 H   0  0  0  0  0  0
  -30.5154  -27.5362   22.4896 H   0  0  0  0  0  0
  -30.4387  -26.6369   20.0117 H   0  0  0  0  0  0
  -29.7957  -28.2105   20.2979 H   0  0  0  0  0  0
  -29.1336  -15.1414   21.6202 H   0  0  0  0  0  0
  -29.5510  -24.9246   21.6866 H   0  0  0  0  0  0
  -29.8621  -18.4055   19.1123 H   0  0  0  0  0  0
  -28.2690  -18.5944   19.3852 H   0  0  0  0  0  0
  -28.8715  -17.1152   19.0690 H   0  0  0  0  0  0
  1 25  1  0  0  0
  1 30  2  0  0  0
  1 93  1  0  0  0
  2  3  1  0  0  0
  2 25  1  0  0  0
  2 96  1  0  0  0
  2 97  1  0  0  0
  3  4  1  0  0  0
  3 98  1  0  0  0
  3 99  1  0  0  0
  4  5  1  0  0  0
  4100  1  0  0  0
  4101  1  0  0  0
  5  6  1  0  0  0
  5 26  1  0  0  0
  5102  1  0  0  0
  6 25  1  0  0  0
  6103  1  0  0  0
  6104  1  0  0  0
  7  8  2  0  0  0
  7 26  1  0  0  0
  7 29  1  0  0  0
  8  9  1  0  0  0
  8 22  1  0  0  0
  9 10  1  0  0  0
  9 27  2  0  0  0
 10 11  2  0  0  0
 10 15  1  0  0  0
 11 12  1  0  0  0
 11105  1  0  0  0
 12 13  2  0  0  0
 12106  1  0  0  0
 13 14  1  0  0  0
 13 31  1  0  0  0
 14 15  2  0  0  0
 14107  1  0  0  0
 15108  1  0  0  0
 16 17  2  0  0  0
 16 21  1  0  0  0
 16 31  1  0  0  0
 17 18  1  0  0  0
 17109  1  0  0  0
 18 19  2  0  0  0
 18110  1  0  0  0
 19 20  1  0  0  0
 19 24  1  0  0  0
 20 21  2  0  0  0
 20111  1  0  0  0
 21 23  1  0  0  0
 22 28  1  0  0  0
 22 32  2  0  0  0
 26 27  1  0  0  0
 28112  1  0  0  0
 28113  1  0  0  0
 29114  1  0  0  0
 29115  1  0  0  0
 33 34  1  0  0  0
 33 66  1  0  0  0
 33 70  2  0  0  0
 34 36  1  0  0  0
 34 59  1  0  0  0
 34116  1  0  0  0
 35 44  2  0  0  0
 35 45  1  0  0  0
 35 68  1  0  0  0
 36 56  1  0  0  0
 36117  1  0  0  0
 37 39  1  0  0  0
 37 47  1  0  0  0
 37 66  1  0  0  0
 37118  1  0  0  0
 38 43  2  0  0  0
 38 46  1  0  0  0
 38 47  1  0  0  0
 39 64  1  0  0  0
 39 67  2  0  0  0
 40 52  1  0  0  0
 40 53  2  0  0  0
 40 58  1  0  0  0
 41119  1  0  0  0
 41120  1  0  0  0
 41121  1  0  0  0
 41 48  1  0  0  0
 42 43  1  0  0  0
 42 66  1  0  0  0
 42122  1  0  0  0
 42123  1  0  0  0
 43 44  1  0  0  0
 44124  1  0  0  0
 45 46  2  0  0  0
 45125  1  0  0  0
 46126  1  0  0  0
 47127  1  0  0  0
 47128  1  0  0  0
 48 56  1  0  0  0
 48 65  1  0  0  0
 48129  1  0  0  0
 49 50  1  0  0  0
 49 53  1  0  0  0
 49 64  1  0  0  0
 49130  1  0  0  0
 50 51  1  0  0  0
 50131  1  0  0  0
 50132  1  0  0  0
 51 52  1  0  0  0
 51133  1  0  0  0
 51134  1  0  0  0
 52135  1  0  0  0
 52136  1  0  0  0
 53 54  1  0  0  0
 54 55  2  0  0  0
 54137  1  0  0  0
 55 57  1  0  0  0
 55138  1  0  0  0
 56 69  2  0  0  0
 57 58  2  0  0  0
 57139  1  0  0  0
 58140  1  0  0  0
 59 60  1  0  0  0
 59 61  1  0  0  0
 59 62  1  0  0  0
 60141  1  0  0  0
 60142  1  0  0  0
 60143  1  0  0  0
 61144  1  0  0  0
 61145  1  0  0  0
 61146  1  0  0  0
 62147  1  0  0  0
 62148  1  0  0  0
 62149  1  0  0  0
 63 65  1  0  0  0
 63150  1  0  0  0
 63151  1  0  0  0
 63152  1  0  0  0
 64153  1  0  0  0
 65154  1  0  0  0
 68 90  1  0  0  0
 71 72  2  0  0  0
 71 73  1  0  0  0
 71155  1  0  0  0
 72 75  1  0  0  0
 72156  1  0  0  0
 73 74  2  0  0  0
 73 83  1  0  0  0
 74 91  1  0  0  0
 74 84  1  0  0  0
 75 91  2  0  0  0
 75 92  1  0  0  0
 76 77  1  0  0  0
 76 83  1  0  0  0
 76157  1  0  0  0
 76158  1  0  0  0
 77 83  1  0  0  0
 77159  1  0  0  0
 77160  1  0  0  0
 78 81  1  0  0  0
 78 84  1  0  0  0
 78161  1  0  0  0
 78162  1  0  0  0
 79 86  1  0  0  0
 79 92  1  0  0  0
 79163  1  0  0  0
 79164  1  0  0  0
 80 87  1  0  0  0
 80 92  1  0  0  0
 80165  1  0  0  0
 80166  1  0  0  0
 81 94  1  0  0  0
 81167  1  0  0  0
 81168  1  0  0  0
 82 85  1  0  0  0
 82 94  1  0  0  0
 82169  1  0  0  0
 82170  1  0  0  0
 83171  1  0  0  0
 84 85  1  0  0  0
 84172  1  0  0  0
 85 88  1  0  0  0
 85173  1  0  0  0
 86 87  1  0  0  0
 86 93  1  0  0  0
 86174  1  0  0  0
 87 95  1  0  0  0
 87175  1  0  0  0
 88176  1  0  0  0
 88177  1  0  0  0
 88178  1  0  0  0
 89 90  1  0  0  0
 89179  1  0  0  0
 89180  1  0  0  0
 89 94  1  0  0  0
 90181  1  0  0  0
 90182  1  0  0  0
 93183  1  0  0  0
 94184  1  0  0  0
 95185  1  0  0  0
 95186  1  0  0  0
 95187  1  0  0  0
M  CHG  2  94   1  95   1
M  ISO  4   1 100  68 101  90 101  93 100
M  END
> <chiral flag>
0

> <version>
0

> <s_m_source_file>
/data/baiqing/PycharmProjects/Reinvent-master-3.2/result/LINK_invent/BTK/process_docking_weight1_custom_sum_contain_oxygen_bond_distance_aromatic_linkinvent_7_9_3/rearranged_h_0170.sdf

> <i_m_source_file_index>
31

> <r_mmod_Potential_Energy-OPLS-2005>
-626.651611328125

> <r_mmod_Stretch_Energy-OPLS-2005>
38.7508163452148

> <r_mmod_Bend_Energy-OPLS-2005>
145.578842163086

> <r_mmod_Torsional_Energy-OPLS-2005>
327.832611083984

> <r_mmod_Improper_Torsional_Energy-OPLS-2005>
5.83989286422729

> <r_mmod_Van_der_Waal_Energy-OPLS-2005>
159.274749755859

> <r_mmod_Electrostatic_Energy-OPLS-2005>
-407.498352050781

> <r_mmod_Solvation_Energy-OPLS-2005>
-904.421264648438

> <b_mmod_Minimization_Converged-OPLS-2005>
0

> <r_mmod_RMS_Derivative-OPLS-2005>
2.64095735549927

$$$$
31
                    3D
 Structure written by MMmdl.
163172  0  0  1  0            999 V2000
  -30.5520  -15.0368   20.3475 C   0  0  0  0  0  0
  -30.4421  -12.6444   19.4738 C   0  0  0  0  0  0
  -29.5117  -12.4945   18.2487 C   0  0  0  0  0  0
  -28.0592  -12.2356   18.6959 C   0  0  0  0  0  0
  -27.6073  -13.1969   19.8203 C   0  0  2  0  0  0
  -28.6703  -13.3595   20.9333 C   0  0  0  0  0  0
  -25.2441  -13.8019   20.5798 C   0  0  0  0  0  0
  -24.1725  -13.0318   20.9293 C   0  0  0  0  0  0
  -24.6304  -11.6794   20.8838 C   0  0  0  0  0  0
  -23.8990  -10.4219   21.0469 C   0  0  0  0  0  0
  -24.3563   -9.4142   21.9228 C   0  0  0  0  0  0
  -23.6252   -8.2178   22.0767 C   0  0  0  0  0  0
  -22.4242   -8.0233   21.3545 C   0  0  0  0  0  0
  -21.9867   -9.0203   20.4652 C   0  0  0  0  0  0
  -22.7184  -10.2082   20.3090 C   0  0  0  0  0  0
  -21.6831   -6.0711   22.5283 C   0  0  0  0  0  0
  -21.3993   -6.5625   23.8213 C   0  0  0  0  0  0
  -21.3655   -5.6784   24.9181 C   0  0  0  0  0  0
  -21.6047   -4.3048   24.7236 C   0  0  0  0  0  0
  -21.8819   -3.8135   23.4360 C   0  0  0  0  0  0
  -21.9185   -4.6944   22.3412 C   0  0  0  0  0  0
  -22.7764  -13.5158   21.1909 C   0  0  0  0  0  0
  -22.1658   -4.2132   21.0988 F   0  0  0  0  0  0
  -21.5638   -3.4534   25.7754 F   0  0  0  0  0  0
  -29.9276  -13.7801   20.2915 N   0  0  0  0  0  0
  -26.2802  -12.9132   20.3332 N   0  0  0  0  0  0
  -25.9217  -11.6329   20.5847 N   0  0  0  0  0  0
  -22.0384  -12.8183   22.0463 N   0  0  0  0  0  0
  -25.4069  -15.1746   20.4223 N   0  0  0  0  0  0
  -31.7865  -15.0303   20.3014 O   0  0  0  0  0  0
  -21.6606   -6.8840   21.4240 O   0  0  0  0  0  0
  -22.3492  -14.5472   20.6735 O   0  0  0  0  0  0
  -24.6438  -31.8431   23.1881 C   0  0  0  0  0  0
  -25.9208  -32.4690   23.8274 C   0  0  1  0  0  0
  -27.2254  -27.1275   20.1549 C   0  0  0  0  0  0
  -25.5955  -33.8497   24.2193 N   0  0  0  0  0  0
  -23.4489  -30.4611   21.5325 C   0  0  2  0  0  0
  -24.9022  -28.8873   20.1083 C   0  0  0  0  0  0
  -22.7571  -29.4538   22.4852 C   0  0  0  0  0  0
  -18.0306  -28.1397   22.8475 C   0  0  0  0  0  0
  -24.1491  -36.7247   23.2640 C   0  0  0  0  0  0
  -26.0055  -30.7124   21.3913 C   0  0  0  0  0  0
  -26.0775  -29.3230   20.7332 C   0  0  0  0  0  0
  -27.2369  -28.4577   20.7427 C   0  0  0  0  0  0
  -26.0280  -26.8037   19.4761 C   0  0  0  0  0  0
  -24.8913  -27.6415   19.4638 C   0  0  0  0  0  0
  -23.6774  -29.7887   20.1525 C   0  0  0  0  0  0
  -25.4122  -36.3029   24.0316 C   0  0  1  0  0  0
  -20.5919  -28.3724   23.1233 C   0  0  2  0  0  0
  -20.6790  -26.9426   22.5404 C   0  0  0  0  0  0
  -19.5764  -26.6380   21.5211 C   0  0  0  0  0  0
  -18.1945  -26.7936   22.1620 C   0  0  0  0  0  0
  -19.1562  -28.8878   23.2847 C   0  0  0  0  0  0
  -18.9477  -30.1474   23.8873 C   0  0  0  0  0  0
  -17.6475  -30.6595   24.0556 C   0  0  0  0  0  0
  -25.9073  -34.9403   23.5062 C   0  0  0  0  0  0
  -16.5367  -29.9085   23.6339 C   0  0  0  0  0  0
  -16.7291  -28.6504   23.0362 C   0  0  0  0  0  0
  -26.4529  -31.6555   25.0713 C   0  0  0  0  0  0
  -25.3711  -31.3753   26.1405 C   0  0  0  0  0  0
  -27.0398  -30.2946   24.6312 C   0  0  0  0  0  0
  -27.6062  -32.4321   25.7499 C   0  0  0  0  0  0
  -27.5579  -37.1780   24.8464 C   0  0  0  0  0  0
  -21.4263  -29.3047   22.3600 N   0  0  0  0  0  0
  -26.4287  -37.3743   23.9411 N   0  0  0  0  0  0
  -24.7189  -31.0271   22.0921 N   0  0  0  0  0  0
  -23.4205  -28.8088   23.3010 O   0  0  0  0  0  0
  -28.2704  -26.1314   20.2610 O   0  0  0  0  0  0
  -26.5662  -34.8901   22.4642 O   0  0  0  0  0  0
  -23.5554  -32.1314   23.7089 O   0  0  0  0  0  0
  -30.0784  -20.9542   21.8357 C   0  0  0  0  0  0
  -30.0814  -22.2432   22.4231 C   0  0  0  0  0  0
  -28.8534  -21.9256   19.9922 C   0  0  0  0  0  0
  -29.4668  -20.7045   20.5930 C   0  0  0  0  0  0
  -29.4734  -23.3824   21.8296 C   0  0  0  0  0  0
  -28.8302  -23.3014   20.5680 C   0  0  0  0  0  0
  -28.2709  -18.8076   19.2330 C   0  0  0  0  0  0
  -30.0983  -17.7612   20.7464 C   0  0  0  0  0  0
  -28.7021  -16.2925   19.2682 C   0  0  0  0  0  0
  -29.5527  -19.1689   19.9709 C   0  0  2  0  0  0
  -28.5012  -17.5465   18.3916 C   0  0  1  0  0  0
  -29.4994  -24.6913   22.5997 C   0  0  0  0  0  0
  -27.3362  -17.3316   17.4132 C   0  0  0  0  0  0
  -28.0228  -24.6174   19.9583 C   0  0  0  0  0  0
  -29.8211  -16.2828   20.2250 N   0  0  0  0  0  0
  -31.4654  -12.8226   19.1389 H   0  0  0  0  0  0
  -30.4712  -11.7249   20.0603 H   0  0  0  0  0  0
  -29.8537  -11.6775   17.6123 H   0  0  0  0  0  0
  -29.5573  -13.3960   17.6370 H   0  0  0  0  0  0
  -28.0032  -11.2068   19.0535 H   0  0  0  0  0  0
  -27.3811  -12.2984   17.8438 H   0  0  0  0  0  0
  -27.4722  -14.1236   19.2934 H   0  0  0  0  0  0
  -28.8038  -12.4316   21.4902 H   0  0  0  0  0  0
  -28.3516  -14.1140   21.6541 H   0  0  0  0  0  0
  -25.2703   -9.5615   22.4809 H   0  0  0  0  0  0
  -23.9960   -7.4558   22.7470 H   0  0  0  0  0  0
  -21.0808   -8.8714   19.8950 H   0  0  0  0  0  0
  -22.3654  -10.9629   19.6209 H   0  0  0  0  0  0
  -21.1972   -7.6130   23.9709 H   0  0  0  0  0  0
  -21.1482   -6.0521   25.9082 H   0  0  0  0  0  0
  -22.0607   -2.7598   23.2870 H   0  0  0  0  0  0
  -22.3972  -11.9841   22.4868 H   0  0  0  0  0  0
  -21.1005  -13.1237   22.2657 H   0  0  0  0  0  0
  -24.6355  -15.8215   20.5423 H   0  0  0  0  0  0
  -26.2554  -15.6232   20.1075 H   0  0  0  0  0  0
  -26.7266  -32.5295   23.0999 H   0  0  0  0  0  0
  -25.0077  -33.9610   25.0326 H   0  0  0  0  0  0
  -22.7520  -31.2870   21.3766 H   0  0  0  0  0  0
  -23.3765  -35.9568   23.3287 H   0  0  0  0  0  0
  -24.3575  -36.8897   22.2060 H   0  0  0  0  0  0
  -23.7240  -37.6432   23.6689 H   0  0  0  0  0  0
  -26.1637  -31.4665   20.6193 H   0  0  0  0  0  0
  -26.8745  -30.7627   22.0355 H   0  0  0  0  0  0
  -28.1268  -28.7814   21.2633 H   0  0  0  0  0  0
  -25.9321  -25.8566   18.9661 H   0  0  0  0  0  0
  -23.9965  -27.3059   18.9576 H   0  0  0  0  0  0
  -23.8129  -30.5629   19.3964 H   0  0  0  0  0  0
  -22.7931  -29.2292   19.8416 H   0  0  0  0  0  0
  -25.1314  -36.1855   25.0810 H   0  0  0  0  0  0
  -21.0010  -28.3318   24.1354 H   0  0  0  0  0  0
  -20.5684  -26.2337   23.3623 H   0  0  0  0  0  0
  -21.6655  -26.7430   22.1203 H   0  0  0  0  0  0
  -19.6926  -25.6283   21.1260 H   0  0  0  0  0  0
  -19.6705  -27.3173   20.6729 H   0  0  0  0  0  0
  -17.4214  -26.6681   21.4026 H   0  0  0  0  0  0
  -18.0345  -26.0084   22.9023 H   0  0  0  0  0  0
  -19.7951  -30.7299   24.2233 H   0  0  0  0  0  0
  -17.5026  -31.6273   24.5158 H   0  0  0  0  0  0
  -15.5366  -30.2979   23.7678 H   0  0  0  0  0  0
  -15.8690  -28.0813   22.7095 H   0  0  0  0  0  0
  -24.5893  -30.7102   25.7722 H   0  0  0  0  0  0
  -24.8891  -32.2933   26.4775 H   0  0  0  0  0  0
  -25.7978  -30.8956   27.0222 H   0  0  0  0  0  0
  -26.3019  -29.6665   24.1308 H   0  0  0  0  0  0
  -27.3987  -29.7259   25.4901 H   0  0  0  0  0  0
  -27.8940  -30.4177   23.9654 H   0  0  0  0  0  0
  -27.2663  -33.3648   26.2019 H   0  0  0  0  0  0
  -28.3904  -32.6839   25.0347 H   0  0  0  0  0  0
  -28.0696  -31.8480   26.5464 H   0  0  0  0  0  0
  -28.2582  -38.0091   24.7520 H   0  0  0  0  0  0
  -28.1093  -36.2620   24.6281 H   0  0  0  0  0  0
  -27.2294  -37.1413   25.8866 H   0  0  0  0  0  0
  -20.9477  -29.8746   21.6767 H   0  0  0  0  0  0
  -26.0153  -38.2810   24.1417 H   0  0  0  0  0  0
  -30.5638  -20.1419   22.3593 H   0  0  0  0  0  0
  -30.5656  -22.3503   23.3843 H   0  0  0  0  0  0
  -28.3600  -21.8071   19.0386 H   0  0  0  0  0  0
  -27.9866  -19.6252   18.5709 H   0  0  0  0  0  0
  -27.4480  -18.6728   19.9367 H   0  0  0  0  0  0
  -29.6534  -17.7734   21.7417 H   0  0  0  0  0  0
  -31.1702  -17.8579   20.9223 H   0  0  0  0  0  0
  -28.8304  -15.4763   18.5577 H   0  0  0  0  0  0
  -27.7993  -16.1370   19.8513 H   0  0  0  0  0  0
  -30.2951  -19.3186   19.1860 H   0  0  0  0  0  0
  -29.3986  -17.6872   17.7858 H   0  0  0  0  0  0
  -29.9447  -24.5709   23.5877 H   0  0  0  0  0  0
  -28.4880  -25.0722   22.7430 H   0  0  0  0  0  0
  -30.0813  -25.4404   22.0623 H   0  0  0  0  0  0
  -26.3954  -17.1684   17.9406 H   0  0  0  0  0  0
  -27.5110  -16.4669   16.7719 H   0  0  0  0  0  0
  -27.2044  -18.1957   16.7612 H   0  0  0  0  0  0
  -26.9920  -24.4116   20.2456 H   0  0  0  0  0  0
  -28.0453  -24.5145   18.8732 H   0  0  0  0  0  0
  1 25  1  0  0  0
  1 30  2  0  0  0
  1 85  1  0  0  0
  2  3  1  0  0  0
  2 25  1  0  0  0
  2 86  1  0  0  0
  2 87  1  0  0  0
  3  4  1  0  0  0
  3 88  1  0  0  0
  3 89  1  0  0  0
  4  5  1  0  0  0
  4 90  1  0  0  0
  4 91  1  0  0  0
  5  6  1  0  0  0
  5 26  1  0  0  0
  5 92  1  0  0  0
  6 25  1  0  0  0
  6 93  1  0  0  0
  6 94  1  0  0  0
  7  8  2  0  0  0
  7 26  1  0  0  0
  7 29  1  0  0  0
  8  9  1  0  0  0
  8 22  1  0  0  0
  9 10  1  0  0  0
  9 27  2  0  0  0
 10 11  2  0  0  0
 10 15  1  0  0  0
 11 12  1  0  0  0
 11 95  1  0  0  0
 12 13  2  0  0  0
 12 96  1  0  0  0
 13 14  1  0  0  0
 13 31  1  0  0  0
 14 15  2  0  0  0
 14 97  1  0  0  0
 15 98  1  0  0  0
 16 17  2  0  0  0
 16 21  1  0  0  0
 16 31  1  0  0  0
 17 18  1  0  0  0
 17 99  1  0  0  0
 18 19  2  0  0  0
 18100  1  0  0  0
 19 20  1  0  0  0
 19 24  1  0  0  0
 20 21  2  0  0  0
 20101  1  0  0  0
 21 23  1  0  0  0
 22 28  1  0  0  0
 22 32  2  0  0  0
 26 27  1  0  0  0
 28102  1  0  0  0
 28103  1  0  0  0
 29104  1  0  0  0
 29105  1  0  0  0
 33 34  1  0  0  0
 33 66  1  0  0  0
 33 70  2  0  0  0
 34 36  1  0  0  0
 34 59  1  0  0  0
 34106  1  0  0  0
 35 44  2  0  0  0
 35 45  1  0  0  0
 35 68  1  0  0  0
 36 56  1  0  0  0
 36107  1  0  0  0
 37 39  1  0  0  0
 37 47  1  0  0  0
 37 66  1  0  0  0
 37108  1  0  0  0
 38 43  2  0  0  0
 38 46  1  0  0  0
 38 47  1  0  0  0
 39 64  1  0  0  0
 39 67  2  0  0  0
 40 52  1  0  0  0
 40 53  2  0  0  0
 40 58  1  0  0  0
 41109  1  0  0  0
 41110  1  0  0  0
 41111  1  0  0  0
 41 48  1  0  0  0
 42 43  1  0  0  0
 42 66  1  0  0  0
 42112  1  0  0  0
 42113  1  0  0  0
 43 44  1  0  0  0
 44114  1  0  0  0
 45 46  2  0  0  0
 45115  1  0  0  0
 46116  1  0  0  0
 47117  1  0  0  0
 47118  1  0  0  0
 48 56  1  0  0  0
 48 65  1  0  0  0
 48119  1  0  0  0
 49 50  1  0  0  0
 49 53  1  0  0  0
 49 64  1  0  0  0
 49120  1  0  0  0
 50 51  1  0  0  0
 50121  1  0  0  0
 50122  1  0  0  0
 51 52  1  0  0  0
 51123  1  0  0  0
 51124  1  0  0  0
 52125  1  0  0  0
 52126  1  0  0  0
 53 54  1  0  0  0
 54 55  2  0  0  0
 54127  1  0  0  0
 55 57  1  0  0  0
 55128  1  0  0  0
 56 69  2  0  0  0
 57 58  2  0  0  0
 57129  1  0  0  0
 58130  1  0  0  0
 59 60  1  0  0  0
 59 61  1  0  0  0
 59 62  1  0  0  0
 60131  1  0  0  0
 60132  1  0  0  0
 60133  1  0  0  0
 61134  1  0  0  0
 61135  1  0  0  0
 61136  1  0  0  0
 62137  1  0  0  0
 62138  1  0  0  0
 62139  1  0  0  0
 63 65  1  0  0  0
 63140  1  0  0  0
 63141  1  0  0  0
 63142  1  0  0  0
 64143  1  0  0  0
 65144  1  0  0  0
 68 84  1  0  0  0
 71 72  2  0  0  0
 71 74  1  0  0  0
 71145  1  0  0  0
 72 75  1  0  0  0
 72146  1  0  0  0
 73 74  2  0  0  0
 73 76  1  0  0  0
 73147  1  0  0  0
 74 80  1  0  0  0
 75 76  2  0  0  0
 75 82  1  0  0  0
 76 84  1  0  0  0
 77 80  1  0  0  0
 77 81  1  0  0  0
 77148  1  0  0  0
 77149  1  0  0  0
 78 80  1  0  0  0
 78 85  1  0  0  0
 78150  1  0  0  0
 78151  1  0  0  0
 79 81  1  0  0  0
 79 85  1  0  0  0
 79152  1  0  0  0
 79153  1  0  0  0
 80154  1  0  0  0
 81 83  1  0  0  0
 81155  1  0  0  0
 82156  1  0  0  0
 82157  1  0  0  0
 82158  1  0  0  0
 83159  1  0  0  0
 83160  1  0  0  0
 83161  1  0  0  0
 84162  1  0  0  0
 84163  1  0  0  0
M  ISO  4   1 100  68 101  84 101  85 100
M  END
> <chiral flag>
0

> <version>
0

> <s_m_source_file>
/data/baiqing/PycharmProjects/Reinvent-master-3.2/result/LINK_invent/BTK/process_docking_weight1_custom_sum_contain_oxygen_bond_distance_aromatic_linkinvent_7_9_3/rearranged_h_0170.sdf

> <i_m_source_file_index>
32

> <r_mmod_Potential_Energy-OPLS-2005>
784.23828125

> <r_mmod_Stretch_Energy-OPLS-2005>
281.249389648438

> <r_mmod_Bend_Energy-OPLS-2005>
263.667205810547

> <r_mmod_Torsional_Energy-OPLS-2005>
335.500854492188

> <r_mmod_Improper_Torsional_Energy-OPLS-2005>
5.63683223724365

> <r_mmod_Van_der_Waal_Energy-OPLS-2005>
140.522232055664

> <r_mmod_Electrostatic_Energy-OPLS-2005>
-293.875396728516

> <r_mmod_Solvation_Energy-OPLS-2005>
-193.862289428711

> <b_mmod_Minimization_Converged-OPLS-2005>
0

> <r_mmod_RMS_Derivative-OPLS-2005>
0.939871728420258

$$$$
32
                    3D
 Structure written by MMmdl.
179190  0  0  1  0            999 V2000
  -29.7619  -16.9625   20.2314 C   0  0  0  0  0  0
  -30.2740  -14.0788   19.5609 C   0  0  0  0  0  0
  -29.5926  -13.1203   18.4720 C   0  0  0  0  0  0
  -28.2978  -12.4695   18.9593 C   0  0  0  0  0  0
  -27.5742  -13.5034   19.8278 C   0  0  2  0  0  0
  -28.4603  -14.3367   20.8524 C   0  0  0  0  0  0
  -25.2103  -13.8620   20.5958 C   0  0  0  0  0  0
  -24.1688  -13.0503   20.9323 C   0  0  0  0  0  0
  -24.6667  -11.7104   20.8697 C   0  0  0  0  0  0
  -23.9383  -10.4361   21.0302 C   0  0  0  0  0  0
  -24.3828   -9.4267   21.9133 C   0  0  0  0  0  0
  -23.6426   -8.2336   22.0753 C   0  0  0  0  0  0
  -22.4394   -8.0374   21.3556 C   0  0  0  0  0  0
  -22.0087   -9.0361   20.4637 C   0  0  0  0  0  0
  -22.7500  -10.2199   20.3006 C   0  0  0  0  0  0
  -21.6898   -6.0803   22.5281 C   0  0  0  0  0  0
  -21.4044   -6.5682   23.8219 C   0  0  0  0  0  0
  -21.3665   -5.6816   24.9169 C   0  0  0  0  0  0
  -21.6036   -4.3078   24.7205 C   0  0  0  0  0  0
  -21.8821   -3.8190   23.4320 C   0  0  0  0  0  0
  -21.9210   -4.7023   22.3387 C   0  0  0  0  0  0
  -22.7647  -13.5069   21.1908 C   0  0  0  0  0  0
  -22.1672   -4.2208   21.0965 F   0  0  0  0  0  0
  -21.5616   -3.4551   25.7710 F   0  0  0  0  0  0
  -29.4396  -15.3437   20.1789 N   0  0  0  0  0  0
  -26.2867  -13.0390   20.3531 N   0  0  0  0  0  0
  -25.9703  -11.7219   20.5608 N   0  0  0  0  0  0
  -22.0365  -12.8016   22.0461 N   0  0  0  0  0  0
  -25.3259  -15.2402   20.4379 N   0  0  0  0  0  0
  -31.0086  -16.6901   20.1054 O   0  0  0  0  0  0
  -21.6710   -6.8983   21.4261 O   0  0  0  0  0  0
  -22.3249  -14.5340   20.6734 O   0  0  0  0  0  0
  -24.7741  -31.6890   23.0770 C   0  0  0  0  0  0
  -25.9851  -32.3955   23.7656 C   0  0  1  0  0  0
  -27.2785  -25.8091   20.2543 C   0  0  0  0  0  0
  -25.6062  -33.7834   24.1429 N   0  0  0  0  0  0
  -23.6403  -30.2489   21.4543 C   0  0  2  0  0  0
  -25.1094  -28.4057   20.1391 C   0  0  0  0  0  0
  -22.8159  -29.3726   22.4472 C   0  0  0  0  0  0
  -18.0407  -28.1488   22.8401 C   0  0  0  0  0  0
  -24.1523  -36.6970   23.2666 C   0  0  0  0  0  0
  -26.2445  -30.1199   21.4817 C   0  0  0  0  0  0
  -26.3073  -28.5860   20.8386 C   0  0  0  0  0  0
  -27.3264  -27.3472   20.8564 C   0  0  0  0  0  0
  -26.0426  -26.0740   19.5083 C   0  0  0  0  0  0
  -25.0673  -27.1753   19.4474 C   0  0  0  0  0  0
  -23.9433  -29.4670   20.1275 C   0  0  0  0  0  0
  -25.4191  -36.2609   24.0205 C   0  0  1  0  0  0
  -20.6078  -28.3877   23.0977 C   0  0  2  0  0  0
  -20.6836  -26.9454   22.5417 C   0  0  0  0  0  0
  -19.5832  -26.6349   21.5228 C   0  0  0  0  0  0
  -18.2011  -26.7997   22.1596 C   0  0  0  0  0  0
  -19.1691  -28.9027   23.2648 C   0  0  0  0  0  0
  -18.9568  -30.1589   23.8728 C   0  0  0  0  0  0
  -17.6545  -30.6632   24.0538 C   0  0  0  0  0  0
  -25.9215  -34.9019   23.4723 C   0  0  0  0  0  0
  -16.5436  -29.9087   23.6393 C   0  0  0  0  0  0
  -16.7374  -28.6535   23.0367 C   0  0  0  0  0  0
  -26.4749  -31.6362   25.0612 C   0  0  0  0  0  0
  -25.3559  -31.3913   26.1021 C   0  0  0  0  0  0
  -27.0827  -30.2635   24.7124 C   0  0  0  0  0  0
  -27.6045  -32.4414   25.7467 C   0  0  0  0  0  0
  -27.5552  -37.1634   24.8450 C   0  0  0  0  0  0
  -21.4720  -29.2933   22.3190 N   0  0  0  0  0  0
  -26.4258  -37.3450   23.9390 N   0  0  0  0  0  0
  -24.9223  -30.7404   22.0574 N   0  0  0  0  0  0
  -23.4169  -28.7486   23.3240 O   0  0  0  0  0  0
  -27.9468  -24.0808   20.3008 O   0  0  0  0  0  0
  -26.5981  -34.8784   22.4432 O   0  0  0  0  0  0
  -23.6567  -32.0390   23.5139 O   0  0  0  0  0  0
  -29.8756  -23.4728   21.1959 C   0  0  0  0  0  0
  -28.4763  -21.1324   19.8368 C   0  0  0  0  0  0
  -29.8849  -24.6721   19.7936 C   0  0  0  0  0  0
  -28.0529  -22.3895   18.6374 C   0  0  0  0  0  0
  -28.7947  -24.0750   18.3823 C   0  0  0  0  0  0
  -29.2268  -21.8273   21.1008 C   0  0  0  0  0  0
  -30.8674  -19.9927   16.4939 C   0  0  0  0  0  0
  -29.9824  -22.0796   15.7886 C   0  0  0  0  0  0
  -29.6262  -20.4630   17.2798 C   0  0  2  0  0  0
  -28.7323  -21.3609   16.4077 C   0  0  2  0  0  0
  -28.9333  -19.1865   20.4275 C   0  0  1  0  0  0
  -31.0906  -21.4951   16.6601 C   0  0  1  0  0  0
  -30.6451  -21.2596   18.1777 C   0  0  1  0  0  0
  -30.6228  -25.9895   19.8283 C   0  0  0  0  0  0
  -28.4614  -25.0144   17.2257 C   0  0  0  0  0  0
  -27.6220  -18.8149   21.1182 C   0  0  0  0  0  0
  -32.4528  -22.1060   16.3139 C   0  0  0  0  0  0
  -31.6287  -20.4152   19.0672 C   0  0  0  0  0  0
  -26.3610  -22.4827   16.6529 C   0  0  0  0  0  0
  -30.3003  -22.5801   19.1185 C   0  0  0  0  0  0
  -27.5309  -21.7466   17.3455 C   0  0  2  0  0  0
  -29.6149  -20.3640   21.4454 O   0  0  0  0  0  0
  -31.1479  -14.4996   19.0623 H   0  0  0  0  0  0
  -30.7145  -13.4819   20.3624 H   0  0  0  0  0  0
  -30.2994  -12.3553   18.1473 H   0  0  0  0  0  0
  -29.3696  -13.7193   17.5874 H   0  0  0  0  0  0
  -28.5411  -11.5924   19.5603 H   0  0  0  0  0  0
  -27.6826  -12.1289   18.1254 H   0  0  0  0  0  0
  -27.2870  -14.2492   19.0850 H   0  0  0  0  0  0
  -28.9464  -13.6861   21.5810 H   0  0  0  0  0  0
  -27.8004  -14.9516   21.4636 H   0  0  0  0  0  0
  -25.2958   -9.5724   22.4735 H   0  0  0  0  0  0
  -24.0095   -7.4746   22.7520 H   0  0  0  0  0  0
  -21.1000   -8.8935   19.8956 H   0  0  0  0  0  0
  -22.3966  -10.9745   19.6118 H   0  0  0  0  0  0
  -21.2047   -7.6189   23.9740 H   0  0  0  0  0  0
  -21.1473   -6.0536   25.9071 H   0  0  0  0  0  0
  -22.0585   -2.7653   23.2800 H   0  0  0  0  0  0
  -22.4072  -11.9739   22.4903 H   0  0  0  0  0  0
  -21.0956  -13.0961   22.2627 H   0  0  0  0  0  0
  -24.5254  -15.8552   20.5415 H   0  0  0  0  0  0
  -26.1525  -15.7176   20.1031 H   0  0  0  0  0  0
  -26.8078  -32.4305   23.0499 H   0  0  0  0  0  0
  -24.9975  -33.8719   24.9432 H   0  0  0  0  0  0
  -23.0194  -31.1073   21.1886 H   0  0  0  0  0  0
  -23.3810  -35.9273   23.3164 H   0  0  0  0  0  0
  -24.3572  -36.8853   22.2119 H   0  0  0  0  0  0
  -23.7274  -37.6067   23.6917 H   0  0  0  0  0  0
  -26.5353  -30.7876   20.6714 H   0  0  0  0  0  0
  -27.0687  -30.2049   22.1738 H   0  0  0  0  0  0
  -28.1872  -27.5223   21.4872 H   0  0  0  0  0  0
  -25.7159  -25.2122   18.9435 H   0  0  0  0  0  0
  -24.1907  -26.9914   18.8443 H   0  0  0  0  0  0
  -24.1881  -30.1941   19.3518 H   0  0  0  0  0  0
  -23.0314  -28.9821   19.7774 H   0  0  0  0  0  0
  -25.1446  -36.1248   25.0689 H   0  0  0  0  0  0
  -21.0123  -28.3588   24.1120 H   0  0  0  0  0  0
  -20.5654  -26.2524   23.3762 H   0  0  0  0  0  0
  -21.6691  -26.7284   22.1277 H   0  0  0  0  0  0
  -19.6979  -25.6212   21.1385 H   0  0  0  0  0  0
  -19.6828  -27.3062   20.6690 H   0  0  0  0  0  0
  -17.4297  -26.6759   21.3977 H   0  0  0  0  0  0
  -18.0345  -26.0171   22.9014 H   0  0  0  0  0  0
  -19.8033  -30.7456   24.2028 H   0  0  0  0  0  0
  -17.5078  -31.6286   24.5180 H   0  0  0  0  0  0
  -15.5425  -30.2926   23.7800 H   0  0  0  0  0  0
  -15.8785  -28.0799   22.7145 H   0  0  0  0  0  0
  -24.5853  -30.7187   25.7222 H   0  0  0  0  0  0
  -24.8655  -32.3208   26.3923 H   0  0  0  0  0  0
  -25.7489  -30.9374   27.0124 H   0  0  0  0  0  0
  -26.3703  -29.5946   24.2301 H   0  0  0  0  0  0
  -27.4088  -29.7455   25.6146 H   0  0  0  0  0  0
  -27.9716  -30.3580   24.0889 H   0  0  0  0  0  0
  -27.2519  -33.3909   26.1502 H   0  0  0  0  0  0
  -28.4121  -32.6654   25.0478 H   0  0  0  0  0  0
  -28.0425  -31.8914   26.5808 H   0  0  0  0  0  0
  -28.2459  -38.0025   24.7514 H   0  0  0  0  0  0
  -28.1165  -36.2539   24.6256 H   0  0  0  0  0  0
  -27.2276  -37.1213   25.8852 H   0  0  0  0  0  0
  -21.0235  -29.8466   21.6018 H   0  0  0  0  0  0
  -26.0009  -38.2473   24.1381 H   0  0  0  0  0  0
  -30.4904  -23.7149   22.0522 H   0  0  0  0  0  0
  -30.6418  -19.6543   15.4801 H   0  0  0  0  0  0
  -31.5922  -19.3130   16.9426 H   0  0  0  0  0  0
  -30.0864  -23.1713   15.6718 H   0  0  0  0  0  0
  -30.0863  -21.7191   14.7616 H   0  0  0  0  0  0
  -29.1218  -19.6219   17.7552 H   0  0  0  0  0  0
  -28.6914  -22.4209   16.5265 H   0  0  0  0  0  0
  -30.7237  -26.3343   20.8571 H   0  0  0  0  0  0
  -30.0914  -26.7503   19.2604 H   0  0  0  0  0  0
  -31.6231  -25.8683   19.4099 H   0  0  0  0  0  0
  -29.0556  -25.9255   17.2695 H   0  0  0  0  0  0
  -27.4182  -25.3155   17.2954 H   0  0  0  0  0  0
  -28.6017  -24.5820   16.2422 H   0  0  0  0  0  0
  -27.3342  -19.5492   21.8694 H   0  0  0  0  0  0
  -27.6859  -17.8547   21.6316 H   0  0  0  0  0  0
  -26.8050  -18.7452   20.4008 H   0  0  0  0  0  0
  -32.6870  -21.9787   15.2555 H   0  0  0  0  0  0
  -33.2652  -21.6522   16.8787 H   0  0  0  0  0  0
  -32.4783  -23.1782   16.5165 H   0  0  0  0  0  0
  -32.6629  -20.5378   18.7487 H   0  0  0  0  0  0
  -31.4047  -19.3496   19.0525 H   0  0  0  0  0  0
  -31.6239  -20.6623   20.1259 H   0  0  0  0  0  0
  -25.5620  -22.7069   17.3586 H   0  0  0  0  0  0
  -25.9407  -21.8585   15.8655 H   0  0  0  0  0  0
  -26.6504  -23.4141   16.1743 H   0  0  0  0  0  0
  -30.8611  -23.1978   18.3866 H   0  0  0  0  0  0
  -31.2373  -22.6165   19.7001 H   0  0  0  0  0  0
  -27.0831  -20.8038   17.6628 H   0  0  0  0  0  0
  1 25  1  0  0  0
  1 30  2  0  0  0
  1 81  1  0  0  0
  2  3  1  0  0  0
  2 25  1  0  0  0
  2 93  1  0  0  0
  2 94  1  0  0  0
  3  4  1  0  0  0
  3 95  1  0  0  0
  3 96  1  0  0  0
  4  5  1  0  0  0
  4 97  1  0  0  0
  4 98  1  0  0  0
  5  6  1  0  0  0
  5 26  1  0  0  0
  5 99  1  0  0  0
  6 25  1  0  0  0
  6100  1  0  0  0
  6101  1  0  0  0
  7  8  2  0  0  0
  7 26  1  0  0  0
  7 29  1  0  0  0
  8  9  1  0  0  0
  8 22  1  0  0  0
  9 10  1  0  0  0
  9 27  2  0  0  0
 10 11  2  0  0  0
 10 15  1  0  0  0
 11 12  1  0  0  0
 11102  1  0  0  0
 12 13  2  0  0  0
 12103  1  0  0  0
 13 14  1  0  0  0
 13 31  1  0  0  0
 14 15  2  0  0  0
 14104  1  0  0  0
 15105  1  0  0  0
 16 17  2  0  0  0
 16 21  1  0  0  0
 16 31  1  0  0  0
 17 18  1  0  0  0
 17106  1  0  0  0
 18 19  2  0  0  0
 18107  1  0  0  0
 19 20  1  0  0  0
 19 24  1  0  0  0
 20 21  2  0  0  0
 20108  1  0  0  0
 21 23  1  0  0  0
 22 28  1  0  0  0
 22 32  2  0  0  0
 26 27  1  0  0  0
 28109  1  0  0  0
 28110  1  0  0  0
 29111  1  0  0  0
 29112  1  0  0  0
 33 34  1  0  0  0
 33 66  1  0  0  0
 33 70  2  0  0  0
 34 36  1  0  0  0
 34 59  1  0  0  0
 34113  1  0  0  0
 35 44  2  0  0  0
 35 45  1  0  0  0
 35 68  1  0  0  0
 36 56  1  0  0  0
 36114  1  0  0  0
 37 39  1  0  0  0
 37 47  1  0  0  0
 37 66  1  0  0  0
 37115  1  0  0  0
 38 43  2  0  0  0
 38 46  1  0  0  0
 38 47  1  0  0  0
 39 64  1  0  0  0
 39 67  2  0  0  0
 40 52  1  0  0  0
 40 53  2  0  0  0
 40 58  1  0  0  0
 41116  1  0  0  0
 41117  1  0  0  0
 41118  1  0  0  0
 41 48  1  0  0  0
 42 43  1  0  0  0
 42 66  1  0  0  0
 42119  1  0  0  0
 42120  1  0  0  0
 43 44  1  0  0  0
 44121  1  0  0  0
 45 46  2  0  0  0
 45122  1  0  0  0
 46123  1  0  0  0
 47124  1  0  0  0
 47125  1  0  0  0
 48 56  1  0  0  0
 48 65  1  0  0  0
 48126  1  0  0  0
 49 50  1  0  0  0
 49 53  1  0  0  0
 49 64  1  0  0  0
 49127  1  0  0  0
 50 51  1  0  0  0
 50128  1  0  0  0
 50129  1  0  0  0
 51 52  1  0  0  0
 51130  1  0  0  0
 51131  1  0  0  0
 52132  1  0  0  0
 52133  1  0  0  0
 53 54  1  0  0  0
 54 55  2  0  0  0
 54134  1  0  0  0
 55 57  1  0  0  0
 55135  1  0  0  0
 56 69  2  0  0  0
 57 58  2  0  0  0
 57136  1  0  0  0
 58137  1  0  0  0
 59 60  1  0  0  0
 59 61  1  0  0  0
 59 62  1  0  0  0
 60138  1  0  0  0
 60139  1  0  0  0
 60140  1  0  0  0
 61141  1  0  0  0
 61142  1  0  0  0
 61143  1  0  0  0
 62144  1  0  0  0
 62145  1  0  0  0
 62146  1  0  0  0
 63 65  1  0  0  0
 63147  1  0  0  0
 63148  1  0  0  0
 63149  1  0  0  0
 64150  1  0  0  0
 65151  1  0  0  0
 68 90  1  0  0  0
 71 73  1  0  0  0
 71 76  2  0  0  0
 71152  1  0  0  0
 72 74  2  0  0  0
 72 76  1  0  0  0
 72 81  1  0  0  0
 73 75  2  0  0  0
 73 84  1  0  0  0
 74 75  1  0  0  0
 74 91  1  0  0  0
 75 85  1  0  0  0
 76 92  1  0  0  0
 77 82  1  0  0  0
 77153  1  0  0  0
 77154  1  0  0  0
 77 79  1  0  0  0
 78 82  1  0  0  0
 78155  1  0  0  0
 78156  1  0  0  0
 78 80  1  0  0  0
 79 80  1  0  0  0
 79 83  1  0  0  0
 79157  1  0  0  0
 80 91  1  0  0  0
 80158  1  0  0  0
 81 86  1  0  0  0
 81 92  1  0  0  0
 82 83  1  0  0  0
 82 87  1  0  0  0
 83 88  1  0  0  0
 83 90  1  0  0  0
 84159  1  0  0  0
 84160  1  0  0  0
 84161  1  0  0  0
 85162  1  0  0  0
 85163  1  0  0  0
 85164  1  0  0  0
 86165  1  0  0  0
 86166  1  0  0  0
 86167  1  0  0  0
 87168  1  0  0  0
 87169  1  0  0  0
 87170  1  0  0  0
 88171  1  0  0  0
 88172  1  0  0  0
 88173  1  0  0  0
 89174  1  0  0  0
 89175  1  0  0  0
 89176  1  0  0  0
 89 91  1  0  0  0
 90177  1  0  0  0
 90178  1  0  0  0
 91179  1  0  0  0
M  ISO  4   1 100  68 101  81 100  90 101
M  END
> <chiral flag>
0

> <version>
0

> <s_m_source_file>
/data/baiqing/PycharmProjects/Reinvent-master-3.2/result/LINK_invent/BTK/process_docking_weight1_custom_sum_contain_oxygen_bond_distance_aromatic_linkinvent_7_9_3/rearranged_h_0170.sdf

> <i_m_source_file_index>
33

> <r_mmod_Potential_Energy-OPLS-2005>
16130.5888671875

> <r_mmod_Stretch_Energy-OPLS-2005>
8050.1953125

> <r_mmod_Bend_Energy-OPLS-2005>
2104.07202148438

> <r_mmod_Torsional_Energy-OPLS-2005>
396.894378662109

> <r_mmod_Improper_Torsional_Energy-OPLS-2005>
27.5342998504639

> <r_mmod_Van_der_Waal_Energy-OPLS-2005>
2025.45166015625

> <r_mmod_Electrostatic_Energy-OPLS-2005>
-281.398498535156

> <r_mmod_Solvation_Energy-OPLS-2005>
-208.623565673828

> <b_mmod_Minimization_Converged-OPLS-2005>
0

> <r_mmod_RMS_Derivative-OPLS-2005>
6.32365798950195

$$$$
33
                    3D
 Structure written by MMmdl.
186196  0  0  1  0            999 V2000
  -30.7710  -14.3856   20.6745 C   0  0  0  0  0  0
  -30.4171  -12.3002   19.3999 C   0  0  0  0  0  0
  -29.4828  -12.5160   18.1947 C   0  0  0  0  0  0
  -28.0095  -12.3561   18.6134 C   0  0  0  0  0  0
  -27.6619  -13.1896   19.8720 C   0  0  2  0  0  0
  -28.7037  -12.9504   20.9921 C   0  0  0  0  0  0
  -25.2609  -13.8124   20.5670 C   0  0  0  0  0  0
  -24.1847  -13.0425   20.9187 C   0  0  0  0  0  0
  -24.6377  -11.6885   20.8744 C   0  0  0  0  0  0
  -23.9042  -10.4284   21.0413 C   0  0  0  0  0  0
  -24.3604   -9.4202   21.9189 C   0  0  0  0  0  0
  -23.6285   -8.2235   22.0757 C   0  0  0  0  0  0
  -22.4270   -8.0272   21.3545 C   0  0  0  0  0  0
  -21.9898   -9.0246   20.4650 C   0  0  0  0  0  0
  -22.7219  -10.2128   20.3060 C   0  0  0  0  0  0
  -21.6850   -6.0733   22.5283 C   0  0  0  0  0  0
  -21.4011   -6.5637   23.8217 C   0  0  0  0  0  0
  -21.3657   -5.6793   24.9180 C   0  0  0  0  0  0
  -21.6043   -4.3056   24.7230 C   0  0  0  0  0  0
  -21.8820   -3.8147   23.4353 C   0  0  0  0  0  0
  -21.9192   -4.6962   22.3408 C   0  0  0  0  0  0
  -22.7873  -13.5242   21.1849 C   0  0  0  0  0  0
  -22.1661   -4.2148   21.0984 F   0  0  0  0  0  0
  -21.5630   -3.4538   25.7743 F   0  0  0  0  0  0
  -30.0429  -13.2550   20.4566 N   0  0  0  0  0  0
  -26.3019  -12.9255   20.3344 N   0  0  0  0  0  0
  -25.9292  -11.6436   20.5758 N   0  0  0  0  0  0
  -22.0497  -12.8247   22.0403 N   0  0  0  0  0  0
  -25.4345  -15.1839   20.4059 N   0  0  0  0  0  0
  -31.8119  -14.6327   20.0575 O   0  0  0  0  0  0
  -21.6634   -6.8870   21.4242 O   0  0  0  0  0  0
  -22.3568  -14.5552   20.6698 O   0  0  0  0  0  0
  -24.6086  -31.8717   23.2136 C   0  0  0  0  0  0
  -25.8999  -32.4846   23.8423 C   0  0  1  0  0  0
  -27.2567  -27.4855   20.0907 C   0  0  0  0  0  0
  -25.5875  -33.8644   24.2355 N   0  0  0  0  0  0
  -23.3958  -30.4926   21.5528 C   0  0  2  0  0  0
  -24.8481  -28.9620   20.1209 C   0  0  0  0  0  0
  -22.7382  -29.4666   22.5023 C   0  0  0  0  0  0
  -18.0265  -28.1370   22.8499 C   0  0  0  0  0  0
  -24.1484  -36.7332   23.2639 C   0  0  0  0  0  0
  -25.9176  -30.8528   21.3598 C   0  0  0  0  0  0
  -26.0015  -29.4871   20.7168 C   0  0  0  0  0  0
  -27.2070  -28.7565   20.7094 C   0  0  0  0  0  0
  -26.0862  -26.9658   19.5013 C   0  0  0  0  0  0
  -24.8815  -27.6944   19.5142 C   0  0  0  0  0  0
  -23.6045  -29.8200   20.1688 C   0  0  0  0  0  0
  -25.4102  -36.3131   24.0344 C   0  0  1  0  0  0
  -20.5850  -28.3650   23.1337 C   0  0  2  0  0  0
  -20.6756  -26.9393   22.5422 C   0  0  0  0  0  0
  -19.5736  -26.6383   21.5215 C   0  0  0  0  0  0
  -18.1913  -26.7921   22.1625 C   0  0  0  0  0  0
  -19.1513  -28.8828   23.2915 C   0  0  0  0  0  0
  -18.9444  -30.1438   23.8920 C   0  0  0  0  0  0
  -17.6447  -30.6582   24.0566 C   0  0  0  0  0  0
  -25.9023  -34.9490   23.5146 C   0  0  0  0  0  0
  -16.5339  -29.9084   23.6323 C   0  0  0  0  0  0
  -16.7255  -28.6498   23.0349 C   0  0  0  0  0  0
  -26.4455  -31.6605   25.0724 C   0  0  0  0  0  0
  -25.3746  -31.3699   26.1492 C   0  0  0  0  0  0
  -27.0272  -30.3055   24.6054 C   0  0  0  0  0  0
  -27.6051  -32.4310   25.7472 C   0  0  0  0  0  0
  -27.5584  -37.1816   24.8464 C   0  0  0  0  0  0
  -21.4116  -29.3022   22.3752 N   0  0  0  0  0  0
  -26.4296  -37.3805   23.9410 N   0  0  0  0  0  0
  -24.6585  -31.0857   22.1016 N   0  0  0  0  0  0
  -23.4172  -28.8218   23.3057 O   0  0  0  0  0  0
  -28.3841  -26.7038   20.0021 O   0  0  0  0  0  0
  -26.5584  -34.8931   22.4706 O   0  0  0  0  0  0
  -23.5292  -32.1446   23.7559 O   0  0  0  0  0  0
  -30.6330  -25.9968   20.5531 C   0  0  0  0  0  0
  -31.8735  -26.2581   19.9085 C   0  0  0  0  0  0
  -30.3723  -24.6769   21.0341 C   0  0  0  0  0  0
  -32.7754  -25.1877   19.7294 C   0  0  0  0  0  0
  -31.3393  -23.6763   20.7555 C   0  0  0  0  0  0
  -30.2498  -20.1482   20.3301 C   0  0  0  0  0  0
  -31.6651  -20.3285   22.4088 C   0  0  0  0  0  0
  -30.7873  -21.5204   19.8939 C   0  0  0  0  0  0
  -32.1354  -21.7120   21.9199 C   0  0  0  0  0  0
  -31.4146  -15.7659   22.5938 C   0  0  0  0  0  0
  -29.2546  -16.0785   21.6028 C   0  0  0  0  0  0
  -31.9015  -17.1317   22.0484 C   0  0  0  0  0  0
  -29.6867  -17.4230   20.9847 C   0  0  0  0  0  0
  -31.2606  -19.3964   21.2393 C   0  0  0  0  0  0
  -32.2244  -27.6594   19.4068 C   0  0  0  0  0  0
  -34.1213  -25.3508   19.0453 C   0  0  0  0  0  0
  -29.3351  -23.7680   23.2215 C   0  0  0  0  0  0
  -28.0503  -23.5562   21.0216 C   0  0  0  0  0  0
  -29.5716  -27.0975   20.6812 C   0  0  0  0  0  0
  -29.0784  -24.3668   21.8267 C   0  0  0  0  0  0
  -32.5012  -23.9364   20.1300 N   0  0  0  0  0  0
  -31.1228  -22.3243   21.0641 N   0  0  0  0  0  0
  -30.3990  -15.1677   21.7165 N   0  0  0  0  0  0
  -30.7788  -18.0737   21.7638 N   0  3  0  0  0  0
  -31.4591  -12.4005   19.0895 H   0  0  0  0  0  0
  -30.3230  -11.2800   19.7752 H   0  0  0  0  0  0
  -29.7231  -11.8071   17.4013 H   0  0  0  0  0  0
  -29.6421  -13.5105   17.7756 H   0  0  0  0  0  0
  -27.8299  -11.2981   18.8077 H   0  0  0  0  0  0
  -27.3511  -12.6283   17.7874 H   0  0  0  0  0  0
  -27.7063  -14.2312   19.5606 H   0  0  0  0  0  0
  -28.6743  -11.9070   21.3099 H   0  0  0  0  0  0
  -28.4535  -13.5198   21.8869 H   0  0  0  0  0  0
  -25.2749   -9.5682   22.4762 H   0  0  0  0  0  0
  -24.0003   -7.4623   22.7471 H   0  0  0  0  0  0
  -21.0832   -8.8761   19.8952 H   0  0  0  0  0  0
  -22.3679  -10.9670   19.6172 H   0  0  0  0  0  0
  -21.1999   -7.6145   23.9721 H   0  0  0  0  0  0
  -21.1478   -6.0522   25.9084 H   0  0  0  0  0  0
  -22.0600   -2.7608   23.2855 H   0  0  0  0  0  0
  -22.4096  -11.9904   22.4794 H   0  0  0  0  0  0
  -21.1116  -13.1287   22.2600 H   0  0  0  0  0  0
  -24.6639  -15.8358   20.5063 H   0  0  0  0  0  0
  -26.2751  -15.6186   20.0495 H   0  0  0  0  0  0
  -26.7078  -32.5595   23.1208 H   0  0  0  0  0  0
  -25.0031  -33.9816   25.0503 H   0  0  0  0  0  0
  -22.6819  -31.3068   21.4128 H   0  0  0  0  0  0
  -23.3742  -35.9668   23.3304 H   0  0  0  0  0  0
  -24.3584  -36.8941   22.2053 H   0  0  0  0  0  0
  -23.7235  -37.6539   23.6646 H   0  0  0  0  0  0
  -26.0161  -31.6159   20.5864 H   0  0  0  0  0  0
  -26.8096  -30.9174   21.9706 H   0  0  0  0  0  0
  -28.0837  -29.1895   21.1685 H   0  0  0  0  0  0
  -26.1134  -25.9949   19.0267 H   0  0  0  0  0  0
  -23.9954  -27.2798   19.0532 H   0  0  0  0  0  0
  -23.7050  -30.5917   19.4048 H   0  0  0  0  0  0
  -22.7326  -29.2309   19.8784 H   0  0  0  0  0  0
  -25.1274  -36.2009   25.0838 H   0  0  0  0  0  0
  -20.9938  -28.3208   24.1460 H   0  0  0  0  0  0
  -20.5665  -26.2254   23.3601 H   0  0  0  0  0  0
  -21.6627  -26.7447   22.1213 H   0  0  0  0  0  0
  -19.6898  -25.6301   21.1228 H   0  0  0  0  0  0
  -19.6676  -27.3208   20.6759 H   0  0  0  0  0  0
  -17.4186  -26.6680   21.4021 H   0  0  0  0  0  0
  -18.0310  -26.0054   22.9012 H   0  0  0  0  0  0
  -19.7918  -30.7250   24.2296 H   0  0  0  0  0  0
  -17.5002  -31.6263   24.5162 H   0  0  0  0  0  0
  -15.5342  -30.2996   23.7632 H   0  0  0  0  0  0
  -15.8654  -28.0829   22.7052 H   0  0  0  0  0  0
  -24.5889  -30.7081   25.7831 H   0  0  0  0  0  0
  -24.8975  -32.2856   26.4997 H   0  0  0  0  0  0
  -25.8115  -30.8820   27.0214 H   0  0  0  0  0  0
  -26.2792  -29.6825   24.1134 H   0  0  0  0  0  0
  -27.4085  -29.7278   25.4485 H   0  0  0  0  0  0
  -27.8609  -30.4386   23.9156 H   0  0  0  0  0  0
  -27.2691  -33.3605   26.2078 H   0  0  0  0  0  0
  -28.3841  -32.6873   25.0280 H   0  0  0  0  0  0
  -28.0734  -31.8411   26.5360 H   0  0  0  0  0  0
  -28.2610  -38.0106   24.7511 H   0  0  0  0  0  0
  -28.1071  -36.2640   24.6287 H   0  0  0  0  0  0
  -27.2305  -37.1469   25.8868 H   0  0  0  0  0  0
  -20.9273  -29.8738   21.6976 H   0  0  0  0  0  0
  -26.0194  -38.2889   24.1405 H   0  0  0  0  0  0
  -30.0324  -19.5737   19.4292 H   0  0  0  0  0  0
  -29.3038  -20.2940   20.8526 H   0  0  0  0  0  0
  -30.8186  -20.4634   23.0835 H   0  0  0  0  0  0
  -32.4611  -19.8802   23.0032 H   0  0  0  0  0  0
  -30.0472  -22.0374   19.2808 H   0  0  0  0  0  0
  -31.6739  -21.3975   19.2694 H   0  0  0  0  0  0
  -33.0729  -21.6154   21.3697 H   0  0  0  0  0  0
  -32.3351  -22.3621   22.7734 H   0  0  0  0  0  0
  -30.9961  -15.8880   23.5939 H   0  0  0  0  0  0
  -32.2653  -15.0912   22.7119 H   0  0  0  0  0  0
  -28.4566  -15.6636   20.9949 H   0  0  0  0  0  0
  -28.8162  -16.2337   22.5898 H   0  0  0  0  0  0
  -32.4778  -16.9733   21.1355 H   0  0  0  0  0  0
  -32.5915  -17.5768   22.7656 H   0  0  0  0  0  0
  -28.8067  -18.0653   20.9479 H   0  0  0  0  0  0
  -30.0128  -17.2691   19.9544 H   0  0  0  0  0  0
  -32.1448  -19.2142   20.6252 H   0  0  0  0  0  0
  -31.5550  -27.9525   18.5971 H   0  0  0  0  0  0
  -33.2404  -27.7495   19.0278 H   0  0  0  0  0  0
  -32.1351  -28.3883   20.2129 H   0  0  0  0  0  0
  -34.7587  -26.0310   19.6105 H   0  0  0  0  0  0
  -33.9949  -25.7457   18.0373 H   0  0  0  0  0  0
  -34.6483  -24.3998   18.9600 H   0  0  0  0  0  0
  -30.0417  -24.3767   23.7865 H   0  0  0  0  0  0
  -29.7226  -22.7524   23.1849 H   0  0  0  0  0  0
  -28.4108  -23.7269   23.7991 H   0  0  0  0  0  0
  -27.8261  -24.0366   20.0691 H   0  0  0  0  0  0
  -27.1109  -23.4715   21.5686 H   0  0  0  0  0  0
  -28.3885  -22.5441   20.8149 H   0  0  0  0  0  0
  -29.8991  -28.0456   20.2611 H   0  0  0  0  0  0
  -29.3822  -27.2883   21.7386 H   0  0  0  0  0  0
  -28.5690  -25.2960   22.0624 H   0  0  0  0  0  0
  -30.3600  -18.2792   22.6591 H   0  0  0  0  0  0
  1 25  1  0  0  0
  1 30  2  0  0  0
  1 93  1  0  0  0
  2  3  1  0  0  0
  2 25  1  0  0  0
  2 95  1  0  0  0
  2 96  1  0  0  0
  3  4  1  0  0  0
  3 97  1  0  0  0
  3 98  1  0  0  0
  4  5  1  0  0  0
  4 99  1  0  0  0
  4100  1  0  0  0
  5  6  1  0  0  0
  5 26  1  0  0  0
  5101  1  0  0  0
  6 25  1  0  0  0
  6102  1  0  0  0
  6103  1  0  0  0
  7  8  2  0  0  0
  7 26  1  0  0  0
  7 29  1  0  0  0
  8  9  1  0  0  0
  8 22  1  0  0  0
  9 10  1  0  0  0
  9 27  2  0  0  0
 10 11  2  0  0  0
 10 15  1  0  0  0
 11 12  1  0  0  0
 11104  1  0  0  0
 12 13  2  0  0  0
 12105  1  0  0  0
 13 14  1  0  0  0
 13 31  1  0  0  0
 14 15  2  0  0  0
 14106  1  0  0  0
 15107  1  0  0  0
 16 17  2  0  0  0
 16 21  1  0  0  0
 16 31  1  0  0  0
 17 18  1  0  0  0
 17108  1  0  0  0
 18 19  2  0  0  0
 18109  1  0  0  0
 19 20  1  0  0  0
 19 24  1  0  0  0
 20 21  2  0  0  0
 20110  1  0  0  0
 21 23  1  0  0  0
 22 28  1  0  0  0
 22 32  2  0  0  0
 26 27  1  0  0  0
 28111  1  0  0  0
 28112  1  0  0  0
 29113  1  0  0  0
 29114  1  0  0  0
 33 34  1  0  0  0
 33 66  1  0  0  0
 33 70  2  0  0  0
 34 36  1  0  0  0
 34 59  1  0  0  0
 34115  1  0  0  0
 35 44  2  0  0  0
 35 45  1  0  0  0
 35 68  1  0  0  0
 36 56  1  0  0  0
 36116  1  0  0  0
 37 39  1  0  0  0
 37 47  1  0  0  0
 37 66  1  0  0  0
 37117  1  0  0  0
 38 43  2  0  0  0
 38 46  1  0  0  0
 38 47  1  0  0  0
 39 64  1  0  0  0
 39 67  2  0  0  0
 40 52  1  0  0  0
 40 53  2  0  0  0
 40 58  1  0  0  0
 41118  1  0  0  0
 41119  1  0  0  0
 41120  1  0  0  0
 41 48  1  0  0  0
 42 43  1  0  0  0
 42 66  1  0  0  0
 42121  1  0  0  0
 42122  1  0  0  0
 43 44  1  0  0  0
 44123  1  0  0  0
 45 46  2  0  0  0
 45124  1  0  0  0
 46125  1  0  0  0
 47126  1  0  0  0
 47127  1  0  0  0
 48 56  1  0  0  0
 48 65  1  0  0  0
 48128  1  0  0  0
 49 50  1  0  0  0
 49 53  1  0  0  0
 49 64  1  0  0  0
 49129  1  0  0  0
 50 51  1  0  0  0
 50130  1  0  0  0
 50131  1  0  0  0
 51 52  1  0  0  0
 51132  1  0  0  0
 51133  1  0  0  0
 52134  1  0  0  0
 52135  1  0  0  0
 53 54  1  0  0  0
 54 55  2  0  0  0
 54136  1  0  0  0
 55 57  1  0  0  0
 55137  1  0  0  0
 56 69  2  0  0  0
 57 58  2  0  0  0
 57138  1  0  0  0
 58139  1  0  0  0
 59 60  1  0  0  0
 59 61  1  0  0  0
 59 62  1  0  0  0
 60140  1  0  0  0
 60141  1  0  0  0
 60142  1  0  0  0
 61143  1  0  0  0
 61144  1  0  0  0
 61145  1  0  0  0
 62146  1  0  0  0
 62147  1  0  0  0
 62148  1  0  0  0
 63 65  1  0  0  0
 63149  1  0  0  0
 63150  1  0  0  0
 63151  1  0  0  0
 64152  1  0  0  0
 65153  1  0  0  0
 68 89  1  0  0  0
 71 72  2  0  0  0
 71 73  1  0  0  0
 71 89  1  0  0  0
 72 74  1  0  0  0
 72 85  1  0  0  0
 73 75  2  0  0  0
 73 90  1  0  0  0
 74 86  1  0  0  0
 74 91  2  0  0  0
 75 91  1  0  0  0
 75 92  1  0  0  0
 76 78  1  0  0  0
 76154  1  0  0  0
 76155  1  0  0  0
 76 84  1  0  0  0
 77 79  1  0  0  0
 77 84  1  0  0  0
 77156  1  0  0  0
 77157  1  0  0  0
 78 92  1  0  0  0
 78158  1  0  0  0
 78159  1  0  0  0
 79 92  1  0  0  0
 79160  1  0  0  0
 79161  1  0  0  0
 80 82  1  0  0  0
 80 93  1  0  0  0
 80162  1  0  0  0
 80163  1  0  0  0
 81 83  1  0  0  0
 81 93  1  0  0  0
 81164  1  0  0  0
 81165  1  0  0  0
 82166  1  0  0  0
 82167  1  0  0  0
 82 94  1  0  0  0
 83 94  1  0  0  0
 83168  1  0  0  0
 83169  1  0  0  0
 84 94  1  0  0  0
 84170  1  0  0  0
 85171  1  0  0  0
 85172  1  0  0  0
 85173  1  0  0  0
 86174  1  0  0  0
 86175  1  0  0  0
 86176  1  0  0  0
 87177  1  0  0  0
 87178  1  0  0  0
 87179  1  0  0  0
 87 90  1  0  0  0
 88 90  1  0  0  0
 88180  1  0  0  0
 88181  1  0  0  0
 88182  1  0  0  0
 89183  1  0  0  0
 89184  1  0  0  0
 90185  1  0  0  0
 94186  1  0  0  0
M  CHG  1  94   1
M  ISO  4   1 100  68 101  89 101  93 100
M  END
> <chiral flag>
0

> <version>
0

> <s_m_source_file>
/data/baiqing/PycharmProjects/Reinvent-master-3.2/result/LINK_invent/BTK/process_docking_weight1_custom_sum_contain_oxygen_bond_distance_aromatic_linkinvent_7_9_3/rearranged_h_0170.sdf

> <i_m_source_file_index>
34

> <r_mmod_Potential_Energy-OPLS-2005>
-88.8557739257812

> <r_mmod_Stretch_Energy-OPLS-2005>
43.6402702331543

> <r_mmod_Bend_Energy-OPLS-2005>
121.63069152832

> <r_mmod_Torsional_Energy-OPLS-2005>
417.718688964844

> <r_mmod_Improper_Torsional_Energy-OPLS-2005>
10.9976034164429

> <r_mmod_Van_der_Waal_Energy-OPLS-2005>
188.52864074707

> <r_mmod_Electrostatic_Energy-OPLS-2005>
-446.334197998047

> <r_mmod_Solvation_Energy-OPLS-2005>
-431.449188232422

> <b_mmod_Minimization_Converged-OPLS-2005>
0

> <r_mmod_RMS_Derivative-OPLS-2005>
0.618562638759613

$$$$
34
                    3D
 Structure written by MMmdl.
163173  0  0  1  0            999 V2000
  -30.5846  -14.7709   20.4127 C   0  0  0  0  0  0
  -30.4303  -12.4466   19.5096 C   0  0  0  0  0  0
  -29.5284  -12.4673   18.2537 C   0  0  0  0  0  0
  -28.0333  -12.3614   18.6299 C   0  0  0  0  0  0
  -27.6438  -13.2404   19.8486 C   0  0  2  0  0  0
  -28.6824  -13.1743   20.9897 C   0  0  0  0  0  0
  -25.2483  -13.8216   20.5685 C   0  0  0  0  0  0
  -24.1775  -13.0446   20.9183 C   0  0  0  0  0  0
  -24.6372  -11.6935   20.8680 C   0  0  0  0  0  0
  -23.9066  -10.4301   21.0375 C   0  0  0  0  0  0
  -24.3628   -9.4223   21.9138 C   0  0  0  0  0  0
  -23.6309   -8.2266   22.0734 C   0  0  0  0  0  0
  -22.4284   -8.0281   21.3548 C   0  0  0  0  0  0
  -21.9923   -9.0242   20.4640 C   0  0  0  0  0  0
  -22.7244  -10.2122   20.3031 C   0  0  0  0  0  0
  -21.6855   -6.0736   22.5287 C   0  0  0  0  0  0
  -21.4006   -6.5632   23.8223 C   0  0  0  0  0  0
  -21.3666   -5.6791   24.9171 C   0  0  0  0  0  0
  -21.6051   -4.3055   24.7223 C   0  0  0  0  0  0
  -21.8824   -3.8139   23.4346 C   0  0  0  0  0  0
  -21.9204   -4.6968   22.3397 C   0  0  0  0  0  0
  -22.7802  -13.5230   21.1851 C   0  0  0  0  0  0
  -22.1674   -4.2144   21.0987 F   0  0  0  0  0  0
  -21.5636   -3.4545   25.7737 F   0  0  0  0  0  0
  -29.9863  -13.5281   20.4200 N   0  0  0  0  0  0
  -26.2937  -12.9452   20.3252 N   0  0  0  0  0  0
  -25.9306  -11.6569   20.5675 N   0  0  0  0  0  0
  -22.0457  -12.8209   22.0415 N   0  0  0  0  0  0
  -25.4075  -15.1943   20.4129 N   0  0  0  0  0  0
  -31.7561  -14.8799   20.0356 O   0  0  0  0  0  0
  -21.6659   -6.8862   21.4241 O   0  0  0  0  0  0
  -22.3484  -14.5529   20.6684 O   0  0  0  0  0  0
  -24.6315  -31.8521   23.1933 C   0  0  0  0  0  0
  -25.9106  -32.4735   23.8340 C   0  0  1  0  0  0
  -27.2152  -27.2467   20.1505 C   0  0  0  0  0  0
  -25.5868  -33.8536   24.2250 N   0  0  0  0  0  0
  -23.4318  -30.4698   21.5354 C   0  0  2  0  0  0
  -24.8766  -28.9030   20.1210 C   0  0  0  0  0  0
  -22.7501  -29.4575   22.4864 C   0  0  0  0  0  0
  -18.0279  -28.1387   22.8494 C   0  0  0  0  0  0
  -24.1474  -36.7303   23.2643 C   0  0  0  0  0  0
  -25.9775  -30.7571   21.3791 C   0  0  0  0  0  0
  -26.0459  -29.3748   20.7300 C   0  0  0  0  0  0
  -27.2195  -28.5599   20.7316 C   0  0  0  0  0  0
  -26.0334  -26.8426   19.5005 C   0  0  0  0  0  0
  -24.8723  -27.6432   19.4972 C   0  0  0  0  0  0
  -23.6528  -29.7952   20.1568 C   0  0  0  0  0  0
  -25.4092  -36.3076   24.0341 C   0  0  1  0  0  0
  -20.5894  -28.3696   23.1265 C   0  0  2  0  0  0
  -20.6748  -26.9396   22.5407 C   0  0  0  0  0  0
  -19.5727  -26.6373   21.5205 C   0  0  0  0  0  0
  -18.1916  -26.7931   22.1625 C   0  0  0  0  0  0
  -19.1547  -28.8846   23.2895 C   0  0  0  0  0  0
  -18.9461  -30.1434   23.8923 C   0  0  0  0  0  0
  -17.6470  -30.6591   24.0545 C   0  0  0  0  0  0
  -25.9026  -34.9438   23.5107 C   0  0  0  0  0  0
  -16.5349  -29.9094   23.6307 C   0  0  0  0  0  0
  -16.7279  -28.6496   23.0367 C   0  0  0  0  0  0
  -26.4438  -31.6607   25.0791 C   0  0  0  0  0  0
  -25.3636  -31.3826   26.1526 C   0  0  0  0  0  0
  -27.0249  -30.3011   24.6316 C   0  0  0  0  0  0
  -27.5976  -32.4357   25.7565 C   0  0  0  0  0  0
  -27.5570  -37.1826   24.8460 C   0  0  0  0  0  0
  -21.4203  -29.3072   22.3672 N   0  0  0  0  0  0
  -26.4276  -37.3766   23.9408 N   0  0  0  0  0  0
  -24.7010  -31.0447   22.0932 N   0  0  0  0  0  0
  -23.4193  -28.8095   23.2978 O   0  0  0  0  0  0
  -28.3370  -26.3943   20.1385 O   0  0  0  0  0  0
  -26.5613  -34.8911   22.4700 O   0  0  0  0  0  0
  -23.5452  -32.1335   23.7199 O   0  0  0  0  0  0
  -29.1531  -19.6778   20.3235 C   0  0  0  0  0  0
  -29.2107  -18.5022   19.4632 C   0  0  0  0  0  0
  -28.9666  -18.7689   18.1080 C   0  0  0  0  0  0
  -28.8301  -20.9954   19.7601 C   0  0  0  0  0  0
  -28.6342  -20.0449   17.6338 C   0  0  0  0  0  0
  -29.0021  -17.5406   17.2323 C   0  0  0  0  0  0
  -29.5652  -16.4454   18.1382 C   0  0  0  0  0  0
  -27.1795  -22.7328   20.9402 C   0  0  0  0  0  0
  -27.0798  -24.2685   21.2348 C   0  0  0  0  0  0
  -28.9929  -23.7725   19.8091 C   0  0  0  0  0  0
  -29.2831  -16.8980   19.5889 C   0  0  1  0  0  0
  -28.6314  -22.3867   20.5276 C   0  0  2  0  0  0
  -28.3299  -24.9629   20.6271 C   0  0  1  0  0  0
  -28.2770  -20.2772   16.1775 C   0  0  0  0  0  0
  -28.5537  -21.1163   18.4429 N   0  0  0  0  0  0
  -29.7996  -15.8997   20.6299 N   0  0  0  0  0  0
  -31.4771  -12.5554   19.2267 H   0  0  0  0  0  0
  -30.3652  -11.4829   20.0186 H   0  0  0  0  0  0
  -29.7973  -11.6393   17.5948 H   0  0  0  0  0  0
  -29.7139  -13.3714   17.6753 H   0  0  0  0  0  0
  -27.8163  -11.3129   18.8396 H   0  0  0  0  0  0
  -27.4218  -12.6310   17.7669 H   0  0  0  0  0  0
  -27.6379  -14.2653   19.4773 H   0  0  0  0  0  0
  -28.7116  -12.1792   21.4334 H   0  0  0  0  0  0
  -28.4119  -13.8579   21.7936 H   0  0  0  0  0  0
  -25.2753   -9.5725   22.4715 H   0  0  0  0  0  0
  -24.0026   -7.4665   22.7458 H   0  0  0  0  0  0
  -21.0856   -8.8744   19.8944 H   0  0  0  0  0  0
  -22.3672  -10.9647   19.6148 H   0  0  0  0  0  0
  -21.1980   -7.6137   23.9728 H   0  0  0  0  0  0
  -21.1485   -6.0508   25.9089 H   0  0  0  0  0  0
  -22.0588   -2.7599   23.2856 H   0  0  0  0  0  0
  -22.4115  -11.9953   22.4901 H   0  0  0  0  0  0
  -21.1044  -13.1166   22.2560 H   0  0  0  0  0  0
  -24.6194  -15.8282   20.5004 H   0  0  0  0  0  0
  -26.2443  -15.6442   20.0679 H   0  0  0  0  0  0
  -26.7196  -32.5385   23.1101 H   0  0  0  0  0  0
  -24.9958  -33.9639   25.0354 H   0  0  0  0  0  0
  -22.7330  -31.2935   21.3771 H   0  0  0  0  0  0
  -23.3705  -35.9666   23.3285 H   0  0  0  0  0  0
  -24.3564  -36.8921   22.2056 H   0  0  0  0  0  0
  -23.7234  -37.6516   23.6660 H   0  0  0  0  0  0
  -26.1196  -31.5044   20.5990 H   0  0  0  0  0  0
  -26.8562  -30.8135   22.0112 H   0  0  0  0  0  0
  -28.1185  -28.9180   21.2157 H   0  0  0  0  0  0
  -25.9965  -25.8829   19.0028 H   0  0  0  0  0  0
  -23.9810  -27.2758   19.0095 H   0  0  0  0  0  0
  -23.7899  -30.5634   19.3961 H   0  0  0  0  0  0
  -22.7723  -29.2340   19.8434 H   0  0  0  0  0  0
  -25.1260  -36.1950   25.0830 H   0  0  0  0  0  0
  -20.9982  -28.3269   24.1396 H   0  0  0  0  0  0
  -20.5567  -26.2312   23.3631 H   0  0  0  0  0  0
  -21.6627  -26.7369   22.1252 H   0  0  0  0  0  0
  -19.6868  -25.6283   21.1248 H   0  0  0  0  0  0
  -19.6664  -27.3155   20.6723 H   0  0  0  0  0  0
  -17.4169  -26.6661   21.4042 H   0  0  0  0  0  0
  -18.0335  -26.0088   22.9043 H   0  0  0  0  0  0
  -19.7946  -30.7231   24.2331 H   0  0  0  0  0  0
  -17.5033  -31.6286   24.5150 H   0  0  0  0  0  0
  -15.5347  -30.3006   23.7651 H   0  0  0  0  0  0
  -15.8672  -28.0795   22.7118 H   0  0  0  0  0  0
  -24.5812  -30.7126   25.7948 H   0  0  0  0  0  0
  -24.8812  -32.3017   26.4892 H   0  0  0  0  0  0
  -25.7986  -30.9117   27.0352 H   0  0  0  0  0  0
  -26.2866  -29.6855   24.1190 H   0  0  0  0  0  0
  -27.3691  -29.7237   25.4901 H   0  0  0  0  0  0
  -27.8842  -30.4247   23.9721 H   0  0  0  0  0  0
  -27.2540  -33.3631   26.2160 H   0  0  0  0  0  0
  -28.3796  -32.6957   25.0420 H   0  0  0  0  0  0
  -28.0633  -31.8476   26.5483 H   0  0  0  0  0  0
  -28.2614  -38.0105   24.7483 H   0  0  0  0  0  0
  -28.1053  -36.2643   24.6314 H   0  0  0  0  0  0
  -27.2299  -37.1501   25.8869 H   0  0  0  0  0  0
  -20.9378  -29.8903   21.6966 H   0  0  0  0  0  0
  -26.0159  -38.2859   24.1374 H   0  0  0  0  0  0
  -29.3000  -19.5786   21.3920 H   0  0  0  0  0  0
  -29.5995  -17.6859   16.3323 H   0  0  0  0  0  0
  -27.9842  -17.2998   16.9213 H   0  0  0  0  0  0
  -30.6461  -16.4083   17.9912 H   0  0  0  0  0  0
  -29.1550  -15.4683   17.8922 H   0  0  0  0  0  0
  -26.5153  -22.5102   20.1024 H   0  0  0  0  0  0
  -26.8357  -22.1264   21.7802 H   0  0  0  0  0  0
  -27.0571  -24.4424   22.3135 H   0  0  0  0  0  0
  -26.1301  -24.6388   20.8550 H   0  0  0  0  0  0
  -28.5685  -23.7851   18.8042 H   0  0  0  0  0  0
  -30.0698  -23.9049   19.6897 H   0  0  0  0  0  0
  -28.2164  -16.7086   19.7208 H   0  0  0  0  0  0
  -29.2293  -22.3134   21.4380 H   0  0  0  0  0  0
  -28.9946  -25.0644   21.4875 H   0  0  0  0  0  0
  -27.3290  -19.7955   15.9382 H   0  0  0  0  0  0
  -29.0476  -19.8747   15.5196 H   0  0  0  0  0  0
  -28.1715  -21.3393   15.9640 H   0  0  0  0  0  0
  -29.0609  -15.6999   21.2884 H   0  0  0  0  0  0
  1 25  1  0  0  0
  1 30  2  0  0  0
  1 86  1  0  0  0
  2  3  1  0  0  0
  2 25  1  0  0  0
  2 87  1  0  0  0
  2 88  1  0  0  0
  3  4  1  0  0  0
  3 89  1  0  0  0
  3 90  1  0  0  0
  4  5  1  0  0  0
  4 91  1  0  0  0
  4 92  1  0  0  0
  5  6  1  0  0  0
  5 26  1  0  0  0
  5 93  1  0  0  0
  6 25  1  0  0  0
  6 94  1  0  0  0
  6 95  1  0  0  0
  7  8  2  0  0  0
  7 26  1  0  0  0
  7 29  1  0  0  0
  8  9  1  0  0  0
  8 22  1  0  0  0
  9 10  1  0  0  0
  9 27  2  0  0  0
 10 11  2  0  0  0
 10 15  1  0  0  0
 11 12  1  0  0  0
 11 96  1  0  0  0
 12 13  2  0  0  0
 12 97  1  0  0  0
 13 14  1  0  0  0
 13 31  1  0  0  0
 14 15  2  0  0  0
 14 98  1  0  0  0
 15 99  1  0  0  0
 16 17  2  0  0  0
 16 21  1  0  0  0
 16 31  1  0  0  0
 17 18  1  0  0  0
 17100  1  0  0  0
 18 19  2  0  0  0
 18101  1  0  0  0
 19 20  1  0  0  0
 19 24  1  0  0  0
 20 21  2  0  0  0
 20102  1  0  0  0
 21 23  1  0  0  0
 22 28  1  0  0  0
 22 32  2  0  0  0
 26 27  1  0  0  0
 28103  1  0  0  0
 28104  1  0  0  0
 29105  1  0  0  0
 29106  1  0  0  0
 33 34  1  0  0  0
 33 66  1  0  0  0
 33 70  2  0  0  0
 34 36  1  0  0  0
 34 59  1  0  0  0
 34107  1  0  0  0
 35 44  2  0  0  0
 35 45  1  0  0  0
 35 68  1  0  0  0
 36 56  1  0  0  0
 36108  1  0  0  0
 37 39  1  0  0  0
 37 47  1  0  0  0
 37 66  1  0  0  0
 37109  1  0  0  0
 38 43  2  0  0  0
 38 46  1  0  0  0
 38 47  1  0  0  0
 39 64  1  0  0  0
 39 67  2  0  0  0
 40 52  1  0  0  0
 40 53  2  0  0  0
 40 58  1  0  0  0
 41110  1  0  0  0
 41111  1  0  0  0
 41112  1  0  0  0
 41 48  1  0  0  0
 42 43  1  0  0  0
 42 66  1  0  0  0
 42113  1  0  0  0
 42114  1  0  0  0
 43 44  1  0  0  0
 44115  1  0  0  0
 45 46  2  0  0  0
 45116  1  0  0  0
 46117  1  0  0  0
 47118  1  0  0  0
 47119  1  0  0  0
 48 56  1  0  0  0
 48 65  1  0  0  0
 48120  1  0  0  0
 49 50  1  0  0  0
 49 53  1  0  0  0
 49 64  1  0  0  0
 49121  1  0  0  0
 50 51  1  0  0  0
 50122  1  0  0  0
 50123  1  0  0  0
 51 52  1  0  0  0
 51124  1  0  0  0
 51125  1  0  0  0
 52126  1  0  0  0
 52127  1  0  0  0
 53 54  1  0  0  0
 54 55  2  0  0  0
 54128  1  0  0  0
 55 57  1  0  0  0
 55129  1  0  0  0
 56 69  2  0  0  0
 57 58  2  0  0  0
 57130  1  0  0  0
 58131  1  0  0  0
 59 60  1  0  0  0
 59 61  1  0  0  0
 59 62  1  0  0  0
 60132  1  0  0  0
 60133  1  0  0  0
 60134  1  0  0  0
 61135  1  0  0  0
 61136  1  0  0  0
 61137  1  0  0  0
 62138  1  0  0  0
 62139  1  0  0  0
 62140  1  0  0  0
 63 65  1  0  0  0
 63141  1  0  0  0
 63142  1  0  0  0
 63143  1  0  0  0
 64144  1  0  0  0
 65145  1  0  0  0
 68 83  1  0  0  0
 71 72  2  0  0  0
 71 74  1  0  0  0
 71146  1  0  0  0
 72 73  1  0  0  0
 72 81  1  0  0  0
 73 75  2  0  0  0
 73 76  1  0  0  0
 74 85  2  0  0  0
 74 82  1  0  0  0
 75 84  1  0  0  0
 75 85  1  0  0  0
 76 77  1  0  0  0
 76147  1  0  0  0
 76148  1  0  0  0
 77 81  1  0  0  0
 77149  1  0  0  0
 77150  1  0  0  0
 78 79  1  0  0  0
 78 82  1  0  0  0
 78151  1  0  0  0
 78152  1  0  0  0
 79 83  1  0  0  0
 79153  1  0  0  0
 79154  1  0  0  0
 80 82  1  0  0  0
 80 83  1  0  0  0
 80155  1  0  0  0
 80156  1  0  0  0
 81 86  1  0  0  0
 81157  1  0  0  0
 82158  1  0  0  0
 83159  1  0  0  0
 84160  1  0  0  0
 84161  1  0  0  0
 84162  1  0  0  0
 86163  1  0  0  0
M  ISO  4   1 100  68 101  83 101  86 100
M  END
> <chiral flag>
0

> <version>
0

> <s_m_source_file>
/data/baiqing/PycharmProjects/Reinvent-master-3.2/result/LINK_invent/BTK/process_docking_weight1_custom_sum_contain_oxygen_bond_distance_aromatic_linkinvent_7_9_3/rearranged_h_0170.sdf

> <i_m_source_file_index>
35

> <r_mmod_Potential_Energy-OPLS-2005>
149.974060058594

> <r_mmod_Stretch_Energy-OPLS-2005>
126.63826751709

> <r_mmod_Bend_Energy-OPLS-2005>
347.367889404297

> <r_mmod_Torsional_Energy-OPLS-2005>
312.180053710938

> <r_mmod_Improper_Torsional_Energy-OPLS-2005>
10.3280715942383

> <r_mmod_Van_der_Waal_Energy-OPLS-2005>
127.055114746094

> <r_mmod_Electrostatic_Energy-OPLS-2005>
-634.287963867188

> <r_mmod_Solvation_Energy-OPLS-2005>
-231.850555419922

> <b_mmod_Minimization_Converged-OPLS-2005>
0

> <r_mmod_RMS_Derivative-OPLS-2005>
5.07296848297119

$$$$
35
                    3D
 Structure written by MMmdl.
160169  0  0  1  0            999 V2000
  -30.6556  -14.5959   20.4912 C   0  0  0  0  0  0
  -30.4258  -12.3625   19.4467 C   0  0  0  0  0  0
  -29.5002  -12.4948   18.2178 C   0  0  0  0  0  0
  -28.0227  -12.3445   18.6311 C   0  0  0  0  0  0
  -27.6498  -13.2150   19.8609 C   0  0  2  0  0  0
  -28.6963  -13.0772   20.9903 C   0  0  0  0  0  0
  -25.2554  -13.8172   20.5694 C   0  0  0  0  0  0
  -24.1818  -13.0440   20.9191 C   0  0  0  0  0  0
  -24.6379  -11.6906   20.8736 C   0  0  0  0  0  0
  -23.9050  -10.4294   21.0408 C   0  0  0  0  0  0
  -24.3603   -9.4211   21.9182 C   0  0  0  0  0  0
  -23.6288   -8.2242   22.0749 C   0  0  0  0  0  0
  -22.4273   -8.0276   21.3543 C   0  0  0  0  0  0
  -21.9904   -9.0245   20.4649 C   0  0  0  0  0  0
  -22.7224  -10.2129   20.3059 C   0  0  0  0  0  0
  -21.6854   -6.0730   22.5277 C   0  0  0  0  0  0
  -21.4014   -6.5635   23.8209 C   0  0  0  0  0  0
  -21.3663   -5.6788   24.9171 C   0  0  0  0  0  0
  -21.6048   -4.3049   24.7225 C   0  0  0  0  0  0
  -21.8815   -3.8143   23.4344 C   0  0  0  0  0  0
  -21.9191   -4.6959   22.3399 C   0  0  0  0  0  0
  -22.7844  -13.5241   21.1850 C   0  0  0  0  0  0
  -22.1661   -4.2141   21.0979 F   0  0  0  0  0  0
  -21.5636   -3.4537   25.7739 F   0  0  0  0  0  0
  -30.0119  -13.3918   20.4168 N   0  0  0  0  0  0
  -26.2970  -12.9345   20.3321 N   0  0  0  0  0  0
  -25.9308  -11.6503   20.5751 N   0  0  0  0  0  0
  -22.0474  -12.8244   22.0408 N   0  0  0  0  0  0
  -25.4286  -15.1890   20.4129 N   0  0  0  0  0  0
  -31.8302  -14.7239   20.1324 O   0  0  0  0  0  0
  -21.6639   -6.8873   21.4239 O   0  0  0  0  0  0
  -22.3539  -14.5545   20.6685 O   0  0  0  0  0  0
  -24.6217  -31.8639   23.2062 C   0  0  0  0  0  0
  -25.9085  -32.4805   23.8381 C   0  0  1  0  0  0
  -27.2244  -27.3690   20.1161 C   0  0  0  0  0  0
  -25.5923  -33.8604   24.2314 N   0  0  0  0  0  0
  -23.4141  -30.4875   21.5465 C   0  0  2  0  0  0
  -24.8642  -28.9513   20.1071 C   0  0  0  0  0  0
  -22.7454  -29.4642   22.4941 C   0  0  0  0  0  0
  -18.0283  -28.1383   22.8484 C   0  0  0  0  0  0
  -24.1484  -36.7298   23.2630 C   0  0  0  0  0  0
  -25.9499  -30.8114   21.3690 C   0  0  0  0  0  0
  -26.0291  -29.4425   20.7127 C   0  0  0  0  0  0
  -27.2177  -28.6607   20.7120 C   0  0  0  0  0  0
  -26.0483  -26.9204   19.4805 C   0  0  0  0  0  0
  -24.8729  -27.6937   19.4816 C   0  0  0  0  0  0
  -23.6286  -29.8248   20.1599 C   0  0  0  0  0  0
  -25.4102  -36.3095   24.0336 C   0  0  1  0  0  0
  -20.5878  -28.3684   23.1297 C   0  0  2  0  0  0
  -20.6771  -26.9412   22.5416 C   0  0  0  0  0  0
  -19.5755  -26.6387   21.5210 C   0  0  0  0  0  0
  -18.1932  -26.7932   22.1613 C   0  0  0  0  0  0
  -19.1533  -28.8848   23.2889 C   0  0  0  0  0  0
  -18.9455  -30.1449   23.8908 C   0  0  0  0  0  0
  -17.6456  -30.6588   24.0562 C   0  0  0  0  0  0
  -25.9043  -34.9467   23.5120 C   0  0  0  0  0  0
  -16.5349  -29.9087   23.6326 C   0  0  0  0  0  0
  -16.7271  -28.6504   23.0351 C   0  0  0  0  0  0
  -26.4483  -31.6595   25.0729 C   0  0  0  0  0  0
  -25.3735  -31.3733   26.1472 C   0  0  0  0  0  0
  -27.0294  -30.3022   24.6138 C   0  0  0  0  0  0
  -27.6075  -32.4299   25.7486 C   0  0  0  0  0  0
  -27.5588  -37.1781   24.8450 C   0  0  0  0  0  0
  -21.4171  -29.3044   22.3692 N   0  0  0  0  0  0
  -26.4275  -37.3798   23.9434 N   0  0  0  0  0  0
  -24.6805  -31.0693   22.0988 N   0  0  0  0  0  0
  -23.4197  -28.8177   23.3004 O   0  0  0  0  0  0
  -28.3049  -26.4960   20.1741 O   0  0  0  0  0  0
  -26.5602  -34.8928   22.4677 O   0  0  0  0  0  0
  -23.5394  -32.1414   23.7417 O   0  0  0  0  0  0
  -29.8071  -22.3804   19.6008 C   0  0  0  0  0  0
  -29.6855  -21.4342   20.6637 C   0  0  0  0  0  0
  -28.6737  -23.9561   20.8516 C   0  0  0  0  0  0
  -29.4821  -16.4245   21.7657 C   0  0  0  0  0  0
  -29.6268  -16.5495   19.3402 C   0  0  0  0  0  0
  -30.0553  -17.8815   21.8609 C   0  0  0  0  0  0
  -30.2213  -17.9887   19.4336 C   0  0  0  0  0  0
  -30.5674  -22.0784   18.3235 C   0  0  0  0  0  0
  -30.5037  -20.1012   20.7583 C   0  0  0  0  0  0
  -28.0632  -25.3761   21.0931 C   0  0  0  0  0  0
  -29.2918  -23.6435   19.7005 N   0  0  0  0  0  0
  -29.0091  -21.8227   21.7761 N   0  0  0  0  0  0
  -28.5041  -23.0718   21.8633 N   0  0  0  0  0  0
  -29.8476  -15.7044   20.5327 N   0  0  0  0  0  0
  -29.8236  -18.7462   20.6583 N   0  3  0  0  0  0
  -31.4704  -12.4667   19.1470 H   0  0  0  0  0  0
  -30.3394  -11.3688   19.8894 H   0  0  0  0  0  0
  -29.7573  -11.7430   17.4713 H   0  0  0  0  0  0
  -29.6518  -13.4637   17.7386 H   0  0  0  0  0  0
  -27.8512  -11.2919   18.8595 H   0  0  0  0  0  0
  -27.3689  -12.5799   17.7904 H   0  0  0  0  0  0
  -27.6651  -14.2488   19.5182 H   0  0  0  0  0  0
  -28.6952  -12.0654   21.3977 H   0  0  0  0  0  0
  -28.4544  -13.7404   21.8221 H   0  0  0  0  0  0
  -25.2747   -9.5697   22.4751 H   0  0  0  0  0  0
  -24.0004   -7.4637   22.7469 H   0  0  0  0  0  0
  -21.0832   -8.8762   19.8961 H   0  0  0  0  0  0
  -22.3676  -10.9662   19.6170 H   0  0  0  0  0  0
  -21.2004   -7.6142   23.9708 H   0  0  0  0  0  0
  -21.1497   -6.0521   25.9075 H   0  0  0  0  0  0
  -22.0594   -2.7605   23.2841 H   0  0  0  0  0  0
  -22.4084  -11.9917   22.4818 H   0  0  0  0  0  0
  -21.1088  -13.1279   22.2589 H   0  0  0  0  0  0
  -24.6634  -15.8458   20.5224 H   0  0  0  0  0  0
  -26.2841  -15.6241   20.0942 H   0  0  0  0  0  0
  -26.7159  -32.5501   23.1145 H   0  0  0  0  0  0
  -25.0095  -33.9764   25.0475 H   0  0  0  0  0  0
  -22.7056  -31.3065   21.4067 H   0  0  0  0  0  0
  -23.3766  -35.9606   23.3252 H   0  0  0  0  0  0
  -24.3594  -36.8952   22.2053 H   0  0  0  0  0  0
  -23.7202  -37.6478   23.6666 H   0  0  0  0  0  0
  -26.0688  -31.5761   20.5999 H   0  0  0  0  0  0
  -26.8348  -30.8649   21.9916 H   0  0  0  0  0  0
  -28.1104  -29.0280   21.1992 H   0  0  0  0  0  0
  -26.0319  -25.9483   19.0072 H   0  0  0  0  0  0
  -23.9803  -27.3129   19.0050 H   0  0  0  0  0  0
  -23.7442  -30.6037   19.4054 H   0  0  0  0  0  0
  -22.7500  -29.2516   19.8586 H   0  0  0  0  0  0
  -25.1266  -36.1945   25.0825 H   0  0  0  0  0  0
  -20.9972  -28.3258   24.1418 H   0  0  0  0  0  0
  -20.5665  -26.2296   23.3611 H   0  0  0  0  0  0
  -21.6645  -26.7445   22.1220 H   0  0  0  0  0  0
  -19.6918  -25.6295   21.1248 H   0  0  0  0  0  0
  -19.6708  -27.3191   20.6736 H   0  0  0  0  0  0
  -17.4207  -26.6685   21.4010 H   0  0  0  0  0  0
  -18.0326  -26.0073   22.9007 H   0  0  0  0  0  0
  -19.7930  -30.7251   24.2301 H   0  0  0  0  0  0
  -17.5015  -31.6273   24.5154 H   0  0  0  0  0  0
  -15.5350  -30.2990   23.7648 H   0  0  0  0  0  0
  -15.8673  -28.0823   22.7066 H   0  0  0  0  0  0
  -24.5928  -30.7049   25.7819 H   0  0  0  0  0  0
  -24.8899  -32.2896   26.4872 H   0  0  0  0  0  0
  -25.8080  -30.8951   27.0260 H   0  0  0  0  0  0
  -26.2839  -29.6807   24.1163 H   0  0  0  0  0  0
  -27.4001  -29.7245   25.4615 H   0  0  0  0  0  0
  -27.8712  -30.4311   23.9331 H   0  0  0  0  0  0
  -27.2723  -33.3600   26.2087 H   0  0  0  0  0  0
  -28.3879  -32.6847   25.0303 H   0  0  0  0  0  0
  -28.0752  -31.8400   26.5381 H   0  0  0  0  0  0
  -28.2559  -38.0127   24.7578 H   0  0  0  0  0  0
  -28.1129  -36.2664   24.6156 H   0  0  0  0  0  0
  -27.2331  -37.1292   25.8856 H   0  0  0  0  0  0
  -20.9332  -29.8779   21.6924 H   0  0  0  0  0  0
  -26.0156  -38.2860   24.1501 H   0  0  0  0  0  0
  -28.3929  -16.4580   21.8201 H   0  0  0  0  0  0
  -29.8031  -15.8544   22.6392 H   0  0  0  0  0  0
  -30.0240  -16.0583   18.4493 H   0  0  0  0  0  0
  -28.5511  -16.6167   19.1754 H   0  0  0  0  0  0
  -31.1311  -17.8108   22.0332 H   0  0  0  0  0  0
  -29.6392  -18.3747   22.7415 H   0  0  0  0  0  0
  -29.9347  -18.5592   18.5484 H   0  0  0  0  0  0
  -31.3092  -17.9072   19.4055 H   0  0  0  0  0  0
  -30.3069  -21.0913   17.9422 H   0  0  0  0  0  0
  -31.6422  -22.1098   18.5033 H   0  0  0  0  0  0
  -30.3354  -22.8055   17.5443 H   0  0  0  0  0  0
  -31.0199  -20.1550   21.7177 H   0  0  0  0  0  0
  -31.3215  -20.1497   20.0399 H   0  0  0  0  0  0
  -28.4213  -25.7069   22.0691 H   0  0  0  0  0  0
  -26.9937  -25.2087   21.2323 H   0  0  0  0  0  0
  -28.8316  -18.9252   20.6064 H   0  0  0  0  0  0
  1 25  1  0  0  0
  1 30  2  0  0  0
  1 84  1  0  0  0
  2  3  1  0  0  0
  2 25  1  0  0  0
  2 86  1  0  0  0
  2 87  1  0  0  0
  3  4  1  0  0  0
  3 88  1  0  0  0
  3 89  1  0  0  0
  4  5  1  0  0  0
  4 90  1  0  0  0
  4 91  1  0  0  0
  5  6  1  0  0  0
  5 26  1  0  0  0
  5 92  1  0  0  0
  6 25  1  0  0  0
  6 93  1  0  0  0
  6 94  1  0  0  0
  7  8  2  0  0  0
  7 26  1  0  0  0
  7 29  1  0  0  0
  8  9  1  0  0  0
  8 22  1  0  0  0
  9 10  1  0  0  0
  9 27  2  0  0  0
 10 11  2  0  0  0
 10 15  1  0  0  0
 11 12  1  0  0  0
 11 95  1  0  0  0
 12 13  2  0  0  0
 12 96  1  0  0  0
 13 14  1  0  0  0
 13 31  1  0  0  0
 14 15  2  0  0  0
 14 97  1  0  0  0
 15 98  1  0  0  0
 16 17  2  0  0  0
 16 21  1  0  0  0
 16 31  1  0  0  0
 17 18  1  0  0  0
 17 99  1  0  0  0
 18 19  2  0  0  0
 18100  1  0  0  0
 19 20  1  0  0  0
 19 24  1  0  0  0
 20 21  2  0  0  0
 20101  1  0  0  0
 21 23  1  0  0  0
 22 28  1  0  0  0
 22 32  2  0  0  0
 26 27  1  0  0  0
 28102  1  0  0  0
 28103  1  0  0  0
 29104  1  0  0  0
 29105  1  0  0  0
 33 34  1  0  0  0
 33 66  1  0  0  0
 33 70  2  0  0  0
 34 36  1  0  0  0
 34 59  1  0  0  0
 34106  1  0  0  0
 35 44  2  0  0  0
 35 45  1  0  0  0
 35 68  1  0  0  0
 36 56  1  0  0  0
 36107  1  0  0  0
 37 39  1  0  0  0
 37 47  1  0  0  0
 37 66  1  0  0  0
 37108  1  0  0  0
 38 43  2  0  0  0
 38 46  1  0  0  0
 38 47  1  0  0  0
 39 64  1  0  0  0
 39 67  2  0  0  0
 40 52  1  0  0  0
 40 53  2  0  0  0
 40 58  1  0  0  0
 41109  1  0  0  0
 41110  1  0  0  0
 41111  1  0  0  0
 41 48  1  0  0  0
 42 43  1  0  0  0
 42 66  1  0  0  0
 42112  1  0  0  0
 42113  1  0  0  0
 43 44  1  0  0  0
 44114  1  0  0  0
 45 46  2  0  0  0
 45115  1  0  0  0
 46116  1  0  0  0
 47117  1  0  0  0
 47118  1  0  0  0
 48 56  1  0  0  0
 48 65  1  0  0  0
 48119  1  0  0  0
 49 50  1  0  0  0
 49 53  1  0  0  0
 49 64  1  0  0  0
 49120  1  0  0  0
 50 51  1  0  0  0
 50121  1  0  0  0
 50122  1  0  0  0
 51 52  1  0  0  0
 51123  1  0  0  0
 51124  1  0  0  0
 52125  1  0  0  0
 52126  1  0  0  0
 53 54  1  0  0  0
 54 55  2  0  0  0
 54127  1  0  0  0
 55 57  1  0  0  0
 55128  1  0  0  0
 56 69  2  0  0  0
 57 58  2  0  0  0
 57129  1  0  0  0
 58130  1  0  0  0
 59 60  1  0  0  0
 59 61  1  0  0  0
 59 62  1  0  0  0
 60131  1  0  0  0
 60132  1  0  0  0
 60133  1  0  0  0
 61134  1  0  0  0
 61135  1  0  0  0
 61136  1  0  0  0
 62137  1  0  0  0
 62138  1  0  0  0
 62139  1  0  0  0
 63 65  1  0  0  0
 63140  1  0  0  0
 63141  1  0  0  0
 63142  1  0  0  0
 64143  1  0  0  0
 65144  1  0  0  0
 68 80  1  0  0  0
 71 72  2  0  0  0
 71 78  1  0  0  0
 71 81  1  0  0  0
 72 79  1  0  0  0
 72 82  1  0  0  0
 73 80  1  0  0  0
 73 81  2  0  0  0
 73 83  1  0  0  0
 74 76  1  0  0  0
 74 84  1  0  0  0
 74145  1  0  0  0
 74146  1  0  0  0
 75 77  1  0  0  0
 75 84  1  0  0  0
 75147  1  0  0  0
 75148  1  0  0  0
 76 85  1  0  0  0
 76149  1  0  0  0
 76150  1  0  0  0
 77 85  1  0  0  0
 77151  1  0  0  0
 77152  1  0  0  0
 78153  1  0  0  0
 78154  1  0  0  0
 78155  1  0  0  0
 79156  1  0  0  0
 79157  1  0  0  0
 79 85  1  0  0  0
 80158  1  0  0  0
 80159  1  0  0  0
 82 83  2  0  0  0
 85160  1  0  0  0
M  CHG  1  85   1
M  ISO  4   1 100  68 101  80 101  84 100
M  END
> <chiral flag>
0

> <version>
0

> <s_m_source_file>
/data/baiqing/PycharmProjects/Reinvent-master-3.2/result/LINK_invent/BTK/process_docking_weight1_custom_sum_contain_oxygen_bond_distance_aromatic_linkinvent_7_9_3/rearranged_h_0170.sdf

> <i_m_source_file_index>
36

> <r_mmod_Potential_Energy-OPLS-2005>
152.961608886719

> <r_mmod_Stretch_Energy-OPLS-2005>
67.925407409668

> <r_mmod_Bend_Energy-OPLS-2005>
137.687911987305

> <r_mmod_Torsional_Energy-OPLS-2005>
421.025024414062

> <r_mmod_Improper_Torsional_Energy-OPLS-2005>
15.7553176879883

> <r_mmod_Van_der_Waal_Energy-OPLS-2005>
149.618621826172

> <r_mmod_Electrostatic_Energy-OPLS-2005>
-204.623168945312

> <r_mmod_Solvation_Energy-OPLS-2005>
-472.977478027344

> <b_mmod_Minimization_Converged-OPLS-2005>
0

> <r_mmod_RMS_Derivative-OPLS-2005>
1.12068462371826

$$$$
36
                    3D
 Structure written by MMmdl.
161170  0  0  1  0            999 V2000
  -30.6719  -14.8011   20.4490 C   0  0  0  0  0  0
  -30.4093  -12.5032   19.4796 C   0  0  0  0  0  0
  -29.4965  -12.5043   18.2373 C   0  0  0  0  0  0
  -28.0295  -12.3101   18.6596 C   0  0  0  0  0  0
  -27.6249  -13.2357   19.8365 C   0  0  2  0  0  0
  -28.6755  -13.2505   20.9718 C   0  0  0  0  0  0
  -25.2427  -13.8187   20.5701 C   0  0  0  0  0  0
  -24.1749  -13.0422   20.9245 C   0  0  0  0  0  0
  -24.6361  -11.6908   20.8784 C   0  0  0  0  0  0
  -23.9051  -10.4284   21.0422 C   0  0  0  0  0  0
  -24.3609   -9.4199   21.9194 C   0  0  0  0  0  0
  -23.6291   -8.2228   22.0752 C   0  0  0  0  0  0
  -22.4274   -8.0265   21.3537 C   0  0  0  0  0  0
  -21.9906   -9.0240   20.4642 C   0  0  0  0  0  0
  -22.7228  -10.2126   20.3061 C   0  0  0  0  0  0
  -21.6850   -6.0729   22.5279 C   0  0  0  0  0  0
  -21.4014   -6.5636   23.8214 C   0  0  0  0  0  0
  -21.3664   -5.6791   24.9179 C   0  0  0  0  0  0
  -21.6047   -4.3053   24.7229 C   0  0  0  0  0  0
  -21.8819   -3.8142   23.4351 C   0  0  0  0  0  0
  -21.9192   -4.6957   22.3407 C   0  0  0  0  0  0
  -22.7775  -13.5205   21.1899 C   0  0  0  0  0  0
  -22.1661   -4.2142   21.0985 F   0  0  0  0  0  0
  -21.5629   -3.4537   25.7741 F   0  0  0  0  0  0
  -29.9599  -13.6142   20.3639 N   0  0  0  0  0  0
  -26.2853  -12.9405   20.3267 N   0  0  0  0  0  0
  -25.9289  -11.6549   20.5786 N   0  0  0  0  0  0
  -22.0420  -12.8202   22.0459 N   0  0  0  0  0  0
  -25.4041  -15.1907   20.4049 N   0  0  0  0  0  0
  -31.8796  -14.7393   20.1952 O   0  0  0  0  0  0
  -21.6634   -6.8866   21.4239 O   0  0  0  0  0  0
  -22.3473  -14.5516   20.6747 O   0  0  0  0  0  0
  -24.6352  -31.8529   23.1970 C   0  0  0  0  0  0
  -25.9163  -32.4742   23.8329 C   0  0  1  0  0  0
  -27.2056  -27.2301   20.1440 C   0  0  0  0  0  0
  -25.5946  -33.8544   24.2248 N   0  0  0  0  0  0
  -23.4338  -30.4767   21.5415 C   0  0  2  0  0  0
  -24.8806  -28.9221   20.1108 C   0  0  0  0  0  0
  -22.7535  -29.4583   22.4895 C   0  0  0  0  0  0
  -18.0297  -28.1386   22.8481 C   0  0  0  0  0  0
  -24.1486  -36.7272   23.2642 C   0  0  0  0  0  0
  -25.9835  -30.7576   21.3823 C   0  0  0  0  0  0
  -26.0559  -29.3782   20.7241 C   0  0  0  0  0  0
  -27.2269  -28.5461   20.7268 C   0  0  0  0  0  0
  -26.0136  -26.8568   19.4900 C   0  0  0  0  0  0
  -24.8662  -27.6704   19.4798 C   0  0  0  0  0  0
  -23.6542  -29.8139   20.1574 C   0  0  0  0  0  0
  -25.4118  -36.3059   24.0321 C   0  0  1  0  0  0
  -20.5906  -28.3693   23.1257 C   0  0  2  0  0  0
  -20.6780  -26.9408   22.5403 C   0  0  0  0  0  0
  -19.5753  -26.6377   21.5210 C   0  0  0  0  0  0
  -18.1936  -26.7926   22.1625 C   0  0  0  0  0  0
  -19.1554  -28.8861   23.2860 C   0  0  0  0  0  0
  -18.9472  -30.1461   23.8878 C   0  0  0  0  0  0
  -17.6469  -30.6585   24.0562 C   0  0  0  0  0  0
  -25.9062  -34.9431   23.5087 C   0  0  0  0  0  0
  -16.5359  -29.9082   23.6335 C   0  0  0  0  0  0
  -16.7283  -28.6502   23.0350 C   0  0  0  0  0  0
  -26.4517  -31.6577   25.0734 C   0  0  0  0  0  0
  -25.3729  -31.3737   26.1445 C   0  0  0  0  0  0
  -27.0371  -30.2990   24.6245 C   0  0  0  0  0  0
  -27.6062  -32.4328   25.7510 C   0  0  0  0  0  0
  -27.5577  -37.1794   24.8468 C   0  0  0  0  0  0
  -21.4235  -29.3033   22.3641 N   0  0  0  0  0  0
  -26.4293  -37.3764   23.9406 N   0  0  0  0  0  0
  -24.7036  -31.0473   22.0961 N   0  0  0  0  0  0
  -23.4222  -28.8117   23.3000 O   0  0  0  0  0  0
  -28.2467  -26.2659   20.1830 O   0  0  0  0  0  0
  -26.5637  -34.8914   22.4657 O   0  0  0  0  0  0
  -23.5489  -32.1361   23.7242 O   0  0  0  0  0  0
  -29.2143  -22.7287   21.4733 C   0  0  0  0  0  0
  -28.4785  -23.4816   20.5114 C   0  0  0  0  0  0
  -28.0693  -22.6818   19.4008 C   0  0  0  0  0  0
  -28.3808  -21.2626   19.3321 C   0  0  0  0  0  0
  -29.0897  -20.5947   20.3862 C   0  0  0  0  0  0
  -30.5189  -18.6677   21.2354 C   0  0  0  0  0  0
  -28.3552  -18.1313   20.4805 C   0  0  0  0  0  0
  -31.0604  -17.2357   20.8409 C   0  0  0  0  0  0
  -28.7621  -16.5880   20.2714 C   0  0  0  0  0  0
  -27.2310  -23.3540   18.3203 C   0  0  0  0  0  0
  -27.9511  -20.4698   18.0989 C   0  0  0  0  0  0
  -27.9071  -24.9547   20.8600 C   0  0  0  0  0  0
  -29.5063  -21.3817   21.4153 N   0  0  0  0  0  0
  -29.4177  -19.1620   20.4007 N   0  0  0  0  0  0
  -30.1114  -16.0823   20.6788 N   0  0  0  0  0  0
  -31.4507  -12.5968   19.1672 H   0  0  0  0  0  0
  -30.3473  -11.5471   20.0020 H   0  0  0  0  0  0
  -29.7953  -11.7151   17.5463 H   0  0  0  0  0  0
  -29.6058  -13.4466   17.6981 H   0  0  0  0  0  0
  -27.9097  -11.2664   18.9537 H   0  0  0  0  0  0
  -27.3644  -12.4640   17.8090 H   0  0  0  0  0  0
  -27.5884  -14.2325   19.4032 H   0  0  0  0  0  0
  -28.7391  -12.2767   21.4588 H   0  0  0  0  0  0
  -28.4023  -13.9622   21.7520 H   0  0  0  0  0  0
  -25.2746   -9.5683   22.4784 H   0  0  0  0  0  0
  -23.9994   -7.4620   22.7476 H   0  0  0  0  0  0
  -21.0833   -8.8756   19.8955 H   0  0  0  0  0  0
  -22.3670  -10.9667   19.6179 H   0  0  0  0  0  0
  -21.2004   -7.6143   23.9717 H   0  0  0  0  0  0
  -21.1491   -6.0522   25.9085 H   0  0  0  0  0  0
  -22.0596   -2.7602   23.2850 H   0  0  0  0  0  0
  -22.4020  -11.9856   22.4850 H   0  0  0  0  0  0
  -21.1039  -13.1229   22.2660 H   0  0  0  0  0  0
  -24.6263  -15.8341   20.5033 H   0  0  0  0  0  0
  -26.2360  -15.6286   20.0358 H   0  0  0  0  0  0
  -26.7229  -32.5383   23.1068 H   0  0  0  0  0  0
  -25.0094  -33.9673   25.0393 H   0  0  0  0  0  0
  -22.7314  -31.3001   21.3955 H   0  0  0  0  0  0
  -23.3753  -35.9601   23.3303 H   0  0  0  0  0  0
  -24.3580  -36.8903   22.2059 H   0  0  0  0  0  0
  -23.7236  -37.6468   23.6669 H   0  0  0  0  0  0
  -26.1285  -31.5167   20.6124 H   0  0  0  0  0  0
  -26.8587  -30.8047   22.0180 H   0  0  0  0  0  0
  -28.1255  -28.8869   21.2214 H   0  0  0  0  0  0
  -25.9497  -25.8941   19.0053 H   0  0  0  0  0  0
  -23.9682  -27.3171   18.9915 H   0  0  0  0  0  0
  -23.7850  -30.5921   19.4042 H   0  0  0  0  0  0
  -22.7716  -29.2515   19.8472 H   0  0  0  0  0  0
  -25.1301  -36.1905   25.0813 H   0  0  0  0  0  0
  -20.9999  -28.3270   24.1375 H   0  0  0  0  0  0
  -20.5673  -26.2307   23.3611 H   0  0  0  0  0  0
  -21.6649  -26.7418   22.1201 H   0  0  0  0  0  0
  -19.6911  -25.6285   21.1246 H   0  0  0  0  0  0
  -19.6690  -27.3185   20.6738 H   0  0  0  0  0  0
  -17.4204  -26.6668   21.4028 H   0  0  0  0  0  0
  -18.0337  -26.0072   22.9025 H   0  0  0  0  0  0
  -19.7948  -30.7284   24.2237 H   0  0  0  0  0  0
  -17.5021  -31.6264   24.5163 H   0  0  0  0  0  0
  -15.5359  -30.2976   23.7663 H   0  0  0  0  0  0
  -15.8684  -28.0817   22.7063 H   0  0  0  0  0  0
  -24.5906  -30.7088   25.7765 H   0  0  0  0  0  0
  -24.8921  -32.2912   26.4847 H   0  0  0  0  0  0
  -25.8036  -30.8927   27.0237 H   0  0  0  0  0  0
  -26.2968  -29.6731   24.1251 H   0  0  0  0  0  0
  -27.4023  -29.7262   25.4777 H   0  0  0  0  0  0
  -27.8858  -30.4256   23.9521 H   0  0  0  0  0  0
  -27.2665  -33.3636   26.2066 H   0  0  0  0  0  0
  -28.3888  -32.6881   25.0352 H   0  0  0  0  0  0
  -28.0715  -31.8474   26.5450 H   0  0  0  0  0  0
  -28.2590  -38.0091   24.7517 H   0  0  0  0  0  0
  -28.1076  -36.2625   24.6295 H   0  0  0  0  0  0
  -27.2299  -37.1448   25.8873 H   0  0  0  0  0  0
  -20.9423  -29.8774   21.6857 H   0  0  0  0  0  0
  -26.0165  -38.2834   24.1412 H   0  0  0  0  0  0
  -29.5326  -23.2124   22.3850 H   0  0  0  0  0  0
  -31.3438  -19.3803   21.1892 H   0  0  0  0  0  0
  -30.1887  -18.6612   22.2752 H   0  0  0  0  0  0
  -27.9209  -18.2249   21.4771 H   0  0  0  0  0  0
  -27.5364  -18.3820   19.8068 H   0  0  0  0  0  0
  -31.8132  -16.9596   21.5823 H   0  0  0  0  0  0
  -31.6012  -17.3408   19.8988 H   0  0  0  0  0  0
  -28.6614  -16.3602   19.2094 H   0  0  0  0  0  0
  -28.0114  -15.9932   20.7855 H   0  0  0  0  0  0
  -26.1789  -23.3472   18.6062 H   0  0  0  0  0  0
  -27.3160  -22.8853   17.3427 H   0  0  0  0  0  0
  -27.5412  -24.3897   18.1838 H   0  0  0  0  0  0
  -28.2961  -20.9539   17.1860 H   0  0  0  0  0  0
  -26.8647  -20.3851   18.0582 H   0  0  0  0  0  0
  -28.3678  -19.4652   18.0638 H   0  0  0  0  0  0
  -28.1530  -25.1249   21.9090 H   0  0  0  0  0  0
  -26.8251  -24.8249   20.8788 H   0  0  0  0  0  0
  1 25  1  0  0  0
  1 30  2  0  0  0
  1 85  1  0  0  0
  2  3  1  0  0  0
  2 25  1  0  0  0
  2 86  1  0  0  0
  2 87  1  0  0  0
  3  4  1  0  0  0
  3 88  1  0  0  0
  3 89  1  0  0  0
  4  5  1  0  0  0
  4 90  1  0  0  0
  4 91  1  0  0  0
  5  6  1  0  0  0
  5 26  1  0  0  0
  5 92  1  0  0  0
  6 25  1  0  0  0
  6 93  1  0  0  0
  6 94  1  0  0  0
  7  8  2  0  0  0
  7 26  1  0  0  0
  7 29  1  0  0  0
  8  9  1  0  0  0
  8 22  1  0  0  0
  9 10  1  0  0  0
  9 27  2  0  0  0
 10 11  2  0  0  0
 10 15  1  0  0  0
 11 12  1  0  0  0
 11 95  1  0  0  0
 12 13  2  0  0  0
 12 96  1  0  0  0
 13 14  1  0  0  0
 13 31  1  0  0  0
 14 15  2  0  0  0
 14 97  1  0  0  0
 15 98  1  0  0  0
 16 17  2  0  0  0
 16 21  1  0  0  0
 16 31  1  0  0  0
 17 18  1  0  0  0
 17 99  1  0  0  0
 18 19  2  0  0  0
 18100  1  0  0  0
 19 20  1  0  0  0
 19 24  1  0  0  0
 20 21  2  0  0  0
 20101  1  0  0  0
 21 23  1  0  0  0
 22 28  1  0  0  0
 22 32  2  0  0  0
 26 27  1  0  0  0
 28102  1  0  0  0
 28103  1  0  0  0
 29104  1  0  0  0
 29105  1  0  0  0
 33 34  1  0  0  0
 33 66  1  0  0  0
 33 70  2  0  0  0
 34 36  1  0  0  0
 34 59  1  0  0  0
 34106  1  0  0  0
 35 44  2  0  0  0
 35 45  1  0  0  0
 35 68  1  0  0  0
 36 56  1  0  0  0
 36107  1  0  0  0
 37 39  1  0  0  0
 37 47  1  0  0  0
 37 66  1  0  0  0
 37108  1  0  0  0
 38 43  2  0  0  0
 38 46  1  0  0  0
 38 47  1  0  0  0
 39 64  1  0  0  0
 39 67  2  0  0  0
 40 52  1  0  0  0
 40 53  2  0  0  0
 40 58  1  0  0  0
 41109  1  0  0  0
 41110  1  0  0  0
 41111  1  0  0  0
 41 48  1  0  0  0
 42 43  1  0  0  0
 42 66  1  0  0  0
 42112  1  0  0  0
 42113  1  0  0  0
 43 44  1  0  0  0
 44114  1  0  0  0
 45 46  2  0  0  0
 45115  1  0  0  0
 46116  1  0  0  0
 47117  1  0  0  0
 47118  1  0  0  0
 48 56  1  0  0  0
 48 65  1  0  0  0
 48119  1  0  0  0
 49 50  1  0  0  0
 49 53  1  0  0  0
 49 64  1  0  0  0
 49120  1  0  0  0
 50 51  1  0  0  0
 50121  1  0  0  0
 50122  1  0  0  0
 51 52  1  0  0  0
 51123  1  0  0  0
 51124  1  0  0  0
 52125  1  0  0  0
 52126  1  0  0  0
 53 54  1  0  0  0
 54 55  2  0  0  0
 54127  1  0  0  0
 55 57  1  0  0  0
 55128  1  0  0  0
 56 69  2  0  0  0
 57 58  2  0  0  0
 57129  1  0  0  0
 58130  1  0  0  0
 59 60  1  0  0  0
 59 61  1  0  0  0
 59 62  1  0  0  0
 60131  1  0  0  0
 60132  1  0  0  0
 60133  1  0  0  0
 61134  1  0  0  0
 61135  1  0  0  0
 61136  1  0  0  0
 62137  1  0  0  0
 62138  1  0  0  0
 62139  1  0  0  0
 63 65  1  0  0  0
 63140  1  0  0  0
 63141  1  0  0  0
 63142  1  0  0  0
 64143  1  0  0  0
 65144  1  0  0  0
 68 82  1  0  0  0
 71 72  2  0  0  0
 71 83  1  0  0  0
 71145  1  0  0  0
 72 73  1  0  0  0
 72 82  1  0  0  0
 73 74  2  0  0  0
 73 80  1  0  0  0
 74 75  1  0  0  0
 74 81  1  0  0  0
 75 83  2  0  0  0
 75 84  1  0  0  0
 76 78  1  0  0  0
 76 84  1  0  0  0
 76146  1  0  0  0
 76147  1  0  0  0
 77 79  1  0  0  0
 77 84  1  0  0  0
 77148  1  0  0  0
 77149  1  0  0  0
 78 85  1  0  0  0
 78150  1  0  0  0
 78151  1  0  0  0
 79 85  1  0  0  0
 79152  1  0  0  0
 79153  1  0  0  0
 80154  1  0  0  0
 80155  1  0  0  0
 80156  1  0  0  0
 81157  1  0  0  0
 81158  1  0  0  0
 81159  1  0  0  0
 82160  1  0  0  0
 82161  1  0  0  0
M  ISO  4   1 100  68 101  82 101  85 100
M  END
> <chiral flag>
0

> <version>
0

> <s_m_source_file>
/data/baiqing/PycharmProjects/Reinvent-master-3.2/result/LINK_invent/BTK/process_docking_weight1_custom_sum_contain_oxygen_bond_distance_aromatic_linkinvent_7_9_3/rearranged_h_0170.sdf

> <i_m_source_file_index>
37

> <r_mmod_Potential_Energy-OPLS-2005>
275.126434326172

> <r_mmod_Stretch_Energy-OPLS-2005>
139.317718505859

> <r_mmod_Bend_Energy-OPLS-2005>
229.842193603516

> <r_mmod_Torsional_Energy-OPLS-2005>
367.36181640625

> <r_mmod_Improper_Torsional_Energy-OPLS-2005>
10.7623634338379

> <r_mmod_Van_der_Waal_Energy-OPLS-2005>
156.699951171875

> <r_mmod_Electrostatic_Energy-OPLS-2005>
-512.225708007812

> <r_mmod_Solvation_Energy-OPLS-2005>
-235.286193847656

> <b_mmod_Minimization_Converged-OPLS-2005>
0

> <r_mmod_RMS_Derivative-OPLS-2005>
0.936574339866638

$$$$
37
                    3D
 Structure written by MMmdl.
179189  0  0  1  0            999 V2000
  -30.5943  -14.8539   20.3571 C   0  0  0  0  0  0
  -30.4588  -12.5080   19.4719 C   0  0  0  0  0  0
  -29.5403  -12.5173   18.2355 C   0  0  0  0  0  0
  -28.0685  -12.3206   18.6558 C   0  0  0  0  0  0
  -27.6541  -13.2210   19.8573 C   0  0  2  0  0  0
  -28.7110  -13.2405   20.9792 C   0  0  0  0  0  0
  -25.2600  -13.8163   20.6034 C   0  0  0  0  0  0
  -24.1884  -13.0407   20.9245 C   0  0  0  0  0  0
  -24.6397  -11.6850   20.8670 C   0  0  0  0  0  0
  -23.9051  -10.4306   21.0313 C   0  0  0  0  0  0
  -24.3630   -9.4272   21.9133 C   0  0  0  0  0  0
  -23.6329   -8.2314   22.0744 C   0  0  0  0  0  0
  -22.4302   -8.0298   21.3542 C   0  0  0  0  0  0
  -21.9890   -9.0242   20.4642 C   0  0  0  0  0  0
  -22.7191  -10.2137   20.3015 C   0  0  0  0  0  0
  -21.6888   -6.0755   22.5244 C   0  0  0  0  0  0
  -21.4029   -6.5658   23.8194 C   0  0  0  0  0  0
  -21.3651   -5.6809   24.9149 C   0  0  0  0  0  0
  -21.6059   -4.3062   24.7202 C   0  0  0  0  0  0
  -21.8831   -3.8150   23.4309 C   0  0  0  0  0  0
  -21.9247   -4.6990   22.3384 C   0  0  0  0  0  0
  -22.7920  -13.5159   21.1797 C   0  0  0  0  0  0
  -22.1720   -4.2199   21.0957 F   0  0  0  0  0  0
  -21.5623   -3.4513   25.7710 F   0  0  0  0  0  0
  -29.9817  -13.6108   20.3439 N   0  0  0  0  0  0
  -26.3049  -12.9360   20.3413 N   0  0  0  0  0  0
  -25.9333  -11.6479   20.5688 N   0  0  0  0  0  0
  -22.0537  -12.8216   22.0291 N   0  0  0  0  0  0
  -25.3876  -15.2003   20.4979 N   0  0  0  0  0  0
  -31.8031  -14.9008   20.1208 O   0  0  0  0  0  0
  -21.6686   -6.8886   21.4203 O   0  0  0  0  0  0
  -22.3671  -14.5517   20.6621 O   0  0  0  0  0  0
  -24.6286  -31.8528   23.1943 C   0  0  0  0  0  0
  -25.9129  -32.4757   23.8267 C   0  0  1  0  0  0
  -27.2666  -27.2302   20.1702 C   0  0  0  0  0  0
  -25.5942  -33.8552   24.2208 N   0  0  0  0  0  0
  -23.4379  -30.4551   21.5354 C   0  0  2  0  0  0
  -24.9069  -28.8878   20.1281 C   0  0  0  0  0  0
  -22.7473  -29.4468   22.4947 C   0  0  0  0  0  0
  -18.0304  -28.1348   22.8455 C   0  0  0  0  0  0
  -24.1506  -36.7246   23.2635 C   0  0  0  0  0  0
  -25.9804  -30.7537   21.3879 C   0  0  0  0  0  0
  -26.0669  -29.3662   20.7475 C   0  0  0  0  0  0
  -27.2518  -28.5513   20.7487 C   0  0  0  0  0  0
  -26.0795  -26.8265   19.5308 C   0  0  0  0  0  0
  -24.9125  -27.6225   19.5159 C   0  0  0  0  0  0
  -23.6718  -29.7784   20.1600 C   0  0  0  0  0  0
  -25.4121  -36.3006   24.0311 C   0  0  1  0  0  0
  -20.5847  -28.3585   23.1331 C   0  0  2  0  0  0
  -20.6756  -26.9311   22.5408 C   0  0  0  0  0  0
  -19.5758  -26.6333   21.5183 C   0  0  0  0  0  0
  -18.1956  -26.7876   22.1620 C   0  0  0  0  0  0
  -19.1531  -28.8766   23.2912 C   0  0  0  0  0  0
  -18.9488  -30.1386   23.8873 C   0  0  0  0  0  0
  -17.6525  -30.6564   24.0500 C   0  0  0  0  0  0
  -25.9070  -34.9414   23.5047 C   0  0  0  0  0  0
  -16.5383  -29.9057   23.6355 C   0  0  0  0  0  0
  -16.7312  -28.6475   23.0358 C   0  0  0  0  0  0
  -26.4524  -31.6519   25.0604 C   0  0  0  0  0  0
  -25.3666  -31.3664   26.1245 C   0  0  0  0  0  0
  -27.0430  -30.2903   24.6159 C   0  0  0  0  0  0
  -27.6102  -32.4240   25.7356 C   0  0  0  0  0  0
  -27.5589  -37.1773   24.8469 C   0  0  0  0  0  0
  -21.4149  -29.2939   22.3753 N   0  0  0  0  0  0
  -26.4314  -37.3721   23.9393 N   0  0  0  0  0  0
  -24.6993  -31.0475   22.0935 N   0  0  0  0  0  0
  -23.4129  -28.8014   23.3109 O   0  0  0  0  0  0
  -28.3905  -26.3677   20.0943 O   0  0  0  0  0  0
  -26.5638  -34.8908   22.4646 O   0  0  0  0  0  0
  -23.5417  -32.1381   23.7210 O   0  0  0  0  0  0
  -27.3859  -16.5212   17.9515 C   0  0  0  0  0  0
  -26.7463  -16.9805   16.7917 C   0  0  0  0  0  0
  -28.6862  -16.9445   18.2969 C   0  0  0  0  0  0
  -27.3918  -17.9008   15.9510 C   0  0  0  0  0  0
  -29.4248  -17.6796   17.3180 C   0  0  0  0  0  0
  -28.7537  -18.2148   16.1831 C   0  0  0  0  0  0
  -27.2121  -24.0449   20.8270 C   0  0  0  0  0  0
  -30.2529  -17.2189   21.4544 C   0  0  0  0  0  0
  -27.7798  -22.7308   21.4650 C   0  0  0  0  0  0
  -29.4009  -23.8030   20.1041 C   0  0  0  0  0  0
  -28.9886  -16.9822   19.8181 C   0  0  2  0  0  0
  -29.7020  -18.2564   20.4022 C   0  0  1  0  0  0
  -28.4423  -24.9628   20.6733 C   0  0  1  0  0  0
  -26.5784  -18.5847   14.8546 C   0  0  0  0  0  0
  -30.9215  -17.9123   17.4452 C   0  0  0  0  0  0
  -29.4378  -19.2335   15.2728 C   0  0  0  0  0  0
  -27.7020  -19.7580   19.6744 C   0  0  0  0  0  0
  -29.7027  -21.1242   20.4639 C   0  0  0  0  0  0
  -28.9112  -19.6893   20.6365 C   0  0  1  0  0  0
  -29.8717  -16.0359   20.5979 N   0  0  0  0  0  0
  -29.1431  -22.5227   20.9019 N   0  3  2  0  0  0
  -31.4919  -12.6319   19.1494 H   0  0  0  0  0  0
  -30.4430  -11.5519   19.9963 H   0  0  0  0  0  0
  -29.8487  -11.7449   17.5343 H   0  0  0  0  0  0
  -29.6488  -13.4699   17.7127 H   0  0  0  0  0  0
  -27.9380  -11.2698   18.9189 H   0  0  0  0  0  0
  -27.4080  -12.4950   17.8049 H   0  0  0  0  0  0
  -27.6363  -14.2314   19.4690 H   0  0  0  0  0  0
  -28.7913  -12.2852   21.4967 H   0  0  0  0  0  0
  -28.4476  -13.9769   21.7410 H   0  0  0  0  0  0
  -25.2750   -9.5894   22.4722 H   0  0  0  0  0  0
  -24.0081   -7.4760   22.7487 H   0  0  0  0  0  0
  -21.0807   -8.8738   19.8975 H   0  0  0  0  0  0
  -22.3527  -10.9708   19.6216 H   0  0  0  0  0  0
  -21.1994   -7.6151   23.9696 H   0  0  0  0  0  0
  -21.1448   -6.0518   25.9054 H   0  0  0  0  0  0
  -22.0610   -2.7617   23.2784 H   0  0  0  0  0  0
  -22.4131  -11.9953   22.4874 H   0  0  0  0  0  0
  -21.1230  -13.1367   22.2522 H   0  0  0  0  0  0
  -24.5759  -15.7786   20.6941 H   0  0  0  0  0  0
  -26.2288  -15.7328   20.3526 H   0  0  0  0  0  0
  -26.7182  -32.5415   23.1010 H   0  0  0  0  0  0
  -25.0043  -33.9725   25.0297 H   0  0  0  0  0  0
  -22.7302  -31.2688   21.3754 H   0  0  0  0  0  0
  -23.3795  -35.9582   23.3278 H   0  0  0  0  0  0
  -24.3597  -36.8890   22.2059 H   0  0  0  0  0  0
  -23.7290  -37.6446   23.6696 H   0  0  0  0  0  0
  -26.1202  -31.5265   20.6270 H   0  0  0  0  0  0
  -26.8507  -30.8081   22.0328 H   0  0  0  0  0  0
  -28.1380  -28.9184   21.2406 H   0  0  0  0  0  0
  -26.0506  -25.8678   19.0308 H   0  0  0  0  0  0
  -24.0256  -27.2361   19.0304 H   0  0  0  0  0  0
  -23.8280  -30.5507   19.4109 H   0  0  0  0  0  0
  -22.7869  -29.2197   19.8414 H   0  0  0  0  0  0
  -25.1353  -36.1847   25.0826 H   0  0  0  0  0  0
  -20.9954  -28.3131   24.1444 H   0  0  0  0  0  0
  -20.5611  -26.2173   23.3582 H   0  0  0  0  0  0
  -21.6672  -26.7324   22.1240 H   0  0  0  0  0  0
  -19.6963  -25.6261   21.1185 H   0  0  0  0  0  0
  -19.6768  -27.3146   20.6713 H   0  0  0  0  0  0
  -17.4223  -26.6565   21.4034 H   0  0  0  0  0  0
  -18.0412  -26.0003   22.8998 H   0  0  0  0  0  0
  -19.7965  -30.7192   24.2187 H   0  0  0  0  0  0
  -17.5107  -31.6258   24.5056 H   0  0  0  0  0  0
  -15.5384  -30.2991   23.7697 H   0  0  0  0  0  0
  -15.8683  -28.0822   22.7108 H   0  0  0  0  0  0
  -24.5906  -30.7016   25.7433 H   0  0  0  0  0  0
  -24.8800  -32.2832   26.4538 H   0  0  0  0  0  0
  -25.7892  -30.8822   27.0038 H   0  0  0  0  0  0
  -26.3042  -29.6513   24.1297 H   0  0  0  0  0  0
  -27.4184  -29.7326   25.4745 H   0  0  0  0  0  0
  -27.8874  -30.4109   23.9366 H   0  0  0  0  0  0
  -27.2769  -33.3588   26.1850 H   0  0  0  0  0  0
  -28.3938  -32.6674   25.0166 H   0  0  0  0  0  0
  -28.0703  -31.8343   26.5289 H   0  0  0  0  0  0
  -28.2587  -38.0057   24.7504 H   0  0  0  0  0  0
  -28.1093  -36.2620   24.6338 H   0  0  0  0  0  0
  -27.2290  -37.1429   25.8849 H   0  0  0  0  0  0
  -20.9362  -29.8764   21.7027 H   0  0  0  0  0  0
  -26.0167  -38.2816   24.1371 H   0  0  0  0  0  0
  -26.7998  -15.9293   18.6251 H   0  0  0  0  0  0
  -25.7204  -16.6960   16.6003 H   0  0  0  0  0  0
  -26.4234  -24.4732   21.4381 H   0  0  0  0  0  0
  -26.7915  -23.8245   19.8416 H   0  0  0  0  0  0
  -29.7241  -17.2335   22.4052 H   0  0  0  0  0  0
  -31.3203  -17.3244   21.6480 H   0  0  0  0  0  0
  -27.0964  -21.8862   21.4053 H   0  0  0  0  0  0
  -27.9226  -22.9150   22.5322 H   0  0  0  0  0  0
  -30.4545  -24.0900   20.1419 H   0  0  0  0  0  0
  -29.1718  -23.5884   19.0572 H   0  0  0  0  0  0
  -28.0073  -16.9425   20.2868 H   0  0  0  0  0  0
  -30.5859  -18.5078   19.8263 H   0  0  0  0  0  0
  -28.7902  -25.1676   21.6849 H   0  0  0  0  0  0
  -25.5159  -18.3594   14.9426 H   0  0  0  0  0  0
  -26.9078  -18.2824   13.8593 H   0  0  0  0  0  0
  -26.6529  -19.6704   14.9334 H   0  0  0  0  0  0
  -31.3657  -17.2634   18.2048 H   0  0  0  0  0  0
  -31.1511  -18.9576   17.6638 H   0  0  0  0  0  0
  -31.3974  -17.6463   16.5011 H   0  0  0  0  0  0
  -28.9337  -19.3504   14.3123 H   0  0  0  0  0  0
  -30.4730  -18.9819   15.0451 H   0  0  0  0  0  0
  -29.4159  -20.2137   15.7542 H   0  0  0  0  0  0
  -28.0001  -19.9175   18.6362 H   0  0  0  0  0  0
  -27.0272  -20.5671   19.8994 H   0  0  0  0  0  0
  -27.0690  -18.8769   19.7195 H   0  0  0  0  0  0
  -30.0443  -21.2300   19.4321 H   0  0  0  0  0  0
  -30.6231  -21.0037   21.0433 H   0  0  0  0  0  0
  -28.5154  -19.6678   21.6504 H   0  0  0  0  0  0
  -29.7128  -22.6895   21.7250 H   0  0  0  0  0  0
  1 25  1  0  0  0
  1 30  2  0  0  0
  1 90  1  0  0  0
  2  3  1  0  0  0
  2 25  1  0  0  0
  2 92  1  0  0  0
  2 93  1  0  0  0
  3  4  1  0  0  0
  3 94  1  0  0  0
  3 95  1  0  0  0
  4  5  1  0  0  0
  4 96  1  0  0  0
  4 97  1  0  0  0
  5  6  1  0  0  0
  5 26  1  0  0  0
  5 98  1  0  0  0
  6 25  1  0  0  0
  6 99  1  0  0  0
  6100  1  0  0  0
  7  8  2  0  0  0
  7 26  1  0  0  0
  7 29  1  0  0  0
  8  9  1  0  0  0
  8 22  1  0  0  0
  9 10  1  0  0  0
  9 27  2  0  0  0
 10 11  2  0  0  0
 10 15  1  0  0  0
 11 12  1  0  0  0
 11101  1  0  0  0
 12 13  2  0  0  0
 12102  1  0  0  0
 13 14  1  0  0  0
 13 31  1  0  0  0
 14 15  2  0  0  0
 14103  1  0  0  0
 15104  1  0  0  0
 16 17  2  0  0  0
 16 21  1  0  0  0
 16 31  1  0  0  0
 17 18  1  0  0  0
 17105  1  0  0  0
 18 19  2  0  0  0
 18106  1  0  0  0
 19 20  1  0  0  0
 19 24  1  0  0  0
 20 21  2  0  0  0
 20107  1  0  0  0
 21 23  1  0  0  0
 22 28  1  0  0  0
 22 32  2  0  0  0
 26 27  1  0  0  0
 28108  1  0  0  0
 28109  1  0  0  0
 29110  1  0  0  0
 29111  1  0  0  0
 33 34  1  0  0  0
 33 66  1  0  0  0
 33 70  2  0  0  0
 34 36  1  0  0  0
 34 59  1  0  0  0
 34112  1  0  0  0
 35 44  2  0  0  0
 35 45  1  0  0  0
 35 68  1  0  0  0
 36 56  1  0  0  0
 36113  1  0  0  0
 37 39  1  0  0  0
 37 47  1  0  0  0
 37 66  1  0  0  0
 37114  1  0  0  0
 38 43  2  0  0  0
 38 46  1  0  0  0
 38 47  1  0  0  0
 39 64  1  0  0  0
 39 67  2  0  0  0
 40 52  1  0  0  0
 40 53  2  0  0  0
 40 58  1  0  0  0
 41115  1  0  0  0
 41116  1  0  0  0
 41117  1  0  0  0
 41 48  1  0  0  0
 42 43  1  0  0  0
 42 66  1  0  0  0
 42118  1  0  0  0
 42119  1  0  0  0
 43 44  1  0  0  0
 44120  1  0  0  0
 45 46  2  0  0  0
 45121  1  0  0  0
 46122  1  0  0  0
 47123  1  0  0  0
 47124  1  0  0  0
 48 56  1  0  0  0
 48 65  1  0  0  0
 48125  1  0  0  0
 49 50  1  0  0  0
 49 53  1  0  0  0
 49 64  1  0  0  0
 49126  1  0  0  0
 50 51  1  0  0  0
 50127  1  0  0  0
 50128  1  0  0  0
 51 52  1  0  0  0
 51129  1  0  0  0
 51130  1  0  0  0
 52131  1  0  0  0
 52132  1  0  0  0
 53 54  1  0  0  0
 54 55  2  0  0  0
 54133  1  0  0  0
 55 57  1  0  0  0
 55134  1  0  0  0
 56 69  2  0  0  0
 57 58  2  0  0  0
 57135  1  0  0  0
 58136  1  0  0  0
 59 60  1  0  0  0
 59 61  1  0  0  0
 59 62  1  0  0  0
 60137  1  0  0  0
 60138  1  0  0  0
 60139  1  0  0  0
 61140  1  0  0  0
 61141  1  0  0  0
 61142  1  0  0  0
 62143  1  0  0  0
 62144  1  0  0  0
 62145  1  0  0  0
 63 65  1  0  0  0
 63146  1  0  0  0
 63147  1  0  0  0
 63148  1  0  0  0
 64149  1  0  0  0
 65150  1  0  0  0
 68 83  1  0  0  0
 71 72  2  0  0  0
 71 73  1  0  0  0
 71151  1  0  0  0
 72 74  1  0  0  0
 72152  1  0  0  0
 73 75  2  0  0  0
 73 81  1  0  0  0
 74 76  2  0  0  0
 74 84  1  0  0  0
 75 76  1  0  0  0
 75 85  1  0  0  0
 76 86  1  0  0  0
 77 79  1  0  0  0
 77 83  1  0  0  0
 77153  1  0  0  0
 77154  1  0  0  0
 78 90  1  0  0  0
 78155  1  0  0  0
 78156  1  0  0  0
 78 82  1  0  0  0
 79 91  1  0  0  0
 79157  1  0  0  0
 79158  1  0  0  0
 80 83  1  0  0  0
 80 91  1  0  0  0
 80159  1  0  0  0
 80160  1  0  0  0
 81 82  1  0  0  0
 81 90  1  0  0  0
 81161  1  0  0  0
 82 89  1  0  0  0
 82162  1  0  0  0
 83163  1  0  0  0
 84164  1  0  0  0
 84165  1  0  0  0
 84166  1  0  0  0
 85167  1  0  0  0
 85168  1  0  0  0
 85169  1  0  0  0
 86170  1  0  0  0
 86171  1  0  0  0
 86172  1  0  0  0
 87173  1  0  0  0
 87174  1  0  0  0
 87175  1  0  0  0
 87 89  1  0  0  0
 88 89  1  0  0  0
 88176  1  0  0  0
 88177  1  0  0  0
 88 91  1  0  0  0
 89178  1  0  0  0
 91179  1  0  0  0
M  CHG  1  91   1
M  ISO  4   1 100  68 101  83 101  90 100
M  END
> <chiral flag>
0

> <version>
0

> <s_m_source_file>
/data/baiqing/PycharmProjects/Reinvent-master-3.2/result/LINK_invent/BTK/process_docking_weight1_custom_sum_contain_oxygen_bond_distance_aromatic_linkinvent_7_9_3/rearranged_h_0170.sdf

> <i_m_source_file_index>
38

> <r_mmod_Potential_Energy-OPLS-2005>
530.653259277344

> <r_mmod_Stretch_Energy-OPLS-2005>
163.8173828125

> <r_mmod_Bend_Energy-OPLS-2005>
354.836700439453

> <r_mmod_Torsional_Energy-OPLS-2005>
430.374725341797

> <r_mmod_Improper_Torsional_Energy-OPLS-2005>
10.1181163787842

> <r_mmod_Van_der_Waal_Energy-OPLS-2005>
130.427963256836

> <r_mmod_Electrostatic_Energy-OPLS-2005>
-249.494903564453

> <r_mmod_Solvation_Energy-OPLS-2005>
-431.297424316406

> <b_mmod_Minimization_Converged-OPLS-2005>
0

> <r_mmod_RMS_Derivative-OPLS-2005>
12.8905868530273

$$$$
38
                    3D
 Structure written by MMmdl.
158167  0  0  1  0            999 V2000
  -30.6603  -14.7294   20.4695 C   0  0  0  0  0  0
  -30.4274  -12.4608   19.4502 C   0  0  0  0  0  0
  -29.4945  -12.4950   18.2216 C   0  0  0  0  0  0
  -28.0276  -12.2948   18.6497 C   0  0  0  0  0  0
  -27.6355  -13.1953   19.8480 C   0  0  2  0  0  0
  -28.6959  -13.1368   20.9740 C   0  0  0  0  0  0
  -25.2500  -13.8085   20.5683 C   0  0  0  0  0  0
  -24.1775  -13.0380   20.9225 C   0  0  0  0  0  0
  -24.6340  -11.6852   20.8793 C   0  0  0  0  0  0
  -23.9018  -10.4255   21.0443 C   0  0  0  0  0  0
  -24.3585   -9.4173   21.9209 C   0  0  0  0  0  0
  -23.6270   -8.2206   22.0761 C   0  0  0  0  0  0
  -22.4255   -8.0254   21.3544 C   0  0  0  0  0  0
  -21.9886   -9.0228   20.4650 C   0  0  0  0  0  0
  -22.7205  -10.2109   20.3074 C   0  0  0  0  0  0
  -21.6841   -6.0719   22.5279 C   0  0  0  0  0  0
  -21.4004   -6.5629   23.8210 C   0  0  0  0  0  0
  -21.3658   -5.6786   24.9176 C   0  0  0  0  0  0
  -21.6045   -4.3049   24.7230 C   0  0  0  0  0  0
  -21.8821   -3.8137   23.4353 C   0  0  0  0  0  0
  -21.9189   -4.6950   22.3406 C   0  0  0  0  0  0
  -22.7809  -13.5201   21.1874 C   0  0  0  0  0  0
  -22.1660   -4.2135   21.0984 F   0  0  0  0  0  0
  -21.5633   -3.4536   25.7745 F   0  0  0  0  0  0
  -29.9779  -13.5305   20.3746 N   0  0  0  0  0  0
  -26.2901  -12.9222   20.3323 N   0  0  0  0  0  0
  -25.9260  -11.6408   20.5822 N   0  0  0  0  0  0
  -22.0442  -12.8211   22.0434 N   0  0  0  0  0  0
  -25.4151  -15.1801   20.4021 N   0  0  0  0  0  0
  -31.8656  -14.7390   20.2010 O   0  0  0  0  0  0
  -21.6621   -6.8855   21.4238 O   0  0  0  0  0  0
  -22.3513  -14.5513   20.6714 O   0  0  0  0  0  0
  -24.6279  -31.8582   23.2009 C   0  0  0  0  0  0
  -25.9120  -32.4769   23.8344 C   0  0  1  0  0  0
  -27.2305  -27.3058   20.1050 C   0  0  0  0  0  0
  -25.5929  -33.8570   24.2270 N   0  0  0  0  0  0
  -23.4221  -30.4817   21.5440 C   0  0  2  0  0  0
  -24.8681  -28.9349   20.1097 C   0  0  0  0  0  0
  -22.7482  -29.4617   22.4928 C   0  0  0  0  0  0
  -18.0288  -28.1386   22.8486 C   0  0  0  0  0  0
  -24.1489  -36.7288   23.2639 C   0  0  0  0  0  0
  -25.9647  -30.7837   21.3742 C   0  0  0  0  0  0
  -26.0375  -29.4104   20.7142 C   0  0  0  0  0  0
  -27.2164  -28.6056   20.7061 C   0  0  0  0  0  0
  -26.0250  -26.8765   19.5005 C   0  0  0  0  0  0
  -24.8641  -27.6730   19.4978 C   0  0  0  0  0  0
  -23.6371  -29.8168   20.1592 C   0  0  0  0  0  0
  -25.4114  -36.3078   24.0329 C   0  0  1  0  0  0
  -20.5889  -28.3691   23.1280 C   0  0  2  0  0  0
  -20.6777  -26.9413   22.5409 C   0  0  0  0  0  0
  -19.5752  -26.6385   21.5211 C   0  0  0  0  0  0
  -18.1933  -26.7929   22.1625 C   0  0  0  0  0  0
  -19.1541  -28.8855   23.2879 C   0  0  0  0  0  0
  -18.9463  -30.1458   23.8896 C   0  0  0  0  0  0
  -17.6462  -30.6588   24.0563 C   0  0  0  0  0  0
  -25.9053  -34.9448   23.5101 C   0  0  0  0  0  0
  -16.5354  -29.9086   23.6331 C   0  0  0  0  0  0
  -16.7275  -28.6504   23.0352 C   0  0  0  0  0  0
  -26.4497  -31.6584   25.0720 C   0  0  0  0  0  0
  -25.3728  -31.3733   26.1448 C   0  0  0  0  0  0
  -27.0337  -30.3003   24.6185 C   0  0  0  0  0  0
  -27.6057  -32.4319   25.7491 C   0  0  0  0  0  0
  -27.5581  -37.1798   24.8464 C   0  0  0  0  0  0
  -21.4193  -29.3042   22.3671 N   0  0  0  0  0  0
  -26.4290  -37.3775   23.9411 N   0  0  0  0  0  0
  -24.6905  -31.0582   22.0965 N   0  0  0  0  0  0
  -23.4199  -28.8157   23.3015 O   0  0  0  0  0  0
  -28.3634  -26.4714   20.1805 O   0  0  0  0  0  0
  -26.5621  -34.8918   22.4667 O   0  0  0  0  0  0
  -23.5438  -32.1388   23.7327 O   0  0  0  0  0  0
  -29.9764  -22.2298   21.4665 C   0  0  0  0  0  0
  -28.4539  -22.6429   19.2641 C   0  0  0  0  0  0
  -29.6210  -23.5726   21.1272 C   0  0  0  0  0  0
  -28.8306  -23.8210   19.9754 C   0  0  0  0  0  0
  -29.5728  -21.1235   20.6769 C   0  0  0  0  0  0
  -28.4435  -17.8217   20.9567 C   0  0  0  0  0  0
  -28.5916  -16.3157   20.6436 C   0  0  0  0  0  0
  -30.7221  -17.2956   20.6360 C   0  0  0  0  0  0
  -29.6962  -18.4778   20.3942 C   0  0  2  0  0  0
  -30.1264  -24.7197   21.9812 C   0  0  0  0  0  0
  -28.5184  -25.2476   19.3571 C   0  0  0  0  0  0
  -28.8007  -21.3533   19.5899 N   0  0  0  0  0  0
  -30.0202  -15.9625   20.6522 N   0  0  0  0  0  0
  -30.0162  -19.8012   21.0206 N   0  0  0  0  0  0
  -31.4623  -12.5867   19.1281 H   0  0  0  0  0  0
  -30.3901  -11.4860   19.9391 H   0  0  0  0  0  0
  -29.7833  -11.7245   17.5055 H   0  0  0  0  0  0
  -29.6003  -13.4498   17.7039 H   0  0  0  0  0  0
  -27.9027  -11.2459   18.9220 H   0  0  0  0  0  0
  -27.3586  -12.4713   17.8065 H   0  0  0  0  0  0
  -27.6090  -14.1911   19.4268 H   0  0  0  0  0  0
  -28.7608  -12.1244   21.3756 H   0  0  0  0  0  0
  -28.4403  -13.7586   21.8294 H   0  0  0  0  0  0
  -25.2729   -9.5648   22.4786 H   0  0  0  0  0  0
  -23.9980   -7.4590   22.7472 H   0  0  0  0  0  0
  -21.0820   -8.8744   19.8952 H   0  0  0  0  0  0
  -22.3668  -10.9655   19.6187 H   0  0  0  0  0  0
  -21.1991   -7.6137   23.9708 H   0  0  0  0  0  0
  -21.1482   -6.0519   25.9078 H   0  0  0  0  0  0
  -22.0605   -2.7600   23.2857 H   0  0  0  0  0  0
  -22.4043  -11.9868   22.4826 H   0  0  0  0  0  0
  -21.1067  -13.1256   22.2642 H   0  0  0  0  0  0
  -24.6457  -15.8309   20.5156 H   0  0  0  0  0  0
  -26.2644  -15.6238   20.0805 H   0  0  0  0  0  0
  -26.7185  -32.5431   23.1089 H   0  0  0  0  0  0
  -25.0078  -33.9712   25.0417 H   0  0  0  0  0  0
  -22.7170  -31.3032   21.4005 H   0  0  0  0  0  0
  -23.3753  -35.9618   23.3298 H   0  0  0  0  0  0
  -24.3583  -36.8911   22.2054 H   0  0  0  0  0  0
  -23.7238  -37.6487   23.6662 H   0  0  0  0  0  0
  -26.0995  -31.5475   20.6070 H   0  0  0  0  0  0
  -26.8440  -30.8308   22.0050 H   0  0  0  0  0  0
  -28.1132  -28.9671   21.1894 H   0  0  0  0  0  0
  -25.9216  -25.8990   19.0589 H   0  0  0  0  0  0
  -23.9615  -27.2945   19.0380 H   0  0  0  0  0  0
  -23.7585  -30.5936   19.4034 H   0  0  0  0  0  0
  -22.7565  -29.2480   19.8556 H   0  0  0  0  0  0
  -25.1294  -36.1929   25.0821 H   0  0  0  0  0  0
  -20.9984  -28.3268   24.1400 H   0  0  0  0  0  0
  -20.5678  -26.2300   23.3610 H   0  0  0  0  0  0
  -21.6645  -26.7445   22.1203 H   0  0  0  0  0  0
  -19.6915  -25.6296   21.1241 H   0  0  0  0  0  0
  -19.6690  -27.3196   20.6741 H   0  0  0  0  0  0
  -17.4202  -26.6676   21.4028 H   0  0  0  0  0  0
  -18.0336  -26.0072   22.9024 H   0  0  0  0  0  0
  -19.7939  -30.7272   24.2267 H   0  0  0  0  0  0
  -17.5018  -31.6268   24.5166 H   0  0  0  0  0  0
  -15.5354  -30.2987   23.7656 H   0  0  0  0  0  0
  -15.8676  -28.0822   22.7069 H   0  0  0  0  0  0
  -24.5895  -30.7090   25.7780 H   0  0  0  0  0  0
  -24.8930  -32.2904   26.4875 H   0  0  0  0  0  0
  -25.8050  -30.8908   27.0224 H   0  0  0  0  0  0
  -26.2911  -29.6755   24.1208 H   0  0  0  0  0  0
  -27.4026  -29.7261   25.4694 H   0  0  0  0  0  0
  -27.8786  -30.4282   23.9414 H   0  0  0  0  0  0
  -27.2671  -33.3625   26.2059 H   0  0  0  0  0  0
  -28.3873  -32.6869   25.0321 H   0  0  0  0  0  0
  -28.0717  -31.8448   26.5415 H   0  0  0  0  0  0
  -28.2593  -38.0100   24.7520 H   0  0  0  0  0  0
  -28.1081  -36.2632   24.6277 H   0  0  0  0  0  0
  -27.2302  -37.1434   25.8867 H   0  0  0  0  0  0
  -20.9373  -29.8762   21.6877 H   0  0  0  0  0  0
  -26.0170  -38.2849   24.1416 H   0  0  0  0  0  0
  -30.5945  -22.0588   22.3380 H   0  0  0  0  0  0
  -27.8778  -22.7372   18.3553 H   0  0  0  0  0  0
  -28.4024  -17.9579   22.0389 H   0  0  0  0  0  0
  -27.5288  -18.2469   20.5408 H   0  0  0  0  0  0
  -28.2167  -16.1611   19.6336 H   0  0  0  0  0  0
  -27.9946  -15.7452   21.3491 H   0  0  0  0  0  0
  -31.2139  -17.4115   21.6027 H   0  0  0  0  0  0
  -31.5077  -17.3184   19.8787 H   0  0  0  0  0  0
  -29.5686  -18.6189   19.3194 H   0  0  0  0  0  0
  -30.7663  -24.3665   22.7898 H   0  0  0  0  0  0
  -29.2904  -25.2583   22.4277 H   0  0  0  0  0  0
  -30.7050  -25.4206   21.3791 H   0  0  0  0  0  0
  -27.7401  -25.1295   18.6090 H   0  0  0  0  0  0
  -29.3950  -25.4635   18.7459 H   0  0  0  0  0  0
  -30.6125  -19.7477   21.8393 H   0  0  0  0  0  0
  1 25  1  0  0  0
  1 30  2  0  0  0
  1 83  1  0  0  0
  2  3  1  0  0  0
  2 25  1  0  0  0
  2 85  1  0  0  0
  2 86  1  0  0  0
  3  4  1  0  0  0
  3 87  1  0  0  0
  3 88  1  0  0  0
  4  5  1  0  0  0
  4 89  1  0  0  0
  4 90  1  0  0  0
  5  6  1  0  0  0
  5 26  1  0  0  0
  5 91  1  0  0  0
  6 25  1  0  0  0
  6 92  1  0  0  0
  6 93  1  0  0  0
  7  8  2  0  0  0
  7 26  1  0  0  0
  7 29  1  0  0  0
  8  9  1  0  0  0
  8 22  1  0  0  0
  9 10  1  0  0  0
  9 27  2  0  0  0
 10 11  2  0  0  0
 10 15  1  0  0  0
 11 12  1  0  0  0
 11 94  1  0  0  0
 12 13  2  0  0  0
 12 95  1  0  0  0
 13 14  1  0  0  0
 13 31  1  0  0  0
 14 15  2  0  0  0
 14 96  1  0  0  0
 15 97  1  0  0  0
 16 17  2  0  0  0
 16 21  1  0  0  0
 16 31  1  0  0  0
 17 18  1  0  0  0
 17 98  1  0  0  0
 18 19  2  0  0  0
 18 99  1  0  0  0
 19 20  1  0  0  0
 19 24  1  0  0  0
 20 21  2  0  0  0
 20100  1  0  0  0
 21 23  1  0  0  0
 22 28  1  0  0  0
 22 32  2  0  0  0
 26 27  1  0  0  0
 28101  1  0  0  0
 28102  1  0  0  0
 29103  1  0  0  0
 29104  1  0  0  0
 33 34  1  0  0  0
 33 66  1  0  0  0
 33 70  2  0  0  0
 34 36  1  0  0  0
 34 59  1  0  0  0
 34105  1  0  0  0
 35 44  2  0  0  0
 35 45  1  0  0  0
 35 68  1  0  0  0
 36 56  1  0  0  0
 36106  1  0  0  0
 37 39  1  0  0  0
 37 47  1  0  0  0
 37 66  1  0  0  0
 37107  1  0  0  0
 38 43  2  0  0  0
 38 46  1  0  0  0
 38 47  1  0  0  0
 39 64  1  0  0  0
 39 67  2  0  0  0
 40 52  1  0  0  0
 40 53  2  0  0  0
 40 58  1  0  0  0
 41108  1  0  0  0
 41109  1  0  0  0
 41110  1  0  0  0
 41 48  1  0  0  0
 42 43  1  0  0  0
 42 66  1  0  0  0
 42111  1  0  0  0
 42112  1  0  0  0
 43 44  1  0  0  0
 44113  1  0  0  0
 45 46  2  0  0  0
 45114  1  0  0  0
 46115  1  0  0  0
 47116  1  0  0  0
 47117  1  0  0  0
 48 56  1  0  0  0
 48 65  1  0  0  0
 48118  1  0  0  0
 49 50  1  0  0  0
 49 53  1  0  0  0
 49 64  1  0  0  0
 49119  1  0  0  0
 50 51  1  0  0  0
 50120  1  0  0  0
 50121  1  0  0  0
 51 52  1  0  0  0
 51122  1  0  0  0
 51123  1  0  0  0
 52124  1  0  0  0
 52125  1  0  0  0
 53 54  1  0  0  0
 54 55  2  0  0  0
 54126  1  0  0  0
 55 57  1  0  0  0
 55127  1  0  0  0
 56 69  2  0  0  0
 57 58  2  0  0  0
 57128  1  0  0  0
 58129  1  0  0  0
 59 60  1  0  0  0
 59 61  1  0  0  0
 59 62  1  0  0  0
 60130  1  0  0  0
 60131  1  0  0  0
 60132  1  0  0  0
 61133  1  0  0  0
 61134  1  0  0  0
 61135  1  0  0  0
 62136  1  0  0  0
 62137  1  0  0  0
 62138  1  0  0  0
 63 65  1  0  0  0
 63139  1  0  0  0
 63140  1  0  0  0
 63141  1  0  0  0
 64142  1  0  0  0
 65143  1  0  0  0
 68 81  1  0  0  0
 71 73  2  0  0  0
 71 75  1  0  0  0
 71144  1  0  0  0
 72 74  2  0  0  0
 72 82  1  0  0  0
 72145  1  0  0  0
 73 74  1  0  0  0
 73 80  1  0  0  0
 74 81  1  0  0  0
 75 82  2  0  0  0
 75 84  1  0  0  0
 76 77  1  0  0  0
 76 79  1  0  0  0
 76146  1  0  0  0
 76147  1  0  0  0
 77 83  1  0  0  0
 77148  1  0  0  0
 77149  1  0  0  0
 78 79  1  0  0  0
 78 83  1  0  0  0
 78150  1  0  0  0
 78151  1  0  0  0
 79 84  1  0  0  0
 79152  1  0  0  0
 80153  1  0  0  0
 80154  1  0  0  0
 80155  1  0  0  0
 81156  1  0  0  0
 81157  1  0  0  0
 84158  1  0  0  0
M  ISO  4   1 100  68 101  81 101  83 100
M  END
> <chiral flag>
0

> <version>
0

> <s_m_source_file>
/data/baiqing/PycharmProjects/Reinvent-master-3.2/result/LINK_invent/BTK/process_docking_weight1_custom_sum_contain_oxygen_bond_distance_aromatic_linkinvent_7_9_3/rearranged_h_0170.sdf

> <i_m_source_file_index>
39

> <r_mmod_Potential_Energy-OPLS-2005>
102.35245513916

> <r_mmod_Stretch_Energy-OPLS-2005>
89.396484375

> <r_mmod_Bend_Energy-OPLS-2005>
218.793182373047

> <r_mmod_Torsional_Energy-OPLS-2005>
299.673400878906

> <r_mmod_Improper_Torsional_Energy-OPLS-2005>
5.50185632705688

> <r_mmod_Van_der_Waal_Energy-OPLS-2005>
146.876449584961

> <r_mmod_Electrostatic_Energy-OPLS-2005>
-497.650421142578

> <r_mmod_Solvation_Energy-OPLS-2005>
-230.908264160156

> <b_mmod_Minimization_Converged-OPLS-2005>
0

> <r_mmod_RMS_Derivative-OPLS-2005>
0.252457916736603

$$$$
39
                    3D
 Structure written by MMmdl.
159169  0  0  1  0            999 V2000
  -30.4315  -15.3427   20.5030 C   0  0  0  0  0  0
  -30.4406  -12.8836   19.5901 C   0  0  0  0  0  0
  -29.5593  -12.6275   18.3349 C   0  0  0  0  0  0
  -28.1215  -12.2938   18.7628 C   0  0  0  0  0  0
  -27.6198  -13.2780   19.8483 C   0  0  2  0  0  0
  -28.6253  -13.4782   21.0078 C   0  0  0  0  0  0
  -25.2419  -13.8259   20.5777 C   0  0  0  0  0  0
  -24.1756  -13.0433   20.9187 C   0  0  0  0  0  0
  -24.6410  -11.6937   20.8725 C   0  0  0  0  0  0
  -23.9143  -10.4280   21.0400 C   0  0  0  0  0  0
  -24.3673   -9.4194   21.9187 C   0  0  0  0  0  0
  -23.6313   -8.2253   22.0760 C   0  0  0  0  0  0
  -22.4301   -8.0297   21.3543 C   0  0  0  0  0  0
  -21.9942   -9.0292   20.4662 C   0  0  0  0  0  0
  -22.7312  -10.2148   20.3059 C   0  0  0  0  0  0
  -21.6867   -6.0773   22.5293 C   0  0  0  0  0  0
  -21.4033   -6.5664   23.8236 C   0  0  0  0  0  0
  -21.3643   -5.6785   24.9181 C   0  0  0  0  0  0
  -21.6019   -4.3052   24.7210 C   0  0  0  0  0  0
  -21.8815   -3.8168   23.4333 C   0  0  0  0  0  0
  -21.9190   -4.6999   22.3404 C   0  0  0  0  0  0
  -22.7781  -13.5216   21.1812 C   0  0  0  0  0  0
  -22.1639   -4.2184   21.0975 F   0  0  0  0  0  0
  -21.5598   -3.4547   25.7733 F   0  0  0  0  0  0
  -29.8687  -14.0216   20.4254 N   0  0  0  0  0  0
  -26.2851  -12.9524   20.3279 N   0  0  0  0  0  0
  -25.9367  -11.6633   20.5707 N   0  0  0  0  0  0
  -22.0393  -12.8262   22.0380 N   0  0  0  0  0  0
  -25.4075  -15.2017   20.4265 N   0  0  0  0  0  0
  -31.6044  -15.3579   20.0999 O   0  0  0  0  0  0
  -21.6631   -6.8934   21.4267 O   0  0  0  0  0  0
  -22.3511  -14.5524   20.6640 O   0  0  0  0  0  0
  -24.6698  -31.8193   23.1667 C   0  0  0  0  0  0
  -25.9353  -32.4572   23.8174 C   0  0  1  0  0  0
  -27.2124  -26.8810   20.2370 C   0  0  0  0  0  0
  -25.5996  -33.8394   24.2068 N   0  0  0  0  0  0
  -23.4865  -30.4339   21.5128 C   0  0  2  0  0  0
  -24.9442  -28.8190   20.1115 C   0  0  0  0  0  0
  -22.7708  -29.4429   22.4722 C   0  0  0  0  0  0
  -18.0331  -28.1422   22.8458 C   0  0  0  0  0  0
  -24.1506  -36.7221   23.2665 C   0  0  0  0  0  0
  -26.0566  -30.6204   21.4021 C   0  0  0  0  0  0
  -26.1265  -29.2058   20.7558 C   0  0  0  0  0  0
  -27.2527  -28.2610   20.7900 C   0  0  0  0  0  0
  -25.9857  -26.6540   19.5620 C   0  0  0  0  0  0
  -24.9051  -27.5677   19.4859 C   0  0  0  0  0  0
  -23.7339  -29.7523   20.1373 C   0  0  0  0  0  0
  -25.4145  -36.2954   24.0297 C   0  0  1  0  0  0
  -20.5957  -28.3781   23.1157 C   0  0  2  0  0  0
  -20.6797  -26.9457   22.5386 C   0  0  0  0  0  0
  -19.5783  -26.6399   21.5186 C   0  0  0  0  0  0
  -18.1967  -26.7950   22.1612 C   0  0  0  0  0  0
  -19.1587  -28.8925   23.2803 C   0  0  0  0  0  0
  -18.9507  -30.1497   23.8876 C   0  0  0  0  0  0
  -17.6494  -30.6612   24.0536 C   0  0  0  0  0  0
  -25.9102  -34.9330   23.4986 C   0  0  0  0  0  0
  -16.5389  -29.9087   23.6327 C   0  0  0  0  0  0
  -16.7301  -28.6495   23.0366 C   0  0  0  0  0  0
  -26.4581  -31.6543   25.0720 C   0  0  0  0  0  0
  -25.3674  -31.3817   26.1352 C   0  0  0  0  0  0
  -27.0464  -30.2903   24.6460 C   0  0  0  0  0  0
  -27.6054  -32.4367   25.7547 C   0  0  0  0  0  0
  -27.5565  -37.1795   24.8488 C   0  0  0  0  0  0
  -21.4361  -29.3053   22.3485 N   0  0  0  0  0  0
  -26.4297  -37.3670   23.9389 N   0  0  0  0  0  0
  -24.7586  -30.9857   22.0810 N   0  0  0  0  0  0
  -23.4215  -28.7968   23.2954 O   0  0  0  0  0  0
  -28.1916  -25.7394   20.3707 O   0  0  0  0  0  0
  -26.5684  -34.8837   22.4562 O   0  0  0  0  0  0
  -23.5752  -32.1217   23.6697 O   0  0  0  0  0  0
  -29.8341  -21.9380   19.5736 C   0  0  0  0  0  0
  -30.1733  -20.5846   19.5487 C   0  0  0  0  0  0
  -28.7147  -22.5532   20.3635 C   0  0  0  0  0  0
  -29.5985  -19.5012   20.3233 C   0  0  0  0  0  0
  -29.6019  -18.3551   24.3140 C   0  0  0  0  0  0
  -30.6010  -18.7962   23.2879 C   0  0  0  0  0  0
  -28.2189  -19.3363   22.3273 C   0  0  0  0  0  0
  -29.1183  -16.8599   22.1766 C   0  0  0  0  0  0
  -29.2393  -18.2809   22.8294 C   0  0  0  0  0  0
  -28.0086  -24.1931   18.4470 C   0  0  0  0  0  0
  -27.9450  -24.1330   19.9860 C   0  0  2  0  0  0
  -28.2125  -21.6344   21.2182 N   0  0  0  0  0  0
  -28.7004  -20.1442   21.1895 N   0  0  0  0  0  0
  -29.7147  -16.6319   20.8319 N   0  0  0  0  0  0
  -30.0409  -18.0770   20.1678 N   0  3  0  0  0  0
  -31.4602  -13.0897   19.2656 H   0  0  0  0  0  0
  -30.5213  -11.9803   20.1965 H   0  0  0  0  0  0
  -29.9797  -11.8229   17.7290 H   0  0  0  0  0  0
  -29.5666  -13.5152   17.7027 H   0  0  0  0  0  0
  -28.1265  -11.2794   19.1672 H   0  0  0  0  0  0
  -27.4570  -12.2781   17.8984 H   0  0  0  0  0  0
  -27.5377  -14.2386   19.3384 H   0  0  0  0  0  0
  -28.8014  -12.5536   21.5569 H   0  0  0  0  0  0
  -28.2207  -14.1932   21.7258 H   0  0  0  0  0  0
  -25.2808   -9.5643   22.4791 H   0  0  0  0  0  0
  -23.9975   -7.4654   22.7515 H   0  0  0  0  0  0
  -21.0840   -8.8898   19.9004 H   0  0  0  0  0  0
  -22.3803  -10.9719   19.6178 H   0  0  0  0  0  0
  -21.2072   -7.6180   23.9758 H   0  0  0  0  0  0
  -21.1428   -6.0507   25.9080 H   0  0  0  0  0  0
  -22.0607   -2.7633   23.2827 H   0  0  0  0  0  0
  -22.3956  -11.9967   22.4880 H   0  0  0  0  0  0
  -21.1041  -13.1364   22.2536 H   0  0  0  0  0  0
  -24.6324  -15.8471   20.5356 H   0  0  0  0  0  0
  -26.2515  -15.6536   20.0967 H   0  0  0  0  0  0
  -26.7420  -32.5070   23.0884 H   0  0  0  0  0  0
  -25.0074  -33.9460   25.0179 H   0  0  0  0  0  0
  -22.8047  -31.2685   21.3361 H   0  0  0  0  0  0
  -23.3717  -35.9604   23.3343 H   0  0  0  0  0  0
  -24.3603  -36.8832   22.2078 H   0  0  0  0  0  0
  -23.7300  -37.6441   23.6702 H   0  0  0  0  0  0
  -26.2292  -31.3506   20.6125 H   0  0  0  0  0  0
  -26.9189  -30.6933   22.0515 H   0  0  0  0  0  0
  -28.1341  -28.5497   21.3440 H   0  0  0  0  0  0
  -25.7847  -25.6815   19.1457 H   0  0  0  0  0  0
  -24.0043  -27.2606   18.9711 H   0  0  0  0  0  0
  -23.8922  -30.5200   19.3755 H   0  0  0  0  0  0
  -22.8438  -29.2062   19.8197 H   0  0  0  0  0  0
  -25.1338  -36.1759   25.0783 H   0  0  0  0  0  0
  -21.0049  -28.3374   24.1280 H   0  0  0  0  0  0
  -20.5681  -26.2405   23.3626 H   0  0  0  0  0  0
  -21.6662  -26.7426   22.1206 H   0  0  0  0  0  0
  -19.6945  -25.6286   21.1289 H   0  0  0  0  0  0
  -19.6705  -27.3139   20.6648 H   0  0  0  0  0  0
  -17.4219  -26.6671   21.4024 H   0  0  0  0  0  0
  -18.0367  -26.0122   22.9043 H   0  0  0  0  0  0
  -19.7979  -30.7284   24.2306 H   0  0  0  0  0  0
  -17.5042  -31.6296   24.5114 H   0  0  0  0  0  0
  -15.5386  -30.2958   23.7698 H   0  0  0  0  0  0
  -15.8701  -28.0774   22.7136 H   0  0  0  0  0  0
  -24.5847  -30.7190   25.7656 H   0  0  0  0  0  0
  -24.8887  -32.3017   26.4707 H   0  0  0  0  0  0
  -25.7867  -30.9029   27.0200 H   0  0  0  0  0  0
  -26.3114  -29.6579   24.1466 H   0  0  0  0  0  0
  -27.3980  -29.7286   25.5129 H   0  0  0  0  0  0
  -27.9061  -30.4090   23.9860 H   0  0  0  0  0  0
  -27.2619  -33.3712   26.1999 H   0  0  0  0  0  0
  -28.3942  -32.6870   25.0441 H   0  0  0  0  0  0
  -28.0628  -31.8586   26.5587 H   0  0  0  0  0  0
  -28.2623  -38.0055   24.7380 H   0  0  0  0  0  0
  -28.1003  -36.2549   24.6467 H   0  0  0  0  0  0
  -27.2265  -37.1608   25.8898 H   0  0  0  0  0  0
  -20.9631  -29.8825   21.6671 H   0  0  0  0  0  0
  -26.0141  -38.2755   24.1265 H   0  0  0  0  0  0
  -30.4146  -22.6197   18.9698 H   0  0  0  0  0  0
  -31.0028  -20.2844   18.9200 H   0  0  0  0  0  0
  -29.1498  -19.1366   24.9235 H   0  0  0  0  0  0
  -29.8713  -17.4549   24.8627 H   0  0  0  0  0  0
  -31.4754  -18.1623   23.1451 H   0  0  0  0  0  0
  -30.7916  -19.8656   23.1931 H   0  0  0  0  0  0
  -28.0117  -20.0279   23.1469 H   0  0  0  0  0  0
  -27.2697  -18.8681   22.0703 H   0  0  0  0  0  0
  -28.0642  -16.5738   22.1605 H   0  0  0  0  0  0
  -29.5869  -16.1615   22.8705 H   0  0  0  0  0  0
  -27.2616  -24.8398   18.0036 H   0  0  0  0  0  0
  -27.8622  -23.2132   17.9931 H   0  0  0  0  0  0
  -28.9776  -24.5655   18.1240 H   0  0  0  0  0  0
  -26.9053  -23.9735   20.2804 H   0  0  0  0  0  0
  -30.7256  -17.9727   19.4302 H   0  0  0  0  0  0
  1 25  1  0  0  0
  1 30  2  0  0  0
  1 84  1  0  0  0
  2  3  1  0  0  0
  2 25  1  0  0  0
  2 86  1  0  0  0
  2 87  1  0  0  0
  3  4  1  0  0  0
  3 88  1  0  0  0
  3 89  1  0  0  0
  4  5  1  0  0  0
  4 90  1  0  0  0
  4 91  1  0  0  0
  5  6  1  0  0  0
  5 26  1  0  0  0
  5 92  1  0  0  0
  6 25  1  0  0  0
  6 93  1  0  0  0
  6 94  1  0  0  0
  7  8  2  0  0  0
  7 26  1  0  0  0
  7 29  1  0  0  0
  8  9  1  0  0  0
  8 22  1  0  0  0
  9 10  1  0  0  0
  9 27  2  0  0  0
 10 11  2  0  0  0
 10 15  1  0  0  0
 11 12  1  0  0  0
 11 95  1  0  0  0
 12 13  2  0  0  0
 12 96  1  0  0  0
 13 14  1  0  0  0
 13 31  1  0  0  0
 14 15  2  0  0  0
 14 97  1  0  0  0
 15 98  1  0  0  0
 16 17  2  0  0  0
 16 21  1  0  0  0
 16 31  1  0  0  0
 17 18  1  0  0  0
 17 99  1  0  0  0
 18 19  2  0  0  0
 18100  1  0  0  0
 19 20  1  0  0  0
 19 24  1  0  0  0
 20 21  2  0  0  0
 20101  1  0  0  0
 21 23  1  0  0  0
 22 28  1  0  0  0
 22 32  2  0  0  0
 26 27  1  0  0  0
 28102  1  0  0  0
 28103  1  0  0  0
 29104  1  0  0  0
 29105  1  0  0  0
 33 34  1  0  0  0
 33 66  1  0  0  0
 33 70  2  0  0  0
 34 36  1  0  0  0
 34 59  1  0  0  0
 34106  1  0  0  0
 35 44  2  0  0  0
 35 45  1  0  0  0
 35 68  1  0  0  0
 36 56  1  0  0  0
 36107  1  0  0  0
 37 39  1  0  0  0
 37 47  1  0  0  0
 37 66  1  0  0  0
 37108  1  0  0  0
 38 43  2  0  0  0
 38 46  1  0  0  0
 38 47  1  0  0  0
 39 64  1  0  0  0
 39 67  2  0  0  0
 40 52  1  0  0  0
 40 53  2  0  0  0
 40 58  1  0  0  0
 41109  1  0  0  0
 41110  1  0  0  0
 41111  1  0  0  0
 41 48  1  0  0  0
 42 43  1  0  0  0
 42 66  1  0  0  0
 42112  1  0  0  0
 42113  1  0  0  0
 43 44  1  0  0  0
 44114  1  0  0  0
 45 46  2  0  0  0
 45115  1  0  0  0
 46116  1  0  0  0
 47117  1  0  0  0
 47118  1  0  0  0
 48 56  1  0  0  0
 48 65  1  0  0  0
 48119  1  0  0  0
 49 50  1  0  0  0
 49 53  1  0  0  0
 49 64  1  0  0  0
 49120  1  0  0  0
 50 51  1  0  0  0
 50121  1  0  0  0
 50122  1  0  0  0
 51 52  1  0  0  0
 51123  1  0  0  0
 51124  1  0  0  0
 52125  1  0  0  0
 52126  1  0  0  0
 53 54  1  0  0  0
 54 55  2  0  0  0
 54127  1  0  0  0
 55 57  1  0  0  0
 55128  1  0  0  0
 56 69  2  0  0  0
 57 58  2  0  0  0
 57129  1  0  0  0
 58130  1  0  0  0
 59 60  1  0  0  0
 59 61  1  0  0  0
 59 62  1  0  0  0
 60131  1  0  0  0
 60132  1  0  0  0
 60133  1  0  0  0
 61134  1  0  0  0
 61135  1  0  0  0
 61136  1  0  0  0
 62137  1  0  0  0
 62138  1  0  0  0
 62139  1  0  0  0
 63 65  1  0  0  0
 63140  1  0  0  0
 63141  1  0  0  0
 63142  1  0  0  0
 64143  1  0  0  0
 65144  1  0  0  0
 68 81  1  0  0  0
 71 72  2  0  0  0
 71 73  1  0  0  0
 71145  1  0  0  0
 72 74  1  0  0  0
 72146  1  0  0  0
 73 81  1  0  0  0
 73 82  2  0  0  0
 74 83  1  0  0  0
 74 85  2  0  0  0
 75 76  1  0  0  0
 75147  1  0  0  0
 75148  1  0  0  0
 75 79  1  0  0  0
 76 79  1  0  0  0
 76149  1  0  0  0
 76150  1  0  0  0
 77 79  1  0  0  0
 77 83  1  0  0  0
 77151  1  0  0  0
 77152  1  0  0  0
 78 79  1  0  0  0
 78 84  1  0  0  0
 78153  1  0  0  0
 78154  1  0  0  0
 80155  1  0  0  0
 80156  1  0  0  0
 80157  1  0  0  0
 80 81  1  0  0  0
 81158  1  0  0  0
 82 83  1  0  0  0
 84 85  1  0  0  0
 85159  1  0  0  0
M  CHG  1  85   1
M  ISO  4   1 100  68 101  81 101  84 100
M  END
> <chiral flag>
0

> <version>
0

> <s_m_source_file>
/data/baiqing/PycharmProjects/Reinvent-master-3.2/result/LINK_invent/BTK/process_docking_weight1_custom_sum_contain_oxygen_bond_distance_aromatic_linkinvent_7_9_3/rearranged_h_0170.sdf

> <i_m_source_file_index>
40

> <r_mmod_Potential_Energy-OPLS-2005>
1562.31298828125

> <r_mmod_Stretch_Energy-OPLS-2005>
619.982360839844

> <r_mmod_Bend_Energy-OPLS-2005>
513.8515625

> <r_mmod_Torsional_Energy-OPLS-2005>
369.258880615234

> <r_mmod_Improper_Torsional_Energy-OPLS-2005>
11.2639894485474

> <r_mmod_Van_der_Waal_Energy-OPLS-2005>
131.86116027832

> <r_mmod_Electrostatic_Energy-OPLS-2005>
-224.236740112305

> <r_mmod_Solvation_Energy-OPLS-2005>
-406.170593261719

> <b_mmod_Minimization_Converged-OPLS-2005>
0

> <r_mmod_RMS_Derivative-OPLS-2005>
7.20447158813477

$$$$
40
                    3D
 Structure written by MMmdl.
175185  0  0  1  0            999 V2000
  -30.7421  -14.3357   20.7417 C   0  0  0  0  0  0
  -30.4260  -12.2943   19.3872 C   0  0  0  0  0  0
  -29.4911  -12.5639   18.1948 C   0  0  0  0  0  0
  -28.0126  -12.4100   18.6014 C   0  0  0  0  0  0
  -27.6687  -13.1990   19.8904 C   0  0  2  0  0  0
  -28.6979  -12.8883   20.9956 C   0  0  0  0  0  0
  -25.2584  -13.8168   20.5652 C   0  0  0  0  0  0
  -24.1835  -13.0447   20.9147 C   0  0  0  0  0  0
  -24.6380  -11.6904   20.8712 C   0  0  0  0  0  0
  -23.9067  -10.4286   21.0414 C   0  0  0  0  0  0
  -24.3611   -9.4200   21.9202 C   0  0  0  0  0  0
  -23.6271   -8.2245   22.0772 C   0  0  0  0  0  0
  -22.4266   -8.0286   21.3542 C   0  0  0  0  0  0
  -21.9904   -9.0272   20.4655 C   0  0  0  0  0  0
  -22.7246  -10.2137   20.3062 C   0  0  0  0  0  0
  -21.6837   -6.0735   22.5269 C   0  0  0  0  0  0
  -21.4014   -6.5643   23.8211 C   0  0  0  0  0  0
  -21.3668   -5.6790   24.9176 C   0  0  0  0  0  0
  -21.6036   -4.3051   24.7226 C   0  0  0  0  0  0
  -21.8821   -3.8154   23.4342 C   0  0  0  0  0  0
  -21.9184   -4.6964   22.3384 C   0  0  0  0  0  0
  -22.7855  -13.5227   21.1842 C   0  0  0  0  0  0
  -22.1657   -4.2153   21.0958 F   0  0  0  0  0  0
  -21.5636   -3.4541   25.7745 F   0  0  0  0  0  0
  -30.0465  -13.2008   20.4775 N   0  0  0  0  0  0
  -26.3030  -12.9322   20.3367 N   0  0  0  0  0  0
  -25.9287  -11.6491   20.5692 N   0  0  0  0  0  0
  -22.0499  -12.8227   22.0403 N   0  0  0  0  0  0
  -25.4306  -15.1897   20.4063 N   0  0  0  0  0  0
  -31.7559  -14.6812   20.1246 O   0  0  0  0  0  0
  -21.6614   -6.8889   21.4243 O   0  0  0  0  0  0
  -22.3536  -14.5531   20.6684 O   0  0  0  0  0  0
  -24.6091  -31.8701   23.2102 C   0  0  0  0  0  0
  -25.9007  -32.4820   23.8391 C   0  0  1  0  0  0
  -27.2289  -27.4738   20.1005 C   0  0  0  0  0  0
  -25.5886  -33.8620   24.2325 N   0  0  0  0  0  0
  -23.3939  -30.4953   21.5462 C   0  0  2  0  0  0
  -24.8421  -28.9700   20.1047 C   0  0  0  0  0  0
  -22.7361  -29.4681   22.4963 C   0  0  0  0  0  0
  -18.0268  -28.1360   22.8481 C   0  0  0  0  0  0
  -24.1499  -36.7283   23.2634 C   0  0  0  0  0  0
  -25.9202  -30.8484   21.3600 C   0  0  0  0  0  0
  -25.9972  -29.4875   20.7065 C   0  0  0  0  0  0
  -27.1943  -28.7460   20.7025 C   0  0  0  0  0  0
  -26.0714  -26.9665   19.4774 C   0  0  0  0  0  0
  -24.8741  -27.7047   19.4868 C   0  0  0  0  0  0
  -23.5984  -29.8264   20.1597 C   0  0  0  0  0  0
  -25.4099  -36.3059   24.0340 C   0  0  1  0  0  0
  -20.5847  -28.3647   23.1274 C   0  0  2  0  0  0
  -20.6729  -26.9386   22.5358 C   0  0  0  0  0  0
  -19.5720  -26.6365   21.5149 C   0  0  0  0  0  0
  -18.1910  -26.7919   22.1572 C   0  0  0  0  0  0
  -19.1506  -28.8835   23.2873 C   0  0  0  0  0  0
  -18.9440  -30.1441   23.8881 C   0  0  0  0  0  0
  -17.6445  -30.6563   24.0563 C   0  0  0  0  0  0
  -25.9035  -34.9453   23.5119 C   0  0  0  0  0  0
  -16.5347  -29.9046   23.6353 C   0  0  0  0  0  0
  -16.7266  -28.6461   23.0376 C   0  0  0  0  0  0
  -26.4441  -31.6598   25.0724 C   0  0  0  0  0  0
  -25.3751  -31.3716   26.1506 C   0  0  0  0  0  0
  -27.0264  -30.3052   24.6067 C   0  0  0  0  0  0
  -27.5936  -32.4362   25.7542 C   0  0  0  0  0  0
  -27.5596  -37.1758   24.8454 C   0  0  0  0  0  0
  -21.4102  -29.3033   22.3694 N   0  0  0  0  0  0
  -26.4275  -37.3757   23.9452 N   0  0  0  0  0  0
  -24.6583  -31.0857   22.0959 N   0  0  0  0  0  0
  -23.4169  -28.8230   23.2973 O   0  0  0  0  0  0
  -28.3536  -26.6944   20.1441 O   0  0  0  0  0  0
  -26.5569  -34.8907   22.4665 O   0  0  0  0  0  0
  -23.5298  -32.1410   23.7545 O   0  0  0  0  0  0
  -27.3750  -20.6712   23.1061 C   0  0  0  0  0  0
  -27.1559  -21.8943   22.4446 C   0  0  0  0  0  0
  -28.6122  -20.4212   23.7247 C   0  0  0  0  0  0
  -28.2239  -22.8324   22.3718 C   0  0  0  0  0  0
  -29.5544  -21.4717   23.7482 C   0  0  0  0  0  0
  -30.6768  -17.4800   21.2883 C   0  0  0  0  0  0
  -29.5265  -24.9660   21.4271 C   0  0  0  0  0  0
  -27.6330  -25.3729   22.1783 C   0  0  0  0  0  0
  -29.8907  -18.5972   21.9756 C   0  0  0  0  0  0
  -29.8048  -16.8023   23.4670 C   0  0  0  0  0  0
  -30.6962  -16.3219   22.3010 C   0  0  1  0  0  0
  -28.6881  -26.2458   21.4648 C   0  0  2  0  0  0
  -28.2189  -24.1166   21.5001 C   0  0  2  0  0  0
  -25.7784  -22.1158   21.8342 C   0  0  0  0  0  0
  -30.8805  -21.3760   24.4837 C   0  0  0  0  0  0
  -27.6607  -23.7770   20.1041 C   0  0  0  0  0  0
  -28.9067  -19.0167   24.2629 C   0  0  0  0  0  0
  -29.3650  -22.6230   23.0689 N   0  0  0  0  0  0
  -30.2378  -15.0423   21.7640 N   0  0  0  0  0  0
  -29.8915  -18.2756   23.4204 N   0  3  2  0  0  0
  -31.4689  -12.4187   19.0866 H   0  0  0  0  0  0
  -30.3348  -11.2570   19.7151 H   0  0  0  0  0  0
  -29.7287  -11.8980   17.3652 H   0  0  0  0  0  0
  -29.6649  -13.5775   17.8284 H   0  0  0  0  0  0
  -27.8140  -11.3489   18.7546 H   0  0  0  0  0  0
  -27.3690  -12.7313   17.7825 H   0  0  0  0  0  0
  -27.7404  -14.2601   19.6521 H   0  0  0  0  0  0
  -28.6557  -11.8285   21.2545 H   0  0  0  0  0  0
  -28.4281  -13.4061   21.9161 H   0  0  0  0  0  0
  -25.2761   -9.5656   22.4778 H   0  0  0  0  0  0
  -23.9979   -7.4635   22.7494 H   0  0  0  0  0  0
  -21.0845   -8.8802   19.8948 H   0  0  0  0  0  0
  -22.3742  -10.9682   19.6159 H   0  0  0  0  0  0
  -21.2015   -7.6152   23.9710 H   0  0  0  0  0  0
  -21.1496   -6.0531   25.9078 H   0  0  0  0  0  0
  -22.0592   -2.7616   23.2841 H   0  0  0  0  0  0
  -22.4089  -11.9840   22.4725 H   0  0  0  0  0  0
  -21.1118  -13.1267   22.2622 H   0  0  0  0  0  0
  -24.6647  -15.8485   20.5019 H   0  0  0  0  0  0
  -26.2816  -15.6192   20.0678 H   0  0  0  0  0  0
  -26.7099  -32.5571   23.1176 H   0  0  0  0  0  0
  -25.0149  -33.9798   25.0549 H   0  0  0  0  0  0
  -22.6782  -31.3086   21.4062 H   0  0  0  0  0  0
  -23.3768  -35.9601   23.3205 H   0  0  0  0  0  0
  -24.3618  -36.9001   22.2066 H   0  0  0  0  0  0
  -23.7265  -37.6459   23.6736 H   0  0  0  0  0  0
  -26.0389  -31.6209   20.5994 H   0  0  0  0  0  0
  -26.8046  -30.8896   21.9828 H   0  0  0  0  0  0
  -28.0863  -29.1468   21.1625 H   0  0  0  0  0  0
  -26.0918  -25.9918   19.0108 H   0  0  0  0  0  0
  -23.9858  -27.2985   19.0229 H   0  0  0  0  0  0
  -23.6920  -30.6018   19.3967 H   0  0  0  0  0  0
  -22.7263  -29.2347   19.8745 H   0  0  0  0  0  0
  -25.1261  -36.1881   25.0829 H   0  0  0  0  0  0
  -20.9941  -28.3215   24.1382 H   0  0  0  0  0  0
  -20.5554  -26.2275   23.3541 H   0  0  0  0  0  0
  -21.6621  -26.7341   22.1222 H   0  0  0  0  0  0
  -19.6872  -25.6254   21.1216 H   0  0  0  0  0  0
  -19.6662  -27.3133   20.6653 H   0  0  0  0  0  0
  -17.4138  -26.6666   21.4010 H   0  0  0  0  0  0
  -18.0311  -26.0056   22.8974 H   0  0  0  0  0  0
  -19.7917  -30.7293   24.2205 H   0  0  0  0  0  0
  -17.4999  -31.6260   24.5113 H   0  0  0  0  0  0
  -15.5354  -30.2964   23.7664 H   0  0  0  0  0  0
  -15.8663  -28.0796   22.7109 H   0  0  0  0  0  0
  -24.5856  -30.7122   25.7903 H   0  0  0  0  0  0
  -24.9030  -32.2901   26.5017 H   0  0  0  0  0  0
  -25.8149  -30.8869   27.0232 H   0  0  0  0  0  0
  -26.2804  -29.6886   24.1053 H   0  0  0  0  0  0
  -27.3984  -29.7217   25.4496 H   0  0  0  0  0  0
  -27.8669  -30.4376   23.9240 H   0  0  0  0  0  0
  -27.2407  -33.3608   26.2127 H   0  0  0  0  0  0
  -28.3758  -32.7031   25.0430 H   0  0  0  0  0  0
  -28.0592  -31.8535   26.5502 H   0  0  0  0  0  0
  -28.2461  -38.0180   24.7590 H   0  0  0  0  0  0
  -28.1212  -36.2702   24.6120 H   0  0  0  0  0  0
  -27.2332  -37.1231   25.8849 H   0  0  0  0  0  0
  -20.9224  -29.8828   21.7007 H   0  0  0  0  0  0
  -26.0133  -38.2820   24.1494 H   0  0  0  0  0  0
  -26.6074  -19.9097   23.1040 H   0  0  0  0  0  0
  -31.6982  -17.8096   21.0869 H   0  0  0  0  0  0
  -30.2243  -17.2186   20.3317 H   0  0  0  0  0  0
  -30.1556  -24.9087   22.3186 H   0  0  0  0  0  0
  -30.1281  -24.8301   20.5282 H   0  0  0  0  0  0
  -26.5866  -25.5809   21.9623 H   0  0  0  0  0  0
  -27.7967  -25.3648   23.2581 H   0  0  0  0  0  0
  -28.8642  -18.5913   21.6035 H   0  0  0  0  0  0
  -30.3151  -19.5806   21.7658 H   0  0  0  0  0  0
  -30.1269  -16.4099   24.4323 H   0  0  0  0  0  0
  -28.7683  -16.4963   23.3105 H   0  0  0  0  0  0
  -31.7174  -16.1968   22.6663 H   0  0  0  0  0  0
  -29.1177  -27.0278   22.0910 H   0  0  0  0  0  0
  -25.7659  -21.8391   20.7788 H   0  0  0  0  0  0
  -25.4526  -23.1487   21.9482 H   0  0  0  0  0  0
  -25.0290  -21.4982   22.3332 H   0  0  0  0  0  0
  -31.2674  -20.3610   24.5346 H   0  0  0  0  0  0
  -30.7682  -21.7366   25.5063 H   0  0  0  0  0  0
  -31.6364  -21.9867   23.9872 H   0  0  0  0  0  0
  -27.9370  -22.7725   19.7858 H   0  0  0  0  0  0
  -28.0309  -24.4427   19.3268 H   0  0  0  0  0  0
  -26.5776  -23.8714   20.0698 H   0  0  0  0  0  0
  -27.9675  -18.4625   24.3030 H   0  0  0  0  0  0
  -29.2603  -19.0701   25.2941 H   0  0  0  0  0  0
  -29.4274  -14.6258   22.1997 H   0  0  0  0  0  0
  -30.8077  -18.5110   23.7694 H   0  0  0  0  0  0
  1 25  1  0  0  0
  1 30  2  0  0  0
  1 89  1  0  0  0
  2  3  1  0  0  0
  2 25  1  0  0  0
  2 91  1  0  0  0
  2 92  1  0  0  0
  3  4  1  0  0  0
  3 93  1  0  0  0
  3 94  1  0  0  0
  4  5  1  0  0  0
  4 95  1  0  0  0
  4 96  1  0  0  0
  5  6  1  0  0  0
  5 26  1  0  0  0
  5 97  1  0  0  0
  6 25  1  0  0  0
  6 98  1  0  0  0
  6 99  1  0  0  0
  7  8  2  0  0  0
  7 26  1  0  0  0
  7 29  1  0  0  0
  8  9  1  0  0  0
  8 22  1  0  0  0
  9 10  1  0  0  0
  9 27  2  0  0  0
 10 11  2  0  0  0
 10 15  1  0  0  0
 11 12  1  0  0  0
 11100  1  0  0  0
 12 13  2  0  0  0
 12101  1  0  0  0
 13 14  1  0  0  0
 13 31  1  0  0  0
 14 15  2  0  0  0
 14102  1  0  0  0
 15103  1  0  0  0
 16 17  2  0  0  0
 16 21  1  0  0  0
 16 31  1  0  0  0
 17 18  1  0  0  0
 17104  1  0  0  0
 18 19  2  0  0  0
 18105  1  0  0  0
 19 20  1  0  0  0
 19 24  1  0  0  0
 20 21  2  0  0  0
 20106  1  0  0  0
 21 23  1  0  0  0
 22 28  1  0  0  0
 22 32  2  0  0  0
 26 27  1  0  0  0
 28107  1  0  0  0
 28108  1  0  0  0
 29109  1  0  0  0
 29110  1  0  0  0
 33 34  1  0  0  0
 33 66  1  0  0  0
 33 70  2  0  0  0
 34 36  1  0  0  0
 34 59  1  0  0  0
 34111  1  0  0  0
 35 44  2  0  0  0
 35 45  1  0  0  0
 35 68  1  0  0  0
 36 56  1  0  0  0
 36112  1  0  0  0
 37 39  1  0  0  0
 37 47  1  0  0  0
 37 66  1  0  0  0
 37113  1  0  0  0
 38 43  2  0  0  0
 38 46  1  0  0  0
 38 47  1  0  0  0
 39 64  1  0  0  0
 39 67  2  0  0  0
 40 52  1  0  0  0
 40 53  2  0  0  0
 40 58  1  0  0  0
 41114  1  0  0  0
 41115  1  0  0  0
 41116  1  0  0  0
 41 48  1  0  0  0
 42 43  1  0  0  0
 42 66  1  0  0  0
 42117  1  0  0  0
 42118  1  0  0  0
 43 44  1  0  0  0
 44119  1  0  0  0
 45 46  2  0  0  0
 45120  1  0  0  0
 46121  1  0  0  0
 47122  1  0  0  0
 47123  1  0  0  0
 48 56  1  0  0  0
 48 65  1  0  0  0
 48124  1  0  0  0
 49 50  1  0  0  0
 49 53  1  0  0  0
 49 64  1  0  0  0
 49125  1  0  0  0
 50 51  1  0  0  0
 50126  1  0  0  0
 50127  1  0  0  0
 51 52  1  0  0  0
 51128  1  0  0  0
 51129  1  0  0  0
 52130  1  0  0  0
 52131  1  0  0  0
 53 54  1  0  0  0
 54 55  2  0  0  0
 54132  1  0  0  0
 55 57  1  0  0  0
 55133  1  0  0  0
 56 69  2  0  0  0
 57 58  2  0  0  0
 57134  1  0  0  0
 58135  1  0  0  0
 59 60  1  0  0  0
 59 61  1  0  0  0
 59 62  1  0  0  0
 60136  1  0  0  0
 60137  1  0  0  0
 60138  1  0  0  0
 61139  1  0  0  0
 61140  1  0  0  0
 61141  1  0  0  0
 62142  1  0  0  0
 62143  1  0  0  0
 62144  1  0  0  0
 63 65  1  0  0  0
 63145  1  0  0  0
 63146  1  0  0  0
 63147  1  0  0  0
 64148  1  0  0  0
 65149  1  0  0  0
 68 82  1  0  0  0
 71 72  2  0  0  0
 71 73  1  0  0  0
 71150  1  0  0  0
 72 74  1  0  0  0
 72 84  1  0  0  0
 73 75  2  0  0  0
 73 87  1  0  0  0
 74 83  1  0  0  0
 74 88  2  0  0  0
 75 85  1  0  0  0
 75 88  1  0  0  0
 76 79  1  0  0  0
 76 81  1  0  0  0
 76151  1  0  0  0
 76152  1  0  0  0
 77 82  1  0  0  0
 77 83  1  0  0  0
 77153  1  0  0  0
 77154  1  0  0  0
 78 82  1  0  0  0
 78 83  1  0  0  0
 78155  1  0  0  0
 78156  1  0  0  0
 79 90  1  0  0  0
 79157  1  0  0  0
 79158  1  0  0  0
 80 81  1  0  0  0
 80 90  1  0  0  0
 80159  1  0  0  0
 80160  1  0  0  0
 81 89  1  0  0  0
 81161  1  0  0  0
 82162  1  0  0  0
 83 86  1  0  0  0
 84163  1  0  0  0
 84164  1  0  0  0
 84165  1  0  0  0
 85166  1  0  0  0
 85167  1  0  0  0
 85168  1  0  0  0
 86169  1  0  0  0
 86170  1  0  0  0
 86171  1  0  0  0
 87172  1  0  0  0
 87173  1  0  0  0
 87 90  1  0  0  0
 89174  1  0  0  0
 90175  1  0  0  0
M  CHG  1  90   1
M  ISO  4   1 100  68 101  82 101  89 100
M  END
> <chiral flag>
0

> <version>
0

> <s_m_source_file>
/data/baiqing/PycharmProjects/Reinvent-master-3.2/result/LINK_invent/BTK/process_docking_weight1_custom_sum_contain_oxygen_bond_distance_aromatic_linkinvent_7_9_3/rearranged_h_0170.sdf

> <i_m_source_file_index>
41

> <r_mmod_Potential_Energy-OPLS-2005>
-268.870178222656

> <r_mmod_Stretch_Energy-OPLS-2005>
38.103401184082

> <r_mmod_Bend_Energy-OPLS-2005>
149.608764648438

> <r_mmod_Torsional_Energy-OPLS-2005>
302.206634521484

> <r_mmod_Improper_Torsional_Energy-OPLS-2005>
2.10361576080322

> <r_mmod_Van_der_Waal_Energy-OPLS-2005>
165.365249633789

> <r_mmod_Electrostatic_Energy-OPLS-2005>
-478.897705078125

> <r_mmod_Solvation_Energy-OPLS-2005>
-457.486236572266

> <b_mmod_Minimization_Converged-OPLS-2005>
0

> <r_mmod_RMS_Derivative-OPLS-2005>
4.31615543365479

$$$$
41
                    3D
 Structure written by MMmdl.
187197  0  0  1  0            999 V2000
  -30.7224  -14.4663   20.5437 C   0  0  0  0  0  0
  -30.4062  -12.3004   19.4105 C   0  0  0  0  0  0
  -29.4781  -12.4940   18.1937 C   0  0  0  0  0  0
  -28.0010  -12.3613   18.6147 C   0  0  0  0  0  0
  -27.6506  -13.2053   19.8689 C   0  0  2  0  0  0
  -28.7010  -13.0232   20.9876 C   0  0  0  0  0  0
  -25.2540  -13.8161   20.5700 C   0  0  0  0  0  0
  -24.1801  -13.0412   20.9190 C   0  0  0  0  0  0
  -24.6369  -11.6891   20.8763 C   0  0  0  0  0  0
  -23.9052  -10.4261   21.0430 C   0  0  0  0  0  0
  -24.3602   -9.4181   21.9204 C   0  0  0  0  0  0
  -23.6267   -8.2224   22.0779 C   0  0  0  0  0  0
  -22.4246   -8.0277   21.3565 C   0  0  0  0  0  0
  -21.9902   -9.0252   20.4655 C   0  0  0  0  0  0
  -22.7243  -10.2122   20.3068 C   0  0  0  0  0  0
  -21.6842   -6.0726   22.5286 C   0  0  0  0  0  0
  -21.4009   -6.5643   23.8218 C   0  0  0  0  0  0
  -21.3649   -5.6812   24.9189 C   0  0  0  0  0  0
  -21.6039   -4.3071   24.7239 C   0  0  0  0  0  0
  -21.8825   -3.8144   23.4366 C   0  0  0  0  0  0
  -21.9180   -4.6950   22.3415 C   0  0  0  0  0  0
  -22.7836  -13.5218   21.1859 C   0  0  0  0  0  0
  -22.1673   -4.2122   21.1004 F   0  0  0  0  0  0
  -21.5610   -3.4566   25.7759 F   0  0  0  0  0  0
  -30.0254  -13.3049   20.4133 N   0  0  0  0  0  0
  -26.2967  -12.9324   20.3392 N   0  0  0  0  0  0
  -25.9288  -11.6486   20.5783 N   0  0  0  0  0  0
  -22.0488  -12.8177   22.0408 N   0  0  0  0  0  0
  -25.4215  -15.1881   20.4133 N   0  0  0  0  0  0
  -31.8942  -14.5751   20.1821 O   0  0  0  0  0  0
  -21.6628   -6.8867   21.4243 O   0  0  0  0  0  0
  -22.3513  -14.5515   20.6705 O   0  0  0  0  0  0
  -24.6159  -31.8691   23.2099 C   0  0  0  0  0  0
  -25.9054  -32.4829   23.8379 C   0  0  1  0  0  0
  -27.2241  -27.4356   20.0877 C   0  0  0  0  0  0
  -25.5893  -33.8612   24.2322 N   0  0  0  0  0  0
  -23.3999  -30.4950   21.5543 C   0  0  2  0  0  0
  -24.8422  -28.9665   20.1117 C   0  0  0  0  0  0
  -22.7413  -29.4669   22.5020 C   0  0  0  0  0  0
  -18.0273  -28.1371   22.8521 C   0  0  0  0  0  0
  -24.1481  -36.7320   23.2639 C   0  0  0  0  0  0
  -25.9275  -30.8431   21.3525 C   0  0  0  0  0  0
  -26.0058  -29.4768   20.6995 C   0  0  0  0  0  0
  -27.2018  -28.7225   20.6775 C   0  0  0  0  0  0
  -26.0395  -26.9478   19.4859 C   0  0  0  0  0  0
  -24.8543  -27.7034   19.4992 C   0  0  0  0  0  0
  -23.6033  -29.8300   20.1678 C   0  0  0  0  0  0
  -25.4101  -36.3110   24.0341 C   0  0  1  0  0  0
  -20.5864  -28.3649   23.1346 C   0  0  2  0  0  0
  -20.6759  -26.9386   22.5434 C   0  0  0  0  0  0
  -19.5740  -26.6387   21.5228 C   0  0  0  0  0  0
  -18.1912  -26.7926   22.1635 C   0  0  0  0  0  0
  -19.1521  -28.8831   23.2931 C   0  0  0  0  0  0
  -18.9441  -30.1443   23.8930 C   0  0  0  0  0  0
  -17.6438  -30.6581   24.0573 C   0  0  0  0  0  0
  -25.9036  -34.9478   23.5134 C   0  0  0  0  0  0
  -16.5332  -29.9085   23.6312 C   0  0  0  0  0  0
  -16.7259  -28.6494   23.0351 C   0  0  0  0  0  0
  -26.4482  -31.6583   25.0683 C   0  0  0  0  0  0
  -25.3724  -31.3651   26.1402 C   0  0  0  0  0  0
  -27.0323  -30.3046   24.5997 C   0  0  0  0  0  0
  -27.6049  -32.4289   25.7473 C   0  0  0  0  0  0
  -27.5575  -37.1818   24.8463 C   0  0  0  0  0  0
  -21.4136  -29.3025   22.3766 N   0  0  0  0  0  0
  -26.4291  -37.3794   23.9400 N   0  0  0  0  0  0
  -24.6674  -31.0815   22.0988 N   0  0  0  0  0  0
  -23.4205  -28.8192   23.3023 O   0  0  0  0  0  0
  -28.3881  -26.6904   20.1153 O   0  0  0  0  0  0
  -26.5600  -34.8941   22.4696 O   0  0  0  0  0  0
  -23.5354  -32.1429   23.7508 O   0  0  0  0  0  0
  -31.9081  -20.4510   20.3373 C   0  0  0  0  0  0
  -33.0323  -21.2850   20.0248 C   0  0  0  0  0  0
  -34.1821  -20.7343   19.3965 C   0  0  0  0  0  0
  -34.2178  -19.3631   19.0507 C   0  0  0  0  0  0
  -33.1093  -18.5346   19.3425 C   0  0  0  0  0  0
  -31.9923  -19.0473   20.0554 C   0  0  0  0  0  0
  -30.6874  -21.6712   22.3223 C   0  0  0  0  0  0
  -29.8225  -17.8391   19.7604 C   0  0  0  0  0  0
  -31.2614  -17.5288   21.8412 C   0  0  0  0  0  0
  -29.3301  -16.3707   19.8898 C   0  0  0  0  0  0
  -30.3577  -16.3088   22.1236 C   0  0  0  0  0  0
  -29.5509  -22.7008   22.3371 C   0  0  0  0  0  0
  -30.6036  -21.0526   20.9241 C   0  0  1  0  0  0
  -29.9096  -22.1112   20.0229 C   0  0  1  0  0  0
  -33.0767  -22.7805   20.3560 C   0  0  0  0  0  0
  -35.4054  -21.6041   19.0809 C   0  0  0  0  0  0
  -35.4614  -18.7809   18.3719 C   0  0  0  0  0  0
  -33.1267  -17.0829   18.8720 C   0  0  0  0  0  0
  -28.8651  -21.4820   19.0878 C   0  0  0  0  0  0
  -29.5055  -24.5480   20.6179 C   0  0  0  0  0  0
  -28.2363  -25.2588   20.0986 C   0  0  0  0  0  0
  -31.0333  -18.1218   20.5253 N   0  0  0  0  0  0
  -30.0055  -15.5504   20.9174 N   0  0  0  0  0  0
  -29.2613  -23.0997   20.9331 N   0  3  2  0  0  0
  -31.4505  -12.3836   19.1065 H   0  0  0  0  0  0
  -30.2920  -11.2964   19.8228 H   0  0  0  0  0  0
  -29.7075  -11.7650   17.4152 H   0  0  0  0  0  0
  -29.6488  -13.4763   17.7520 H   0  0  0  0  0  0
  -27.7995  -11.3070   18.8090 H   0  0  0  0  0  0
  -27.3533  -12.6490   17.7861 H   0  0  0  0  0  0
  -27.6735  -14.2435   19.5509 H   0  0  0  0  0  0
  -28.6730  -12.0050   21.3776 H   0  0  0  0  0  0
  -28.4773  -13.6732   21.8357 H   0  0  0  0  0  0
  -25.2754   -9.5664   22.4778 H   0  0  0  0  0  0
  -23.9972   -7.4617   22.7524 H   0  0  0  0  0  0
  -21.0833   -8.8777   19.8951 H   0  0  0  0  0  0
  -22.3714  -10.9666   19.6177 H   0  0  0  0  0  0
  -21.2037   -7.6160   23.9692 H   0  0  0  0  0  0
  -21.1465   -6.0565   25.9081 H   0  0  0  0  0  0
  -22.0604   -2.7598   23.2876 H   0  0  0  0  0  0
  -22.4130  -11.9798   22.4704 H   0  0  0  0  0  0
  -21.1106  -13.1180   22.2670 H   0  0  0  0  0  0
  -24.6487  -15.8363   20.5228 H   0  0  0  0  0  0
  -26.2770  -15.6349   20.1073 H   0  0  0  0  0  0
  -26.7115  -32.5579   23.1142 H   0  0  0  0  0  0
  -24.9998  -33.9749   25.0434 H   0  0  0  0  0  0
  -22.6878  -31.3117   21.4187 H   0  0  0  0  0  0
  -23.3758  -35.9637   23.3288 H   0  0  0  0  0  0
  -24.3575  -36.8957   22.2055 H   0  0  0  0  0  0
  -23.7227  -37.6513   23.6676 H   0  0  0  0  0  0
  -26.0184  -31.6094   20.5809 H   0  0  0  0  0  0
  -26.8250  -30.9088   21.9558 H   0  0  0  0  0  0
  -28.1019  -29.1172   21.1277 H   0  0  0  0  0  0
  -26.0062  -25.9847   18.9975 H   0  0  0  0  0  0
  -23.9584  -27.3126   19.0363 H   0  0  0  0  0  0
  -23.7001  -30.6037   19.4050 H   0  0  0  0  0  0
  -22.7285  -29.2429   19.8810 H   0  0  0  0  0  0
  -25.1281  -36.1970   25.0836 H   0  0  0  0  0  0
  -20.9947  -28.3194   24.1474 H   0  0  0  0  0  0
  -20.5656  -26.2238   23.3614 H   0  0  0  0  0  0
  -21.6629  -26.7425   22.1233 H   0  0  0  0  0  0
  -19.6883  -25.6311   21.1233 H   0  0  0  0  0  0
  -19.6667  -27.3215   20.6778 H   0  0  0  0  0  0
  -17.4187  -26.6712   21.4024 H   0  0  0  0  0  0
  -18.0273  -26.0044   22.9005 H   0  0  0  0  0  0
  -19.7913  -30.7257   24.2307 H   0  0  0  0  0  0
  -17.4989  -31.6263   24.5170 H   0  0  0  0  0  0
  -15.5328  -30.2987   23.7613 H   0  0  0  0  0  0
  -15.8668  -28.0815   22.7039 H   0  0  0  0  0  0
  -24.5920  -30.6989   25.7705 H   0  0  0  0  0  0
  -24.8877  -32.2788   26.4849 H   0  0  0  0  0  0
  -25.8059  -30.8804   27.0156 H   0  0  0  0  0  0
  -26.2848  -29.6791   24.1094 H   0  0  0  0  0  0
  -27.4191  -29.7284   25.4416 H   0  0  0  0  0  0
  -27.8633  -30.4417   23.9068 H   0  0  0  0  0  0
  -27.2671  -33.3590   26.2059 H   0  0  0  0  0  0
  -28.3868  -32.6836   25.0306 H   0  0  0  0  0  0
  -28.0693  -31.8384   26.5380 H   0  0  0  0  0  0
  -28.2601  -38.0113   24.7525 H   0  0  0  0  0  0
  -28.1077  -36.2649   24.6292 H   0  0  0  0  0  0
  -27.2299  -37.1462   25.8870 H   0  0  0  0  0  0
  -20.9283  -29.8748   21.7004 H   0  0  0  0  0  0
  -26.0192  -38.2880   24.1395 H   0  0  0  0  0  0
  -30.5712  -20.9234   23.1061 H   0  0  0  0  0  0
  -31.6358  -22.1590   22.5278 H   0  0  0  0  0  0
  -29.0253  -18.5036   20.0940 H   0  0  0  0  0  0
  -29.9895  -18.0783   18.7085 H   0  0  0  0  0  0
  -32.3036  -17.2087   21.8914 H   0  0  0  0  0  0
  -31.1325  -18.2833   22.6183 H   0  0  0  0  0  0
  -29.4111  -15.8933   18.9107 H   0  0  0  0  0  0
  -28.2652  -16.3819   20.1202 H   0  0  0  0  0  0
  -29.4279  -16.6491   22.5789 H   0  0  0  0  0  0
  -30.8276  -15.6589   22.8651 H   0  0  0  0  0  0
  -29.7732  -23.5334   23.0035 H   0  0  0  0  0  0
  -28.6479  -22.2315   22.7290 H   0  0  0  0  0  0
  -29.8739  -20.2587   21.0530 H   0  0  0  0  0  0
  -30.6444  -22.6027   19.3900 H   0  0  0  0  0  0
  -32.2003  -23.2028   20.8260 H   0  0  0  0  0  0
  -33.2167  -23.3657   19.4482 H   0  0  0  0  0  0
  -33.9101  -22.9866   21.0278 H   0  0  0  0  0  0
  -35.2125  -22.6724   19.0215 H   0  0  0  0  0  0
  -35.8381  -21.3435   18.1146 H   0  0  0  0  0  0
  -36.1683  -21.4546   19.8460 H   0  0  0  0  0  0
  -36.3786  -19.2107   18.7726 H   0  0  0  0  0  0
  -35.4291  -18.9783   17.3000 H   0  0  0  0  0  0
  -35.5730  -17.7074   18.5149 H   0  0  0  0  0  0
  -33.5558  -16.9945   17.8740 H   0  0  0  0  0  0
  -32.1269  -16.6658   18.7808 H   0  0  0  0  0  0
  -33.7032  -16.4627   19.5580 H   0  0  0  0  0  0
  -28.0422  -21.0305   19.6438 H   0  0  0  0  0  0
  -29.3159  -20.6953   18.4799 H   0  0  0  0  0  0
  -28.4461  -22.2219   18.4066 H   0  0  0  0  0  0
  -29.8405  -25.0767   21.5098 H   0  0  0  0  0  0
  -30.3078  -24.6785   19.8906 H   0  0  0  0  0  0
  -27.3939  -24.9772   20.7336 H   0  0  0  0  0  0
  -28.0102  -24.9183   19.0866 H   0  0  0  0  0  0
  -28.2667  -22.9564   20.8343 H   0  0  0  0  0  0
  1 25  1  0  0  0
  1 30  2  0  0  0
  1 93  1  0  0  0
  2  3  1  0  0  0
  2 25  1  0  0  0
  2 95  1  0  0  0
  2 96  1  0  0  0
  3  4  1  0  0  0
  3 97  1  0  0  0
  3 98  1  0  0  0
  4  5  1  0  0  0
  4 99  1  0  0  0
  4100  1  0  0  0
  5  6  1  0  0  0
  5 26  1  0  0  0
  5101  1  0  0  0
  6 25  1  0  0  0
  6102  1  0  0  0
  6103  1  0  0  0
  7  8  2  0  0  0
  7 26  1  0  0  0
  7 29  1  0  0  0
  8  9  1  0  0  0
  8 22  1  0  0  0
  9 10  1  0  0  0
  9 27  2  0  0  0
 10 11  2  0  0  0
 10 15  1  0  0  0
 11 12  1  0  0  0
 11104  1  0  0  0
 12 13  2  0  0  0
 12105  1  0  0  0
 13 14  1  0  0  0
 13 31  1  0  0  0
 14 15  2  0  0  0
 14106  1  0  0  0
 15107  1  0  0  0
 16 17  2  0  0  0
 16 21  1  0  0  0
 16 31  1  0  0  0
 17 18  1  0  0  0
 17108  1  0  0  0
 18 19  2  0  0  0
 18109  1  0  0  0
 19 20  1  0  0  0
 19 24  1  0  0  0
 20 21  2  0  0  0
 20110  1  0  0  0
 21 23  1  0  0  0
 22 28  1  0  0  0
 22 32  2  0  0  0
 26 27  1  0  0  0
 28111  1  0  0  0
 28112  1  0  0  0
 29113  1  0  0  0
 29114  1  0  0  0
 33 34  1  0  0  0
 33 66  1  0  0  0
 33 70  2  0  0  0
 34 36  1  0  0  0
 34 59  1  0  0  0
 34115  1  0  0  0
 35 44  2  0  0  0
 35 45  1  0  0  0
 35 68  1  0  0  0
 36 56  1  0  0  0
 36116  1  0  0  0
 37 39  1  0  0  0
 37 47  1  0  0  0
 37 66  1  0  0  0
 37117  1  0  0  0
 38 43  2  0  0  0
 38 46  1  0  0  0
 38 47  1  0  0  0
 39 64  1  0  0  0
 39 67  2  0  0  0
 40 52  1  0  0  0
 40 53  2  0  0  0
 40 58  1  0  0  0
 41118  1  0  0  0
 41119  1  0  0  0
 41120  1  0  0  0
 41 48  1  0  0  0
 42 43  1  0  0  0
 42 66  1  0  0  0
 42121  1  0  0  0
 42122  1  0  0  0
 43 44  1  0  0  0
 44123  1  0  0  0
 45 46  2  0  0  0
 45124  1  0  0  0
 46125  1  0  0  0
 47126  1  0  0  0
 47127  1  0  0  0
 48 56  1  0  0  0
 48 65  1  0  0  0
 48128  1  0  0  0
 49 50  1  0  0  0
 49 53  1  0  0  0
 49 64  1  0  0  0
 49129  1  0  0  0
 50 51  1  0  0  0
 50130  1  0  0  0
 50131  1  0  0  0
 51 52  1  0  0  0
 51132  1  0  0  0
 51133  1  0  0  0
 52134  1  0  0  0
 52135  1  0  0  0
 53 54  1  0  0  0
 54 55  2  0  0  0
 54136  1  0  0  0
 55 57  1  0  0  0
 55137  1  0  0  0
 56 69  2  0  0  0
 57 58  2  0  0  0
 57138  1  0  0  0
 58139  1  0  0  0
 59 60  1  0  0  0
 59 61  1  0  0  0
 59 62  1  0  0  0
 60140  1  0  0  0
 60141  1  0  0  0
 60142  1  0  0  0
 61143  1  0  0  0
 61144  1  0  0  0
 61145  1  0  0  0
 62146  1  0  0  0
 62147  1  0  0  0
 62148  1  0  0  0
 63 65  1  0  0  0
 63149  1  0  0  0
 63150  1  0  0  0
 63151  1  0  0  0
 64152  1  0  0  0
 65153  1  0  0  0
 68 91  1  0  0  0
 71 72  2  0  0  0
 71 76  1  0  0  0
 71 83  1  0  0  0
 72 73  1  0  0  0
 72 85  1  0  0  0
 73 74  2  0  0  0
 73 86  1  0  0  0
 74 75  1  0  0  0
 74 87  1  0  0  0
 75 76  2  0  0  0
 75 88  1  0  0  0
 76 92  1  0  0  0
 77 82  1  0  0  0
 77 83  1  0  0  0
 77154  1  0  0  0
 77155  1  0  0  0
 78 80  1  0  0  0
 78 92  1  0  0  0
 78156  1  0  0  0
 78157  1  0  0  0
 79 81  1  0  0  0
 79 92  1  0  0  0
 79158  1  0  0  0
 79159  1  0  0  0
 80 93  1  0  0  0
 80160  1  0  0  0
 80161  1  0  0  0
 81 93  1  0  0  0
 81162  1  0  0  0
 81163  1  0  0  0
 82 94  1  0  0  0
 82164  1  0  0  0
 82165  1  0  0  0
 83 84  1  0  0  0
 83166  1  0  0  0
 84 89  1  0  0  0
 84 94  1  0  0  0
 84167  1  0  0  0
 85168  1  0  0  0
 85169  1  0  0  0
 85170  1  0  0  0
 86171  1  0  0  0
 86172  1  0  0  0
 86173  1  0  0  0
 87174  1  0  0  0
 87175  1  0  0  0
 87176  1  0  0  0
 88177  1  0  0  0
 88178  1  0  0  0
 88179  1  0  0  0
 89180  1  0  0  0
 89181  1  0  0  0
 89182  1  0  0  0
 90 91  1  0  0  0
 90183  1  0  0  0
 90184  1  0  0  0
 90 94  1  0  0  0
 91185  1  0  0  0
 91186  1  0  0  0
 94187  1  0  0  0
M  CHG  1  94   1
M  ISO  4   1 100  68 101  91 101  93 100
M  END
> <chiral flag>
0

> <version>
0

> <s_m_source_file>
/data/baiqing/PycharmProjects/Reinvent-master-3.2/result/LINK_invent/BTK/process_docking_weight1_custom_sum_contain_oxygen_bond_distance_aromatic_linkinvent_7_9_3/rearranged_h_0170.sdf

> <i_m_source_file_index>
42

> <r_mmod_Potential_Energy-OPLS-2005>
190.387023925781

> <r_mmod_Stretch_Energy-OPLS-2005>
50.9548072814941

> <r_mmod_Bend_Energy-OPLS-2005>
142.263580322266

> <r_mmod_Torsional_Energy-OPLS-2005>
495.025421142578

> <r_mmod_Improper_Torsional_Energy-OPLS-2005>
6.0193943977356

> <r_mmod_Van_der_Waal_Energy-OPLS-2005>
182.285095214844

> <r_mmod_Electrostatic_Energy-OPLS-2005>
-291.522003173828

> <r_mmod_Solvation_Energy-OPLS-2005>
-411.936706542969

> <b_mmod_Minimization_Converged-OPLS-2005>
0

> <r_mmod_RMS_Derivative-OPLS-2005>
2.92643570899963

$$$$
42
                    3D
 Structure written by MMmdl.
173184  0  0  1  0            999 V2000
  -29.0791  -17.9597   20.3964 C   0  0  0  0  0  0
  -29.9342  -14.8878   19.5824 C   0  0  0  0  0  0
  -29.5179  -13.6191   18.5967 C   0  0  0  0  0  0
  -28.3723  -12.7465   19.0962 C   0  0  0  0  0  0
  -27.5216  -13.7174   19.9060 C   0  0  2  0  0  0
  -28.2495  -14.8405   20.8659 C   0  0  0  0  0  0
  -25.1523  -13.9041   20.6085 C   0  0  0  0  0  0
  -24.1409  -13.0595   20.9377 C   0  0  0  0  0  0
  -24.6735  -11.7331   20.8684 C   0  0  0  0  0  0
  -23.9543  -10.4451   21.0234 C   0  0  0  0  0  0
  -24.3905   -9.4356   21.9111 C   0  0  0  0  0  0
  -23.6474   -8.2419   22.0751 C   0  0  0  0  0  0
  -22.4448   -8.0418   21.3552 C   0  0  0  0  0  0
  -22.0187   -9.0415   20.4622 C   0  0  0  0  0  0
  -22.7636  -10.2246   20.2973 C   0  0  0  0  0  0
  -21.6948   -6.0809   22.5262 C   0  0  0  0  0  0
  -21.4089   -6.5682   23.8204 C   0  0  0  0  0  0
  -21.3678   -5.6816   24.9148 C   0  0  0  0  0  0
  -21.6041   -4.3079   24.7190 C   0  0  0  0  0  0
  -21.8821   -3.8182   23.4309 C   0  0  0  0  0  0
  -21.9226   -4.7013   22.3371 C   0  0  0  0  0  0
  -22.7322  -13.4928   21.1967 C   0  0  0  0  0  0
  -22.1667   -4.2176   21.0949 F   0  0  0  0  0  0
  -21.5608   -3.4559   25.7703 F   0  0  0  0  0  0
  -28.9254  -16.1628   20.1801 N   0  0  0  0  0  0
  -26.2648  -13.1322   20.4023 N   0  0  0  0  0  0
  -25.9877  -11.7912   20.5710 N   0  0  0  0  0  0
  -22.0138  -12.7816   22.0546 N   0  0  0  0  0  0
  -25.2219  -15.2835   20.4288 N   0  0  0  0  0  0
  -30.3483  -17.5586   20.3826 O   0  0  0  0  0  0
  -21.6783   -6.9009   21.4247 O   0  0  0  0  0  0
  -22.2844  -14.5167   20.6824 O   0  0  0  0  0  0
  -24.7559  -31.4894   23.0293 C   0  0  0  0  0  0
  -25.9478  -32.2960   23.7105 C   0  0  1  0  0  0
  -28.2700  -26.5096   19.6819 C   0  0  0  0  0  0
  -25.5501  -33.7050   24.0646 N   0  0  0  0  0  0
  -23.6705  -29.6947   21.5634 C   0  0  2  0  0  0
  -25.0398  -26.9413   20.5980 C   0  0  0  0  0  0
  -22.7540  -29.2449   22.6622 C   0  0  0  0  0  0
  -18.0094  -28.1470   22.8385 C   0  0  0  0  0  0
  -24.1479  -36.6660   23.2709 C   0  0  0  0  0  0
  -26.0959  -29.5222   21.7135 C   0  0  0  0  0  0
  -26.1883  -27.7937   21.4650 C   0  0  0  0  0  0
  -27.6895  -27.3457   21.0243 C   0  0  0  0  0  0
  -27.5761  -26.1560   18.4346 C   0  0  0  0  0  0
  -26.0863  -25.9043   18.5521 C   0  0  0  0  0  0
  -23.8422  -28.2906   20.6686 C   0  0  0  0  0  0
  -25.4166  -36.2113   24.0136 C   0  0  1  0  0  0
  -20.5487  -28.3421   23.1716 C   0  0  2  0  0  0
  -20.6265  -26.9059   22.5974 C   0  0  0  0  0  0
  -19.5606  -26.6293   21.5363 C   0  0  0  0  0  0
  -18.1686  -26.8052   22.1445 C   0  0  0  0  0  0
  -19.1311  -28.8872   23.2900 C   0  0  0  0  0  0
  -18.9332  -30.1481   23.8924 C   0  0  0  0  0  0
  -17.6340  -30.6630   24.0577 C   0  0  0  0  0  0
  -25.9170  -34.8489   23.4511 C   0  0  0  0  0  0
  -16.5224  -29.9162   23.6278 C   0  0  0  0  0  0
  -16.7119  -28.6611   23.0227 C   0  0  0  0  0  0
  -26.4661  -31.6151   25.0447 C   0  0  0  0  0  0
  -25.3531  -31.3918   26.0986 C   0  0  0  0  0  0
  -27.1093  -30.2472   24.7604 C   0  0  0  0  0  0
  -27.5763  -32.4698   25.7087 C   0  0  0  0  0  0
  -27.5494  -37.1358   24.8444 C   0  0  0  0  0  0
  -21.4362  -29.2363   22.4346 N   0  0  0  0  0  0
  -26.4164  -37.3064   23.9392 N   0  0  0  0  0  0
  -24.8800  -30.3555   22.1532 N   0  0  0  0  0  0
  -23.2817  -28.7343   23.6452 O   0  0  0  0  0  0
  -28.4408  -25.0294   19.3637 O   0  0  0  0  0  0
  -26.6303  -34.8460   22.4472 O   0  0  0  0  0  0
  -23.6433  -31.9344   23.3826 O   0  0  0  0  0  0
  -25.0685  -24.4992   20.4147 C   0  0  0  0  0  0
  -26.4915  -25.1469   20.5411 C   0  0  0  0  0  0
  -24.1746  -24.7649   19.1843 C   0  0  0  0  0  0
  -23.8034  -26.3568   18.4972 C   0  0  0  0  0  0
  -26.2772  -27.9022   19.1559 C   0  0  0  0  0  0
  -29.1506  -21.5412   22.4233 C   0  0  0  0  0  0
  -28.0188  -22.5491   22.2095 C   0  0  0  0  0  0
  -21.6638  -27.6064   17.6443 C   0  0  0  0  0  0
  -21.2197  -26.1981   17.9532 C   0  0  0  0  0  0
  -23.9913  -22.0144   17.0011 C   0  0  0  0  0  0
  -23.7378  -23.3628   16.4034 C   0  0  0  0  0  0
  -28.9128  -20.1115   21.8779 C   0  0  0  0  0  0
  -27.6761  -22.5563   20.7347 C   0  0  1  0  0  0
  -22.6481  -26.4635   17.5373 C   0  0  0  0  0  0
  -25.0513  -23.0949   17.1166 C   0  0  0  0  0  0
  -27.2408  -28.9799   18.5847 C   0  0  0  0  0  0
  -27.3446  -23.8118   18.5091 C   0  0  0  0  0  0
  -25.4272  -23.5851   18.5157 C   0  0  1  0  0  0
  -24.7670  -27.7635   18.3424 N   0  0  0  0  0  0
  -28.2602  -19.9695   20.5510 N   0  0  0  0  0  0
  -30.6582  -15.4389   18.9813 H   0  0  0  0  0  0
  -30.5792  -14.5193   20.3857 H   0  0  0  0  0  0
  -30.3944  -13.0063   18.3925 H   0  0  0  0  0  0
  -29.2375  -14.0430   17.6323 H   0  0  0  0  0  0
  -28.7571  -11.9684   19.7524 H   0  0  0  0  0  0
  -27.8230  -12.2781   18.2795 H   0  0  0  0  0  0
  -27.1611  -14.3618   19.1009 H   0  0  0  0  0  0
  -28.8730  -14.3736   21.6352 H   0  0  0  0  0  0
  -27.4872  -15.2922   21.4941 H   0  0  0  0  0  0
  -25.2994   -9.5813   22.4780 H   0  0  0  0  0  0
  -24.0110   -7.4850   22.7548 H   0  0  0  0  0  0
  -21.1113   -8.9013   19.8925 H   0  0  0  0  0  0
  -22.4086  -10.9778   19.6074 H   0  0  0  0  0  0
  -21.2121   -7.6196   23.9716 H   0  0  0  0  0  0
  -21.1482   -6.0532   25.9048 H   0  0  0  0  0  0
  -22.0571   -2.7641   23.2813 H   0  0  0  0  0  0
  -22.3929  -11.9535   22.4907 H   0  0  0  0  0  0
  -21.0699  -13.0678   22.2760 H   0  0  0  0  0  0
  -24.4242  -15.9030   20.5142 H   0  0  0  0  0  0
  -26.0610  -15.7575   20.1239 H   0  0  0  0  0  0
  -26.7692  -32.3238   22.9925 H   0  0  0  0  0  0
  -24.8990  -33.7863   24.8326 H   0  0  0  0  0  0
  -23.1404  -30.4458   20.9742 H   0  0  0  0  0  0
  -23.3768  -35.8957   23.3044 H   0  0  0  0  0  0
  -24.3538  -36.8779   22.2213 H   0  0  0  0  0  0
  -23.7241  -37.5646   23.7187 H   0  0  0  0  0  0
  -26.3448  -29.9897   20.7690 H   0  0  0  0  0  0
  -26.9650  -29.7891   22.2948 H   0  0  0  0  0  0
  -28.4602  -27.9335   21.4968 H   0  0  0  0  0  0
  -28.1029  -25.9969   17.4951 H   0  0  0  0  0  0
  -25.7294  -25.7078   17.5359 H   0  0  0  0  0  0
  -23.4434  -28.7369   19.7649 H   0  0  0  0  0  0
  -22.9736  -27.6617   20.8472 H   0  0  0  0  0  0
  -25.1468  -36.0607   25.0611 H   0  0  0  0  0  0
  -20.8974  -28.2845   24.2062 H   0  0  0  0  0  0
  -20.4525  -26.2081   23.4192 H   0  0  0  0  0  0
  -21.6202  -26.6517   22.2351 H   0  0  0  0  0  0
  -19.6678  -25.6197   21.1400 H   0  0  0  0  0  0
  -19.6925  -27.3111   20.6951 H   0  0  0  0  0  0
  -17.4173  -26.7118   21.3616 H   0  0  0  0  0  0
  -17.9671  -26.0169   22.8703 H   0  0  0  0  0  0
  -19.7840  -30.7212   24.2405 H   0  0  0  0  0  0
  -17.4901  -31.6270   24.5238 H   0  0  0  0  0  0
  -15.5224  -30.3052   23.7615 H   0  0  0  0  0  0
  -15.8533  -28.0987   22.6821 H   0  0  0  0  0  0
  -24.5786  -30.7090   25.7458 H   0  0  0  0  0  0
  -24.8626  -32.3281   26.3664 H   0  0  0  0  0  0
  -25.7554  -30.9661   27.0199 H   0  0  0  0  0  0
  -26.3931  -29.5190   24.3835 H   0  0  0  0  0  0
  -27.5044  -29.8005   25.6747 H   0  0  0  0  0  0
  -27.9578  -30.3307   24.0810 H   0  0  0  0  0  0
  -27.1942  -33.4188   26.0878 H   0  0  0  0  0  0
  -28.3768  -32.7031   25.0049 H   0  0  0  0  0  0
  -28.0316  -31.9579   26.5580 H   0  0  0  0  0  0
  -28.2273  -37.9848   24.7533 H   0  0  0  0  0  0
  -28.1205  -36.2346   24.6186 H   0  0  0  0  0  0
  -27.2242  -37.0822   25.8842 H   0  0  0  0  0  0
  -21.0776  -29.6784   21.6016 H   0  0  0  0  0  0
  -25.9843  -38.2035   24.1396 H   0  0  0  0  0  0
  -25.0194  -23.5265   20.8856 H   0  0  0  0  0  0
  -29.3642  -21.4864   23.4906 H   0  0  0  0  0  0
  -30.0711  -21.9319   21.9832 H   0  0  0  0  0  0
  -28.3678  -23.5362   22.5163 H   0  0  0  0  0  0
  -27.1499  -22.3089   22.8210 H   0  0  0  0  0  0
  -21.7634  -28.2962   18.4754 H   0  0  0  0  0  0
  -21.3105  -28.0481   16.7143 H   0  0  0  0  0  0
  -20.5606  -25.7184   17.2298 H   0  0  0  0  0  0
  -21.0477  -25.9323   18.9921 H   0  0  0  0  0  0
  -24.1411  -21.1983   16.2975 H   0  0  0  0  0  0
  -23.4413  -21.7613   17.9054 H   0  0  0  0  0  0
  -22.9592  -23.9372   16.8880 H   0  0  0  0  0  0
  -23.7560  -23.4253   15.3183 H   0  0  0  0  0  0
  -28.3276  -19.5399   22.6000 H   0  0  0  0  0  0
  -29.9160  -19.6768   21.8827 H   0  0  0  0  0  0
  -28.6438  -22.8180   20.3043 H   0  0  0  0  0  0
  -22.9512  -26.2036   16.5243 H   0  0  0  0  0  0
  -25.9186  -22.9008   16.4854 H   0  0  0  0  0  0
  -27.5474  -28.7400   17.5658 H   0  0  0  0  0  0
  -28.1412  -29.1280   19.1788 H   0  0  0  0  0  0
  -26.7236  -29.9364   18.5439 H   0  0  0  0  0  0
  -27.5283  -23.9964   17.4495 H   0  0  0  0  0  0
  -27.8137  -22.8321   18.4204 H   0  0  0  0  0  0
  -25.3188  -22.6484   19.0725 H   0  0  0  0  0  0
  1 25  1  0  0  0
  1 30  2  0  0  0
  1 90  1  0  0  0
  2  3  1  0  0  0
  2 25  1  0  0  0
  2 91  1  0  0  0
  2 92  1  0  0  0
  3  4  1  0  0  0
  3 93  1  0  0  0
  3 94  1  0  0  0
  4  5  1  0  0  0
  4 95  1  0  0  0
  4 96  1  0  0  0
  5  6  1  0  0  0
  5 26  1  0  0  0
  5 97  1  0  0  0
  6 25  1  0  0  0
  6 98  1  0  0  0
  6 99  1  0  0  0
  7  8  2  0  0  0
  7 26  1  0  0  0
  7 29  1  0  0  0
  8  9  1  0  0  0
  8 22  1  0  0  0
  9 10  1  0  0  0
  9 27  2  0  0  0
 10 11  2  0  0  0
 10 15  1  0  0  0
 11 12  1  0  0  0
 11100  1  0  0  0
 12 13  2  0  0  0
 12101  1  0  0  0
 13 14  1  0  0  0
 13 31  1  0  0  0
 14 15  2  0  0  0
 14102  1  0  0  0
 15103  1  0  0  0
 16 17  2  0  0  0
 16 21  1  0  0  0
 16 31  1  0  0  0
 17 18  1  0  0  0
 17104  1  0  0  0
 18 19  2  0  0  0
 18105  1  0  0  0
 19 20  1  0  0  0
 19 24  1  0  0  0
 20 21  2  0  0  0
 20106  1  0  0  0
 21 23  1  0  0  0
 22 28  1  0  0  0
 22 32  2  0  0  0
 26 27  1  0  0  0
 28107  1  0  0  0
 28108  1  0  0  0
 29109  1  0  0  0
 29110  1  0  0  0
 33 34  1  0  0  0
 33 66  1  0  0  0
 33 70  2  0  0  0
 34 36  1  0  0  0
 34 59  1  0  0  0
 34111  1  0  0  0
 35 44  2  0  0  0
 35 45  1  0  0  0
 35 68  1  0  0  0
 36 56  1  0  0  0
 36112  1  0  0  0
 37 39  1  0  0  0
 37 47  1  0  0  0
 37 66  1  0  0  0
 37113  1  0  0  0
 38 43  2  0  0  0
 38 46  1  0  0  0
 38 47  1  0  0  0
 39 64  1  0  0  0
 39 67  2  0  0  0
 40 52  1  0  0  0
 40 53  2  0  0  0
 40 58  1  0  0  0
 41114  1  0  0  0
 41115  1  0  0  0
 41116  1  0  0  0
 41 48  1  0  0  0
 42 43  1  0  0  0
 42 66  1  0  0  0
 42117  1  0  0  0
 42118  1  0  0  0
 43 44  1  0  0  0
 44119  1  0  0  0
 45 46  2  0  0  0
 45120  1  0  0  0
 46121  1  0  0  0
 47122  1  0  0  0
 47123  1  0  0  0
 48 56  1  0  0  0
 48 65  1  0  0  0
 48124  1  0  0  0
 49 50  1  0  0  0
 49 53  1  0  0  0
 49 64  1  0  0  0
 49125  1  0  0  0
 50 51  1  0  0  0
 50126  1  0  0  0
 50127  1  0  0  0
 51 52  1  0  0  0
 51128  1  0  0  0
 51129  1  0  0  0
 52130  1  0  0  0
 52131  1  0  0  0
 53 54  1  0  0  0
 54 55  2  0  0  0
 54132  1  0  0  0
 55 57  1  0  0  0
 55133  1  0  0  0
 56 69  2  0  0  0
 57 58  2  0  0  0
 57134  1  0  0  0
 58135  1  0  0  0
 59 60  1  0  0  0
 59 61  1  0  0  0
 59 62  1  0  0  0
 60136  1  0  0  0
 60137  1  0  0  0
 60138  1  0  0  0
 61139  1  0  0  0
 61140  1  0  0  0
 61141  1  0  0  0
 62142  1  0  0  0
 62143  1  0  0  0
 62144  1  0  0  0
 63 65  1  0  0  0
 63145  1  0  0  0
 63146  1  0  0  0
 63147  1  0  0  0
 64148  1  0  0  0
 65149  1  0  0  0
 68 87  1  0  0  0
 71 72  2  0  0  0
 71 73  1  0  0  0
 71150  1  0  0  0
 72 75  1  0  0  0
 72 83  1  0  0  0
 73 74  2  0  0  0
 73 88  1  0  0  0
 74 89  1  0  0  0
 74 84  1  0  0  0
 75 86  1  0  0  0
 75 89  2  0  0  0
 76 77  1  0  0  0
 76 82  1  0  0  0
 76151  1  0  0  0
 76152  1  0  0  0
 77 83  1  0  0  0
 77153  1  0  0  0
 77154  1  0  0  0
 78 79  1  0  0  0
 78 84  1  0  0  0
 78155  1  0  0  0
 78156  1  0  0  0
 79 84  1  0  0  0
 79157  1  0  0  0
 79158  1  0  0  0
 80 81  1  0  0  0
 80159  1  0  0  0
 80160  1  0  0  0
 80 85  1  0  0  0
 81 85  1  0  0  0
 81161  1  0  0  0
 81162  1  0  0  0
 82 90  1  0  0  0
 82163  1  0  0  0
 82164  1  0  0  0
 83 90  1  0  0  0
 83165  1  0  0  0
 84166  1  0  0  0
 85 88  1  0  0  0
 85167  1  0  0  0
 86168  1  0  0  0
 86169  1  0  0  0
 86170  1  0  0  0
 87171  1  0  0  0
 87172  1  0  0  0
 87 88  1  0  0  0
 88173  1  0  0  0
M  ISO  4   1 100  68 101  87 101  90 100
M  END
> <chiral flag>
0

> <version>
0

> <s_m_source_file>
/data/baiqing/PycharmProjects/Reinvent-master-3.2/result/LINK_invent/BTK/process_docking_weight1_custom_sum_contain_oxygen_bond_distance_aromatic_linkinvent_7_9_3/rearranged_h_0170.sdf

> <i_m_source_file_index>
43

> <r_mmod_Potential_Energy-OPLS-2005>
32179.6328125

> <r_mmod_Stretch_Energy-OPLS-2005>
17002.654296875

> <r_mmod_Bend_Energy-OPLS-2005>
2455.85131835938

> <r_mmod_Torsional_Energy-OPLS-2005>
892.256164550781

> <r_mmod_Improper_Torsional_Energy-OPLS-2005>
133.027282714844

> <r_mmod_Van_der_Waal_Energy-OPLS-2005>
4141.2724609375

> <r_mmod_Electrostatic_Energy-OPLS-2005>
-381.900482177734

> <r_mmod_Solvation_Energy-OPLS-2005>
-252.250274658203

> <b_mmod_Minimization_Converged-OPLS-2005>
0

> <r_mmod_RMS_Derivative-OPLS-2005>
12.8482360839844

$$$$
44
                    3D
 Structure written by MMmdl.
172183  0  0  1  0            999 V2000
  -30.6815  -14.6137   20.4695 C   0  0  0  0  0  0
  -30.4117  -12.3749   19.4520 C   0  0  0  0  0  0
  -29.4983  -12.5003   18.2151 C   0  0  0  0  0  0
  -28.0184  -12.3561   18.6210 C   0  0  0  0  0  0
  -27.6419  -13.2307   19.8485 C   0  0  2  0  0  0
  -28.6876  -13.1288   20.9789 C   0  0  0  0  0  0
  -25.2499  -13.8196   20.5675 C   0  0  0  0  0  0
  -24.1791  -13.0441   20.9186 C   0  0  0  0  0  0
  -24.6387  -11.6920   20.8713 C   0  0  0  0  0  0
  -23.9058  -10.4306   21.0361 C   0  0  0  0  0  0
  -24.3623   -9.4227   21.9145 C   0  0  0  0  0  0
  -23.6321   -8.2254   22.0712 C   0  0  0  0  0  0
  -22.4298   -8.0271   21.3517 C   0  0  0  0  0  0
  -21.9928   -9.0231   20.4621 C   0  0  0  0  0  0
  -22.7230  -10.2126   20.3025 C   0  0  0  0  0  0
  -21.6860   -6.0732   22.5279 C   0  0  0  0  0  0
  -21.4010   -6.5630   23.8213 C   0  0  0  0  0  0
  -21.3660   -5.6788   24.9173 C   0  0  0  0  0  0
  -21.6054   -4.3044   24.7222 C   0  0  0  0  0  0
  -21.8819   -3.8138   23.4338 C   0  0  0  0  0  0
  -21.9193   -4.6963   22.3396 C   0  0  0  0  0  0
  -22.7817  -13.5225   21.1871 C   0  0  0  0  0  0
  -22.1666   -4.2140   21.0975 F   0  0  0  0  0  0
  -21.5639   -3.4532   25.7736 F   0  0  0  0  0  0
  -30.0004  -13.4295   20.3973 N   0  0  0  0  0  0
  -26.2936  -12.9409   20.3273 N   0  0  0  0  0  0
  -25.9310  -11.6553   20.5721 N   0  0  0  0  0  0
  -22.0474  -12.8217   22.0441 N   0  0  0  0  0  0
  -25.4215  -15.1912   20.4113 N   0  0  0  0  0  0
  -31.8704  -14.6797   20.1421 O   0  0  0  0  0  0
  -21.6650   -6.8876   21.4238 O   0  0  0  0  0  0
  -22.3495  -14.5517   20.6712 O   0  0  0  0  0  0
  -24.6225  -31.8600   23.2026 C   0  0  0  0  0  0
  -25.9075  -32.4782   23.8346 C   0  0  1  0  0  0
  -27.2308  -27.3311   20.1174 C   0  0  0  0  0  0
  -25.5893  -33.8583   24.2267 N   0  0  0  0  0  0
  -23.4178  -30.4822   21.5440 C   0  0  2  0  0  0
  -24.8673  -28.9374   20.1085 C   0  0  0  0  0  0
  -22.7472  -29.4616   22.4932 C   0  0  0  0  0  0
  -18.0283  -28.1393   22.8491 C   0  0  0  0  0  0
  -24.1481  -36.7302   23.2645 C   0  0  0  0  0  0
  -25.9565  -30.7940   21.3719 C   0  0  0  0  0  0
  -26.0333  -29.4232   20.7132 C   0  0  0  0  0  0
  -27.2175  -28.6316   20.7063 C   0  0  0  0  0  0
  -26.0461  -26.8978   19.4807 C   0  0  0  0  0  0
  -24.8757  -27.6815   19.4813 C   0  0  0  0  0  0
  -23.6326  -29.8149   20.1591 C   0  0  0  0  0  0
  -25.4110  -36.3091   24.0328 C   0  0  1  0  0  0
  -20.5885  -28.3682   23.1302 C   0  0  2  0  0  0
  -20.6764  -26.9405   22.5434 C   0  0  0  0  0  0
  -19.5748  -26.6385   21.5228 C   0  0  0  0  0  0
  -18.1926  -26.7940   22.1619 C   0  0  0  0  0  0
  -19.1536  -28.8854   23.2897 C   0  0  0  0  0  0
  -18.9457  -30.1454   23.8905 C   0  0  0  0  0  0
  -17.6455  -30.6589   24.0563 C   0  0  0  0  0  0
  -25.9045  -34.9457   23.5107 C   0  0  0  0  0  0
  -16.5350  -29.9091   23.6326 C   0  0  0  0  0  0
  -16.7274  -28.6513   23.0346 C   0  0  0  0  0  0
  -26.4469  -31.6608   25.0722 C   0  0  0  0  0  0
  -25.3706  -31.3762   26.1460 C   0  0  0  0  0  0
  -27.0307  -30.3027   24.6187 C   0  0  0  0  0  0
  -27.6013  -32.4359   25.7481 C   0  0  0  0  0  0
  -27.5583  -37.1806   24.8458 C   0  0  0  0  0  0
  -21.4185  -29.3020   22.3679 N   0  0  0  0  0  0
  -26.4292  -37.3787   23.9406 N   0  0  0  0  0  0
  -24.6842  -31.0620   22.0960 N   0  0  0  0  0  0
  -23.4211  -28.8152   23.3001 O   0  0  0  0  0  0
  -28.3554  -26.4960   20.1963 O   0  0  0  0  0  0
  -26.5631  -34.8917   22.4687 O   0  0  0  0  0  0
  -23.5391  -32.1375   23.7368 O   0  0  0  0  0  0
  -29.3081  -21.4532   20.4147 C   0  0  0  0  0  0
  -30.2662  -20.3917   20.6694 C   0  0  0  0  0  0
  -29.8577  -22.6997   20.7043 C   0  0  0  0  0  0
  -31.3882  -21.0484   21.0991 C   0  0  0  0  0  0
  -28.4390  -24.3101   22.1296 C   0  0  0  0  0  0
  -32.5977  -24.3628   20.2387 C   0  0  0  0  0  0
  -33.5423  -23.2649   20.6503 C   0  0  0  0  0  0
  -27.2335  -24.4904   21.2082 C   0  0  0  0  0  0
  -29.9301  -18.0926   21.8962 C   0  0  0  0  0  0
  -29.3479  -18.1200   19.5432 C   0  0  0  0  0  0
  -30.3144  -16.5780   21.8651 C   0  0  0  0  0  0
  -29.7046  -16.5927   19.4105 C   0  0  0  0  0  0
  -30.2301  -18.8242   20.5787 C   0  0  0  0  0  0
  -29.3141  -24.1610   20.8779 C   0  0  2  0  0  0
  -32.2111  -23.4224   21.3650 C   0  0  0  0  0  0
  -28.1994  -25.0185   20.1308 C   0  0  2  0  0  0
  -32.6778  -20.4542   21.6051 C   0  0  0  0  0  0
  -31.1925  -22.4276   21.0209 N   0  0  0  0  0  0
  -29.9722  -15.7854   20.6489 N   0  0  0  0  0  0
  -31.4608  -12.4577   19.1612 H   0  0  0  0  0  0
  -30.3060  -11.3918   19.9140 H   0  0  0  0  0  0
  -29.7621  -11.7446   17.4745 H   0  0  0  0  0  0
  -29.6517  -13.4684   17.7350 H   0  0  0  0  0  0
  -27.8399  -11.3051   18.8440 H   0  0  0  0  0  0
  -27.3712  -12.5974   17.7754 H   0  0  0  0  0  0
  -27.6454  -14.2620   19.4964 H   0  0  0  0  0  0
  -28.6888  -12.1315   21.4192 H   0  0  0  0  0  0
  -28.4509  -13.8246   21.7841 H   0  0  0  0  0  0
  -25.2752   -9.5731   22.4722 H   0  0  0  0  0  0
  -24.0026   -7.4650   22.7429 H   0  0  0  0  0  0
  -21.0853   -8.8753   19.8949 H   0  0  0  0  0  0
  -22.3654  -10.9659   19.6150 H   0  0  0  0  0  0
  -21.1998   -7.6141   23.9713 H   0  0  0  0  0  0
  -21.1488   -6.0510   25.9079 H   0  0  0  0  0  0
  -22.0601   -2.7601   23.2835 H   0  0  0  0  0  0
  -22.4115  -11.9902   22.4870 H   0  0  0  0  0  0
  -21.1055  -13.1195   22.2567 H   0  0  0  0  0  0
  -24.6617  -15.8521   20.5302 H   0  0  0  0  0  0
  -26.2931  -15.6305   20.1422 H   0  0  0  0  0  0
  -26.7150  -32.5446   23.1096 H   0  0  0  0  0  0
  -24.9986  -33.9727   25.0373 H   0  0  0  0  0  0
  -22.7122  -31.3037   21.4028 H   0  0  0  0  0  0
  -23.3741  -35.9639   23.3311 H   0  0  0  0  0  0
  -24.3560  -36.8922   22.2061 H   0  0  0  0  0  0
  -23.7232  -37.6502   23.6665 H   0  0  0  0  0  0
  -26.0901  -31.5601   20.6071 H   0  0  0  0  0  0
  -26.8355  -30.8407   22.0027 H   0  0  0  0  0  0
  -28.1096  -28.9959   21.1944 H   0  0  0  0  0  0
  -26.0033  -25.9312   19.0013 H   0  0  0  0  0  0
  -23.9833  -27.3059   18.9989 H   0  0  0  0  0  0
  -23.7466  -30.5894   19.3999 H   0  0  0  0  0  0
  -22.7532  -29.2410   19.8592 H   0  0  0  0  0  0
  -25.1292  -36.1949   25.0823 H   0  0  0  0  0  0
  -20.9996  -28.3252   24.1416 H   0  0  0  0  0  0
  -20.5660  -26.2289   23.3627 H   0  0  0  0  0  0
  -21.6634  -26.7428   22.1232 H   0  0  0  0  0  0
  -19.6902  -25.6303   21.1243 H   0  0  0  0  0  0
  -19.6692  -27.3195   20.6765 H   0  0  0  0  0  0
  -17.4209  -26.6711   21.4009 H   0  0  0  0  0  0
  -18.0297  -26.0073   22.9001 H   0  0  0  0  0  0
  -19.7935  -30.7270   24.2276 H   0  0  0  0  0  0
  -17.5012  -31.6263   24.5176 H   0  0  0  0  0  0
  -15.5351  -30.2991   23.7653 H   0  0  0  0  0  0
  -15.8673  -28.0836   22.7046 H   0  0  0  0  0  0
  -24.5845  -30.7159   25.7788 H   0  0  0  0  0  0
  -24.8941  -32.2947   26.4908 H   0  0  0  0  0  0
  -25.8027  -30.8910   27.0227 H   0  0  0  0  0  0
  -26.2892  -29.6789   24.1192 H   0  0  0  0  0  0
  -27.3975  -29.7275   25.4702 H   0  0  0  0  0  0
  -27.8772  -30.4299   23.9430 H   0  0  0  0  0  0
  -27.2598  -33.3635   26.2089 H   0  0  0  0  0  0
  -28.3801  -32.6984   25.0306 H   0  0  0  0  0  0
  -28.0726  -31.8490   26.5377 H   0  0  0  0  0  0
  -28.2610  -38.0095   24.7503 H   0  0  0  0  0  0
  -28.1072  -36.2631   24.6283 H   0  0  0  0  0  0
  -27.2308  -37.1463   25.8862 H   0  0  0  0  0  0
  -20.9369  -29.8744   21.6882 H   0  0  0  0  0  0
  -26.0173  -38.2863   24.1406 H   0  0  0  0  0  0
  -28.2804  -21.3082   20.1125 H   0  0  0  0  0  0
  -28.3850  -23.4285   22.7696 H   0  0  0  0  0  0
  -28.6739  -25.2067   22.7056 H   0  0  0  0  0  0
  -32.0929  -24.2542   19.2797 H   0  0  0  0  0  0
  -32.8797  -25.3793   20.5037 H   0  0  0  0  0  0
  -34.4343  -23.5350   21.2139 H   0  0  0  0  0  0
  -33.6726  -22.4457   19.9467 H   0  0  0  0  0  0
  -26.4875  -25.1891   21.5842 H   0  0  0  0  0  0
  -26.7762  -23.5404   20.9244 H   0  0  0  0  0  0
  -30.4764  -18.5688   22.7102 H   0  0  0  0  0  0
  -28.8753  -18.2097   22.1484 H   0  0  0  0  0  0
  -28.2948  -18.2412   19.8005 H   0  0  0  0  0  0
  -29.4769  -18.5991   18.5697 H   0  0  0  0  0  0
  -29.8731  -16.0872   22.7334 H   0  0  0  0  0  0
  -31.3946  -16.5187   22.0233 H   0  0  0  0  0  0
  -30.5889  -16.5344   18.7733 H   0  0  0  0  0  0
  -28.9150  -16.1017   18.8387 H   0  0  0  0  0  0
  -31.2519  -18.5615   20.2945 H   0  0  0  0  0  0
  -30.1574  -24.8372   20.9841 H   0  0  0  0  0  0
  -32.1613  -23.7675   22.3954 H   0  0  0  0  0  0
  -27.9872  -24.6573   19.1234 H   0  0  0  0  0  0
  -32.4973  -19.5403   22.1688 H   0  0  0  0  0  0
  -33.2065  -21.1219   22.2849 H   0  0  0  0  0  0
  -33.3467  -20.2036   20.7831 H   0  0  0  0  0  0
  1 25  1  0  0  0
  1 30  2  0  0  0
  1 89  1  0  0  0
  2  3  1  0  0  0
  2 25  1  0  0  0
  2 90  1  0  0  0
  2 91  1  0  0  0
  3  4  1  0  0  0
  3 92  1  0  0  0
  3 93  1  0  0  0
  4  5  1  0  0  0
  4 94  1  0  0  0
  4 95  1  0  0  0
  5  6  1  0  0  0
  5 26  1  0  0  0
  5 96  1  0  0  0
  6 25  1  0  0  0
  6 97  1  0  0  0
  6 98  1  0  0  0
  7  8  2  0  0  0
  7 26  1  0  0  0
  7 29  1  0  0  0
  8  9  1  0  0  0
  8 22  1  0  0  0
  9 10  1  0  0  0
  9 27  2  0  0  0
 10 11  2  0  0  0
 10 15  1  0  0  0
 11 12  1  0  0  0
 11 99  1  0  0  0
 12 13  2  0  0  0
 12100  1  0  0  0
 13 14  1  0  0  0
 13 31  1  0  0  0
 14 15  2  0  0  0
 14101  1  0  0  0
 15102  1  0  0  0
 16 17  2  0  0  0
 16 21  1  0  0  0
 16 31  1  0  0  0
 17 18  1  0  0  0
 17103  1  0  0  0
 18 19  2  0  0  0
 18104  1  0  0  0
 19 20  1  0  0  0
 19 24  1  0  0  0
 20 21  2  0  0  0
 20105  1  0  0  0
 21 23  1  0  0  0
 22 28  1  0  0  0
 22 32  2  0  0  0
 26 27  1  0  0  0
 28106  1  0  0  0
 28107  1  0  0  0
 29108  1  0  0  0
 29109  1  0  0  0
 33 34  1  0  0  0
 33 66  1  0  0  0
 33 70  2  0  0  0
 34 36  1  0  0  0
 34 59  1  0  0  0
 34110  1  0  0  0
 35 44  2  0  0  0
 35 45  1  0  0  0
 35 68  1  0  0  0
 36 56  1  0  0  0
 36111  1  0  0  0
 37 39  1  0  0  0
 37 47  1  0  0  0
 37 66  1  0  0  0
 37112  1  0  0  0
 38 43  2  0  0  0
 38 46  1  0  0  0
 38 47  1  0  0  0
 39 64  1  0  0  0
 39 67  2  0  0  0
 40 52  1  0  0  0
 40 53  2  0  0  0
 40 58  1  0  0  0
 41113  1  0  0  0
 41114  1  0  0  0
 41115  1  0  0  0
 41 48  1  0  0  0
 42 43  1  0  0  0
 42 66  1  0  0  0
 42116  1  0  0  0
 42117  1  0  0  0
 43 44  1  0  0  0
 44118  1  0  0  0
 45 46  2  0  0  0
 45119  1  0  0  0
 46120  1  0  0  0
 47121  1  0  0  0
 47122  1  0  0  0
 48 56  1  0  0  0
 48 65  1  0  0  0
 48123  1  0  0  0
 49 50  1  0  0  0
 49 53  1  0  0  0
 49 64  1  0  0  0
 49124  1  0  0  0
 50 51  1  0  0  0
 50125  1  0  0  0
 50126  1  0  0  0
 51 52  1  0  0  0
 51127  1  0  0  0
 51128  1  0  0  0
 52129  1  0  0  0
 52130  1  0  0  0
 53 54  1  0  0  0
 54 55  2  0  0  0
 54131  1  0  0  0
 55 57  1  0  0  0
 55132  1  0  0  0
 56 69  2  0  0  0
 57 58  2  0  0  0
 57133  1  0  0  0
 58134  1  0  0  0
 59 60  1  0  0  0
 59 61  1  0  0  0
 59 62  1  0  0  0
 60135  1  0  0  0
 60136  1  0  0  0
 60137  1  0  0  0
 61138  1  0  0  0
 61139  1  0  0  0
 61140  1  0  0  0
 62141  1  0  0  0
 62142  1  0  0  0
 62143  1  0  0  0
 63 65  1  0  0  0
 63144  1  0  0  0
 63145  1  0  0  0
 63146  1  0  0  0
 64147  1  0  0  0
 65148  1  0  0  0
 68 86  1  0  0  0
 71 72  1  0  0  0
 71 73  2  0  0  0
 71149  1  0  0  0
 72 74  2  0  0  0
 72 83  1  0  0  0
 73 88  1  0  0  0
 73 84  1  0  0  0
 74 87  1  0  0  0
 74 88  1  0  0  0
 75 78  1  0  0  0
 75 84  1  0  0  0
 75150  1  0  0  0
 75151  1  0  0  0
 76 77  1  0  0  0
 76 85  1  0  0  0
 76152  1  0  0  0
 76153  1  0  0  0
 77 85  1  0  0  0
 77154  1  0  0  0
 77155  1  0  0  0
 78 86  1  0  0  0
 78156  1  0  0  0
 78157  1  0  0  0
 79 81  1  0  0  0
 79 83  1  0  0  0
 79158  1  0  0  0
 79159  1  0  0  0
 80 82  1  0  0  0
 80 83  1  0  0  0
 80160  1  0  0  0
 80161  1  0  0  0
 81 89  1  0  0  0
 81162  1  0  0  0
 81163  1  0  0  0
 82 89  1  0  0  0
 82164  1  0  0  0
 82165  1  0  0  0
 83166  1  0  0  0
 84 86  1  0  0  0
 84167  1  0  0  0
 85 88  1  0  0  0
 85168  1  0  0  0
 86169  1  0  0  0
 87170  1  0  0  0
 87171  1  0  0  0
 87172  1  0  0  0
M  ISO  4   1 100  68 101  86 101  89 100
M  END
> <chiral flag>
0

> <version>
0

> <s_m_source_file>
/data/baiqing/PycharmProjects/Reinvent-master-3.2/result/LINK_invent/BTK/process_docking_weight1_custom_sum_contain_oxygen_bond_distance_aromatic_linkinvent_7_9_3/rearranged_h_0170.sdf

> <i_m_source_file_index>
44

> <r_mmod_Potential_Energy-OPLS-2005>
388.449493408203

> <r_mmod_Stretch_Energy-OPLS-2005>
81.724235534668

> <r_mmod_Bend_Energy-OPLS-2005>
192.64208984375

> <r_mmod_Torsional_Energy-OPLS-2005>
418.702392578125

> <r_mmod_Improper_Torsional_Energy-OPLS-2005>
10.5883684158325

> <r_mmod_Van_der_Waal_Energy-OPLS-2005>
130.305923461914

> <r_mmod_Electrostatic_Energy-OPLS-2005>
-307.497467041016

> <r_mmod_Solvation_Energy-OPLS-2005>
-185.13557434082

> <b_mmod_Minimization_Converged-OPLS-2005>
0

> <r_mmod_RMS_Derivative-OPLS-2005>
2.90008091926575

$$$$
45
                    3D
 Structure written by MMmdl.
170179  0  0  1  0            999 V2000
  -30.6522  -14.6735   20.4734 C   0  0  0  0  0  0
  -30.4281  -12.4151   19.4577 C   0  0  0  0  0  0
  -29.5052  -12.4946   18.2220 C   0  0  0  0  0  0
  -28.0289  -12.3313   18.6351 C   0  0  0  0  0  0
  -27.6422  -13.2257   19.8440 C   0  0  2  0  0  0
  -28.6895  -13.1433   20.9773 C   0  0  0  0  0  0
  -25.2521  -13.8185   20.5673 C   0  0  0  0  0  0
  -24.1807  -13.0439   20.9201 C   0  0  0  0  0  0
  -24.6381  -11.6911   20.8734 C   0  0  0  0  0  0
  -23.9051  -10.4290   21.0388 C   0  0  0  0  0  0
  -24.3615   -9.4208   21.9164 C   0  0  0  0  0  0
  -23.6300   -8.2240   22.0727 C   0  0  0  0  0  0
  -22.4279   -8.0268   21.3530 C   0  0  0  0  0  0
  -21.9904   -9.0227   20.4630 C   0  0  0  0  0  0
  -22.7221  -10.2119   20.3036 C   0  0  0  0  0  0
  -21.6855   -6.0725   22.5274 C   0  0  0  0  0  0
  -21.4011   -6.5635   23.8208 C   0  0  0  0  0  0
  -21.3664   -5.6785   24.9175 C   0  0  0  0  0  0
  -21.6053   -4.3049   24.7218 C   0  0  0  0  0  0
  -21.8823   -3.8140   23.4343 C   0  0  0  0  0  0
  -21.9195   -4.6954   22.3405 C   0  0  0  0  0  0
  -22.7832  -13.5217   21.1865 C   0  0  0  0  0  0
  -22.1669   -4.2137   21.0981 F   0  0  0  0  0  0
  -21.5634   -3.4536   25.7733 F   0  0  0  0  0  0
  -29.9968  -13.4714   20.3953 N   0  0  0  0  0  0
  -26.2933  -12.9384   20.3231 N   0  0  0  0  0  0
  -25.9315  -11.6535   20.5724 N   0  0  0  0  0  0
  -22.0495  -12.8193   22.0427 N   0  0  0  0  0  0
  -25.4221  -15.1902   20.4083 N   0  0  0  0  0  0
  -31.8425  -14.7664   20.1658 O   0  0  0  0  0  0
  -21.6648   -6.8860   21.4230 O   0  0  0  0  0  0
  -22.3518  -14.5527   20.6720 O   0  0  0  0  0  0
  -24.6290  -31.8574   23.2010 C   0  0  0  0  0  0
  -25.9141  -32.4756   23.8337 C   0  0  1  0  0  0
  -27.2300  -27.3059   20.1012 C   0  0  0  0  0  0
  -25.5967  -33.8557   24.2260 N   0  0  0  0  0  0
  -23.4229  -30.4826   21.5438 C   0  0  2  0  0  0
  -24.8674  -28.9335   20.1091 C   0  0  0  0  0  0
  -22.7489  -29.4620   22.4927 C   0  0  0  0  0  0
  -18.0288  -28.1406   22.8480 C   0  0  0  0  0  0
  -24.1496  -36.7270   23.2640 C   0  0  0  0  0  0
  -25.9653  -30.7828   21.3738 C   0  0  0  0  0  0
  -26.0375  -29.4101   20.7123 C   0  0  0  0  0  0
  -27.2170  -28.6052   20.7044 C   0  0  0  0  0  0
  -26.0237  -26.8729   19.5021 C   0  0  0  0  0  0
  -24.8623  -27.6692   19.5011 C   0  0  0  0  0  0
  -23.6366  -29.8177   20.1588 C   0  0  0  0  0  0
  -25.4122  -36.3057   24.0324 C   0  0  1  0  0  0
  -20.5889  -28.3698   23.1285 C   0  0  2  0  0  0
  -20.6778  -26.9426   22.5417 C   0  0  0  0  0  0
  -19.5762  -26.6394   21.5220 C   0  0  0  0  0  0
  -18.1934  -26.7954   22.1611 C   0  0  0  0  0  0
  -19.1538  -28.8870   23.2879 C   0  0  0  0  0  0
  -18.9457  -30.1470   23.8893 C   0  0  0  0  0  0
  -17.6462  -30.6603   24.0565 C   0  0  0  0  0  0
  -25.9069  -34.9436   23.5083 C   0  0  0  0  0  0
  -16.5349  -29.9096   23.6348 C   0  0  0  0  0  0
  -16.7271  -28.6521   23.0350 C   0  0  0  0  0  0
  -26.4520  -31.6579   25.0719 C   0  0  0  0  0  0
  -25.3756  -31.3758   26.1457 C   0  0  0  0  0  0
  -27.0332  -30.2982   24.6204 C   0  0  0  0  0  0
  -27.6106  -32.4295   25.7467 C   0  0  0  0  0  0
  -27.5584  -37.1783   24.8455 C   0  0  0  0  0  0
  -21.4202  -29.3041   22.3664 N   0  0  0  0  0  0
  -26.4281  -37.3766   23.9425 N   0  0  0  0  0  0
  -24.6914  -31.0572   22.0964 N   0  0  0  0  0  0
  -23.4200  -28.8165   23.3019 O   0  0  0  0  0  0
  -28.3586  -26.4658   20.1703 O   0  0  0  0  0  0
  -26.5618  -34.8909   22.4637 O   0  0  0  0  0  0
  -23.5454  -32.1381   23.7340 O   0  0  0  0  0  0
  -27.9931  -22.7892   19.1083 C   0  0  0  0  0  0
  -28.7382  -23.8220   19.7324 C   0  0  0  0  0  0
  -28.3167  -21.4030   19.2580 C   0  0  0  0  0  0
  -29.7920  -23.3443   20.5558 C   0  0  0  0  0  0
  -29.3830  -21.0214   20.1207 C   0  0  0  0  0  0
  -29.2319  -18.4090   20.7140 C   0  0  0  0  0  0
  -31.2283  -19.3537   19.7975 C   0  0  0  0  0  0
  -30.3440  -17.2748   20.7837 C   0  0  2  0  0  0
  -31.2901  -17.8081   19.6786 C   0  0  2  0  0  0
  -30.7323  -24.3252   21.2313 C   0  0  0  0  0  0
  -27.7555  -20.6847   16.8839 C   0  0  0  0  0  0
  -26.0959  -20.2790   18.7735 C   0  0  0  0  0  0
  -28.5474  -25.3224   19.2495 C   0  0  0  0  0  0
  -27.5756  -20.3905   18.3825 C   0  0  0  0  0  0
  -30.0829  -22.0112   20.7442 N   0  0  0  0  0  0
  -29.8855  -19.6740   20.2593 N   0  0  0  0  0  0
  -29.9099  -15.8141   20.6799 N   0  0  0  0  0  0
  -32.6613  -17.2806   19.7584 N   0  3  0  0  0  0
  -31.4714  -12.5280   19.1561 H   0  0  0  0  0  0
  -30.3590  -11.4352   19.9324 H   0  0  0  0  0  0
  -29.7794  -11.7237   17.5012 H   0  0  0  0  0  0
  -29.6401  -13.4513   17.7148 H   0  0  0  0  0  0
  -27.8740  -11.2812   18.8842 H   0  0  0  0  0  0
  -27.3729  -12.5374   17.7877 H   0  0  0  0  0  0
  -27.6402  -14.2503   19.4717 H   0  0  0  0  0  0
  -28.7091  -12.1442   21.4166 H   0  0  0  0  0  0
  -28.4339  -13.8279   21.7880 H   0  0  0  0  0  0
  -25.2769   -9.5703   22.4723 H   0  0  0  0  0  0
  -24.0033   -7.4627   22.7437 H   0  0  0  0  0  0
  -21.0836   -8.8720   19.8936 H   0  0  0  0  0  0
  -22.3660  -10.9639   19.6142 H   0  0  0  0  0  0
  -21.1990   -7.6139   23.9708 H   0  0  0  0  0  0
  -21.1495   -6.0516   25.9077 H   0  0  0  0  0  0
  -22.0599   -2.7594   23.2843 H   0  0  0  0  0  0
  -22.4141  -11.9880   22.4834 H   0  0  0  0  0  0
  -21.1094  -13.1178   22.2606 H   0  0  0  0  0  0
  -24.6505  -15.8402   20.5112 H   0  0  0  0  0  0
  -26.2600  -15.6266   20.0482 H   0  0  0  0  0  0
  -26.7204  -32.5407   23.1075 H   0  0  0  0  0  0
  -25.0149  -33.9695   25.0427 H   0  0  0  0  0  0
  -22.7192  -31.3051   21.4019 H   0  0  0  0  0  0
  -23.3770  -35.9588   23.3261 H   0  0  0  0  0  0
  -24.3611  -36.8932   22.2066 H   0  0  0  0  0  0
  -23.7220  -37.6449   23.6685 H   0  0  0  0  0  0
  -26.1022  -31.5488   20.6090 H   0  0  0  0  0  0
  -26.8432  -30.8248   22.0071 H   0  0  0  0  0  0
  -28.1140  -28.9678   21.1869 H   0  0  0  0  0  0
  -25.9303  -25.8890   19.0682 H   0  0  0  0  0  0
  -23.9570  -27.2894   19.0464 H   0  0  0  0  0  0
  -23.7587  -30.5951   19.4038 H   0  0  0  0  0  0
  -22.7539  -29.2521   19.8548 H   0  0  0  0  0  0
  -25.1300  -36.1890   25.0813 H   0  0  0  0  0  0
  -20.9973  -28.3272   24.1407 H   0  0  0  0  0  0
  -20.5694  -26.2306   23.3614 H   0  0  0  0  0  0
  -21.6648  -26.7478   22.1197 H   0  0  0  0  0  0
  -19.6928  -25.6301   21.1260 H   0  0  0  0  0  0
  -19.6721  -27.3197   20.6746 H   0  0  0  0  0  0
  -17.4217  -26.6710   21.4001 H   0  0  0  0  0  0
  -18.0322  -26.0103   22.9007 H   0  0  0  0  0  0
  -19.7934  -30.7293   24.2257 H   0  0  0  0  0  0
  -17.5016  -31.6294   24.5153 H   0  0  0  0  0  0
  -15.5350  -30.2991   23.7705 H   0  0  0  0  0  0
  -15.8669  -28.0856   22.7054 H   0  0  0  0  0  0
  -24.5908  -30.7130   25.7791 H   0  0  0  0  0  0
  -24.8978  -32.2944   26.4878 H   0  0  0  0  0  0
  -25.8081  -30.8934   27.0232 H   0  0  0  0  0  0
  -26.2886  -29.6736   24.1255 H   0  0  0  0  0  0
  -27.4016  -29.7256   25.4724 H   0  0  0  0  0  0
  -27.8775  -30.4225   23.9419 H   0  0  0  0  0  0
  -27.2761  -33.3623   26.2019 H   0  0  0  0  0  0
  -28.3930  -32.6805   25.0290 H   0  0  0  0  0  0
  -28.0755  -31.8424   26.5399 H   0  0  0  0  0  0
  -28.2574  -38.0108   24.7533 H   0  0  0  0  0  0
  -28.1103  -36.2639   24.6225 H   0  0  0  0  0  0
  -27.2321  -37.1350   25.8861 H   0  0  0  0  0  0
  -20.9380  -29.8736   21.6850 H   0  0  0  0  0  0
  -26.0150  -38.2827   24.1471 H   0  0  0  0  0  0
  -27.2117  -23.0691   18.4170 H   0  0  0  0  0  0
  -28.7451  -18.5521   21.6796 H   0  0  0  0  0  0
  -28.4591  -18.1016   20.0128 H   0  0  0  0  0  0
  -31.4399  -19.8376   18.8429 H   0  0  0  0  0  0
  -31.9458  -19.7318   20.5274 H   0  0  0  0  0  0
  -30.8459  -17.3828   21.7469 H   0  0  0  0  0  0
  -30.8748  -17.5261   18.7080 H   0  0  0  0  0  0
  -31.2090  -24.9645   20.4882 H   0  0  0  0  0  0
  -31.5199  -23.8159   21.7870 H   0  0  0  0  0  0
  -30.1838  -24.9637   21.9245 H   0  0  0  0  0  0
  -28.8125  -20.7168   16.6161 H   0  0  0  0  0  0
  -27.3055  -21.6303   16.5832 H   0  0  0  0  0  0
  -27.2980  -19.8994   16.2812 H   0  0  0  0  0  0
  -25.9861  -20.0121   19.8252 H   0  0  0  0  0  0
  -25.5959  -19.5070   18.1879 H   0  0  0  0  0  0
  -25.5604  -21.2141   18.6090 H   0  0  0  0  0  0
  -27.8277  -25.3309   18.4333 H   0  0  0  0  0  0
  -29.4791  -25.5565   18.7338 H   0  0  0  0  0  0
  -28.0194  -19.4103   18.5101 H   0  0  0  0  0  0
  -28.9301  -15.6453   20.8453 H   0  0  0  0  0  0
  -33.1417  -17.6136   20.5743 H   0  0  0  0  0  0
  -33.1931  -17.5234   18.9417 H   0  0  0  0  0  0
  -32.5928  -16.2674   19.8194 H   0  0  0  0  0  0
  1 25  1  0  0  0
  1 30  2  0  0  0
  1 87  1  0  0  0
  2  3  1  0  0  0
  2 25  1  0  0  0
  2 89  1  0  0  0
  2 90  1  0  0  0
  3  4  1  0  0  0
  3 91  1  0  0  0
  3 92  1  0  0  0
  4  5  1  0  0  0
  4 93  1  0  0  0
  4 94  1  0  0  0
  5  6  1  0  0  0
  5 26  1  0  0  0
  5 95  1  0  0  0
  6 25  1  0  0  0
  6 96  1  0  0  0
  6 97  1  0  0  0
  7  8  2  0  0  0
  7 26  1  0  0  0
  7 29  1  0  0  0
  8  9  1  0  0  0
  8 22  1  0  0  0
  9 10  1  0  0  0
  9 27  2  0  0  0
 10 11  2  0  0  0
 10 15  1  0  0  0
 11 12  1  0  0  0
 11 98  1  0  0  0
 12 13  2  0  0  0
 12 99  1  0  0  0
 13 14  1  0  0  0
 13 31  1  0  0  0
 14 15  2  0  0  0
 14100  1  0  0  0
 15101  1  0  0  0
 16 17  2  0  0  0
 16 21  1  0  0  0
 16 31  1  0  0  0
 17 18  1  0  0  0
 17102  1  0  0  0
 18 19  2  0  0  0
 18103  1  0  0  0
 19 20  1  0  0  0
 19 24  1  0  0  0
 20 21  2  0  0  0
 20104  1  0  0  0
 21 23  1  0  0  0
 22 28  1  0  0  0
 22 32  2  0  0  0
 26 27  1  0  0  0
 28105  1  0  0  0
 28106  1  0  0  0
 29107  1  0  0  0
 29108  1  0  0  0
 33 34  1  0  0  0
 33 66  1  0  0  0
 33 70  2  0  0  0
 34 36  1  0  0  0
 34 59  1  0  0  0
 34109  1  0  0  0
 35 44  2  0  0  0
 35 45  1  0  0  0
 35 68  1  0  0  0
 36 56  1  0  0  0
 36110  1  0  0  0
 37 39  1  0  0  0
 37 47  1  0  0  0
 37 66  1  0  0  0
 37111  1  0  0  0
 38 43  2  0  0  0
 38 46  1  0  0  0
 38 47  1  0  0  0
 39 64  1  0  0  0
 39 67  2  0  0  0
 40 52  1  0  0  0
 40 53  2  0  0  0
 40 58  1  0  0  0
 41112  1  0  0  0
 41113  1  0  0  0
 41114  1  0  0  0
 41 48  1  0  0  0
 42 43  1  0  0  0
 42 66  1  0  0  0
 42115  1  0  0  0
 42116  1  0  0  0
 43 44  1  0  0  0
 44117  1  0  0  0
 45 46  2  0  0  0
 45118  1  0  0  0
 46119  1  0  0  0
 47120  1  0  0  0
 47121  1  0  0  0
 48 56  1  0  0  0
 48 65  1  0  0  0
 48122  1  0  0  0
 49 50  1  0  0  0
 49 53  1  0  0  0
 49 64  1  0  0  0
 49123  1  0  0  0
 50 51  1  0  0  0
 50124  1  0  0  0
 50125  1  0  0  0
 51 52  1  0  0  0
 51126  1  0  0  0
 51127  1  0  0  0
 52128  1  0  0  0
 52129  1  0  0  0
 53 54  1  0  0  0
 54 55  2  0  0  0
 54130  1  0  0  0
 55 57  1  0  0  0
 55131  1  0  0  0
 56 69  2  0  0  0
 57 58  2  0  0  0
 57132  1  0  0  0
 58133  1  0  0  0
 59 60  1  0  0  0
 59 61  1  0  0  0
 59 62  1  0  0  0
 60134  1  0  0  0
 60135  1  0  0  0
 60136  1  0  0  0
 61137  1  0  0  0
 61138  1  0  0  0
 61139  1  0  0  0
 62140  1  0  0  0
 62141  1  0  0  0
 62142  1  0  0  0
 63 65  1  0  0  0
 63143  1  0  0  0
 63144  1  0  0  0
 63145  1  0  0  0
 64146  1  0  0  0
 65147  1  0  0  0
 68 83  1  0  0  0
 71 72  2  0  0  0
 71 73  1  0  0  0
 71148  1  0  0  0
 72 74  1  0  0  0
 72 83  1  0  0  0
 73 75  2  0  0  0
 73 84  1  0  0  0
 74 80  1  0  0  0
 74 85  2  0  0  0
 75 85  1  0  0  0
 75 86  1  0  0  0
 76 78  1  0  0  0
 76 86  1  0  0  0
 76149  1  0  0  0
 76150  1  0  0  0
 77 79  1  0  0  0
 77 86  1  0  0  0
 77151  1  0  0  0
 77152  1  0  0  0
 78 79  1  0  0  0
 78 87  1  0  0  0
 78153  1  0  0  0
 79 88  1  0  0  0
 79154  1  0  0  0
 80155  1  0  0  0
 80156  1  0  0  0
 80157  1  0  0  0
 81158  1  0  0  0
 81159  1  0  0  0
 81160  1  0  0  0
 81 84  1  0  0  0
 82 84  1  0  0  0
 82161  1  0  0  0
 82162  1  0  0  0
 82163  1  0  0  0
 83164  1  0  0  0
 83165  1  0  0  0
 84166  1  0  0  0
 87167  1  0  0  0
 88168  1  0  0  0
 88169  1  0  0  0
 88170  1  0  0  0
M  CHG  1  88   1
M  ISO  4   1 100  68 101  83 101  87 100
M  END
> <chiral flag>
0

> <version>
0

> <s_m_source_file>
/data/baiqing/PycharmProjects/Reinvent-master-3.2/result/LINK_invent/BTK/process_docking_weight1_custom_sum_contain_oxygen_bond_distance_aromatic_linkinvent_7_9_3/rearranged_h_0170.sdf

> <i_m_source_file_index>
45

> <r_mmod_Potential_Energy-OPLS-2005>
-356.824249267578

> <r_mmod_Stretch_Energy-OPLS-2005>
89.3268661499023

> <r_mmod_Bend_Energy-OPLS-2005>
217.523086547852

> <r_mmod_Torsional_Energy-OPLS-2005>
323.881042480469

> <r_mmod_Improper_Torsional_Energy-OPLS-2005>
8.29112911224365

> <r_mmod_Van_der_Waal_Energy-OPLS-2005>
148.74983215332

> <r_mmod_Electrostatic_Energy-OPLS-2005>
-729.456726074219

> <r_mmod_Solvation_Energy-OPLS-2005>
-475.303802490234

> <b_mmod_Minimization_Converged-OPLS-2005>
0

> <r_mmod_RMS_Derivative-OPLS-2005>
2.09234690666199

$$$$
46
                    3D
 Structure written by MMmdl.
162171  0  0  1  0            999 V2000
  -30.5707  -14.7902   20.4731 C   0  0  0  0  0  0
  -30.4342  -12.4803   19.4846 C   0  0  0  0  0  0
  -29.5139  -12.5189   18.2424 C   0  0  0  0  0  0
  -28.0389  -12.3314   18.6501 C   0  0  0  0  0  0
  -27.6385  -13.2280   19.8513 C   0  0  2  0  0  0
  -28.6812  -13.1578   20.9869 C   0  0  0  0  0  0
  -25.2474  -13.8162   20.5647 C   0  0  0  0  0  0
  -24.1786  -13.0412   20.9211 C   0  0  0  0  0  0
  -24.6379  -11.6895   20.8760 C   0  0  0  0  0  0
  -23.9058  -10.4268   21.0405 C   0  0  0  0  0  0
  -24.3605   -9.4196   21.9195 C   0  0  0  0  0  0
  -23.6286   -8.2224   22.0774 C   0  0  0  0  0  0
  -22.4271   -8.0263   21.3552 C   0  0  0  0  0  0
  -21.9895   -9.0237   20.4653 C   0  0  0  0  0  0
  -22.7226  -10.2112   20.3065 C   0  0  0  0  0  0
  -21.6836   -6.0740   22.5291 C   0  0  0  0  0  0
  -21.4008   -6.5647   23.8228 C   0  0  0  0  0  0
  -21.3665   -5.6797   24.9194 C   0  0  0  0  0  0
  -21.6042   -4.3061   24.7237 C   0  0  0  0  0  0
  -21.8817   -3.8153   23.4356 C   0  0  0  0  0  0
  -21.9188   -4.6969   22.3407 C   0  0  0  0  0  0
  -22.7815  -13.5228   21.1875 C   0  0  0  0  0  0
  -22.1662   -4.2144   21.0984 F   0  0  0  0  0  0
  -21.5621   -3.4547   25.7748 F   0  0  0  0  0  0
  -29.9768  -13.5424   20.4124 N   0  0  0  0  0  0
  -26.2911  -12.9368   20.3267 N   0  0  0  0  0  0
  -25.9305  -11.6524   20.5767 N   0  0  0  0  0  0
  -22.0462  -12.8211   22.0421 N   0  0  0  0  0  0
  -25.4106  -15.1884   20.3995 N   0  0  0  0  0  0
  -31.7628  -14.8930   20.1570 O   0  0  0  0  0  0
  -21.6643   -6.8871   21.4250 O   0  0  0  0  0  0
  -22.3508  -14.5536   20.6723 O   0  0  0  0  0  0
  -24.6328  -31.8480   23.1903 C   0  0  0  0  0  0
  -25.9132  -32.4719   23.8262 C   0  0  1  0  0  0
  -27.2345  -27.2171   20.1433 C   0  0  0  0  0  0
  -25.5889  -33.8537   24.2175 N   0  0  0  0  0  0
  -23.4384  -30.4648   21.5270 C   0  0  2  0  0  0
  -24.8880  -28.8965   20.0964 C   0  0  0  0  0  0
  -22.7548  -29.4539   22.4821 C   0  0  0  0  0  0
  -18.0307  -28.1410   22.8448 C   0  0  0  0  0  0
  -24.1490  -36.7251   23.2668 C   0  0  0  0  0  0
  -25.9796  -30.7508   21.3700 C   0  0  0  0  0  0
  -26.0525  -29.3654   20.7188 C   0  0  0  0  0  0
  -27.2217  -28.5361   20.7303 C   0  0  0  0  0  0
  -26.0500  -26.8183   19.4931 C   0  0  0  0  0  0
  -24.8941  -27.6365   19.4733 C   0  0  0  0  0  0
  -23.6633  -29.7960   20.1407 C   0  0  0  0  0  0
  -25.4116  -36.3043   24.0335 C   0  0  1  0  0  0
  -20.5915  -28.3703   23.1260 C   0  0  2  0  0  0
  -20.6799  -26.9404   22.5420 C   0  0  0  0  0  0
  -19.5755  -26.6369   21.5229 C   0  0  0  0  0  0
  -18.1935  -26.7951   22.1626 C   0  0  0  0  0  0
  -19.1567  -28.8867   23.2856 C   0  0  0  0  0  0
  -18.9526  -30.1472   23.8846 C   0  0  0  0  0  0
  -17.6546  -30.6604   24.0569 C   0  0  0  0  0  0
  -25.9053  -34.9434   23.5066 C   0  0  0  0  0  0
  -16.5416  -29.9120   23.6339 C   0  0  0  0  0  0
  -16.7322  -28.6568   23.0290 C   0  0  0  0  0  0
  -26.4490  -31.6585   25.0680 C   0  0  0  0  0  0
  -25.3692  -31.3797   26.1383 C   0  0  0  0  0  0
  -27.0357  -30.3007   24.6191 C   0  0  0  0  0  0
  -27.6020  -32.4350   25.7443 C   0  0  0  0  0  0
  -27.5574  -37.1766   24.8504 C   0  0  0  0  0  0
  -21.4246  -29.3056   22.3628 N   0  0  0  0  0  0
  -26.4284  -37.3740   23.9460 N   0  0  0  0  0  0
  -24.7031  -31.0390   22.0887 N   0  0  0  0  0  0
  -23.4233  -28.8080   23.2941 O   0  0  0  0  0  0
  -28.3533  -26.3512   20.2821 O   0  0  0  0  0  0
  -26.5673  -34.8942   22.4648 O   0  0  0  0  0  0
  -23.5448  -32.1299   23.7173 O   0  0  0  0  0  0
  -31.1981  -17.9760   20.8684 C   0  0  0  0  0  0
  -30.3043  -20.2435   20.6240 C   0  0  0  0  0  0
  -31.4042  -19.3894   20.8784 C   0  0  0  0  0  0
  -29.0690  -19.6672   20.4370 C   0  0  0  0  0  0
  -29.9201  -17.3893   20.6417 C   0  0  0  0  0  0
  -30.2213  -21.7924   20.5231 C   0  0  0  0  0  0
  -28.0416  -20.8338   20.2741 C   0  0  0  0  0  0
  -32.7760  -19.9561   21.1933 C   0  0  0  0  0  0
  -28.1345  -23.7208   21.9766 C   0  0  0  0  0  0
  -30.1186  -25.0048   19.5943 C   0  0  0  0  0  0
  -28.1690  -23.5305   20.4536 C   0  0  1  0  0  0
  -28.5894  -24.9550   19.7182 C   0  0  1  0  0  0
  -28.8630  -18.2854   20.4505 N   0  0  0  0  0  0
  -29.7438  -15.9003   20.6936 N   0  0  0  0  0  0
  -28.8226  -22.1430   20.0595 N   0  3  1  0  0  0
  -31.4760  -12.6107   19.1900 H   0  0  0  0  0  0
  -30.3788  -11.5046   19.9711 H   0  0  0  0  0  0
  -29.8043  -11.7430   17.5331 H   0  0  0  0  0  0
  -29.6261  -13.4725   17.7227 H   0  0  0  0  0  0
  -27.9004  -11.2819   18.9138 H   0  0  0  0  0  0
  -27.3815  -12.5212   17.7999 H   0  0  0  0  0  0
  -27.6327  -14.2510   19.4755 H   0  0  0  0  0  0
  -28.7285  -12.1479   21.3963 H   0  0  0  0  0  0
  -28.4089  -13.8068   21.8195 H   0  0  0  0  0  0
  -25.2750   -9.5677   22.4791 H   0  0  0  0  0  0
  -23.9997   -7.4616   22.7495 H   0  0  0  0  0  0
  -21.0840   -8.8744   19.8966 H   0  0  0  0  0  0
  -22.3684  -10.9647   19.6187 H   0  0  0  0  0  0
  -21.2002   -7.6156   23.9732 H   0  0  0  0  0  0
  -21.1489   -6.0531   25.9083 H   0  0  0  0  0  0
  -22.0586   -2.7615   23.2865 H   0  0  0  0  0  0
  -22.4082  -11.9853   22.4763 H   0  0  0  0  0  0
  -21.1111  -13.1270   22.2693 H   0  0  0  0  0  0
  -24.6150  -15.8181   20.4498 H   0  0  0  0  0  0
  -26.2295  -15.6213   19.9897 H   0  0  0  0  0  0
  -26.7187  -32.5340   23.0952 H   0  0  0  0  0  0
  -25.0019  -33.9658   25.0321 H   0  0  0  0  0  0
  -22.7388  -31.2881   21.3661 H   0  0  0  0  0  0
  -23.3767  -35.9573   23.3340 H   0  0  0  0  0  0
  -24.3595  -36.8834   22.2088 H   0  0  0  0  0  0
  -23.7196  -37.6440   23.6672 H   0  0  0  0  0  0
  -26.1299  -31.5094   20.6009 H   0  0  0  0  0  0
  -26.8541  -30.7931   22.0082 H   0  0  0  0  0  0
  -28.1079  -28.8897   21.2335 H   0  0  0  0  0  0
  -25.9938  -25.8411   19.0376 H   0  0  0  0  0  0
  -23.9984  -27.2754   18.9850 H   0  0  0  0  0  0
  -23.8096  -30.5726   19.3887 H   0  0  0  0  0  0
  -22.7828  -29.2382   19.8212 H   0  0  0  0  0  0
  -25.1264  -36.1865   25.0818 H   0  0  0  0  0  0
  -21.0022  -28.3280   24.1379 H   0  0  0  0  0  0
  -20.5680  -26.2316   23.3621 H   0  0  0  0  0  0
  -21.6660  -26.7392   22.1196 H   0  0  0  0  0  0
  -19.6938  -25.6280   21.1259 H   0  0  0  0  0  0
  -19.6727  -27.3197   20.6773 H   0  0  0  0  0  0
  -17.4222  -26.6700   21.4039 H   0  0  0  0  0  0
  -18.0302  -26.0112   22.9049 H   0  0  0  0  0  0
  -19.8020  -30.7270   24.2189 H   0  0  0  0  0  0
  -17.5137  -31.6270   24.5174 H   0  0  0  0  0  0
  -15.5424  -30.3017   23.7725 H   0  0  0  0  0  0
  -15.8712  -28.0922   22.6938 H   0  0  0  0  0  0
  -24.5897  -30.7064   25.7769 H   0  0  0  0  0  0
  -24.8836  -32.2992   26.4691 H   0  0  0  0  0  0
  -25.7975  -30.9105   27.0248 H   0  0  0  0  0  0
  -26.2966  -29.6713   24.1207 H   0  0  0  0  0  0
  -27.4097  -29.7271   25.4690 H   0  0  0  0  0  0
  -27.8790  -30.4309   23.9399 H   0  0  0  0  0  0
  -27.2614  -33.3709   26.1903 H   0  0  0  0  0  0
  -28.3869  -32.6807   25.0278 H   0  0  0  0  0  0
  -28.0625  -31.8532   26.5451 H   0  0  0  0  0  0
  -28.2556  -38.0093   24.7494 H   0  0  0  0  0  0
  -28.1041  -36.2579   24.6311 H   0  0  0  0  0  0
  -27.2297  -37.1407   25.8912 H   0  0  0  0  0  0
  -20.9482  -29.8854   21.6888 H   0  0  0  0  0  0
  -26.0147  -38.2801   24.1488 H   0  0  0  0  0  0
  -32.0436  -17.3309   21.0660 H   0  0  0  0  0  0
  -30.9693  -22.1481   19.8153 H   0  0  0  0  0  0
  -30.4415  -22.2345   21.4949 H   0  0  0  0  0  0
  -27.4686  -20.8942   21.1988 H   0  0  0  0  0  0
  -27.3427  -20.6335   19.4651 H   0  0  0  0  0  0
  -33.4577  -19.1700   21.5186 H   0  0  0  0  0  0
  -32.7076  -20.6852   21.9999 H   0  0  0  0  0  0
  -33.2148  -20.4461   20.3244 H   0  0  0  0  0  0
  -27.3915  -24.4687   22.2559 H   0  0  0  0  0  0
  -29.0960  -24.0705   22.3520 H   0  0  0  0  0  0
  -27.8746  -22.7988   22.4978 H   0  0  0  0  0  0
  -30.4620  -25.9319   19.1362 H   0  0  0  0  0  0
  -30.5086  -24.1910   18.9845 H   0  0  0  0  0  0
  -30.5835  -24.9434   20.5773 H   0  0  0  0  0  0
  -27.1273  -23.3970   20.1537 H   0  0  0  0  0  0
  -28.1802  -24.9494   18.7071 H   0  0  0  0  0  0
  -28.7960  -15.6195   20.8771 H   0  0  0  0  0  0
  -28.8961  -22.1667   19.0516 H   0  0  0  0  0  0
  1 25  1  0  0  0
  1 30  2  0  0  0
  1 84  1  0  0  0
  2  3  1  0  0  0
  2 25  1  0  0  0
  2 86  1  0  0  0
  2 87  1  0  0  0
  3  4  1  0  0  0
  3 88  1  0  0  0
  3 89  1  0  0  0
  4  5  1  0  0  0
  4 90  1  0  0  0
  4 91  1  0  0  0
  5  6  1  0  0  0
  5 26  1  0  0  0
  5 92  1  0  0  0
  6 25  1  0  0  0
  6 93  1  0  0  0
  6 94  1  0  0  0
  7  8  2  0  0  0
  7 26  1  0  0  0
  7 29  1  0  0  0
  8  9  1  0  0  0
  8 22  1  0  0  0
  9 10  1  0  0  0
  9 27  2  0  0  0
 10 11  2  0  0  0
 10 15  1  0  0  0
 11 12  1  0  0  0
 11 95  1  0  0  0
 12 13  2  0  0  0
 12 96  1  0  0  0
 13 14  1  0  0  0
 13 31  1  0  0  0
 14 15  2  0  0  0
 14 97  1  0  0  0
 15 98  1  0  0  0
 16 17  2  0  0  0
 16 21  1  0  0  0
 16 31  1  0  0  0
 17 18  1  0  0  0
 17 99  1  0  0  0
 18 19  2  0  0  0
 18100  1  0  0  0
 19 20  1  0  0  0
 19 24  1  0  0  0
 20 21  2  0  0  0
 20101  1  0  0  0
 21 23  1  0  0  0
 22 28  1  0  0  0
 22 32  2  0  0  0
 26 27  1  0  0  0
 28102  1  0  0  0
 28103  1  0  0  0
 29104  1  0  0  0
 29105  1  0  0  0
 33 34  1  0  0  0
 33 66  1  0  0  0
 33 70  2  0  0  0
 34 36  1  0  0  0
 34 59  1  0  0  0
 34106  1  0  0  0
 35 44  2  0  0  0
 35 45  1  0  0  0
 35 68  1  0  0  0
 36 56  1  0  0  0
 36107  1  0  0  0
 37 39  1  0  0  0
 37 47  1  0  0  0
 37 66  1  0  0  0
 37108  1  0  0  0
 38 43  2  0  0  0
 38 46  1  0  0  0
 38 47  1  0  0  0
 39 64  1  0  0  0
 39 67  2  0  0  0
 40 52  1  0  0  0
 40 53  2  0  0  0
 40 58  1  0  0  0
 41109  1  0  0  0
 41110  1  0  0  0
 41111  1  0  0  0
 41 48  1  0  0  0
 42 43  1  0  0  0
 42 66  1  0  0  0
 42112  1  0  0  0
 42113  1  0  0  0
 43 44  1  0  0  0
 44114  1  0  0  0
 45 46  2  0  0  0
 45115  1  0  0  0
 46116  1  0  0  0
 47117  1  0  0  0
 47118  1  0  0  0
 48 56  1  0  0  0
 48 65  1  0  0  0
 48119  1  0  0  0
 49 50  1  0  0  0
 49 53  1  0  0  0
 49 64  1  0  0  0
 49120  1  0  0  0
 50 51  1  0  0  0
 50121  1  0  0  0
 50122  1  0  0  0
 51 52  1  0  0  0
 51123  1  0  0  0
 51124  1  0  0  0
 52125  1  0  0  0
 52126  1  0  0  0
 53 54  1  0  0  0
 54 55  2  0  0  0
 54127  1  0  0  0
 55 57  1  0  0  0
 55128  1  0  0  0
 56 69  2  0  0  0
 57 58  2  0  0  0
 57129  1  0  0  0
 58130  1  0  0  0
 59 60  1  0  0  0
 59 61  1  0  0  0
 59 62  1  0  0  0
 60131  1  0  0  0
 60132  1  0  0  0
 60133  1  0  0  0
 61134  1  0  0  0
 61135  1  0  0  0
 61136  1  0  0  0
 62137  1  0  0  0
 62138  1  0  0  0
 62139  1  0  0  0
 63 65  1  0  0  0
 63140  1  0  0  0
 63141  1  0  0  0
 63142  1  0  0  0
 64143  1  0  0  0
 65144  1  0  0  0
 68 82  1  0  0  0
 71 73  2  0  0  0
 71 75  1  0  0  0
 71145  1  0  0  0
 72 73  1  0  0  0
 72 74  2  0  0  0
 72 76  1  0  0  0
 73 78  1  0  0  0
 74 77  1  0  0  0
 74 83  1  0  0  0
 75 83  2  0  0  0
 75 84  1  0  0  0
 76146  1  0  0  0
 76147  1  0  0  0
 76 85  1  0  0  0
 77 85  1  0  0  0
 77148  1  0  0  0
 77149  1  0  0  0
 78150  1  0  0  0
 78151  1  0  0  0
 78152  1  0  0  0
 79153  1  0  0  0
 79154  1  0  0  0
 79155  1  0  0  0
 79 81  1  0  0  0
 80156  1  0  0  0
 80157  1  0  0  0
 80158  1  0  0  0
 80 82  1  0  0  0
 81 82  1  0  0  0
 81 85  1  0  0  0
 81159  1  0  0  0
 82160  1  0  0  0
 84161  1  0  0  0
 85162  1  0  0  0
M  CHG  1  85   1
M  ISO  4   1 100  68 101  82 101  84 100
M  END
> <chiral flag>
0

> <version>
0

> <s_m_source_file>
/data/baiqing/PycharmProjects/Reinvent-master-3.2/result/LINK_invent/BTK/process_docking_weight1_custom_sum_contain_oxygen_bond_distance_aromatic_linkinvent_7_9_3/rearranged_h_0170.sdf

> <i_m_source_file_index>
46

> <r_mmod_Potential_Energy-OPLS-2005>
55.6094284057617

> <r_mmod_Stretch_Energy-OPLS-2005>
161.603958129883

> <r_mmod_Bend_Energy-OPLS-2005>
276.323699951172

> <r_mmod_Torsional_Energy-OPLS-2005>
245.981658935547

> <r_mmod_Improper_Torsional_Energy-OPLS-2005>
5.30973625183105

> <r_mmod_Van_der_Waal_Energy-OPLS-2005>
122.925788879395

> <r_mmod_Electrostatic_Energy-OPLS-2005>
-424.300598144531

> <r_mmod_Solvation_Energy-OPLS-2005>
-440.085418701172

> <b_mmod_Minimization_Converged-OPLS-2005>
0

> <r_mmod_RMS_Derivative-OPLS-2005>
5.68119525909424

$$$$
47
                    3D
 Structure written by MMmdl.
156165  0  0  1  0            999 V2000
  -30.5792  -14.9784   20.3932 C   0  0  0  0  0  0
  -30.4262  -12.6108   19.4961 C   0  0  0  0  0  0
  -29.5136  -12.5101   18.2560 C   0  0  0  0  0  0
  -28.0560  -12.2853   18.6922 C   0  0  0  0  0  0
  -27.6210  -13.2515   19.8262 C   0  0  2  0  0  0
  -28.6647  -13.3391   20.9589 C   0  0  0  0  0  0
  -25.2449  -13.8228   20.5722 C   0  0  0  0  0  0
  -24.1762  -13.0445   20.9238 C   0  0  0  0  0  0
  -24.6381  -11.6928   20.8770 C   0  0  0  0  0  0
  -23.9074  -10.4298   21.0411 C   0  0  0  0  0  0
  -24.3614   -9.4221   21.9197 C   0  0  0  0  0  0
  -23.6283   -8.2257   22.0775 C   0  0  0  0  0  0
  -22.4274   -8.0287   21.3555 C   0  0  0  0  0  0
  -21.9915   -9.0256   20.4653 C   0  0  0  0  0  0
  -22.7245  -10.2130   20.3058 C   0  0  0  0  0  0
  -21.6845   -6.0740   22.5284 C   0  0  0  0  0  0
  -21.4005   -6.5643   23.8219 C   0  0  0  0  0  0
  -21.3654   -5.6785   24.9177 C   0  0  0  0  0  0
  -21.6041   -4.3051   24.7230 C   0  0  0  0  0  0
  -21.8817   -3.8152   23.4345 C   0  0  0  0  0  0
  -21.9192   -4.6967   22.3398 C   0  0  0  0  0  0
  -22.7788  -13.5233   21.1872 C   0  0  0  0  0  0
  -22.1659   -4.2160   21.0972 F   0  0  0  0  0  0
  -21.5628   -3.4526   25.7739 F   0  0  0  0  0  0
  -29.9258  -13.7462   20.3296 N   0  0  0  0  0  0
  -26.2851  -12.9457   20.3233 N   0  0  0  0  0  0
  -25.9312  -11.6586   20.5763 N   0  0  0  0  0  0
  -22.0412  -12.8224   22.0409 N   0  0  0  0  0  0
  -25.4136  -15.1948   20.4161 N   0  0  0  0  0  0
  -31.7948  -14.9457   20.1747 O   0  0  0  0  0  0
  -21.6632   -6.8885   21.4250 O   0  0  0  0  0  0
  -22.3496  -14.5538   20.6702 O   0  0  0  0  0  0
  -24.6455  -31.8419   23.1902 C   0  0  0  0  0  0
  -25.9231  -32.4676   23.8274 C   0  0  1  0  0  0
  -27.1934  -27.0935   20.1397 C   0  0  0  0  0  0
  -25.5987  -33.8484   24.2191 N   0  0  0  0  0  0
  -23.4489  -30.4625   21.5394 C   0  0  2  0  0  0
  -24.8956  -28.8967   20.1051 C   0  0  0  0  0  0
  -22.7585  -29.4501   22.4882 C   0  0  0  0  0  0
  -18.0299  -28.1368   22.8508 C   0  0  0  0  0  0
  -24.1475  -36.7199   23.2629 C   0  0  0  0  0  0
  -26.0111  -30.6981   21.4013 C   0  0  0  0  0  0
  -26.0765  -29.3089   20.7364 C   0  0  0  0  0  0
  -27.2247  -28.4211   20.7448 C   0  0  0  0  0  0
  -25.9915  -26.8138   19.4481 C   0  0  0  0  0  0
  -24.8697  -27.6646   19.4436 C   0  0  0  0  0  0
  -23.6748  -29.8016   20.1559 C   0  0  0  0  0  0
  -25.4102  -36.2991   24.0316 C   0  0  1  0  0  0
  -20.5923  -28.3678   23.1261 C   0  0  2  0  0  0
  -20.6793  -26.9386   22.5394 C   0  0  0  0  0  0
  -19.5747  -26.6360   21.5221 C   0  0  0  0  0  0
  -18.1929  -26.7923   22.1628 C   0  0  0  0  0  0
  -19.1566  -28.8847   23.2864 C   0  0  0  0  0  0
  -18.9480  -30.1468   23.8849 C   0  0  0  0  0  0
  -17.6478  -30.6582   24.0553 C   0  0  0  0  0  0
  -25.9083  -34.9387   23.5053 C   0  0  0  0  0  0
  -16.5364  -29.9059   23.6369 C   0  0  0  0  0  0
  -16.7288  -28.6475   23.0402 C   0  0  0  0  0  0
  -26.4561  -31.6573   25.0733 C   0  0  0  0  0  0
  -25.3740  -31.3701   26.1408 C   0  0  0  0  0  0
  -27.0489  -30.2986   24.6341 C   0  0  0  0  0  0
  -27.6063  -32.4386   25.7523 C   0  0  0  0  0  0
  -27.5592  -37.1683   24.8427 C   0  0  0  0  0  0
  -21.4274  -29.3007   22.3637 N   0  0  0  0  0  0
  -26.4215  -37.3761   23.9514 N   0  0  0  0  0  0
  -24.7218  -31.0231   22.0975 N   0  0  0  0  0  0
  -23.4230  -28.8022   23.3004 O   0  0  0  0  0  0
  -28.1932  -26.0390   20.2317 O   0  0  0  0  0  0
  -26.5660  -34.8893   22.4620 O   0  0  0  0  0  0
  -23.5572  -32.1323   23.7102 O   0  0  0  0  0  0
  -28.9626  -22.1723   19.1433 C   0  0  0  0  0  0
  -28.4965  -23.0727   20.1694 C   0  0  0  0  0  0
  -28.3779  -22.3352   21.3994 C   0  0  0  0  0  0
  -28.7085  -20.9086   21.5214 C   0  0  0  0  0  0
  -29.1724  -20.0913   20.4223 C   0  0  0  0  0  0
  -28.8379  -17.1063   20.8446 C   0  0  0  0  0  0
  -30.3960  -17.5189   19.5361 C   0  0  0  0  0  0
  -29.6228  -18.4722   20.5343 C   0  0  0  0  0  0
  -27.8255  -23.0677   22.6161 C   0  0  0  0  0  0
  -28.5290  -20.2485   22.8849 C   0  0  0  0  0  0
  -27.8172  -24.5656   19.8364 C   0  0  0  0  0  0
  -29.2730  -20.8074   19.2506 N   0  0  0  0  0  0
  -29.9223  -16.2474   20.2229 N   0  0  0  0  0  0
  -31.4595  -12.7521   19.1766 H   0  0  0  0  0  0
  -30.4178  -11.6804   20.0671 H   0  0  0  0  0  0
  -29.8422  -11.6968   17.6085 H   0  0  0  0  0  0
  -29.5880  -13.4250   17.6668 H   0  0  0  0  0  0
  -27.9847  -11.2573   19.0504 H   0  0  0  0  0  0
  -27.3808  -12.3565   17.8387 H   0  0  0  0  0  0
  -27.5690  -14.2382   19.3633 H   0  0  0  0  0  0
  -28.7686  -12.3864   21.4803 H   0  0  0  0  0  0
  -28.3625  -14.0788   21.7016 H   0  0  0  0  0  0
  -25.2736   -9.5702   22.4795 H   0  0  0  0  0  0
  -23.9980   -7.4664   22.7518 H   0  0  0  0  0  0
  -21.0843   -8.8781   19.8962 H   0  0  0  0  0  0
  -22.3703  -10.9674   19.6178 H   0  0  0  0  0  0
  -21.1987   -7.6146   23.9732 H   0  0  0  0  0  0
  -21.1472   -6.0505   25.9081 H   0  0  0  0  0  0
  -22.0594   -2.7612   23.2839 H   0  0  0  0  0  0
  -22.3986  -11.9873   22.4787 H   0  0  0  0  0  0
  -21.1043  -13.1302   22.2593 H   0  0  0  0  0  0
  -24.6479  -15.8492   20.5283 H   0  0  0  0  0  0
  -26.2625  -15.6298   20.0799 H   0  0  0  0  0  0
  -26.7277  -32.5270   23.0979 H   0  0  0  0  0  0
  -25.0205  -33.9609   25.0386 H   0  0  0  0  0  0
  -22.7494  -31.2883   21.3910 H   0  0  0  0  0  0
  -23.3828  -35.9418   23.3081 H   0  0  0  0  0  0
  -24.3601  -36.9062   22.2086 H   0  0  0  0  0  0
  -23.7091  -37.6259   23.6821 H   0  0  0  0  0  0
  -26.1783  -31.4551   20.6346 H   0  0  0  0  0  0
  -26.8775  -30.7421   22.0489 H   0  0  0  0  0  0
  -28.1155  -28.7205   21.2794 H   0  0  0  0  0  0
  -25.8600  -25.8844   18.9163 H   0  0  0  0  0  0
  -23.9740  -27.3541   18.9232 H   0  0  0  0  0  0
  -23.8036  -30.5809   19.4042 H   0  0  0  0  0  0
  -22.7890  -29.2428   19.8474 H   0  0  0  0  0  0
  -25.1254  -36.1765   25.0793 H   0  0  0  0  0  0
  -21.0003  -28.3243   24.1392 H   0  0  0  0  0  0
  -20.5764  -26.2241   23.3578 H   0  0  0  0  0  0
  -21.6647  -26.7431   22.1134 H   0  0  0  0  0  0
  -19.6900  -25.6274   21.1241 H   0  0  0  0  0  0
  -19.6701  -27.3171   20.6751 H   0  0  0  0  0  0
  -17.4210  -26.6719   21.4010 H   0  0  0  0  0  0
  -18.0271  -26.0050   22.8991 H   0  0  0  0  0  0
  -19.7956  -30.7317   24.2173 H   0  0  0  0  0  0
  -17.5022  -31.6278   24.5128 H   0  0  0  0  0  0
  -15.5364  -30.2932   23.7746 H   0  0  0  0  0  0
  -15.8680  -28.0785   22.7158 H   0  0  0  0  0  0
  -24.5950  -30.7040   25.7687 H   0  0  0  0  0  0
  -24.8886  -32.2838   26.4835 H   0  0  0  0  0  0
  -25.8006  -30.8860   27.0206 H   0  0  0  0  0  0
  -26.3149  -29.6641   24.1346 H   0  0  0  0  0  0
  -27.4135  -29.7347   25.4943 H   0  0  0  0  0  0
  -27.9029  -30.4265   23.9676 H   0  0  0  0  0  0
  -27.2678  -33.3780   26.1916 H   0  0  0  0  0  0
  -28.3945  -32.6804   25.0378 H   0  0  0  0  0  0
  -28.0639  -31.8635   26.5590 H   0  0  0  0  0  0
  -28.2349  -38.0230   24.7884 H   0  0  0  0  0  0
  -28.1354  -36.2805   24.5753 H   0  0  0  0  0  0
  -27.2379  -37.0697   25.8812 H   0  0  0  0  0  0
  -20.9464  -29.8717   21.6835 H   0  0  0  0  0  0
  -26.0044  -38.2744   24.1813 H   0  0  0  0  0  0
  -29.0385  -22.5531   18.1349 H   0  0  0  0  0  0
  -27.8939  -17.0462   20.3022 H   0  0  0  0  0  0
  -28.6722  -16.9356   21.9088 H   0  0  0  0  0  0
  -31.4745  -17.6731   19.5445 H   0  0  0  0  0  0
  -30.0206  -17.6047   18.5153 H   0  0  0  0  0  0
  -30.3295  -18.5596   21.3598 H   0  0  0  0  0  0
  -27.6752  -24.1307   22.4312 H   0  0  0  0  0  0
  -28.5116  -22.9895   23.4593 H   0  0  0  0  0  0
  -26.8646  -22.6482   22.9157 H   0  0  0  0  0  0
  -29.1798  -20.7212   23.6224 H   0  0  0  0  0  0
  -28.7567  -19.1844   22.8839 H   0  0  0  0  0  0
  -27.4967  -20.3470   23.2239 H   0  0  0  0  0  0
  -26.7998  -24.4212   20.2021 H   0  0  0  0  0  0
  -27.7244  -24.5869   18.7495 H   0  0  0  0  0  0
  1 25  1  0  0  0
  1 30  2  0  0  0
  1 83  1  0  0  0
  2  3  1  0  0  0
  2 25  1  0  0  0
  2 84  1  0  0  0
  2 85  1  0  0  0
  3  4  1  0  0  0
  3 86  1  0  0  0
  3 87  1  0  0  0
  4  5  1  0  0  0
  4 88  1  0  0  0
  4 89  1  0  0  0
  5  6  1  0  0  0
  5 26  1  0  0  0
  5 90  1  0  0  0
  6 25  1  0  0  0
  6 91  1  0  0  0
  6 92  1  0  0  0
  7  8  2  0  0  0
  7 26  1  0  0  0
  7 29  1  0  0  0
  8  9  1  0  0  0
  8 22  1  0  0  0
  9 10  1  0  0  0
  9 27  2  0  0  0
 10 11  2  0  0  0
 10 15  1  0  0  0
 11 12  1  0  0  0
 11 93  1  0  0  0
 12 13  2  0  0  0
 12 94  1  0  0  0
 13 14  1  0  0  0
 13 31  1  0  0  0
 14 15  2  0  0  0
 14 95  1  0  0  0
 15 96  1  0  0  0
 16 17  2  0  0  0
 16 21  1  0  0  0
 16 31  1  0  0  0
 17 18  1  0  0  0
 17 97  1  0  0  0
 18 19  2  0  0  0
 18 98  1  0  0  0
 19 20  1  0  0  0
 19 24  1  0  0  0
 20 21  2  0  0  0
 20 99  1  0  0  0
 21 23  1  0  0  0
 22 28  1  0  0  0
 22 32  2  0  0  0
 26 27  1  0  0  0
 28100  1  0  0  0
 28101  1  0  0  0
 29102  1  0  0  0
 29103  1  0  0  0
 33 34  1  0  0  0
 33 66  1  0  0  0
 33 70  2  0  0  0
 34 36  1  0  0  0
 34 59  1  0  0  0
 34104  1  0  0  0
 35 44  2  0  0  0
 35 45  1  0  0  0
 35 68  1  0  0  0
 36 56  1  0  0  0
 36105  1  0  0  0
 37 39  1  0  0  0
 37 47  1  0  0  0
 37 66  1  0  0  0
 37106  1  0  0  0
 38 43  2  0  0  0
 38 46  1  0  0  0
 38 47  1  0  0  0
 39 64  1  0  0  0
 39 67  2  0  0  0
 40 52  1  0  0  0
 40 53  2  0  0  0
 40 58  1  0  0  0
 41107  1  0  0  0
 41108  1  0  0  0
 41109  1  0  0  0
 41 48  1  0  0  0
 42 43  1  0  0  0
 42 66  1  0  0  0
 42110  1  0  0  0
 42111  1  0  0  0
 43 44  1  0  0  0
 44112  1  0  0  0
 45 46  2  0  0  0
 45113  1  0  0  0
 46114  1  0  0  0
 47115  1  0  0  0
 47116  1  0  0  0
 48 56  1  0  0  0
 48 65  1  0  0  0
 48117  1  0  0  0
 49 50  1  0  0  0
 49 53  1  0  0  0
 49 64  1  0  0  0
 49118  1  0  0  0
 50 51  1  0  0  0
 50119  1  0  0  0
 50120  1  0  0  0
 51 52  1  0  0  0
 51121  1  0  0  0
 51122  1  0  0  0
 52123  1  0  0  0
 52124  1  0  0  0
 53 54  1  0  0  0
 54 55  2  0  0  0
 54125  1  0  0  0
 55 57  1  0  0  0
 55126  1  0  0  0
 56 69  2  0  0  0
 57 58  2  0  0  0
 57127  1  0  0  0
 58128  1  0  0  0
 59 60  1  0  0  0
 59 61  1  0  0  0
 59 62  1  0  0  0
 60129  1  0  0  0
 60130  1  0  0  0
 60131  1  0  0  0
 61132  1  0  0  0
 61133  1  0  0  0
 61134  1  0  0  0
 62135  1  0  0  0
 62136  1  0  0  0
 62137  1  0  0  0
 63 65  1  0  0  0
 63138  1  0  0  0
 63139  1  0  0  0
 63140  1  0  0  0
 64141  1  0  0  0
 65142  1  0  0  0
 68 81  1  0  0  0
 71 72  2  0  0  0
 71 82  1  0  0  0
 71143  1  0  0  0
 72 73  1  0  0  0
 72 81  1  0  0  0
 73 74  2  0  0  0
 73 79  1  0  0  0
 74 75  1  0  0  0
 74 80  1  0  0  0
 75 82  2  0  0  0
 75 78  1  0  0  0
 76 78  1  0  0  0
 76 83  1  0  0  0
 76144  1  0  0  0
 76145  1  0  0  0
 77 78  1  0  0  0
 77 83  1  0  0  0
 77146  1  0  0  0
 77147  1  0  0  0
 78148  1  0  0  0
 79149  1  0  0  0
 79150  1  0  0  0
 79151  1  0  0  0
 80152  1  0  0  0
 80153  1  0  0  0
 80154  1  0  0  0
 81155  1  0  0  0
 81156  1  0  0  0
M  ISO  4   1 100  68 101  81 101  83 100
M  END
> <chiral flag>
0

> <version>
0

> <s_m_source_file>
/data/baiqing/PycharmProjects/Reinvent-master-3.2/result/LINK_invent/BTK/process_docking_weight1_custom_sum_contain_oxygen_bond_distance_aromatic_linkinvent_7_9_3/rearranged_h_0170.sdf

> <i_m_source_file_index>
47

> <r_mmod_Potential_Energy-OPLS-2005>
585.484375

> <r_mmod_Stretch_Energy-OPLS-2005>
257.699157714844

> <r_mmod_Bend_Energy-OPLS-2005>
322.154327392578

> <r_mmod_Torsional_Energy-OPLS-2005>
277.504333496094

> <r_mmod_Improper_Torsional_Energy-OPLS-2005>
19.6578178405762

> <r_mmod_Van_der_Waal_Energy-OPLS-2005>
140.969833374023

> <r_mmod_Electrostatic_Energy-OPLS-2005>
-439.648895263672

> <r_mmod_Solvation_Energy-OPLS-2005>
-226.487411499023

> <b_mmod_Minimization_Converged-OPLS-2005>
0

> <r_mmod_RMS_Derivative-OPLS-2005>
2.3364098072052

$$$$
48
                    3D
 Structure written by MMmdl.
170180  0  0  1  0            999 V2000
  -30.7062  -14.5022   20.3967 C   0  0  0  0  0  0
  -30.4096  -12.2805   19.4358 C   0  0  0  0  0  0
  -29.4881  -12.4578   18.2152 C   0  0  0  0  0  0
  -28.0135  -12.3243   18.6459 C   0  0  0  0  0  0
  -27.6442  -13.1825   19.8903 C   0  0  2  0  0  0
  -28.7127  -13.0834   21.0004 C   0  0  0  0  0  0
  -25.2578  -13.7978   20.6284 C   0  0  0  0  0  0
  -24.1758  -13.0299   20.9387 C   0  0  0  0  0  0
  -24.6268  -11.6741   20.8796 C   0  0  0  0  0  0
  -23.8966  -10.4193   21.0435 C   0  0  0  0  0  0
  -24.3522   -9.4117   21.9224 C   0  0  0  0  0  0
  -23.6238   -8.2121   22.0714 C   0  0  0  0  0  0
  -22.4227   -8.0200   21.3477 C   0  0  0  0  0  0
  -21.9851   -9.0184   20.4583 C   0  0  0  0  0  0
  -22.7157  -10.2086   20.3048 C   0  0  0  0  0  0
  -21.6793   -6.0741   22.5302 C   0  0  0  0  0  0
  -21.3970   -6.5621   23.8265 C   0  0  0  0  0  0
  -21.3657   -5.6767   24.9221 C   0  0  0  0  0  0
  -21.6038   -4.3037   24.7267 C   0  0  0  0  0  0
  -21.8817   -3.8144   23.4379 C   0  0  0  0  0  0
  -21.9145   -4.6968   22.3429 C   0  0  0  0  0  0
  -22.7793  -13.5144   21.2009 C   0  0  0  0  0  0
  -22.1658   -4.2151   21.1032 F   0  0  0  0  0  0
  -21.5654   -3.4521   25.7782 F   0  0  0  0  0  0
  -30.0254  -13.3270   20.3866 N   0  0  0  0  0  0
  -26.2944  -12.9117   20.3660 N   0  0  0  0  0  0
  -25.9204  -11.6294   20.5860 N   0  0  0  0  0  0
  -22.0332  -12.8171   22.0439 N   0  0  0  0  0  0
  -25.4336  -15.1755   20.5523 N   0  0  0  0  0  0
  -31.9358  -14.5519   20.4379 O   0  0  0  0  0  0
  -21.6561   -6.8838   21.4237 O   0  0  0  0  0  0
  -22.3560  -14.5480   20.6839 O   0  0  0  0  0  0
  -24.6197  -31.8651   23.2098 C   0  0  0  0  0  0
  -25.9066  -32.4828   23.8407 C   0  0  1  0  0  0
  -27.2330  -27.3717   20.0936 C   0  0  0  0  0  0
  -25.5901  -33.8635   24.2347 N   0  0  0  0  0  0
  -23.4096  -30.4907   21.5516 C   0  0  2  0  0  0
  -24.8559  -28.9497   20.1133 C   0  0  0  0  0  0
  -22.7399  -29.4654   22.4977 C   0  0  0  0  0  0
  -18.0275  -28.1364   22.8521 C   0  0  0  0  0  0
  -24.1452  -36.7293   23.2643 C   0  0  0  0  0  0
  -25.9462  -30.8121   21.3667 C   0  0  0  0  0  0
  -26.0224  -29.4435   20.7095 C   0  0  0  0  0  0
  -27.2076  -28.6641   20.6899 C   0  0  0  0  0  0
  -26.0340  -26.9019   19.5047 C   0  0  0  0  0  0
  -24.8603  -27.6797   19.5113 C   0  0  0  0  0  0
  -23.6198  -29.8219   20.1658 C   0  0  0  0  0  0
  -25.4091  -36.3131   24.0354 C   0  0  1  0  0  0
  -20.5856  -28.3668   23.1295 C   0  0  2  0  0  0
  -20.6742  -26.9420   22.5385 C   0  0  0  0  0  0
  -19.5704  -26.6371   21.5216 C   0  0  0  0  0  0
  -18.1902  -26.7913   22.1647 C   0  0  0  0  0  0
  -19.1524  -28.8833   23.2920 C   0  0  0  0  0  0
  -18.9464  -30.1420   23.8940 C   0  0  0  0  0  0
  -17.6480  -30.6586   24.0590 C   0  0  0  0  0  0
  -25.9027  -34.9489   23.5159 C   0  0  0  0  0  0
  -16.5368  -29.9096   23.6347 C   0  0  0  0  0  0
  -16.7266  -28.6508   23.0381 C   0  0  0  0  0  0
  -26.4457  -31.6640   25.0758 C   0  0  0  0  0  0
  -25.3693  -31.3772   26.1480 C   0  0  0  0  0  0
  -27.0277  -30.3086   24.6182 C   0  0  0  0  0  0
  -27.6030  -32.4340   25.7497 C   0  0  0  0  0  0
  -27.5582  -37.1800   24.8487 C   0  0  0  0  0  0
  -21.4133  -29.3035   22.3702 N   0  0  0  0  0  0
  -26.4295  -37.3822   23.9430 N   0  0  0  0  0  0
  -24.6793  -31.0656   22.1021 N   0  0  0  0  0  0
  -23.4162  -28.8181   23.3032 O   0  0  0  0  0  0
  -28.4150  -26.6273   20.1319 O   0  0  0  0  0  0
  -26.5585  -34.8919   22.4717 O   0  0  0  0  0  0
  -23.5369  -32.1415   23.7453 O   0  0  0  0  0  0
  -26.8930  -18.8321   19.2941 C   0  0  0  0  0  0
  -27.8370  -17.7899   19.1736 C   0  0  0  0  0  0
  -27.2349  -20.0479   19.9177 C   0  0  0  0  0  0
  -29.1085  -17.9782   19.8071 C   0  0  0  0  0  0
  -28.5561  -20.2221   20.3644 C   0  0  0  0  0  0
  -27.0529  -16.8002   16.8847 C   0  0  0  0  0  0
  -26.0565  -16.2250   17.8597 C   0  0  0  0  0  0
  -30.7034  -16.2116   18.7103 C   0  0  0  0  0  0
  -27.4582  -16.5937   18.3204 C   0  0  0  0  0  0
  -30.2586  -16.9541   19.9159 C   0  0  2  0  0  0
  -30.3556  -21.5865   21.6449 C   0  0  0  0  0  0
  -25.1504  -20.6608   20.7978 C   0  0  0  0  0  0
  -28.6984  -24.1205   20.6314 C   0  0  0  0  0  0
  -28.5364  -25.2783   19.5803 C   0  0  0  0  0  0
  -28.9537  -21.5842   20.9957 C   0  0  1  0  0  0
  -29.4477  -19.1923   20.3327 N   0  0  0  0  0  0
  -30.0406  -15.5212   19.8010 N   0  0  0  0  0  0
  -28.7890  -22.7291   20.0417 N   0  3  0  0  0  0
  -26.3238  -21.0602   20.0933 O   0  0  0  0  0  0
  -31.4624  -12.3492   19.1522 H   0  0  0  0  0  0
  -30.2805  -11.2913   19.8816 H   0  0  0  0  0  0
  -29.7212  -11.7150   17.4515 H   0  0  0  0  0  0
  -29.6549  -13.4367   17.7590 H   0  0  0  0  0  0
  -27.8411  -11.2712   18.8773 H   0  0  0  0  0  0
  -27.3490  -12.5636   17.8175 H   0  0  0  0  0  0
  -27.6327  -14.2142   19.5850 H   0  0  0  0  0  0
  -28.5200  -13.8291   21.7731 H   0  0  0  0  0  0
  -28.6955  -12.1120   21.4987 H   0  0  0  0  0  0
  -25.2660   -9.5629   22.4821 H   0  0  0  0  0  0
  -23.9962   -7.4509   22.7416 H   0  0  0  0  0  0
  -21.0784   -8.8693   19.8914 H   0  0  0  0  0  0
  -22.3617  -10.9662   19.6192 H   0  0  0  0  0  0
  -21.1929   -7.6119   23.9789 H   0  0  0  0  0  0
  -21.1505   -6.0484   25.9136 H   0  0  0  0  0  0
  -22.0574   -2.7587   23.2884 H   0  0  0  0  0  0
  -22.3838  -11.9827   22.4934 H   0  0  0  0  0  0
  -21.0944  -13.1254   22.2523 H   0  0  0  0  0  0
  -24.6647  -15.8045   20.7532 H   0  0  0  0  0  0
  -26.2847  -15.6569   20.3000 H   0  0  0  0  0  0
  -26.7102  -32.5503   23.1130 H   0  0  0  0  0  0
  -25.0017  -33.9793   25.0470 H   0  0  0  0  0  0
  -22.7040  -31.3148   21.4139 H   0  0  0  0  0  0
  -23.3753  -35.9590   23.3329 H   0  0  0  0  0  0
  -24.3528  -36.8891   22.2054 H   0  0  0  0  0  0
  -23.7139  -37.6488   23.6614 H   0  0  0  0  0  0
  -26.0563  -31.5800   20.6000 H   0  0  0  0  0  0
  -26.8345  -30.8695   21.9882 H   0  0  0  0  0  0
  -28.1089  -29.0423   21.1485 H   0  0  0  0  0  0
  -25.9540  -25.9265   19.0501 H   0  0  0  0  0  0
  -23.9605  -27.2932   19.0536 H   0  0  0  0  0  0
  -23.7163  -30.5987   19.4052 H   0  0  0  0  0  0
  -22.7397  -29.2432   19.8767 H   0  0  0  0  0  0
  -25.1242  -36.2037   25.0855 H   0  0  0  0  0  0
  -21.0002  -28.3247   24.1394 H   0  0  0  0  0  0
  -20.5660  -26.2301   23.3587 H   0  0  0  0  0  0
  -21.6609  -26.7432   22.1202 H   0  0  0  0  0  0
  -19.6869  -25.6277   21.1285 H   0  0  0  0  0  0
  -19.6610  -27.3122   20.6711 H   0  0  0  0  0  0
  -17.4141  -26.6679   21.4096 H   0  0  0  0  0  0
  -18.0333  -26.0014   22.8989 H   0  0  0  0  0  0
  -19.7925  -30.7206   24.2376 H   0  0  0  0  0  0
  -17.5051  -31.6258   24.5176 H   0  0  0  0  0  0
  -15.5364  -30.3019   23.7661 H   0  0  0  0  0  0
  -15.8656  -28.0818   22.7103 H   0  0  0  0  0  0
  -24.5839  -30.7162   25.7795 H   0  0  0  0  0  0
  -24.8888  -32.2931   26.4923 H   0  0  0  0  0  0
  -25.7989  -30.8915   27.0256 H   0  0  0  0  0  0
  -26.2866  -29.6888   24.1126 H   0  0  0  0  0  0
  -27.3914  -29.7283   25.4678 H   0  0  0  0  0  0
  -27.8742  -30.4392   23.9436 H   0  0  0  0  0  0
  -27.2683  -33.3640   26.2101 H   0  0  0  0  0  0
  -28.3804  -32.6932   25.0294 H   0  0  0  0  0  0
  -28.0735  -31.8460   26.5395 H   0  0  0  0  0  0
  -28.2618  -38.0077   24.7522 H   0  0  0  0  0  0
  -28.1041  -36.2612   24.6307 H   0  0  0  0  0  0
  -27.2283  -37.1454   25.8885 H   0  0  0  0  0  0
  -20.9314  -29.8753   21.6910 H   0  0  0  0  0  0
  -26.0200  -38.2914   24.1455 H   0  0  0  0  0  0
  -25.9000  -18.7297   18.8770 H   0  0  0  0  0  0
  -26.9117  -17.8239   16.5501 H   0  0  0  0  0  0
  -27.4731  -16.1198   16.1473 H   0  0  0  0  0  0
  -25.8304  -15.1613   17.7726 H   0  0  0  0  0  0
  -25.2101  -16.8391   18.1629 H   0  0  0  0  0  0
  -31.7779  -16.0827   18.5741 H   0  0  0  0  0  0
  -30.1563  -16.3006   17.7743 H   0  0  0  0  0  0
  -28.1283  -15.7716   18.4430 H   0  0  0  0  0  0
  -31.0146  -17.2775   20.6305 H   0  0  0  0  0  0
  -30.5080  -20.7284   22.3021 H   0  0  0  0  0  0
  -30.4858  -22.4786   22.2544 H   0  0  0  0  0  0
  -31.1431  -21.5650   20.8933 H   0  0  0  0  0  0
  -25.3936  -20.0537   21.6741 H   0  0  0  0  0  0
  -24.4837  -20.0799   20.1624 H   0  0  0  0  0  0
  -24.6059  -21.5433   21.1401 H   0  0  0  0  0  0
  -27.8631  -24.1597   21.3318 H   0  0  0  0  0  0
  -29.5960  -24.3147   21.2194 H   0  0  0  0  0  0
  -27.7634  -25.0270   18.8584 H   0  0  0  0  0  0
  -29.4498  -25.2957   18.9853 H   0  0  0  0  0  0
  -28.2169  -21.7338   21.7895 H   0  0  0  0  0  0
  -29.5315  -22.6572   19.3630 H   0  0  0  0  0  0
  -27.9278  -22.5357   19.5514 H   0  0  0  0  0  0
  1 25  1  0  0  0
  1 30  2  0  0  0
  1 87  1  0  0  0
  2  3  1  0  0  0
  2 25  1  0  0  0
  2 90  1  0  0  0
  2 91  1  0  0  0
  3  4  1  0  0  0
  3 92  1  0  0  0
  3 93  1  0  0  0
  4  5  1  0  0  0
  4 94  1  0  0  0
  4 95  1  0  0  0
  5  6  1  0  0  0
  5 26  1  0  0  0
  5 96  1  0  0  0
  6 25  1  0  0  0
  6 97  1  0  0  0
  6 98  1  0  0  0
  7  8  2  0  0  0
  7 26  1  0  0  0
  7 29  1  0  0  0
  8  9  1  0  0  0
  8 22  1  0  0  0
  9 10  1  0  0  0
  9 27  2  0  0  0
 10 11  2  0  0  0
 10 15  1  0  0  0
 11 12  1  0  0  0
 11 99  1  0  0  0
 12 13  2  0  0  0
 12100  1  0  0  0
 13 14  1  0  0  0
 13 31  1  0  0  0
 14 15  2  0  0  0
 14101  1  0  0  0
 15102  1  0  0  0
 16 17  2  0  0  0
 16 21  1  0  0  0
 16 31  1  0  0  0
 17 18  1  0  0  0
 17103  1  0  0  0
 18 19  2  0  0  0
 18104  1  0  0  0
 19 20  1  0  0  0
 19 24  1  0  0  0
 20 21  2  0  0  0
 20105  1  0  0  0
 21 23  1  0  0  0
 22 28  1  0  0  0
 22 32  2  0  0  0
 26 27  1  0  0  0
 28106  1  0  0  0
 28107  1  0  0  0
 29108  1  0  0  0
 29109  1  0  0  0
 33 34  1  0  0  0
 33 66  1  0  0  0
 33 70  2  0  0  0
 34 36  1  0  0  0
 34 59  1  0  0  0
 34110  1  0  0  0
 35 44  2  0  0  0
 35 45  1  0  0  0
 35 68  1  0  0  0
 36 56  1  0  0  0
 36111  1  0  0  0
 37 39  1  0  0  0
 37 47  1  0  0  0
 37 66  1  0  0  0
 37112  1  0  0  0
 38 43  2  0  0  0
 38 46  1  0  0  0
 38 47  1  0  0  0
 39 64  1  0  0  0
 39 67  2  0  0  0
 40 52  1  0  0  0
 40 53  2  0  0  0
 40 58  1  0  0  0
 41113  1  0  0  0
 41114  1  0  0  0
 41115  1  0  0  0
 41 48  1  0  0  0
 42 43  1  0  0  0
 42 66  1  0  0  0
 42116  1  0  0  0
 42117  1  0  0  0
 43 44  1  0  0  0
 44118  1  0  0  0
 45 46  2  0  0  0
 45119  1  0  0  0
 46120  1  0  0  0
 47121  1  0  0  0
 47122  1  0  0  0
 48 56  1  0  0  0
 48 65  1  0  0  0
 48123  1  0  0  0
 49 50  1  0  0  0
 49 53  1  0  0  0
 49 64  1  0  0  0
 49124  1  0  0  0
 50 51  1  0  0  0
 50125  1  0  0  0
 50126  1  0  0  0
 51 52  1  0  0  0
 51127  1  0  0  0
 51128  1  0  0  0
 52129  1  0  0  0
 52130  1  0  0  0
 53 54  1  0  0  0
 54 55  2  0  0  0
 54131  1  0  0  0
 55 57  1  0  0  0
 55132  1  0  0  0
 56 69  2  0  0  0
 57 58  2  0  0  0
 57133  1  0  0  0
 58134  1  0  0  0
 59 60  1  0  0  0
 59 61  1  0  0  0
 59 62  1  0  0  0
 60135  1  0  0  0
 60136  1  0  0  0
 60137  1  0  0  0
 61138  1  0  0  0
 61139  1  0  0  0
 61140  1  0  0  0
 62141  1  0  0  0
 62142  1  0  0  0
 62143  1  0  0  0
 63 65  1  0  0  0
 63144  1  0  0  0
 63145  1  0  0  0
 63146  1  0  0  0
 64147  1  0  0  0
 65148  1  0  0  0
 68 84  1  0  0  0
 71 72  2  0  0  0
 71 73  1  0  0  0
 71149  1  0  0  0
 72 74  1  0  0  0
 72 79  1  0  0  0
 73 75  2  0  0  0
 73 89  1  0  0  0
 74 86  2  0  0  0
 74 80  1  0  0  0
 75 85  1  0  0  0
 75 86  1  0  0  0
 76 77  1  0  0  0
 76 79  1  0  0  0
 76150  1  0  0  0
 76151  1  0  0  0
 77 79  1  0  0  0
 77152  1  0  0  0
 77153  1  0  0  0
 78 80  1  0  0  0
 78 87  1  0  0  0
 78154  1  0  0  0
 78155  1  0  0  0
 79156  1  0  0  0
 80 87  1  0  0  0
 80157  1  0  0  0
 81158  1  0  0  0
 81159  1  0  0  0
 81160  1  0  0  0
 81 85  1  0  0  0
 82 89  1  0  0  0
 82161  1  0  0  0
 82162  1  0  0  0
 82163  1  0  0  0
 83 84  1  0  0  0
 83 88  1  0  0  0
 83164  1  0  0  0
 83165  1  0  0  0
 84166  1  0  0  0
 84167  1  0  0  0
 85 88  1  0  0  0
 85168  1  0  0  0
 88169  1  0  0  0
 88170  1  0  0  0
M  CHG  1  88   1
M  ISO  4   1 100  68 101  84 101  87 100
M  END
> <chiral flag>
0

> <version>
0

> <s_m_source_file>
/data/baiqing/PycharmProjects/Reinvent-master-3.2/result/LINK_invent/BTK/process_docking_weight1_custom_sum_contain_oxygen_bond_distance_aromatic_linkinvent_7_9_3/rearranged_h_0170.sdf

> <i_m_source_file_index>
48

> <r_mmod_Potential_Energy-OPLS-2005>
-108.453804016113

> <r_mmod_Stretch_Energy-OPLS-2005>
60.5096969604492

> <r_mmod_Bend_Energy-OPLS-2005>
148.098190307617

> <r_mmod_Torsional_Energy-OPLS-2005>
370.146026611328

> <r_mmod_Improper_Torsional_Energy-OPLS-2005>
26.3742599487305

> <r_mmod_Van_der_Waal_Energy-OPLS-2005>
164.525833129883

> <r_mmod_Electrostatic_Energy-OPLS-2005>
-507.390197753906

> <r_mmod_Solvation_Energy-OPLS-2005>
-420.590362548828

> <b_mmod_Minimization_Converged-OPLS-2005>
0

> <r_mmod_RMS_Derivative-OPLS-2005>
7.71870613098145

$$$$
49
                    3D
 Structure written by MMmdl.
159168  0  0  1  0            999 V2000
  -30.4804  -15.2663   20.3946 C   0  0  0  0  0  0
  -30.4237  -12.8244   19.5280 C   0  0  0  0  0  0
  -29.5269  -12.5490   18.2975 C   0  0  0  0  0  0
  -28.0875  -12.2646   18.7456 C   0  0  0  0  0  0
  -27.6047  -13.2715   19.8148 C   0  0  2  0  0  0
  -28.6284  -13.5000   20.9482 C   0  0  0  0  0  0
  -25.2408  -13.8260   20.5759 C   0  0  0  0  0  0
  -24.1738  -13.0443   20.9290 C   0  0  0  0  0  0
  -24.6374  -11.6946   20.8804 C   0  0  0  0  0  0
  -23.9074  -10.4294   21.0450 C   0  0  0  0  0  0
  -24.3622   -9.4206   21.9221 C   0  0  0  0  0  0
  -23.6302   -8.2224   22.0761 C   0  0  0  0  0  0
  -22.4303   -8.0258   21.3535 C   0  0  0  0  0  0
  -21.9919   -9.0256   20.4667 C   0  0  0  0  0  0
  -22.7242  -10.2138   20.3093 C   0  0  0  0  0  0
  -21.6856   -6.0726   22.5284 C   0  0  0  0  0  0
  -21.4012   -6.5632   23.8209 C   0  0  0  0  0  0
  -21.3660   -5.6779   24.9171 C   0  0  0  0  0  0
  -21.6046   -4.3047   24.7216 C   0  0  0  0  0  0
  -21.8827   -3.8138   23.4334 C   0  0  0  0  0  0
  -21.9193   -4.6956   22.3397 C   0  0  0  0  0  0
  -22.7771  -13.5214   21.1894 C   0  0  0  0  0  0
  -22.1684   -4.2145   21.0978 F   0  0  0  0  0  0
  -21.5622   -3.4519   25.7722 F   0  0  0  0  0  0
  -29.8569  -13.9911   20.3087 N   0  0  0  0  0  0
  -26.2787  -12.9495   20.3202 N   0  0  0  0  0  0
  -25.9296  -11.6604   20.5745 N   0  0  0  0  0  0
  -22.0403  -12.8226   22.0479 N   0  0  0  0  0  0
  -25.4100  -15.1983   20.4214 N   0  0  0  0  0  0
  -31.7004  -15.1809   20.1806 O   0  0  0  0  0  0
  -21.6648   -6.8866   21.4242 O   0  0  0  0  0  0
  -22.3452  -14.5479   20.6697 O   0  0  0  0  0  0
  -24.6562  -31.8264   23.1750 C   0  0  0  0  0  0
  -25.9256  -32.4601   23.8212 C   0  0  1  0  0  0
  -27.2219  -26.9497   20.2276 C   0  0  0  0  0  0
  -25.5989  -33.8408   24.2154 N   0  0  0  0  0  0
  -23.4709  -30.4415   21.5125 C   0  0  2  0  0  0
  -24.9339  -28.8304   20.1161 C   0  0  0  0  0  0
  -22.7650  -29.4446   22.4694 C   0  0  0  0  0  0
  -18.0353  -28.1421   22.8382 C   0  0  0  0  0  0
  -24.1505  -36.7203   23.2631 C   0  0  0  0  0  0
  -26.0378  -30.6477   21.4005 C   0  0  0  0  0  0
  -26.1072  -29.2321   20.7646 C   0  0  0  0  0  0
  -27.2447  -28.3126   20.7973 C   0  0  0  0  0  0
  -26.0316  -26.7068   19.5061 C   0  0  0  0  0  0
  -24.9214  -27.5884   19.4615 C   0  0  0  0  0  0
  -23.7184  -29.7558   20.1385 C   0  0  0  0  0  0
  -25.4126  -36.2961   24.0316 C   0  0  1  0  0  0
  -20.5977  -28.3700   23.1221 C   0  0  2  0  0  0
  -20.6789  -26.9399   22.5362 C   0  0  0  0  0  0
  -19.5884  -26.6619   21.4971 C   0  0  0  0  0  0
  -18.1989  -26.8122   22.1208 C   0  0  0  0  0  0
  -19.1606  -28.8849   23.2884 C   0  0  0  0  0  0
  -18.9499  -30.1379   23.9048 C   0  0  0  0  0  0
  -17.6481  -30.6504   24.0700 C   0  0  0  0  0  0
  -25.9070  -34.9337   23.5034 C   0  0  0  0  0  0
  -16.5375  -29.9054   23.6345 C   0  0  0  0  0  0
  -16.7331  -28.6512   23.0275 C   0  0  0  0  0  0
  -26.4575  -31.6509   25.0689 C   0  0  0  0  0  0
  -25.3770  -31.3753   26.1413 C   0  0  0  0  0  0
  -27.0458  -30.2895   24.6315 C   0  0  0  0  0  0
  -27.6111  -32.4276   25.7475 C   0  0  0  0  0  0
  -27.5567  -37.1750   24.8466 C   0  0  0  0  0  0
  -21.4315  -29.3050   22.3564 N   0  0  0  0  0  0
  -26.4273  -37.3674   23.9420 N   0  0  0  0  0  0
  -24.7416  -30.9998   22.0824 N   0  0  0  0  0  0
  -23.4264  -28.7934   23.2828 O   0  0  0  0  0  0
  -28.2853  -25.9146   20.1838 O   0  0  0  0  0  0
  -26.5628  -34.8866   22.4584 O   0  0  0  0  0  0
  -23.5653  -32.1187   23.6885 O   0  0  0  0  0  0
  -26.9271  -20.6823   19.4817 C   0  0  0  0  0  0
  -25.6482  -21.2399   19.3732 C   0  0  0  0  0  0
  -27.7292  -22.8612   20.4112 C   0  0  0  0  0  0
  -28.0202  -21.3142   20.1379 C   0  0  0  0  0  0
  -26.3341  -23.1423   20.5706 C   0  0  0  0  0  0
  -28.5364  -18.9920   21.3444 C   0  0  0  0  0  0
  -29.6626  -19.2521   19.4022 C   0  0  0  0  0  0
  -28.6365  -17.3275   20.9858 C   0  0  0  0  0  0
  -30.5439  -17.9168   19.8732 C   0  0  0  0  0  0
  -25.7600  -24.2095   21.5044 C   0  0  0  0  0  0
  -28.5294  -24.3486   20.6879 C   0  0  0  0  0  0
  -25.3855  -22.3814   20.0074 N   0  3  0  0  0  0
  -29.0111  -20.1571   20.4458 N   0  0  0  0  0  0
  -29.8610  -16.6300   20.3629 N   0  0  0  0  0  0
  -31.4392  -13.0164   19.1800 H   0  0  0  0  0  0
  -30.4979  -11.9370   20.1607 H   0  0  0  0  0  0
  -29.9110  -11.7007   17.7302 H   0  0  0  0  0  0
  -29.5419  -13.4045   17.6224 H   0  0  0  0  0  0
  -28.0812  -11.2617   19.1727 H   0  0  0  0  0  0
  -27.4057  -12.2405   17.8956 H   0  0  0  0  0  0
  -27.5064  -14.2166   19.2773 H   0  0  0  0  0  0
  -28.8043  -12.5966   21.5324 H   0  0  0  0  0  0
  -28.2543  -14.2537   21.6438 H   0  0  0  0  0  0
  -25.2766   -9.5647   22.4810 H   0  0  0  0  0  0
  -23.9998   -7.4607   22.7479 H   0  0  0  0  0  0
  -21.0817   -8.8807   19.8989 H   0  0  0  0  0  0
  -22.3734  -10.9690   19.6212 H   0  0  0  0  0  0
  -21.2030   -7.6148   23.9707 H   0  0  0  0  0  0
  -21.1471   -6.0514   25.9069 H   0  0  0  0  0  0
  -22.0606   -2.7593   23.2836 H   0  0  0  0  0  0
  -22.3973  -11.9886   22.4902 H   0  0  0  0  0  0
  -21.1029  -13.1302   22.2645 H   0  0  0  0  0  0
  -24.6494  -15.8559   20.5490 H   0  0  0  0  0  0
  -26.2562  -15.6272   20.0724 H   0  0  0  0  0  0
  -26.7316  -32.5214   23.0935 H   0  0  0  0  0  0
  -25.0245  -33.9481   25.0390 H   0  0  0  0  0  0
  -22.7822  -31.2705   21.3377 H   0  0  0  0  0  0
  -23.3764  -35.9528   23.3234 H   0  0  0  0  0  0
  -24.3620  -36.8871   22.2058 H   0  0  0  0  0  0
  -23.7278  -37.6384   23.6701 H   0  0  0  0  0  0
  -26.1997  -31.3780   20.6072 H   0  0  0  0  0  0
  -26.9046  -30.7274   22.0427 H   0  0  0  0  0  0
  -28.1361  -28.6229   21.3239 H   0  0  0  0  0  0
  -25.9413  -25.7739   18.9735 H   0  0  0  0  0  0
  -24.0433  -27.2877   18.9075 H   0  0  0  0  0  0
  -23.8718  -30.5202   19.3769 H   0  0  0  0  0  0
  -22.8333  -29.2028   19.8182 H   0  0  0  0  0  0
  -25.1321  -36.1735   25.0806 H   0  0  0  0  0  0
  -21.0163  -28.3251   24.1307 H   0  0  0  0  0  0
  -20.5493  -26.2258   23.3507 H   0  0  0  0  0  0
  -21.6700  -26.7337   22.1273 H   0  0  0  0  0  0
  -19.7051  -25.6662   21.0699 H   0  0  0  0  0  0
  -19.6985  -27.3709   20.6746 H   0  0  0  0  0  0
  -17.4440  -26.7296   21.3378 H   0  0  0  0  0  0
  -18.0065  -26.0051   22.8304 H   0  0  0  0  0  0
  -19.7960  -30.7113   24.2577 H   0  0  0  0  0  0
  -17.5004  -31.6118   24.5438 H   0  0  0  0  0  0
  -15.5368  -30.2932   23.7679 H   0  0  0  0  0  0
  -15.8749  -28.0887   22.6867 H   0  0  0  0  0  0
  -24.5971  -30.7035   25.7817 H   0  0  0  0  0  0
  -24.8951  -32.2956   26.4716 H   0  0  0  0  0  0
  -25.8103  -30.9070   27.0262 H   0  0  0  0  0  0
  -26.3113  -29.6584   24.1300 H   0  0  0  0  0  0
  -27.4053  -29.7218   25.4905 H   0  0  0  0  0  0
  -27.9023  -30.4128   23.9686 H   0  0  0  0  0  0
  -27.2716  -33.3615   26.1953 H   0  0  0  0  0  0
  -28.3987  -32.6730   25.0341 H   0  0  0  0  0  0
  -28.0694  -31.8441   26.5463 H   0  0  0  0  0  0
  -28.2550  -38.0068   24.7493 H   0  0  0  0  0  0
  -28.1095  -36.2592   24.6317 H   0  0  0  0  0  0
  -27.2282  -37.1424   25.8862 H   0  0  0  0  0  0
  -20.9481  -29.8896   21.6884 H   0  0  0  0  0  0
  -26.0110  -38.2709   24.1447 H   0  0  0  0  0  0
  -27.0066  -19.6731   19.1133 H   0  0  0  0  0  0
  -24.7982  -20.7380   18.9309 H   0  0  0  0  0  0
  -29.0530  -19.1390   22.2917 H   0  0  0  0  0  0
  -27.4917  -19.1872   21.5933 H   0  0  0  0  0  0
  -28.9088  -18.8989   18.6965 H   0  0  0  0  0  0
  -30.3174  -19.8885   18.8045 H   0  0  0  0  0  0
  -27.8135  -17.0991   20.3081 H   0  0  0  0  0  0
  -28.3896  -16.7824   21.8984 H   0  0  0  0  0  0
  -31.2867  -18.2191   20.6117 H   0  0  0  0  0  0
  -31.1336  -17.6121   19.0085 H   0  0  0  0  0  0
  -24.7832  -24.5558   21.1671 H   0  0  0  0  0  0
  -26.3745  -25.0828   21.6892 H   0  0  0  0  0  0
  -25.6141  -23.7602   22.4858 H   0  0  0  0  0  0
  -29.5427  -24.1266   20.3579 H   0  0  0  0  0  0
  -28.6405  -24.4157   21.7723 H   0  0  0  0  0  0
  -24.4107  -22.6819   20.0790 H   0  0  0  0  0  0
  1 25  1  0  0  0
  1 30  2  0  0  0
  1 84  1  0  0  0
  2  3  1  0  0  0
  2 25  1  0  0  0
  2 85  1  0  0  0
  2 86  1  0  0  0
  3  4  1  0  0  0
  3 87  1  0  0  0
  3 88  1  0  0  0
  4  5  1  0  0  0
  4 89  1  0  0  0
  4 90  1  0  0  0
  5  6  1  0  0  0
  5 26  1  0  0  0
  5 91  1  0  0  0
  6 25  1  0  0  0
  6 92  1  0  0  0
  6 93  1  0  0  0
  7  8  2  0  0  0
  7 26  1  0  0  0
  7 29  1  0  0  0
  8  9  1  0  0  0
  8 22  1  0  0  0
  9 10  1  0  0  0
  9 27  2  0  0  0
 10 11  2  0  0  0
 10 15  1  0  0  0
 11 12  1  0  0  0
 11 94  1  0  0  0
 12 13  2  0  0  0
 12 95  1  0  0  0
 13 14  1  0  0  0
 13 31  1  0  0  0
 14 15  2  0  0  0
 14 96  1  0  0  0
 15 97  1  0  0  0
 16 17  2  0  0  0
 16 21  1  0  0  0
 16 31  1  0  0  0
 17 18  1  0  0  0
 17 98  1  0  0  0
 18 19  2  0  0  0
 18 99  1  0  0  0
 19 20  1  0  0  0
 19 24  1  0  0  0
 20 21  2  0  0  0
 20100  1  0  0  0
 21 23  1  0  0  0
 22 28  1  0  0  0
 22 32  2  0  0  0
 26 27  1  0  0  0
 28101  1  0  0  0
 28102  1  0  0  0
 29103  1  0  0  0
 29104  1  0  0  0
 33 34  1  0  0  0
 33 66  1  0  0  0
 33 70  2  0  0  0
 34 36  1  0  0  0
 34 59  1  0  0  0
 34105  1  0  0  0
 35 44  2  0  0  0
 35 45  1  0  0  0
 35 68  1  0  0  0
 36 56  1  0  0  0
 36106  1  0  0  0
 37 39  1  0  0  0
 37 47  1  0  0  0
 37 66  1  0  0  0
 37107  1  0  0  0
 38 43  2  0  0  0
 38 46  1  0  0  0
 38 47  1  0  0  0
 39 64  1  0  0  0
 39 67  2  0  0  0
 40 52  1  0  0  0
 40 53  2  0  0  0
 40 58  1  0  0  0
 41108  1  0  0  0
 41109  1  0  0  0
 41110  1  0  0  0
 41 48  1  0  0  0
 42 43  1  0  0  0
 42 66  1  0  0  0
 42111  1  0  0  0
 42112  1  0  0  0
 43 44  1  0  0  0
 44113  1  0  0  0
 45 46  2  0  0  0
 45114  1  0  0  0
 46115  1  0  0  0
 47116  1  0  0  0
 47117  1  0  0  0
 48 56  1  0  0  0
 48 65  1  0  0  0
 48118  1  0  0  0
 49 50  1  0  0  0
 49 53  1  0  0  0
 49 64  1  0  0  0
 49119  1  0  0  0
 50 51  1  0  0  0
 50120  1  0  0  0
 50121  1  0  0  0
 51 52  1  0  0  0
 51122  1  0  0  0
 51123  1  0  0  0
 52124  1  0  0  0
 52125  1  0  0  0
 53 54  1  0  0  0
 54 55  2  0  0  0
 54126  1  0  0  0
 55 57  1  0  0  0
 55127  1  0  0  0
 56 69  2  0  0  0
 57 58  2  0  0  0
 57128  1  0  0  0
 58129  1  0  0  0
 59 60  1  0  0  0
 59 61  1  0  0  0
 59 62  1  0  0  0
 60130  1  0  0  0
 60131  1  0  0  0
 60132  1  0  0  0
 61133  1  0  0  0
 61134  1  0  0  0
 61135  1  0  0  0
 62136  1  0  0  0
 62137  1  0  0  0
 62138  1  0  0  0
 63 65  1  0  0  0
 63139  1  0  0  0
 63140  1  0  0  0
 63141  1  0  0  0
 64142  1  0  0  0
 65143  1  0  0  0
 68 81  1  0  0  0
 71 72  2  0  0  0
 71 74  1  0  0  0
 71144  1  0  0  0
 72 82  1  0  0  0
 72145  1  0  0  0
 73 74  2  0  0  0
 73 75  1  0  0  0
 73 81  1  0  0  0
 74 83  1  0  0  0
 75 80  1  0  0  0
 75 82  2  0  0  0
 76 78  1  0  0  0
 76 83  1  0  0  0
 76146  1  0  0  0
 76147  1  0  0  0
 77 79  1  0  0  0
 77 83  1  0  0  0
 77148  1  0  0  0
 77149  1  0  0  0
 78 84  1  0  0  0
 78150  1  0  0  0
 78151  1  0  0  0
 79 84  1  0  0  0
 79152  1  0  0  0
 79153  1  0  0  0
 80154  1  0  0  0
 80155  1  0  0  0
 80156  1  0  0  0
 81157  1  0  0  0
 81158  1  0  0  0
 82159  1  0  0  0
M  CHG  1  82   1
M  ISO  4   1 100  68 101  81 101  84 100
M  END
> <chiral flag>
0

> <version>
0

> <s_m_source_file>
/data/baiqing/PycharmProjects/Reinvent-master-3.2/result/LINK_invent/BTK/process_docking_weight1_custom_sum_contain_oxygen_bond_distance_aromatic_linkinvent_7_9_3/rearranged_h_0170.sdf

> <i_m_source_file_index>
49

> <r_mmod_Potential_Energy-OPLS-2005>
1574.30041503906

> <r_mmod_Stretch_Energy-OPLS-2005>
535.749145507812

> <r_mmod_Bend_Energy-OPLS-2005>
614.125244140625

> <r_mmod_Torsional_Energy-OPLS-2005>
445.124969482422

> <r_mmod_Improper_Torsional_Energy-OPLS-2005>
18.4720344543457

> <r_mmod_Van_der_Waal_Energy-OPLS-2005>
154.364166259766

> <r_mmod_Electrostatic_Energy-OPLS-2005>
-183.283615112305

> <r_mmod_Solvation_Energy-OPLS-2005>
-441.822814941406

> <b_mmod_Minimization_Converged-OPLS-2005>
0

> <r_mmod_RMS_Derivative-OPLS-2005>
5.10381889343262

$$$$
50
                    3D
 Structure written by MMmdl.
168177  0  0  1  0            999 V2000
  -30.6604  -14.6488   20.5162 C   0  0  0  0  0  0
  -30.4267  -12.4043   19.4589 C   0  0  0  0  0  0
  -29.5048  -12.5159   18.2255 C   0  0  0  0  0  0
  -28.0279  -12.3547   18.6360 C   0  0  0  0  0  0
  -27.6508  -13.2259   19.8648 C   0  0  2  0  0  0
  -28.6957  -13.0938   20.9944 C   0  0  0  0  0  0
  -25.2544  -13.8193   20.5704 C   0  0  0  0  0  0
  -24.1814  -13.0439   20.9168 C   0  0  0  0  0  0
  -24.6391  -11.6916   20.8709 C   0  0  0  0  0  0
  -23.9054  -10.4299   21.0386 C   0  0  0  0  0  0
  -24.3602   -9.4219   21.9167 C   0  0  0  0  0  0
  -23.6272   -8.2254   22.0754 C   0  0  0  0  0  0
  -22.4256   -8.0287   21.3545 C   0  0  0  0  0  0
  -21.9889   -9.0259   20.4642 C   0  0  0  0  0  0
  -22.7216  -10.2139   20.3040 C   0  0  0  0  0  0
  -21.6861   -6.0716   22.5265 C   0  0  0  0  0  0
  -21.4025   -6.5624   23.8198 C   0  0  0  0  0  0
  -21.3661   -5.6780   24.9164 C   0  0  0  0  0  0
  -21.6044   -4.3044   24.7217 C   0  0  0  0  0  0
  -21.8820   -3.8130   23.4337 C   0  0  0  0  0  0
  -21.9205   -4.6942   22.3392 C   0  0  0  0  0  0
  -22.7838  -13.5233   21.1833 C   0  0  0  0  0  0
  -22.1665   -4.2129   21.0969 F   0  0  0  0  0  0
  -21.5633   -3.4528   25.7728 F   0  0  0  0  0  0
  -30.0063  -13.4424   20.4263 N   0  0  0  0  0  0
  -26.2980  -12.9393   20.3336 N   0  0  0  0  0  0
  -25.9330  -11.6534   20.5754 N   0  0  0  0  0  0
  -22.0490  -12.8222   22.0392 N   0  0  0  0  0  0
  -25.4252  -15.1917   20.4162 N   0  0  0  0  0  0
  -31.8096  -14.7622   20.0773 O   0  0  0  0  0  0
  -21.6644   -6.8864   21.4229 O   0  0  0  0  0  0
  -22.3521  -14.5538   20.6697 O   0  0  0  0  0  0
  -24.6261  -31.8608   23.2026 C   0  0  0  0  0  0
  -25.9110  -32.4786   23.8361 C   0  0  1  0  0  0
  -27.2217  -27.3302   20.1200 C   0  0  0  0  0  0
  -25.5928  -33.8584   24.2294 N   0  0  0  0  0  0
  -23.4201  -30.4838   21.5458 C   0  0  2  0  0  0
  -24.8701  -28.9447   20.1051 C   0  0  0  0  0  0
  -22.7481  -29.4620   22.4941 C   0  0  0  0  0  0
  -18.0288  -28.1384   22.8488 C   0  0  0  0  0  0
  -24.1488  -36.7294   23.2635 C   0  0  0  0  0  0
  -25.9604  -30.7955   21.3729 C   0  0  0  0  0  0
  -26.0381  -29.4244   20.7145 C   0  0  0  0  0  0
  -27.2213  -28.6272   20.7156 C   0  0  0  0  0  0
  -26.0431  -26.9093   19.4687 C   0  0  0  0  0  0
  -24.8742  -27.6923   19.4713 C   0  0  0  0  0  0
  -23.6347  -29.8201   20.1597 C   0  0  0  0  0  0
  -25.4109  -36.3089   24.0333 C   0  0  1  0  0  0
  -20.5888  -28.3689   23.1286 C   0  0  2  0  0  0
  -20.6776  -26.9414   22.5409 C   0  0  0  0  0  0
  -19.5749  -26.6384   21.5213 C   0  0  0  0  0  0
  -18.1931  -26.7928   22.1629 C   0  0  0  0  0  0
  -19.1541  -28.8855   23.2881 C   0  0  0  0  0  0
  -18.9462  -30.1460   23.8893 C   0  0  0  0  0  0
  -17.6458  -30.6588   24.0562 C   0  0  0  0  0  0
  -25.9054  -34.9456   23.5116 C   0  0  0  0  0  0
  -16.5353  -29.9083   23.6333 C   0  0  0  0  0  0
  -16.7275  -28.6500   23.0357 C   0  0  0  0  0  0
  -26.4493  -31.6588   25.0724 C   0  0  0  0  0  0
  -25.3735  -31.3706   26.1456 C   0  0  0  0  0  0
  -27.0334  -30.3019   24.6157 C   0  0  0  0  0  0
  -27.6064  -32.4312   25.7493 C   0  0  0  0  0  0
  -27.5587  -37.1787   24.8455 C   0  0  0  0  0  0
  -21.4193  -29.3040   22.3679 N   0  0  0  0  0  0
  -26.4281  -37.3792   23.9428 N   0  0  0  0  0  0
  -24.6876  -31.0624   22.0976 N   0  0  0  0  0  0
  -23.4208  -28.8168   23.3026 O   0  0  0  0  0  0
  -28.2800  -26.4167   20.1955 O   0  0  0  0  0  0
  -26.5615  -34.8920   22.4678 O   0  0  0  0  0  0
  -23.5427  -32.1407   23.7360 O   0  0  0  0  0  0
  -28.2693  -22.8169   21.9139 C   0  0  0  0  0  0
  -29.2692  -23.2832   19.7598 C   0  0  0  0  0  0
  -28.5351  -23.7726   20.8782 C   0  0  0  0  0  0
  -28.7727  -21.4692   21.8711 C   0  0  0  0  0  0
  -29.7650  -21.9263   19.7139 C   0  0  0  0  0  0
  -29.5058  -20.9685   20.7536 C   0  0  0  0  0  0
  -29.8218  -17.6708   22.3310 C   0  0  0  0  0  0
  -29.6113  -16.1491   22.1874 C   0  0  0  0  0  0
  -30.0125  -17.0912   20.0690 C   0  0  0  0  0  0
  -29.4797  -18.2808   20.9632 C   0  0  2  0  0  0
  -27.4241  -23.2337   23.1257 C   0  0  0  0  0  0
  -29.5087  -24.2431   18.5969 C   0  0  0  0  0  0
  -28.6022  -20.5735   23.0900 C   0  0  0  0  0  0
  -30.6237  -21.5157   18.5166 C   0  0  0  0  0  0
  -27.9482  -25.2435   21.0349 C   0  0  0  0  0  0
  -29.9205  -15.7819   20.8050 N   0  0  0  0  0  0
  -30.0727  -19.6357   20.6695 N   0  0  0  0  0  0
  -31.4705  -12.5077   19.1593 H   0  0  0  0  0  0
  -30.3465  -11.4143   19.9103 H   0  0  0  0  0  0
  -29.7713  -11.7628   17.4819 H   0  0  0  0  0  0
  -29.6484  -13.4859   17.7469 H   0  0  0  0  0  0
  -27.8620  -11.3015   18.8658 H   0  0  0  0  0  0
  -27.3757  -12.5862   17.7932 H   0  0  0  0  0  0
  -27.6664  -14.2609   19.5246 H   0  0  0  0  0  0
  -28.7120  -12.0769   21.3872 H   0  0  0  0  0  0
  -28.4352  -13.7288   21.8391 H   0  0  0  0  0  0
  -25.2751   -9.5708   22.4724 H   0  0  0  0  0  0
  -23.9988   -7.4659   22.7481 H   0  0  0  0  0  0
  -21.0821   -8.8773   19.8945 H   0  0  0  0  0  0
  -22.3674  -10.9671   19.6135 H   0  0  0  0  0  0
  -21.2014   -7.6132   23.9693 H   0  0  0  0  0  0
  -21.1483   -6.0512   25.9069 H   0  0  0  0  0  0
  -22.0598   -2.7586   23.2848 H   0  0  0  0  0  0
  -22.4131  -11.9886   22.4757 H   0  0  0  0  0  0
  -21.1110  -13.1254   22.2614 H   0  0  0  0  0  0
  -24.6595  -15.8467   20.5299 H   0  0  0  0  0  0
  -26.2864  -15.6349   20.1198 H   0  0  0  0  0  0
  -26.7178  -32.5474   23.1115 H   0  0  0  0  0  0
  -25.0088  -33.9735   25.0446 H   0  0  0  0  0  0
  -22.7143  -31.3046   21.4041 H   0  0  0  0  0  0
  -23.3771  -35.9605   23.3264 H   0  0  0  0  0  0
  -24.3587  -36.8949   22.2057 H   0  0  0  0  0  0
  -23.7211  -37.6473   23.6675 H   0  0  0  0  0  0
  -26.0878  -31.5579   20.6034 H   0  0  0  0  0  0
  -26.8418  -30.8471   21.9997 H   0  0  0  0  0  0
  -28.1130  -28.9805   21.2144 H   0  0  0  0  0  0
  -26.0146  -25.9407   18.9889 H   0  0  0  0  0  0
  -23.9810  -27.3214   18.9874 H   0  0  0  0  0  0
  -23.7473  -30.5982   19.4035 H   0  0  0  0  0  0
  -22.7563  -29.2441   19.8613 H   0  0  0  0  0  0
  -25.1282  -36.1937   25.0824 H   0  0  0  0  0  0
  -20.9980  -28.3261   24.1408 H   0  0  0  0  0  0
  -20.5689  -26.2299   23.3609 H   0  0  0  0  0  0
  -21.6642  -26.7449   22.1201 H   0  0  0  0  0  0
  -19.6912  -25.6293   21.1245 H   0  0  0  0  0  0
  -19.6684  -27.3198   20.6745 H   0  0  0  0  0  0
  -17.4205  -26.6686   21.4027 H   0  0  0  0  0  0
  -18.0323  -26.0066   22.9019 H   0  0  0  0  0  0
  -19.7934  -30.7274   24.2265 H   0  0  0  0  0  0
  -17.5015  -31.6267   24.5162 H   0  0  0  0  0  0
  -15.5352  -30.2983   23.7652 H   0  0  0  0  0  0
  -15.8680  -28.0814   22.7078 H   0  0  0  0  0  0
  -24.5916  -30.7050   25.7777 H   0  0  0  0  0  0
  -24.8915  -32.2862   26.4891 H   0  0  0  0  0  0
  -25.8067  -30.8876   27.0225 H   0  0  0  0  0  0
  -26.2897  -29.6772   24.1194 H   0  0  0  0  0  0
  -27.4064  -29.7267   25.4641 H   0  0  0  0  0  0
  -27.8752  -30.4322   23.9354 H   0  0  0  0  0  0
  -27.2695  -33.3624   26.2057 H   0  0  0  0  0  0
  -28.3875  -32.6846   25.0314 H   0  0  0  0  0  0
  -28.0728  -31.8440   26.5415 H   0  0  0  0  0  0
  -28.2558  -38.0131   24.7585 H   0  0  0  0  0  0
  -28.1131  -36.2668   24.6181 H   0  0  0  0  0  0
  -27.2319  -37.1316   25.8858 H   0  0  0  0  0  0
  -20.9382  -29.8759   21.6878 H   0  0  0  0  0  0
  -26.0164  -38.2860   24.1473 H   0  0  0  0  0  0
  -30.8641  -17.8717   22.5831 H   0  0  0  0  0  0
  -29.2102  -18.0295   23.1544 H   0  0  0  0  0  0
  -30.2154  -15.5976   22.9109 H   0  0  0  0  0  0
  -28.5647  -15.9131   22.3825 H   0  0  0  0  0  0
  -31.0566  -17.2650   19.8003 H   0  0  0  0  0  0
  -29.4523  -17.0293   19.1345 H   0  0  0  0  0  0
  -28.3944  -18.3386   20.8639 H   0  0  0  0  0  0
  -26.8087  -24.1177   22.9870 H   0  0  0  0  0  0
  -28.0651  -23.4193   23.9878 H   0  0  0  0  0  0
  -26.7106  -22.4518   23.3853 H   0  0  0  0  0  0
  -28.5934  -24.7842   18.3569 H   0  0  0  0  0  0
  -29.8051  -23.7607   17.6686 H   0  0  0  0  0  0
  -30.2772  -24.9718   18.8567 H   0  0  0  0  0  0
  -28.3047  -21.0821   24.0025 H   0  0  0  0  0  0
  -29.5676  -20.1347   23.3349 H   0  0  0  0  0  0
  -27.8675  -19.7956   22.8862 H   0  0  0  0  0  0
  -31.4084  -22.2553   18.3514 H   0  0  0  0  0  0
  -30.0116  -21.4529   17.6171 H   0  0  0  0  0  0
  -31.1351  -20.5622   18.6279 H   0  0  0  0  0  0
  -28.2173  -25.5750   22.0380 H   0  0  0  0  0  0
  -26.8684  -25.1017   21.0540 H   0  0  0  0  0  0
  -30.7898  -19.5782   19.9554 H   0  0  0  0  0  0
  1 25  1  0  0  0
  1 30  2  0  0  0
  1 86  1  0  0  0
  2  3  1  0  0  0
  2 25  1  0  0  0
  2 88  1  0  0  0
  2 89  1  0  0  0
  3  4  1  0  0  0
  3 90  1  0  0  0
  3 91  1  0  0  0
  4  5  1  0  0  0
  4 92  1  0  0  0
  4 93  1  0  0  0
  5  6  1  0  0  0
  5 26  1  0  0  0
  5 94  1  0  0  0
  6 25  1  0  0  0
  6 95  1  0  0  0
  6 96  1  0  0  0
  7  8  2  0  0  0
  7 26  1  0  0  0
  7 29  1  0  0  0
  8  9  1  0  0  0
  8 22  1  0  0  0
  9 10  1  0  0  0
  9 27  2  0  0  0
 10 11  2  0  0  0
 10 15  1  0  0  0
 11 12  1  0  0  0
 11 97  1  0  0  0
 12 13  2  0  0  0
 12 98  1  0  0  0
 13 14  1  0  0  0
 13 31  1  0  0  0
 14 15  2  0  0  0
 14 99  1  0  0  0
 15100  1  0  0  0
 16 17  2  0  0  0
 16 21  1  0  0  0
 16 31  1  0  0  0
 17 18  1  0  0  0
 17101  1  0  0  0
 18 19  2  0  0  0
 18102  1  0  0  0
 19 20  1  0  0  0
 19 24  1  0  0  0
 20 21  2  0  0  0
 20103  1  0  0  0
 21 23  1  0  0  0
 22 28  1  0  0  0
 22 32  2  0  0  0
 26 27  1  0  0  0
 28104  1  0  0  0
 28105  1  0  0  0
 29106  1  0  0  0
 29107  1  0  0  0
 33 34  1  0  0  0
 33 66  1  0  0  0
 33 70  2  0  0  0
 34 36  1  0  0  0
 34 59  1  0  0  0
 34108  1  0  0  0
 35 44  2  0  0  0
 35 45  1  0  0  0
 35 68  1  0  0  0
 36 56  1  0  0  0
 36109  1  0  0  0
 37 39  1  0  0  0
 37 47  1  0  0  0
 37 66  1  0  0  0
 37110  1  0  0  0
 38 43  2  0  0  0
 38 46  1  0  0  0
 38 47  1  0  0  0
 39 64  1  0  0  0
 39 67  2  0  0  0
 40 52  1  0  0  0
 40 53  2  0  0  0
 40 58  1  0  0  0
 41111  1  0  0  0
 41112  1  0  0  0
 41113  1  0  0  0
 41 48  1  0  0  0
 42 43  1  0  0  0
 42 66  1  0  0  0
 42114  1  0  0  0
 42115  1  0  0  0
 43 44  1  0  0  0
 44116  1  0  0  0
 45 46  2  0  0  0
 45117  1  0  0  0
 46118  1  0  0  0
 47119  1  0  0  0
 47120  1  0  0  0
 48 56  1  0  0  0
 48 65  1  0  0  0
 48121  1  0  0  0
 49 50  1  0  0  0
 49 53  1  0  0  0
 49 64  1  0  0  0
 49122  1  0  0  0
 50 51  1  0  0  0
 50123  1  0  0  0
 50124  1  0  0  0
 51 52  1  0  0  0
 51125  1  0  0  0
 51126  1  0  0  0
 52127  1  0  0  0
 52128  1  0  0  0
 53 54  1  0  0  0
 54 55  2  0  0  0
 54129  1  0  0  0
 55 57  1  0  0  0
 55130  1  0  0  0
 56 69  2  0  0  0
 57 58  2  0  0  0
 57131  1  0  0  0
 58132  1  0  0  0
 59 60  1  0  0  0
 59 61  1  0  0  0
 59 62  1  0  0  0
 60133  1  0  0  0
 60134  1  0  0  0
 60135  1  0  0  0
 61136  1  0  0  0
 61137  1  0  0  0
 61138  1  0  0  0
 62139  1  0  0  0
 62140  1  0  0  0
 62141  1  0  0  0
 63 65  1  0  0  0
 63142  1  0  0  0
 63143  1  0  0  0
 63144  1  0  0  0
 64145  1  0  0  0
 65146  1  0  0  0
 68 85  1  0  0  0
 71 73  2  0  0  0
 71 74  1  0  0  0
 71 81  1  0  0  0
 72 73  1  0  0  0
 72 75  2  0  0  0
 72 82  1  0  0  0
 73 85  1  0  0  0
 74 76  2  0  0  0
 74 83  1  0  0  0
 75 76  1  0  0  0
 75 84  1  0  0  0
 76 87  1  0  0  0
 77 78  1  0  0  0
 77 80  1  0  0  0
 77147  1  0  0  0
 77148  1  0  0  0
 78 86  1  0  0  0
 78149  1  0  0  0
 78150  1  0  0  0
 79 80  1  0  0  0
 79 86  1  0  0  0
 79151  1  0  0  0
 79152  1  0  0  0
 80 87  1  0  0  0
 80153  1  0  0  0
 81154  1  0  0  0
 81155  1  0  0  0
 81156  1  0  0  0
 82157  1  0  0  0
 82158  1  0  0  0
 82159  1  0  0  0
 83160  1  0  0  0
 83161  1  0  0  0
 83162  1  0  0  0
 84163  1  0  0  0
 84164  1  0  0  0
 84165  1  0  0  0
 85166  1  0  0  0
 85167  1  0  0  0
 87168  1  0  0  0
M  ISO  4   1 100  68 101  85 101  86 100
M  END
> <chiral flag>
0

> <version>
0

> <s_m_source_file>
/data/baiqing/PycharmProjects/Reinvent-master-3.2/result/LINK_invent/BTK/process_docking_weight1_custom_sum_contain_oxygen_bond_distance_aromatic_linkinvent_7_9_3/rearranged_h_0170.sdf

> <i_m_source_file_index>
50

> <r_mmod_Potential_Energy-OPLS-2005>
298.023498535156

> <r_mmod_Stretch_Energy-OPLS-2005>
94.7274322509766

> <r_mmod_Bend_Energy-OPLS-2005>
201.515029907227

> <r_mmod_Torsional_Energy-OPLS-2005>
354.059295654297

> <r_mmod_Improper_Torsional_Energy-OPLS-2005>
13.315770149231

> <r_mmod_Van_der_Waal_Energy-OPLS-2005>
170.434143066406

> <r_mmod_Electrostatic_Energy-OPLS-2005>
-394.666870117188

> <r_mmod_Solvation_Energy-OPLS-2005>
-194.45719909668

> <b_mmod_Minimization_Converged-OPLS-2005>
0

> <r_mmod_RMS_Derivative-OPLS-2005>
1.36234033107758

$$$$
51
                    3D
 Structure written by MMmdl.
162171  0  0  1  0            999 V2000
  -30.6249  -14.8535   20.4175 C   0  0  0  0  0  0
  -30.4189  -12.5254   19.4897 C   0  0  0  0  0  0
  -29.5048  -12.5023   18.2478 C   0  0  0  0  0  0
  -28.0375  -12.3105   18.6714 C   0  0  0  0  0  0
  -27.6268  -13.2468   19.8395 C   0  0  2  0  0  0
  -28.6734  -13.2765   20.9717 C   0  0  0  0  0  0
  -25.2450  -13.8218   20.5759 C   0  0  0  0  0  0
  -24.1759  -13.0441   20.9240 C   0  0  0  0  0  0
  -24.6375  -11.6929   20.8772 C   0  0  0  0  0  0
  -23.9068  -10.4294   21.0420 C   0  0  0  0  0  0
  -24.3621   -9.4198   21.9191 C   0  0  0  0  0  0
  -23.6294   -8.2232   22.0754 C   0  0  0  0  0  0
  -22.4267   -8.0273   21.3551 C   0  0  0  0  0  0
  -21.9916   -9.0246   20.4642 C   0  0  0  0  0  0
  -22.7245  -10.2127   20.3057 C   0  0  0  0  0  0
  -21.6850   -6.0727   22.5282 C   0  0  0  0  0  0
  -21.4013   -6.5644   23.8205 C   0  0  0  0  0  0
  -21.3665   -5.6798   24.9178 C   0  0  0  0  0  0
  -21.6040   -4.3061   24.7229 C   0  0  0  0  0  0
  -21.8814   -3.8141   23.4358 C   0  0  0  0  0  0
  -21.9196   -4.6963   22.3404 C   0  0  0  0  0  0
  -22.7776  -13.5201   21.1891 C   0  0  0  0  0  0
  -22.1658   -4.2143   21.0986 F   0  0  0  0  0  0
  -21.5627   -3.4542   25.7748 F   0  0  0  0  0  0
  -29.9571  -13.6382   20.3615 N   0  0  0  0  0  0
  -26.2876  -12.9456   20.3303 N   0  0  0  0  0  0
  -25.9312  -11.6585   20.5785 N   0  0  0  0  0  0
  -22.0442  -12.8166   22.0451 N   0  0  0  0  0  0
  -25.4144  -15.1946   20.4217 N   0  0  0  0  0  0
  -31.8338  -14.8444   20.1611 O   0  0  0  0  0  0
  -21.6635   -6.8871   21.4236 O   0  0  0  0  0  0
  -22.3454  -14.5508   20.6747 O   0  0  0  0  0  0
  -24.6327  -31.8511   23.1923 C   0  0  0  0  0  0
  -25.9112  -32.4735   23.8298 C   0  0  1  0  0  0
  -27.2093  -27.1867   20.1399 C   0  0  0  0  0  0
  -25.5872  -33.8549   24.2198 N   0  0  0  0  0  0
  -23.4344  -30.4705   21.5378 C   0  0  2  0  0  0
  -24.8803  -28.9077   20.1071 C   0  0  0  0  0  0
  -22.7513  -29.4574   22.4906 C   0  0  0  0  0  0
  -18.0279  -28.1410   22.8484 C   0  0  0  0  0  0
  -24.1493  -36.7313   23.2659 C   0  0  0  0  0  0
  -25.9847  -30.7379   21.3868 C   0  0  0  0  0  0
  -26.0535  -29.3537   20.7285 C   0  0  0  0  0  0
  -27.2125  -28.5027   20.7389 C   0  0  0  0  0  0
  -26.0126  -26.8302   19.4784 C   0  0  0  0  0  0
  -24.8706  -27.6580   19.4695 C   0  0  0  0  0  0
  -23.6551  -29.8029   20.1540 C   0  0  0  0  0  0
  -25.4120  -36.3075   24.0322 C   0  0  1  0  0  0
  -20.5883  -28.3718   23.1289 C   0  0  2  0  0  0
  -20.6783  -26.9443   22.5423 C   0  0  0  0  0  0
  -19.5749  -26.6402   21.5232 C   0  0  0  0  0  0
  -18.1923  -26.7952   22.1625 C   0  0  0  0  0  0
  -19.1535  -28.8877   23.2872 C   0  0  0  0  0  0
  -18.9461  -30.1478   23.8891 C   0  0  0  0  0  0
  -17.6463  -30.6614   24.0564 C   0  0  0  0  0  0
  -25.9053  -34.9438   23.5073 C   0  0  0  0  0  0
  -16.5346  -29.9120   23.6345 C   0  0  0  0  0  0
  -16.7266  -28.6532   23.0366 C   0  0  0  0  0  0
  -26.4437  -31.6586   25.0713 C   0  0  0  0  0  0
  -25.3611  -31.3757   26.1384 C   0  0  0  0  0  0
  -27.0340  -30.3015   24.6260 C   0  0  0  0  0  0
  -27.5999  -32.4349   25.7445 C   0  0  0  0  0  0
  -27.5592  -37.1802   24.8457 C   0  0  0  0  0  0
  -21.4216  -29.3053   22.3658 N   0  0  0  0  0  0
  -26.4306  -37.3771   23.9395 N   0  0  0  0  0  0
  -24.7034  -31.0402   22.0942 N   0  0  0  0  0  0
  -23.4179  -28.8135   23.3048 O   0  0  0  0  0  0
  -28.2875  -26.2558   20.2575 O   0  0  0  0  0  0
  -26.5673  -34.8911   22.4675 O   0  0  0  0  0  0
  -23.5462  -32.1380   23.7160 O   0  0  0  0  0  0
  -28.0745  -21.0039   21.9214 C   0  0  0  0  0  0
  -28.8362  -20.8865   20.7421 C   0  0  0  0  0  0
  -28.9350  -22.1629   20.0030 C   0  0  0  0  0  0
  -28.3393  -23.4316   20.4772 C   0  0  0  0  0  0
  -27.6208  -23.3051   21.6874 C   0  0  0  0  0  0
  -29.9677  -18.5588   21.6683 C   0  0  0  0  0  0
  -28.7033  -18.3105   19.6620 C   0  0  0  0  0  0
  -30.6917  -17.1646   21.3813 C   0  0  0  0  0  0
  -29.4047  -16.8700   19.4312 C   0  0  0  0  0  0
  -29.5164  -19.4229   20.4293 C   0  0  0  0  0  0
  -29.6573  -22.1900   18.6673 C   0  0  0  0  0  0
  -26.8738  -24.4747   22.3046 C   0  0  0  0  0  0
  -28.3334  -24.8444   19.6580 C   0  0  0  0  0  0
  -27.4984  -22.1419   22.3681 N   0  0  0  0  0  0
  -29.9674  -16.1009   20.6022 N   0  0  0  0  0  0
  -31.4590  -12.6377   19.1795 H   0  0  0  0  0  0
  -30.3725  -11.5780   20.0298 H   0  0  0  0  0  0
  -29.8070  -11.7034   17.5699 H   0  0  0  0  0  0
  -29.6114  -13.4352   17.6923 H   0  0  0  0  0  0
  -27.9204  -11.2707   18.9778 H   0  0  0  0  0  0
  -27.3713  -12.4511   17.8193 H   0  0  0  0  0  0
  -27.5877  -14.2476   19.4128 H   0  0  0  0  0  0
  -28.7366  -12.3107   21.4738 H   0  0  0  0  0  0
  -28.3956  -14.0095   21.7310 H   0  0  0  0  0  0
  -25.2758   -9.5676   22.4775 H   0  0  0  0  0  0
  -23.9998   -7.4618   22.7470 H   0  0  0  0  0  0
  -21.0848   -8.8769   19.8940 H   0  0  0  0  0  0
  -22.3700  -10.9675   19.6169 H   0  0  0  0  0  0
  -21.2011   -7.6149   23.9720 H   0  0  0  0  0  0
  -21.1484   -6.0526   25.9082 H   0  0  0  0  0  0
  -22.0595   -2.7606   23.2859 H   0  0  0  0  0  0
  -22.4085  -11.9831   22.4824 H   0  0  0  0  0  0
  -21.1057  -13.1166   22.2674 H   0  0  0  0  0  0
  -24.6545  -15.8529   20.5546 H   0  0  0  0  0  0
  -26.2793  -15.6393   20.1430 H   0  0  0  0  0  0
  -26.7174  -32.5346   23.1041 H   0  0  0  0  0  0
  -24.9911  -33.9669   25.0266 H   0  0  0  0  0  0
  -22.7325  -31.2948   21.3922 H   0  0  0  0  0  0
  -23.3752  -35.9656   23.3292 H   0  0  0  0  0  0
  -24.3585  -36.8966   22.2084 H   0  0  0  0  0  0
  -23.7230  -37.6498   23.6710 H   0  0  0  0  0  0
  -26.1337  -31.4956   20.6153 H   0  0  0  0  0  0
  -26.8573  -30.7874   22.0271 H   0  0  0  0  0  0
  -28.0996  -28.8330   21.2602 H   0  0  0  0  0  0
  -25.9067  -25.8750   18.9919 H   0  0  0  0  0  0
  -23.9720  -27.3110   18.9786 H   0  0  0  0  0  0
  -23.7877  -30.5786   19.3988 H   0  0  0  0  0  0
  -22.7704  -29.2429   19.8454 H   0  0  0  0  0  0
  -25.1311  -36.1960   25.0823 H   0  0  0  0  0  0
  -20.9942  -28.3320   24.1419 H   0  0  0  0  0  0
  -20.5734  -26.2331   23.3633 H   0  0  0  0  0  0
  -21.6660  -26.7520   22.1190 H   0  0  0  0  0  0
  -19.6921  -25.6316   21.1268 H   0  0  0  0  0  0
  -19.6680  -27.3211   20.6769 H   0  0  0  0  0  0
  -17.4202  -26.6702   21.4019 H   0  0  0  0  0  0
  -18.0297  -26.0110   22.9033 H   0  0  0  0  0  0
  -19.7937  -30.7286   24.2261 H   0  0  0  0  0  0
  -17.5023  -31.6281   24.5195 H   0  0  0  0  0  0
  -15.5341  -30.3017   23.7694 H   0  0  0  0  0  0
  -15.8656  -28.0844   22.7115 H   0  0  0  0  0  0
  -24.5786  -30.7124   25.7657 H   0  0  0  0  0  0
  -24.8784  -32.2936   26.4759 H   0  0  0  0  0  0
  -25.7851  -30.8929   27.0192 H   0  0  0  0  0  0
  -26.2975  -29.6684   24.1298 H   0  0  0  0  0  0
  -27.4032  -29.7346   25.4811 H   0  0  0  0  0  0
  -27.8820  -30.4300   23.9530 H   0  0  0  0  0  0
  -27.2648  -33.3708   26.1929 H   0  0  0  0  0  0
  -28.3823  -32.6798   25.0245 H   0  0  0  0  0  0
  -28.0636  -31.8519   26.5406 H   0  0  0  0  0  0
  -28.2598  -38.0118   24.7527 H   0  0  0  0  0  0
  -28.1097  -36.2633   24.6277 H   0  0  0  0  0  0
  -27.2290  -37.1441   25.8855 H   0  0  0  0  0  0
  -20.9427  -29.8761   21.6829 H   0  0  0  0  0  0
  -26.0194  -38.2860   24.1372 H   0  0  0  0  0  0
  -27.9109  -20.1468   22.5560 H   0  0  0  0  0  0
  -30.6330  -19.1620   22.2877 H   0  0  0  0  0  0
  -29.1049  -18.3392   22.2966 H   0  0  0  0  0  0
  -27.7631  -18.1460   20.1889 H   0  0  0  0  0  0
  -28.4192  -18.7125   18.6886 H   0  0  0  0  0  0
  -30.9784  -16.7311   22.3408 H   0  0  0  0  0  0
  -31.6321  -17.3843   20.8720 H   0  0  0  0  0  0
  -30.2199  -17.0051   18.7169 H   0  0  0  0  0  0
  -28.6922  -16.2258   18.9172 H   0  0  0  0  0  0
  -30.4194  -19.6247   19.8539 H   0  0  0  0  0  0
  -29.9215  -21.1953   18.3135 H   0  0  0  0  0  0
  -30.5696  -22.7821   18.7402 H   0  0  0  0  0  0
  -29.0225  -22.6478   17.9066 H   0  0  0  0  0  0
  -26.1248  -24.8570   21.6115 H   0  0  0  0  0  0
  -27.5587  -25.2839   22.5599 H   0  0  0  0  0  0
  -26.3536  -24.1828   23.2177 H   0  0  0  0  0  0
  -27.5970  -24.7293   18.8677 H   0  0  0  0  0  0
  -29.2776  -24.8516   19.1152 H   0  0  0  0  0  0
  1 25  1  0  0  0
  1 30  2  0  0  0
  1 85  1  0  0  0
  2  3  1  0  0  0
  2 25  1  0  0  0
  2 86  1  0  0  0
  2 87  1  0  0  0
  3  4  1  0  0  0
  3 88  1  0  0  0
  3 89  1  0  0  0
  4  5  1  0  0  0
  4 90  1  0  0  0
  4 91  1  0  0  0
  5  6  1  0  0  0
  5 26  1  0  0  0
  5 92  1  0  0  0
  6 25  1  0  0  0
  6 93  1  0  0  0
  6 94  1  0  0  0
  7  8  2  0  0  0
  7 26  1  0  0  0
  7 29  1  0  0  0
  8  9  1  0  0  0
  8 22  1  0  0  0
  9 10  1  0  0  0
  9 27  2  0  0  0
 10 11  2  0  0  0
 10 15  1  0  0  0
 11 12  1  0  0  0
 11 95  1  0  0  0
 12 13  2  0  0  0
 12 96  1  0  0  0
 13 14  1  0  0  0
 13 31  1  0  0  0
 14 15  2  0  0  0
 14 97  1  0  0  0
 15 98  1  0  0  0
 16 17  2  0  0  0
 16 21  1  0  0  0
 16 31  1  0  0  0
 17 18  1  0  0  0
 17 99  1  0  0  0
 18 19  2  0  0  0
 18100  1  0  0  0
 19 20  1  0  0  0
 19 24  1  0  0  0
 20 21  2  0  0  0
 20101  1  0  0  0
 21 23  1  0  0  0
 22 28  1  0  0  0
 22 32  2  0  0  0
 26 27  1  0  0  0
 28102  1  0  0  0
 28103  1  0  0  0
 29104  1  0  0  0
 29105  1  0  0  0
 33 34  1  0  0  0
 33 66  1  0  0  0
 33 70  2  0  0  0
 34 36  1  0  0  0
 34 59  1  0  0  0
 34106  1  0  0  0
 35 44  2  0  0  0
 35 45  1  0  0  0
 35 68  1  0  0  0
 36 56  1  0  0  0
 36107  1  0  0  0
 37 39  1  0  0  0
 37 47  1  0  0  0
 37 66  1  0  0  0
 37108  1  0  0  0
 38 43  2  0  0  0
 38 46  1  0  0  0
 38 47  1  0  0  0
 39 64  1  0  0  0
 39 67  2  0  0  0
 40 52  1  0  0  0
 40 53  2  0  0  0
 40 58  1  0  0  0
 41109  1  0  0  0
 41110  1  0  0  0
 41111  1  0  0  0
 41 48  1  0  0  0
 42 43  1  0  0  0
 42 66  1  0  0  0
 42112  1  0  0  0
 42113  1  0  0  0
 43 44  1  0  0  0
 44114  1  0  0  0
 45 46  2  0  0  0
 45115  1  0  0  0
 46116  1  0  0  0
 47117  1  0  0  0
 47118  1  0  0  0
 48 56  1  0  0  0
 48 65  1  0  0  0
 48119  1  0  0  0
 49 50  1  0  0  0
 49 53  1  0  0  0
 49 64  1  0  0  0
 49120  1  0  0  0
 50 51  1  0  0  0
 50121  1  0  0  0
 50122  1  0  0  0
 51 52  1  0  0  0
 51123  1  0  0  0
 51124  1  0  0  0
 52125  1  0  0  0
 52126  1  0  0  0
 53 54  1  0  0  0
 54 55  2  0  0  0
 54127  1  0  0  0
 55 57  1  0  0  0
 55128  1  0  0  0
 56 69  2  0  0  0
 57 58  2  0  0  0
 57129  1  0  0  0
 58130  1  0  0  0
 59 60  1  0  0  0
 59 61  1  0  0  0
 59 62  1  0  0  0
 60131  1  0  0  0
 60132  1  0  0  0
 60133  1  0  0  0
 61134  1  0  0  0
 61135  1  0  0  0
 61136  1  0  0  0
 62137  1  0  0  0
 62138  1  0  0  0
 62139  1  0  0  0
 63 65  1  0  0  0
 63140  1  0  0  0
 63141  1  0  0  0
 63142  1  0  0  0
 64143  1  0  0  0
 65144  1  0  0  0
 68 83  1  0  0  0
 71 72  2  0  0  0
 71 84  1  0  0  0
 71145  1  0  0  0
 72 73  1  0  0  0
 72 80  1  0  0  0
 73 74  2  0  0  0
 73 81  1  0  0  0
 74 75  1  0  0  0
 74 83  1  0  0  0
 75 82  1  0  0  0
 75 84  2  0  0  0
 76 78  1  0  0  0
 76 80  1  0  0  0
 76146  1  0  0  0
 76147  1  0  0  0
 77 79  1  0  0  0
 77 80  1  0  0  0
 77148  1  0  0  0
 77149  1  0  0  0
 78 85  1  0  0  0
 78150  1  0  0  0
 78151  1  0  0  0
 79 85  1  0  0  0
 79152  1  0  0  0
 79153  1  0  0  0
 80154  1  0  0  0
 81155  1  0  0  0
 81156  1  0  0  0
 81157  1  0  0  0
 82158  1  0  0  0
 82159  1  0  0  0
 82160  1  0  0  0
 83161  1  0  0  0
 83162  1  0  0  0
M  ISO  4   1 100  68 101  83 101  85 100
M  END
> <chiral flag>
0

> <version>
0

> <s_m_source_file>
/data/baiqing/PycharmProjects/Reinvent-master-3.2/result/LINK_invent/BTK/process_docking_weight1_custom_sum_contain_oxygen_bond_distance_aromatic_linkinvent_7_9_3/rearranged_h_0170.sdf

> <i_m_source_file_index>
51

> <r_mmod_Potential_Energy-OPLS-2005>
449.001495361328

> <r_mmod_Stretch_Energy-OPLS-2005>
186.333618164062

> <r_mmod_Bend_Energy-OPLS-2005>
249.155853271484

> <r_mmod_Torsional_Energy-OPLS-2005>
324.812042236328

> <r_mmod_Improper_Torsional_Energy-OPLS-2005>
8.81513404846191

> <r_mmod_Van_der_Waal_Energy-OPLS-2005>
139.279357910156

> <r_mmod_Electrostatic_Energy-OPLS-2005>
-394.070159912109

> <r_mmod_Solvation_Energy-OPLS-2005>
-207.985046386719

> <b_mmod_Minimization_Converged-OPLS-2005>
0

> <r_mmod_RMS_Derivative-OPLS-2005>
2.27377533912659

$$$$
52
                    3D
 Structure written by MMmdl.
167176  0  0  1  0            999 V2000
  -30.5449  -14.7415   20.4790 C   0  0  0  0  0  0
  -30.4584  -12.4595   19.4651 C   0  0  0  0  0  0
  -29.5161  -12.5008   18.2361 C   0  0  0  0  0  0
  -28.0353  -12.3244   18.6438 C   0  0  0  0  0  0
  -27.6410  -13.2175   19.8474 C   0  0  2  0  0  0
  -28.6835  -13.0925   20.9823 C   0  0  0  0  0  0
  -25.2514  -13.8186   20.5714 C   0  0  0  0  0  0
  -24.1768  -13.0425   20.9263 C   0  0  0  0  0  0
  -24.6357  -11.6914   20.8793 C   0  0  0  0  0  0
  -23.9017  -10.4291   21.0440 C   0  0  0  0  0  0
  -24.3582   -9.4190   21.9205 C   0  0  0  0  0  0
  -23.6261   -8.2221   22.0732 C   0  0  0  0  0  0
  -22.4242   -8.0275   21.3533 C   0  0  0  0  0  0
  -21.9894   -9.0243   20.4636 C   0  0  0  0  0  0
  -22.7206  -10.2139   20.3064 C   0  0  0  0  0  0
  -21.6838   -6.0721   22.5290 C   0  0  0  0  0  0
  -21.3993   -6.5622   23.8225 C   0  0  0  0  0  0
  -21.3662   -5.6784   24.9187 C   0  0  0  0  0  0
  -21.6048   -4.3044   24.7247 C   0  0  0  0  0  0
  -21.8805   -3.8139   23.4365 C   0  0  0  0  0  0
  -21.9177   -4.6948   22.3421 C   0  0  0  0  0  0
  -22.7798  -13.5215   21.1919 C   0  0  0  0  0  0
  -22.1640   -4.2134   21.0998 F   0  0  0  0  0  0
  -21.5647   -3.4527   25.7757 F   0  0  0  0  0  0
  -29.9843  -13.4859   20.4172 N   0  0  0  0  0  0
  -26.2888  -12.9338   20.3237 N   0  0  0  0  0  0
  -25.9273  -11.6503   20.5790 N   0  0  0  0  0  0
  -22.0401  -12.8239   22.0485 N   0  0  0  0  0  0
  -25.4274  -15.1890   20.4088 N   0  0  0  0  0  0
  -31.7297  -14.9159   20.1838 O   0  0  0  0  0  0
  -21.6597   -6.8870   21.4247 O   0  0  0  0  0  0
  -22.3486  -14.5511   20.6747 O   0  0  0  0  0  0
  -24.6359  -31.8516   23.1960 C   0  0  0  0  0  0
  -25.9162  -32.4727   23.8321 C   0  0  1  0  0  0
  -27.2209  -27.2378   20.1258 C   0  0  0  0  0  0
  -25.5960  -33.8534   24.2270 N   0  0  0  0  0  0
  -23.4337  -30.4722   21.5413 C   0  0  2  0  0  0
  -24.8789  -28.9168   20.1074 C   0  0  0  0  0  0
  -22.7504  -29.4573   22.4912 C   0  0  0  0  0  0
  -18.0275  -28.1375   22.8511 C   0  0  0  0  0  0
  -24.1500  -36.7273   23.2645 C   0  0  0  0  0  0
  -25.9815  -30.7530   21.3819 C   0  0  0  0  0  0
  -26.0493  -29.3782   20.7210 C   0  0  0  0  0  0
  -27.2174  -28.5470   20.7209 C   0  0  0  0  0  0
  -26.0361  -26.8690   19.4485 C   0  0  0  0  0  0
  -24.8789  -27.6732   19.4610 C   0  0  0  0  0  0
  -23.6505  -29.8031   20.1579 C   0  0  0  0  0  0
  -25.4116  -36.3063   24.0350 C   0  0  1  0  0  0
  -20.5893  -28.3705   23.1251 C   0  0  2  0  0  0
  -20.6789  -26.9422   22.5416 C   0  0  0  0  0  0
  -19.5734  -26.6423   21.5241 C   0  0  0  0  0  0
  -18.1940  -26.7888   22.1750 C   0  0  0  0  0  0
  -19.1539  -28.8859   23.2840 C   0  0  0  0  0  0
  -18.9472  -30.1492   23.8828 C   0  0  0  0  0  0
  -17.6476  -30.6618   24.0500 C   0  0  0  0  0  0
  -25.9052  -34.9420   23.5105 C   0  0  0  0  0  0
  -16.5370  -29.9083   23.6312 C   0  0  0  0  0  0
  -16.7254  -28.6496   23.0391 C   0  0  0  0  0  0
  -26.4494  -31.6568   25.0724 C   0  0  0  0  0  0
  -25.3707  -31.3742   26.1436 C   0  0  0  0  0  0
  -27.0352  -30.2973   24.6282 C   0  0  0  0  0  0
  -27.6029  -32.4326   25.7506 C   0  0  0  0  0  0
  -27.5577  -37.1781   24.8463 C   0  0  0  0  0  0
  -21.4202  -29.3046   22.3646 N   0  0  0  0  0  0
  -26.4285  -37.3773   23.9414 N   0  0  0  0  0  0
  -24.7018  -31.0461   22.0951 N   0  0  0  0  0  0
  -23.4199  -28.8110   23.3025 O   0  0  0  0  0  0
  -28.3025  -26.3289   20.2798 O   0  0  0  0  0  0
  -26.5628  -34.8903   22.4670 O   0  0  0  0  0  0
  -23.5504  -32.1344   23.7259 O   0  0  0  0  0  0
  -29.1271  -22.3534   20.2553 C   0  0  0  0  0  0
  -28.2252  -23.5156   20.3649 C   0  0  0  0  0  0
  -28.7358  -20.9828   20.6240 C   0  0  0  0  0  0
  -26.9946  -23.2090   21.0003 C   0  0  0  0  0  0
  -27.4497  -20.9115   21.2264 C   0  0  0  0  0  0
  -29.0800  -18.3924   20.0122 C   0  0  0  0  0  0
  -30.7191  -19.5139   21.2955 C   0  0  0  0  0  0
  -29.7482  -17.3063   20.9607 C   0  0  2  0  0  0
  -31.0896  -17.9925   21.2007 C   0  0  2  0  0  0
  -30.5492  -22.5393   19.7489 C   0  0  0  0  0  0
  -25.9142  -24.2360   21.2650 C   0  0  0  0  0  0
  -26.8383  -19.6266   21.7588 C   0  0  0  0  0  0
  -28.4124  -24.9611   19.6397 C   0  0  0  0  0  0
  -26.6474  -21.9760   21.4179 N   0  0  0  0  0  0
  -29.5469  -19.7701   20.4354 N   0  0  0  0  0  0
  -29.6765  -15.7920   20.7199 N   0  0  0  0  0  0
  -31.7747  -17.4808   22.3969 N   0  3  0  0  0  0
  -31.4900  -12.6373   19.1519 H   0  0  0  0  0  0
  -30.4664  -11.4722   19.9301 H   0  0  0  0  0  0
  -29.7989  -11.7202   17.5258 H   0  0  0  0  0  0
  -29.6400  -13.4586   17.7273 H   0  0  0  0  0  0
  -27.9006  -11.2803   18.9140 H   0  0  0  0  0  0
  -27.3729  -12.4938   17.7929 H   0  0  0  0  0  0
  -27.6549  -14.2420   19.4747 H   0  0  0  0  0  0
  -28.7223  -12.0625   21.3457 H   0  0  0  0  0  0
  -28.4068  -13.6921   21.8522 H   0  0  0  0  0  0
  -25.2716   -9.5639   22.4782 H   0  0  0  0  0  0
  -23.9964   -7.4587   22.7430 H   0  0  0  0  0  0
  -21.0824   -8.8742   19.8945 H   0  0  0  0  0  0
  -22.3651  -10.9657   19.6164 H   0  0  0  0  0  0
  -21.1954   -7.6124   23.9727 H   0  0  0  0  0  0
  -21.1509   -6.0513   25.9102 H   0  0  0  0  0  0
  -22.0588   -2.7595   23.2870 H   0  0  0  0  0  0
  -22.3965  -11.9904   22.4903 H   0  0  0  0  0  0
  -21.1016  -13.1299   22.2635 H   0  0  0  0  0  0
  -24.6618  -15.8463   20.5071 H   0  0  0  0  0  0
  -26.2567  -15.6116   20.0118 H   0  0  0  0  0  0
  -26.7215  -32.5343   23.1045 H   0  0  0  0  0  0
  -25.0072  -33.9677   25.0399 H   0  0  0  0  0  0
  -22.7358  -31.2976   21.3923 H   0  0  0  0  0  0
  -23.3776  -35.9602   23.3322 H   0  0  0  0  0  0
  -24.3581  -36.8870   22.2049 H   0  0  0  0  0  0
  -23.7229  -37.6472   23.6649 H   0  0  0  0  0  0
  -26.1345  -31.5128   20.6136 H   0  0  0  0  0  0
  -26.8543  -30.7962   22.0210 H   0  0  0  0  0  0
  -28.1136  -28.8870   21.2192 H   0  0  0  0  0  0
  -25.9562  -25.9184   18.9472 H   0  0  0  0  0  0
  -23.9755  -27.3299   18.9726 H   0  0  0  0  0  0
  -23.7648  -30.5775   19.3988 H   0  0  0  0  0  0
  -22.7706  -29.2317   19.8606 H   0  0  0  0  0  0
  -25.1300  -36.1922   25.0854 H   0  0  0  0  0  0
  -20.9979  -28.3231   24.1367 H   0  0  0  0  0  0
  -20.5741  -26.2320   23.3636 H   0  0  0  0  0  0
  -21.6651  -26.7414   22.1207 H   0  0  0  0  0  0
  -19.6884  -25.6370   21.1243 H   0  0  0  0  0  0
  -19.6640  -27.3249   20.6765 H   0  0  0  0  0  0
  -17.4115  -26.6521   21.4254 H   0  0  0  0  0  0
  -18.0480  -26.0073   22.9223 H   0  0  0  0  0  0
  -19.7921  -30.7352   24.2174 H   0  0  0  0  0  0
  -17.5021  -31.6316   24.5049 H   0  0  0  0  0  0
  -15.5368  -30.3010   23.7673 H   0  0  0  0  0  0
  -15.8664  -28.0768   22.7183 H   0  0  0  0  0  0
  -24.5906  -30.7059   25.7786 H   0  0  0  0  0  0
  -24.8843  -32.2901   26.4806 H   0  0  0  0  0  0
  -25.8016  -30.8956   27.0240 H   0  0  0  0  0  0
  -26.2961  -29.6711   24.1268 H   0  0  0  0  0  0
  -27.3968  -29.7257   25.4842 H   0  0  0  0  0  0
  -27.8888  -30.4233   23.9622 H   0  0  0  0  0  0
  -27.2641  -33.3661   26.2035 H   0  0  0  0  0  0
  -28.3872  -32.6843   25.0351 H   0  0  0  0  0  0
  -28.0676  -31.8460   26.5449 H   0  0  0  0  0  0
  -28.2590  -38.0076   24.7515 H   0  0  0  0  0  0
  -28.1074  -36.2599   24.6312 H   0  0  0  0  0  0
  -27.2279  -37.1461   25.8858 H   0  0  0  0  0  0
  -20.9386  -29.8711   21.6808 H   0  0  0  0  0  0
  -26.0178  -38.2866   24.1395 H   0  0  0  0  0  0
  -29.4063  -18.2131   18.9870 H   0  0  0  0  0  0
  -28.0021  -18.2817   19.9638 H   0  0  0  0  0  0
  -31.5810  -20.1111   20.9846 H   0  0  0  0  0  0
  -30.4865  -19.7789   22.3283 H   0  0  0  0  0  0
  -29.1898  -17.3968   21.8903 H   0  0  0  0  0  0
  -31.7246  -17.8466   20.3248 H   0  0  0  0  0  0
  -30.8346  -23.5719   19.5855 H   0  0  0  0  0  0
  -30.7038  -21.9769   18.8281 H   0  0  0  0  0  0
  -31.2515  -22.1785   20.4961 H   0  0  0  0  0  0
  -25.3078  -24.3965   20.3758 H   0  0  0  0  0  0
  -26.3393  -25.1786   21.6020 H   0  0  0  0  0  0
  -25.2402  -23.9035   22.0537 H   0  0  0  0  0  0
  -27.5879  -18.9483   22.1606 H   0  0  0  0  0  0
  -26.2779  -19.1321   20.9663 H   0  0  0  0  0  0
  -26.1346  -19.8290   22.5649 H   0  0  0  0  0  0
  -27.7817  -24.9277   18.7542 H   0  0  0  0  0  0
  -29.4018  -24.9925   19.1987 H   0  0  0  0  0  0
  -28.7510  -15.4449   20.9118 H   0  0  0  0  0  0
  -31.1291  -17.0270   23.0193 H   0  0  0  0  0  0
  -32.2159  -18.2349   22.8900 H   0  0  0  0  0  0
  -32.4863  -16.8230   22.1333 H   0  0  0  0  0  0
  1 25  1  0  0  0
  1 30  2  0  0  0
  1 86  1  0  0  0
  2  3  1  0  0  0
  2 25  1  0  0  0
  2 88  1  0  0  0
  2 89  1  0  0  0
  3  4  1  0  0  0
  3 90  1  0  0  0
  3 91  1  0  0  0
  4  5  1  0  0  0
  4 92  1  0  0  0
  4 93  1  0  0  0
  5  6  1  0  0  0
  5 26  1  0  0  0
  5 94  1  0  0  0
  6 25  1  0  0  0
  6 95  1  0  0  0
  6 96  1  0  0  0
  7  8  2  0  0  0
  7 26  1  0  0  0
  7 29  1  0  0  0
  8  9  1  0  0  0
  8 22  1  0  0  0
  9 10  1  0  0  0
  9 27  2  0  0  0
 10 11  2  0  0  0
 10 15  1  0  0  0
 11 12  1  0  0  0
 11 97  1  0  0  0
 12 13  2  0  0  0
 12 98  1  0  0  0
 13 14  1  0  0  0
 13 31  1  0  0  0
 14 15  2  0  0  0
 14 99  1  0  0  0
 15100  1  0  0  0
 16 17  2  0  0  0
 16 21  1  0  0  0
 16 31  1  0  0  0
 17 18  1  0  0  0
 17101  1  0  0  0
 18 19  2  0  0  0
 18102  1  0  0  0
 19 20  1  0  0  0
 19 24  1  0  0  0
 20 21  2  0  0  0
 20103  1  0  0  0
 21 23  1  0  0  0
 22 28  1  0  0  0
 22 32  2  0  0  0
 26 27  1  0  0  0
 28104  1  0  0  0
 28105  1  0  0  0
 29106  1  0  0  0
 29107  1  0  0  0
 33 34  1  0  0  0
 33 66  1  0  0  0
 33 70  2  0  0  0
 34 36  1  0  0  0
 34 59  1  0  0  0
 34108  1  0  0  0
 35 44  2  0  0  0
 35 45  1  0  0  0
 35 68  1  0  0  0
 36 56  1  0  0  0
 36109  1  0  0  0
 37 39  1  0  0  0
 37 47  1  0  0  0
 37 66  1  0  0  0
 37110  1  0  0  0
 38 43  2  0  0  0
 38 46  1  0  0  0
 38 47  1  0  0  0
 39 64  1  0  0  0
 39 67  2  0  0  0
 40 52  1  0  0  0
 40 53  2  0  0  0
 40 58  1  0  0  0
 41111  1  0  0  0
 41112  1  0  0  0
 41113  1  0  0  0
 41 48  1  0  0  0
 42 43  1  0  0  0
 42 66  1  0  0  0
 42114  1  0  0  0
 42115  1  0  0  0
 43 44  1  0  0  0
 44116  1  0  0  0
 45 46  2  0  0  0
 45117  1  0  0  0
 46118  1  0  0  0
 47119  1  0  0  0
 47120  1  0  0  0
 48 56  1  0  0  0
 48 65  1  0  0  0
 48121  1  0  0  0
 49 50  1  0  0  0
 49 53  1  0  0  0
 49 64  1  0  0  0
 49122  1  0  0  0
 50 51  1  0  0  0
 50123  1  0  0  0
 50124  1  0  0  0
 51 52  1  0  0  0
 51125  1  0  0  0
 51126  1  0  0  0
 52127  1  0  0  0
 52128  1  0  0  0
 53 54  1  0  0  0
 54 55  2  0  0  0
 54129  1  0  0  0
 55 57  1  0  0  0
 55130  1  0  0  0
 56 69  2  0  0  0
 57 58  2  0  0  0
 57131  1  0  0  0
 58132  1  0  0  0
 59 60  1  0  0  0
 59 61  1  0  0  0
 59 62  1  0  0  0
 60133  1  0  0  0
 60134  1  0  0  0
 60135  1  0  0  0
 61136  1  0  0  0
 61137  1  0  0  0
 61138  1  0  0  0
 62139  1  0  0  0
 62140  1  0  0  0
 62141  1  0  0  0
 63 65  1  0  0  0
 63142  1  0  0  0
 63143  1  0  0  0
 63144  1  0  0  0
 64145  1  0  0  0
 65146  1  0  0  0
 68 83  1  0  0  0
 71 72  2  0  0  0
 71 73  1  0  0  0
 71 80  1  0  0  0
 72 74  1  0  0  0
 72 83  1  0  0  0
 73 75  2  0  0  0
 73 85  1  0  0  0
 74 81  1  0  0  0
 74 84  2  0  0  0
 75 82  1  0  0  0
 75 84  1  0  0  0
 76 78  1  0  0  0
 76 85  1  0  0  0
 76147  1  0  0  0
 76148  1  0  0  0
 77 79  1  0  0  0
 77 85  1  0  0  0
 77149  1  0  0  0
 77150  1  0  0  0
 78 79  1  0  0  0
 78 86  1  0  0  0
 78151  1  0  0  0
 79 87  1  0  0  0
 79152  1  0  0  0
 80153  1  0  0  0
 80154  1  0  0  0
 80155  1  0  0  0
 81156  1  0  0  0
 81157  1  0  0  0
 81158  1  0  0  0
 82159  1  0  0  0
 82160  1  0  0  0
 82161  1  0  0  0
 83162  1  0  0  0
 83163  1  0  0  0
 86164  1  0  0  0
 87165  1  0  0  0
 87166  1  0  0  0
 87167  1  0  0  0
M  CHG  1  87   1
M  ISO  4   1 100  68 101  83 101  86 100
M  END
> <chiral flag>
0

> <version>
0

> <s_m_source_file>
/data/baiqing/PycharmProjects/Reinvent-master-3.2/result/LINK_invent/BTK/process_docking_weight1_custom_sum_contain_oxygen_bond_distance_aromatic_linkinvent_7_9_3/rearranged_h_0170.sdf

> <i_m_source_file_index>
52

> <r_mmod_Potential_Energy-OPLS-2005>
-56.3789215087891

> <r_mmod_Stretch_Energy-OPLS-2005>
143.678497314453

> <r_mmod_Bend_Energy-OPLS-2005>
276.748443603516

> <r_mmod_Torsional_Energy-OPLS-2005>
326.733612060547

> <r_mmod_Improper_Torsional_Energy-OPLS-2005>
8.40204238891602

> <r_mmod_Van_der_Waal_Energy-OPLS-2005>
144.212692260742

> <r_mmod_Electrostatic_Energy-OPLS-2005>
-550.155090332031

> <r_mmod_Solvation_Energy-OPLS-2005>
-504.201477050781

> <b_mmod_Minimization_Converged-OPLS-2005>
0

> <r_mmod_RMS_Derivative-OPLS-2005>
6.44562959671021

$$$$
53
                    3D
 Structure written by MMmdl.
164173  0  0  1  0            999 V2000
  -30.6409  -14.9290   20.4490 C   0  0  0  0  0  0
  -30.4374  -12.5937   19.5059 C   0  0  0  0  0  0
  -29.5235  -12.4961   18.2677 C   0  0  0  0  0  0
  -28.0634  -12.2783   18.6994 C   0  0  0  0  0  0
  -27.6307  -13.2366   19.8413 C   0  0  2  0  0  0
  -28.6782  -13.3108   20.9746 C   0  0  0  0  0  0
  -25.2496  -13.8157   20.5851 C   0  0  0  0  0  0
  -24.1779  -13.0421   20.9255 C   0  0  0  0  0  0
  -24.6348  -11.6891   20.8785 C   0  0  0  0  0  0
  -23.8995  -10.4274   21.0391 C   0  0  0  0  0  0
  -24.3560   -9.4200   21.9170 C   0  0  0  0  0  0
  -23.6274   -8.2216   22.0723 C   0  0  0  0  0  0
  -22.4261   -8.0231   21.3514 C   0  0  0  0  0  0
  -21.9860   -9.0178   20.4598 C   0  0  0  0  0  0
  -22.7149  -10.2086   20.3020 C   0  0  0  0  0  0
  -21.6848   -6.0686   22.5261 C   0  0  0  0  0  0
  -21.4024   -6.5611   23.8186 C   0  0  0  0  0  0
  -21.3673   -5.6771   24.9165 C   0  0  0  0  0  0
  -21.6065   -4.3035   24.7222 C   0  0  0  0  0  0
  -21.8808   -3.8107   23.4341 C   0  0  0  0  0  0
  -21.9192   -4.6922   22.3388 C   0  0  0  0  0  0
  -22.7778  -13.5180   21.1892 C   0  0  0  0  0  0
  -22.1638   -4.2099   21.0974 F   0  0  0  0  0  0
  -21.5630   -3.4516   25.7732 F   0  0  0  0  0  0
  -29.9447  -13.7237   20.3543 N   0  0  0  0  0  0
  -26.2909  -12.9377   20.3342 N   0  0  0  0  0  0
  -25.9296  -11.6513   20.5787 N   0  0  0  0  0  0
  -22.0406  -12.8204   22.0438 N   0  0  0  0  0  0
  -25.4192  -15.1908   20.4389 N   0  0  0  0  0  0
  -31.8560  -14.8502   20.2293 O   0  0  0  0  0  0
  -21.6636   -6.8825   21.4224 O   0  0  0  0  0  0
  -22.3493  -14.5481   20.6690 O   0  0  0  0  0  0
  -24.6438  -31.8492   23.1884 C   0  0  0  0  0  0
  -25.9212  -32.4699   23.8303 C   0  0  1  0  0  0
  -27.1810  -27.1411   20.1570 C   0  0  0  0  0  0
  -25.5998  -33.8512   24.2240 N   0  0  0  0  0  0
  -23.4437  -30.4772   21.5326 C   0  0  2  0  0  0
  -24.8786  -28.9003   20.1185 C   0  0  0  0  0  0
  -22.7562  -29.4615   22.4808 C   0  0  0  0  0  0
  -18.0327  -28.1378   22.8457 C   0  0  0  0  0  0
  -24.1496  -36.7264   23.2637 C   0  0  0  0  0  0
  -26.0021  -30.7169   21.3912 C   0  0  0  0  0  0
  -26.0575  -29.3270   20.7447 C   0  0  0  0  0  0
  -27.2100  -28.4589   20.7579 C   0  0  0  0  0  0
  -25.9873  -26.8230   19.4801 C   0  0  0  0  0  0
  -24.8497  -27.6543   19.4801 C   0  0  0  0  0  0
  -23.6643  -29.8109   20.1518 C   0  0  0  0  0  0
  -25.4135  -36.3030   24.0302 C   0  0  1  0  0  0
  -20.5961  -28.3745   23.1175 C   0  0  2  0  0  0
  -20.6814  -26.9439   22.5368 C   0  0  0  0  0  0
  -19.5774  -26.6362   21.5199 C   0  0  0  0  0  0
  -18.1956  -26.7923   22.1598 C   0  0  0  0  0  0
  -19.1594  -28.8886   23.2811 C   0  0  0  0  0  0
  -18.9490  -30.1477   23.8835 C   0  0  0  0  0  0
  -17.6476  -30.6559   24.0572 C   0  0  0  0  0  0
  -25.9084  -34.9400   23.5063 C   0  0  0  0  0  0
  -16.5378  -29.9047   23.6316 C   0  0  0  0  0  0
  -16.7314  -28.6478   23.0337 C   0  0  0  0  0  0
  -26.4523  -31.6533   25.0726 C   0  0  0  0  0  0
  -25.3705  -31.3704   26.1409 C   0  0  0  0  0  0
  -27.0413  -30.2928   24.6311 C   0  0  0  0  0  0
  -27.6054  -32.4312   25.7477 C   0  0  0  0  0  0
  -27.5583  -37.1795   24.8472 C   0  0  0  0  0  0
  -21.4272  -29.3085   22.3543 N   0  0  0  0  0  0
  -26.4294  -37.3732   23.9403 N   0  0  0  0  0  0
  -24.7173  -31.0389   22.0897 N   0  0  0  0  0  0
  -23.4224  -28.8144   23.2945 O   0  0  0  0  0  0
  -28.2428  -26.1829   20.0759 O   0  0  0  0  0  0
  -26.5610  -34.8876   22.4619 O   0  0  0  0  0  0
  -23.5552  -32.1401   23.7080 O   0  0  0  0  0  0
  -29.1078  -22.1959   20.5383 C   0  0  0  0  0  0
  -28.2318  -23.3190   20.4155 C   0  0  0  0  0  0
  -27.0743  -22.6781   19.8580 C   0  0  0  0  0  0
  -27.3011  -21.3268   19.6431 C   0  0  0  0  0  0
  -28.2330  -18.2631   20.7623 C   0  0  0  0  0  0
  -30.4817  -18.9909   20.5766 C   0  0  0  0  0  0
  -28.6353  -16.6957   20.6287 C   0  0  0  0  0  0
  -30.9597  -17.4703   20.3032 C   0  0  0  0  0  0
  -29.0745  -19.4095   20.0534 C   0  0  0  0  0  0
  -25.7725  -23.3723   19.5464 C   0  0  0  0  0  0
  -26.3672  -20.3535   18.9748 C   0  0  0  0  0  0
  -29.6397  -25.1091   21.6946 C   0  0  0  0  0  0
  -28.3242  -24.9022   20.9283 C   0  0  1  0  0  0
  -28.5475  -20.9183   20.1382 N   0  0  0  0  0  0
  -30.0685  -16.2502   20.5260 N   0  0  0  0  0  0
  -31.4679  -12.7295   19.1764 H   0  0  0  0  0  0
  -30.4328  -11.6566   20.0689 H   0  0  0  0  0  0
  -29.8520  -11.6716   17.6339 H   0  0  0  0  0  0
  -29.6122  -13.4072   17.6755 H   0  0  0  0  0  0
  -27.9930  -11.2476   19.0494 H   0  0  0  0  0  0
  -27.3865  -12.3674   17.8492 H   0  0  0  0  0  0
  -27.5789  -14.2174   19.3757 H   0  0  0  0  0  0
  -28.7876  -12.3484   21.4761 H   0  0  0  0  0  0
  -28.3688  -14.0143   21.7462 H   0  0  0  0  0  0
  -25.2685   -9.5703   22.4785 H   0  0  0  0  0  0
  -23.9967   -7.4608   22.7447 H   0  0  0  0  0  0
  -21.0764   -8.8630   19.8925 H   0  0  0  0  0  0
  -22.3532  -10.9610   19.6130 H   0  0  0  0  0  0
  -21.2020   -7.6128   23.9670 H   0  0  0  0  0  0
  -21.1529   -6.0516   25.9064 H   0  0  0  0  0  0
  -22.0599   -2.7575   23.2834 H   0  0  0  0  0  0
  -22.3987  -11.9904   22.4973 H   0  0  0  0  0  0
  -21.0985  -13.1202   22.2492 H   0  0  0  0  0  0
  -24.6578  -15.8402   20.5963 H   0  0  0  0  0  0
  -26.2720  -15.6471   20.1486 H   0  0  0  0  0  0
  -26.7295  -32.5288   23.1048 H   0  0  0  0  0  0
  -25.0301  -33.9687   25.0490 H   0  0  0  0  0  0
  -22.7481  -31.3047   21.3805 H   0  0  0  0  0  0
  -23.3748  -35.9601   23.3286 H   0  0  0  0  0  0
  -24.3602  -36.8897   22.2052 H   0  0  0  0  0  0
  -23.7224  -37.6457   23.6674 H   0  0  0  0  0  0
  -26.1814  -31.4628   20.6135 H   0  0  0  0  0  0
  -26.8666  -30.7532   22.0427 H   0  0  0  0  0  0
  -28.1106  -28.7742   21.2633 H   0  0  0  0  0  0
  -25.9221  -25.9065   18.9220 H   0  0  0  0  0  0
  -23.9418  -27.3349   18.9829 H   0  0  0  0  0  0
  -23.8114  -30.5842   19.3965 H   0  0  0  0  0  0
  -22.7717  -29.2619   19.8439 H   0  0  0  0  0  0
  -25.1302  -36.1874   25.0777 H   0  0  0  0  0  0
  -21.0097  -28.3355   24.1289 H   0  0  0  0  0  0
  -20.5707  -26.2397   23.3636 H   0  0  0  0  0  0
  -21.6680  -26.7410   22.1193 H   0  0  0  0  0  0
  -19.6954  -25.6275   21.1248 H   0  0  0  0  0  0
  -19.6684  -27.3162   20.6733 H   0  0  0  0  0  0
  -17.4250  -26.6707   21.3973 H   0  0  0  0  0  0
  -18.0296  -26.0074   22.8992 H   0  0  0  0  0  0
  -19.7977  -30.7316   24.2161 H   0  0  0  0  0  0
  -17.5023  -31.6215   24.5209 H   0  0  0  0  0  0
  -15.5381  -30.2915   23.7648 H   0  0  0  0  0  0
  -15.8734  -28.0758   22.7055 H   0  0  0  0  0  0
  -24.5897  -30.7040   25.7733 H   0  0  0  0  0  0
  -24.8891  -32.2872   26.4801 H   0  0  0  0  0  0
  -25.7969  -30.8900   27.0218 H   0  0  0  0  0  0
  -26.3034  -29.6589   24.1375 H   0  0  0  0  0  0
  -27.4114  -29.7248   25.4866 H   0  0  0  0  0  0
  -27.8892  -30.4194   23.9574 H   0  0  0  0  0  0
  -27.2664  -33.3644   26.1971 H   0  0  0  0  0  0
  -28.3848  -32.6814   25.0275 H   0  0  0  0  0  0
  -28.0739  -31.8514   26.5434 H   0  0  0  0  0  0
  -28.2581  -38.0115   24.7510 H   0  0  0  0  0  0
  -28.1074  -36.2624   24.6284 H   0  0  0  0  0  0
  -27.2304  -37.1429   25.8880 H   0  0  0  0  0  0
  -20.9476  -29.8838   21.6761 H   0  0  0  0  0  0
  -26.0151  -38.2789   24.1414 H   0  0  0  0  0  0
  -30.1208  -22.1934   20.9177 H   0  0  0  0  0  0
  -28.1898  -18.5125   21.8237 H   0  0  0  0  0  0
  -27.1992  -18.3267   20.4369 H   0  0  0  0  0  0
  -31.2280  -19.6716   20.1623 H   0  0  0  0  0  0
  -30.5084  -19.1676   21.6516 H   0  0  0  0  0  0
  -28.1358  -16.3089   19.7398 H   0  0  0  0  0  0
  -28.1879  -16.1787   21.4829 H   0  0  0  0  0  0
  -31.2961  -17.4145   19.2657 H   0  0  0  0  0  0
  -31.8648  -17.3333   20.8949 H   0  0  0  0  0  0
  -29.0842  -19.1778   18.9844 H   0  0  0  0  0  0
  -25.8463  -23.8569   18.5744 H   0  0  0  0  0  0
  -25.5152  -24.1037   20.3123 H   0  0  0  0  0  0
  -24.9387  -22.6722   19.4980 H   0  0  0  0  0  0
  -26.8948  -19.6885   18.2914 H   0  0  0  0  0  0
  -25.6185  -20.8620   18.3730 H   0  0  0  0  0  0
  -25.8155  -19.7597   19.7029 H   0  0  0  0  0  0
  -30.4865  -24.7817   21.0909 H   0  0  0  0  0  0
  -29.6689  -24.5566   22.6343 H   0  0  0  0  0  0
  -29.7970  -26.1611   21.9385 H   0  0  0  0  0  0
  -27.5239  -25.0115   21.6670 H   0  0  0  0  0  0
  1 25  1  0  0  0
  1 30  2  0  0  0
  1 85  1  0  0  0
  2  3  1  0  0  0
  2 25  1  0  0  0
  2 86  1  0  0  0
  2 87  1  0  0  0
  3  4  1  0  0  0
  3 88  1  0  0  0
  3 89  1  0  0  0
  4  5  1  0  0  0
  4 90  1  0  0  0
  4 91  1  0  0  0
  5  6  1  0  0  0
  5 26  1  0  0  0
  5 92  1  0  0  0
  6 25  1  0  0  0
  6 93  1  0  0  0
  6 94  1  0  0  0
  7  8  2  0  0  0
  7 26  1  0  0  0
  7 29  1  0  0  0
  8  9  1  0  0  0
  8 22  1  0  0  0
  9 10  1  0  0  0
  9 27  2  0  0  0
 10 11  2  0  0  0
 10 15  1  0  0  0
 11 12  1  0  0  0
 11 95  1  0  0  0
 12 13  2  0  0  0
 12 96  1  0  0  0
 13 14  1  0  0  0
 13 31  1  0  0  0
 14 15  2  0  0  0
 14 97  1  0  0  0
 15 98  1  0  0  0
 16 17  2  0  0  0
 16 21  1  0  0  0
 16 31  1  0  0  0
 17 18  1  0  0  0
 17 99  1  0  0  0
 18 19  2  0  0  0
 18100  1  0  0  0
 19 20  1  0  0  0
 19 24  1  0  0  0
 20 21  2  0  0  0
 20101  1  0  0  0
 21 23  1  0  0  0
 22 28  1  0  0  0
 22 32  2  0  0  0
 26 27  1  0  0  0
 28102  1  0  0  0
 28103  1  0  0  0
 29104  1  0  0  0
 29105  1  0  0  0
 33 34  1  0  0  0
 33 66  1  0  0  0
 33 70  2  0  0  0
 34 36  1  0  0  0
 34 59  1  0  0  0
 34106  1  0  0  0
 35 44  2  0  0  0
 35 45  1  0  0  0
 35 68  1  0  0  0
 36 56  1  0  0  0
 36107  1  0  0  0
 37 39  1  0  0  0
 37 47  1  0  0  0
 37 66  1  0  0  0
 37108  1  0  0  0
 38 43  2  0  0  0
 38 46  1  0  0  0
 38 47  1  0  0  0
 39 64  1  0  0  0
 39 67  2  0  0  0
 40 52  1  0  0  0
 40 53  2  0  0  0
 40 58  1  0  0  0
 41109  1  0  0  0
 41110  1  0  0  0
 41111  1  0  0  0
 41 48  1  0  0  0
 42 43  1  0  0  0
 42 66  1  0  0  0
 42112  1  0  0  0
 42113  1  0  0  0
 43 44  1  0  0  0
 44114  1  0  0  0
 45 46  2  0  0  0
 45115  1  0  0  0
 46116  1  0  0  0
 47117  1  0  0  0
 47118  1  0  0  0
 48 56  1  0  0  0
 48 65  1  0  0  0
 48119  1  0  0  0
 49 50  1  0  0  0
 49 53  1  0  0  0
 49 64  1  0  0  0
 49120  1  0  0  0
 50 51  1  0  0  0
 50121  1  0  0  0
 50122  1  0  0  0
 51 52  1  0  0  0
 51123  1  0  0  0
 51124  1  0  0  0
 52125  1  0  0  0
 52126  1  0  0  0
 53 54  1  0  0  0
 54 55  2  0  0  0
 54127  1  0  0  0
 55 57  1  0  0  0
 55128  1  0  0  0
 56 69  2  0  0  0
 57 58  2  0  0  0
 57129  1  0  0  0
 58130  1  0  0  0
 59 60  1  0  0  0
 59 61  1  0  0  0
 59 62  1  0  0  0
 60131  1  0  0  0
 60132  1  0  0  0
 60133  1  0  0  0
 61134  1  0  0  0
 61135  1  0  0  0
 61136  1  0  0  0
 62137  1  0  0  0
 62138  1  0  0  0
 62139  1  0  0  0
 63 65  1  0  0  0
 63140  1  0  0  0
 63141  1  0  0  0
 63142  1  0  0  0
 64143  1  0  0  0
 65144  1  0  0  0
 68 83  1  0  0  0
 71 72  2  0  0  0
 71 84  1  0  0  0
 71145  1  0  0  0
 72 73  1  0  0  0
 72 83  1  0  0  0
 73 74  2  0  0  0
 73 80  1  0  0  0
 74 81  1  0  0  0
 74 84  1  0  0  0
 75 77  1  0  0  0
 75 79  1  0  0  0
 75146  1  0  0  0
 75147  1  0  0  0
 76 78  1  0  0  0
 76 79  1  0  0  0
 76148  1  0  0  0
 76149  1  0  0  0
 77 85  1  0  0  0
 77150  1  0  0  0
 77151  1  0  0  0
 78 85  1  0  0  0
 78152  1  0  0  0
 78153  1  0  0  0
 79 84  1  0  0  0
 79154  1  0  0  0
 80155  1  0  0  0
 80156  1  0  0  0
 80157  1  0  0  0
 81158  1  0  0  0
 81159  1  0  0  0
 81160  1  0  0  0
 82161  1  0  0  0
 82162  1  0  0  0
 82163  1  0  0  0
 82 83  1  0  0  0
 83164  1  0  0  0
M  ISO  4   1 100  68 101  83 101  85 100
M  END
> <chiral flag>
0

> <version>
0

> <s_m_source_file>
/data/baiqing/PycharmProjects/Reinvent-master-3.2/result/LINK_invent/BTK/process_docking_weight1_custom_sum_contain_oxygen_bond_distance_aromatic_linkinvent_7_9_3/rearranged_h_0170.sdf

> <i_m_source_file_index>
53

> <r_mmod_Potential_Energy-OPLS-2005>
698.410400390625

> <r_mmod_Stretch_Energy-OPLS-2005>
226.414474487305

> <r_mmod_Bend_Energy-OPLS-2005>
314.616851806641

> <r_mmod_Torsional_Energy-OPLS-2005>
365.184020996094

> <r_mmod_Improper_Torsional_Energy-OPLS-2005>
7.20276165008545

> <r_mmod_Van_der_Waal_Energy-OPLS-2005>
117.358383178711

> <r_mmod_Electrostatic_Energy-OPLS-2005>
-305.735809326172

> <r_mmod_Solvation_Energy-OPLS-2005>
-207.843017578125

> <b_mmod_Minimization_Converged-OPLS-2005>
0

> <r_mmod_RMS_Derivative-OPLS-2005>
6.25350141525269

$$$$
54
                    3D
 Structure written by MMmdl.
153162  0  0  1  0            999 V2000
  -30.5419  -15.0876   20.4733 C   0  0  0  0  0  0
  -30.4362  -12.6964   19.5377 C   0  0  0  0  0  0
  -29.5341  -12.5551   18.2881 C   0  0  0  0  0  0
  -28.0789  -12.2967   18.7169 C   0  0  0  0  0  0
  -27.6235  -13.2624   19.8413 C   0  0  2  0  0  0
  -28.6515  -13.3761   20.9870 C   0  0  0  0  0  0
  -25.2426  -13.8220   20.5698 C   0  0  0  0  0  0
  -24.1768  -13.0434   20.9209 C   0  0  0  0  0  0
  -24.6396  -11.6916   20.8708 C   0  0  0  0  0  0
  -23.9075  -10.4275   21.0379 C   0  0  0  0  0  0
  -24.3622   -9.4200   21.9167 C   0  0  0  0  0  0
  -23.6285   -8.2258   22.0769 C   0  0  0  0  0  0
  -22.4266   -8.0298   21.3556 C   0  0  0  0  0  0
  -21.9893   -9.0273   20.4659 C   0  0  0  0  0  0
  -22.7240  -10.2144   20.3031 C   0  0  0  0  0  0
  -21.6878   -6.0748   22.5277 C   0  0  0  0  0  0
  -21.4057   -6.5650   23.8215 C   0  0  0  0  0  0
  -21.3629   -5.6800   24.9170 C   0  0  0  0  0  0
  -21.6005   -4.3063   24.7201 C   0  0  0  0  0  0
  -21.8805   -3.8157   23.4332 C   0  0  0  0  0  0
  -21.9213   -4.6975   22.3401 C   0  0  0  0  0  0
  -22.7784  -13.5215   21.1823 C   0  0  0  0  0  0
  -22.1650   -4.2170   21.0967 F   0  0  0  0  0  0
  -21.5597   -3.4528   25.7704 F   0  0  0  0  0  0
  -29.9141  -13.8233   20.3876 N   0  0  0  0  0  0
  -26.2862  -12.9492   20.3251 N   0  0  0  0  0  0
  -25.9345  -11.6598   20.5734 N   0  0  0  0  0  0
  -22.0411  -12.8258   22.0402 N   0  0  0  0  0  0
  -25.4022  -15.1940   20.4087 N   0  0  0  0  0  0
  -31.7414  -15.0764   20.1680 O   0  0  0  0  0  0
  -21.6629   -6.8905   21.4251 O   0  0  0  0  0  0
  -22.3497  -14.5541   20.6688 O   0  0  0  0  0  0
  -24.6507  -31.8372   23.1755 C   0  0  0  0  0  0
  -25.9253  -32.4642   23.8190 C   0  0  1  0  0  0
  -27.2354  -27.0393   20.2257 C   0  0  0  0  0  0
  -25.5979  -33.8452   24.2126 N   0  0  0  0  0  0
  -23.4613  -30.4488   21.5197 C   0  0  2  0  0  0
  -24.9213  -28.8479   20.1192 C   0  0  0  0  0  0
  -22.7587  -29.4541   22.4780 C   0  0  0  0  0  0
  -18.0315  -28.1437   22.8490 C   0  0  0  0  0  0
  -24.1477  -36.7221   23.2646 C   0  0  0  0  0  0
  -26.0196  -30.6852   21.3858 C   0  0  0  0  0  0
  -26.0963  -29.2809   20.7449 C   0  0  0  0  0  0
  -27.2535  -28.3987   20.7691 C   0  0  0  0  0  0
  -26.0322  -26.7198   19.5590 C   0  0  0  0  0  0
  -24.9103  -27.5845   19.5008 C   0  0  0  0  0  0
  -23.6973  -29.7591   20.1457 C   0  0  0  0  0  0
  -25.4115  -36.2971   24.0298 C   0  0  1  0  0  0
  -20.5934  -28.3795   23.1180 C   0  0  2  0  0  0
  -20.6821  -26.9484   22.5394 C   0  0  0  0  0  0
  -19.5794  -26.6415   21.5208 C   0  0  0  0  0  0
  -18.1969  -26.7987   22.1624 C   0  0  0  0  0  0
  -19.1587  -28.8931   23.2843 C   0  0  0  0  0  0
  -18.9505  -30.1514   23.8876 C   0  0  0  0  0  0
  -17.6509  -30.6627   24.0565 C   0  0  0  0  0  0
  -25.9098  -34.9367   23.5023 C   0  0  0  0  0  0
  -16.5397  -29.9121   23.6332 C   0  0  0  0  0  0
  -16.7302  -28.6538   23.0360 C   0  0  0  0  0  0
  -26.4559  -31.6522   25.0643 C   0  0  0  0  0  0
  -25.3729  -31.3776   26.1320 C   0  0  0  0  0  0
  -27.0462  -30.2902   24.6301 C   0  0  0  0  0  0
  -27.6029  -32.4337   25.7477 C   0  0  0  0  0  0
  -27.5563  -37.1748   24.8465 C   0  0  0  0  0  0
  -21.4282  -29.3096   22.3513 N   0  0  0  0  0  0
  -26.4267  -37.3692   23.9417 N   0  0  0  0  0  0
  -24.7305  -31.0147   22.0830 N   0  0  0  0  0  0
  -23.4198  -28.8142   23.3009 O   0  0  0  0  0  0
  -28.3052  -26.0358   20.2583 O   0  0  0  0  0  0
  -26.5668  -34.8900   22.4592 O   0  0  0  0  0  0
  -23.5600  -32.1305   23.6904 O   0  0  0  0  0  0
  -30.5038  -19.9540   22.3601 C   0  0  0  0  0  0
  -30.1306  -18.7870   21.6431 C   0  0  0  0  0  0
  -30.1168  -21.2724   21.9125 C   0  0  0  0  0  0
  -29.4100  -18.9678   20.4979 C   0  0  0  0  0  0
  -29.2779  -21.4908   20.7597 C   0  0  0  0  0  0
  -30.4466  -17.2615   21.8937 C   0  0  0  0  0  0
  -29.2875  -17.4750   19.8902 C   0  0  0  0  0  0
  -30.7263  -22.4493   22.6608 C   0  0  0  0  0  0
  -28.9922  -23.0592   20.1311 C   0  0  0  0  0  0
  -28.1818  -24.4962   20.7064 C   0  0  0  0  0  0
  -28.9823  -20.2683   20.0645 N   0  0  0  0  0  0
  -29.8895  -16.3492   20.8080 N   0  0  0  0  0  0
  -31.4667  -12.8582   19.2204 H   0  0  0  0  0  0
  -30.4566  -11.7688   20.1140 H   0  0  0  0  0  0
  -29.8962  -11.7480   17.6493 H   0  0  0  0  0  0
  -29.5895  -13.4719   17.6953 H   0  0  0  0  0  0
  -28.0287  -11.2703   19.0813 H   0  0  0  0  0  0
  -27.4075  -12.3475   17.8584 H   0  0  0  0  0  0
  -27.5679  -14.2462   19.3749 H   0  0  0  0  0  0
  -28.7641  -12.4290   21.5160 H   0  0  0  0  0  0
  -28.3162  -14.1055   21.7279 H   0  0  0  0  0  0
  -25.2748   -9.5693   22.4771 H   0  0  0  0  0  0
  -23.9973   -7.4649   22.7513 H   0  0  0  0  0  0
  -21.0821   -8.8821   19.8974 H   0  0  0  0  0  0
  -22.3689  -10.9709   19.6161 H   0  0  0  0  0  0
  -21.2088   -7.6150   23.9741 H   0  0  0  0  0  0
  -21.1442   -6.0508   25.9085 H   0  0  0  0  0  0
  -22.0610   -2.7628   23.2810 H   0  0  0  0  0  0
  -22.3998  -11.9951   22.4861 H   0  0  0  0  0  0
  -21.1046  -13.1350   22.2563 H   0  0  0  0  0  0
  -24.6130  -15.8260   20.4827 H   0  0  0  0  0  0
  -26.2318  -15.6352   20.0323 H   0  0  0  0  0  0
  -26.7320  -32.5218   23.0921 H   0  0  0  0  0  0
  -25.0105  -33.9557   25.0265 H   0  0  0  0  0  0
  -22.7682  -31.2742   21.3485 H   0  0  0  0  0  0
  -23.3721  -35.9561   23.3273 H   0  0  0  0  0  0
  -24.3588  -36.8897   22.2069 H   0  0  0  0  0  0
  -23.7255  -37.6426   23.6712 H   0  0  0  0  0  0
  -26.1758  -31.4258   20.5988 H   0  0  0  0  0  0
  -26.8884  -30.7470   22.0296 H   0  0  0  0  0  0
  -28.1463  -28.7380   21.2770 H   0  0  0  0  0  0
  -25.9461  -25.7485   19.0911 H   0  0  0  0  0  0
  -24.0179  -27.2446   18.9960 H   0  0  0  0  0  0
  -23.8370  -30.5248   19.3810 H   0  0  0  0  0  0
  -22.8137  -29.1994   19.8341 H   0  0  0  0  0  0
  -25.1281  -36.1767   25.0778 H   0  0  0  0  0  0
  -21.0047  -28.3423   24.1294 H   0  0  0  0  0  0
  -20.5742  -26.2413   23.3642 H   0  0  0  0  0  0
  -21.6688  -26.7516   22.1183 H   0  0  0  0  0  0
  -19.6986  -25.6316   21.1268 H   0  0  0  0  0  0
  -19.6732  -27.3190   20.6697 H   0  0  0  0  0  0
  -17.4246  -26.6716   21.4012 H   0  0  0  0  0  0
  -18.0390  -26.0143   22.9031 H   0  0  0  0  0  0
  -19.7984  -30.7314   24.2270 H   0  0  0  0  0  0
  -17.5062  -31.6300   24.5181 H   0  0  0  0  0  0
  -15.5409  -30.3012   23.7675 H   0  0  0  0  0  0
  -15.8703  -28.0825   22.7099 H   0  0  0  0  0  0
  -24.5962  -30.7045   25.7680 H   0  0  0  0  0  0
  -24.8880  -32.2997   26.4535 H   0  0  0  0  0  0
  -25.8004  -30.9154   27.0223 H   0  0  0  0  0  0
  -26.3127  -29.6589   24.1294 H   0  0  0  0  0  0
  -27.4040  -29.7210   25.4889 H   0  0  0  0  0  0
  -27.9000  -30.4093   23.9631 H   0  0  0  0  0  0
  -27.2560  -33.3673   26.1912 H   0  0  0  0  0  0
  -28.3935  -32.6870   25.0401 H   0  0  0  0  0  0
  -28.0584  -31.8596   26.5566 H   0  0  0  0  0  0
  -28.2511  -38.0101   24.7506 H   0  0  0  0  0  0
  -28.1112  -36.2620   24.6239 H   0  0  0  0  0  0
  -27.2299  -37.1312   25.8876 H   0  0  0  0  0  0
  -20.9514  -29.8713   21.6592 H   0  0  0  0  0  0
  -26.0098  -38.2733   24.1460 H   0  0  0  0  0  0
  -31.1441  -19.8480   23.2280 H   0  0  0  0  0  0
  -31.5253  -17.1197   21.9955 H   0  0  0  0  0  0
  -30.0081  -16.9679   22.8488 H   0  0  0  0  0  0
  -28.2342  -17.2529   19.7060 H   0  0  0  0  0  0
  -29.8007  -17.4510   18.9249 H   0  0  0  0  0  0
  -30.9058  -22.1996   23.7082 H   0  0  0  0  0  0
  -30.0876  -23.3247   22.6425 H   0  0  0  0  0  0
  -31.6863  -22.7320   22.2220 H   0  0  0  0  0  0
  -28.5437  -22.8641   19.1576 H   0  0  0  0  0  0
  -30.0047  -23.3996   19.9032 H   0  0  0  0  0  0
  -28.4344  -24.5567   21.7645 H   0  0  0  0  0  0
  -27.1189  -24.2589   20.7369 H   0  0  0  0  0  0
  1 25  1  0  0  0
  1 30  2  0  0  0
  1 82  1  0  0  0
  2  3  1  0  0  0
  2 25  1  0  0  0
  2 83  1  0  0  0
  2 84  1  0  0  0
  3  4  1  0  0  0
  3 85  1  0  0  0
  3 86  1  0  0  0
  4  5  1  0  0  0
  4 87  1  0  0  0
  4 88  1  0  0  0
  5  6  1  0  0  0
  5 26  1  0  0  0
  5 89  1  0  0  0
  6 25  1  0  0  0
  6 90  1  0  0  0
  6 91  1  0  0  0
  7  8  2  0  0  0
  7 26  1  0  0  0
  7 29  1  0  0  0
  8  9  1  0  0  0
  8 22  1  0  0  0
  9 10  1  0  0  0
  9 27  2  0  0  0
 10 11  2  0  0  0
 10 15  1  0  0  0
 11 12  1  0  0  0
 11 92  1  0  0  0
 12 13  2  0  0  0
 12 93  1  0  0  0
 13 14  1  0  0  0
 13 31  1  0  0  0
 14 15  2  0  0  0
 14 94  1  0  0  0
 15 95  1  0  0  0
 16 17  2  0  0  0
 16 21  1  0  0  0
 16 31  1  0  0  0
 17 18  1  0  0  0
 17 96  1  0  0  0
 18 19  2  0  0  0
 18 97  1  0  0  0
 19 20  1  0  0  0
 19 24  1  0  0  0
 20 21  2  0  0  0
 20 98  1  0  0  0
 21 23  1  0  0  0
 22 28  1  0  0  0
 22 32  2  0  0  0
 26 27  1  0  0  0
 28 99  1  0  0  0
 28100  1  0  0  0
 29101  1  0  0  0
 29102  1  0  0  0
 33 34  1  0  0  0
 33 66  1  0  0  0
 33 70  2  0  0  0
 34 36  1  0  0  0
 34 59  1  0  0  0
 34103  1  0  0  0
 35 44  2  0  0  0
 35 45  1  0  0  0
 35 68  1  0  0  0
 36 56  1  0  0  0
 36104  1  0  0  0
 37 39  1  0  0  0
 37 47  1  0  0  0
 37 66  1  0  0  0
 37105  1  0  0  0
 38 43  2  0  0  0
 38 46  1  0  0  0
 38 47  1  0  0  0
 39 64  1  0  0  0
 39 67  2  0  0  0
 40 52  1  0  0  0
 40 53  2  0  0  0
 40 58  1  0  0  0
 41106  1  0  0  0
 41107  1  0  0  0
 41108  1  0  0  0
 41 48  1  0  0  0
 42 43  1  0  0  0
 42 66  1  0  0  0
 42109  1  0  0  0
 42110  1  0  0  0
 43 44  1  0  0  0
 44111  1  0  0  0
 45 46  2  0  0  0
 45112  1  0  0  0
 46113  1  0  0  0
 47114  1  0  0  0
 47115  1  0  0  0
 48 56  1  0  0  0
 48 65  1  0  0  0
 48116  1  0  0  0
 49 50  1  0  0  0
 49 53  1  0  0  0
 49 64  1  0  0  0
 49117  1  0  0  0
 50 51  1  0  0  0
 50118  1  0  0  0
 50119  1  0  0  0
 51 52  1  0  0  0
 51120  1  0  0  0
 51121  1  0  0  0
 52122  1  0  0  0
 52123  1  0  0  0
 53 54  1  0  0  0
 54 55  2  0  0  0
 54124  1  0  0  0
 55 57  1  0  0  0
 55125  1  0  0  0
 56 69  2  0  0  0
 57 58  2  0  0  0
 57126  1  0  0  0
 58127  1  0  0  0
 59 60  1  0  0  0
 59 61  1  0  0  0
 59 62  1  0  0  0
 60128  1  0  0  0
 60129  1  0  0  0
 60130  1  0  0  0
 61131  1  0  0  0
 61132  1  0  0  0
 61133  1  0  0  0
 62134  1  0  0  0
 62135  1  0  0  0
 62136  1  0  0  0
 63 65  1  0  0  0
 63137  1  0  0  0
 63138  1  0  0  0
 63139  1  0  0  0
 64140  1  0  0  0
 65141  1  0  0  0
 68 80  1  0  0  0
 71 72  2  0  0  0
 71 73  1  0  0  0
 71142  1  0  0  0
 72 74  1  0  0  0
 72 76  1  0  0  0
 73 75  2  0  0  0
 73 78  1  0  0  0
 74 77  1  0  0  0
 74 81  2  0  0  0
 75 79  1  0  0  0
 75 81  1  0  0  0
 76 82  1  0  0  0
 76143  1  0  0  0
 76144  1  0  0  0
 77 82  1  0  0  0
 77145  1  0  0  0
 77146  1  0  0  0
 78147  1  0  0  0
 78148  1  0  0  0
 78149  1  0  0  0
 79 80  1  0  0  0
 79150  1  0  0  0
 79151  1  0  0  0
 80152  1  0  0  0
 80153  1  0  0  0
M  ISO  4   1 100  68 101  80 101  82 100
M  END
> <chiral flag>
0

> <version>
0

> <s_m_source_file>
/data/baiqing/PycharmProjects/Reinvent-master-3.2/result/LINK_invent/BTK/process_docking_weight1_custom_sum_contain_oxygen_bond_distance_aromatic_linkinvent_7_9_3/rearranged_h_0170.sdf

> <i_m_source_file_index>
54

> <r_mmod_Potential_Energy-OPLS-2005>
751.4521484375

> <r_mmod_Stretch_Energy-OPLS-2005>
376.595031738281

> <r_mmod_Bend_Energy-OPLS-2005>
385.596588134766

> <r_mmod_Torsional_Energy-OPLS-2005>
283.350311279297

> <r_mmod_Improper_Torsional_Energy-OPLS-2005>
8.27779197692871

> <r_mmod_Van_der_Waal_Energy-OPLS-2005>
121.41365814209

> <r_mmod_Electrostatic_Energy-OPLS-2005>
-485.550079345703

> <r_mmod_Solvation_Energy-OPLS-2005>
-227.753845214844

> <b_mmod_Minimization_Converged-OPLS-2005>
0

> <r_mmod_RMS_Derivative-OPLS-2005>
5.82248735427856

$$$$
55
                    3D
 Structure written by MMmdl.
168177  0  0  1  0            999 V2000
  -30.3950  -15.3943   20.2920 C   0  0  0  0  0  0
  -30.4305  -12.9009   19.4897 C   0  0  0  0  0  0
  -29.5191  -12.5723   18.2794 C   0  0  0  0  0  0
  -28.0846  -12.2801   18.7408 C   0  0  0  0  0  0
  -27.6007  -13.2821   19.8144 C   0  0  2  0  0  0
  -28.6441  -13.5334   20.9215 C   0  0  0  0  0  0
  -25.2373  -13.8280   20.5836 C   0  0  0  0  0  0
  -24.1719  -13.0444   20.9325 C   0  0  0  0  0  0
  -24.6410  -11.6944   20.8834 C   0  0  0  0  0  0
  -23.9114  -10.4303   21.0452 C   0  0  0  0  0  0
  -24.3664   -9.4210   21.9219 C   0  0  0  0  0  0
  -23.6333   -8.2245   22.0758 C   0  0  0  0  0  0
  -22.4311   -8.0308   21.3541 C   0  0  0  0  0  0
  -21.9966   -9.0288   20.4647 C   0  0  0  0  0  0
  -22.7304  -10.2160   20.3082 C   0  0  0  0  0  0
  -21.6871   -6.0772   22.5285 C   0  0  0  0  0  0
  -21.4008   -6.5667   23.8224 C   0  0  0  0  0  0
  -21.3645   -5.6811   24.9175 C   0  0  0  0  0  0
  -21.6040   -4.3076   24.7212 C   0  0  0  0  0  0
  -21.8819   -3.8176   23.4330 C   0  0  0  0  0  0
  -21.9189   -4.6994   22.3394 C   0  0  0  0  0  0
  -22.7754  -13.5161   21.1970 C   0  0  0  0  0  0
  -22.1666   -4.2191   21.0978 F   0  0  0  0  0  0
  -21.5613   -3.4556   25.7719 F   0  0  0  0  0  0
  -29.8399  -14.0707   20.2451 N   0  0  0  0  0  0
  -26.2795  -12.9551   20.3310 N   0  0  0  0  0  0
  -25.9348  -11.6655   20.5816 N   0  0  0  0  0  0
  -22.0442  -12.8097   22.0524 N   0  0  0  0  0  0
  -25.4041  -15.2023   20.4217 N   0  0  0  0  0  0
  -31.6324  -15.3619   20.2098 O   0  0  0  0  0  0
  -21.6646   -6.8923   21.4252 O   0  0  0  0  0  0
  -22.3395  -14.5473   20.6856 O   0  0  0  0  0  0
  -24.6677  -31.8126   23.1608 C   0  0  0  0  0  0
  -25.9318  -32.4518   23.8107 C   0  0  1  0  0  0
  -27.2301  -26.8760   20.1640 C   0  0  0  0  0  0
  -25.5990  -33.8350   24.2023 N   0  0  0  0  0  0
  -23.4862  -30.4213   21.5068 C   0  0  2  0  0  0
  -24.9410  -28.7988   20.1036 C   0  0  0  0  0  0
  -22.7723  -29.4316   22.4696 C   0  0  0  0  0  0
  -18.0318  -28.1402   22.8440 C   0  0  0  0  0  0
  -24.1466  -36.7220   23.2683 C   0  0  0  0  0  0
  -26.0623  -30.6049   21.3930 C   0  0  0  0  0  0
  -26.1302  -29.1869   20.7390 C   0  0  0  0  0  0
  -27.2620  -28.2465   20.7487 C   0  0  0  0  0  0
  -26.0088  -26.6495   19.4896 C   0  0  0  0  0  0
  -24.9095  -27.5508   19.4596 C   0  0  0  0  0  0
  -23.7358  -29.7379   20.1320 C   0  0  0  0  0  0
  -25.4100  -36.2945   24.0328 C   0  0  1  0  0  0
  -20.5985  -28.3718   23.1204 C   0  0  2  0  0  0
  -20.6818  -26.9419   22.5392 C   0  0  0  0  0  0
  -19.5788  -26.6383   21.5205 C   0  0  0  0  0  0
  -18.1956  -26.7952   22.1605 C   0  0  0  0  0  0
  -19.1593  -28.8878   23.2816 C   0  0  0  0  0  0
  -18.9527  -30.1490   23.8813 C   0  0  0  0  0  0
  -17.6520  -30.6592   24.0535 C   0  0  0  0  0  0
  -25.9086  -34.9324   23.4992 C   0  0  0  0  0  0
  -16.5407  -29.9084   23.6320 C   0  0  0  0  0  0
  -16.7293  -28.6515   23.0318 C   0  0  0  0  0  0
  -26.4566  -31.6490   25.0653 C   0  0  0  0  0  0
  -25.3692  -31.3784   26.1308 C   0  0  0  0  0  0
  -27.0470  -30.2847   24.6429 C   0  0  0  0  0  0
  -27.6050  -32.4316   25.7431 C   0  0  0  0  0  0
  -27.5530  -37.1750   24.8507 C   0  0  0  0  0  0
  -21.4376  -29.3013   22.3540 N   0  0  0  0  0  0
  -26.4218  -37.3703   23.9462 N   0  0  0  0  0  0
  -24.7612  -30.9723   22.0752 N   0  0  0  0  0  0
  -23.4247  -28.7830   23.2907 O   0  0  0  0  0  0
  -28.2353  -25.7526   20.2231 O   0  0  0  0  0  0
  -26.5739  -34.8911   22.4606 O   0  0  0  0  0  0
  -23.5705  -32.1119   23.6616 O   0  0  0  0  0  0
  -28.7820  -18.8654   17.1182 C   0  0  0  0  0  0
  -31.0171  -19.8138   17.0187 C   0  0  0  0  0  0
  -29.8976  -19.4129   17.7841 C   0  0  0  0  0  0
  -28.7733  -18.7241   15.7090 C   0  0  0  0  0  0
  -29.9141  -19.1119   14.9490 C   0  0  0  0  0  0
  -31.0317  -19.6575   15.6188 C   0  0  0  0  0  0
  -28.6794  -19.4545   20.9337 C   0  0  0  0  0  0
  -29.8949  -19.6384   19.2974 C   0  0  1  0  0  0
  -28.8312  -20.7760   19.9293 C   0  0  2  0  0  0
  -29.8174  -18.3831   20.3964 C   0  0  2  0  0  0
  -27.5251  -18.1604   15.0391 C   0  0  0  0  0  0
  -29.9648  -18.9773   13.4285 C   0  0  0  0  0  0
  -29.4544  -22.6726   21.7467 C   0  0  0  0  0  0
  -28.0411  -24.1026   19.9674 C   0  0  0  0  0  0
  -29.0326  -22.5763   20.2750 C   0  0  2  0  0  0
  -32.1653  -20.0377   14.8943 N   0  0  0  0  0  0
  -29.6241  -16.6919   20.2339 N   0  0  0  0  0  0
  -31.4299  -13.1361   19.1223 H   0  0  0  0  0  0
  -30.5502  -12.0337   20.1405 H   0  0  0  0  0  0
  -29.9127  -11.7233   17.7208 H   0  0  0  0  0  0
  -29.5089  -13.4139   17.5814 H   0  0  0  0  0  0
  -28.0781  -11.2730   19.1692 H   0  0  0  0  0  0
  -27.3920  -12.2614   17.8989 H   0  0  0  0  0  0
  -27.4902  -14.2233   19.2727 H   0  0  0  0  0  0
  -28.8633  -12.6300   21.4933 H   0  0  0  0  0  0
  -28.2741  -14.2712   21.6353 H   0  0  0  0  0  0
  -25.2786   -9.5665   22.4833 H   0  0  0  0  0  0
  -24.0038   -7.4605   22.7466 H   0  0  0  0  0  0
  -21.0904   -8.8798   19.8944 H   0  0  0  0  0  0
  -22.3763  -10.9710   19.6207 H   0  0  0  0  0  0
  -21.2021   -7.6193   23.9729 H   0  0  0  0  0  0
  -21.1453   -6.0552   25.9077 H   0  0  0  0  0  0
  -22.0619   -2.7654   23.2807 H   0  0  0  0  0  0
  -22.4055  -11.9653   22.4729 H   0  0  0  0  0  0
  -21.1085  -13.1088   22.2901 H   0  0  0  0  0  0
  -24.6417  -15.8617   20.5240 H   0  0  0  0  0  0
  -26.2519  -15.6309   20.0801 H   0  0  0  0  0  0
  -26.7368  -32.5049   23.0808 H   0  0  0  0  0  0
  -25.0112  -33.9384   25.0161 H   0  0  0  0  0  0
  -22.8005  -31.2528   21.3245 H   0  0  0  0  0  0
  -23.3740  -35.9548   23.3301 H   0  0  0  0  0  0
  -24.3586  -36.8880   22.2115 H   0  0  0  0  0  0
  -23.7187  -37.6396   23.6739 H   0  0  0  0  0  0
  -26.2439  -31.3378   20.6055 H   0  0  0  0  0  0
  -26.9277  -30.6730   22.0418 H   0  0  0  0  0  0
  -28.1583  -28.5407   21.2792 H   0  0  0  0  0  0
  -25.8819  -25.6949   18.9985 H   0  0  0  0  0  0
  -24.0066  -27.2402   18.9470 H   0  0  0  0  0  0
  -23.9099  -30.5060   19.3783 H   0  0  0  0  0  0
  -22.8410  -29.2077   19.7959 H   0  0  0  0  0  0
  -25.1276  -36.1691   25.0814 H   0  0  0  0  0  0
  -21.0075  -28.3284   24.1316 H   0  0  0  0  0  0
  -20.5727  -26.2299   23.3595 H   0  0  0  0  0  0
  -21.6670  -26.7387   22.1174 H   0  0  0  0  0  0
  -19.6962  -25.6288   21.1245 H   0  0  0  0  0  0
  -19.6764  -27.3189   20.6758 H   0  0  0  0  0  0
  -17.4248  -26.6689   21.3974 H   0  0  0  0  0  0
  -18.0266  -26.0132   22.9016 H   0  0  0  0  0  0
  -19.8025  -30.7319   24.2102 H   0  0  0  0  0  0
  -17.5112  -31.6252   24.5176 H   0  0  0  0  0  0
  -15.5422  -30.2976   23.7756 H   0  0  0  0  0  0
  -15.8697  -28.0857   22.7060 H   0  0  0  0  0  0
  -24.5971  -30.6970   25.7678 H   0  0  0  0  0  0
  -24.8804  -32.2994   26.4469 H   0  0  0  0  0  0
  -25.7974  -30.9181   27.0220 H   0  0  0  0  0  0
  -26.3147  -29.6505   24.1417 H   0  0  0  0  0  0
  -27.4004  -29.7175   25.5065 H   0  0  0  0  0  0
  -27.9064  -30.4066   23.9863 H   0  0  0  0  0  0
  -27.2605  -33.3737   26.1705 H   0  0  0  0  0  0
  -28.3989  -32.6654   25.0318 H   0  0  0  0  0  0
  -28.0583  -31.8644   26.5577 H   0  0  0  0  0  0
  -28.2519  -38.0068   24.7529 H   0  0  0  0  0  0
  -28.1019  -36.2582   24.6291 H   0  0  0  0  0  0
  -27.2316  -37.1391   25.8935 H   0  0  0  0  0  0
  -20.9599  -29.8796   21.6786 H   0  0  0  0  0  0
  -26.0071  -38.2752   24.1483 H   0  0  0  0  0  0
  -27.9152  -18.5774   17.6989 H   0  0  0  0  0  0
  -31.8769  -20.2364   17.5168 H   0  0  0  0  0  0
  -27.6776  -19.0329   20.8703 H   0  0  0  0  0  0
  -28.8600  -19.7399   21.9713 H   0  0  0  0  0  0
  -30.8788  -20.0699   19.4936 H   0  0  0  0  0  0
  -27.9491  -20.7207   19.2848 H   0  0  0  0  0  0
  -30.6955  -18.5185   21.0310 H   0  0  0  0  0  0
  -27.2247  -18.7683   14.1856 H   0  0  0  0  0  0
  -26.6774  -18.1569   15.7241 H   0  0  0  0  0  0
  -27.6817  -17.1347   14.6997 H   0  0  0  0  0  0
  -29.0328  -18.6553   12.9776 H   0  0  0  0  0  0
  -30.7308  -18.2612   13.1389 H   0  0  0  0  0  0
  -30.2248  -19.9389   12.9849 H   0  0  0  0  0  0
  -30.2803  -21.9947   21.9638 H   0  0  0  0  0  0
  -28.6240  -22.3987   22.3973 H   0  0  0  0  0  0
  -29.7745  -23.6818   22.0069 H   0  0  0  0  0  0
  -27.0707  -23.8898   20.4150 H   0  0  0  0  0  0
  -27.8506  -24.0699   18.8934 H   0  0  0  0  0  0
  -29.9353  -22.8145   19.7133 H   0  0  0  0  0  0
  -32.1205  -20.0156   13.8804 H   0  0  0  0  0  0
  -32.7597  -20.7834   15.2399 H   0  0  0  0  0  0
  -28.6442  -16.4639   20.1565 H   0  0  0  0  0  0
  1 25  1  0  0  0
  1 30  2  0  0  0
  1 87  1  0  0  0
  2  3  1  0  0  0
  2 25  1  0  0  0
  2 88  1  0  0  0
  2 89  1  0  0  0
  3  4  1  0  0  0
  3 90  1  0  0  0
  3 91  1  0  0  0
  4  5  1  0  0  0
  4 92  1  0  0  0
  4 93  1  0  0  0
  5  6  1  0  0  0
  5 26  1  0  0  0
  5 94  1  0  0  0
  6 25  1  0  0  0
  6 95  1  0  0  0
  6 96  1  0  0  0
  7  8  2  0  0  0
  7 26  1  0  0  0
  7 29  1  0  0  0
  8  9  1  0  0  0
  8 22  1  0  0  0
  9 10  1  0  0  0
  9 27  2  0  0  0
 10 11  2  0  0  0
 10 15  1  0  0  0
 11 12  1  0  0  0
 11 97  1  0  0  0
 12 13  2  0  0  0
 12 98  1  0  0  0
 13 14  1  0  0  0
 13 31  1  0  0  0
 14 15  2  0  0  0
 14 99  1  0  0  0
 15100  1  0  0  0
 16 17  2  0  0  0
 16 21  1  0  0  0
 16 31  1  0  0  0
 17 18  1  0  0  0
 17101  1  0  0  0
 18 19  2  0  0  0
 18102  1  0  0  0
 19 20  1  0  0  0
 19 24  1  0  0  0
 20 21  2  0  0  0
 20103  1  0  0  0
 21 23  1  0  0  0
 22 28  1  0  0  0
 22 32  2  0  0  0
 26 27  1  0  0  0
 28104  1  0  0  0
 28105  1  0  0  0
 29106  1  0  0  0
 29107  1  0  0  0
 33 34  1  0  0  0
 33 66  1  0  0  0
 33 70  2  0  0  0
 34 36  1  0  0  0
 34 59  1  0  0  0
 34108  1  0  0  0
 35 44  2  0  0  0
 35 45  1  0  0  0
 35 68  1  0  0  0
 36 56  1  0  0  0
 36109  1  0  0  0
 37 39  1  0  0  0
 37 47  1  0  0  0
 37 66  1  0  0  0
 37110  1  0  0  0
 38 43  2  0  0  0
 38 46  1  0  0  0
 38 47  1  0  0  0
 39 64  1  0  0  0
 39 67  2  0  0  0
 40 52  1  0  0  0
 40 53  2  0  0  0
 40 58  1  0  0  0
 41111  1  0  0  0
 41112  1  0  0  0
 41113  1  0  0  0
 41 48  1  0  0  0
 42 43  1  0  0  0
 42 66  1  0  0  0
 42114  1  0  0  0
 42115  1  0  0  0
 43 44  1  0  0  0
 44116  1  0  0  0
 45 46  2  0  0  0
 45117  1  0  0  0
 46118  1  0  0  0
 47119  1  0  0  0
 47120  1  0  0  0
 48 56  1  0  0  0
 48 65  1  0  0  0
 48121  1  0  0  0
 49 50  1  0  0  0
 49 53  1  0  0  0
 49 64  1  0  0  0
 49122  1  0  0  0
 50 51  1  0  0  0
 50123  1  0  0  0
 50124  1  0  0  0
 51 52  1  0  0  0
 51125  1  0  0  0
 51126  1  0  0  0
 52127  1  0  0  0
 52128  1  0  0  0
 53 54  1  0  0  0
 54 55  2  0  0  0
 54129  1  0  0  0
 55 57  1  0  0  0
 55130  1  0  0  0
 56 69  2  0  0  0
 57 58  2  0  0  0
 57131  1  0  0  0
 58132  1  0  0  0
 59 60  1  0  0  0
 59 61  1  0  0  0
 59 62  1  0  0  0
 60133  1  0  0  0
 60134  1  0  0  0
 60135  1  0  0  0
 61136  1  0  0  0
 61137  1  0  0  0
 61138  1  0  0  0
 62139  1  0  0  0
 62140  1  0  0  0
 62141  1  0  0  0
 63 65  1  0  0  0
 63142  1  0  0  0
 63143  1  0  0  0
 63144  1  0  0  0
 64145  1  0  0  0
 65146  1  0  0  0
 68 84  1  0  0  0
 71 73  2  0  0  0
 71 74  1  0  0  0
 71147  1  0  0  0
 72 73  1  0  0  0
 72 76  2  0  0  0
 72148  1  0  0  0
 73 78  1  0  0  0
 74 75  2  0  0  0
 74 81  1  0  0  0
 75 76  1  0  0  0
 75 82  1  0  0  0
 76 86  1  0  0  0
 77 80  1  0  0  0
 77149  1  0  0  0
 77150  1  0  0  0
 77 79  1  0  0  0
 78 79  1  0  0  0
 78 80  1  0  0  0
 78151  1  0  0  0
 79 85  1  0  0  0
 79152  1  0  0  0
 80 87  1  0  0  0
 80153  1  0  0  0
 81154  1  0  0  0
 81155  1  0  0  0
 81156  1  0  0  0
 82157  1  0  0  0
 82158  1  0  0  0
 82159  1  0  0  0
 83160  1  0  0  0
 83161  1  0  0  0
 83162  1  0  0  0
 83 85  1  0  0  0
 84 85  1  0  0  0
 84163  1  0  0  0
 84164  1  0  0  0
 85165  1  0  0  0
 86166  1  0  0  0
 86167  1  0  0  0
 87168  1  0  0  0
M  ISO  4   1 100  68 101  84 101  87 100
M  END
> <chiral flag>
0

> <version>
0

> <s_m_source_file>
/data/baiqing/PycharmProjects/Reinvent-master-3.2/result/LINK_invent/BTK/process_docking_weight1_custom_sum_contain_oxygen_bond_distance_aromatic_linkinvent_7_9_3/rearranged_h_0170.sdf

> <i_m_source_file_index>
55

> <r_mmod_Potential_Energy-OPLS-2005>
1599.27038574219

> <r_mmod_Stretch_Energy-OPLS-2005>
708.228393554688

> <r_mmod_Bend_Energy-OPLS-2005>
554.910278320312

> <r_mmod_Torsional_Energy-OPLS-2005>
272.795867919922

> <r_mmod_Improper_Torsional_Energy-OPLS-2005>
7.1373119354248

> <r_mmod_Van_der_Waal_Energy-OPLS-2005>
124.793960571289

> <r_mmod_Electrostatic_Energy-OPLS-2005>
-427.161376953125

> <r_mmod_Solvation_Energy-OPLS-2005>
-223.453811645508

> <b_mmod_Minimization_Converged-OPLS-2005>
0

> <r_mmod_RMS_Derivative-OPLS-2005>
7.28796815872192

$$$$
56
                    3D
 Structure written by MMmdl.
165174  0  0  1  0            999 V2000
  -30.6631  -14.9133   20.4102 C   0  0  0  0  0  0
  -30.4125  -12.5816   19.4811 C   0  0  0  0  0  0
  -29.4972  -12.5130   18.2430 C   0  0  0  0  0  0
  -28.0420  -12.2909   18.6853 C   0  0  0  0  0  0
  -27.6216  -13.2496   19.8299 C   0  0  2  0  0  0
  -28.6759  -13.3341   20.9556 C   0  0  0  0  0  0
  -25.2445  -13.8217   20.5751 C   0  0  0  0  0  0
  -24.1776  -13.0442   20.9258 C   0  0  0  0  0  0
  -24.6397  -11.6922   20.8787 C   0  0  0  0  0  0
  -23.9090  -10.4291   21.0413 C   0  0  0  0  0  0
  -24.3641   -9.4202   21.9194 C   0  0  0  0  0  0
  -23.6311   -8.2239   22.0758 C   0  0  0  0  0  0
  -22.4287   -8.0289   21.3549 C   0  0  0  0  0  0
  -21.9925   -9.0264   20.4656 C   0  0  0  0  0  0
  -22.7254  -10.2144   20.3070 C   0  0  0  0  0  0
  -21.6853   -6.0750   22.5287 C   0  0  0  0  0  0
  -21.4002   -6.5653   23.8220 C   0  0  0  0  0  0
  -21.3648   -5.6809   24.9184 C   0  0  0  0  0  0
  -21.6046   -4.3069   24.7234 C   0  0  0  0  0  0
  -21.8810   -3.8161   23.4357 C   0  0  0  0  0  0
  -21.9183   -4.6977   22.3407 C   0  0  0  0  0  0
  -22.7806  -13.5204   21.1906 C   0  0  0  0  0  0
  -22.1668   -4.2154   21.0990 F   0  0  0  0  0  0
  -21.5622   -3.4555   25.7747 F   0  0  0  0  0  0
  -29.9395  -13.7253   20.3181 N   0  0  0  0  0  0
  -26.2870  -12.9461   20.3300 N   0  0  0  0  0  0
  -25.9322  -11.6587   20.5787 N   0  0  0  0  0  0
  -22.0471  -12.8163   22.0462 N   0  0  0  0  0  0
  -25.4083  -15.1949   20.4140 N   0  0  0  0  0  0
  -31.8794  -14.7966   20.2383 O   0  0  0  0  0  0
  -21.6640   -6.8894   21.4253 O   0  0  0  0  0  0
  -22.3496  -14.5512   20.6756 O   0  0  0  0  0  0
  -24.6431  -31.8451   23.1890 C   0  0  0  0  0  0
  -25.9204  -32.4692   23.8277 C   0  0  1  0  0  0
  -27.2052  -27.1335   20.1243 C   0  0  0  0  0  0
  -25.5947  -33.8507   24.2186 N   0  0  0  0  0  0
  -23.4477  -30.4669   21.5353 C   0  0  2  0  0  0
  -24.8918  -28.9019   20.1051 C   0  0  0  0  0  0
  -22.7569  -29.4553   22.4834 C   0  0  0  0  0  0
  -18.0352  -28.1369   22.8458 C   0  0  0  0  0  0
  -24.1514  -36.7262   23.2638 C   0  0  0  0  0  0
  -26.0054  -30.7171   21.3906 C   0  0  0  0  0  0
  -26.0721  -29.3323   20.7229 C   0  0  0  0  0  0
  -27.2268  -28.4624   20.7181 C   0  0  0  0  0  0
  -25.9977  -26.8129   19.4908 C   0  0  0  0  0  0
  -24.8660  -27.6511   19.4779 C   0  0  0  0  0  0
  -23.6693  -29.8024   20.1537 C   0  0  0  0  0  0
  -25.4146  -36.3039   24.0308 C   0  0  1  0  0  0
  -20.5945  -28.3719   23.1258 C   0  0  2  0  0  0
  -20.6833  -26.9405   22.5497 C   0  0  0  0  0  0
  -19.5898  -26.6337   21.5216 C   0  0  0  0  0  0
  -18.2030  -26.7924   22.1547 C   0  0  0  0  0  0
  -19.1585  -28.8872   23.2836 C   0  0  0  0  0  0
  -18.9479  -30.1481   23.8829 C   0  0  0  0  0  0
  -17.6445  -30.6569   24.0502 C   0  0  0  0  0  0
  -25.9090  -34.9409   23.5064 C   0  0  0  0  0  0
  -16.5351  -29.9017   23.6314 C   0  0  0  0  0  0
  -16.7319  -28.6437   23.0341 C   0  0  0  0  0  0
  -26.4544  -31.6571   25.0725 C   0  0  0  0  0  0
  -25.3706  -31.3775   26.1400 C   0  0  0  0  0  0
  -27.0390  -30.2963   24.6315 C   0  0  0  0  0  0
  -27.6081  -32.4336   25.7495 C   0  0  0  0  0  0
  -27.5592  -37.1784   24.8455 C   0  0  0  0  0  0
  -21.4271  -29.3012   22.3565 N   0  0  0  0  0  0
  -26.4307  -37.3745   23.9391 N   0  0  0  0  0  0
  -24.7191  -31.0320   22.0925 N   0  0  0  0  0  0
  -23.4202  -28.8110   23.3006 O   0  0  0  0  0  0
  -28.2524  -26.1501   20.2470 O   0  0  0  0  0  0
  -26.5674  -34.8887   22.4649 O   0  0  0  0  0  0
  -23.5558  -32.1330   23.7104 O   0  0  0  0  0  0
  -26.9303  -21.2778   21.1149 C   0  0  0  0  0  0
  -28.0004  -21.9542   20.4907 C   0  0  0  0  0  0
  -27.6357  -23.3146   19.9338 C   0  0  0  0  0  0
  -25.6069  -21.6327   20.8543 C   0  0  0  0  0  0
  -26.3088  -23.2884   19.4114 C   0  0  0  0  0  0
  -28.7627  -16.8253   20.5697 C   0  0  0  0  0  0
  -30.9440  -17.3561   19.7014 C   0  0  0  0  0  0
  -28.5689  -18.4121   20.9156 C   0  0  0  0  0  0
  -30.7587  -18.8833   20.1481 C   0  0  0  0  0  0
  -24.4580  -20.8873   21.4984 C   0  0  0  0  0  0
  -25.9792  -23.7613   18.0001 C   0  0  0  0  0  0
  -29.3312  -21.0213   20.5279 C   0  0  0  0  0  0
  -28.4632  -24.7108   19.6458 C   0  0  0  0  0  0
  -25.3079  -22.5397   19.9180 N   0  0  0  0  0  0
  -30.1231  -16.2435   20.3118 N   0  0  0  0  0  0
  -29.3694  -19.4628   20.1587 N   0  3  0  0  0  0
  -31.4470  -12.6898   19.1528 H   0  0  0  0  0  0
  -30.3833  -11.6478   20.0446 H   0  0  0  0  0  0
  -29.8118  -11.7062   17.5800 H   0  0  0  0  0  0
  -29.5710  -13.4381   17.6672 H   0  0  0  0  0  0
  -27.9626  -11.2580   19.0301 H   0  0  0  0  0  0
  -27.3625  -12.3855   17.8360 H   0  0  0  0  0  0
  -27.5678  -14.2348   19.3675 H   0  0  0  0  0  0
  -28.7767  -12.3828   21.4801 H   0  0  0  0  0  0
  -28.3811  -14.0667   21.7051 H   0  0  0  0  0  0
  -25.2778   -9.5673   22.4799 H   0  0  0  0  0  0
  -24.0009   -7.4616   22.7468 H   0  0  0  0  0  0
  -21.0858   -8.8800   19.8967 H   0  0  0  0  0  0
  -22.3710  -10.9710   19.6211 H   0  0  0  0  0  0
  -21.2008   -7.6165   23.9710 H   0  0  0  0  0  0
  -21.1473   -6.0561   25.9080 H   0  0  0  0  0  0
  -22.0591   -2.7622   23.2869 H   0  0  0  0  0  0
  -22.4119  -11.9824   22.4827 H   0  0  0  0  0  0
  -21.1087  -13.1165   22.2677 H   0  0  0  0  0  0
  -24.6317  -15.8392   20.5114 H   0  0  0  0  0  0
  -26.2356  -15.6257   20.0288 H   0  0  0  0  0  0
  -26.7273  -32.5284   23.1006 H   0  0  0  0  0  0
  -25.0056  -33.9661   25.0305 H   0  0  0  0  0  0
  -22.7505  -31.2908   21.3842 H   0  0  0  0  0  0
  -23.3771  -35.9598   23.3289 H   0  0  0  0  0  0
  -24.3617  -36.8905   22.2053 H   0  0  0  0  0  0
  -23.7262  -37.6456   23.6684 H   0  0  0  0  0  0
  -26.1738  -31.4752   20.6250 H   0  0  0  0  0  0
  -26.8731  -30.7581   22.0377 H   0  0  0  0  0  0
  -28.1230  -28.7777   21.2332 H   0  0  0  0  0  0
  -25.8804  -25.8554   19.0552 H   0  0  0  0  0  0
  -23.9583  -27.3030   19.0033 H   0  0  0  0  0  0
  -23.8037  -30.5758   19.3963 H   0  0  0  0  0  0
  -22.7831  -29.2445   19.8436 H   0  0  0  0  0  0
  -25.1344  -36.1896   25.0796 H   0  0  0  0  0  0
  -21.0051  -28.3349   24.1363 H   0  0  0  0  0  0
  -20.5625  -26.2361   23.3756 H   0  0  0  0  0  0
  -21.6742  -26.7335   22.1455 H   0  0  0  0  0  0
  -19.7083  -25.6232   21.1264 H   0  0  0  0  0  0
  -19.6896  -27.3118   20.6720 H   0  0  0  0  0  0
  -17.4374  -26.6758   21.3856 H   0  0  0  0  0  0
  -18.0377  -25.9987   22.8847 H   0  0  0  0  0  0
  -19.7939  -30.7325   24.2182 H   0  0  0  0  0  0
  -17.4945  -31.6271   24.5060 H   0  0  0  0  0  0
  -15.5323  -30.2871   23.7612 H   0  0  0  0  0  0
  -15.8739  -28.0686   22.7097 H   0  0  0  0  0  0
  -24.5879  -30.7156   25.7695 H   0  0  0  0  0  0
  -24.8900  -32.2964   26.4768 H   0  0  0  0  0  0
  -25.7953  -30.8959   27.0213 H   0  0  0  0  0  0
  -26.3002  -29.6690   24.1305 H   0  0  0  0  0  0
  -27.3978  -29.7276   25.4900 H   0  0  0  0  0  0
  -27.8939  -30.4196   23.9655 H   0  0  0  0  0  0
  -27.2695  -33.3639   26.2065 H   0  0  0  0  0  0
  -28.3892  -32.6894   25.0319 H   0  0  0  0  0  0
  -28.0769  -31.8468   26.5409 H   0  0  0  0  0  0
  -28.2600  -38.0086   24.7513 H   0  0  0  0  0  0
  -28.1100  -36.2617   24.6288 H   0  0  0  0  0  0
  -27.2307  -37.1430   25.8854 H   0  0  0  0  0  0
  -20.9523  -29.8614   21.6628 H   0  0  0  0  0  0
  -26.0186  -38.2828   24.1348 H   0  0  0  0  0  0
  -27.1119  -20.4418   21.7720 H   0  0  0  0  0  0
  -28.1927  -16.6205   19.6634 H   0  0  0  0  0  0
  -28.2759  -16.2489   21.3544 H   0  0  0  0  0  0
  -32.0089  -17.1477   19.8201 H   0  0  0  0  0  0
  -30.7819  -17.3028   18.6252 H   0  0  0  0  0  0
  -28.7651  -18.5556   21.9780 H   0  0  0  0  0  0
  -27.5091  -18.6184   20.7740 H   0  0  0  0  0  0
  -31.3819  -19.4999   19.5007 H   0  0  0  0  0  0
  -31.1841  -19.0075   21.1446 H   0  0  0  0  0  0
  -24.7057  -19.8295   21.6040 H   0  0  0  0  0  0
  -23.5452  -20.9588   20.9051 H   0  0  0  0  0  0
  -24.2564  -21.2897   22.4906 H   0  0  0  0  0  0
  -26.6753  -24.4837   17.5799 H   0  0  0  0  0  0
  -24.9716  -24.1721   17.9441 H   0  0  0  0  0  0
  -26.0066  -22.8978   17.3331 H   0  0  0  0  0  0
  -29.7540  -21.1116   21.5280 H   0  0  0  0  0  0
  -30.0499  -21.5137   19.8733 H   0  0  0  0  0  0
  -28.5409  -24.8419   18.5687 H   0  0  0  0  0  0
  -29.4850  -24.4646   19.9355 H   0  0  0  0  0  0
  -29.0459  -19.4274   19.2046 H   0  0  0  0  0  0
  1 25  1  0  0  0
  1 30  2  0  0  0
  1 85  1  0  0  0
  2  3  1  0  0  0
  2 25  1  0  0  0
  2 87  1  0  0  0
  2 88  1  0  0  0
  3  4  1  0  0  0
  3 89  1  0  0  0
  3 90  1  0  0  0
  4  5  1  0  0  0
  4 91  1  0  0  0
  4 92  1  0  0  0
  5  6  1  0  0  0
  5 26  1  0  0  0
  5 93  1  0  0  0
  6 25  1  0  0  0
  6 94  1  0  0  0
  6 95  1  0  0  0
  7  8  2  0  0  0
  7 26  1  0  0  0
  7 29  1  0  0  0
  8  9  1  0  0  0
  8 22  1  0  0  0
  9 10  1  0  0  0
  9 27  2  0  0  0
 10 11  2  0  0  0
 10 15  1  0  0  0
 11 12  1  0  0  0
 11 96  1  0  0  0
 12 13  2  0  0  0
 12 97  1  0  0  0
 13 14  1  0  0  0
 13 31  1  0  0  0
 14 15  2  0  0  0
 14 98  1  0  0  0
 15 99  1  0  0  0
 16 17  2  0  0  0
 16 21  1  0  0  0
 16 31  1  0  0  0
 17 18  1  0  0  0
 17100  1  0  0  0
 18 19  2  0  0  0
 18101  1  0  0  0
 19 20  1  0  0  0
 19 24  1  0  0  0
 20 21  2  0  0  0
 20102  1  0  0  0
 21 23  1  0  0  0
 22 28  1  0  0  0
 22 32  2  0  0  0
 26 27  1  0  0  0
 28103  1  0  0  0
 28104  1  0  0  0
 29105  1  0  0  0
 29106  1  0  0  0
 33 34  1  0  0  0
 33 66  1  0  0  0
 33 70  2  0  0  0
 34 36  1  0  0  0
 34 59  1  0  0  0
 34107  1  0  0  0
 35 44  2  0  0  0
 35 45  1  0  0  0
 35 68  1  0  0  0
 36 56  1  0  0  0
 36108  1  0  0  0
 37 39  1  0  0  0
 37 47  1  0  0  0
 37 66  1  0  0  0
 37109  1  0  0  0
 38 43  2  0  0  0
 38 46  1  0  0  0
 38 47  1  0  0  0
 39 64  1  0  0  0
 39 67  2  0  0  0
 40 52  1  0  0  0
 40 53  2  0  0  0
 40 58  1  0  0  0
 41110  1  0  0  0
 41111  1  0  0  0
 41112  1  0  0  0
 41 48  1  0  0  0
 42 43  1  0  0  0
 42 66  1  0  0  0
 42113  1  0  0  0
 42114  1  0  0  0
 43 44  1  0  0  0
 44115  1  0  0  0
 45 46  2  0  0  0
 45116  1  0  0  0
 46117  1  0  0  0
 47118  1  0  0  0
 47119  1  0  0  0
 48 56  1  0  0  0
 48 65  1  0  0  0
 48120  1  0  0  0
 49 50  1  0  0  0
 49 53  1  0  0  0
 49 64  1  0  0  0
 49121  1  0  0  0
 50 51  1  0  0  0
 50122  1  0  0  0
 50123  1  0  0  0
 51 52  1  0  0  0
 51124  1  0  0  0
 51125  1  0  0  0
 52126  1  0  0  0
 52127  1  0  0  0
 53 54  1  0  0  0
 54 55  2  0  0  0
 54128  1  0  0  0
 55 57  1  0  0  0
 55129  1  0  0  0
 56 69  2  0  0  0
 57 58  2  0  0  0
 57130  1  0  0  0
 58131  1  0  0  0
 59 60  1  0  0  0
 59 61  1  0  0  0
 59 62  1  0  0  0
 60132  1  0  0  0
 60133  1  0  0  0
 60134  1  0  0  0
 61135  1  0  0  0
 61136  1  0  0  0
 61137  1  0  0  0
 62138  1  0  0  0
 62139  1  0  0  0
 62140  1  0  0  0
 63 65  1  0  0  0
 63141  1  0  0  0
 63142  1  0  0  0
 63143  1  0  0  0
 64144  1  0  0  0
 65145  1  0  0  0
 68 83  1  0  0  0
 71 72  2  0  0  0
 71 74  1  0  0  0
 71146  1  0  0  0
 72 73  1  0  0  0
 72 82  1  0  0  0
 73 75  2  0  0  0
 73 83  1  0  0  0
 74 80  1  0  0  0
 74 84  2  0  0  0
 75 81  1  0  0  0
 75 84  1  0  0  0
 76 78  1  0  0  0
 76 85  1  0  0  0
 76147  1  0  0  0
 76148  1  0  0  0
 77 79  1  0  0  0
 77 85  1  0  0  0
 77149  1  0  0  0
 77150  1  0  0  0
 78 86  1  0  0  0
 78151  1  0  0  0
 78152  1  0  0  0
 79 86  1  0  0  0
 79153  1  0  0  0
 79154  1  0  0  0
 80155  1  0  0  0
 80156  1  0  0  0
 80157  1  0  0  0
 81158  1  0  0  0
 81159  1  0  0  0
 81160  1  0  0  0
 82161  1  0  0  0
 82162  1  0  0  0
 82 86  1  0  0  0
 83163  1  0  0  0
 83164  1  0  0  0
 86165  1  0  0  0
M  CHG  1  86   1
M  ISO  4   1 100  68 101  83 101  85 100
M  END
> <chiral flag>
0

> <version>
0

> <s_m_source_file>
/data/baiqing/PycharmProjects/Reinvent-master-3.2/result/LINK_invent/BTK/process_docking_weight1_custom_sum_contain_oxygen_bond_distance_aromatic_linkinvent_7_9_3/rearranged_h_0170.sdf

> <i_m_source_file_index>
56

> <r_mmod_Potential_Energy-OPLS-2005>
576.379333496094

> <r_mmod_Stretch_Energy-OPLS-2005>
251.280487060547

> <r_mmod_Bend_Energy-OPLS-2005>
389.393829345703

> <r_mmod_Torsional_Energy-OPLS-2005>
459.771331787109

> <r_mmod_Improper_Torsional_Energy-OPLS-2005>
15.3166694641113

> <r_mmod_Van_der_Waal_Energy-OPLS-2005>
152.010345458984

> <r_mmod_Electrostatic_Energy-OPLS-2005>
-395.66064453125

> <r_mmod_Solvation_Energy-OPLS-2005>
-485.068969726562

> <b_mmod_Minimization_Converged-OPLS-2005>
0

> <r_mmod_RMS_Derivative-OPLS-2005>
3.90431261062622

$$$$
57
                    3D
 Structure written by MMmdl.
171181  0  0  1  0            999 V2000
  -30.6982  -14.4592   20.5541 C   0  0  0  0  0  0
  -30.4183  -12.2962   19.4146 C   0  0  0  0  0  0
  -29.4860  -12.4845   18.2001 C   0  0  0  0  0  0
  -28.0082  -12.3512   18.6187 C   0  0  0  0  0  0
  -27.6597  -13.1916   19.8780 C   0  0  2  0  0  0
  -28.7059  -12.9577   20.9929 C   0  0  0  0  0  0
  -25.2602  -13.8139   20.5690 C   0  0  0  0  0  0
  -24.1842  -13.0444   20.9199 C   0  0  0  0  0  0
  -24.6349  -11.6886   20.8750 C   0  0  0  0  0  0
  -23.9005  -10.4296   21.0405 C   0  0  0  0  0  0
  -24.3585   -9.4223   21.9173 C   0  0  0  0  0  0
  -23.6273   -8.2250   22.0748 C   0  0  0  0  0  0
  -22.4259   -8.0279   21.3533 C   0  0  0  0  0  0
  -21.9870   -9.0249   20.4638 C   0  0  0  0  0  0
  -22.7184  -10.2137   20.3050 C   0  0  0  0  0  0
  -21.6864   -6.0726   22.5262 C   0  0  0  0  0  0
  -21.3993   -6.5629   23.8187 C   0  0  0  0  0  0
  -21.3635   -5.6787   24.9153 C   0  0  0  0  0  0
  -21.6049   -4.3056   24.7215 C   0  0  0  0  0  0
  -21.8835   -3.8139   23.4344 C   0  0  0  0  0  0
  -21.9204   -4.6948   22.3391 C   0  0  0  0  0  0
  -22.7880  -13.5276   21.1842 C   0  0  0  0  0  0
  -22.1697   -4.2145   21.0974 F   0  0  0  0  0  0
  -21.5622   -3.4532   25.7723 F   0  0  0  0  0  0
  -30.0213  -13.2861   20.4300 N   0  0  0  0  0  0
  -26.3002  -12.9256   20.3386 N   0  0  0  0  0  0
  -25.9273  -11.6437   20.5788 N   0  0  0  0  0  0
  -22.0513  -12.8266   22.0389 N   0  0  0  0  0  0
  -25.4354  -15.1841   20.4011 N   0  0  0  0  0  0
  -31.8668  -14.5905   20.1897 O   0  0  0  0  0  0
  -21.6645   -6.8871   21.4227 O   0  0  0  0  0  0
  -22.3580  -14.5573   20.6675 O   0  0  0  0  0  0
  -24.6131  -31.8705   23.2125 C   0  0  0  0  0  0
  -25.9045  -32.4835   23.8384 C   0  0  1  0  0  0
  -27.2318  -27.4421   20.0831 C   0  0  0  0  0  0
  -25.5923  -33.8634   24.2309 N   0  0  0  0  0  0
  -23.3989  -30.4968   21.5544 C   0  0  2  0  0  0
  -24.8391  -28.9587   20.1203 C   0  0  0  0  0  0
  -22.7389  -29.4678   22.4996 C   0  0  0  0  0  0
  -18.0274  -28.1291   22.8453 C   0  0  0  0  0  0
  -24.1498  -36.7341   23.2626 C   0  0  0  0  0  0
  -25.9259  -30.8331   21.3658 C   0  0  0  0  0  0
  -26.0009  -29.4676   20.7149 C   0  0  0  0  0  0
  -27.1964  -28.7171   20.6946 C   0  0  0  0  0  0
  -26.0454  -26.9456   19.4921 C   0  0  0  0  0  0
  -24.8549  -27.6959   19.5094 C   0  0  0  0  0  0
  -23.6064  -29.8323   20.1687 C   0  0  0  0  0  0
  -25.4113  -36.3106   24.0312 C   0  0  1  0  0  0
  -20.5847  -28.3686   23.1318 C   0  0  2  0  0  0
  -20.6825  -26.9401   22.5468 C   0  0  0  0  0  0
  -19.5782  -26.6221   21.5358 C   0  0  0  0  0  0
  -18.1964  -26.7795   22.1714 C   0  0  0  0  0  0
  -19.1492  -28.8820   23.2851 C   0  0  0  0  0  0
  -18.9335  -30.1421   23.8841 C   0  0  0  0  0  0
  -17.6284  -30.6417   24.0588 C   0  0  0  0  0  0
  -25.9035  -34.9481   23.5090 C   0  0  0  0  0  0
  -16.5221  -29.8847   23.6366 C   0  0  0  0  0  0
  -16.7236  -28.6301   23.0342 C   0  0  0  0  0  0
  -26.4468  -31.6628   25.0720 C   0  0  0  0  0  0
  -25.3738  -31.3759   26.1473 C   0  0  0  0  0  0
  -27.0297  -30.3065   24.6110 C   0  0  0  0  0  0
  -27.6011  -32.4372   25.7505 C   0  0  0  0  0  0
  -27.5582  -37.1825   24.8456 C   0  0  0  0  0  0
  -21.4112  -29.3092   22.3770 N   0  0  0  0  0  0
  -26.4295  -37.3796   23.9398 N   0  0  0  0  0  0
  -24.6654  -31.0794   22.1033 N   0  0  0  0  0  0
  -23.4184  -28.8171   23.2989 O   0  0  0  0  0  0
  -28.4195  -26.7343   20.0907 O   0  0  0  0  0  0
  -26.5573  -34.8927   22.4642 O   0  0  0  0  0  0
  -23.5335  -32.1473   23.7511 O   0  0  0  0  0  0
  -28.6907  -23.3637   17.7333 C   0  0  0  0  0  0
  -27.9237  -24.3665   19.7958 C   0  0  0  0  0  0
  -27.9595  -23.2511   18.9367 C   0  0  0  0  0  0
  -29.3130  -24.5923   17.4257 C   0  0  0  0  0  0
  -28.5363  -25.5639   19.3790 C   0  0  0  0  0  0
  -25.9667  -19.5294   21.4756 C   0  0  0  0  0  0
  -29.8943  -16.8488   22.7232 C   0  0  0  0  0  0
  -25.6948  -20.8585   20.7769 C   0  0  0  0  0  0
  -28.0397  -20.5403   20.8686 C   0  0  0  0  0  0
  -29.1383  -18.1514   23.0888 C   0  0  0  0  0  0
  -28.4208  -17.4755   20.9467 C   0  0  0  0  0  0
  -29.1227  -16.2387   21.5352 C   0  0  1  0  0  0
  -27.4163  -19.6159   21.9399 C   0  0  2  0  0  0
  -30.0331  -24.8244   16.1104 C   0  0  0  0  0  0
  -27.0449  -22.0560   19.1950 C   0  0  0  0  0  0
  -29.2417  -25.6694   18.2330 N   0  0  0  0  0  0
  -26.9879  -21.5236   20.5666 N   0  0  0  0  0  0
  -29.9498  -15.5770   20.5126 N   0  0  0  0  0  0
  -28.0128  -18.2553   22.1324 N   0  3  2  0  0  0
  -31.4593  -12.3985   19.1046 H   0  0  0  0  0  0
  -30.3280  -11.2856   19.8149 H   0  0  0  0  0  0
  -29.7246  -11.7547   17.4253 H   0  0  0  0  0  0
  -29.6534  -13.4646   17.7516 H   0  0  0  0  0  0
  -27.8198  -11.2956   18.8177 H   0  0  0  0  0  0
  -27.3582  -12.6233   17.7887 H   0  0  0  0  0  0
  -27.7071  -14.2383   19.5838 H   0  0  0  0  0  0
  -28.6904  -11.9113   21.3029 H   0  0  0  0  0  0
  -28.4844  -13.5153   21.8984 H   0  0  0  0  0  0
  -25.2747   -9.5727   22.4728 H   0  0  0  0  0  0
  -23.9999   -7.4661   22.7469 H   0  0  0  0  0  0
  -21.0797   -8.8761   19.8949 H   0  0  0  0  0  0
  -22.3636  -10.9669   19.6158 H   0  0  0  0  0  0
  -21.1968   -7.6137   23.9665 H   0  0  0  0  0  0
  -21.1436   -6.0535   25.9052 H   0  0  0  0  0  0
  -22.0634   -2.7602   23.2851 H   0  0  0  0  0  0
  -22.4135  -11.9935   22.4800 H   0  0  0  0  0  0
  -21.1101  -13.1233   22.2483 H   0  0  0  0  0  0
  -24.6204  -15.7891   20.3828 H   0  0  0  0  0  0
  -26.2005  -15.5372   19.8437 H   0  0  0  0  0  0
  -26.7085  -32.5527   23.1121 H   0  0  0  0  0  0
  -25.0151  -33.9820   25.0503 H   0  0  0  0  0  0
  -22.6900  -31.3164   21.4181 H   0  0  0  0  0  0
  -23.3737  -35.9705   23.3290 H   0  0  0  0  0  0
  -24.3589  -36.8969   22.2042 H   0  0  0  0  0  0
  -23.7297  -37.6557   23.6660 H   0  0  0  0  0  0
  -26.0326  -31.5942   20.5928 H   0  0  0  0  0  0
  -26.8173  -30.8883   21.9792 H   0  0  0  0  0  0
  -28.0972  -29.1119   21.1456 H   0  0  0  0  0  0
  -26.0103  -25.9794   19.0100 H   0  0  0  0  0  0
  -23.9627  -27.2953   19.0478 H   0  0  0  0  0  0
  -23.7269  -30.6106   19.4142 H   0  0  0  0  0  0
  -22.7269  -29.2637   19.8626 H   0  0  0  0  0  0
  -25.1300  -36.1935   25.0802 H   0  0  0  0  0  0
  -20.9911  -28.3305   24.1451 H   0  0  0  0  0  0
  -20.5940  -26.2291   23.3695 H   0  0  0  0  0  0
  -21.6636  -26.7529   22.1073 H   0  0  0  0  0  0
  -19.6926  -25.6059   21.1595 H   0  0  0  0  0  0
  -19.6771  -27.2873   20.6767 H   0  0  0  0  0  0
  -17.4261  -26.6350   21.4110 H   0  0  0  0  0  0
  -18.0417  -26.0075   22.9268 H   0  0  0  0  0  0
  -19.7764  -30.7322   24.2176 H   0  0  0  0  0  0
  -17.4715  -31.6022   24.5281 H   0  0  0  0  0  0
  -15.5156  -30.2563   23.7816 H   0  0  0  0  0  0
  -15.8705  -28.0468   22.7138 H   0  0  0  0  0  0
  -24.5873  -30.7146   25.7824 H   0  0  0  0  0  0
  -24.8977  -32.2937   26.4927 H   0  0  0  0  0  0
  -25.8081  -30.8914   27.0222 H   0  0  0  0  0  0
  -26.2839  -29.6828   24.1154 H   0  0  0  0  0  0
  -27.4059  -29.7299   25.4567 H   0  0  0  0  0  0
  -27.8681  -30.4388   23.9267 H   0  0  0  0  0  0
  -27.2576  -33.3643   26.2112 H   0  0  0  0  0  0
  -28.3819  -32.6989   25.0355 H   0  0  0  0  0  0
  -28.0689  -31.8499   26.5419 H   0  0  0  0  0  0
  -28.2577  -38.0133   24.7478 H   0  0  0  0  0  0
  -28.1093  -36.2655   24.6302 H   0  0  0  0  0  0
  -27.2300  -37.1505   25.8859 H   0  0  0  0  0  0
  -20.9276  -29.8987   21.7147 H   0  0  0  0  0  0
  -26.0163  -38.2868   24.1397 H   0  0  0  0  0  0
  -28.7174  -22.5466   17.0230 H   0  0  0  0  0  0
  -27.3464  -24.3312   20.7073 H   0  0  0  0  0  0
  -25.8292  -18.7248   20.7513 H   0  0  0  0  0  0
  -25.2696  -19.3457   22.2952 H   0  0  0  0  0  0
  -30.9230  -17.0887   22.4475 H   0  0  0  0  0  0
  -29.9356  -16.1655   23.5725 H   0  0  0  0  0  0
  -25.0690  -21.4996   21.4032 H   0  0  0  0  0  0
  -25.1423  -20.6805   19.8509 H   0  0  0  0  0  0
  -28.2705  -19.9830   19.9615 H   0  0  0  0  0  0
  -28.9580  -21.0192   21.2111 H   0  0  0  0  0  0
  -29.8019  -19.0136   23.0006 H   0  0  0  0  0  0
  -28.7630  -18.1302   24.1135 H   0  0  0  0  0  0
  -27.5715  -17.2117   20.3159 H   0  0  0  0  0  0
  -29.1310  -18.0475   20.3465 H   0  0  0  0  0  0
  -28.3434  -15.5797   21.9138 H   0  0  0  0  0  0
  -27.4234  -20.1407   22.8994 H   0  0  0  0  0  0
  -29.4561  -25.5062   15.4825 H   0  0  0  0  0  0
  -30.1804  -23.8993   15.5532 H   0  0  0  0  0  0
  -31.0100  -25.2769   16.2800 H   0  0  0  0  0  0
  -27.2496  -21.2553   18.4837 H   0  0  0  0  0  0
  -26.0526  -22.4323   18.9369 H   0  0  0  0  0  0
  -30.4340  -16.2575   19.9481 H   0  0  0  0  0  0
  -27.2776  -17.7141   22.5670 H   0  0  0  0  0  0
  1 25  1  0  0  0
  1 30  2  0  0  0
  1 88  1  0  0  0
  2  3  1  0  0  0
  2 25  1  0  0  0
  2 90  1  0  0  0
  2 91  1  0  0  0
  3  4  1  0  0  0
  3 92  1  0  0  0
  3 93  1  0  0  0
  4  5  1  0  0  0
  4 94  1  0  0  0
  4 95  1  0  0  0
  5  6  1  0  0  0
  5 26  1  0  0  0
  5 96  1  0  0  0
  6 25  1  0  0  0
  6 97  1  0  0  0
  6 98  1  0  0  0
  7  8  2  0  0  0
  7 26  1  0  0  0
  7 29  1  0  0  0
  8  9  1  0  0  0
  8 22  1  0  0  0
  9 10  1  0  0  0
  9 27  2  0  0  0
 10 11  2  0  0  0
 10 15  1  0  0  0
 11 12  1  0  0  0
 11 99  1  0  0  0
 12 13  2  0  0  0
 12100  1  0  0  0
 13 14  1  0  0  0
 13 31  1  0  0  0
 14 15  2  0  0  0
 14101  1  0  0  0
 15102  1  0  0  0
 16 17  2  0  0  0
 16 21  1  0  0  0
 16 31  1  0  0  0
 17 18  1  0  0  0
 17103  1  0  0  0
 18 19  2  0  0  0
 18104  1  0  0  0
 19 20  1  0  0  0
 19 24  1  0  0  0
 20 21  2  0  0  0
 20105  1  0  0  0
 21 23  1  0  0  0
 22 28  1  0  0  0
 22 32  2  0  0  0
 26 27  1  0  0  0
 28106  1  0  0  0
 28107  1  0  0  0
 29108  1  0  0  0
 29109  1  0  0  0
 33 34  1  0  0  0
 33 66  1  0  0  0
 33 70  2  0  0  0
 34 36  1  0  0  0
 34 59  1  0  0  0
 34110  1  0  0  0
 35 44  2  0  0  0
 35 45  1  0  0  0
 35 68  1  0  0  0
 36 56  1  0  0  0
 36111  1  0  0  0
 37 39  1  0  0  0
 37 47  1  0  0  0
 37 66  1  0  0  0
 37112  1  0  0  0
 38 43  2  0  0  0
 38 46  1  0  0  0
 38 47  1  0  0  0
 39 64  1  0  0  0
 39 67  2  0  0  0
 40 52  1  0  0  0
 40 53  2  0  0  0
 40 58  1  0  0  0
 41113  1  0  0  0
 41114  1  0  0  0
 41115  1  0  0  0
 41 48  1  0  0  0
 42 43  1  0  0  0
 42 66  1  0  0  0
 42116  1  0  0  0
 42117  1  0  0  0
 43 44  1  0  0  0
 44118  1  0  0  0
 45 46  2  0  0  0
 45119  1  0  0  0
 46120  1  0  0  0
 47121  1  0  0  0
 47122  1  0  0  0
 48 56  1  0  0  0
 48 65  1  0  0  0
 48123  1  0  0  0
 49 50  1  0  0  0
 49 53  1  0  0  0
 49 64  1  0  0  0
 49124  1  0  0  0
 50 51  1  0  0  0
 50125  1  0  0  0
 50126  1  0  0  0
 51 52  1  0  0  0
 51127  1  0  0  0
 51128  1  0  0  0
 52129  1  0  0  0
 52130  1  0  0  0
 53 54  1  0  0  0
 54 55  2  0  0  0
 54131  1  0  0  0
 55 57  1  0  0  0
 55132  1  0  0  0
 56 69  2  0  0  0
 57 58  2  0  0  0
 57133  1  0  0  0
 58134  1  0  0  0
 59 60  1  0  0  0
 59 61  1  0  0  0
 59 62  1  0  0  0
 60135  1  0  0  0
 60136  1  0  0  0
 60137  1  0  0  0
 61138  1  0  0  0
 61139  1  0  0  0
 61140  1  0  0  0
 62141  1  0  0  0
 62142  1  0  0  0
 62143  1  0  0  0
 63 65  1  0  0  0
 63144  1  0  0  0
 63145  1  0  0  0
 63146  1  0  0  0
 64147  1  0  0  0
 65148  1  0  0  0
 68 75  1  0  0  0
 71 73  2  0  0  0
 71 74  1  0  0  0
 71149  1  0  0  0
 72 73  1  0  0  0
 72 75  2  0  0  0
 72150  1  0  0  0
 73 85  1  0  0  0
 74 84  1  0  0  0
 74 86  2  0  0  0
 75 86  1  0  0  0
 76 78  1  0  0  0
 76151  1  0  0  0
 76152  1  0  0  0
 76 83  1  0  0  0
 77 80  1  0  0  0
 77 82  1  0  0  0
 77153  1  0  0  0
 77154  1  0  0  0
 78 87  1  0  0  0
 78155  1  0  0  0
 78156  1  0  0  0
 79 83  1  0  0  0
 79 87  1  0  0  0
 79157  1  0  0  0
 79158  1  0  0  0
 80159  1  0  0  0
 80160  1  0  0  0
 80 89  1  0  0  0
 81 82  1  0  0  0
 81 89  1  0  0  0
 81161  1  0  0  0
 81162  1  0  0  0
 82 88  1  0  0  0
 82163  1  0  0  0
 83 89  1  0  0  0
 83164  1  0  0  0
 84165  1  0  0  0
 84166  1  0  0  0
 84167  1  0  0  0
 85 87  1  0  0  0
 85168  1  0  0  0
 85169  1  0  0  0
 88170  1  0  0  0
 89171  1  0  0  0
M  CHG  1  89   1
M  ISO  4   1 100  68 101  75 101  88 100
M  END
> <chiral flag>
0

> <version>
0

> <s_m_source_file>
/data/baiqing/PycharmProjects/Reinvent-master-3.2/result/LINK_invent/BTK/process_docking_weight1_custom_sum_contain_oxygen_bond_distance_aromatic_linkinvent_7_9_3/rearranged_h_0170.sdf

> <i_m_source_file_index>
57

> <r_mmod_Potential_Energy-OPLS-2005>
-74.774658203125

> <r_mmod_Stretch_Energy-OPLS-2005>
36.8009452819824

> <r_mmod_Bend_Energy-OPLS-2005>
171.169479370117

> <r_mmod_Torsional_Energy-OPLS-2005>
412.969604492188

> <r_mmod_Improper_Torsional_Energy-OPLS-2005>
26.4211444854736

> <r_mmod_Van_der_Waal_Energy-OPLS-2005>
145.12174987793

> <r_mmod_Electrostatic_Energy-OPLS-2005>
-400.009490966797

> <r_mmod_Solvation_Energy-OPLS-2005>
-482.673217773438

> <b_mmod_Minimization_Converged-OPLS-2005>
0

> <r_mmod_RMS_Derivative-OPLS-2005>
3.99010992050171

$$$$
58
                    3D
 Structure written by MMmdl.
184194  0  0  1  0            999 V2000
  -30.7341  -14.6170   20.5132 C   0  0  0  0  0  0
  -30.4086  -12.3931   19.4506 C   0  0  0  0  0  0
  -29.4868  -12.4922   18.2188 C   0  0  0  0  0  0
  -28.0193  -12.3046   18.6434 C   0  0  0  0  0  0
  -27.6409  -13.1987   19.8498 C   0  0  2  0  0  0
  -28.6967  -13.1211   20.9841 C   0  0  0  0  0  0
  -25.2532  -13.8126   20.5666 C   0  0  0  0  0  0
  -24.1800  -13.0418   20.9203 C   0  0  0  0  0  0
  -24.6361  -11.6886   20.8761 C   0  0  0  0  0  0
  -23.9036  -10.4277   21.0419 C   0  0  0  0  0  0
  -24.3601   -9.4194   21.9201 C   0  0  0  0  0  0
  -23.6290   -8.2224   22.0754 C   0  0  0  0  0  0
  -22.4277   -8.0264   21.3534 C   0  0  0  0  0  0
  -21.9898   -9.0231   20.4631 C   0  0  0  0  0  0
  -22.7211  -10.2122   20.3059 C   0  0  0  0  0  0
  -21.6846   -6.0730   22.5277 C   0  0  0  0  0  0
  -21.4000   -6.5633   23.8210 C   0  0  0  0  0  0
  -21.3664   -5.6785   24.9171 C   0  0  0  0  0  0
  -21.6052   -4.3053   24.7219 C   0  0  0  0  0  0
  -21.8822   -3.8141   23.4340 C   0  0  0  0  0  0
  -21.9194   -4.6959   22.3398 C   0  0  0  0  0  0
  -22.7833  -13.5237   21.1856 C   0  0  0  0  0  0
  -22.1660   -4.2148   21.0977 F   0  0  0  0  0  0
  -21.5645   -3.4534   25.7734 F   0  0  0  0  0  0
  -30.0010  -13.4560   20.3996 N   0  0  0  0  0  0
  -26.2933  -12.9272   20.3307 N   0  0  0  0  0  0
  -25.9280  -11.6450   20.5791 N   0  0  0  0  0  0
  -22.0454  -12.8242   22.0412 N   0  0  0  0  0  0
  -25.4216  -15.1837   20.3998 N   0  0  0  0  0  0
  -31.9151  -14.6079   20.1557 O   0  0  0  0  0  0
  -21.6644   -6.8860   21.4234 O   0  0  0  0  0  0
  -22.3531  -14.5543   20.6691 O   0  0  0  0  0  0
  -24.6279  -31.8624   23.2067 C   0  0  0  0  0  0
  -25.9132  -32.4787   23.8376 C   0  0  1  0  0  0
  -27.2101  -27.3319   20.0997 C   0  0  0  0  0  0
  -25.5958  -33.8586   24.2309 N   0  0  0  0  0  0
  -23.4182  -30.4912   21.5526 C   0  0  2  0  0  0
  -24.8574  -28.9588   20.1077 C   0  0  0  0  0  0
  -22.7476  -29.4649   22.4973 C   0  0  0  0  0  0
  -18.0290  -28.1395   22.8514 C   0  0  0  0  0  0
  -24.1483  -36.7300   23.2639 C   0  0  0  0  0  0
  -25.9603  -30.7991   21.3724 C   0  0  0  0  0  0
  -26.0316  -29.4305   20.7084 C   0  0  0  0  0  0
  -27.2130  -28.6314   20.6921 C   0  0  0  0  0  0
  -26.0063  -26.9166   19.4777 C   0  0  0  0  0  0
  -24.8479  -27.7072   19.4817 C   0  0  0  0  0  0
  -23.6262  -29.8361   20.1643 C   0  0  0  0  0  0
  -25.4105  -36.3093   24.0345 C   0  0  1  0  0  0
  -20.5892  -28.3695   23.1301 C   0  0  2  0  0  0
  -20.6790  -26.9421   22.5417 C   0  0  0  0  0  0
  -19.5747  -26.6388   21.5242 C   0  0  0  0  0  0
  -18.1927  -26.7943   22.1648 C   0  0  0  0  0  0
  -19.1541  -28.8866   23.2904 C   0  0  0  0  0  0
  -18.9458  -30.1481   23.8893 C   0  0  0  0  0  0
  -17.6450  -30.6598   24.0565 C   0  0  0  0  0  0
  -25.9052  -34.9464   23.5121 C   0  0  0  0  0  0
  -16.5342  -29.9087   23.6336 C   0  0  0  0  0  0
  -16.7277  -28.6512   23.0353 C   0  0  0  0  0  0
  -26.4503  -31.6570   25.0732 C   0  0  0  0  0  0
  -25.3742  -31.3687   26.1459 C   0  0  0  0  0  0
  -27.0325  -30.2996   24.6153 C   0  0  0  0  0  0
  -27.6072  -32.4283   25.7501 C   0  0  0  0  0  0
  -27.5579  -37.1803   24.8467 C   0  0  0  0  0  0
  -21.4195  -29.3059   22.3704 N   0  0  0  0  0  0
  -26.4288  -37.3783   23.9416 N   0  0  0  0  0  0
  -24.6886  -31.0643   22.1015 N   0  0  0  0  0  0
  -23.4205  -28.8173   23.3031 O   0  0  0  0  0  0
  -28.3210  -26.4728   20.1482 O   0  0  0  0  0  0
  -26.5600  -34.8931   22.4674 O   0  0  0  0  0  0
  -23.5446  -32.1418   23.7405 O   0  0  0  0  0  0
  -30.7983  -21.5582   20.0769 C   0  0  0  0  0  0
  -28.7004  -22.6374   20.6467 C   0  0  0  0  0  0
  -31.2296  -22.7996   19.5691 C   0  0  0  0  0  0
  -30.4438  -23.9529   19.5795 C   0  0  0  0  0  0
  -29.1256  -23.9128   20.1307 C   0  0  0  0  0  0
  -29.5046  -21.4500   20.6193 C   0  0  0  0  0  0
  -28.4347  -17.7853   20.7606 C   0  0  0  0  0  0
  -30.5912  -18.3083   21.7067 C   0  0  0  0  0  0
  -28.8716  -16.3193   20.4376 C   0  0  0  0  0  0
  -31.1486  -16.9139   21.2793 C   0  0  0  0  0  0
  -32.5385  -23.0179   18.8716 C   0  0  2  0  0  0
  -29.5385  -18.8602   20.7312 C   0  0  0  0  0  0
  -31.1844  -25.0774   18.8470 C   0  0  0  0  0  0
  -33.7256  -22.6684   19.7922 C   0  0  0  0  0  0
  -31.4833  -26.2530   19.8010 C   0  0  0  0  0  0
  -30.3370  -25.5193   17.6245 C   0  0  0  0  0  0
  -34.3399  -23.9137   16.7364 C   0  0  0  0  0  0
  -33.5949  -26.2528   17.0347 C   0  0  0  0  0  0
  -28.0395  -25.0341   20.0011 C   0  0  0  0  0  0
  -33.1199  -24.7835   17.1251 C   0  0  0  0  0  0
  -30.1820  -15.8227   20.9340 N   0  0  0  0  0  0
  -29.0041  -20.2030   21.0939 N   0  0  0  0  0  0
  -32.5221  -24.4599   18.4758 N   0  3  2  0  0  0
  -31.4511  -12.4669   19.1382 H   0  0  0  0  0  0
  -30.3161  -11.4118   19.9191 H   0  0  0  0  0  0
  -29.7606  -11.7420   17.4757 H   0  0  0  0  0  0
  -29.6114  -13.4640   17.7377 H   0  0  0  0  0  0
  -27.8790  -11.2539   18.9009 H   0  0  0  0  0  0
  -27.3542  -12.5017   17.8008 H   0  0  0  0  0  0
  -27.6251  -14.2011   19.4357 H   0  0  0  0  0  0
  -28.7276  -12.1147   21.4055 H   0  0  0  0  0  0
  -28.4542  -13.7798   21.8180 H   0  0  0  0  0  0
  -25.2729   -9.5694   22.4795 H   0  0  0  0  0  0
  -23.9998   -7.4625   22.7478 H   0  0  0  0  0  0
  -21.0831   -8.8736   19.8937 H   0  0  0  0  0  0
  -22.3653  -10.9672   19.6183 H   0  0  0  0  0  0
  -21.1973   -7.6138   23.9715 H   0  0  0  0  0  0
  -21.1490   -6.0509   25.9078 H   0  0  0  0  0  0
  -22.0602   -2.7607   23.2835 H   0  0  0  0  0  0
  -22.4039  -11.9893   22.4804 H   0  0  0  0  0  0
  -21.1071  -13.1279   22.2605 H   0  0  0  0  0  0
  -24.6546  -15.8354   20.5191 H   0  0  0  0  0  0
  -26.2692  -15.6250   20.0695 H   0  0  0  0  0  0
  -26.7205  -32.5438   23.1126 H   0  0  0  0  0  0
  -25.0103  -33.9721   25.0455 H   0  0  0  0  0  0
  -22.7135  -31.3140   21.4169 H   0  0  0  0  0  0
  -23.3756  -35.9619   23.3281 H   0  0  0  0  0  0
  -24.3579  -36.8937   22.2058 H   0  0  0  0  0  0
  -23.7222  -37.6500   23.6655 H   0  0  0  0  0  0
  -26.0845  -31.5660   20.6063 H   0  0  0  0  0  0
  -26.8458  -30.8457   21.9945 H   0  0  0  0  0  0
  -28.1158  -28.9922   21.1651 H   0  0  0  0  0  0
  -25.9034  -25.9644   18.9833 H   0  0  0  0  0  0
  -23.9507  -27.3381   19.0035 H   0  0  0  0  0  0
  -23.7389  -30.6180   19.4124 H   0  0  0  0  0  0
  -22.7452  -29.2659   19.8637 H   0  0  0  0  0  0
  -25.1271  -36.1959   25.0838 H   0  0  0  0  0  0
  -20.9993  -28.3263   24.1417 H   0  0  0  0  0  0
  -20.5732  -26.2296   23.3616 H   0  0  0  0  0  0
  -21.6645  -26.7476   22.1159 H   0  0  0  0  0  0
  -19.6891  -25.6296   21.1276 H   0  0  0  0  0  0
  -19.6687  -27.3203   20.6779 H   0  0  0  0  0  0
  -17.4206  -26.6750   21.4034 H   0  0  0  0  0  0
  -18.0278  -26.0068   22.9019 H   0  0  0  0  0  0
  -19.7924  -30.7338   24.2231 H   0  0  0  0  0  0
  -17.4984  -31.6275   24.5164 H   0  0  0  0  0  0
  -15.5339  -30.2981   23.7658 H   0  0  0  0  0  0
  -15.8681  -28.0836   22.7045 H   0  0  0  0  0  0
  -24.5932  -30.7021   25.7776 H   0  0  0  0  0  0
  -24.8918  -32.2843   26.4889 H   0  0  0  0  0  0
  -25.8085  -30.8855   27.0223 H   0  0  0  0  0  0
  -26.2882  -29.6754   24.1193 H   0  0  0  0  0  0
  -27.4053  -29.7233   25.4631 H   0  0  0  0  0  0
  -27.8738  -30.4280   23.9337 H   0  0  0  0  0  0
  -27.2705  -33.3601   26.2054 H   0  0  0  0  0  0
  -28.3902  -32.6811   25.0338 H   0  0  0  0  0  0
  -28.0703  -31.8406   26.5437 H   0  0  0  0  0  0
  -28.2587  -38.0108   24.7517 H   0  0  0  0  0  0
  -28.1094  -36.2647   24.6281 H   0  0  0  0  0  0
  -27.2302  -37.1426   25.8871 H   0  0  0  0  0  0
  -20.9363  -29.8802   21.6938 H   0  0  0  0  0  0
  -26.0183  -38.2867   24.1403 H   0  0  0  0  0  0
  -31.4514  -20.6995   20.0207 H   0  0  0  0  0  0
  -27.6914  -22.5525   21.0241 H   0  0  0  0  0  0
  -27.9741  -17.7822   21.7517 H   0  0  0  0  0  0
  -27.6319  -18.0640   20.0757 H   0  0  0  0  0  0
  -31.4232  -19.0086   21.7957 H   0  0  0  0  0  0
  -30.1660  -18.2288   22.7090 H   0  0  0  0  0  0
  -28.8516  -16.1811   19.3550 H   0  0  0  0  0  0
  -28.0880  -15.7051   20.8647 H   0  0  0  0  0  0
  -31.8131  -16.5540   22.0682 H   0  0  0  0  0  0
  -31.7860  -17.0872   20.4090 H   0  0  0  0  0  0
  -32.5168  -22.3676   17.9977 H   0  0  0  0  0  0
  -29.9595  -18.9067   19.7256 H   0  0  0  0  0  0
  -33.6943  -23.2349   20.7236 H   0  0  0  0  0  0
  -34.6873  -22.8616   19.3216 H   0  0  0  0  0  0
  -33.7148  -21.6109   20.0565 H   0  0  0  0  0  0
  -30.5925  -26.7494   20.1651 H   0  0  0  0  0  0
  -32.0837  -27.0264   19.3251 H   0  0  0  0  0  0
  -32.0310  -25.9137   20.6810 H   0  0  0  0  0  0
  -29.3745  -25.9240   17.9209 H   0  0  0  0  0  0
  -30.1325  -24.6793   16.9595 H   0  0  0  0  0  0
  -30.7987  -26.3057   17.0343 H   0  0  0  0  0  0
  -34.7459  -24.2371   15.7773 H   0  0  0  0  0  0
  -34.1012  -22.8591   16.6110 H   0  0  0  0  0  0
  -35.1505  -24.0035   17.4580 H   0  0  0  0  0  0
  -33.9896  -26.4685   16.0406 H   0  0  0  0  0  0
  -34.3958  -26.4560   17.7464 H   0  0  0  0  0  0
  -32.8120  -26.9851   17.2097 H   0  0  0  0  0  0
  -27.2427  -24.7895   20.7063 H   0  0  0  0  0  0
  -27.6350  -24.8546   19.0060 H   0  0  0  0  0  0
  -32.3723  -24.5956   16.3545 H   0  0  0  0  0  0
  -28.0433  -20.2068   21.4260 H   0  0  0  0  0  0
  -33.1564  -24.8722   19.1404 H   0  0  0  0  0  0
  1 25  1  0  0  0
  1 30  2  0  0  0
  1 91  1  0  0  0
  2  3  1  0  0  0
  2 25  1  0  0  0
  2 94  1  0  0  0
  2 95  1  0  0  0
  3  4  1  0  0  0
  3 96  1  0  0  0
  3 97  1  0  0  0
  4  5  1  0  0  0
  4 98  1  0  0  0
  4 99  1  0  0  0
  5  6  1  0  0  0
  5 26  1  0  0  0
  5100  1  0  0  0
  6 25  1  0  0  0
  6101  1  0  0  0
  6102  1  0  0  0
  7  8  2  0  0  0
  7 26  1  0  0  0
  7 29  1  0  0  0
  8  9  1  0  0  0
  8 22  1  0  0  0
  9 10  1  0  0  0
  9 27  2  0  0  0
 10 11  2  0  0  0
 10 15  1  0  0  0
 11 12  1  0  0  0
 11103  1  0  0  0
 12 13  2  0  0  0
 12104  1  0  0  0
 13 14  1  0  0  0
 13 31  1  0  0  0
 14 15  2  0  0  0
 14105  1  0  0  0
 15106  1  0  0  0
 16 17  2  0  0  0
 16 21  1  0  0  0
 16 31  1  0  0  0
 17 18  1  0  0  0
 17107  1  0  0  0
 18 19  2  0  0  0
 18108  1  0  0  0
 19 20  1  0  0  0
 19 24  1  0  0  0
 20 21  2  0  0  0
 20109  1  0  0  0
 21 23  1  0  0  0
 22 28  1  0  0  0
 22 32  2  0  0  0
 26 27  1  0  0  0
 28110  1  0  0  0
 28111  1  0  0  0
 29112  1  0  0  0
 29113  1  0  0  0
 33 34  1  0  0  0
 33 66  1  0  0  0
 33 70  2  0  0  0
 34 36  1  0  0  0
 34 59  1  0  0  0
 34114  1  0  0  0
 35 44  2  0  0  0
 35 45  1  0  0  0
 35 68  1  0  0  0
 36 56  1  0  0  0
 36115  1  0  0  0
 37 39  1  0  0  0
 37 47  1  0  0  0
 37 66  1  0  0  0
 37116  1  0  0  0
 38 43  2  0  0  0
 38 46  1  0  0  0
 38 47  1  0  0  0
 39 64  1  0  0  0
 39 67  2  0  0  0
 40 52  1  0  0  0
 40 53  2  0  0  0
 40 58  1  0  0  0
 41117  1  0  0  0
 41118  1  0  0  0
 41119  1  0  0  0
 41 48  1  0  0  0
 42 43  1  0  0  0
 42 66  1  0  0  0
 42120  1  0  0  0
 42121  1  0  0  0
 43 44  1  0  0  0
 44122  1  0  0  0
 45 46  2  0  0  0
 45123  1  0  0  0
 46124  1  0  0  0
 47125  1  0  0  0
 47126  1  0  0  0
 48 56  1  0  0  0
 48 65  1  0  0  0
 48127  1  0  0  0
 49 50  1  0  0  0
 49 53  1  0  0  0
 49 64  1  0  0  0
 49128  1  0  0  0
 50 51  1  0  0  0
 50129  1  0  0  0
 50130  1  0  0  0
 51 52  1  0  0  0
 51131  1  0  0  0
 51132  1  0  0  0
 52133  1  0  0  0
 52134  1  0  0  0
 53 54  1  0  0  0
 54 55  2  0  0  0
 54135  1  0  0  0
 55 57  1  0  0  0
 55136  1  0  0  0
 56 69  2  0  0  0
 57 58  2  0  0  0
 57137  1  0  0  0
 58138  1  0  0  0
 59 60  1  0  0  0
 59 61  1  0  0  0
 59 62  1  0  0  0
 60139  1  0  0  0
 60140  1  0  0  0
 60141  1  0  0  0
 61142  1  0  0  0
 61143  1  0  0  0
 61144  1  0  0  0
 62145  1  0  0  0
 62146  1  0  0  0
 62147  1  0  0  0
 63 65  1  0  0  0
 63148  1  0  0  0
 63149  1  0  0  0
 63150  1  0  0  0
 64151  1  0  0  0
 65152  1  0  0  0
 68 89  1  0  0  0
 71 73  2  0  0  0
 71 76  1  0  0  0
 71153  1  0  0  0
 72 75  1  0  0  0
 72 76  2  0  0  0
 72154  1  0  0  0
 73 74  1  0  0  0
 73 81  1  0  0  0
 74 75  2  0  0  0
 74 83  1  0  0  0
 75 89  1  0  0  0
 76 92  1  0  0  0
 77 79  1  0  0  0
 77 82  1  0  0  0
 77155  1  0  0  0
 77156  1  0  0  0
 78 80  1  0  0  0
 78 82  1  0  0  0
 78157  1  0  0  0
 78158  1  0  0  0
 79 91  1  0  0  0
 79159  1  0  0  0
 79160  1  0  0  0
 80 91  1  0  0  0
 80161  1  0  0  0
 80162  1  0  0  0
 81 84  1  0  0  0
 81 93  1  0  0  0
 81163  1  0  0  0
 82 92  1  0  0  0
 82164  1  0  0  0
 83 85  1  0  0  0
 83 86  1  0  0  0
 83 93  1  0  0  0
 84165  1  0  0  0
 84166  1  0  0  0
 84167  1  0  0  0
 85168  1  0  0  0
 85169  1  0  0  0
 85170  1  0  0  0
 86171  1  0  0  0
 86172  1  0  0  0
 86173  1  0  0  0
 87174  1  0  0  0
 87175  1  0  0  0
 87176  1  0  0  0
 87 90  1  0  0  0
 88 90  1  0  0  0
 88177  1  0  0  0
 88178  1  0  0  0
 88179  1  0  0  0
 89180  1  0  0  0
 89181  1  0  0  0
 90182  1  0  0  0
 90 93  1  0  0  0
 92183  1  0  0  0
 93184  1  0  0  0
M  CHG  1  93   1
M  ISO  4   1 100  68 101  89 101  91 100
M  END
> <chiral flag>
0

> <version>
0

> <s_m_source_file>
/data/baiqing/PycharmProjects/Reinvent-master-3.2/result/LINK_invent/BTK/process_docking_weight1_custom_sum_contain_oxygen_bond_distance_aromatic_linkinvent_7_9_3/rearranged_h_0170.sdf

> <i_m_source_file_index>
58

> <r_mmod_Potential_Energy-OPLS-2005>
247.040374755859

> <r_mmod_Stretch_Energy-OPLS-2005>
84.7592849731445

> <r_mmod_Bend_Energy-OPLS-2005>
238.244995117188

> <r_mmod_Torsional_Energy-OPLS-2005>
336.207794189453

> <r_mmod_Improper_Torsional_Energy-OPLS-2005>
7.21471452713013

> <r_mmod_Van_der_Waal_Energy-OPLS-2005>
172.845077514648

> <r_mmod_Electrostatic_Energy-OPLS-2005>
-233.945526123047

> <r_mmod_Solvation_Energy-OPLS-2005>
-407.844573974609

> <b_mmod_Minimization_Converged-OPLS-2005>
0

> <r_mmod_RMS_Derivative-OPLS-2005>
2.0490710735321

$$$$
59
                    3D
 Structure written by MMmdl.
164174  0  0  1  0            999 V2000
  -30.6360  -14.6896   20.4942 C   0  0  0  0  0  0
  -30.4345  -12.4272   19.4642 C   0  0  0  0  0  0
  -29.5087  -12.5079   18.2304 C   0  0  0  0  0  0
  -28.0356  -12.3325   18.6482 C   0  0  0  0  0  0
  -27.6463  -13.2262   19.8548 C   0  0  2  0  0  0
  -28.6905  -13.1370   20.9891 C   0  0  0  0  0  0
  -25.2531  -13.8186   20.5705 C   0  0  0  0  0  0
  -24.1809  -13.0440   20.9195 C   0  0  0  0  0  0
  -24.6401  -11.6915   20.8744 C   0  0  0  0  0  0
  -23.9077  -10.4292   21.0419 C   0  0  0  0  0  0
  -24.3619   -9.4198   21.9189 C   0  0  0  0  0  0
  -23.6287   -8.2243   22.0756 C   0  0  0  0  0  0
  -22.4269   -8.0281   21.3544 C   0  0  0  0  0  0
  -21.9917   -9.0267   20.4654 C   0  0  0  0  0  0
  -22.7251  -10.2141   20.3062 C   0  0  0  0  0  0
  -21.6853   -6.0737   22.5282 C   0  0  0  0  0  0
  -21.4019   -6.5639   23.8218 C   0  0  0  0  0  0
  -21.3656   -5.6792   24.9179 C   0  0  0  0  0  0
  -21.6040   -4.3053   24.7226 C   0  0  0  0  0  0
  -21.8816   -3.8144   23.4343 C   0  0  0  0  0  0
  -21.9194   -4.6965   22.3403 C   0  0  0  0  0  0
  -22.7828  -13.5229   21.1852 C   0  0  0  0  0  0
  -22.1660   -4.2150   21.0977 F   0  0  0  0  0  0
  -21.5627   -3.4537   25.7737 F   0  0  0  0  0  0
  -29.9987  -13.4750   20.4130 N   0  0  0  0  0  0
  -26.2958  -12.9380   20.3306 N   0  0  0  0  0  0
  -25.9323  -11.6530   20.5752 N   0  0  0  0  0  0
  -22.0470  -12.8235   22.0421 N   0  0  0  0  0  0
  -25.4223  -15.1905   20.4130 N   0  0  0  0  0  0
  -31.8122  -14.8028   20.1373 O   0  0  0  0  0  0
  -21.6630   -6.8879   21.4241 O   0  0  0  0  0  0
  -22.3518  -14.5538   20.6696 O   0  0  0  0  0  0
  -24.6288  -31.8574   23.2006 C   0  0  0  0  0  0
  -25.9127  -32.4766   23.8342 C   0  0  1  0  0  0
  -27.2213  -27.2872   20.1221 C   0  0  0  0  0  0
  -25.5925  -33.8566   24.2262 N   0  0  0  0  0  0
  -23.4239  -30.4801   21.5444 C   0  0  2  0  0  0
  -24.8700  -28.9309   20.1141 C   0  0  0  0  0  0
  -22.7480  -29.4615   22.4929 C   0  0  0  0  0  0
  -18.0287  -28.1386   22.8487 C   0  0  0  0  0  0
  -24.1486  -36.7288   23.2640 C   0  0  0  0  0  0
  -25.9681  -30.7785   21.3767 C   0  0  0  0  0  0
  -26.0410  -29.4031   20.7188 C   0  0  0  0  0  0
  -27.2205  -28.5946   20.7096 C   0  0  0  0  0  0
  -26.0253  -26.8774   19.4908 C   0  0  0  0  0  0
  -24.8658  -27.6749   19.4906 C   0  0  0  0  0  0
  -23.6396  -29.8141   20.1605 C   0  0  0  0  0  0
  -25.4112  -36.3072   24.0324 C   0  0  1  0  0  0
  -20.5889  -28.3689   23.1282 C   0  0  2  0  0  0
  -20.6772  -26.9409   22.5409 C   0  0  0  0  0  0
  -19.5747  -26.6383   21.5211 C   0  0  0  0  0  0
  -18.1931  -26.7929   22.1628 C   0  0  0  0  0  0
  -19.1543  -28.8853   23.2882 C   0  0  0  0  0  0
  -18.9463  -30.1456   23.8897 C   0  0  0  0  0  0
  -17.6464  -30.6589   24.0562 C   0  0  0  0  0  0
  -25.9051  -34.9443   23.5096 C   0  0  0  0  0  0
  -16.5354  -29.9087   23.6334 C   0  0  0  0  0  0
  -16.7274  -28.6505   23.0353 C   0  0  0  0  0  0
  -26.4497  -31.6591   25.0726 C   0  0  0  0  0  0
  -25.3732  -31.3741   26.1456 C   0  0  0  0  0  0
  -27.0345  -30.3009   24.6208 C   0  0  0  0  0  0
  -27.6048  -32.4335   25.7502 C   0  0  0  0  0  0
  -27.5575  -37.1798   24.8466 C   0  0  0  0  0  0
  -21.4192  -29.3046   22.3674 N   0  0  0  0  0  0
  -26.4287  -37.3769   23.9409 N   0  0  0  0  0  0
  -24.6925  -31.0556   22.0971 N   0  0  0  0  0  0
  -23.4195  -28.8155   23.3021 O   0  0  0  0  0  0
  -28.3392  -26.4285   20.1502 O   0  0  0  0  0  0
  -26.5620  -34.8914   22.4663 O   0  0  0  0  0  0
  -23.5446  -32.1386   23.7318 O   0  0  0  0  0  0
  -28.9328  -20.1079   19.3952 C   0  0  0  0  0  0
  -28.7796  -21.5314   19.3359 C   0  0  0  0  0  0
  -30.1102  -20.3251   21.4603 C   0  0  0  0  0  0
  -29.6390  -19.4546   20.4417 C   0  0  0  0  0  0
  -29.9579  -21.7535   21.4179 C   0  0  0  0  0  0
  -29.3206  -22.4124   20.3159 C   0  0  0  0  0  0
  -30.3591  -22.1355   23.9867 C   0  0  0  0  0  0
  -29.6854  -23.3804   23.4585 C   0  0  0  0  0  0
  -30.4419  -17.0131   21.5904 C   0  0  0  0  0  0
  -29.0836  -16.7039   20.0521 C   0  0  0  0  0  0
  -29.9986  -17.9042   20.4059 C   0  0  0  0  0  0
  -30.5555  -22.5470   22.5443 C   0  0  0  0  0  0
  -30.0464  -24.2700   18.7104 C   0  0  0  0  0  0
  -28.1355  -24.9469   20.2531 C   0  0  0  0  0  0
  -29.4097  -23.9950   20.0847 C   0  0  1  0  0  0
  -29.9115  -15.7962   20.9040 N   0  0  0  0  0  0
  -31.4767  -12.5476   19.1632 H   0  0  0  0  0  0
  -30.3706  -11.4439   19.9336 H   0  0  0  0  0  0
  -29.7831  -11.7446   17.5012 H   0  0  0  0  0  0
  -29.6388  -13.4704   17.7324 H   0  0  0  0  0  0
  -27.8953  -11.2823   18.9066 H   0  0  0  0  0  0
  -27.3751  -12.5289   17.8030 H   0  0  0  0  0  0
  -27.6474  -14.2502   19.4837 H   0  0  0  0  0  0
  -28.7131  -12.1340   21.4182 H   0  0  0  0  0  0
  -28.4292  -13.8117   21.8057 H   0  0  0  0  0  0
  -25.2769   -9.5671   22.4763 H   0  0  0  0  0  0
  -23.9992   -7.4634   22.7470 H   0  0  0  0  0  0
  -21.0845   -8.8783   19.8969 H   0  0  0  0  0  0
  -22.3703  -10.9674   19.6165 H   0  0  0  0  0  0
  -21.2010   -7.6154   23.9722 H   0  0  0  0  0  0
  -21.1483   -6.0525   25.9084 H   0  0  0  0  0  0
  -22.0596   -2.7608   23.2844 H   0  0  0  0  0  0
  -22.4079  -11.9901   22.4819 H   0  0  0  0  0  0
  -21.1089  -13.1264   22.2617 H   0  0  0  0  0  0
  -24.6596  -15.8482   20.5330 H   0  0  0  0  0  0
  -26.2803  -15.6295   20.1068 H   0  0  0  0  0  0
  -26.7192  -32.5424   23.1085 H   0  0  0  0  0  0
  -25.0059  -33.9700   25.0397 H   0  0  0  0  0  0
  -22.7203  -31.3023   21.3998 H   0  0  0  0  0  0
  -23.3745  -35.9627   23.3308 H   0  0  0  0  0  0
  -24.3579  -36.8902   22.2055 H   0  0  0  0  0  0
  -23.7247  -37.6491   23.6664 H   0  0  0  0  0  0
  -26.1039  -31.5416   20.6090 H   0  0  0  0  0  0
  -26.8470  -30.8267   22.0081 H   0  0  0  0  0  0
  -28.1202  -28.9544   21.1886 H   0  0  0  0  0  0
  -25.9527  -25.9297   18.9821 H   0  0  0  0  0  0
  -23.9702  -27.3083   19.0086 H   0  0  0  0  0  0
  -23.7611  -30.5906   19.4042 H   0  0  0  0  0  0
  -22.7591  -29.2442   19.8570 H   0  0  0  0  0  0
  -25.1297  -36.1917   25.0816 H   0  0  0  0  0  0
  -20.9985  -28.3260   24.1403 H   0  0  0  0  0  0
  -20.5670  -26.2293   23.3607 H   0  0  0  0  0  0
  -21.6639  -26.7432   22.1205 H   0  0  0  0  0  0
  -19.6906  -25.6296   21.1237 H   0  0  0  0  0  0
  -19.6687  -27.3193   20.6743 H   0  0  0  0  0  0
  -17.4195  -26.6669   21.4038 H   0  0  0  0  0  0
  -18.0339  -26.0075   22.9031 H   0  0  0  0  0  0
  -19.7938  -30.7269   24.2268 H   0  0  0  0  0  0
  -17.5018  -31.6271   24.5158 H   0  0  0  0  0  0
  -15.5355  -30.2986   23.7659 H   0  0  0  0  0  0
  -15.8675  -28.0822   22.7072 H   0  0  0  0  0  0
  -24.5900  -30.7091   25.7791 H   0  0  0  0  0  0
  -24.8936  -32.2914   26.4879 H   0  0  0  0  0  0
  -25.8058  -30.8922   27.0232 H   0  0  0  0  0  0
  -26.2928  -29.6756   24.1221 H   0  0  0  0  0  0
  -27.4015  -29.7268   25.4727 H   0  0  0  0  0  0
  -27.8811  -30.4282   23.9458 H   0  0  0  0  0  0
  -27.2645  -33.3631   26.2075 H   0  0  0  0  0  0
  -28.3862  -32.6901   25.0337 H   0  0  0  0  0  0
  -28.0715  -31.8469   26.5423 H   0  0  0  0  0  0
  -28.2595  -38.0090   24.7499 H   0  0  0  0  0  0
  -28.1063  -36.2618   24.6306 H   0  0  0  0  0  0
  -27.2292  -37.1465   25.8868 H   0  0  0  0  0  0
  -20.9366  -29.8771   21.6886 H   0  0  0  0  0  0
  -26.0164  -38.2841   24.1411 H   0  0  0  0  0  0
  -28.5429  -19.5143   18.5802 H   0  0  0  0  0  0
  -28.2872  -21.9532   18.4704 H   0  0  0  0  0  0
  -30.6572  -19.8900   22.2859 H   0  0  0  0  0  0
  -29.7220  -21.2787   24.1966 H   0  0  0  0  0  0
  -31.1929  -22.2800   24.6718 H   0  0  0  0  0  0
  -30.0767  -24.3367   23.8006 H   0  0  0  0  0  0
  -28.6076  -23.3409   23.3127 H   0  0  0  0  0  0
  -29.9086  -17.2422   22.5145 H   0  0  0  0  0  0
  -31.5191  -17.0254   21.7616 H   0  0  0  0  0  0
  -29.0761  -16.4693   18.9860 H   0  0  0  0  0  0
  -28.0664  -16.8244   20.4273 H   0  0  0  0  0  0
  -30.8207  -17.8793   19.6879 H   0  0  0  0  0  0
  -31.5295  -22.9464   22.2651 H   0  0  0  0  0  0
  -30.9909  -23.7377   18.5994 H   0  0  0  0  0  0
  -30.2565  -25.3316   18.5779 H   0  0  0  0  0  0
  -29.3941  -23.9620   17.8930 H   0  0  0  0  0  0
  -27.6947  -24.7568   21.2321 H   0  0  0  0  0  0
  -27.4099  -24.5971   19.5236 H   0  0  0  0  0  0
  -30.1341  -24.3724   20.8040 H   0  0  0  0  0  0
  1 25  1  0  0  0
  1 30  2  0  0  0
  1 86  1  0  0  0
  2  3  1  0  0  0
  2 25  1  0  0  0
  2 87  1  0  0  0
  2 88  1  0  0  0
  3  4  1  0  0  0
  3 89  1  0  0  0
  3 90  1  0  0  0
  4  5  1  0  0  0
  4 91  1  0  0  0
  4 92  1  0  0  0
  5  6  1  0  0  0
  5 26  1  0  0  0
  5 93  1  0  0  0
  6 25  1  0  0  0
  6 94  1  0  0  0
  6 95  1  0  0  0
  7  8  2  0  0  0
  7 26  1  0  0  0
  7 29  1  0  0  0
  8  9  1  0  0  0
  8 22  1  0  0  0
  9 10  1  0  0  0
  9 27  2  0  0  0
 10 11  2  0  0  0
 10 15  1  0  0  0
 11 12  1  0  0  0
 11 96  1  0  0  0
 12 13  2  0  0  0
 12 97  1  0  0  0
 13 14  1  0  0  0
 13 31  1  0  0  0
 14 15  2  0  0  0
 14 98  1  0  0  0
 15 99  1  0  0  0
 16 17  2  0  0  0
 16 21  1  0  0  0
 16 31  1  0  0  0
 17 18  1  0  0  0
 17100  1  0  0  0
 18 19  2  0  0  0
 18101  1  0  0  0
 19 20  1  0  0  0
 19 24  1  0  0  0
 20 21  2  0  0  0
 20102  1  0  0  0
 21 23  1  0  0  0
 22 28  1  0  0  0
 22 32  2  0  0  0
 26 27  1  0  0  0
 28103  1  0  0  0
 28104  1  0  0  0
 29105  1  0  0  0
 29106  1  0  0  0
 33 34  1  0  0  0
 33 66  1  0  0  0
 33 70  2  0  0  0
 34 36  1  0  0  0
 34 59  1  0  0  0
 34107  1  0  0  0
 35 44  2  0  0  0
 35 45  1  0  0  0
 35 68  1  0  0  0
 36 56  1  0  0  0
 36108  1  0  0  0
 37 39  1  0  0  0
 37 47  1  0  0  0
 37 66  1  0  0  0
 37109  1  0  0  0
 38 43  2  0  0  0
 38 46  1  0  0  0
 38 47  1  0  0  0
 39 64  1  0  0  0
 39 67  2  0  0  0
 40 52  1  0  0  0
 40 53  2  0  0  0
 40 58  1  0  0  0
 41110  1  0  0  0
 41111  1  0  0  0
 41112  1  0  0  0
 41 48  1  0  0  0
 42 43  1  0  0  0
 42 66  1  0  0  0
 42113  1  0  0  0
 42114  1  0  0  0
 43 44  1  0  0  0
 44115  1  0  0  0
 45 46  2  0  0  0
 45116  1  0  0  0
 46117  1  0  0  0
 47118  1  0  0  0
 47119  1  0  0  0
 48 56  1  0  0  0
 48 65  1  0  0  0
 48120  1  0  0  0
 49 50  1  0  0  0
 49 53  1  0  0  0
 49 64  1  0  0  0
 49121  1  0  0  0
 50 51  1  0  0  0
 50122  1  0  0  0
 50123  1  0  0  0
 51 52  1  0  0  0
 51124  1  0  0  0
 51125  1  0  0  0
 52126  1  0  0  0
 52127  1  0  0  0
 53 54  1  0  0  0
 54 55  2  0  0  0
 54128  1  0  0  0
 55 57  1  0  0  0
 55129  1  0  0  0
 56 69  2  0  0  0
 57 58  2  0  0  0
 57130  1  0  0  0
 58131  1  0  0  0
 59 60  1  0  0  0
 59 61  1  0  0  0
 59 62  1  0  0  0
 60132  1  0  0  0
 60133  1  0  0  0
 60134  1  0  0  0
 61135  1  0  0  0
 61136  1  0  0  0
 61137  1  0  0  0
 62138  1  0  0  0
 62139  1  0  0  0
 62140  1  0  0  0
 63 65  1  0  0  0
 63141  1  0  0  0
 63142  1  0  0  0
 63143  1  0  0  0
 64144  1  0  0  0
 65145  1  0  0  0
 68 84  1  0  0  0
 71 72  2  0  0  0
 71 74  1  0  0  0
 71146  1  0  0  0
 72 76  1  0  0  0
 72147  1  0  0  0
 73 74  2  0  0  0
 73 75  1  0  0  0
 73148  1  0  0  0
 74 81  1  0  0  0
 75 76  2  0  0  0
 75 82  1  0  0  0
 76 85  1  0  0  0
 77 78  1  0  0  0
 77 82  1  0  0  0
 77149  1  0  0  0
 77150  1  0  0  0
 78 82  1  0  0  0
 78151  1  0  0  0
 78152  1  0  0  0
 79 81  1  0  0  0
 79 86  1  0  0  0
 79153  1  0  0  0
 79154  1  0  0  0
 80 81  1  0  0  0
 80 86  1  0  0  0
 80155  1  0  0  0
 80156  1  0  0  0
 81157  1  0  0  0
 82158  1  0  0  0
 83159  1  0  0  0
 83160  1  0  0  0
 83161  1  0  0  0
 83 85  1  0  0  0
 84 85  1  0  0  0
 84162  1  0  0  0
 84163  1  0  0  0
 85164  1  0  0  0
M  ISO  4   1 100  68 101  84 101  86 100
M  END
> <chiral flag>
0

> <version>
0

> <s_m_source_file>
/data/baiqing/PycharmProjects/Reinvent-master-3.2/result/LINK_invent/BTK/process_docking_weight1_custom_sum_contain_oxygen_bond_distance_aromatic_linkinvent_7_9_3/rearranged_h_0170.sdf

> <i_m_source_file_index>
59

> <r_mmod_Potential_Energy-OPLS-2005>
234.747909545898

> <r_mmod_Stretch_Energy-OPLS-2005>
98.2921600341797

> <r_mmod_Bend_Energy-OPLS-2005>
157.755935668945

> <r_mmod_Torsional_Energy-OPLS-2005>
311.426086425781

> <r_mmod_Improper_Torsional_Energy-OPLS-2005>
9.77692890167236

> <r_mmod_Van_der_Waal_Energy-OPLS-2005>
131.876678466797

> <r_mmod_Electrostatic_Energy-OPLS-2005>
-341.389282226562

> <r_mmod_Solvation_Energy-OPLS-2005>
-197.084609985352

> <b_mmod_Minimization_Converged-OPLS-2005>
0

> <r_mmod_RMS_Derivative-OPLS-2005>
1.84577691555023

$$$$
60
                    3D
 Structure written by MMmdl.
168178  0  0  1  0            999 V2000
  -30.5357  -15.0324   20.4185 C   0  0  0  0  0  0
  -30.4357  -12.6560   19.4939 C   0  0  0  0  0  0
  -29.5146  -12.5434   18.2569 C   0  0  0  0  0  0
  -28.0557  -12.2993   18.6875 C   0  0  0  0  0  0
  -27.6208  -13.2415   19.8384 C   0  0  2  0  0  0
  -28.6708  -13.2971   20.9685 C   0  0  0  0  0  0
  -25.2409  -13.8170   20.5747 C   0  0  0  0  0  0
  -24.1736  -13.0399   20.9249 C   0  0  0  0  0  0
  -24.6364  -11.6893   20.8785 C   0  0  0  0  0  0
  -23.9058  -10.4270   21.0420 C   0  0  0  0  0  0
  -24.3614   -9.4187   21.9196 C   0  0  0  0  0  0
  -23.6289   -8.2224   22.0760 C   0  0  0  0  0  0
  -22.4279   -8.0266   21.3540 C   0  0  0  0  0  0
  -21.9905   -9.0243   20.4648 C   0  0  0  0  0  0
  -22.7237  -10.2115   20.3061 C   0  0  0  0  0  0
  -21.6839   -6.0735   22.5283 C   0  0  0  0  0  0
  -21.4000   -6.5640   23.8218 C   0  0  0  0  0  0
  -21.3662   -5.6793   24.9180 C   0  0  0  0  0  0
  -21.6040   -4.3054   24.7225 C   0  0  0  0  0  0
  -21.8824   -3.8149   23.4347 C   0  0  0  0  0  0
  -21.9195   -4.6965   22.3404 C   0  0  0  0  0  0
  -22.7760  -13.5174   21.1902 C   0  0  0  0  0  0
  -22.1666   -4.2148   21.0979 F   0  0  0  0  0  0
  -21.5633   -3.4542   25.7740 F   0  0  0  0  0  0
  -29.9176  -13.7716   20.3497 N   0  0  0  0  0  0
  -26.2839  -12.9399   20.3296 N   0  0  0  0  0  0
  -25.9290  -11.6535   20.5776 N   0  0  0  0  0  0
  -22.0416  -12.8162   22.0462 N   0  0  0  0  0  0
  -25.3997  -15.1897   20.4193 N   0  0  0  0  0  0
  -31.7538  -15.0252   20.1946 O   0  0  0  0  0  0
  -21.6632   -6.8873   21.4241 O   0  0  0  0  0  0
  -22.3442  -14.5477   20.6747 O   0  0  0  0  0  0
  -24.6446  -31.8387   23.1849 C   0  0  0  0  0  0
  -25.9195  -32.4675   23.8255 C   0  0  1  0  0  0
  -27.2144  -27.1006   20.1521 C   0  0  0  0  0  0
  -25.5931  -33.8485   24.2167 N   0  0  0  0  0  0
  -23.4524  -30.4575   21.5282 C   0  0  2  0  0  0
  -24.9035  -28.8807   20.1061 C   0  0  0  0  0  0
  -22.7582  -29.4509   22.4809 C   0  0  0  0  0  0
  -18.0311  -28.1392   22.8487 C   0  0  0  0  0  0
  -24.1475  -36.7225   23.2650 C   0  0  0  0  0  0
  -26.0105  -30.7014   21.3910 C   0  0  0  0  0  0
  -26.0799  -29.3100   20.7326 C   0  0  0  0  0  0
  -27.2354  -28.4351   20.7385 C   0  0  0  0  0  0
  -26.0153  -26.7883   19.4739 C   0  0  0  0  0  0
  -24.8858  -27.6364   19.4606 C   0  0  0  0  0  0
  -23.6814  -29.7863   20.1476 C   0  0  0  0  0  0
  -25.4118  -36.3017   24.0314 C   0  0  1  0  0  0
  -20.5926  -28.3707   23.1217 C   0  0  2  0  0  0
  -20.6773  -26.9401   22.5403 C   0  0  0  0  0  0
  -19.5752  -26.6369   21.5204 C   0  0  0  0  0  0
  -18.1938  -26.7939   22.1616 C   0  0  0  0  0  0
  -19.1571  -28.8869   23.2849 C   0  0  0  0  0  0
  -18.9491  -30.1460   23.8878 C   0  0  0  0  0  0
  -17.6486  -30.6595   24.0554 C   0  0  0  0  0  0
  -25.9066  -34.9394   23.5059 C   0  0  0  0  0  0
  -16.5370  -29.9090   23.6342 C   0  0  0  0  0  0
  -16.7292  -28.6500   23.0382 C   0  0  0  0  0  0
  -26.4516  -31.6564   25.0707 C   0  0  0  0  0  0
  -25.3696  -31.3774   26.1393 C   0  0  0  0  0  0
  -27.0380  -30.2953   24.6317 C   0  0  0  0  0  0
  -27.6038  -32.4347   25.7493 C   0  0  0  0  0  0
  -27.5566  -37.1772   24.8471 C   0  0  0  0  0  0
  -21.4264  -29.3027   22.3581 N   0  0  0  0  0  0
  -26.4274  -37.3737   23.9419 N   0  0  0  0  0  0
  -24.7221  -31.0225   22.0891 N   0  0  0  0  0  0
  -23.4210  -28.8051   23.2963 O   0  0  0  0  0  0
  -28.2471  -26.0856   20.2530 O   0  0  0  0  0  0
  -26.5671  -34.8902   22.4649 O   0  0  0  0  0  0
  -23.5562  -32.1242   23.7066 O   0  0  0  0  0  0
  -30.2705  -20.9174   21.6227 C   0  0  0  0  0  0
  -29.3740  -20.5854   20.5934 C   0  0  0  0  0  0
  -29.8782  -23.3812   21.4503 C   0  0  0  0  0  0
  -28.6572  -21.7847   20.0505 C   0  0  0  0  0  0
  -28.8686  -23.2183   20.4613 C   0  0  0  0  0  0
  -30.5103  -22.2527   22.0575 C   0  0  0  0  0  0
  -30.9756  -25.7253   20.9496 C   0  0  0  0  0  0
  -31.7306  -25.1705   22.1214 C   0  0  0  0  0  0
  -28.1653  -18.1449   20.9574 C   0  0  0  0  0  0
  -28.4085  -16.6074   20.6815 C   0  0  0  0  0  0
  -30.3892  -17.7735   20.3857 C   0  0  0  0  0  0
  -29.2372  -18.9560   20.2153 C   0  0  2  0  0  0
  -30.2805  -24.7679   21.9005 C   0  0  0  0  0  0
  -27.5984  -21.5029   18.9975 C   0  0  0  0  0  0
  -31.9198  -21.4529   23.8570 C   0  0  0  0  0  0
  -28.0098  -24.5623   19.9358 C   0  0  0  0  0  0
  -29.8460  -16.3112   20.4934 N   0  0  0  0  0  0
  -31.3692  -22.5252   23.1035 O   0  0  0  0  0  0
  -31.4624  -12.8297   19.1676 H   0  0  0  0  0  0
  -30.4603  -11.7157   20.0470 H   0  0  0  0  0  0
  -29.8533  -11.7402   17.6005 H   0  0  0  0  0  0
  -29.5751  -13.4644   17.6742 H   0  0  0  0  0  0
  -27.9811  -11.2625   19.0185 H   0  0  0  0  0  0
  -27.3825  -12.3970   17.8358 H   0  0  0  0  0  0
  -27.5651  -14.2261   19.3813 H   0  0  0  0  0  0
  -28.7986  -12.3136   21.4226 H   0  0  0  0  0  0
  -28.3584  -13.9489   21.7818 H   0  0  0  0  0  0
  -25.2750   -9.5666   22.4786 H   0  0  0  0  0  0
  -24.0005   -7.4598   22.7465 H   0  0  0  0  0  0
  -21.0843   -8.8754   19.8941 H   0  0  0  0  0  0
  -22.3697  -10.9661   19.6178 H   0  0  0  0  0  0
  -21.1981   -7.6148   23.9716 H   0  0  0  0  0  0
  -21.1478   -6.0525   25.9080 H   0  0  0  0  0  0
  -22.0601   -2.7611   23.2846 H   0  0  0  0  0  0
  -22.4032  -11.9817   22.4838 H   0  0  0  0  0  0
  -21.1035  -13.1181   22.2678 H   0  0  0  0  0  0
  -24.6308  -15.8386   20.5461 H   0  0  0  0  0  0
  -26.2542  -15.6416   20.1248 H   0  0  0  0  0  0
  -26.7250  -32.5261   23.0976 H   0  0  0  0  0  0
  -25.0049  -33.9598   25.0299 H   0  0  0  0  0  0
  -22.7566  -31.2846   21.3725 H   0  0  0  0  0  0
  -23.3756  -35.9535   23.3294 H   0  0  0  0  0  0
  -24.3567  -36.8872   22.2069 H   0  0  0  0  0  0
  -23.7201  -37.6407   23.6692 H   0  0  0  0  0  0
  -26.1756  -31.4521   20.6172 H   0  0  0  0  0  0
  -26.8779  -30.7503   22.0372 H   0  0  0  0  0  0
  -28.1298  -28.7555   21.2543 H   0  0  0  0  0  0
  -25.9133  -25.8400   18.9689 H   0  0  0  0  0  0
  -23.9899  -27.3099   18.9501 H   0  0  0  0  0  0
  -23.8210  -30.5574   19.3884 H   0  0  0  0  0  0
  -22.7956  -29.2279   19.8386 H   0  0  0  0  0  0
  -25.1316  -36.1830   25.0803 H   0  0  0  0  0  0
  -21.0040  -28.3284   24.1323 H   0  0  0  0  0  0
  -20.5626  -26.2319   23.3624 H   0  0  0  0  0  0
  -21.6643  -26.7372   22.1218 H   0  0  0  0  0  0
  -19.6899  -25.6276   21.1246 H   0  0  0  0  0  0
  -19.6696  -27.3173   20.6733 H   0  0  0  0  0  0
  -17.4202  -26.6683   21.4022 H   0  0  0  0  0  0
  -18.0328  -26.0103   22.9027 H   0  0  0  0  0  0
  -19.7966  -30.7283   24.2239 H   0  0  0  0  0  0
  -17.5045  -31.6283   24.5148 H   0  0  0  0  0  0
  -15.5369  -30.2990   23.7687 H   0  0  0  0  0  0
  -15.8684  -28.0801   22.7131 H   0  0  0  0  0  0
  -24.5920  -30.7057   25.7730 H   0  0  0  0  0  0
  -24.8830  -32.2959   26.4683 H   0  0  0  0  0  0
  -25.7981  -30.9065   27.0246 H   0  0  0  0  0  0
  -26.2995  -29.6684   24.1307 H   0  0  0  0  0  0
  -27.3957  -29.7247   25.4896 H   0  0  0  0  0  0
  -27.8918  -30.4184   23.9657 H   0  0  0  0  0  0
  -27.2625  -33.3698   26.1948 H   0  0  0  0  0  0
  -28.3910  -32.6824   25.0357 H   0  0  0  0  0  0
  -28.0620  -31.8542   26.5509 H   0  0  0  0  0  0
  -28.2577  -38.0074   24.7542 H   0  0  0  0  0  0
  -28.1067  -36.2614   24.6274 H   0  0  0  0  0  0
  -27.2295  -37.1390   25.8875 H   0  0  0  0  0  0
  -20.9458  -29.8747   21.6774 H   0  0  0  0  0  0
  -26.0125  -38.2784   24.1474 H   0  0  0  0  0  0
  -30.7846  -20.0931   22.0915 H   0  0  0  0  0  0
  -31.2268  -25.3516   19.9588 H   0  0  0  0  0  0
  -30.7092  -26.7798   20.9971 H   0  0  0  0  0  0
  -31.9492  -25.8597   22.9349 H   0  0  0  0  0  0
  -32.5202  -24.4576   21.8931 H   0  0  0  0  0  0
  -28.2656  -18.3286   22.0277 H   0  0  0  0  0  0
  -27.1580  -18.4591   20.6808 H   0  0  0  0  0  0
  -27.9004  -16.3478   19.7542 H   0  0  0  0  0  0
  -27.9705  -16.0223   21.4863 H   0  0  0  0  0  0
  -30.9458  -17.9455   21.3072 H   0  0  0  0  0  0
  -31.1192  -17.8421   19.5785 H   0  0  0  0  0  0
  -28.9603  -18.9406   19.1611 H   0  0  0  0  0  0
  -29.5411  -25.1791   22.5863 H   0  0  0  0  0  0
  -27.9748  -20.8154   18.2393 H   0  0  0  0  0  0
  -27.2727  -22.4016   18.4771 H   0  0  0  0  0  0
  -26.7235  -21.0484   19.4629 H   0  0  0  0  0  0
  -32.5893  -20.8412   23.2511 H   0  0  0  0  0  0
  -31.1391  -20.8244   24.2888 H   0  0  0  0  0  0
  -32.5048  -21.8617   24.6814 H   0  0  0  0  0  0
  -26.9857  -24.3423   20.2342 H   0  0  0  0  0  0
  -28.0161  -24.5078   18.8475 H   0  0  0  0  0  0
  1 25  1  0  0  0
  1 30  2  0  0  0
  1 87  1  0  0  0
  2  3  1  0  0  0
  2 25  1  0  0  0
  2 89  1  0  0  0
  2 90  1  0  0  0
  3  4  1  0  0  0
  3 91  1  0  0  0
  3 92  1  0  0  0
  4  5  1  0  0  0
  4 93  1  0  0  0
  4 94  1  0  0  0
  5  6  1  0  0  0
  5 26  1  0  0  0
  5 95  1  0  0  0
  6 25  1  0  0  0
  6 96  1  0  0  0
  6 97  1  0  0  0
  7  8  2  0  0  0
  7 26  1  0  0  0
  7 29  1  0  0  0
  8  9  1  0  0  0
  8 22  1  0  0  0
  9 10  1  0  0  0
  9 27  2  0  0  0
 10 11  2  0  0  0
 10 15  1  0  0  0
 11 12  1  0  0  0
 11 98  1  0  0  0
 12 13  2  0  0  0
 12 99  1  0  0  0
 13 14  1  0  0  0
 13 31  1  0  0  0
 14 15  2  0  0  0
 14100  1  0  0  0
 15101  1  0  0  0
 16 17  2  0  0  0
 16 21  1  0  0  0
 16 31  1  0  0  0
 17 18  1  0  0  0
 17102  1  0  0  0
 18 19  2  0  0  0
 18103  1  0  0  0
 19 20  1  0  0  0
 19 24  1  0  0  0
 20 21  2  0  0  0
 20104  1  0  0  0
 21 23  1  0  0  0
 22 28  1  0  0  0
 22 32  2  0  0  0
 26 27  1  0  0  0
 28105  1  0  0  0
 28106  1  0  0  0
 29107  1  0  0  0
 29108  1  0  0  0
 33 34  1  0  0  0
 33 66  1  0  0  0
 33 70  2  0  0  0
 34 36  1  0  0  0
 34 59  1  0  0  0
 34109  1  0  0  0
 35 44  2  0  0  0
 35 45  1  0  0  0
 35 68  1  0  0  0
 36 56  1  0  0  0
 36110  1  0  0  0
 37 39  1  0  0  0
 37 47  1  0  0  0
 37 66  1  0  0  0
 37111  1  0  0  0
 38 43  2  0  0  0
 38 46  1  0  0  0
 38 47  1  0  0  0
 39 64  1  0  0  0
 39 67  2  0  0  0
 40 52  1  0  0  0
 40 53  2  0  0  0
 40 58  1  0  0  0
 41112  1  0  0  0
 41113  1  0  0  0
 41114  1  0  0  0
 41 48  1  0  0  0
 42 43  1  0  0  0
 42 66  1  0  0  0
 42115  1  0  0  0
 42116  1  0  0  0
 43 44  1  0  0  0
 44117  1  0  0  0
 45 46  2  0  0  0
 45118  1  0  0  0
 46119  1  0  0  0
 47120  1  0  0  0
 47121  1  0  0  0
 48 56  1  0  0  0
 48 65  1  0  0  0
 48122  1  0  0  0
 49 50  1  0  0  0
 49 53  1  0  0  0
 49 64  1  0  0  0
 49123  1  0  0  0
 50 51  1  0  0  0
 50124  1  0  0  0
 50125  1  0  0  0
 51 52  1  0  0  0
 51126  1  0  0  0
 51127  1  0  0  0
 52128  1  0  0  0
 52129  1  0  0  0
 53 54  1  0  0  0
 54 55  2  0  0  0
 54130  1  0  0  0
 55 57  1  0  0  0
 55131  1  0  0  0
 56 69  2  0  0  0
 57 58  2  0  0  0
 57132  1  0  0  0
 58133  1  0  0  0
 59 60  1  0  0  0
 59 61  1  0  0  0
 59 62  1  0  0  0
 60134  1  0  0  0
 60135  1  0  0  0
 60136  1  0  0  0
 61137  1  0  0  0
 61138  1  0  0  0
 61139  1  0  0  0
 62140  1  0  0  0
 62141  1  0  0  0
 62142  1  0  0  0
 63 65  1  0  0  0
 63143  1  0  0  0
 63144  1  0  0  0
 63145  1  0  0  0
 64146  1  0  0  0
 65147  1  0  0  0
 68 86  1  0  0  0
 71 72  2  0  0  0
 71 76  1  0  0  0
 71148  1  0  0  0
 72 74  1  0  0  0
 72 82  1  0  0  0
 73 75  1  0  0  0
 73 76  2  0  0  0
 73 83  1  0  0  0
 74 75  2  0  0  0
 74 84  1  0  0  0
 75 86  1  0  0  0
 76 88  1  0  0  0
 77 78  1  0  0  0
 77 83  1  0  0  0
 77149  1  0  0  0
 77150  1  0  0  0
 78 83  1  0  0  0
 78151  1  0  0  0
 78152  1  0  0  0
 79 80  1  0  0  0
 79 82  1  0  0  0
 79153  1  0  0  0
 79154  1  0  0  0
 80 87  1  0  0  0
 80155  1  0  0  0
 80156  1  0  0  0
 81 82  1  0  0  0
 81 87  1  0  0  0
 81157  1  0  0  0
 81158  1  0  0  0
 82159  1  0  0  0
 83160  1  0  0  0
 84161  1  0  0  0
 84162  1  0  0  0
 84163  1  0  0  0
 85 88  1  0  0  0
 85164  1  0  0  0
 85165  1  0  0  0
 85166  1  0  0  0
 86167  1  0  0  0
 86168  1  0  0  0
M  ISO  4   1 100  68 101  86 101  87 100
M  END
> <chiral flag>
0

> <version>
0

> <s_m_source_file>
/data/baiqing/PycharmProjects/Reinvent-master-3.2/result/LINK_invent/BTK/process_docking_weight1_custom_sum_contain_oxygen_bond_distance_aromatic_linkinvent_7_9_3/rearranged_h_0170.sdf

> <i_m_source_file_index>
60

> <r_mmod_Potential_Energy-OPLS-2005>
831.843872070312

> <r_mmod_Stretch_Energy-OPLS-2005>
300.366790771484

> <r_mmod_Bend_Energy-OPLS-2005>
316.968688964844

> <r_mmod_Torsional_Energy-OPLS-2005>
339.589324951172

> <r_mmod_Improper_Torsional_Energy-OPLS-2005>
5.06590032577515

> <r_mmod_Van_der_Waal_Energy-OPLS-2005>
136.518859863281

> <r_mmod_Electrostatic_Energy-OPLS-2005>
-296.855621337891

> <r_mmod_Solvation_Energy-OPLS-2005>
-210.470977783203

> <b_mmod_Minimization_Converged-OPLS-2005>
0

> <r_mmod_RMS_Derivative-OPLS-2005>
2.02615904808044

$$$$
61
                    3D
 Structure written by MMmdl.
166176  0  0  1  0            999 V2000
  -30.6675  -14.6054   20.4950 C   0  0  0  0  0  0
  -30.4213  -12.3738   19.4524 C   0  0  0  0  0  0
  -29.5010  -12.5060   18.2209 C   0  0  0  0  0  0
  -28.0219  -12.3582   18.6295 C   0  0  0  0  0  0
  -27.6496  -13.2231   19.8646 C   0  0  2  0  0  0
  -28.6949  -13.1001   20.9947 C   0  0  0  0  0  0
  -25.2553  -13.8184   20.5722 C   0  0  0  0  0  0
  -24.1817  -13.0443   20.9180 C   0  0  0  0  0  0
  -24.6391  -11.6917   20.8726 C   0  0  0  0  0  0
  -23.9066  -10.4291   21.0390 C   0  0  0  0  0  0
  -24.3623   -9.4209   21.9165 C   0  0  0  0  0  0
  -23.6305   -8.2241   22.0735 C   0  0  0  0  0  0
  -22.4280   -8.0281   21.3535 C   0  0  0  0  0  0
  -21.9915   -9.0252   20.4637 C   0  0  0  0  0  0
  -22.7234  -10.2130   20.3039 C   0  0  0  0  0  0
  -21.6862   -6.0730   22.5264 C   0  0  0  0  0  0
  -21.4028   -6.5625   23.8201 C   0  0  0  0  0  0
  -21.3666   -5.6772   24.9156 C   0  0  0  0  0  0
  -21.6036   -4.3036   24.7208 C   0  0  0  0  0  0
  -21.8825   -3.8135   23.4335 C   0  0  0  0  0  0
  -21.9200   -4.6957   22.3395 C   0  0  0  0  0  0
  -22.7842  -13.5250   21.1840 C   0  0  0  0  0  0
  -22.1676   -4.2138   21.0976 F   0  0  0  0  0  0
  -21.5624   -3.4537   25.7739 F   0  0  0  0  0  0
  -30.0065  -13.4108   20.4163 N   0  0  0  0  0  0
  -26.2977  -12.9379   20.3337 N   0  0  0  0  0  0
  -25.9321  -11.6527   20.5747 N   0  0  0  0  0  0
  -22.0489  -12.8248   22.0389 N   0  0  0  0  0  0
  -25.4277  -15.1898   20.4219 N   0  0  0  0  0  0
  -31.8595  -14.6887   20.1861 O   0  0  0  0  0  0
  -21.6621   -6.8890   21.4240 O   0  0  0  0  0  0
  -22.3532  -14.5571   20.6699 O   0  0  0  0  0  0
  -24.6274  -31.8623   23.2034 C   0  0  0  0  0  0
  -25.9129  -32.4790   23.8356 C   0  0  1  0  0  0
  -27.2128  -27.3287   20.1168 C   0  0  0  0  0  0
  -25.5934  -33.8581   24.2280 N   0  0  0  0  0  0
  -23.4173  -30.4925   21.5461 C   0  0  2  0  0  0
  -24.8595  -28.9536   20.1097 C   0  0  0  0  0  0
  -22.7466  -29.4671   22.4915 C   0  0  0  0  0  0
  -18.0297  -28.1401   22.8490 C   0  0  0  0  0  0
  -24.1482  -36.7302   23.2638 C   0  0  0  0  0  0
  -25.9597  -30.8010   21.3696 C   0  0  0  0  0  0
  -26.0315  -29.4309   20.7094 C   0  0  0  0  0  0
  -27.2131  -28.6326   20.6986 C   0  0  0  0  0  0
  -26.0097  -26.9012   19.5024 C   0  0  0  0  0  0
  -24.8504  -27.6937   19.4973 C   0  0  0  0  0  0
  -23.6295  -29.8343   20.1592 C   0  0  0  0  0  0
  -25.4103  -36.3086   24.0330 C   0  0  1  0  0  0
  -20.5899  -28.3716   23.1274 C   0  0  2  0  0  0
  -20.6789  -26.9437   22.5412 C   0  0  0  0  0  0
  -19.5758  -26.6399   21.5221 C   0  0  0  0  0  0
  -18.1938  -26.7946   22.1633 C   0  0  0  0  0  0
  -19.1547  -28.8872   23.2886 C   0  0  0  0  0  0
  -18.9469  -30.1467   23.8905 C   0  0  0  0  0  0
  -17.6471  -30.6604   24.0569 C   0  0  0  0  0  0
  -25.9050  -34.9460   23.5107 C   0  0  0  0  0  0
  -16.5364  -29.9109   23.6324 C   0  0  0  0  0  0
  -16.7282  -28.6528   23.0342 C   0  0  0  0  0  0
  -26.4501  -31.6585   25.0719 C   0  0  0  0  0  0
  -25.3724  -31.3759   26.1444 C   0  0  0  0  0  0
  -27.0342  -30.3000   24.6183 C   0  0  0  0  0  0
  -27.6050  -32.4322   25.7502 C   0  0  0  0  0  0
  -27.5575  -37.1807   24.8460 C   0  0  0  0  0  0
  -21.4184  -29.3072   22.3654 N   0  0  0  0  0  0
  -26.4284  -37.3780   23.9420 N   0  0  0  0  0  0
  -24.6877  -31.0668   22.0971 N   0  0  0  0  0  0
  -23.4203  -28.8202   23.2983 O   0  0  0  0  0  0
  -28.3301  -26.4809   20.1716 O   0  0  0  0  0  0
  -26.5620  -34.8934   22.4674 O   0  0  0  0  0  0
  -23.5445  -32.1408   23.7381 O   0  0  0  0  0  0
  -29.2902  -21.3630   20.5310 C   0  0  0  0  0  0
  -29.0448  -20.2312   19.7572 C   0  0  0  0  0  0
  -28.5998  -20.7643   18.5033 C   0  0  0  0  0  0
  -28.6430  -22.1272   18.5470 C   0  0  0  0  0  0
  -28.1709  -20.0494   17.2338 C   0  0  0  0  0  0
  -28.3046  -22.9875   17.3720 C   0  0  0  0  0  0
  -30.1203  -17.9336   19.1128 C   0  0  0  0  0  0
  -29.4656  -18.1277   21.4382 C   0  0  0  0  0  0
  -29.8149  -16.4166   19.0811 C   0  0  0  0  0  0
  -29.3886  -16.5431   21.5475 C   0  0  0  0  0  0
  -28.3222  -22.1448   16.0811 C   0  0  0  0  0  0
  -29.1363  -18.6850   20.0304 C   0  0  0  0  0  0
  -29.2635  -23.9869   20.2283 C   0  0  0  0  0  0
  -28.0892  -25.0315   20.0075 C   0  0  0  0  0  0
  -29.0358  -22.5552   19.8062 N   0  0  0  0  0  0
  -29.8868  -15.7364   20.3931 N   0  0  0  0  0  0
  -27.5693  -20.9438   16.2912 O   0  0  0  0  0  0
  -31.4674  -12.4740   19.1554 H   0  0  0  0  0  0
  -30.3297  -11.3831   19.9004 H   0  0  0  0  0  0
  -29.7596  -11.7520   17.4750 H   0  0  0  0  0  0
  -29.6537  -13.4762   17.7461 H   0  0  0  0  0  0
  -27.8422  -11.3052   18.8490 H   0  0  0  0  0  0
  -27.3743  -12.6076   17.7873 H   0  0  0  0  0  0
  -27.6590  -14.2583   19.5245 H   0  0  0  0  0  0
  -28.6953  -12.0948   21.4214 H   0  0  0  0  0  0
  -28.4577  -13.7823   21.8127 H   0  0  0  0  0  0
  -25.2769   -9.5688   22.4741 H   0  0  0  0  0  0
  -24.0015   -7.4625   22.7450 H   0  0  0  0  0  0
  -21.0841   -8.8769   19.8959 H   0  0  0  0  0  0
  -22.3684  -10.9666   19.6157 H   0  0  0  0  0  0
  -21.2025   -7.6128   23.9719 H   0  0  0  0  0  0
  -21.1487   -6.0481   25.9056 H   0  0  0  0  0  0
  -22.0611   -2.7599   23.2818 H   0  0  0  0  0  0
  -22.4133  -11.9927   22.4791 H   0  0  0  0  0  0
  -21.1104  -13.1271   22.2615 H   0  0  0  0  0  0
  -24.6690  -15.8495   20.5545 H   0  0  0  0  0  0
  -26.2949  -15.6324   20.1468 H   0  0  0  0  0  0
  -26.7207  -32.5465   23.1113 H   0  0  0  0  0  0
  -25.0046  -33.9715   25.0404 H   0  0  0  0  0  0
  -22.7122  -31.3145   21.4078 H   0  0  0  0  0  0
  -23.3740  -35.9638   23.3290 H   0  0  0  0  0  0
  -24.3577  -36.8934   22.2055 H   0  0  0  0  0  0
  -23.7239  -37.6506   23.6665 H   0  0  0  0  0  0
  -26.0870  -31.5677   20.6039 H   0  0  0  0  0  0
  -26.8436  -30.8485   21.9949 H   0  0  0  0  0  0
  -28.1147  -28.9970   21.1713 H   0  0  0  0  0  0
  -25.9158  -25.9367   19.0296 H   0  0  0  0  0  0
  -23.9498  -27.3186   19.0312 H   0  0  0  0  0  0
  -23.7528  -30.6149   19.4077 H   0  0  0  0  0  0
  -22.7479  -29.2685   19.8521 H   0  0  0  0  0  0
  -25.1277  -36.1930   25.0821 H   0  0  0  0  0  0
  -21.0006  -28.3313   24.1389 H   0  0  0  0  0  0
  -20.5710  -26.2330   23.3620 H   0  0  0  0  0  0
  -21.6656  -26.7477   22.1195 H   0  0  0  0  0  0
  -19.6920  -25.6305   21.1264 H   0  0  0  0  0  0
  -19.6691  -27.3198   20.6742 H   0  0  0  0  0  0
  -17.4205  -26.6692   21.4037 H   0  0  0  0  0  0
  -18.0335  -26.0093   22.9039 H   0  0  0  0  0  0
  -19.7947  -30.7282   24.2281 H   0  0  0  0  0  0
  -17.5033  -31.6283   24.5175 H   0  0  0  0  0  0
  -15.5366  -30.3021   23.7644 H   0  0  0  0  0  0
  -15.8684  -28.0864   22.7034 H   0  0  0  0  0  0
  -24.5878  -30.7125   25.7789 H   0  0  0  0  0  0
  -24.8941  -32.2950   26.4843 H   0  0  0  0  0  0
  -25.8034  -30.8954   27.0235 H   0  0  0  0  0  0
  -26.2930  -29.6752   24.1186 H   0  0  0  0  0  0
  -27.4010  -29.7254   25.4704 H   0  0  0  0  0  0
  -27.8810  -30.4273   23.9429 H   0  0  0  0  0  0
  -27.2638  -33.3618   26.2074 H   0  0  0  0  0  0
  -28.3870  -32.6893   25.0342 H   0  0  0  0  0  0
  -28.0704  -31.8448   26.5427 H   0  0  0  0  0  0
  -28.2589  -38.0108   24.7504 H   0  0  0  0  0  0
  -28.1075  -36.2639   24.6269 H   0  0  0  0  0  0
  -27.2307  -37.1445   25.8869 H   0  0  0  0  0  0
  -20.9347  -29.8793   21.6872 H   0  0  0  0  0  0
  -26.0157  -38.2861   24.1411 H   0  0  0  0  0  0
  -29.6410  -21.4298   21.5533 H   0  0  0  0  0  0
  -27.4703  -19.2475   17.4717 H   0  0  0  0  0  0
  -29.0375  -19.5977   16.7528 H   0  0  0  0  0  0
  -28.9857  -23.8342   17.2853 H   0  0  0  0  0  0
  -27.2964  -23.3841   17.4928 H   0  0  0  0  0  0
  -30.0699  -18.2986   18.0929 H   0  0  0  0  0  0
  -31.1505  -18.1090   19.4297 H   0  0  0  0  0  0
  -30.4653  -18.4572   21.7219 H   0  0  0  0  0  0
  -28.7904  -18.5643   22.1765 H   0  0  0  0  0  0
  -30.4773  -15.9401   18.3558 H   0  0  0  0  0  0
  -28.8091  -16.2644   18.6864 H   0  0  0  0  0  0
  -28.3449  -16.2610   21.6883 H   0  0  0  0  0  0
  -29.9002  -16.2268   22.4590 H   0  0  0  0  0  0
  -29.3462  -21.8932   15.8012 H   0  0  0  0  0  0
  -27.8993  -22.7109   15.2508 H   0  0  0  0  0  0
  -28.1322  -18.3314   19.7934 H   0  0  0  0  0  0
  -29.5599  -23.9920   21.2772 H   0  0  0  0  0  0
  -30.1337  -24.3384   19.6732 H   0  0  0  0  0  0
  -27.2679  -24.7356   20.6615 H   0  0  0  0  0  0
  -27.7356  -24.9072   18.9921 H   0  0  0  0  0  0
  1 25  1  0  0  0
  1 30  2  0  0  0
  1 86  1  0  0  0
  2  3  1  0  0  0
  2 25  1  0  0  0
  2 88  1  0  0  0
  2 89  1  0  0  0
  3  4  1  0  0  0
  3 90  1  0  0  0
  3 91  1  0  0  0
  4  5  1  0  0  0
  4 92  1  0  0  0
  4 93  1  0  0  0
  5  6  1  0  0  0
  5 26  1  0  0  0
  5 94  1  0  0  0
  6 25  1  0  0  0
  6 95  1  0  0  0
  6 96  1  0  0  0
  7  8  2  0  0  0
  7 26  1  0  0  0
  7 29  1  0  0  0
  8  9  1  0  0  0
  8 22  1  0  0  0
  9 10  1  0  0  0
  9 27  2  0  0  0
 10 11  2  0  0  0
 10 15  1  0  0  0
 11 12  1  0  0  0
 11 97  1  0  0  0
 12 13  2  0  0  0
 12 98  1  0  0  0
 13 14  1  0  0  0
 13 31  1  0  0  0
 14 15  2  0  0  0
 14 99  1  0  0  0
 15100  1  0  0  0
 16 17  2  0  0  0
 16 21  1  0  0  0
 16 31  1  0  0  0
 17 18  1  0  0  0
 17101  1  0  0  0
 18 19  2  0  0  0
 18102  1  0  0  0
 19 20  1  0  0  0
 19 24  1  0  0  0
 20 21  2  0  0  0
 20103  1  0  0  0
 21 23  1  0  0  0
 22 28  1  0  0  0
 22 32  2  0  0  0
 26 27  1  0  0  0
 28104  1  0  0  0
 28105  1  0  0  0
 29106  1  0  0  0
 29107  1  0  0  0
 33 34  1  0  0  0
 33 66  1  0  0  0
 33 70  2  0  0  0
 34 36  1  0  0  0
 34 59  1  0  0  0
 34108  1  0  0  0
 35 44  2  0  0  0
 35 45  1  0  0  0
 35 68  1  0  0  0
 36 56  1  0  0  0
 36109  1  0  0  0
 37 39  1  0  0  0
 37 47  1  0  0  0
 37 66  1  0  0  0
 37110  1  0  0  0
 38 43  2  0  0  0
 38 46  1  0  0  0
 38 47  1  0  0  0
 39 64  1  0  0  0
 39 67  2  0  0  0
 40 52  1  0  0  0
 40 53  2  0  0  0
 40 58  1  0  0  0
 41111  1  0  0  0
 41112  1  0  0  0
 41113  1  0  0  0
 41 48  1  0  0  0
 42 43  1  0  0  0
 42 66  1  0  0  0
 42114  1  0  0  0
 42115  1  0  0  0
 43 44  1  0  0  0
 44116  1  0  0  0
 45 46  2  0  0  0
 45117  1  0  0  0
 46118  1  0  0  0
 47119  1  0  0  0
 47120  1  0  0  0
 48 56  1  0  0  0
 48 65  1  0  0  0
 48121  1  0  0  0
 49 50  1  0  0  0
 49 53  1  0  0  0
 49 64  1  0  0  0
 49122  1  0  0  0
 50 51  1  0  0  0
 50123  1  0  0  0
 50124  1  0  0  0
 51 52  1  0  0  0
 51125  1  0  0  0
 51126  1  0  0  0
 52127  1  0  0  0
 52128  1  0  0  0
 53 54  1  0  0  0
 54 55  2  0  0  0
 54129  1  0  0  0
 55 57  1  0  0  0
 55130  1  0  0  0
 56 69  2  0  0  0
 57 58  2  0  0  0
 57131  1  0  0  0
 58132  1  0  0  0
 59 60  1  0  0  0
 59 61  1  0  0  0
 59 62  1  0  0  0
 60133  1  0  0  0
 60134  1  0  0  0
 60135  1  0  0  0
 61136  1  0  0  0
 61137  1  0  0  0
 61138  1  0  0  0
 62139  1  0  0  0
 62140  1  0  0  0
 62141  1  0  0  0
 63 65  1  0  0  0
 63142  1  0  0  0
 63143  1  0  0  0
 63144  1  0  0  0
 64145  1  0  0  0
 65146  1  0  0  0
 68 84  1  0  0  0
 71 72  2  0  0  0
 71 85  1  0  0  0
 71147  1  0  0  0
 72 73  1  0  0  0
 72 82  1  0  0  0
 73 74  2  0  0  0
 73 75  1  0  0  0
 74 76  1  0  0  0
 74 85  1  0  0  0
 75 87  1  0  0  0
 75148  1  0  0  0
 75149  1  0  0  0
 76 81  1  0  0  0
 76150  1  0  0  0
 76151  1  0  0  0
 77 79  1  0  0  0
 77 82  1  0  0  0
 77152  1  0  0  0
 77153  1  0  0  0
 78 80  1  0  0  0
 78 82  1  0  0  0
 78154  1  0  0  0
 78155  1  0  0  0
 79 86  1  0  0  0
 79156  1  0  0  0
 79157  1  0  0  0
 80 86  1  0  0  0
 80158  1  0  0  0
 80159  1  0  0  0
 81 87  1  0  0  0
 81160  1  0  0  0
 81161  1  0  0  0
 82162  1  0  0  0
 83 84  1  0  0  0
 83 85  1  0  0  0
 83163  1  0  0  0
 83164  1  0  0  0
 84165  1  0  0  0
 84166  1  0  0  0
M  ISO  4   1 100  68 101  84 101  86 100
M  END
> <chiral flag>
0

> <version>
0

> <s_m_source_file>
/data/baiqing/PycharmProjects/Reinvent-master-3.2/result/LINK_invent/BTK/process_docking_weight1_custom_sum_contain_oxygen_bond_distance_aromatic_linkinvent_7_9_3/rearranged_h_0170.sdf

> <i_m_source_file_index>
61

> <r_mmod_Potential_Energy-OPLS-2005>
321.710784912109

> <r_mmod_Stretch_Energy-OPLS-2005>
77.4413223266602

> <r_mmod_Bend_Energy-OPLS-2005>
163.459747314453

> <r_mmod_Torsional_Energy-OPLS-2005>
352.428436279297

> <r_mmod_Improper_Torsional_Energy-OPLS-2005>
18.2743129730225

> <r_mmod_Van_der_Waal_Energy-OPLS-2005>
135.706481933594

> <r_mmod_Electrostatic_Energy-OPLS-2005>
-258.596130371094

> <r_mmod_Solvation_Energy-OPLS-2005>
-212.09538269043

> <b_mmod_Minimization_Converged-OPLS-2005>
0

> <r_mmod_RMS_Derivative-OPLS-2005>
2.59238719940186

$$$$
62
                    3D
 Structure written by MMmdl.
164174  0  0  1  0            999 V2000
  -30.6263  -14.7987   20.4385 C   0  0  0  0  0  0
  -30.4257  -12.4886   19.4809 C   0  0  0  0  0  0
  -29.5062  -12.5105   18.2421 C   0  0  0  0  0  0
  -28.0359  -12.3262   18.6621 C   0  0  0  0  0  0
  -27.6379  -13.2427   19.8500 C   0  0  2  0  0  0
  -28.6858  -13.2211   20.9830 C   0  0  0  0  0  0
  -25.2485  -13.8249   20.5708 C   0  0  0  0  0  0
  -24.1792  -13.0486   20.9218 C   0  0  0  0  0  0
  -24.6411  -11.6958   20.8797 C   0  0  0  0  0  0
  -23.9122  -10.4319   21.0439 C   0  0  0  0  0  0
  -24.3667   -9.4224   21.9208 C   0  0  0  0  0  0
  -23.6318   -8.2278   22.0785 C   0  0  0  0  0  0
  -22.4293   -8.0340   21.3577 C   0  0  0  0  0  0
  -21.9956   -9.0321   20.4668 C   0  0  0  0  0  0
  -22.7305  -10.2175   20.3073 C   0  0  0  0  0  0
  -21.6861   -6.0771   22.5290 C   0  0  0  0  0  0
  -21.4011   -6.5670   23.8229 C   0  0  0  0  0  0
  -21.3648   -5.6808   24.9182 C   0  0  0  0  0  0
  -21.6047   -4.3066   24.7211 C   0  0  0  0  0  0
  -21.8829   -3.8177   23.4327 C   0  0  0  0  0  0
  -21.9201   -4.7012   22.3390 C   0  0  0  0  0  0
  -22.7807  -13.5252   21.1852 C   0  0  0  0  0  0
  -22.1661   -4.2193   21.0962 F   0  0  0  0  0  0
  -21.5605   -3.4537   25.7713 F   0  0  0  0  0  0
  -29.9802  -13.5767   20.3890 N   0  0  0  0  0  0
  -26.2929  -12.9473   20.3328 N   0  0  0  0  0  0
  -25.9344  -11.6614   20.5833 N   0  0  0  0  0  0
  -22.0436  -12.8279   22.0400 N   0  0  0  0  0  0
  -25.4138  -15.1973   20.4046 N   0  0  0  0  0  0
  -31.8187  -14.8475   20.1187 O   0  0  0  0  0  0
  -21.6659   -6.8934   21.4262 O   0  0  0  0  0  0
  -22.3512  -14.5548   20.6639 O   0  0  0  0  0  0
  -24.6392  -31.8490   23.1890 C   0  0  0  0  0  0
  -25.9191  -32.4688   23.8278 C   0  0  1  0  0  0
  -27.1884  -27.1792   20.1426 C   0  0  0  0  0  0
  -25.5956  -33.8501   24.2182 N   0  0  0  0  0  0
  -23.4344  -30.4743   21.5357 C   0  0  2  0  0  0
  -24.8763  -28.9130   20.1029 C   0  0  0  0  0  0
  -22.7509  -29.4585   22.4857 C   0  0  0  0  0  0
  -18.0291  -28.1395   22.8430 C   0  0  0  0  0  0
  -24.1503  -36.7273   23.2645 C   0  0  0  0  0  0
  -25.9902  -30.7363   21.3808 C   0  0  0  0  0  0
  -26.0546  -29.3546   20.7187 C   0  0  0  0  0  0
  -27.2143  -28.5011   20.7265 C   0  0  0  0  0  0
  -25.9951  -26.8384   19.4662 C   0  0  0  0  0  0
  -24.8572  -27.6679   19.4614 C   0  0  0  0  0  0
  -23.6520  -29.8098   20.1514 C   0  0  0  0  0  0
  -25.4134  -36.3036   24.0310 C   0  0  1  0  0  0
  -20.5896  -28.3697   23.1221 C   0  0  2  0  0  0
  -20.6782  -26.9402   22.5381 C   0  0  0  0  0  0
  -19.5780  -26.6375   21.5162 C   0  0  0  0  0  0
  -18.1951  -26.7923   22.1577 C   0  0  0  0  0  0
  -19.1547  -28.8857   23.2825 C   0  0  0  0  0  0
  -18.9485  -30.1455   23.8833 C   0  0  0  0  0  0
  -17.6496  -30.6582   24.0537 C   0  0  0  0  0  0
  -25.9085  -34.9400   23.5062 C   0  0  0  0  0  0
  -16.5374  -29.9077   23.6353 C   0  0  0  0  0  0
  -16.7278  -28.6515   23.0330 C   0  0  0  0  0  0
  -26.4523  -31.6536   25.0698 C   0  0  0  0  0  0
  -25.3703  -31.3712   26.1376 C   0  0  0  0  0  0
  -27.0393  -30.2942   24.6253 C   0  0  0  0  0  0
  -27.6058  -32.4304   25.7478 C   0  0  0  0  0  0
  -27.5577  -37.1786   24.8467 C   0  0  0  0  0  0
  -21.4207  -29.3048   22.3598 N   0  0  0  0  0  0
  -26.4303  -37.3745   23.9386 N   0  0  0  0  0  0
  -24.7075  -31.0408   22.0885 N   0  0  0  0  0  0
  -23.4186  -28.8118   23.2973 O   0  0  0  0  0  0
  -28.2305  -26.2041   20.2465 O   0  0  0  0  0  0
  -26.5689  -34.8893   22.4650 O   0  0  0  0  0  0
  -23.5523  -32.1376   23.7124 O   0  0  0  0  0  0
  -27.4602  -21.2223   22.3814 C   0  0  0  0  0  0
  -28.2990  -20.6417   21.4006 C   0  0  0  0  0  0
  -28.5701  -19.1586   21.5382 C   0  0  0  0  0  0
  -27.9063  -18.4758   22.6371 C   0  0  0  0  0  0
  -27.1921  -19.1841   23.6392 C   0  0  0  0  0  0
  -26.9654  -20.5496   23.4913 C   0  0  0  0  0  0
  -29.8675  -22.6815   20.2801 C   0  0  0  0  0  0
  -30.6050  -17.2168   21.3013 C   0  0  0  0  0  0
  -29.1868  -16.9004   19.8322 C   0  0  0  0  0  0
  -28.6116  -21.8402   20.3666 C   0  0  2  0  0  0
  -29.5407  -18.1911   20.6736 C   0  0  0  0  0  0
  -28.6470  -23.4403   20.7708 C   0  0  2  0  0  0
  -27.8866  -16.9435   22.7864 C   0  0  0  0  0  0
  -26.6259  -18.5120   24.8889 C   0  0  0  0  0  0
  -27.9282  -24.7109   20.0414 C   0  0  0  0  0  0
  -29.9433  -15.9814   20.7564 N   0  0  0  0  0  0
  -26.2323  -21.2317   24.4058 F   0  0  0  0  0  0
  -31.4662  -12.6010   19.1713 H   0  0  0  0  0  0
  -30.3721  -11.5210   19.9817 H   0  0  0  0  0  0
  -29.7974  -11.7271   17.5407 H   0  0  0  0  0  0
  -29.6244  -13.4578   17.7114 H   0  0  0  0  0  0
  -27.9029  -11.2812   18.9453 H   0  0  0  0  0  0
  -27.3749  -12.4977   17.8097 H   0  0  0  0  0  0
  -27.6221  -14.2577   19.4547 H   0  0  0  0  0  0
  -28.7408  -12.2368   21.4499 H   0  0  0  0  0  0
  -28.4133  -13.9261   21.7731 H   0  0  0  0  0  0
  -25.2822   -9.5690   22.4767 H   0  0  0  0  0  0
  -24.0022   -7.4684   22.7516 H   0  0  0  0  0  0
  -21.0887   -8.8890   19.8957 H   0  0  0  0  0  0
  -22.3824  -10.9738   19.6165 H   0  0  0  0  0  0
  -21.2006   -7.6171   23.9734 H   0  0  0  0  0  0
  -21.1439   -6.0530   25.9081 H   0  0  0  0  0  0
  -22.0608   -2.7644   23.2814 H   0  0  0  0  0  0
  -22.4012  -11.9933   22.4803 H   0  0  0  0  0  0
  -21.1043  -13.1309   22.2557 H   0  0  0  0  0  0
  -24.6441  -15.8469   20.5228 H   0  0  0  0  0  0
  -26.2669  -15.6433   20.0986 H   0  0  0  0  0  0
  -26.7222  -32.5279   23.0975 H   0  0  0  0  0  0
  -25.0036  -33.9623   25.0279 H   0  0  0  0  0  0
  -22.7338  -31.2980   21.3845 H   0  0  0  0  0  0
  -23.3759  -35.9616   23.3311 H   0  0  0  0  0  0
  -24.3612  -36.8911   22.2066 H   0  0  0  0  0  0
  -23.7256  -37.6466   23.6686 H   0  0  0  0  0  0
  -26.1517  -31.4909   20.6105 H   0  0  0  0  0  0
  -26.8595  -30.7761   22.0235 H   0  0  0  0  0  0
  -28.1093  -28.8259   21.2377 H   0  0  0  0  0  0
  -25.8939  -25.8915   18.9555 H   0  0  0  0  0  0
  -23.9580  -27.3245   18.9687 H   0  0  0  0  0  0
  -23.7687  -30.5844   19.3917 H   0  0  0  0  0  0
  -22.7657  -29.2494   19.8495 H   0  0  0  0  0  0
  -25.1304  -36.1874   25.0804 H   0  0  0  0  0  0
  -20.9993  -28.3281   24.1342 H   0  0  0  0  0  0
  -20.5651  -26.2296   23.3589 H   0  0  0  0  0  0
  -21.6655  -26.7407   22.1189 H   0  0  0  0  0  0
  -19.6966  -25.6277   21.1209 H   0  0  0  0  0  0
  -19.6749  -27.3162   20.6667 H   0  0  0  0  0  0
  -17.4217  -26.6613   21.3996 H   0  0  0  0  0  0
  -18.0397  -26.0087   22.9003 H   0  0  0  0  0  0
  -19.7973  -30.7270   24.2169 H   0  0  0  0  0  0
  -17.5063  -31.6243   24.5164 H   0  0  0  0  0  0
  -15.5380  -30.2969   23.7724 H   0  0  0  0  0  0
  -15.8667  -28.0823   22.7075 H   0  0  0  0  0  0
  -24.5891  -30.7063   25.7674 H   0  0  0  0  0  0
  -24.8892  -32.2890   26.4761 H   0  0  0  0  0  0
  -25.7991  -30.8894   27.0165 H   0  0  0  0  0  0
  -26.3015  -29.6640   24.1279 H   0  0  0  0  0  0
  -27.4054  -29.7249   25.4801 H   0  0  0  0  0  0
  -27.8880  -30.4200   23.9535 H   0  0  0  0  0  0
  -27.2649  -33.3616   26.2007 H   0  0  0  0  0  0
  -28.3881  -32.6844   25.0313 H   0  0  0  0  0  0
  -28.0698  -31.8459   26.5422 H   0  0  0  0  0  0
  -28.2567  -38.0097   24.7501 H   0  0  0  0  0  0
  -28.1090  -36.2627   24.6308 H   0  0  0  0  0  0
  -27.2301  -37.1443   25.8871 H   0  0  0  0  0  0
  -20.9407  -29.8795   21.6801 H   0  0  0  0  0  0
  -26.0174  -38.2814   24.1392 H   0  0  0  0  0  0
  -27.1483  -22.2533   22.3194 H   0  0  0  0  0  0
  -30.2358  -22.9440   19.2886 H   0  0  0  0  0  0
  -30.6425  -22.4812   21.0154 H   0  0  0  0  0  0
  -30.6621  -17.2547   22.3887 H   0  0  0  0  0  0
  -31.6077  -17.3835   20.9024 H   0  0  0  0  0  0
  -29.6213  -16.9455   18.8301 H   0  0  0  0  0  0
  -28.1174  -16.6985   19.7497 H   0  0  0  0  0  0
  -28.1511  -21.5969   19.4090 H   0  0  0  0  0  0
  -30.0850  -18.8836   20.0300 H   0  0  0  0  0  0
  -28.7101  -23.6436   21.8379 H   0  0  0  0  0  0
  -27.6200  -16.4563   21.8547 H   0  0  0  0  0  0
  -27.1233  -16.5665   23.4631 H   0  0  0  0  0  0
  -28.8184  -16.5369   23.1723 H   0  0  0  0  0  0
  -25.6795  -18.0222   24.6593 H   0  0  0  0  0  0
  -26.4443  -19.2296   25.6907 H   0  0  0  0  0  0
  -27.3176  -17.7764   25.2992 H   0  0  0  0  0  0
  -26.8912  -24.5844   20.3592 H   0  0  0  0  0  0
  -27.9231  -24.5181   18.9690 H   0  0  0  0  0  0
  1 25  1  0  0  0
  1 30  2  0  0  0
  1 86  1  0  0  0
  2  3  1  0  0  0
  2 25  1  0  0  0
  2 88  1  0  0  0
  2 89  1  0  0  0
  3  4  1  0  0  0
  3 90  1  0  0  0
  3 91  1  0  0  0
  4  5  1  0  0  0
  4 92  1  0  0  0
  4 93  1  0  0  0
  5  6  1  0  0  0
  5 26  1  0  0  0
  5 94  1  0  0  0
  6 25  1  0  0  0
  6 95  1  0  0  0
  6 96  1  0  0  0
  7  8  2  0  0  0
  7 26  1  0  0  0
  7 29  1  0  0  0
  8  9  1  0  0  0
  8 22  1  0  0  0
  9 10  1  0  0  0
  9 27  2  0  0  0
 10 11  2  0  0  0
 10 15  1  0  0  0
 11 12  1  0  0  0
 11 97  1  0  0  0
 12 13  2  0  0  0
 12 98  1  0  0  0
 13 14  1  0  0  0
 13 31  1  0  0  0
 14 15  2  0  0  0
 14 99  1  0  0  0
 15100  1  0  0  0
 16 17  2  0  0  0
 16 21  1  0  0  0
 16 31  1  0  0  0
 17 18  1  0  0  0
 17101  1  0  0  0
 18 19  2  0  0  0
 18102  1  0  0  0
 19 20  1  0  0  0
 19 24  1  0  0  0
 20 21  2  0  0  0
 20103  1  0  0  0
 21 23  1  0  0  0
 22 28  1  0  0  0
 22 32  2  0  0  0
 26 27  1  0  0  0
 28104  1  0  0  0
 28105  1  0  0  0
 29106  1  0  0  0
 29107  1  0  0  0
 33 34  1  0  0  0
 33 66  1  0  0  0
 33 70  2  0  0  0
 34 36  1  0  0  0
 34 59  1  0  0  0
 34108  1  0  0  0
 35 44  2  0  0  0
 35 45  1  0  0  0
 35 68  1  0  0  0
 36 56  1  0  0  0
 36109  1  0  0  0
 37 39  1  0  0  0
 37 47  1  0  0  0
 37 66  1  0  0  0
 37110  1  0  0  0
 38 43  2  0  0  0
 38 46  1  0  0  0
 38 47  1  0  0  0
 39 64  1  0  0  0
 39 67  2  0  0  0
 40 52  1  0  0  0
 40 53  2  0  0  0
 40 58  1  0  0  0
 41111  1  0  0  0
 41112  1  0  0  0
 41113  1  0  0  0
 41 48  1  0  0  0
 42 43  1  0  0  0
 42 66  1  0  0  0
 42114  1  0  0  0
 42115  1  0  0  0
 43 44  1  0  0  0
 44116  1  0  0  0
 45 46  2  0  0  0
 45117  1  0  0  0
 46118  1  0  0  0
 47119  1  0  0  0
 47120  1  0  0  0
 48 56  1  0  0  0
 48 65  1  0  0  0
 48121  1  0  0  0
 49 50  1  0  0  0
 49 53  1  0  0  0
 49 64  1  0  0  0
 49122  1  0  0  0
 50 51  1  0  0  0
 50123  1  0  0  0
 50124  1  0  0  0
 51 52  1  0  0  0
 51125  1  0  0  0
 51126  1  0  0  0
 52127  1  0  0  0
 52128  1  0  0  0
 53 54  1  0  0  0
 54 55  2  0  0  0
 54129  1  0  0  0
 55 57  1  0  0  0
 55130  1  0  0  0
 56 69  2  0  0  0
 57 58  2  0  0  0
 57131  1  0  0  0
 58132  1  0  0  0
 59 60  1  0  0  0
 59 61  1  0  0  0
 59 62  1  0  0  0
 60133  1  0  0  0
 60134  1  0  0  0
 60135  1  0  0  0
 61136  1  0  0  0
 61137  1  0  0  0
 61138  1  0  0  0
 62139  1  0  0  0
 62140  1  0  0  0
 62141  1  0  0  0
 63 65  1  0  0  0
 63142  1  0  0  0
 63143  1  0  0  0
 63144  1  0  0  0
 64145  1  0  0  0
 65146  1  0  0  0
 68 85  1  0  0  0
 71 72  2  0  0  0
 71 76  1  0  0  0
 71147  1  0  0  0
 72 73  1  0  0  0
 72 80  1  0  0  0
 73 74  2  0  0  0
 73 81  1  0  0  0
 74 75  1  0  0  0
 74 83  1  0  0  0
 75 76  2  0  0  0
 75 84  1  0  0  0
 76 87  1  0  0  0
 77 80  1  0  0  0
 77 82  1  0  0  0
 77148  1  0  0  0
 77149  1  0  0  0
 78 81  1  0  0  0
 78 86  1  0  0  0
 78150  1  0  0  0
 78151  1  0  0  0
 79 81  1  0  0  0
 79 86  1  0  0  0
 79152  1  0  0  0
 79153  1  0  0  0
 80 82  1  0  0  0
 80154  1  0  0  0
 81155  1  0  0  0
 82 85  1  0  0  0
 82156  1  0  0  0
 83157  1  0  0  0
 83158  1  0  0  0
 83159  1  0  0  0
 84160  1  0  0  0
 84161  1  0  0  0
 84162  1  0  0  0
 85163  1  0  0  0
 85164  1  0  0  0
M  ISO  4   1 100  68 101  85 101  86 100
M  END
> <chiral flag>
0

> <version>
0

> <s_m_source_file>
/data/baiqing/PycharmProjects/Reinvent-master-3.2/result/LINK_invent/BTK/process_docking_weight1_custom_sum_contain_oxygen_bond_distance_aromatic_linkinvent_7_9_3/rearranged_h_0170.sdf

> <i_m_source_file_index>
62

> <r_mmod_Potential_Energy-OPLS-2005>
558.240478515625

> <r_mmod_Stretch_Energy-OPLS-2005>
204.453765869141

> <r_mmod_Bend_Energy-OPLS-2005>
262.718017578125

> <r_mmod_Torsional_Energy-OPLS-2005>
339.132049560547

> <r_mmod_Improper_Torsional_Energy-OPLS-2005>
9.19733142852783

> <r_mmod_Van_der_Waal_Energy-OPLS-2005>
155.841659545898

> <r_mmod_Electrostatic_Energy-OPLS-2005>
-351.560668945312

> <r_mmod_Solvation_Energy-OPLS-2005>
-192.990570068359

> <b_mmod_Minimization_Converged-OPLS-2005>
0

> <r_mmod_RMS_Derivative-OPLS-2005>
4.30844211578369

$$$$
63
                    3D
 Structure written by MMmdl.
166176  0  0  1  0            999 V2000
  -30.6808  -14.5183   20.6183 C   0  0  0  0  0  0
  -30.4357  -12.3506   19.4276 C   0  0  0  0  0  0
  -29.5105  -12.5482   18.2098 C   0  0  0  0  0  0
  -28.0276  -12.3904   18.6140 C   0  0  0  0  0  0
  -27.6652  -13.2064   19.8812 C   0  0  2  0  0  0
  -28.7067  -12.9841   20.9999 C   0  0  0  0  0  0
  -25.2591  -13.8143   20.5702 C   0  0  0  0  0  0
  -24.1866  -13.0405   20.9163 C   0  0  0  0  0  0
  -24.6388  -11.6869   20.8721 C   0  0  0  0  0  0
  -23.9054  -10.4272   21.0421 C   0  0  0  0  0  0
  -24.3594   -9.4193   21.9181 C   0  0  0  0  0  0
  -23.6266   -8.2235   22.0768 C   0  0  0  0  0  0
  -22.4241   -8.0275   21.3563 C   0  0  0  0  0  0
  -21.9868   -9.0242   20.4669 C   0  0  0  0  0  0
  -22.7218  -10.2109   20.3074 C   0  0  0  0  0  0
  -21.6853   -6.0724   22.5290 C   0  0  0  0  0  0
  -21.4005   -6.5628   23.8212 C   0  0  0  0  0  0
  -21.3683   -5.6787   24.9174 C   0  0  0  0  0  0
  -21.6045   -4.3048   24.7222 C   0  0  0  0  0  0
  -21.8822   -3.8136   23.4349 C   0  0  0  0  0  0
  -21.9180   -4.6951   22.3407 C   0  0  0  0  0  0
  -22.7874  -13.5249   21.1846 C   0  0  0  0  0  0
  -22.1660   -4.2130   21.0980 F   0  0  0  0  0  0
  -21.5624   -3.4535   25.7755 F   0  0  0  0  0  0
  -30.0388  -13.3213   20.4627 N   0  0  0  0  0  0
  -26.3047  -12.9314   20.3356 N   0  0  0  0  0  0
  -25.9317  -11.6461   20.5684 N   0  0  0  0  0  0
  -22.0510  -12.8259   22.0381 N   0  0  0  0  0  0
  -25.4257  -15.1872   20.4111 N   0  0  0  0  0  0
  -31.7832  -14.7615   20.1242 O   0  0  0  0  0  0
  -21.6608   -6.8880   21.4252 O   0  0  0  0  0  0
  -22.3586  -14.5559   20.6705 O   0  0  0  0  0  0
  -24.6179  -31.8656   23.2097 C   0  0  0  0  0  0
  -25.9097  -32.4784   23.8353 C   0  0  1  0  0  0
  -27.2111  -27.3698   20.1081 C   0  0  0  0  0  0
  -25.5994  -33.8565   24.2327 N   0  0  0  0  0  0
  -23.4035  -30.4927   21.5526 C   0  0  2  0  0  0
  -24.8498  -28.9581   20.1067 C   0  0  0  0  0  0
  -22.7424  -29.4665   22.4989 C   0  0  0  0  0  0
  -18.0307  -28.1376   22.8512 C   0  0  0  0  0  0
  -24.1507  -36.7285   23.2624 C   0  0  0  0  0  0
  -25.9388  -30.8063   21.3786 C   0  0  0  0  0  0
  -26.0106  -29.4367   20.7282 C   0  0  0  0  0  0
  -27.1926  -28.6477   20.7357 C   0  0  0  0  0  0
  -26.0563  -26.9682   19.4086 C   0  0  0  0  0  0
  -24.8719  -27.7220   19.4443 C   0  0  0  0  0  0
  -23.6142  -29.8283   20.1656 C   0  0  0  0  0  0
  -25.4117  -36.3064   24.0335 C   0  0  1  0  0  0
  -20.5884  -28.3646   23.1321 C   0  0  2  0  0  0
  -20.6788  -26.9395   22.5354 C   0  0  0  0  0  0
  -19.5761  -26.6413   21.5160 C   0  0  0  0  0  0
  -18.1948  -26.7934   22.1600 C   0  0  0  0  0  0
  -19.1554  -28.8827   23.2920 C   0  0  0  0  0  0
  -18.9452  -30.1439   23.8907 C   0  0  0  0  0  0
  -17.6453  -30.6557   24.0568 C   0  0  0  0  0  0
  -25.9060  -34.9431   23.5111 C   0  0  0  0  0  0
  -16.5348  -29.9050   23.6355 C   0  0  0  0  0  0
  -16.7289  -28.6474   23.0367 C   0  0  0  0  0  0
  -26.4515  -31.6545   25.0660 C   0  0  0  0  0  0
  -25.3798  -31.3653   26.1432 C   0  0  0  0  0  0
  -27.0340  -30.2964   24.6040 C   0  0  0  0  0  0
  -27.6109  -32.4211   25.7444 C   0  0  0  0  0  0
  -27.5574  -37.1804   24.8457 C   0  0  0  0  0  0
  -21.4142  -29.3048   22.3756 N   0  0  0  0  0  0
  -26.4284  -37.3769   23.9396 N   0  0  0  0  0  0
  -24.6713  -31.0734   22.1032 N   0  0  0  0  0  0
  -23.4223  -28.8226   23.3026 O   0  0  0  0  0  0
  -28.3375  -26.5513   20.1209 O   0  0  0  0  0  0
  -26.5572  -34.8894   22.4654 O   0  0  0  0  0  0
  -23.5372  -32.1451   23.7456 O   0  0  0  0  0  0
  -28.6430  -21.4971   20.3554 C   0  0  0  0  0  0
  -26.9156  -19.7853   20.5108 C   0  0  0  0  0  0
  -28.2947  -20.1137   20.5325 C   0  0  0  0  0  0
  -27.6165  -22.4837   20.1662 C   0  0  0  0  0  0
  -25.9448  -20.7835   20.3136 C   0  0  0  0  0  0
  -26.9799  -24.6602   21.1739 C   0  0  0  0  0  0
  -28.8488  -17.7200   21.2318 C   0  0  0  0  0  0
  -30.6851  -19.1657   20.7064 C   0  0  0  0  0  0
  -27.6767  -24.0092   19.9804 C   0  0  1  0  0  0
  -30.1589  -16.9248   21.5245 C   0  0  2  0  0  0
  -31.2122  -17.7069   20.6903 C   0  0  2  0  0  0
  -28.3037  -25.2101   20.7446 C   0  0  1  0  0  0
  -24.4527  -20.5006   20.3182 C   0  0  0  0  0  0
  -26.3354  -22.0552   20.1385 N   0  3  0  0  0  0
  -29.2329  -19.0537   20.7456 N   0  0  0  0  0  0
  -29.9620  -15.4655   21.2687 N   0  0  0  0  0  0
  -32.5996  -17.5941   21.1981 N   0  3  0  0  0  0
  -31.4841  -12.4569   19.1401 H   0  0  0  0  0  0
  -30.3380  -11.3351   19.8203 H   0  0  0  0  0  0
  -29.7700  -11.8461   17.4174 H   0  0  0  0  0  0
  -29.6705  -13.5441   17.7919 H   0  0  0  0  0  0
  -27.8396  -11.3314   18.7878 H   0  0  0  0  0  0
  -27.3816  -12.6816   17.7887 H   0  0  0  0  0  0
  -27.7091  -14.2565   19.5922 H   0  0  0  0  0  0
  -28.6910  -11.9451   21.3292 H   0  0  0  0  0  0
  -28.4455  -13.5621   21.8895 H   0  0  0  0  0  0
  -25.2733   -9.5640   22.4732 H   0  0  0  0  0  0
  -23.9976   -7.4613   22.7490 H   0  0  0  0  0  0
  -21.0795   -8.8761   19.8962 H   0  0  0  0  0  0
  -22.3704  -10.9642   19.6169 H   0  0  0  0  0  0
  -21.2003   -7.6129   23.9721 H   0  0  0  0  0  0
  -21.1515   -6.0503   25.9088 H   0  0  0  0  0  0
  -22.0580   -2.7596   23.2855 H   0  0  0  0  0  0
  -22.4048  -11.9881   22.4776 H   0  0  0  0  0  0
  -21.1150  -13.1351   22.2573 H   0  0  0  0  0  0
  -24.6414  -15.8282   20.4821 H   0  0  0  0  0  0
  -26.2480  -15.6088   19.9998 H   0  0  0  0  0  0
  -26.7162  -32.5485   23.1111 H   0  0  0  0  0  0
  -25.0248  -33.9709   25.0542 H   0  0  0  0  0  0
  -22.6939  -31.3121   21.4183 H   0  0  0  0  0  0
  -23.3743  -35.9649   23.3264 H   0  0  0  0  0  0
  -24.3621  -36.8884   22.2034 H   0  0  0  0  0  0
  -23.7270  -37.6499   23.6643 H   0  0  0  0  0  0
  -26.0584  -31.5667   20.6053 H   0  0  0  0  0  0
  -26.8229  -30.8564   21.9962 H   0  0  0  0  0  0
  -28.0780  -29.0053   21.2458 H   0  0  0  0  0  0
  -26.0521  -26.0424   18.8532 H   0  0  0  0  0  0
  -23.9900  -27.3581   18.9350 H   0  0  0  0  0  0
  -23.7198  -30.6065   19.4100 H   0  0  0  0  0  0
  -22.7330  -29.2516   19.8678 H   0  0  0  0  0  0
  -25.1289  -36.1942   25.0826 H   0  0  0  0  0  0
  -20.9952  -28.3165   24.1444 H   0  0  0  0  0  0
  -20.5728  -26.2207   23.3487 H   0  0  0  0  0  0
  -21.6669  -26.7479   22.1128 H   0  0  0  0  0  0
  -19.6903  -25.6346   21.1119 H   0  0  0  0  0  0
  -19.6682  -27.3276   20.6724 H   0  0  0  0  0  0
  -17.4219  -26.6715   21.3985 H   0  0  0  0  0  0
  -18.0344  -26.0037   22.8957 H   0  0  0  0  0  0
  -19.7915  -30.7285   24.2238 H   0  0  0  0  0  0
  -17.4989  -31.6243   24.5153 H   0  0  0  0  0  0
  -15.5344  -30.2944   23.7636 H   0  0  0  0  0  0
  -15.8696  -28.0777   22.7065 H   0  0  0  0  0  0
  -24.6049  -30.6900   25.7785 H   0  0  0  0  0  0
  -24.8915  -32.2800   26.4815 H   0  0  0  0  0  0
  -25.8186  -30.8918   27.0237 H   0  0  0  0  0  0
  -26.2890  -29.6734   24.1075 H   0  0  0  0  0  0
  -27.4085  -29.7176   25.4499 H   0  0  0  0  0  0
  -27.8750  -30.4220   23.9204 H   0  0  0  0  0  0
  -27.2800  -33.3547   26.2015 H   0  0  0  0  0  0
  -28.3963  -32.6682   25.0286 H   0  0  0  0  0  0
  -28.0742  -31.8325   26.5375 H   0  0  0  0  0  0
  -28.2596  -38.0095   24.7504 H   0  0  0  0  0  0
  -28.1090  -36.2635   24.6325 H   0  0  0  0  0  0
  -27.2302  -37.1453   25.8863 H   0  0  0  0  0  0
  -20.9263  -29.8770   21.6993 H   0  0  0  0  0  0
  -26.0167  -38.2862   24.1374 H   0  0  0  0  0  0
  -29.6767  -21.8070   20.3639 H   0  0  0  0  0  0
  -26.5741  -18.7675   20.6431 H   0  0  0  0  0  0
  -27.0022  -24.1294   22.1246 H   0  0  0  0  0  0
  -26.0131  -25.1062   20.9700 H   0  0  0  0  0  0
  -28.2173  -17.7811   22.1240 H   0  0  0  0  0  0
  -28.2657  -17.2207   20.4530 H   0  0  0  0  0  0
  -31.0353  -19.7226   19.8335 H   0  0  0  0  0  0
  -31.0177  -19.7009   21.6010 H   0  0  0  0  0  0
  -27.3475  -24.2357   18.9705 H   0  0  0  0  0  0
  -30.3857  -17.0509   22.5871 H   0  0  0  0  0  0
  -31.1958  -17.3607   19.6563 H   0  0  0  0  0  0
  -29.1784  -25.0128   21.3617 H   0  0  0  0  0  0
  -24.2401  -19.4575   20.5511 H   0  0  0  0  0  0
  -24.0099  -20.7251   19.3475 H   0  0  0  0  0  0
  -23.9555  -21.1154   21.0698 H   0  0  0  0  0  0
  -25.6094  -22.7597   19.9919 H   0  0  0  0  0  0
  -29.1062  -15.0985   21.6588 H   0  0  0  0  0  0
  -32.6793  -17.9696   22.1279 H   0  0  0  0  0  0
  -33.2369  -18.0978   20.6036 H   0  0  0  0  0  0
  -32.8924  -16.6305   21.2070 H   0  0  0  0  0  0
  1 25  1  0  0  0
  1 30  2  0  0  0
  1 86  1  0  0  0
  2  3  1  0  0  0
  2 25  1  0  0  0
  2 88  1  0  0  0
  2 89  1  0  0  0
  3  4  1  0  0  0
  3 90  1  0  0  0
  3 91  1  0  0  0
  4  5  1  0  0  0
  4 92  1  0  0  0
  4 93  1  0  0  0
  5  6  1  0  0  0
  5 26  1  0  0  0
  5 94  1  0  0  0
  6 25  1  0  0  0
  6 95  1  0  0  0
  6 96  1  0  0  0
  7  8  2  0  0  0
  7 26  1  0  0  0
  7 29  1  0  0  0
  8  9  1  0  0  0
  8 22  1  0  0  0
  9 10  1  0  0  0
  9 27  2  0  0  0
 10 11  2  0  0  0
 10 15  1  0  0  0
 11 12  1  0  0  0
 11 97  1  0  0  0
 12 13  2  0  0  0
 12 98  1  0  0  0
 13 14  1  0  0  0
 13 31  1  0  0  0
 14 15  2  0  0  0
 14 99  1  0  0  0
 15100  1  0  0  0
 16 17  2  0  0  0
 16 21  1  0  0  0
 16 31  1  0  0  0
 17 18  1  0  0  0
 17101  1  0  0  0
 18 19  2  0  0  0
 18102  1  0  0  0
 19 20  1  0  0  0
 19 24  1  0  0  0
 20 21  2  0  0  0
 20103  1  0  0  0
 21 23  1  0  0  0
 22 28  1  0  0  0
 22 32  2  0  0  0
 26 27  1  0  0  0
 28104  1  0  0  0
 28105  1  0  0  0
 29106  1  0  0  0
 29107  1  0  0  0
 33 34  1  0  0  0
 33 66  1  0  0  0
 33 70  2  0  0  0
 34 36  1  0  0  0
 34 59  1  0  0  0
 34108  1  0  0  0
 35 44  2  0  0  0
 35 45  1  0  0  0
 35 68  1  0  0  0
 36 56  1  0  0  0
 36109  1  0  0  0
 37 39  1  0  0  0
 37 47  1  0  0  0
 37 66  1  0  0  0
 37110  1  0  0  0
 38 43  2  0  0  0
 38 46  1  0  0  0
 38 47  1  0  0  0
 39 64  1  0  0  0
 39 67  2  0  0  0
 40 52  1  0  0  0
 40 53  2  0  0  0
 40 58  1  0  0  0
 41111  1  0  0  0
 41112  1  0  0  0
 41113  1  0  0  0
 41 48  1  0  0  0
 42 43  1  0  0  0
 42 66  1  0  0  0
 42114  1  0  0  0
 42115  1  0  0  0
 43 44  1  0  0  0
 44116  1  0  0  0
 45 46  2  0  0  0
 45117  1  0  0  0
 46118  1  0  0  0
 47119  1  0  0  0
 47120  1  0  0  0
 48 56  1  0  0  0
 48 65  1  0  0  0
 48121  1  0  0  0
 49 50  1  0  0  0
 49 53  1  0  0  0
 49 64  1  0  0  0
 49122  1  0  0  0
 50 51  1  0  0  0
 50123  1  0  0  0
 50124  1  0  0  0
 51 52  1  0  0  0
 51125  1  0  0  0
 51126  1  0  0  0
 52127  1  0  0  0
 52128  1  0  0  0
 53 54  1  0  0  0
 54 55  2  0  0  0
 54129  1  0  0  0
 55 57  1  0  0  0
 55130  1  0  0  0
 56 69  2  0  0  0
 57 58  2  0  0  0
 57131  1  0  0  0
 58132  1  0  0  0
 59 60  1  0  0  0
 59 61  1  0  0  0
 59 62  1  0  0  0
 60133  1  0  0  0
 60134  1  0  0  0
 60135  1  0  0  0
 61136  1  0  0  0
 61137  1  0  0  0
 61138  1  0  0  0
 62139  1  0  0  0
 62140  1  0  0  0
 62141  1  0  0  0
 63 65  1  0  0  0
 63142  1  0  0  0
 63143  1  0  0  0
 63144  1  0  0  0
 64145  1  0  0  0
 65146  1  0  0  0
 68 82  1  0  0  0
 71 73  2  0  0  0
 71 74  1  0  0  0
 71147  1  0  0  0
 72 73  1  0  0  0
 72 75  2  0  0  0
 72148  1  0  0  0
 73 85  1  0  0  0
 74 84  2  0  0  0
 74 79  1  0  0  0
 75 83  1  0  0  0
 75 84  1  0  0  0
 76 79  1  0  0  0
 76 82  1  0  0  0
 76149  1  0  0  0
 76150  1  0  0  0
 77 80  1  0  0  0
 77 85  1  0  0  0
 77151  1  0  0  0
 77152  1  0  0  0
 78 81  1  0  0  0
 78 85  1  0  0  0
 78153  1  0  0  0
 78154  1  0  0  0
 79 82  1  0  0  0
 79155  1  0  0  0
 80 81  1  0  0  0
 80 86  1  0  0  0
 80156  1  0  0  0
 81 87  1  0  0  0
 81157  1  0  0  0
 82158  1  0  0  0
 83159  1  0  0  0
 83160  1  0  0  0
 83161  1  0  0  0
 84162  1  0  0  0
 86163  1  0  0  0
 87164  1  0  0  0
 87165  1  0  0  0
 87166  1  0  0  0
M  CHG  2  84   1  87   1
M  ISO  4   1 100  68 101  82 101  86 100
M  END
> <chiral flag>
0

> <version>
0

> <s_m_source_file>
/data/baiqing/PycharmProjects/Reinvent-master-3.2/result/LINK_invent/BTK/process_docking_weight1_custom_sum_contain_oxygen_bond_distance_aromatic_linkinvent_7_9_3/rearranged_h_0170.sdf

> <i_m_source_file_index>
63

> <r_mmod_Potential_Energy-OPLS-2005>
-304.773773193359

> <r_mmod_Stretch_Energy-OPLS-2005>
61.5347290039062

> <r_mmod_Bend_Energy-OPLS-2005>
226.918350219727

> <r_mmod_Torsional_Energy-OPLS-2005>
305.598266601562

> <r_mmod_Improper_Torsional_Energy-OPLS-2005>
3.48778104782104

> <r_mmod_Van_der_Waal_Energy-OPLS-2005>
153.306335449219

> <r_mmod_Electrostatic_Energy-OPLS-2005>
-188.959274291992

> <r_mmod_Solvation_Energy-OPLS-2005>
-891.176147460938

> <b_mmod_Minimization_Converged-OPLS-2005>
0

> <r_mmod_RMS_Derivative-OPLS-2005>
6.28257369995117

$$$$
64
                    3D
 Structure written by MMmdl.
165175  0  0  1  0            999 V2000
  -30.6691  -14.5284   20.5131 C   0  0  0  0  0  0
  -30.4252  -12.3220   19.4412 C   0  0  0  0  0  0
  -29.5019  -12.4978   18.2160 C   0  0  0  0  0  0
  -28.0224  -12.3554   18.6255 C   0  0  0  0  0  0
  -27.6581  -13.2095   19.8697 C   0  0  2  0  0  0
  -28.7005  -13.0256   20.9977 C   0  0  0  0  0  0
  -25.2573  -13.8163   20.5685 C   0  0  0  0  0  0
  -24.1830  -13.0434   20.9184 C   0  0  0  0  0  0
  -24.6383  -11.6902   20.8726 C   0  0  0  0  0  0
  -23.9052  -10.4289   21.0392 C   0  0  0  0  0  0
  -24.3611   -9.4211   21.9174 C   0  0  0  0  0  0
  -23.6290   -8.2244   22.0747 C   0  0  0  0  0  0
  -22.4270   -8.0275   21.3545 C   0  0  0  0  0  0
  -21.9902   -9.0243   20.4645 C   0  0  0  0  0  0
  -22.7225  -10.2125   20.3044 C   0  0  0  0  0  0
  -21.6849   -6.0726   22.5275 C   0  0  0  0  0  0
  -21.4006   -6.5631   23.8206 C   0  0  0  0  0  0
  -21.3667   -5.6785   24.9172 C   0  0  0  0  0  0
  -21.6050   -4.3049   24.7227 C   0  0  0  0  0  0
  -21.8817   -3.8136   23.4348 C   0  0  0  0  0  0
  -21.9195   -4.6952   22.3404 C   0  0  0  0  0  0
  -22.7854  -13.5233   21.1855 C   0  0  0  0  0  0
  -22.1662   -4.2136   21.0984 F   0  0  0  0  0  0
  -21.5646   -3.4535   25.7742 F   0  0  0  0  0  0
  -30.0276  -13.3281   20.4406 N   0  0  0  0  0  0
  -26.3004  -12.9334   20.3333 N   0  0  0  0  0  0
  -25.9312  -11.6490   20.5745 N   0  0  0  0  0  0
  -22.0494  -12.8229   22.0412 N   0  0  0  0  0  0
  -25.4291  -15.1882   20.4112 N   0  0  0  0  0  0
  -31.8229  -14.6884   20.1051 O   0  0  0  0  0  0
  -21.6642   -6.8868   21.4237 O   0  0  0  0  0  0
  -22.3543  -14.5544   20.6705 O   0  0  0  0  0  0
  -24.6178  -31.8651   23.2064 C   0  0  0  0  0  0
  -25.9061  -32.4806   23.8372 C   0  0  1  0  0  0
  -27.2347  -27.3941   20.0925 C   0  0  0  0  0  0
  -25.5901  -33.8606   24.2304 N   0  0  0  0  0  0
  -23.4072  -30.4878   21.5479 C   0  0  2  0  0  0
  -24.8516  -28.9466   20.1130 C   0  0  0  0  0  0
  -22.7423  -29.4647   22.4976 C   0  0  0  0  0  0
  -18.0274  -28.1378   22.8495 C   0  0  0  0  0  0
  -24.1486  -36.7306   23.2642 C   0  0  0  0  0  0
  -25.9393  -30.8168   21.3648 C   0  0  0  0  0  0
  -26.0134  -29.4477   20.7113 C   0  0  0  0  0  0
  -27.2027  -28.6773   20.6999 C   0  0  0  0  0  0
  -26.0426  -26.9091   19.5057 C   0  0  0  0  0  0
  -24.8626  -27.6779   19.5096 C   0  0  0  0  0  0
  -23.6158  -29.8180   20.1632 C   0  0  0  0  0  0
  -25.4110  -36.3105   24.0340 C   0  0  1  0  0  0
  -20.5869  -28.3663   23.1319 C   0  0  2  0  0  0
  -20.6758  -26.9396   22.5427 C   0  0  0  0  0  0
  -19.5740  -26.6383   21.5221 C   0  0  0  0  0  0
  -18.1915  -26.7927   22.1621 C   0  0  0  0  0  0
  -19.1524  -28.8836   23.2904 C   0  0  0  0  0  0
  -18.9447  -30.1441   23.8913 C   0  0  0  0  0  0
  -17.6451  -30.6582   24.0563 C   0  0  0  0  0  0
  -25.9042  -34.9471   23.5123 C   0  0  0  0  0  0
  -16.5340  -29.9080   23.6330 C   0  0  0  0  0  0
  -16.7262  -28.6499   23.0351 C   0  0  0  0  0  0
  -26.4467  -31.6596   25.0717 C   0  0  0  0  0  0
  -25.3726  -31.3713   26.1462 C   0  0  0  0  0  0
  -27.0288  -30.3031   24.6121 C   0  0  0  0  0  0
  -27.6058  -32.4303   25.7476 C   0  0  0  0  0  0
  -27.5582  -37.1805   24.8463 C   0  0  0  0  0  0
  -21.4150  -29.3027   22.3717 N   0  0  0  0  0  0
  -26.4291  -37.3793   23.9411 N   0  0  0  0  0  0
  -24.6734  -31.0724   22.0977 N   0  0  0  0  0  0
  -23.4181  -28.8198   23.3033 O   0  0  0  0  0  0
  -28.4160  -26.6631   20.1240 O   0  0  0  0  0  0
  -26.5607  -34.8930   22.4688 O   0  0  0  0  0  0
  -23.5363  -32.1420   23.7439 O   0  0  0  0  0  0
  -29.1219  -22.5548   21.8618 C   0  0  0  0  0  0
  -28.9467  -23.8767   21.3797 C   0  0  0  0  0  0
  -28.6689  -24.0780   19.9998 C   0  0  0  0  0  0
  -28.5763  -22.8992   19.2025 C   0  0  0  0  0  0
  -29.0598  -21.4578   20.9828 C   0  0  0  0  0  0
  -26.8951  -23.3533   17.2434 C   0  0  0  0  0  0
  -27.3252  -21.9204   17.1020 C   0  0  0  0  0  0
  -30.6433  -17.9894   21.4006 C   0  0  0  0  0  0
  -28.8890  -17.8918   20.2707 C   0  0  0  0  0  0
  -28.2687  -22.9313   17.7303 C   0  0  0  0  0  0
  -29.8271  -19.0676   20.6370 C   0  0  1  0  0  0
  -30.1396  -16.9794   20.3467 C   0  0  2  0  0  0
  -29.0907  -25.0287   22.3585 C   0  0  0  0  0  0
  -28.6054  -25.4775   19.3133 C   0  0  0  0  0  0
  -28.7917  -21.6422   19.6773 N   0  0  0  0  0  0
  -29.2608  -20.1460   21.4688 N   0  0  0  0  0  0
  -29.8885  -15.5936   20.8143 N   0  0  0  0  0  0
  -31.4708  -12.4199   19.1438 H   0  0  0  0  0  0
  -30.3272  -11.3181   19.8563 H   0  0  0  0  0  0
  -29.7492  -11.7615   17.4502 H   0  0  0  0  0  0
  -29.6674  -13.4772   17.7627 H   0  0  0  0  0  0
  -27.8413  -11.3016   18.8374 H   0  0  0  0  0  0
  -27.3725  -12.6126   17.7883 H   0  0  0  0  0  0
  -27.6900  -14.2513   19.5501 H   0  0  0  0  0  0
  -28.6828  -12.0004   21.3703 H   0  0  0  0  0  0
  -28.4658  -13.6582   21.8555 H   0  0  0  0  0  0
  -25.2753   -9.5694   22.4753 H   0  0  0  0  0  0
  -24.0002   -7.4636   22.7468 H   0  0  0  0  0  0
  -21.0831   -8.8751   19.8958 H   0  0  0  0  0  0
  -22.3671  -10.9658   19.6152 H   0  0  0  0  0  0
  -21.1972   -7.6135   23.9705 H   0  0  0  0  0  0
  -21.1504   -6.0517   25.9078 H   0  0  0  0  0  0
  -22.0592   -2.7596   23.2850 H   0  0  0  0  0  0
  -22.4098  -11.9884   22.4796 H   0  0  0  0  0  0
  -21.1111  -13.1266   22.2612 H   0  0  0  0  0  0
  -24.6617  -15.8422   20.5220 H   0  0  0  0  0  0
  -26.2791  -15.6305   20.0854 H   0  0  0  0  0  0
  -26.7130  -32.5502   23.1127 H   0  0  0  0  0  0
  -25.0029  -33.9758   25.0436 H   0  0  0  0  0  0
  -22.6974  -31.3056   21.4071 H   0  0  0  0  0  0
  -23.3756  -35.9631   23.3299 H   0  0  0  0  0  0
  -24.3584  -36.8927   22.2059 H   0  0  0  0  0  0
  -23.7225  -37.6504   23.6657 H   0  0  0  0  0  0
  -26.0588  -31.5807   20.5954 H   0  0  0  0  0  0
  -26.8249  -30.8686   21.9865 H   0  0  0  0  0  0
  -28.0996  -29.0620   21.1655 H   0  0  0  0  0  0
  -25.9894  -25.9273   19.0601 H   0  0  0  0  0  0
  -23.9651  -27.2809   19.0550 H   0  0  0  0  0  0
  -23.7235  -30.5912   19.4015 H   0  0  0  0  0  0
  -22.7386  -29.2382   19.8689 H   0  0  0  0  0  0
  -25.1290  -36.1966   25.0832 H   0  0  0  0  0  0
  -20.9959  -28.3223   24.1439 H   0  0  0  0  0  0
  -20.5657  -26.2267   23.3613 H   0  0  0  0  0  0
  -21.6630  -26.7431   22.1216 H   0  0  0  0  0  0
  -19.6894  -25.6297   21.1242 H   0  0  0  0  0  0
  -19.6689  -27.3202   20.6759 H   0  0  0  0  0  0
  -17.4195  -26.6692   21.4013 H   0  0  0  0  0  0
  -18.0299  -26.0063   22.9005 H   0  0  0  0  0  0
  -19.7925  -30.7252   24.2289 H   0  0  0  0  0  0
  -17.5007  -31.6268   24.5149 H   0  0  0  0  0  0
  -15.5342  -30.2979   23.7656 H   0  0  0  0  0  0
  -15.8662  -28.0825   22.7052 H   0  0  0  0  0  0
  -24.5890  -30.7075   25.7782 H   0  0  0  0  0  0
  -24.8929  -32.2872   26.4926 H   0  0  0  0  0  0
  -25.8070  -30.8855   27.0210 H   0  0  0  0  0  0
  -26.2829  -29.6799   24.1174 H   0  0  0  0  0  0
  -27.4028  -29.7266   25.4591 H   0  0  0  0  0  0
  -27.8681  -30.4322   23.9286 H   0  0  0  0  0  0
  -27.2699  -33.3600   26.2075 H   0  0  0  0  0  0
  -28.3856  -32.6861   25.0292 H   0  0  0  0  0  0
  -28.0734  -31.8409   26.5369 H   0  0  0  0  0  0
  -28.2605  -38.0098   24.7516 H   0  0  0  0  0  0
  -28.1073  -36.2635   24.6276 H   0  0  0  0  0  0
  -27.2307  -37.1438   25.8867 H   0  0  0  0  0  0
  -20.9304  -29.8744   21.6941 H   0  0  0  0  0  0
  -26.0185  -38.2873   24.1412 H   0  0  0  0  0  0
  -29.3346  -22.3928   22.9104 H   0  0  0  0  0  0
  -26.1390  -23.5745   17.9944 H   0  0  0  0  0  0
  -26.8377  -23.9435   16.3315 H   0  0  0  0  0  0
  -27.5529  -21.5697   16.0979 H   0  0  0  0  0  0
  -26.8504  -21.1902   17.7547 H   0  0  0  0  0  0
  -30.2753  -17.7809   22.4079 H   0  0  0  0  0  0
  -31.7222  -18.1498   21.3950 H   0  0  0  0  0  0
  -28.4381  -17.9669   19.2800 H   0  0  0  0  0  0
  -28.1397  -17.6749   21.0357 H   0  0  0  0  0  0
  -29.1357  -23.2420   17.1502 H   0  0  0  0  0  0
  -30.3719  -19.4469   19.7691 H   0  0  0  0  0  0
  -30.7229  -17.0317   19.4226 H   0  0  0  0  0  0
  -29.3387  -24.6751   23.3592 H   0  0  0  0  0  0
  -28.1585  -25.5885   22.4334 H   0  0  0  0  0  0
  -29.8841  -25.7071   22.0432 H   0  0  0  0  0  0
  -27.9445  -25.4709   18.4514 H   0  0  0  0  0  0
  -29.5906  -25.6081   18.8650 H   0  0  0  0  0  0
  -29.4520  -20.0799   22.4622 H   0  0  0  0  0  0
  -28.9585  -15.3768   21.1391 H   0  0  0  0  0  0
  1 25  1  0  0  0
  1 30  2  0  0  0
  1 87  1  0  0  0
  2  3  1  0  0  0
  2 25  1  0  0  0
  2 88  1  0  0  0
  2 89  1  0  0  0
  3  4  1  0  0  0
  3 90  1  0  0  0
  3 91  1  0  0  0
  4  5  1  0  0  0
  4 92  1  0  0  0
  4 93  1  0  0  0
  5  6  1  0  0  0
  5 26  1  0  0  0
  5 94  1  0  0  0
  6 25  1  0  0  0
  6 95  1  0  0  0
  6 96  1  0  0  0
  7  8  2  0  0  0
  7 26  1  0  0  0
  7 29  1  0  0  0
  8  9  1  0  0  0
  8 22  1  0  0  0
  9 10  1  0  0  0
  9 27  2  0  0  0
 10 11  2  0  0  0
 10 15  1  0  0  0
 11 12  1  0  0  0
 11 97  1  0  0  0
 12 13  2  0  0  0
 12 98  1  0  0  0
 13 14  1  0  0  0
 13 31  1  0  0  0
 14 15  2  0  0  0
 14 99  1  0  0  0
 15100  1  0  0  0
 16 17  2  0  0  0
 16 21  1  0  0  0
 16 31  1  0  0  0
 17 18  1  0  0  0
 17101  1  0  0  0
 18 19  2  0  0  0
 18102  1  0  0  0
 19 20  1  0  0  0
 19 24  1  0  0  0
 20 21  2  0  0  0
 20103  1  0  0  0
 21 23  1  0  0  0
 22 28  1  0  0  0
 22 32  2  0  0  0
 26 27  1  0  0  0
 28104  1  0  0  0
 28105  1  0  0  0
 29106  1  0  0  0
 29107  1  0  0  0
 33 34  1  0  0  0
 33 66  1  0  0  0
 33 70  2  0  0  0
 34 36  1  0  0  0
 34 59  1  0  0  0
 34108  1  0  0  0
 35 44  2  0  0  0
 35 45  1  0  0  0
 35 68  1  0  0  0
 36 56  1  0  0  0
 36109  1  0  0  0
 37 39  1  0  0  0
 37 47  1  0  0  0
 37 66  1  0  0  0
 37110  1  0  0  0
 38 43  2  0  0  0
 38 46  1  0  0  0
 38 47  1  0  0  0
 39 64  1  0  0  0
 39 67  2  0  0  0
 40 52  1  0  0  0
 40 53  2  0  0  0
 40 58  1  0  0  0
 41111  1  0  0  0
 41112  1  0  0  0
 41113  1  0  0  0
 41 48  1  0  0  0
 42 43  1  0  0  0
 42 66  1  0  0  0
 42114  1  0  0  0
 42115  1  0  0  0
 43 44  1  0  0  0
 44116  1  0  0  0
 45 46  2  0  0  0
 45117  1  0  0  0
 46118  1  0  0  0
 47119  1  0  0  0
 47120  1  0  0  0
 48 56  1  0  0  0
 48 65  1  0  0  0
 48121  1  0  0  0
 49 50  1  0  0  0
 49 53  1  0  0  0
 49 64  1  0  0  0
 49122  1  0  0  0
 50 51  1  0  0  0
 50123  1  0  0  0
 50124  1  0  0  0
 51 52  1  0  0  0
 51125  1  0  0  0
 51126  1  0  0  0
 52127  1  0  0  0
 52128  1  0  0  0
 53 54  1  0  0  0
 54 55  2  0  0  0
 54129  1  0  0  0
 55 57  1  0  0  0
 55130  1  0  0  0
 56 69  2  0  0  0
 57 58  2  0  0  0
 57131  1  0  0  0
 58132  1  0  0  0
 59 60  1  0  0  0
 59 61  1  0  0  0
 59 62  1  0  0  0
 60133  1  0  0  0
 60134  1  0  0  0
 60135  1  0  0  0
 61136  1  0  0  0
 61137  1  0  0  0
 61138  1  0  0  0
 62139  1  0  0  0
 62140  1  0  0  0
 62141  1  0  0  0
 63 65  1  0  0  0
 63142  1  0  0  0
 63143  1  0  0  0
 63144  1  0  0  0
 64145  1  0  0  0
 65146  1  0  0  0
 68 84  1  0  0  0
 71 72  2  0  0  0
 71 75  1  0  0  0
 71147  1  0  0  0
 72 73  1  0  0  0
 72 83  1  0  0  0
 73 74  2  0  0  0
 73 84  1  0  0  0
 74 85  1  0  0  0
 74 80  1  0  0  0
 75 85  2  0  0  0
 75 86  1  0  0  0
 76 77  1  0  0  0
 76 80  1  0  0  0
 76148  1  0  0  0
 76149  1  0  0  0
 77 80  1  0  0  0
 77150  1  0  0  0
 77151  1  0  0  0
 78 81  1  0  0  0
 78 82  1  0  0  0
 78152  1  0  0  0
 78153  1  0  0  0
 79 81  1  0  0  0
 79 82  1  0  0  0
 79154  1  0  0  0
 79155  1  0  0  0
 80156  1  0  0  0
 81 86  1  0  0  0
 81157  1  0  0  0
 82 87  1  0  0  0
 82158  1  0  0  0
 83159  1  0  0  0
 83160  1  0  0  0
 83161  1  0  0  0
 84162  1  0  0  0
 84163  1  0  0  0
 86164  1  0  0  0
 87165  1  0  0  0
M  ISO  4   1 100  68 101  84 101  87 100
M  END
> <chiral flag>
0

> <version>
0

> <s_m_source_file>
/data/baiqing/PycharmProjects/Reinvent-master-3.2/result/LINK_invent/BTK/process_docking_weight1_custom_sum_contain_oxygen_bond_distance_aromatic_linkinvent_7_9_3/rearranged_h_0170.sdf

> <i_m_source_file_index>
64

> <r_mmod_Potential_Energy-OPLS-2005>
-132.882110595703

> <r_mmod_Stretch_Energy-OPLS-2005>
48.207332611084

> <r_mmod_Bend_Energy-OPLS-2005>
150.361999511719

> <r_mmod_Torsional_Energy-OPLS-2005>
257.239471435547

> <r_mmod_Improper_Torsional_Energy-OPLS-2005>
9.41514205932617

> <r_mmod_Van_der_Waal_Energy-OPLS-2005>
150.607971191406

> <r_mmod_Electrostatic_Energy-OPLS-2005>
-539.31396484375

> <r_mmod_Solvation_Energy-OPLS-2005>
-230.353149414062

> <b_mmod_Minimization_Converged-OPLS-2005>
0

> <r_mmod_RMS_Derivative-OPLS-2005>
1.11418795585632

$$$$
65
                    3D
 Structure written by MMmdl.
161170  0  0  1  0            999 V2000
  -30.5483  -15.0472   20.4166 C   0  0  0  0  0  0
  -30.4320  -12.6599   19.5033 C   0  0  0  0  0  0
  -29.5214  -12.5552   18.2574 C   0  0  0  0  0  0
  -28.0536  -12.3390   18.6693 C   0  0  0  0  0  0
  -27.6231  -13.2673   19.8365 C   0  0  2  0  0  0
  -28.6690  -13.3251   20.9715 C   0  0  0  0  0  0
  -25.2381  -13.8236   20.5675 C   0  0  0  0  0  0
  -24.1737  -13.0430   20.9230 C   0  0  0  0  0  0
  -24.6400  -11.6927   20.8762 C   0  0  0  0  0  0
  -23.9092  -10.4292   21.0414 C   0  0  0  0  0  0
  -24.3632   -9.4200   21.9193 C   0  0  0  0  0  0
  -23.6296   -8.2236   22.0758 C   0  0  0  0  0  0
  -22.4279   -8.0276   21.3546 C   0  0  0  0  0  0
  -21.9919   -9.0256   20.4652 C   0  0  0  0  0  0
  -22.7260  -10.2125   20.3062 C   0  0  0  0  0  0
  -21.6853   -6.0729   22.5270 C   0  0  0  0  0  0
  -21.4017   -6.5631   23.8203 C   0  0  0  0  0  0
  -21.3666   -5.6785   24.9170 C   0  0  0  0  0  0
  -21.6046   -4.3047   24.7226 C   0  0  0  0  0  0
  -21.8814   -3.8141   23.4342 C   0  0  0  0  0  0
  -21.9191   -4.6959   22.3401 C   0  0  0  0  0  0
  -22.7749  -13.5185   21.1880 C   0  0  0  0  0  0
  -22.1662   -4.2150   21.0978 F   0  0  0  0  0  0
  -21.5633   -3.4532   25.7741 F   0  0  0  0  0  0
  -29.9275  -13.7834   20.3614 N   0  0  0  0  0  0
  -26.2865  -12.9521   20.3263 N   0  0  0  0  0  0
  -25.9350  -11.6634   20.5755 N   0  0  0  0  0  0
  -22.0410  -12.8171   22.0443 N   0  0  0  0  0  0
  -25.3915  -15.1961   20.3978 N   0  0  0  0  0  0
  -31.7458  -15.0457   20.1026 O   0  0  0  0  0  0
  -21.6635   -6.8873   21.4235 O   0  0  0  0  0  0
  -22.3419  -14.5479   20.6717 O   0  0  0  0  0  0
  -24.6545  -31.8372   23.1849 C   0  0  0  0  0  0
  -25.9278  -32.4658   23.8256 C   0  0  1  0  0  0
  -27.2013  -27.0469   20.1603 C   0  0  0  0  0  0
  -25.6003  -33.8467   24.2180 N   0  0  0  0  0  0
  -23.4603  -30.4594   21.5325 C   0  0  2  0  0  0
  -24.9062  -28.8756   20.1107 C   0  0  0  0  0  0
  -22.7617  -29.4529   22.4833 C   0  0  0  0  0  0
  -18.0322  -28.1406   22.8471 C   0  0  0  0  0  0
  -24.1487  -36.7227   23.2643 C   0  0  0  0  0  0
  -26.0250  -30.6828   21.3981 C   0  0  0  0  0  0
  -26.0913  -29.2878   20.7347 C   0  0  0  0  0  0
  -27.2388  -28.3928   20.7384 C   0  0  0  0  0  0
  -25.9861  -26.7636   19.4952 C   0  0  0  0  0  0
  -24.8723  -27.6292   19.4739 C   0  0  0  0  0  0
  -23.6910  -29.7930   20.1514 C   0  0  0  0  0  0
  -25.4126  -36.3009   24.0316 C   0  0  1  0  0  0
  -20.5943  -28.3746   23.1217 C   0  0  2  0  0  0
  -20.6808  -26.9440   22.5407 C   0  0  0  0  0  0
  -19.5775  -26.6383   21.5223 C   0  0  0  0  0  0
  -18.1955  -26.7940   22.1624 C   0  0  0  0  0  0
  -19.1573  -28.8896   23.2831 C   0  0  0  0  0  0
  -18.9491  -30.1494   23.8856 C   0  0  0  0  0  0
  -17.6478  -30.6594   24.0568 C   0  0  0  0  0  0
  -25.9078  -34.9388   23.5053 C   0  0  0  0  0  0
  -16.5373  -29.9078   23.6347 C   0  0  0  0  0  0
  -16.7309  -28.6507   23.0352 C   0  0  0  0  0  0
  -26.4551  -31.6549   25.0732 C   0  0  0  0  0  0
  -25.3714  -31.3803   26.1424 C   0  0  0  0  0  0
  -27.0420  -30.2919   24.6405 C   0  0  0  0  0  0
  -27.6079  -32.4325   25.7518 C   0  0  0  0  0  0
  -27.5577  -37.1768   24.8465 C   0  0  0  0  0  0
  -21.4299  -29.3061   22.3567 N   0  0  0  0  0  0
  -26.4281  -37.3733   23.9413 N   0  0  0  0  0  0
  -24.7340  -31.0152   22.0929 N   0  0  0  0  0  0
  -23.4226  -28.8085   23.3007 O   0  0  0  0  0  0
  -28.2077  -25.9843   20.2291 O   0  0  0  0  0  0
  -26.5654  -34.8897   22.4623 O   0  0  0  0  0  0
  -23.5646  -32.1300   23.7018 O   0  0  0  0  0  0
  -30.0802  -22.7421   20.0393 C   0  0  0  0  0  0
  -28.6737  -22.9898   20.2183 C   0  0  0  0  0  0
  -30.3815  -21.3740   20.0759 C   0  0  0  0  0  0
  -28.2296  -21.6321   20.3813 C   0  0  0  0  0  0
  -28.6298  -18.2609   21.5983 C   0  0  0  0  0  0
  -28.7623  -16.6845   21.4351 C   0  0  0  0  0  0
  -30.2314  -17.7591   19.9876 C   0  0  0  0  0  0
  -29.1099  -18.9454   20.3047 C   0  0  2  0  0  0
  -31.0945  -23.8314   19.7954 C   0  0  0  0  0  0
  -31.7233  -20.7373   19.8897 C   0  0  0  0  0  0
  -26.8168  -21.1950   20.6092 C   0  0  0  0  0  0
  -27.7952  -24.4506   20.1188 C   0  0  0  0  0  0
  -29.2459  -20.5766   20.2829 N   0  0  0  0  0  0
  -29.8484  -16.3216   20.4968 N   0  0  0  0  0  0
  -31.4651  -12.8104   19.1850 H   0  0  0  0  0  0
  -30.4327  -11.7184   20.0557 H   0  0  0  0  0  0
  -29.8511  -11.7424   17.6097 H   0  0  0  0  0  0
  -29.6044  -13.4695   17.6663 H   0  0  0  0  0  0
  -27.9439  -11.2945   18.9645 H   0  0  0  0  0  0
  -27.3954  -12.4845   17.8105 H   0  0  0  0  0  0
  -27.5739  -14.2670   19.4034 H   0  0  0  0  0  0
  -28.7848  -12.3488   21.4457 H   0  0  0  0  0  0
  -28.3473  -14.0063   21.7584 H   0  0  0  0  0  0
  -25.2774   -9.5682   22.4767 H   0  0  0  0  0  0
  -24.0015   -7.4623   22.7464 H   0  0  0  0  0  0
  -21.0853   -8.8781   19.8946 H   0  0  0  0  0  0
  -22.3727  -10.9668   19.6167 H   0  0  0  0  0  0
  -21.2009   -7.6140   23.9698 H   0  0  0  0  0  0
  -21.1498   -6.0526   25.9071 H   0  0  0  0  0  0
  -22.0589   -2.7608   23.2837 H   0  0  0  0  0  0
  -22.4060  -11.9879   22.4891 H   0  0  0  0  0  0
  -21.1019  -13.1162   22.2643 H   0  0  0  0  0  0
  -24.6008  -15.8266   20.4725 H   0  0  0  0  0  0
  -26.2104  -15.6336   19.9969 H   0  0  0  0  0  0
  -26.7350  -32.5235   23.0982 H   0  0  0  0  0  0
  -25.0148  -33.9554   25.0333 H   0  0  0  0  0  0
  -22.7685  -31.2902   21.3772 H   0  0  0  0  0  0
  -23.3767  -35.9531   23.3271 H   0  0  0  0  0  0
  -24.3587  -36.8891   22.2065 H   0  0  0  0  0  0
  -23.7209  -37.6402   23.6697 H   0  0  0  0  0  0
  -26.1974  -31.4351   20.6272 H   0  0  0  0  0  0
  -26.8899  -30.7283   22.0490 H   0  0  0  0  0  0
  -28.1374  -28.7031   21.2534 H   0  0  0  0  0  0
  -25.8450  -25.8165   19.0012 H   0  0  0  0  0  0
  -23.9678  -27.3065   18.9754 H   0  0  0  0  0  0
  -23.8459  -30.5716   19.4026 H   0  0  0  0  0  0
  -22.8003  -29.2493   19.8305 H   0  0  0  0  0  0
  -25.1305  -36.1828   25.0803 H   0  0  0  0  0  0
  -21.0039  -28.3353   24.1340 H   0  0  0  0  0  0
  -20.5730  -26.2357   23.3635 H   0  0  0  0  0  0
  -21.6673  -26.7443   22.1200 H   0  0  0  0  0  0
  -19.6930  -25.6285   21.1283 H   0  0  0  0  0  0
  -19.6712  -27.3172   20.6737 H   0  0  0  0  0  0
  -17.4232  -26.6706   21.4022 H   0  0  0  0  0  0
  -18.0332  -26.0101   22.9033 H   0  0  0  0  0  0
  -19.7966  -30.7329   24.2205 H   0  0  0  0  0  0
  -17.5031  -31.6267   24.5173 H   0  0  0  0  0  0
  -15.5373  -30.2962   23.7687 H   0  0  0  0  0  0
  -15.8717  -28.0817   22.7069 H   0  0  0  0  0  0
  -24.5853  -30.7189   25.7757 H   0  0  0  0  0  0
  -24.8955  -32.3018   26.4788 H   0  0  0  0  0  0
  -25.7971  -30.9006   27.0246 H   0  0  0  0  0  0
  -26.3065  -29.6623   24.1390 H   0  0  0  0  0  0
  -27.3947  -29.7250   25.5031 H   0  0  0  0  0  0
  -27.9009  -30.4101   23.9799 H   0  0  0  0  0  0
  -27.2662  -33.3642   26.2037 H   0  0  0  0  0  0
  -28.3915  -32.6861   25.0365 H   0  0  0  0  0  0
  -28.0714  -31.8492   26.5486 H   0  0  0  0  0  0
  -28.2577  -38.0078   24.7524 H   0  0  0  0  0  0
  -28.1079  -36.2614   24.6257 H   0  0  0  0  0  0
  -27.2304  -37.1387   25.8866 H   0  0  0  0  0  0
  -20.9522  -29.8753   21.6719 H   0  0  0  0  0  0
  -26.0141  -38.2789   24.1430 H   0  0  0  0  0  0
  -29.2647  -18.5880   22.4235 H   0  0  0  0  0  0
  -27.6100  -18.5516   21.8536 H   0  0  0  0  0  0
  -27.8310  -16.2856   21.0364 H   0  0  0  0  0  0
  -28.9236  -16.2192   22.4090 H   0  0  0  0  0  0
  -31.1827  -18.0145   20.4551 H   0  0  0  0  0  0
  -30.4218  -17.7105   18.9151 H   0  0  0  0  0  0
  -28.3255  -18.7567   19.5701 H   0  0  0  0  0  0
  -30.6446  -24.8208   19.8721 H   0  0  0  0  0  0
  -31.5255  -23.7368   18.7985 H   0  0  0  0  0  0
  -31.9011  -23.7731   20.5260 H   0  0  0  0  0  0
  -32.4745  -21.4710   19.5961 H   0  0  0  0  0  0
  -31.6971  -19.9824   19.1041 H   0  0  0  0  0  0
  -32.0676  -20.2704   20.8126 H   0  0  0  0  0  0
  -26.1108  -21.9917   20.3753 H   0  0  0  0  0  0
  -26.6613  -20.9109   21.6505 H   0  0  0  0  0  0
  -26.5540  -20.3389   19.9866 H   0  0  0  0  0  0
  -26.9602  -24.3264   20.8109 H   0  0  0  0  0  0
  -27.3560  -24.3572   19.1268 H   0  0  0  0  0  0
  1 25  1  0  0  0
  1 30  2  0  0  0
  1 84  1  0  0  0
  2  3  1  0  0  0
  2 25  1  0  0  0
  2 85  1  0  0  0
  2 86  1  0  0  0
  3  4  1  0  0  0
  3 87  1  0  0  0
  3 88  1  0  0  0
  4  5  1  0  0  0
  4 89  1  0  0  0
  4 90  1  0  0  0
  5  6  1  0  0  0
  5 26  1  0  0  0
  5 91  1  0  0  0
  6 25  1  0  0  0
  6 92  1  0  0  0
  6 93  1  0  0  0
  7  8  2  0  0  0
  7 26  1  0  0  0
  7 29  1  0  0  0
  8  9  1  0  0  0
  8 22  1  0  0  0
  9 10  1  0  0  0
  9 27  2  0  0  0
 10 11  2  0  0  0
 10 15  1  0  0  0
 11 12  1  0  0  0
 11 94  1  0  0  0
 12 13  2  0  0  0
 12 95  1  0  0  0
 13 14  1  0  0  0
 13 31  1  0  0  0
 14 15  2  0  0  0
 14 96  1  0  0  0
 15 97  1  0  0  0
 16 17  2  0  0  0
 16 21  1  0  0  0
 16 31  1  0  0  0
 17 18  1  0  0  0
 17 98  1  0  0  0
 18 19  2  0  0  0
 18 99  1  0  0  0
 19 20  1  0  0  0
 19 24  1  0  0  0
 20 21  2  0  0  0
 20100  1  0  0  0
 21 23  1  0  0  0
 22 28  1  0  0  0
 22 32  2  0  0  0
 26 27  1  0  0  0
 28101  1  0  0  0
 28102  1  0  0  0
 29103  1  0  0  0
 29104  1  0  0  0
 33 34  1  0  0  0
 33 66  1  0  0  0
 33 70  2  0  0  0
 34 36  1  0  0  0
 34 59  1  0  0  0
 34105  1  0  0  0
 35 44  2  0  0  0
 35 45  1  0  0  0
 35 68  1  0  0  0
 36 56  1  0  0  0
 36106  1  0  0  0
 37 39  1  0  0  0
 37 47  1  0  0  0
 37 66  1  0  0  0
 37107  1  0  0  0
 38 43  2  0  0  0
 38 46  1  0  0  0
 38 47  1  0  0  0
 39 64  1  0  0  0
 39 67  2  0  0  0
 40 52  1  0  0  0
 40 53  2  0  0  0
 40 58  1  0  0  0
 41108  1  0  0  0
 41109  1  0  0  0
 41110  1  0  0  0
 41 48  1  0  0  0
 42 43  1  0  0  0
 42 66  1  0  0  0
 42111  1  0  0  0
 42112  1  0  0  0
 43 44  1  0  0  0
 44113  1  0  0  0
 45 46  2  0  0  0
 45114  1  0  0  0
 46115  1  0  0  0
 47116  1  0  0  0
 47117  1  0  0  0
 48 56  1  0  0  0
 48 65  1  0  0  0
 48118  1  0  0  0
 49 50  1  0  0  0
 49 53  1  0  0  0
 49 64  1  0  0  0
 49119  1  0  0  0
 50 51  1  0  0  0
 50120  1  0  0  0
 50121  1  0  0  0
 51 52  1  0  0  0
 51122  1  0  0  0
 51123  1  0  0  0
 52124  1  0  0  0
 52125  1  0  0  0
 53 54  1  0  0  0
 54 55  2  0  0  0
 54126  1  0  0  0
 55 57  1  0  0  0
 55127  1  0  0  0
 56 69  2  0  0  0
 57 58  2  0  0  0
 57128  1  0  0  0
 58129  1  0  0  0
 59 60  1  0  0  0
 59 61  1  0  0  0
 59 62  1  0  0  0
 60130  1  0  0  0
 60131  1  0  0  0
 60132  1  0  0  0
 61133  1  0  0  0
 61134  1  0  0  0
 61135  1  0  0  0
 62136  1  0  0  0
 62137  1  0  0  0
 62138  1  0  0  0
 63 65  1  0  0  0
 63139  1  0  0  0
 63140  1  0  0  0
 63141  1  0  0  0
 64142  1  0  0  0
 65143  1  0  0  0
 68 82  1  0  0  0
 71 72  1  0  0  0
 71 73  2  0  0  0
 71 79  1  0  0  0
 72 74  2  0  0  0
 72 82  1  0  0  0
 73 80  1  0  0  0
 73 83  1  0  0  0
 74 81  1  0  0  0
 74 83  1  0  0  0
 75 76  1  0  0  0
 75 78  1  0  0  0
 75144  1  0  0  0
 75145  1  0  0  0
 76 84  1  0  0  0
 76146  1  0  0  0
 76147  1  0  0  0
 77 78  1  0  0  0
 77 84  1  0  0  0
 77148  1  0  0  0
 77149  1  0  0  0
 78 83  1  0  0  0
 78150  1  0  0  0
 79151  1  0  0  0
 79152  1  0  0  0
 79153  1  0  0  0
 80154  1  0  0  0
 80155  1  0  0  0
 80156  1  0  0  0
 81157  1  0  0  0
 81158  1  0  0  0
 81159  1  0  0  0
 82160  1  0  0  0
 82161  1  0  0  0
M  ISO  4   1 100  68 101  82 101  84 100
M  END
> <chiral flag>
0

> <version>
0

> <s_m_source_file>
/data/baiqing/PycharmProjects/Reinvent-master-3.2/result/LINK_invent/BTK/process_docking_weight1_custom_sum_contain_oxygen_bond_distance_aromatic_linkinvent_7_9_3/rearranged_h_0170.sdf

> <i_m_source_file_index>
65

> <r_mmod_Potential_Energy-OPLS-2005>
879.627014160156

> <r_mmod_Stretch_Energy-OPLS-2005>
333.214782714844

> <r_mmod_Bend_Energy-OPLS-2005>
353.763793945312

> <r_mmod_Torsional_Energy-OPLS-2005>
336.918090820312

> <r_mmod_Improper_Torsional_Energy-OPLS-2005>
9.93753337860107

> <r_mmod_Van_der_Waal_Energy-OPLS-2005>
101.76921081543

> <r_mmod_Electrostatic_Energy-OPLS-2005>
-313.949981689453

> <r_mmod_Solvation_Energy-OPLS-2005>
-213.905471801758

> <b_mmod_Minimization_Converged-OPLS-2005>
0

> <r_mmod_RMS_Derivative-OPLS-2005>
2.75621867179871

$$$$
66
                    3D
 Structure written by MMmdl.
175185  0  0  1  0            999 V2000
  -30.6686  -14.6327   20.5151 C   0  0  0  0  0  0
  -30.4262  -12.3973   19.4601 C   0  0  0  0  0  0
  -29.5056  -12.5111   18.2259 C   0  0  0  0  0  0
  -28.0285  -12.3490   18.6352 C   0  0  0  0  0  0
  -27.6479  -13.2281   19.8577 C   0  0  2  0  0  0
  -28.6922  -13.1136   20.9919 C   0  0  0  0  0  0
  -25.2523  -13.8188   20.5694 C   0  0  0  0  0  0
  -24.1807  -13.0434   20.9195 C   0  0  0  0  0  0
  -24.6387  -11.6915   20.8736 C   0  0  0  0  0  0
  -23.9059  -10.4295   21.0393 C   0  0  0  0  0  0
  -24.3614   -9.4213   21.9172 C   0  0  0  0  0  0
  -23.6295   -8.2246   22.0744 C   0  0  0  0  0  0
  -22.4274   -8.0276   21.3541 C   0  0  0  0  0  0
  -21.9907   -9.0247   20.4642 C   0  0  0  0  0  0
  -22.7230  -10.2129   20.3045 C   0  0  0  0  0  0
  -21.6852   -6.0733   22.5282 C   0  0  0  0  0  0
  -21.4009   -6.5632   23.8216 C   0  0  0  0  0  0
  -21.3661   -5.6779   24.9177 C   0  0  0  0  0  0
  -21.6051   -4.3044   24.7221 C   0  0  0  0  0  0
  -21.8819   -3.8138   23.4340 C   0  0  0  0  0  0
  -21.9193   -4.6962   22.3403 C   0  0  0  0  0  0
  -22.7829  -13.5229   21.1866 C   0  0  0  0  0  0
  -22.1664   -4.2148   21.0980 F   0  0  0  0  0  0
  -21.5635   -3.4527   25.7733 F   0  0  0  0  0  0
  -30.0071  -13.4375   20.4219 N   0  0  0  0  0  0
  -26.2960  -12.9400   20.3298 N   0  0  0  0  0  0
  -25.9318  -11.6543   20.5743 N   0  0  0  0  0  0
  -22.0472  -12.8225   22.0422 N   0  0  0  0  0  0
  -25.4204  -15.1912   20.4116 N   0  0  0  0  0  0
  -31.8401  -14.7432   20.1490 O   0  0  0  0  0  0
  -21.6642   -6.8874   21.4239 O   0  0  0  0  0  0
  -22.3522  -14.5543   20.6711 O   0  0  0  0  0  0
  -24.6271  -31.8599   23.2039 C   0  0  0  0  0  0
  -25.9119  -32.4779   23.8365 C   0  0  1  0  0  0
  -27.2199  -27.3204   20.1209 C   0  0  0  0  0  0
  -25.5938  -33.8581   24.2291 N   0  0  0  0  0  0
  -23.4218  -30.4857   21.5446 C   0  0  2  0  0  0
  -24.8708  -28.9456   20.1070 C   0  0  0  0  0  0
  -22.7484  -29.4628   22.4915 C   0  0  0  0  0  0
  -18.0294  -28.1391   22.8480 C   0  0  0  0  0  0
  -24.1486  -36.7279   23.2639 C   0  0  0  0  0  0
  -25.9647  -30.7912   21.3778 C   0  0  0  0  0  0
  -26.0399  -29.4209   20.7163 C   0  0  0  0  0  0
  -27.2219  -28.6197   20.7145 C   0  0  0  0  0  0
  -26.0372  -26.9115   19.4653 C   0  0  0  0  0  0
  -24.8706  -27.6956   19.4713 C   0  0  0  0  0  0
  -23.6379  -29.8244   20.1588 C   0  0  0  0  0  0
  -25.4111  -36.3085   24.0338 C   0  0  1  0  0  0
  -20.5896  -28.3693   23.1276 C   0  0  2  0  0  0
  -20.6775  -26.9405   22.5426 C   0  0  0  0  0  0
  -19.5768  -26.6379   21.5216 C   0  0  0  0  0  0
  -18.1938  -26.7942   22.1600 C   0  0  0  0  0  0
  -19.1546  -28.8858   23.2878 C   0  0  0  0  0  0
  -18.9465  -30.1457   23.8900 C   0  0  0  0  0  0
  -17.6464  -30.6586   24.0571 C   0  0  0  0  0  0
  -25.9052  -34.9452   23.5111 C   0  0  0  0  0  0
  -16.5352  -29.9086   23.6336 C   0  0  0  0  0  0
  -16.7279  -28.6508   23.0347 C   0  0  0  0  0  0
  -26.4493  -31.6592   25.0738 C   0  0  0  0  0  0
  -25.3718  -31.3760   26.1464 C   0  0  0  0  0  0
  -27.0308  -30.2994   24.6212 C   0  0  0  0  0  0
  -27.6070  -32.4318   25.7486 C   0  0  0  0  0  0
  -27.5591  -37.1786   24.8458 C   0  0  0  0  0  0
  -21.4198  -29.3038   22.3656 N   0  0  0  0  0  0
  -26.4284  -37.3785   23.9429 N   0  0  0  0  0  0
  -24.6895  -31.0614   22.0988 N   0  0  0  0  0  0
  -23.4204  -28.8156   23.2989 O   0  0  0  0  0  0
  -28.2901  -26.4148   20.1893 O   0  0  0  0  0  0
  -26.5610  -34.8916   22.4669 O   0  0  0  0  0  0
  -23.5432  -32.1390   23.7369 O   0  0  0  0  0  0
  -30.1936  -22.0341   21.5713 C   0  0  0  0  0  0
  -29.7468  -23.4323   21.5592 C   0  0  0  0  0  0
  -29.5750  -21.0196   20.9102 C   0  0  0  0  0  0
  -28.7803  -23.8067   20.6812 C   0  0  0  0  0  0
  -28.4854  -21.4270   19.9843 C   0  0  0  0  0  0
  -29.5385  -24.7351   23.8312 C   0  0  0  0  0  0
  -30.7972  -23.9230   23.9360 C   0  0  0  0  0  0
  -29.4936  -18.3628   20.4419 C   0  0  0  0  0  0
  -30.9619  -19.2066   22.0702 C   0  0  0  0  0  0
  -30.3062  -24.3790   22.5727 C   0  0  0  0  0  0
  -30.4576  -17.1789   20.8639 C   0  0  1  0  0  0
  -30.8449  -17.6783   22.2559 C   0  0  1  0  0  0
  -26.0115  -22.9622   18.6476 C   0  0  0  0  0  0
  -28.1757  -22.8024   17.2749 C   0  0  0  0  0  0
  -27.9354  -25.1392   20.8578 C   0  0  0  0  0  0
  -27.5226  -23.2634   18.5957 C   0  0  0  0  0  0
  -29.9563  -19.6343   21.0885 N   0  0  0  0  0  0
  -28.2590  -22.7919   19.8024 N   0  0  0  0  0  0
  -29.9564  -15.7505   20.8634 N   0  0  0  0  0  0
  -32.0597  -17.0508   22.8063 N   0  3  0  0  0  0
  -27.8406  -20.5763   19.3625 O   0  0  0  0  0  0
  -31.4712  -12.5034   19.1638 H   0  0  0  0  0  0
  -30.3444  -11.4083   19.9129 H   0  0  0  0  0  0
  -29.7755  -11.7592   17.4826 H   0  0  0  0  0  0
  -29.6485  -13.4802   17.7438 H   0  0  0  0  0  0
  -27.8682  -11.2968   18.8716 H   0  0  0  0  0  0
  -27.3752  -12.5718   17.7912 H   0  0  0  0  0  0
  -27.6572  -14.2604   19.5064 H   0  0  0  0  0  0
  -28.7009  -12.1045   21.4065 H   0  0  0  0  0  0
  -28.4405  -13.7769   21.8202 H   0  0  0  0  0  0
  -25.2761   -9.5699   22.4744 H   0  0  0  0  0  0
  -24.0014   -7.4638   22.7451 H   0  0  0  0  0  0
  -21.0845   -8.8752   19.8946 H   0  0  0  0  0  0
  -22.3679  -10.9660   19.6153 H   0  0  0  0  0  0
  -21.1988   -7.6138   23.9722 H   0  0  0  0  0  0
  -21.1490   -6.0506   25.9082 H   0  0  0  0  0  0
  -22.0597   -2.7599   23.2833 H   0  0  0  0  0  0
  -22.4074  -11.9886   22.4820 H   0  0  0  0  0  0
  -21.1077  -13.1251   22.2609 H   0  0  0  0  0  0
  -24.6450  -15.8378   20.5093 H   0  0  0  0  0  0
  -26.2628  -15.6333   20.0672 H   0  0  0  0  0  0
  -26.7186  -32.5447   23.1116 H   0  0  0  0  0  0
  -25.0131  -33.9728   25.0466 H   0  0  0  0  0  0
  -22.7171  -31.3077   21.4029 H   0  0  0  0  0  0
  -23.3769  -35.9591   23.3280 H   0  0  0  0  0  0
  -24.3590  -36.8913   22.2056 H   0  0  0  0  0  0
  -23.7198  -37.6461   23.6663 H   0  0  0  0  0  0
  -26.1032  -31.5580   20.6145 H   0  0  0  0  0  0
  -26.8421  -30.8340   22.0110 H   0  0  0  0  0  0
  -28.1158  -28.9737   21.2083 H   0  0  0  0  0  0
  -25.9965  -25.9567   18.9625 H   0  0  0  0  0  0
  -23.9768  -27.3305   18.9832 H   0  0  0  0  0  0
  -23.7564  -30.6034   19.4051 H   0  0  0  0  0  0
  -22.7582  -29.2544   19.8538 H   0  0  0  0  0  0
  -25.1288  -36.1937   25.0829 H   0  0  0  0  0  0
  -20.9998  -28.3270   24.1391 H   0  0  0  0  0  0
  -20.5644  -26.2302   23.3636 H   0  0  0  0  0  0
  -21.6647  -26.7415   22.1239 H   0  0  0  0  0  0
  -19.6927  -25.6286   21.1250 H   0  0  0  0  0  0
  -19.6733  -27.3178   20.6739 H   0  0  0  0  0  0
  -17.4226  -26.6724   21.3980 H   0  0  0  0  0  0
  -18.0304  -26.0069   22.8975 H   0  0  0  0  0  0
  -19.7939  -30.7275   24.2266 H   0  0  0  0  0  0
  -17.5018  -31.6266   24.5172 H   0  0  0  0  0  0
  -15.5353  -30.2987   23.7668 H   0  0  0  0  0  0
  -15.8680  -28.0833   22.7054 H   0  0  0  0  0  0
  -24.5969  -30.6994   25.7840 H   0  0  0  0  0  0
  -24.8813  -32.2922   26.4764 H   0  0  0  0  0  0
  -25.8057  -30.9085   27.0313 H   0  0  0  0  0  0
  -26.2873  -29.6761   24.1227 H   0  0  0  0  0  0
  -27.3954  -29.7245   25.4734 H   0  0  0  0  0  0
  -27.8778  -30.4240   23.9463 H   0  0  0  0  0  0
  -27.2706  -33.3630   26.2057 H   0  0  0  0  0  0
  -28.3879  -32.6851   25.0304 H   0  0  0  0  0  0
  -28.0737  -31.8443   26.5404 H   0  0  0  0  0  0
  -28.2592  -38.0098   24.7539 H   0  0  0  0  0  0
  -28.1097  -36.2638   24.6221 H   0  0  0  0  0  0
  -27.2336  -37.1363   25.8866 H   0  0  0  0  0  0
  -20.9369  -29.8761   21.6872 H   0  0  0  0  0  0
  -26.0167  -38.2853   24.1472 H   0  0  0  0  0  0
  -31.0235  -21.8042   22.2207 H   0  0  0  0  0  0
  -29.5785  -25.7717   24.1639 H   0  0  0  0  0  0
  -28.5978  -24.2200   24.0200 H   0  0  0  0  0  0
  -30.6816  -22.8793   24.2234 H   0  0  0  0  0  0
  -31.6767  -24.4174   24.3434 H   0  0  0  0  0  0
  -28.4725  -18.1571   20.7672 H   0  0  0  0  0  0
  -29.4708  -18.4634   19.3554 H   0  0  0  0  0  0
  -31.9491  -19.4806   21.6924 H   0  0  0  0  0  0
  -30.8275  -19.7058   23.0311 H   0  0  0  0  0  0
  -30.8733  -25.1830   22.1048 H   0  0  0  0  0  0
  -31.3330  -17.2461   20.2145 H   0  0  0  0  0  0
  -30.0211  -17.4814   22.9455 H   0  0  0  0  0  0
  -25.4888  -23.4639   17.8319 H   0  0  0  0  0  0
  -25.5659  -23.3043   19.5811 H   0  0  0  0  0  0
  -25.8005  -21.8969   18.5565 H   0  0  0  0  0  0
  -27.7173  -23.3003   16.4201 H   0  0  0  0  0  0
  -28.0779  -21.7297   17.1065 H   0  0  0  0  0  0
  -29.2386  -23.0482   17.2592 H   0  0  0  0  0  0
  -27.8950  -25.3731   21.9188 H   0  0  0  0  0  0
  -26.9018  -24.8634   20.6608 H   0  0  0  0  0  0
  -27.6146  -24.3451   18.5308 H   0  0  0  0  0  0
  -28.9887  -15.6053   21.1101 H   0  0  0  0  0  0
  -32.8452  -17.1754   22.1936 H   0  0  0  0  0  0
  -31.9151  -16.0671   22.9410 H   0  0  0  0  0  0
  -32.2837  -17.4548   23.6982 H   0  0  0  0  0  0
  1 25  1  0  0  0
  1 30  2  0  0  0
  1 89  1  0  0  0
  2  3  1  0  0  0
  2 25  1  0  0  0
  2 92  1  0  0  0
  2 93  1  0  0  0
  3  4  1  0  0  0
  3 94  1  0  0  0
  3 95  1  0  0  0
  4  5  1  0  0  0
  4 96  1  0  0  0
  4 97  1  0  0  0
  5  6  1  0  0  0
  5 26  1  0  0  0
  5 98  1  0  0  0
  6 25  1  0  0  0
  6 99  1  0  0  0
  6100  1  0  0  0
  7  8  2  0  0  0
  7 26  1  0  0  0
  7 29  1  0  0  0
  8  9  1  0  0  0
  8 22  1  0  0  0
  9 10  1  0  0  0
  9 27  2  0  0  0
 10 11  2  0  0  0
 10 15  1  0  0  0
 11 12  1  0  0  0
 11101  1  0  0  0
 12 13  2  0  0  0
 12102  1  0  0  0
 13 14  1  0  0  0
 13 31  1  0  0  0
 14 15  2  0  0  0
 14103  1  0  0  0
 15104  1  0  0  0
 16 17  2  0  0  0
 16 21  1  0  0  0
 16 31  1  0  0  0
 17 18  1  0  0  0
 17105  1  0  0  0
 18 19  2  0  0  0
 18106  1  0  0  0
 19 20  1  0  0  0
 19 24  1  0  0  0
 20 21  2  0  0  0
 20107  1  0  0  0
 21 23  1  0  0  0
 22 28  1  0  0  0
 22 32  2  0  0  0
 26 27  1  0  0  0
 28108  1  0  0  0
 28109  1  0  0  0
 29110  1  0  0  0
 29111  1  0  0  0
 33 34  1  0  0  0
 33 66  1  0  0  0
 33 70  2  0  0  0
 34 36  1  0  0  0
 34 59  1  0  0  0
 34112  1  0  0  0
 35 44  2  0  0  0
 35 45  1  0  0  0
 35 68  1  0  0  0
 36 56  1  0  0  0
 36113  1  0  0  0
 37 39  1  0  0  0
 37 47  1  0  0  0
 37 66  1  0  0  0
 37114  1  0  0  0
 38 43  2  0  0  0
 38 46  1  0  0  0
 38 47  1  0  0  0
 39 64  1  0  0  0
 39 67  2  0  0  0
 40 52  1  0  0  0
 40 53  2  0  0  0
 40 58  1  0  0  0
 41115  1  0  0  0
 41116  1  0  0  0
 41117  1  0  0  0
 41 48  1  0  0  0
 42 43  1  0  0  0
 42 66  1  0  0  0
 42118  1  0  0  0
 42119  1  0  0  0
 43 44  1  0  0  0
 44120  1  0  0  0
 45 46  2  0  0  0
 45121  1  0  0  0
 46122  1  0  0  0
 47123  1  0  0  0
 47124  1  0  0  0
 48 56  1  0  0  0
 48 65  1  0  0  0
 48125  1  0  0  0
 49 50  1  0  0  0
 49 53  1  0  0  0
 49 64  1  0  0  0
 49126  1  0  0  0
 50 51  1  0  0  0
 50127  1  0  0  0
 50128  1  0  0  0
 51 52  1  0  0  0
 51129  1  0  0  0
 51130  1  0  0  0
 52131  1  0  0  0
 52132  1  0  0  0
 53 54  1  0  0  0
 54 55  2  0  0  0
 54133  1  0  0  0
 55 57  1  0  0  0
 55134  1  0  0  0
 56 69  2  0  0  0
 57 58  2  0  0  0
 57135  1  0  0  0
 58136  1  0  0  0
 59 60  1  0  0  0
 59 61  1  0  0  0
 59 62  1  0  0  0
 60137  1  0  0  0
 60138  1  0  0  0
 60139  1  0  0  0
 61140  1  0  0  0
 61141  1  0  0  0
 61142  1  0  0  0
 62143  1  0  0  0
 62144  1  0  0  0
 62145  1  0  0  0
 63 65  1  0  0  0
 63146  1  0  0  0
 63147  1  0  0  0
 63148  1  0  0  0
 64149  1  0  0  0
 65150  1  0  0  0
 68 85  1  0  0  0
 71 72  1  0  0  0
 71 73  2  0  0  0
 71151  1  0  0  0
 72 74  2  0  0  0
 72 80  1  0  0  0
 73 75  1  0  0  0
 73 87  1  0  0  0
 74 85  1  0  0  0
 74 88  1  0  0  0
 75 88  1  0  0  0
 75 91  2  0  0  0
 76 77  1  0  0  0
 76 80  1  0  0  0
 76152  1  0  0  0
 76153  1  0  0  0
 77 80  1  0  0  0
 77154  1  0  0  0
 77155  1  0  0  0
 78 81  1  0  0  0
 78 87  1  0  0  0
 78156  1  0  0  0
 78157  1  0  0  0
 79 82  1  0  0  0
 79 87  1  0  0  0
 79158  1  0  0  0
 79159  1  0  0  0
 80160  1  0  0  0
 81 82  1  0  0  0
 81 89  1  0  0  0
 81161  1  0  0  0
 82 90  1  0  0  0
 82162  1  0  0  0
 83163  1  0  0  0
 83164  1  0  0  0
 83165  1  0  0  0
 83 86  1  0  0  0
 84 86  1  0  0  0
 84166  1  0  0  0
 84167  1  0  0  0
 84168  1  0  0  0
 85169  1  0  0  0
 85170  1  0  0  0
 86 88  1  0  0  0
 86171  1  0  0  0
 89172  1  0  0  0
 90173  1  0  0  0
 90174  1  0  0  0
 90175  1  0  0  0
M  CHG  1  90   1
M  ISO  4   1 100  68 101  85 101  89 100
M  END
> <chiral flag>
0

> <version>
0

> <s_m_source_file>
/data/baiqing/PycharmProjects/Reinvent-master-3.2/result/LINK_invent/BTK/process_docking_weight1_custom_sum_contain_oxygen_bond_distance_aromatic_linkinvent_7_9_3/rearranged_h_0170.sdf

> <i_m_source_file_index>
66

> <r_mmod_Potential_Energy-OPLS-2005>
-8.84528064727783

> <r_mmod_Stretch_Energy-OPLS-2005>
100.141227722168

> <r_mmod_Bend_Energy-OPLS-2005>
183.714538574219

> <r_mmod_Torsional_Energy-OPLS-2005>
360.645904541016

> <r_mmod_Improper_Torsional_Energy-OPLS-2005>
4.78136730194092

> <r_mmod_Van_der_Waal_Energy-OPLS-2005>
158.593246459961

> <r_mmod_Electrostatic_Energy-OPLS-2005>
-352.169219970703

> <r_mmod_Solvation_Energy-OPLS-2005>
-518.472778320312

> <b_mmod_Minimization_Converged-OPLS-2005>
0

> <r_mmod_RMS_Derivative-OPLS-2005>
1.47402131557465

$$$$
67
                    3D
 Structure written by MMmdl.
184194  0  0  1  0            999 V2000
  -30.7395  -14.4378   20.4097 C   0  0  0  0  0  0
  -30.4007  -12.2362   19.4187 C   0  0  0  0  0  0
  -29.4710  -12.3926   18.1957 C   0  0  0  0  0  0
  -27.9968  -12.3084   18.6291 C   0  0  0  0  0  0
  -27.6528  -13.2065   19.8510 C   0  0  2  0  0  0
  -28.7099  -13.0659   20.9716 C   0  0  0  0  0  0
  -25.2573  -13.8186   20.5695 C   0  0  0  0  0  0
  -24.1819  -13.0431   20.9204 C   0  0  0  0  0  0
  -24.6398  -11.6920   20.8793 C   0  0  0  0  0  0
  -23.9075  -10.4286   21.0465 C   0  0  0  0  0  0
  -24.3625   -9.4183   21.9223 C   0  0  0  0  0  0
  -23.6294   -8.2221   22.0771 C   0  0  0  0  0  0
  -22.4279   -8.0273   21.3555 C   0  0  0  0  0  0
  -21.9929   -9.0255   20.4661 C   0  0  0  0  0  0
  -22.7265  -10.2131   20.3093 C   0  0  0  0  0  0
  -21.6838   -6.0731   22.5278 C   0  0  0  0  0  0
  -21.4012   -6.5647   23.8206 C   0  0  0  0  0  0
  -21.3658   -5.6816   24.9182 C   0  0  0  0  0  0
  -21.6046   -4.3078   24.7238 C   0  0  0  0  0  0
  -21.8816   -3.8149   23.4370 C   0  0  0  0  0  0
  -21.9186   -4.6956   22.3416 C   0  0  0  0  0  0
  -22.7832  -13.5192   21.1866 C   0  0  0  0  0  0
  -22.1641   -4.2132   21.0996 F   0  0  0  0  0  0
  -21.5638   -3.4573   25.7756 F   0  0  0  0  0  0
  -30.0315  -13.2851   20.3745 N   0  0  0  0  0  0
  -26.3007  -12.9363   20.3375 N   0  0  0  0  0  0
  -25.9322  -11.6534   20.5847 N   0  0  0  0  0  0
  -22.0487  -12.8155   22.0430 N   0  0  0  0  0  0
  -25.4314  -15.1891   20.4076 N   0  0  0  0  0  0
  -31.9706  -14.4589   20.3464 O   0  0  0  0  0  0
  -21.6639   -6.8874   21.4240 O   0  0  0  0  0  0
  -22.3495  -14.5487   20.6724 O   0  0  0  0  0  0
  -24.6082  -31.8704   23.2159 C   0  0  0  0  0  0
  -25.9000  -32.4840   23.8429 C   0  0  1  0  0  0
  -27.2400  -27.4915   20.0865 C   0  0  0  0  0  0
  -25.5871  -33.8646   24.2341 N   0  0  0  0  0  0
  -23.3924  -30.4931   21.5567 C   0  0  2  0  0  0
  -24.8399  -28.9608   20.1239 C   0  0  0  0  0  0
  -22.7372  -29.4660   22.5051 C   0  0  0  0  0  0
  -18.0236  -28.1375   22.8489 C   0  0  0  0  0  0
  -24.1468  -36.7332   23.2645 C   0  0  0  0  0  0
  -25.9116  -30.8569   21.3532 C   0  0  0  0  0  0
  -25.9940  -29.4892   20.7150 C   0  0  0  0  0  0
  -27.1964  -28.7578   20.7042 C   0  0  0  0  0  0
  -26.0691  -26.9472   19.5215 C   0  0  0  0  0  0
  -24.8664  -27.6822   19.5332 C   0  0  0  0  0  0
  -23.5975  -29.8217   20.1727 C   0  0  0  0  0  0
  -25.4085  -36.3115   24.0329 C   0  0  1  0  0  0
  -20.5829  -28.3642   23.1348 C   0  0  2  0  0  0
  -20.6721  -26.9383   22.5433 C   0  0  0  0  0  0
  -19.5713  -26.6380   21.5209 C   0  0  0  0  0  0
  -18.1890  -26.7922   22.1618 C   0  0  0  0  0  0
  -19.1491  -28.8814   23.2920 C   0  0  0  0  0  0
  -18.9431  -30.1422   23.8916 C   0  0  0  0  0  0
  -17.6442  -30.6585   24.0550 C   0  0  0  0  0  0
  -25.9028  -34.9490   23.5141 C   0  0  0  0  0  0
  -16.5328  -29.9084   23.6325 C   0  0  0  0  0  0
  -16.7229  -28.6502   23.0347 C   0  0  0  0  0  0
  -26.4486  -31.6608   25.0733 C   0  0  0  0  0  0
  -25.3775  -31.3648   26.1484 C   0  0  0  0  0  0
  -27.0329  -30.3068   24.6030 C   0  0  0  0  0  0
  -27.6042  -32.4349   25.7503 C   0  0  0  0  0  0
  -27.5563  -37.1810   24.8469 C   0  0  0  0  0  0
  -21.4106  -29.3016   22.3776 N   0  0  0  0  0  0
  -26.4271  -37.3796   23.9423 N   0  0  0  0  0  0
  -24.6558  -31.0880   22.1015 N   0  0  0  0  0  0
  -23.4161  -28.8190   23.3062 O   0  0  0  0  0  0
  -28.4107  -26.7868   20.0017 O   0  0  0  0  0  0
  -26.5608  -34.8926   22.4712 O   0  0  0  0  0  0
  -23.5297  -32.1437   23.7587 O   0  0  0  0  0  0
  -30.8936  -22.9799   19.5535 C   0  0  0  0  0  0
  -28.9432  -22.5303   18.1149 C   0  0  0  0  0  0
  -29.4791  -16.5235   20.6256 C   0  0  0  0  0  0
  -30.7059  -15.9121   18.5514 C   0  0  0  0  0  0
  -28.9747  -17.7633   19.8273 C   0  0  0  0  0  0
  -29.8684  -16.9421   17.8237 C   0  0  0  0  0  0
  -30.9435  -24.4307   19.0455 C   0  0  0  0  0  0
  -28.9891  -23.9848   17.5984 C   0  0  0  0  0  0
  -30.6755  -19.5347   16.8527 C   0  0  0  0  0  0
  -31.2888  -21.8580   17.3013 C   0  0  0  0  0  0
  -30.1725  -20.5343   19.1672 C   0  0  2  0  0  0
  -29.7679  -19.4328   18.1175 C   0  0  2  0  0  0
  -30.3331  -21.9640   18.5228 C   0  0  1  0  0  0
  -31.4061  -20.1118   20.0193 C   0  0  0  0  0  0
  -30.5805  -27.9064   19.8838 C   0  0  0  0  0  0
  -29.6898  -26.3087   18.0392 C   0  0  0  0  0  0
  -29.3676  -27.3665   19.1107 C   0  0  1  0  0  0
  -30.0869  -15.4556   19.8084 N   0  0  0  0  0  0
  -29.8902  -18.0902   18.7245 N   0  0  0  0  0  0
  -30.7717  -20.8979   16.3173 N   0  3  0  0  0  0
  -29.6256  -24.9177   18.5663 N   0  3  2  0  0  0
  -31.4486  -12.2878   19.1143 H   0  0  0  0  0  0
  -30.2627  -11.2551   19.8748 H   0  0  0  0  0  0
  -29.6792  -11.6037   17.4698 H   0  0  0  0  0  0
  -29.6443  -13.3304   17.6731 H   0  0  0  0  0  0
  -27.8047  -11.2629   18.8803 H   0  0  0  0  0  0
  -27.3407  -12.5397   17.7894 H   0  0  0  0  0  0
  -27.6762  -14.2360   19.4938 H   0  0  0  0  0  0
  -28.6668  -12.0720   21.4185 H   0  0  0  0  0  0
  -28.5277  -13.7772   21.7788 H   0  0  0  0  0  0
  -25.2777   -9.5627   22.4798 H   0  0  0  0  0  0
  -23.9997   -7.4599   22.7476 H   0  0  0  0  0  0
  -21.0877   -8.8787   19.8948 H   0  0  0  0  0  0
  -22.3757  -10.9678   19.6204 H   0  0  0  0  0  0
  -21.2008   -7.6155   23.9697 H   0  0  0  0  0  0
  -21.1482   -6.0565   25.9081 H   0  0  0  0  0  0
  -22.0598   -2.7606   23.2890 H   0  0  0  0  0  0
  -22.4121  -11.9811   22.4789 H   0  0  0  0  0  0
  -21.1099  -13.1136   22.2639 H   0  0  0  0  0  0
  -24.6762  -15.8539   20.5327 H   0  0  0  0  0  0
  -26.2943  -15.6219   20.1045 H   0  0  0  0  0  0
  -26.7071  -32.5599   23.1207 H   0  0  0  0  0  0
  -24.9946  -33.9811   25.0430 H   0  0  0  0  0  0
  -22.6782  -31.3078   21.4209 H   0  0  0  0  0  0
  -23.3722  -35.9687   23.3327 H   0  0  0  0  0  0
  -24.3550  -36.8956   22.2062 H   0  0  0  0  0  0
  -23.7241  -37.6539   23.6669 H   0  0  0  0  0  0
  -25.9970  -31.6158   20.5747 H   0  0  0  0  0  0
  -26.8098  -30.9306   21.9538 H   0  0  0  0  0  0
  -28.0855  -29.1688   21.1570 H   0  0  0  0  0  0
  -26.0904  -25.9699   19.0597 H   0  0  0  0  0  0
  -23.9730  -27.2650   19.0884 H   0  0  0  0  0  0
  -23.6965  -30.5959   19.4126 H   0  0  0  0  0  0
  -22.7236  -29.2376   19.8813 H   0  0  0  0  0  0
  -25.1260  -36.1980   25.0818 H   0  0  0  0  0  0
  -20.9884  -28.3195   24.1480 H   0  0  0  0  0  0
  -20.5596  -26.2252   23.3615 H   0  0  0  0  0  0
  -21.6600  -26.7400   22.1252 H   0  0  0  0  0  0
  -19.6892  -25.6293   21.1224 H   0  0  0  0  0  0
  -19.6672  -27.3210   20.6755 H   0  0  0  0  0  0
  -17.4155  -26.6656   21.4022 H   0  0  0  0  0  0
  -18.0292  -26.0059   22.9005 H   0  0  0  0  0  0
  -19.7905  -30.7221   24.2322 H   0  0  0  0  0  0
  -17.4991  -31.6271   24.5150 H   0  0  0  0  0  0
  -15.5332  -30.2996   23.7625 H   0  0  0  0  0  0
  -15.8624  -28.0816   22.7064 H   0  0  0  0  0  0
  -24.5939  -30.7012   25.7809 H   0  0  0  0  0  0
  -24.8972  -32.2776   26.5009 H   0  0  0  0  0  0
  -25.8150  -30.8756   27.0192 H   0  0  0  0  0  0
  -26.2839  -29.6801   24.1151 H   0  0  0  0  0  0
  -27.4235  -29.7309   25.4441 H   0  0  0  0  0  0
  -27.8613  -30.4458   23.9070 H   0  0  0  0  0  0
  -27.2623  -33.3619   26.2108 H   0  0  0  0  0  0
  -28.3817  -32.6952   25.0319 H   0  0  0  0  0  0
  -28.0735  -31.8467   26.5398 H   0  0  0  0  0  0
  -28.2566  -38.0112   24.7485 H   0  0  0  0  0  0
  -28.1048  -36.2630   24.6300 H   0  0  0  0  0  0
  -27.2278  -37.1477   25.8871 H   0  0  0  0  0  0
  -20.9272  -29.8771   21.7028 H   0  0  0  0  0  0
  -26.0157  -38.2874   24.1442 H   0  0  0  0  0  0
  -30.3017  -22.9357   20.4691 H   0  0  0  0  0  0
  -31.9126  -22.7247   19.8401 H   0  0  0  0  0  0
  -28.4638  -21.9049   17.3622 H   0  0  0  0  0  0
  -28.2737  -22.4991   18.9756 H   0  0  0  0  0  0
  -28.6554  -16.1137   21.2117 H   0  0  0  0  0  0
  -30.2236  -16.8592   21.3502 H   0  0  0  0  0  0
  -31.6879  -16.3498   18.7529 H   0  0  0  0  0  0
  -30.8990  -15.0747   17.8814 H   0  0  0  0  0  0
  -28.8716  -18.5958   20.5245 H   0  0  0  0  0  0
  -27.9738  -17.5816   19.4313 H   0  0  0  0  0  0
  -28.8583  -16.5904   17.6008 H   0  0  0  0  0  0
  -30.3739  -17.0946   16.8745 H   0  0  0  0  0  0
  -31.6829  -24.5248   18.2496 H   0  0  0  0  0  0
  -31.3017  -25.0597   19.8561 H   0  0  0  0  0  0
  -27.9698  -24.3165   17.3956 H   0  0  0  0  0  0
  -29.5109  -24.0408   16.6433 H   0  0  0  0  0  0
  -30.2875  -18.9345   16.0313 H   0  0  0  0  0  0
  -31.6834  -19.1777   17.0778 H   0  0  0  0  0  0
  -32.2873  -21.5448   17.6095 H   0  0  0  0  0  0
  -31.4303  -22.8108   16.7934 H   0  0  0  0  0  0
  -29.3508  -20.6159   19.8788 H   0  0  0  0  0  0
  -28.7316  -19.5771   17.8110 H   0  0  0  0  0  0
  -32.3024  -19.9893   19.4140 H   0  0  0  0  0  0
  -31.2448  -19.1714   20.5435 H   0  0  0  0  0  0
  -31.6301  -20.8157   20.8182 H   0  0  0  0  0  0
  -31.2847  -28.3898   19.2055 H   0  0  0  0  0  0
  -31.1115  -27.1313   20.4319 H   0  0  0  0  0  0
  -30.2711  -28.6570   20.6097 H   0  0  0  0  0  0
  -30.6437  -26.5084   17.5478 H   0  0  0  0  0  0
  -28.9361  -26.4215   17.2580 H   0  0  0  0  0  0
  -28.9459  -28.2228   18.5779 H   0  0  0  0  0  0
  -29.8630  -21.1895   15.9994 H   0  0  0  0  0  0
  -31.3807  -20.8854   15.5152 H   0  0  0  0  0  0
  -29.0081  -24.9696   19.3684 H   0  0  0  0  0  0
  1 25  1  0  0  0
  1 30  2  0  0  0
  1 88  1  0  0  0
  2  3  1  0  0  0
  2 25  1  0  0  0
  2 92  1  0  0  0
  2 93  1  0  0  0
  3  4  1  0  0  0
  3 94  1  0  0  0
  3 95  1  0  0  0
  4  5  1  0  0  0
  4 96  1  0  0  0
  4 97  1  0  0  0
  5  6  1  0  0  0
  5 26  1  0  0  0
  5 98  1  0  0  0
  6 25  1  0  0  0
  6 99  1  0  0  0
  6100  1  0  0  0
  7  8  2  0  0  0
  7 26  1  0  0  0
  7 29  1  0  0  0
  8  9  1  0  0  0
  8 22  1  0  0  0
  9 10  1  0  0  0
  9 27  2  0  0  0
 10 11  2  0  0  0
 10 15  1  0  0  0
 11 12  1  0  0  0
 11101  1  0  0  0
 12 13  2  0  0  0
 12102  1  0  0  0
 13 14  1  0  0  0
 13 31  1  0  0  0
 14 15  2  0  0  0
 14103  1  0  0  0
 15104  1  0  0  0
 16 17  2  0  0  0
 16 21  1  0  0  0
 16 31  1  0  0  0
 17 18  1  0  0  0
 17105  1  0  0  0
 18 19  2  0  0  0
 18106  1  0  0  0
 19 20  1  0  0  0
 19 24  1  0  0  0
 20 21  2  0  0  0
 20107  1  0  0  0
 21 23  1  0  0  0
 22 28  1  0  0  0
 22 32  2  0  0  0
 26 27  1  0  0  0
 28108  1  0  0  0
 28109  1  0  0  0
 29110  1  0  0  0
 29111  1  0  0  0
 33 34  1  0  0  0
 33 66  1  0  0  0
 33 70  2  0  0  0
 34 36  1  0  0  0
 34 59  1  0  0  0
 34112  1  0  0  0
 35 44  2  0  0  0
 35 45  1  0  0  0
 35 68  1  0  0  0
 36 56  1  0  0  0
 36113  1  0  0  0
 37 39  1  0  0  0
 37 47  1  0  0  0
 37 66  1  0  0  0
 37114  1  0  0  0
 38 43  2  0  0  0
 38 46  1  0  0  0
 38 47  1  0  0  0
 39 64  1  0  0  0
 39 67  2  0  0  0
 40 52  1  0  0  0
 40 53  2  0  0  0
 40 58  1  0  0  0
 41115  1  0  0  0
 41116  1  0  0  0
 41117  1  0  0  0
 41 48  1  0  0  0
 42 43  1  0  0  0
 42 66  1  0  0  0
 42118  1  0  0  0
 42119  1  0  0  0
 43 44  1  0  0  0
 44120  1  0  0  0
 45 46  2  0  0  0
 45121  1  0  0  0
 46122  1  0  0  0
 47123  1  0  0  0
 47124  1  0  0  0
 48 56  1  0  0  0
 48 65  1  0  0  0
 48125  1  0  0  0
 49 50  1  0  0  0
 49 53  1  0  0  0
 49 64  1  0  0  0
 49126  1  0  0  0
 50 51  1  0  0  0
 50127  1  0  0  0
 50128  1  0  0  0
 51 52  1  0  0  0
 51129  1  0  0  0
 51130  1  0  0  0
 52131  1  0  0  0
 52132  1  0  0  0
 53 54  1  0  0  0
 54 55  2  0  0  0
 54133  1  0  0  0
 55 57  1  0  0  0
 55134  1  0  0  0
 56 69  2  0  0  0
 57 58  2  0  0  0
 57135  1  0  0  0
 58136  1  0  0  0
 59 60  1  0  0  0
 59 61  1  0  0  0
 59 62  1  0  0  0
 60137  1  0  0  0
 60138  1  0  0  0
 60139  1  0  0  0
 61140  1  0  0  0
 61141  1  0  0  0
 61142  1  0  0  0
 62143  1  0  0  0
 62144  1  0  0  0
 62145  1  0  0  0
 63 65  1  0  0  0
 63146  1  0  0  0
 63147  1  0  0  0
 63148  1  0  0  0
 64149  1  0  0  0
 65150  1  0  0  0
 68 87  1  0  0  0
 71 77  1  0  0  0
 71151  1  0  0  0
 71152  1  0  0  0
 71 83  1  0  0  0
 72 78  1  0  0  0
 72 83  1  0  0  0
 72153  1  0  0  0
 72154  1  0  0  0
 73 75  1  0  0  0
 73 88  1  0  0  0
 73155  1  0  0  0
 73156  1  0  0  0
 74 76  1  0  0  0
 74 88  1  0  0  0
 74157  1  0  0  0
 74158  1  0  0  0
 75159  1  0  0  0
 75160  1  0  0  0
 75 89  1  0  0  0
 76 89  1  0  0  0
 76161  1  0  0  0
 76162  1  0  0  0
 77 91  1  0  0  0
 77163  1  0  0  0
 77164  1  0  0  0
 78 91  1  0  0  0
 78165  1  0  0  0
 78166  1  0  0  0
 79 82  1  0  0  0
 79 90  1  0  0  0
 79167  1  0  0  0
 79168  1  0  0  0
 80 83  1  0  0  0
 80 90  1  0  0  0
 80169  1  0  0  0
 80170  1  0  0  0
 81 82  1  0  0  0
 81 83  1  0  0  0
 81 84  1  0  0  0
 81171  1  0  0  0
 82 89  1  0  0  0
 82172  1  0  0  0
 84173  1  0  0  0
 84174  1  0  0  0
 84175  1  0  0  0
 85176  1  0  0  0
 85177  1  0  0  0
 85178  1  0  0  0
 85 87  1  0  0  0
 86 87  1  0  0  0
 86179  1  0  0  0
 86180  1  0  0  0
 86 91  1  0  0  0
 87181  1  0  0  0
 90182  1  0  0  0
 90183  1  0  0  0
 91184  1  0  0  0
M  CHG  2  90   1  91   1
M  ISO  4   1 100  68 101  87 101  88 100
M  END
> <chiral flag>
0

> <version>
0

> <s_m_source_file>
/data/baiqing/PycharmProjects/Reinvent-master-3.2/result/LINK_invent/BTK/process_docking_weight1_custom_sum_contain_oxygen_bond_distance_aromatic_linkinvent_7_9_3/rearranged_h_0170.sdf

> <i_m_source_file_index>
67

> <r_mmod_Potential_Energy-OPLS-2005>
127.421592712402

> <r_mmod_Stretch_Energy-OPLS-2005>
44.4495239257812

> <r_mmod_Bend_Energy-OPLS-2005>
133.896133422852

> <r_mmod_Torsional_Energy-OPLS-2005>
525.497436523438

> <r_mmod_Improper_Torsional_Energy-OPLS-2005>
29.2973232269287

> <r_mmod_Van_der_Waal_Energy-OPLS-2005>
177.202026367188

> <r_mmod_Electrostatic_Energy-OPLS-2005>
82.9523086547852

> <r_mmod_Solvation_Energy-OPLS-2005>
-900.897705078125

> <b_mmod_Minimization_Converged-OPLS-2005>
0

> <r_mmod_RMS_Derivative-OPLS-2005>
3.31836819648743

$$$$
68
                    3D
 Structure written by MMmdl.
163173  0  0  1  0            999 V2000
  -30.6313  -14.9791   20.4290 C   0  0  0  0  0  0
  -30.4218  -12.6246   19.5010 C   0  0  0  0  0  0
  -29.5149  -12.5247   18.2575 C   0  0  0  0  0  0
  -28.0570  -12.3023   18.6877 C   0  0  0  0  0  0
  -27.6231  -13.2617   19.8273 C   0  0  2  0  0  0
  -28.6669  -13.3735   20.9599 C   0  0  0  0  0  0
  -25.2450  -13.8261   20.5730 C   0  0  0  0  0  0
  -24.1769  -13.0469   20.9228 C   0  0  0  0  0  0
  -24.6397  -11.6951   20.8760 C   0  0  0  0  0  0
  -23.9086  -10.4314   21.0413 C   0  0  0  0  0  0
  -24.3643   -9.4222   21.9186 C   0  0  0  0  0  0
  -23.6300   -8.2255   22.0759 C   0  0  0  0  0  0
  -22.4276   -8.0301   21.3554 C   0  0  0  0  0  0
  -21.9917   -9.0277   20.4657 C   0  0  0  0  0  0
  -22.7257  -10.2148   20.3059 C   0  0  0  0  0  0
  -21.6857   -6.0737   22.5270 C   0  0  0  0  0  0
  -21.4025   -6.5634   23.8204 C   0  0  0  0  0  0
  -21.3659   -5.6787   24.9167 C   0  0  0  0  0  0
  -21.6043   -4.3049   24.7219 C   0  0  0  0  0  0
  -21.8822   -3.8143   23.4338 C   0  0  0  0  0  0
  -21.9193   -4.6966   22.3393 C   0  0  0  0  0  0
  -22.7782  -13.5228   21.1865 C   0  0  0  0  0  0
  -22.1661   -4.2152   21.0972 F   0  0  0  0  0  0
  -21.5623   -3.4532   25.7730 F   0  0  0  0  0  0
  -29.9341  -13.7711   20.3334 N   0  0  0  0  0  0
  -26.2877  -12.9508   20.3253 N   0  0  0  0  0  0
  -25.9337  -11.6632   20.5752 N   0  0  0  0  0  0
  -22.0432  -12.8221   22.0425 N   0  0  0  0  0  0
  -25.4154  -15.1986   20.4160 N   0  0  0  0  0  0
  -31.8424  -14.9068   20.1948 O   0  0  0  0  0  0
  -21.6646   -6.8892   21.4241 O   0  0  0  0  0  0
  -22.3450  -14.5519   20.6698 O   0  0  0  0  0  0
  -24.6466  -31.8420   23.1890 C   0  0  0  0  0  0
  -25.9225  -32.4684   23.8289 C   0  0  1  0  0  0
  -27.2069  -27.1026   20.1564 C   0  0  0  0  0  0
  -25.5949  -33.8486   24.2205 N   0  0  0  0  0  0
  -23.4516  -30.4637   21.5352 C   0  0  2  0  0  0
  -24.9019  -28.8952   20.1073 C   0  0  0  0  0  0
  -22.7579  -29.4538   22.4850 C   0  0  0  0  0  0
  -18.0304  -28.1386   22.8466 C   0  0  0  0  0  0
  -24.1496  -36.7259   23.2647 C   0  0  0  0  0  0
  -26.0117  -30.7046   21.3967 C   0  0  0  0  0  0
  -26.0816  -29.3155   20.7350 C   0  0  0  0  0  0
  -27.2339  -28.4345   20.7478 C   0  0  0  0  0  0
  -26.0055  -26.8119   19.4655 C   0  0  0  0  0  0
  -24.8796  -27.6578   19.4555 C   0  0  0  0  0  0
  -23.6794  -29.7979   20.1533 C   0  0  0  0  0  0
  -25.4119  -36.3023   24.0325 C   0  0  1  0  0  0
  -20.5918  -28.3718   23.1213 C   0  0  2  0  0  0
  -20.6778  -26.9412   22.5391 C   0  0  0  0  0  0
  -19.5756  -26.6373   21.5190 C   0  0  0  0  0  0
  -18.1941  -26.7925   22.1607 C   0  0  0  0  0  0
  -19.1560  -28.8873   23.2831 C   0  0  0  0  0  0
  -18.9477  -30.1467   23.8868 C   0  0  0  0  0  0
  -17.6470  -30.6582   24.0552 C   0  0  0  0  0  0
  -25.9065  -34.9396   23.5074 C   0  0  0  0  0  0
  -16.5362  -29.9068   23.6332 C   0  0  0  0  0  0
  -16.7288  -28.6482   23.0359 C   0  0  0  0  0  0
  -26.4529  -31.6551   25.0741 C   0  0  0  0  0  0
  -25.3707  -31.3740   26.1434 C   0  0  0  0  0  0
  -27.0395  -30.2939   24.6354 C   0  0  0  0  0  0
  -27.6073  -32.4311   25.7505 C   0  0  0  0  0  0
  -27.5576  -37.1782   24.8462 C   0  0  0  0  0  0
  -21.4269  -29.3047   22.3596 N   0  0  0  0  0  0
  -26.4291  -37.3728   23.9400 N   0  0  0  0  0  0
  -24.7233  -31.0249   22.0951 N   0  0  0  0  0  0
  -23.4211  -28.8083   23.3008 O   0  0  0  0  0  0
  -28.2109  -26.0538   20.2581 O   0  0  0  0  0  0
  -26.5648  -34.8894   22.4653 O   0  0  0  0  0  0
  -23.5573  -32.1318   23.7082 O   0  0  0  0  0  0
  -29.9466  -21.2536   21.2930 C   0  0  0  0  0  0
  -29.5054  -22.6553   21.1540 C   0  0  0  0  0  0
  -28.4844  -23.0666   20.2310 C   0  0  0  0  0  0
  -29.3304  -20.1466   20.5763 C   0  0  0  0  0  0
  -27.9624  -21.8930   19.5578 C   0  0  0  0  0  0
  -32.4079  -21.6600   22.2047 C   0  0  0  0  0  0
  -32.3262  -20.2291   21.7526 C   0  0  0  0  0  0
  -28.8943  -17.1458   20.8505 C   0  0  0  0  0  0
  -30.6728  -17.5903   19.8523 C   0  0  0  0  0  0
  -31.0764  -20.9330   22.2405 C   0  0  0  0  0  0
  -29.7275  -18.5137   20.7186 C   0  0  0  0  0  0
  -30.1003  -23.7461   22.0350 C   0  0  0  0  0  0
  -26.7985  -22.0371   18.5942 C   0  0  0  0  0  0
  -27.7793  -24.5704   19.9962 C   0  0  0  0  0  0
  -28.3622  -20.5638   19.7036 N   0  0  0  0  0  0
  -30.0572  -16.2999   20.3646 N   0  0  0  0  0  0
  -31.4587  -12.7433   19.1838 H   0  0  0  0  0  0
  -30.3977  -11.6953   20.0722 H   0  0  0  0  0  0
  -29.8439  -11.7106   17.6102 H   0  0  0  0  0  0
  -29.5959  -13.4387   17.6662 H   0  0  0  0  0  0
  -27.9744  -11.2683   19.0261 H   0  0  0  0  0  0
  -27.3886  -12.3998   17.8318 H   0  0  0  0  0  0
  -27.5649  -14.2452   19.3589 H   0  0  0  0  0  0
  -28.7675  -12.4384   21.5111 H   0  0  0  0  0  0
  -28.3580  -14.1329   21.6812 H   0  0  0  0  0  0
  -25.2804   -9.5676   22.4742 H   0  0  0  0  0  0
  -24.0016   -7.4640   22.7453 H   0  0  0  0  0  0
  -21.0853   -8.8795   19.8948 H   0  0  0  0  0  0
  -22.3738  -10.9682   19.6148 H   0  0  0  0  0  0
  -21.2036   -7.6146   23.9704 H   0  0  0  0  0  0
  -21.1470   -6.0521   25.9066 H   0  0  0  0  0  0
  -22.0606   -2.7607   23.2831 H   0  0  0  0  0  0
  -22.4054  -11.9925   22.4881 H   0  0  0  0  0  0
  -21.1035  -13.1221   22.2596 H   0  0  0  0  0  0
  -24.6542  -15.8599   20.5218 H   0  0  0  0  0  0
  -26.2702  -15.6302   20.0897 H   0  0  0  0  0  0
  -26.7296  -32.5283   23.1016 H   0  0  0  0  0  0
  -25.0035  -33.9598   25.0312 H   0  0  0  0  0  0
  -22.7547  -31.2899   21.3800 H   0  0  0  0  0  0
  -23.3749  -35.9602   23.3308 H   0  0  0  0  0  0
  -24.3578  -36.8891   22.2061 H   0  0  0  0  0  0
  -23.7272  -37.6467   23.6680 H   0  0  0  0  0  0
  -26.1751  -31.4615   20.6284 H   0  0  0  0  0  0
  -26.8789  -30.7499   22.0437 H   0  0  0  0  0  0
  -28.1236  -28.7439   21.2780 H   0  0  0  0  0  0
  -25.8781  -25.8797   18.9402 H   0  0  0  0  0  0
  -23.9844  -27.3346   18.9415 H   0  0  0  0  0  0
  -23.8171  -30.5743   19.4003 H   0  0  0  0  0  0
  -22.7956  -29.2405   19.8395 H   0  0  0  0  0  0
  -25.1308  -36.1854   25.0819 H   0  0  0  0  0  0
  -21.0001  -28.3308   24.1335 H   0  0  0  0  0  0
  -20.5622  -26.2336   23.3615 H   0  0  0  0  0  0
  -21.6651  -26.7383   22.1220 H   0  0  0  0  0  0
  -19.6908  -25.6270   21.1249 H   0  0  0  0  0  0
  -19.6699  -27.3159   20.6698 H   0  0  0  0  0  0
  -17.4198  -26.6663   21.4021 H   0  0  0  0  0  0
  -18.0351  -26.0074   22.9012 H   0  0  0  0  0  0
  -19.7952  -30.7281   24.2241 H   0  0  0  0  0  0
  -17.5023  -31.6264   24.5146 H   0  0  0  0  0  0
  -15.5361  -30.2955   23.7674 H   0  0  0  0  0  0
  -15.8690  -28.0784   22.7105 H   0  0  0  0  0  0
  -24.5890  -30.7084   25.7750 H   0  0  0  0  0  0
  -24.8891  -32.2918   26.4815 H   0  0  0  0  0  0
  -25.7988  -30.8937   27.0243 H   0  0  0  0  0  0
  -26.3026  -29.6645   24.1356 H   0  0  0  0  0  0
  -27.3976  -29.7251   25.4943 H   0  0  0  0  0  0
  -27.8951  -30.4155   23.9711 H   0  0  0  0  0  0
  -27.2687  -33.3627   26.2043 H   0  0  0  0  0  0
  -28.3890  -32.6838   25.0331 H   0  0  0  0  0  0
  -28.0736  -31.8462   26.5441 H   0  0  0  0  0  0
  -28.2595  -38.0073   24.7476 H   0  0  0  0  0  0
  -28.1070  -36.2602   24.6320 H   0  0  0  0  0  0
  -27.2296  -37.1478   25.8866 H   0  0  0  0  0  0
  -20.9476  -29.8797   21.6809 H   0  0  0  0  0  0
  -26.0164  -38.2811   24.1357 H   0  0  0  0  0  0
  -32.5746  -22.4079   21.4326 H   0  0  0  0  0  0
  -32.9128  -21.8469   23.1511 H   0  0  0  0  0  0
  -32.7793  -19.4818   22.4022 H   0  0  0  0  0  0
  -32.4391  -20.0537   20.6846 H   0  0  0  0  0  0
  -28.0424  -17.1217   20.1701 H   0  0  0  0  0  0
  -28.5721  -16.9377   21.8713 H   0  0  0  0  0  0
  -31.7277  -17.7182   20.0984 H   0  0  0  0  0  0
  -30.5267  -17.7337   18.7819 H   0  0  0  0  0  0
  -30.6859  -20.6517   23.2172 H   0  0  0  0  0  0
  -30.2162  -18.5404   21.6907 H   0  0  0  0  0  0
  -30.3990  -23.3675   23.0122 H   0  0  0  0  0  0
  -29.3783  -24.5401   22.2253 H   0  0  0  0  0  0
  -30.9690  -24.1957   21.5542 H   0  0  0  0  0  0
  -26.0393  -22.7156   18.9824 H   0  0  0  0  0  0
  -26.3006  -21.0821   18.4265 H   0  0  0  0  0  0
  -27.1421  -22.4115   17.6296 H   0  0  0  0  0  0
  -26.8149  -24.4604   20.4948 H   0  0  0  0  0  0
  -27.5723  -24.5688   18.9269 H   0  0  0  0  0  0
  1 25  1  0  0  0
  1 30  2  0  0  0
  1 86  1  0  0  0
  2  3  1  0  0  0
  2 25  1  0  0  0
  2 87  1  0  0  0
  2 88  1  0  0  0
  3  4  1  0  0  0
  3 89  1  0  0  0
  3 90  1  0  0  0
  4  5  1  0  0  0
  4 91  1  0  0  0
  4 92  1  0  0  0
  5  6  1  0  0  0
  5 26  1  0  0  0
  5 93  1  0  0  0
  6 25  1  0  0  0
  6 94  1  0  0  0
  6 95  1  0  0  0
  7  8  2  0  0  0
  7 26  1  0  0  0
  7 29  1  0  0  0
  8  9  1  0  0  0
  8 22  1  0  0  0
  9 10  1  0  0  0
  9 27  2  0  0  0
 10 11  2  0  0  0
 10 15  1  0  0  0
 11 12  1  0  0  0
 11 96  1  0  0  0
 12 13  2  0  0  0
 12 97  1  0  0  0
 13 14  1  0  0  0
 13 31  1  0  0  0
 14 15  2  0  0  0
 14 98  1  0  0  0
 15 99  1  0  0  0
 16 17  2  0  0  0
 16 21  1  0  0  0
 16 31  1  0  0  0
 17 18  1  0  0  0
 17100  1  0  0  0
 18 19  2  0  0  0
 18101  1  0  0  0
 19 20  1  0  0  0
 19 24  1  0  0  0
 20 21  2  0  0  0
 20102  1  0  0  0
 21 23  1  0  0  0
 22 28  1  0  0  0
 22 32  2  0  0  0
 26 27  1  0  0  0
 28103  1  0  0  0
 28104  1  0  0  0
 29105  1  0  0  0
 29106  1  0  0  0
 33 34  1  0  0  0
 33 66  1  0  0  0
 33 70  2  0  0  0
 34 36  1  0  0  0
 34 59  1  0  0  0
 34107  1  0  0  0
 35 44  2  0  0  0
 35 45  1  0  0  0
 35 68  1  0  0  0
 36 56  1  0  0  0
 36108  1  0  0  0
 37 39  1  0  0  0
 37 47  1  0  0  0
 37 66  1  0  0  0
 37109  1  0  0  0
 38 43  2  0  0  0
 38 46  1  0  0  0
 38 47  1  0  0  0
 39 64  1  0  0  0
 39 67  2  0  0  0
 40 52  1  0  0  0
 40 53  2  0  0  0
 40 58  1  0  0  0
 41110  1  0  0  0
 41111  1  0  0  0
 41112  1  0  0  0
 41 48  1  0  0  0
 42 43  1  0  0  0
 42 66  1  0  0  0
 42113  1  0  0  0
 42114  1  0  0  0
 43 44  1  0  0  0
 44115  1  0  0  0
 45 46  2  0  0  0
 45116  1  0  0  0
 46117  1  0  0  0
 47118  1  0  0  0
 47119  1  0  0  0
 48 56  1  0  0  0
 48 65  1  0  0  0
 48120  1  0  0  0
 49 50  1  0  0  0
 49 53  1  0  0  0
 49 64  1  0  0  0
 49121  1  0  0  0
 50 51  1  0  0  0
 50122  1  0  0  0
 50123  1  0  0  0
 51 52  1  0  0  0
 51124  1  0  0  0
 51125  1  0  0  0
 52126  1  0  0  0
 52127  1  0  0  0
 53 54  1  0  0  0
 54 55  2  0  0  0
 54128  1  0  0  0
 55 57  1  0  0  0
 55129  1  0  0  0
 56 69  2  0  0  0
 57 58  2  0  0  0
 57130  1  0  0  0
 58131  1  0  0  0
 59 60  1  0  0  0
 59 61  1  0  0  0
 59 62  1  0  0  0
 60132  1  0  0  0
 60133  1  0  0  0
 60134  1  0  0  0
 61135  1  0  0  0
 61136  1  0  0  0
 61137  1  0  0  0
 62138  1  0  0  0
 62139  1  0  0  0
 62140  1  0  0  0
 63 65  1  0  0  0
 63141  1  0  0  0
 63142  1  0  0  0
 63143  1  0  0  0
 64144  1  0  0  0
 65145  1  0  0  0
 68 84  1  0  0  0
 71 72  2  0  0  0
 71 74  1  0  0  0
 71 80  1  0  0  0
 72 73  1  0  0  0
 72 82  1  0  0  0
 73 75  2  0  0  0
 73 84  1  0  0  0
 74 85  2  0  0  0
 74 81  1  0  0  0
 75 83  1  0  0  0
 75 85  1  0  0  0
 76 77  1  0  0  0
 76 80  1  0  0  0
 76146  1  0  0  0
 76147  1  0  0  0
 77 80  1  0  0  0
 77148  1  0  0  0
 77149  1  0  0  0
 78 81  1  0  0  0
 78 86  1  0  0  0
 78150  1  0  0  0
 78151  1  0  0  0
 79 81  1  0  0  0
 79 86  1  0  0  0
 79152  1  0  0  0
 79153  1  0  0  0
 80154  1  0  0  0
 81155  1  0  0  0
 82156  1  0  0  0
 82157  1  0  0  0
 82158  1  0  0  0
 83159  1  0  0  0
 83160  1  0  0  0
 83161  1  0  0  0
 84162  1  0  0  0
 84163  1  0  0  0
M  ISO  4   1 100  68 101  84 101  86 100
M  END
> <chiral flag>
0

> <version>
0

> <s_m_source_file>
/data/baiqing/PycharmProjects/Reinvent-master-3.2/result/LINK_invent/BTK/process_docking_weight1_custom_sum_contain_oxygen_bond_distance_aromatic_linkinvent_7_9_3/rearranged_h_0170.sdf

> <i_m_source_file_index>
68

> <r_mmod_Potential_Energy-OPLS-2005>
619.20703125

> <r_mmod_Stretch_Energy-OPLS-2005>
261.8544921875

> <r_mmod_Bend_Energy-OPLS-2005>
349.042938232422

> <r_mmod_Torsional_Energy-OPLS-2005>
284.114105224609

> <r_mmod_Improper_Torsional_Energy-OPLS-2005>
13.111967086792

> <r_mmod_Van_der_Waal_Energy-OPLS-2005>
139.327941894531

> <r_mmod_Electrostatic_Energy-OPLS-2005>
-437.401916503906

> <r_mmod_Solvation_Energy-OPLS-2005>
-221.858749389648

> <b_mmod_Minimization_Converged-OPLS-2005>
0

> <r_mmod_RMS_Derivative-OPLS-2005>
2.23572540283203

$$$$
69
                    3D
 Structure written by MMmdl.
157167  0  0  1  0            999 V2000
  -30.5937  -14.8448   20.4667 C   0  0  0  0  0  0
  -30.4294  -12.5265   19.4847 C   0  0  0  0  0  0
  -29.5107  -12.5172   18.2448 C   0  0  0  0  0  0
  -28.0418  -12.3260   18.6638 C   0  0  0  0  0  0
  -27.6329  -13.2466   19.8446 C   0  0  2  0  0  0
  -28.6760  -13.2333   20.9796 C   0  0  0  0  0  0
  -25.2475  -13.8229   20.5726 C   0  0  0  0  0  0
  -24.1778  -13.0452   20.9210 C   0  0  0  0  0  0
  -24.6392  -11.6933   20.8744 C   0  0  0  0  0  0
  -23.9083  -10.4295   21.0394 C   0  0  0  0  0  0
  -24.3632   -9.4210   21.9174 C   0  0  0  0  0  0
  -23.6301   -8.2250   22.0749 C   0  0  0  0  0  0
  -22.4282   -8.0288   21.3542 C   0  0  0  0  0  0
  -21.9921   -9.0265   20.4649 C   0  0  0  0  0  0
  -22.7258  -10.2137   20.3049 C   0  0  0  0  0  0
  -21.6866   -6.0730   22.5286 C   0  0  0  0  0  0
  -21.4019   -6.5628   23.8220 C   0  0  0  0  0  0
  -21.3660   -5.6783   24.9179 C   0  0  0  0  0  0
  -21.6048   -4.3049   24.7233 C   0  0  0  0  0  0
  -21.8818   -3.8139   23.4356 C   0  0  0  0  0  0
  -21.9193   -4.6954   22.3407 C   0  0  0  0  0  0
  -22.7796  -13.5223   21.1869 C   0  0  0  0  0  0
  -22.1661   -4.2142   21.0985 F   0  0  0  0  0  0
  -21.5634   -3.4529   25.7740 F   0  0  0  0  0  0
  -29.9591  -13.6154   20.3810 N   0  0  0  0  0  0
  -26.2900  -12.9457   20.3283 N   0  0  0  0  0  0
  -25.9327  -11.6588   20.5744 N   0  0  0  0  0  0
  -22.0452  -12.8211   22.0427 N   0  0  0  0  0  0
  -25.4178  -15.1958   20.4191 N   0  0  0  0  0  0
  -31.7901  -14.8975   20.1582 O   0  0  0  0  0  0
  -21.6652   -6.8881   21.4247 O   0  0  0  0  0  0
  -22.3479  -14.5530   20.6720 O   0  0  0  0  0  0
  -24.6378  -31.8503   23.1920 C   0  0  0  0  0  0
  -25.9178  -32.4727   23.8285 C   0  0  1  0  0  0
  -27.2112  -27.1923   20.1416 C   0  0  0  0  0  0
  -25.5959  -33.8530   24.2216 N   0  0  0  0  0  0
  -23.4352  -30.4721   21.5379 C   0  0  2  0  0  0
  -24.8816  -28.9055   20.1128 C   0  0  0  0  0  0
  -22.7528  -29.4577   22.4889 C   0  0  0  0  0  0
  -18.0308  -28.1385   22.8480 C   0  0  0  0  0  0
  -24.1495  -36.7255   23.2636 C   0  0  0  0  0  0
  -25.9881  -30.7428   21.3802 C   0  0  0  0  0  0
  -26.0593  -29.3591   20.7211 C   0  0  0  0  0  0
  -27.2294  -28.5201   20.7137 C   0  0  0  0  0  0
  -26.0070  -26.8210   19.5081 C   0  0  0  0  0  0
  -24.8656  -27.6480   19.4918 C   0  0  0  0  0  0
  -23.6572  -29.8036   20.1559 C   0  0  0  0  0  0
  -25.4125  -36.3044   24.0321 C   0  0  1  0  0  0
  -20.5911  -28.3705   23.1257 C   0  0  2  0  0  0
  -20.6799  -26.9421   22.5406 C   0  0  0  0  0  0
  -19.5772  -26.6384   21.5212 C   0  0  0  0  0  0
  -18.1948  -26.7927   22.1621 C   0  0  0  0  0  0
  -19.1559  -28.8864   23.2861 C   0  0  0  0  0  0
  -18.9473  -30.1460   23.8888 C   0  0  0  0  0  0
  -17.6469  -30.6590   24.0553 C   0  0  0  0  0  0
  -25.9074  -34.9423   23.5073 C   0  0  0  0  0  0
  -16.5360  -29.9080   23.6333 C   0  0  0  0  0  0
  -16.7290  -28.6494   23.0362 C   0  0  0  0  0  0
  -26.4523  -31.6571   25.0701 C   0  0  0  0  0  0
  -25.3723  -31.3736   26.1403 C   0  0  0  0  0  0
  -27.0380  -30.2977   24.6227 C   0  0  0  0  0  0
  -27.6067  -32.4322   25.7488 C   0  0  0  0  0  0
  -27.5580  -37.1789   24.8468 C   0  0  0  0  0  0
  -21.4231  -29.3042   22.3631 N   0  0  0  0  0  0
  -26.4292  -37.3754   23.9409 N   0  0  0  0  0  0
  -24.7063  -31.0416   22.0917 N   0  0  0  0  0  0
  -23.4211  -28.8134   23.3014 O   0  0  0  0  0  0
  -28.2835  -26.2492   20.1760 O   0  0  0  0  0  0
  -26.5640  -34.8908   22.4641 O   0  0  0  0  0  0
  -23.5517  -32.1350   23.7188 O   0  0  0  0  0  0
  -29.7269  -19.9047   21.6265 C   0  0  0  0  0  0
  -29.6468  -18.9624   20.5500 C   0  0  0  0  0  0
  -29.4157  -21.3107   21.4980 C   0  0  0  0  0  0
  -28.9898  -21.8806   20.2636 C   0  0  0  0  0  0
  -29.1411  -19.6107   19.3755 C   0  0  0  0  0  0
  -27.7759  -24.0090   19.0899 C   0  0  0  0  0  0
  -30.1745  -16.7668   21.9358 C   0  0  0  0  0  0
  -30.3583  -17.4889   20.6357 C   0  0  2  0  0  0
  -28.9322  -23.4771   19.9156 C   0  0  1  0  0  0
  -28.0090  -24.7490   20.3821 C   0  0  2  0  0  0
  -29.6408  -22.2313   22.6848 C   0  0  0  0  0  0
  -28.9619  -18.7966   18.1118 C   0  0  0  0  0  0
  -28.8480  -20.9666   19.2457 N   0  0  0  0  0  0
  -29.8773  -16.0337   20.7470 N   0  0  0  0  0  0
  -31.4673  -12.6611   19.1762 H   0  0  0  0  0  0
  -30.3949  -11.5645   20.0002 H   0  0  0  0  0  0
  -29.8110  -11.7264   17.5550 H   0  0  0  0  0  0
  -29.6172  -13.4565   17.7007 H   0  0  0  0  0  0
  -27.9191  -11.2822   18.9545 H   0  0  0  0  0  0
  -27.3797  -12.4847   17.8115 H   0  0  0  0  0  0
  -27.6100  -14.2591   19.4395 H   0  0  0  0  0  0
  -28.7377  -12.2484   21.4444 H   0  0  0  0  0  0
  -28.3934  -13.9338   21.7675 H   0  0  0  0  0  0
  -25.2770   -9.5701   22.4755 H   0  0  0  0  0  0
  -24.0021   -7.4643   22.7465 H   0  0  0  0  0  0
  -21.0853   -8.8799   19.8950 H   0  0  0  0  0  0
  -22.3722  -10.9683   19.6168 H   0  0  0  0  0  0
  -21.2009   -7.6136   23.9732 H   0  0  0  0  0  0
  -21.1485   -6.0500   25.9088 H   0  0  0  0  0  0
  -22.0590   -2.7602   23.2856 H   0  0  0  0  0  0
  -22.4069  -11.9882   22.4838 H   0  0  0  0  0  0
  -21.1071  -13.1248   22.2620 H   0  0  0  0  0  0
  -24.6605  -15.8565   20.5523 H   0  0  0  0  0  0
  -26.2861  -15.6383   20.1442 H   0  0  0  0  0  0
  -26.7238  -32.5353   23.1016 H   0  0  0  0  0  0
  -25.0145  -33.9669   25.0382 H   0  0  0  0  0  0
  -22.7340  -31.2960   21.3889 H   0  0  0  0  0  0
  -23.3774  -35.9571   23.3290 H   0  0  0  0  0  0
  -24.3577  -36.8886   22.2052 H   0  0  0  0  0  0
  -23.7243  -37.6448   23.6671 H   0  0  0  0  0  0
  -26.1394  -31.5033   20.6119 H   0  0  0  0  0  0
  -26.8605  -30.7890   22.0202 H   0  0  0  0  0  0
  -28.1311  -28.8673   21.1987 H   0  0  0  0  0  0
  -25.9253  -25.8590   19.0260 H   0  0  0  0  0  0
  -23.9639  -27.2968   19.0091 H   0  0  0  0  0  0
  -23.7897  -30.5787   19.4001 H   0  0  0  0  0  0
  -22.7723  -29.2441   19.8480 H   0  0  0  0  0  0
  -25.1316  -36.1870   25.0816 H   0  0  0  0  0  0
  -21.0004  -28.3287   24.1374 H   0  0  0  0  0  0
  -20.5702  -26.2315   23.3612 H   0  0  0  0  0  0
  -21.6665  -26.7451   22.1188 H   0  0  0  0  0  0
  -19.6933  -25.6288   21.1253 H   0  0  0  0  0  0
  -19.6705  -27.3185   20.6729 H   0  0  0  0  0  0
  -17.4221  -26.6675   21.4019 H   0  0  0  0  0  0
  -18.0343  -26.0068   22.9015 H   0  0  0  0  0  0
  -19.7946  -30.7277   24.2255 H   0  0  0  0  0  0
  -17.5025  -31.6271   24.5152 H   0  0  0  0  0  0
  -15.5358  -30.2983   23.7666 H   0  0  0  0  0  0
  -15.8685  -28.0807   22.7101 H   0  0  0  0  0  0
  -24.5923  -30.7063   25.7717 H   0  0  0  0  0  0
  -24.8894  -32.2914   26.4773 H   0  0  0  0  0  0
  -25.8029  -30.8949   27.0207 H   0  0  0  0  0  0
  -26.2972  -29.6714   24.1247 H   0  0  0  0  0  0
  -27.4037  -29.7261   25.4766 H   0  0  0  0  0  0
  -27.8860  -30.4237   23.9492 H   0  0  0  0  0  0
  -27.2670  -33.3642   26.2018 H   0  0  0  0  0  0
  -28.3908  -32.6849   25.0336 H   0  0  0  0  0  0
  -28.0692  -31.8468   26.5444 H   0  0  0  0  0  0
  -28.2596  -38.0087   24.7522 H   0  0  0  0  0  0
  -28.1084  -36.2627   24.6294 H   0  0  0  0  0  0
  -27.2296  -37.1420   25.8867 H   0  0  0  0  0  0
  -20.9425  -29.8740   21.6806 H   0  0  0  0  0  0
  -26.0162  -38.2823   24.1412 H   0  0  0  0  0  0
  -30.1264  -19.5603   22.5700 H   0  0  0  0  0  0
  -26.8737  -23.4038   19.0465 H   0  0  0  0  0  0
  -28.0339  -24.5094   18.1604 H   0  0  0  0  0  0
  -31.0734  -16.4998   22.4908 H   0  0  0  0  0  0
  -29.3143  -17.0097   22.5555 H   0  0  0  0  0  0
  -31.3789  -17.6055   20.2746 H   0  0  0  0  0  0
  -29.9311  -23.7534   19.5843 H   0  0  0  0  0  0
  -27.3185  -24.5798   21.2060 H   0  0  0  0  0  0
  -29.8239  -21.6732   23.6041 H   0  0  0  0  0  0
  -28.7715  -22.8683   22.8523 H   0  0  0  0  0  0
  -30.5023  -22.8745   22.5025 H   0  0  0  0  0  0
  -29.9288  -18.5793   17.6597 H   0  0  0  0  0  0
  -28.3495  -19.3212   17.3792 H   0  0  0  0  0  0
  -28.4693  -17.8502   18.3380 H   0  0  0  0  0  0
  1 25  1  0  0  0
  1 30  2  0  0  0
  1 84  1  0  0  0
  2  3  1  0  0  0
  2 25  1  0  0  0
  2 85  1  0  0  0
  2 86  1  0  0  0
  3  4  1  0  0  0
  3 87  1  0  0  0
  3 88  1  0  0  0
  4  5  1  0  0  0
  4 89  1  0  0  0
  4 90  1  0  0  0
  5  6  1  0  0  0
  5 26  1  0  0  0
  5 91  1  0  0  0
  6 25  1  0  0  0
  6 92  1  0  0  0
  6 93  1  0  0  0
  7  8  2  0  0  0
  7 26  1  0  0  0
  7 29  1  0  0  0
  8  9  1  0  0  0
  8 22  1  0  0  0
  9 10  1  0  0  0
  9 27  2  0  0  0
 10 11  2  0  0  0
 10 15  1  0  0  0
 11 12  1  0  0  0
 11 94  1  0  0  0
 12 13  2  0  0  0
 12 95  1  0  0  0
 13 14  1  0  0  0
 13 31  1  0  0  0
 14 15  2  0  0  0
 14 96  1  0  0  0
 15 97  1  0  0  0
 16 17  2  0  0  0
 16 21  1  0  0  0
 16 31  1  0  0  0
 17 18  1  0  0  0
 17 98  1  0  0  0
 18 19  2  0  0  0
 18 99  1  0  0  0
 19 20  1  0  0  0
 19 24  1  0  0  0
 20 21  2  0  0  0
 20100  1  0  0  0
 21 23  1  0  0  0
 22 28  1  0  0  0
 22 32  2  0  0  0
 26 27  1  0  0  0
 28101  1  0  0  0
 28102  1  0  0  0
 29103  1  0  0  0
 29104  1  0  0  0
 33 34  1  0  0  0
 33 66  1  0  0  0
 33 70  2  0  0  0
 34 36  1  0  0  0
 34 59  1  0  0  0
 34105  1  0  0  0
 35 44  2  0  0  0
 35 45  1  0  0  0
 35 68  1  0  0  0
 36 56  1  0  0  0
 36106  1  0  0  0
 37 39  1  0  0  0
 37 47  1  0  0  0
 37 66  1  0  0  0
 37107  1  0  0  0
 38 43  2  0  0  0
 38 46  1  0  0  0
 38 47  1  0  0  0
 39 64  1  0  0  0
 39 67  2  0  0  0
 40 52  1  0  0  0
 40 53  2  0  0  0
 40 58  1  0  0  0
 41108  1  0  0  0
 41109  1  0  0  0
 41110  1  0  0  0
 41 48  1  0  0  0
 42 43  1  0  0  0
 42 66  1  0  0  0
 42111  1  0  0  0
 42112  1  0  0  0
 43 44  1  0  0  0
 44113  1  0  0  0
 45 46  2  0  0  0
 45114  1  0  0  0
 46115  1  0  0  0
 47116  1  0  0  0
 47117  1  0  0  0
 48 56  1  0  0  0
 48 65  1  0  0  0
 48118  1  0  0  0
 49 50  1  0  0  0
 49 53  1  0  0  0
 49 64  1  0  0  0
 49119  1  0  0  0
 50 51  1  0  0  0
 50120  1  0  0  0
 50121  1  0  0  0
 51 52  1  0  0  0
 51122  1  0  0  0
 51123  1  0  0  0
 52124  1  0  0  0
 52125  1  0  0  0
 53 54  1  0  0  0
 54 55  2  0  0  0
 54126  1  0  0  0
 55 57  1  0  0  0
 55127  1  0  0  0
 56 69  2  0  0  0
 57 58  2  0  0  0
 57128  1  0  0  0
 58129  1  0  0  0
 59 60  1  0  0  0
 59 61  1  0  0  0
 59 62  1  0  0  0
 60130  1  0  0  0
 60131  1  0  0  0
 60132  1  0  0  0
 61133  1  0  0  0
 61134  1  0  0  0
 61135  1  0  0  0
 62136  1  0  0  0
 62137  1  0  0  0
 62138  1  0  0  0
 63 65  1  0  0  0
 63139  1  0  0  0
 63140  1  0  0  0
 63141  1  0  0  0
 64142  1  0  0  0
 65143  1  0  0  0
 68 80  1  0  0  0
 71 72  2  0  0  0
 71 73  1  0  0  0
 71144  1  0  0  0
 72 75  1  0  0  0
 72 78  1  0  0  0
 73 74  2  0  0  0
 73 81  1  0  0  0
 74 83  1  0  0  0
 74 79  1  0  0  0
 75 82  1  0  0  0
 75 83  2  0  0  0
 76 79  1  0  0  0
 76 80  1  0  0  0
 76145  1  0  0  0
 76146  1  0  0  0
 77 78  1  0  0  0
 77 84  1  0  0  0
 77147  1  0  0  0
 77148  1  0  0  0
 78 84  1  0  0  0
 78149  1  0  0  0
 79 80  1  0  0  0
 79150  1  0  0  0
 80151  1  0  0  0
 81152  1  0  0  0
 81153  1  0  0  0
 81154  1  0  0  0
 82155  1  0  0  0
 82156  1  0  0  0
 82157  1  0  0  0
M  ISO  4   1 100  68 101  80 101  84 100
M  END
> <chiral flag>
0

> <version>
0

> <s_m_source_file>
/data/baiqing/PycharmProjects/Reinvent-master-3.2/result/LINK_invent/BTK/process_docking_weight1_custom_sum_contain_oxygen_bond_distance_aromatic_linkinvent_7_9_3/rearranged_h_0170.sdf

> <i_m_source_file_index>
69

> <r_mmod_Potential_Energy-OPLS-2005>
387.355529785156

> <r_mmod_Stretch_Energy-OPLS-2005>
194.273864746094

> <r_mmod_Bend_Energy-OPLS-2005>
247.370727539062

> <r_mmod_Torsional_Energy-OPLS-2005>
332.861236572266

> <r_mmod_Improper_Torsional_Energy-OPLS-2005>
14.4491004943848

> <r_mmod_Van_der_Waal_Energy-OPLS-2005>
129.719039916992

> <r_mmod_Electrostatic_Energy-OPLS-2005>
-453.688751220703

> <r_mmod_Solvation_Energy-OPLS-2005>
-210.770095825195

> <b_mmod_Minimization_Converged-OPLS-2005>
0

> <r_mmod_RMS_Derivative-OPLS-2005>
1.62717020511627

$$$$
70
                    3D
 Structure written by MMmdl.
175186  0  0  1  0            999 V2000
  -30.7017  -14.5640   20.4936 C   0  0  0  0  0  0
  -30.4197  -12.3463   19.4410 C   0  0  0  0  0  0
  -29.4970  -12.4763   18.2117 C   0  0  0  0  0  0
  -28.0251  -12.3005   18.6344 C   0  0  0  0  0  0
  -27.6425  -13.1805   19.8502 C   0  0  2  0  0  0
  -28.6951  -13.0950   20.9814 C   0  0  0  0  0  0
  -25.2564  -13.8069   20.5665 C   0  0  0  0  0  0
  -24.1808  -13.0376   20.9175 C   0  0  0  0  0  0
  -24.6351  -11.6830   20.8766 C   0  0  0  0  0  0
  -23.9034  -10.4235   21.0431 C   0  0  0  0  0  0
  -24.3604   -9.4160   21.9206 C   0  0  0  0  0  0
  -23.6274   -8.2212   22.0778 C   0  0  0  0  0  0
  -22.4241   -8.0279   21.3567 C   0  0  0  0  0  0
  -21.9873   -9.0251   20.4666 C   0  0  0  0  0  0
  -22.7213  -10.2111   20.3068 C   0  0  0  0  0  0
  -21.6840   -6.0740   22.5283 C   0  0  0  0  0  0
  -21.4024   -6.5649   23.8224 C   0  0  0  0  0  0
  -21.3646   -5.6803   24.9179 C   0  0  0  0  0  0
  -21.6031   -4.3069   24.7220 C   0  0  0  0  0  0
  -21.8820   -3.8160   23.4353 C   0  0  0  0  0  0
  -21.9187   -4.6966   22.3407 C   0  0  0  0  0  0
  -22.7847  -13.5214   21.1816 C   0  0  0  0  0  0
  -22.1650   -4.2165   21.0979 F   0  0  0  0  0  0
  -21.5613   -3.4549   25.7735 F   0  0  0  0  0  0
  -30.0145  -13.3869   20.4002 N   0  0  0  0  0  0
  -26.2927  -12.9165   20.3277 N   0  0  0  0  0  0
  -25.9266  -11.6360   20.5799 N   0  0  0  0  0  0
  -22.0475  -12.8257   22.0391 N   0  0  0  0  0  0
  -25.4311  -15.1796   20.4121 N   0  0  0  0  0  0
  -31.8866  -14.6575   20.1570 O   0  0  0  0  0  0
  -21.6623   -6.8875   21.4248 O   0  0  0  0  0  0
  -22.3555  -14.5513   20.6642 O   0  0  0  0  0  0
  -24.6145  -31.8674   23.2112 C   0  0  0  0  0  0
  -25.9035  -32.4821   23.8410 C   0  0  1  0  0  0
  -27.2310  -27.4277   20.1182 C   0  0  0  0  0  0
  -25.5892  -33.8624   24.2334 N   0  0  0  0  0  0
  -23.4028  -30.4911   21.5497 C   0  0  2  0  0  0
  -24.8539  -28.9583   20.1126 C   0  0  0  0  0  0
  -22.7409  -29.4650   22.4978 C   0  0  0  0  0  0
  -18.0273  -28.1366   22.8485 C   0  0  0  0  0  0
  -24.1485  -36.7321   23.2638 C   0  0  0  0  0  0
  -25.9330  -30.8314   21.3668 C   0  0  0  0  0  0
  -26.0114  -29.4642   20.7202 C   0  0  0  0  0  0
  -27.2051  -28.7034   20.7277 C   0  0  0  0  0  0
  -26.0689  -26.9506   19.4793 C   0  0  0  0  0  0
  -24.8776  -27.6989   19.4896 C   0  0  0  0  0  0
  -23.6132  -29.8230   20.1636 C   0  0  0  0  0  0
  -25.4102  -36.3117   24.0342 C   0  0  1  0  0  0
  -20.5863  -28.3658   23.1307 C   0  0  2  0  0  0
  -20.6761  -26.9391   22.5416 C   0  0  0  0  0  0
  -19.5743  -26.6373   21.5209 C   0  0  0  0  0  0
  -18.1924  -26.7913   22.1621 C   0  0  0  0  0  0
  -19.1523  -28.8829   23.2893 C   0  0  0  0  0  0
  -18.9453  -30.1434   23.8904 C   0  0  0  0  0  0
  -17.6453  -30.6575   24.0565 C   0  0  0  0  0  0
  -25.9024  -34.9480   23.5137 C   0  0  0  0  0  0
  -16.5344  -29.9074   23.6325 C   0  0  0  0  0  0
  -16.7259  -28.6493   23.0343 C   0  0  0  0  0  0
  -26.4470  -31.6591   25.0728 C   0  0  0  0  0  0
  -25.3744  -31.3699   26.1479 C   0  0  0  0  0  0
  -27.0290  -30.3031   24.6098 C   0  0  0  0  0  0
  -27.6064  -32.4295   25.7471 C   0  0  0  0  0  0
  -27.5581  -37.1810   24.8463 C   0  0  0  0  0  0
  -21.4140  -29.3027   22.3718 N   0  0  0  0  0  0
  -26.4296  -37.3793   23.9407 N   0  0  0  0  0  0
  -24.6675  -31.0787   22.1009 N   0  0  0  0  0  0
  -23.4190  -28.8203   23.3027 O   0  0  0  0  0  0
  -28.3592  -26.6370   20.1057 O   0  0  0  0  0  0
  -26.5599  -34.8924   22.4701 O   0  0  0  0  0  0
  -23.5333  -32.1433   23.7504 O   0  0  0  0  0  0
  -29.5107  -21.0325   20.5143 C   0  0  0  0  0  0
  -31.1668  -22.1970   19.5973 C   0  0  0  0  0  0
  -29.9209  -22.3578   20.1389 C   0  0  0  0  0  0
  -30.4588  -20.1159   20.1198 C   0  0  0  0  0  0
  -27.6826  -23.5860   20.6563 C   0  0  0  0  0  0
  -33.1870  -21.0021   17.6620 C   0  0  0  0  0  0
  -32.4365  -19.6967   17.5552 C   0  0  0  0  0  0
  -27.4198  -24.8132   21.5433 C   0  0  0  0  0  0
  -30.9734  -17.9720   21.5119 C   0  0  0  0  0  0
  -29.1686  -17.9337   19.7959 C   0  0  0  0  0  0
  -30.3557  -16.5793   21.8814 C   0  0  0  0  0  0
  -29.3647  -16.4141   19.6058 C   0  0  0  0  0  0
  -29.1510  -23.6879   20.2002 C   0  0  1  0  0  0
  -30.4912  -18.5904   20.1815 C   0  0  0  0  0  0
  -29.7464  -24.8349   21.0557 C   0  0  2  0  0  0
  -32.6888  -20.3075   18.9172 C   0  0  0  0  0  0
  -28.5628  -25.8097   21.2736 C   0  0  1  0  0  0
  -30.9969  -25.5215   20.4838 C   0  0  0  0  0  0
  -31.4793  -20.8498   19.5218 N   0  0  0  0  0  0
  -29.9851  -15.6961   20.7493 N   0  0  0  0  0  0
  -31.4677  -12.4298   19.1441 H   0  0  0  0  0  0
  -30.3136  -11.3596   19.8937 H   0  0  0  0  0  0
  -29.7634  -11.7318   17.4604 H   0  0  0  0  0  0
  -29.6362  -13.4499   17.7368 H   0  0  0  0  0  0
  -27.8764  -11.2485   18.8815 H   0  0  0  0  0  0
  -27.3639  -12.5146   17.7940 H   0  0  0  0  0  0
  -27.6221  -14.1836   19.4588 H   0  0  0  0  0  0
  -28.6936  -12.1007   21.4284 H   0  0  0  0  0  0
  -28.4541  -13.7903   21.7879 H   0  0  0  0  0  0
  -25.2769   -9.5663   22.4761 H   0  0  0  0  0  0
  -24.0014   -7.4587   22.7478 H   0  0  0  0  0  0
  -21.0814   -8.8771   19.8941 H   0  0  0  0  0  0
  -22.3705  -10.9665   19.6172 H   0  0  0  0  0  0
  -21.2056   -7.6160   23.9743 H   0  0  0  0  0  0
  -21.1448   -6.0523   25.9079 H   0  0  0  0  0  0
  -22.0611   -2.7624   23.2838 H   0  0  0  0  0  0
  -22.4040  -11.9940   22.4869 H   0  0  0  0  0  0
  -21.1075  -13.1304   22.2469 H   0  0  0  0  0  0
  -24.6734  -15.8412   20.5422 H   0  0  0  0  0  0
  -26.2979  -15.6235   20.1387 H   0  0  0  0  0  0
  -26.7105  -32.5537   23.1175 H   0  0  0  0  0  0
  -25.0040  -33.9781   25.0481 H   0  0  0  0  0  0
  -22.6907  -31.3081   21.4099 H   0  0  0  0  0  0
  -23.3735  -35.9667   23.3321 H   0  0  0  0  0  0
  -24.3591  -36.8912   22.2051 H   0  0  0  0  0  0
  -23.7254  -37.6541   23.6634 H   0  0  0  0  0  0
  -26.0447  -31.5933   20.5942 H   0  0  0  0  0  0
  -26.8224  -30.8890   21.9827 H   0  0  0  0  0  0
  -28.0971  -29.0869   21.2025 H   0  0  0  0  0  0
  -26.0821  -25.9828   18.9978 H   0  0  0  0  0  0
  -23.9907  -27.3018   19.0156 H   0  0  0  0  0  0
  -23.7179  -30.5982   19.4032 H   0  0  0  0  0  0
  -22.7376  -29.2402   19.8698 H   0  0  0  0  0  0
  -25.1275  -36.1994   25.0837 H   0  0  0  0  0  0
  -20.9954  -28.3224   24.1426 H   0  0  0  0  0  0
  -20.5654  -26.2266   23.3602 H   0  0  0  0  0  0
  -21.6635  -26.7424   22.1220 H   0  0  0  0  0  0
  -19.6910  -25.6292   21.1222 H   0  0  0  0  0  0
  -19.6678  -27.3194   20.6749 H   0  0  0  0  0  0
  -17.4192  -26.6650   21.4029 H   0  0  0  0  0  0
  -18.0327  -26.0053   22.9013 H   0  0  0  0  0  0
  -19.7930  -30.7251   24.2270 H   0  0  0  0  0  0
  -17.5009  -31.6255   24.5164 H   0  0  0  0  0  0
  -15.5346  -30.2980   23.7643 H   0  0  0  0  0  0
  -15.8657  -28.0818   22.7044 H   0  0  0  0  0  0
  -24.5908  -30.7048   25.7827 H   0  0  0  0  0  0
  -24.8942  -32.2849   26.4953 H   0  0  0  0  0  0
  -25.8107  -30.8857   27.0220 H   0  0  0  0  0  0
  -26.2824  -29.6790   24.1167 H   0  0  0  0  0  0
  -27.4071  -29.7273   25.4555 H   0  0  0  0  0  0
  -27.8658  -30.4347   23.9233 H   0  0  0  0  0  0
  -27.2716  -33.3595   26.2069 H   0  0  0  0  0  0
  -28.3855  -32.6841   25.0276 H   0  0  0  0  0  0
  -28.0737  -31.8393   26.5358 H   0  0  0  0  0  0
  -28.2609  -38.0097   24.7506 H   0  0  0  0  0  0
  -28.1068  -36.2635   24.6288 H   0  0  0  0  0  0
  -27.2307  -37.1461   25.8868 H   0  0  0  0  0  0
  -20.9296  -29.8757   21.6948 H   0  0  0  0  0  0
  -26.0191  -38.2875   24.1398 H   0  0  0  0  0  0
  -28.5733  -20.7559   20.9757 H   0  0  0  0  0  0
  -31.8441  -22.9327   19.1867 H   0  0  0  0  0  0
  -27.0188  -23.5736   19.7906 H   0  0  0  0  0  0
  -27.4776  -22.6853   21.2323 H   0  0  0  0  0  0
  -32.6744  -21.8891   17.2929 H   0  0  0  0  0  0
  -34.2556  -20.9755   17.4625 H   0  0  0  0  0  0
  -33.0047  -18.8076   17.2867 H   0  0  0  0  0  0
  -31.4201  -19.7352   17.1668 H   0  0  0  0  0  0
  -27.4875  -24.4969   22.5849 H   0  0  0  0  0  0
  -26.4160  -25.2180   21.4316 H   0  0  0  0  0  0
  -32.0616  -17.9083   21.4898 H   0  0  0  0  0  0
  -30.7416  -18.6593   22.3266 H   0  0  0  0  0  0
  -28.4050  -18.1377   20.5479 H   0  0  0  0  0  0
  -28.8020  -18.3648   18.8623 H   0  0  0  0  0  0
  -29.4368  -16.7505   22.4437 H   0  0  0  0  0  0
  -31.0180  -16.0582   22.5760 H   0  0  0  0  0  0
  -29.9577  -16.2435   18.7040 H   0  0  0  0  0  0
  -28.3823  -16.0214   19.3915 H   0  0  0  0  0  0
  -29.1264  -24.0565   19.1733 H   0  0  0  0  0  0
  -31.1965  -18.2389   19.4288 H   0  0  0  0  0  0
  -30.0046  -24.4180   22.0312 H   0  0  0  0  0  0
  -33.3656  -19.8304   19.6245 H   0  0  0  0  0  0
  -28.7361  -26.4524   22.1393 H   0  0  0  0  0  0
  -30.8357  -25.8611   19.4610 H   0  0  0  0  0  0
  -31.8534  -24.8496   20.4849 H   0  0  0  0  0  0
  -31.2716  -26.3899   21.0839 H   0  0  0  0  0  0
  1 25  1  0  0  0
  1 30  2  0  0  0
  1 90  1  0  0  0
  2  3  1  0  0  0
  2 25  1  0  0  0
  2 91  1  0  0  0
  2 92  1  0  0  0
  3  4  1  0  0  0
  3 93  1  0  0  0
  3 94  1  0  0  0
  4  5  1  0  0  0
  4 95  1  0  0  0
  4 96  1  0  0  0
  5  6  1  0  0  0
  5 26  1  0  0  0
  5 97  1  0  0  0
  6 25  1  0  0  0
  6 98  1  0  0  0
  6 99  1  0  0  0
  7  8  2  0  0  0
  7 26  1  0  0  0
  7 29  1  0  0  0
  8  9  1  0  0  0
  8 22  1  0  0  0
  9 10  1  0  0  0
  9 27  2  0  0  0
 10 11  2  0  0  0
 10 15  1  0  0  0
 11 12  1  0  0  0
 11100  1  0  0  0
 12 13  2  0  0  0
 12101  1  0  0  0
 13 14  1  0  0  0
 13 31  1  0  0  0
 14 15  2  0  0  0
 14102  1  0  0  0
 15103  1  0  0  0
 16 17  2  0  0  0
 16 21  1  0  0  0
 16 31  1  0  0  0
 17 18  1  0  0  0
 17104  1  0  0  0
 18 19  2  0  0  0
 18105  1  0  0  0
 19 20  1  0  0  0
 19 24  1  0  0  0
 20 21  2  0  0  0
 20106  1  0  0  0
 21 23  1  0  0  0
 22 28  1  0  0  0
 22 32  2  0  0  0
 26 27  1  0  0  0
 28107  1  0  0  0
 28108  1  0  0  0
 29109  1  0  0  0
 29110  1  0  0  0
 33 34  1  0  0  0
 33 66  1  0  0  0
 33 70  2  0  0  0
 34 36  1  0  0  0
 34 59  1  0  0  0
 34111  1  0  0  0
 35 44  2  0  0  0
 35 45  1  0  0  0
 35 68  1  0  0  0
 36 56  1  0  0  0
 36112  1  0  0  0
 37 39  1  0  0  0
 37 47  1  0  0  0
 37 66  1  0  0  0
 37113  1  0  0  0
 38 43  2  0  0  0
 38 46  1  0  0  0
 38 47  1  0  0  0
 39 64  1  0  0  0
 39 67  2  0  0  0
 40 52  1  0  0  0
 40 53  2  0  0  0
 40 58  1  0  0  0
 41114  1  0  0  0
 41115  1  0  0  0
 41116  1  0  0  0
 41 48  1  0  0  0
 42 43  1  0  0  0
 42 66  1  0  0  0
 42117  1  0  0  0
 42118  1  0  0  0
 43 44  1  0  0  0
 44119  1  0  0  0
 45 46  2  0  0  0
 45120  1  0  0  0
 46121  1  0  0  0
 47122  1  0  0  0
 47123  1  0  0  0
 48 56  1  0  0  0
 48 65  1  0  0  0
 48124  1  0  0  0
 49 50  1  0  0  0
 49 53  1  0  0  0
 49 64  1  0  0  0
 49125  1  0  0  0
 50 51  1  0  0  0
 50126  1  0  0  0
 50127  1  0  0  0
 51 52  1  0  0  0
 51128  1  0  0  0
 51129  1  0  0  0
 52130  1  0  0  0
 52131  1  0  0  0
 53 54  1  0  0  0
 54 55  2  0  0  0
 54132  1  0  0  0
 55 57  1  0  0  0
 55133  1  0  0  0
 56 69  2  0  0  0
 57 58  2  0  0  0
 57134  1  0  0  0
 58135  1  0  0  0
 59 60  1  0  0  0
 59 61  1  0  0  0
 59 62  1  0  0  0
 60136  1  0  0  0
 60137  1  0  0  0
 60138  1  0  0  0
 61139  1  0  0  0
 61140  1  0  0  0
 61141  1  0  0  0
 62142  1  0  0  0
 62143  1  0  0  0
 62144  1  0  0  0
 63 65  1  0  0  0
 63145  1  0  0  0
 63146  1  0  0  0
 63147  1  0  0  0
 64148  1  0  0  0
 65149  1  0  0  0
 68 87  1  0  0  0
 71 73  1  0  0  0
 71 74  2  0  0  0
 71150  1  0  0  0
 72 73  2  0  0  0
 72 89  1  0  0  0
 72151  1  0  0  0
 73 83  1  0  0  0
 74 89  1  0  0  0
 74 84  1  0  0  0
 75 78  1  0  0  0
 75 83  1  0  0  0
 75152  1  0  0  0
 75153  1  0  0  0
 76 77  1  0  0  0
 76 86  1  0  0  0
 76154  1  0  0  0
 76155  1  0  0  0
 77 86  1  0  0  0
 77156  1  0  0  0
 77157  1  0  0  0
 78 87  1  0  0  0
 78158  1  0  0  0
 78159  1  0  0  0
 79 81  1  0  0  0
 79 84  1  0  0  0
 79160  1  0  0  0
 79161  1  0  0  0
 80 82  1  0  0  0
 80 84  1  0  0  0
 80162  1  0  0  0
 80163  1  0  0  0
 81 90  1  0  0  0
 81164  1  0  0  0
 81165  1  0  0  0
 82 90  1  0  0  0
 82166  1  0  0  0
 82167  1  0  0  0
 83 85  1  0  0  0
 83168  1  0  0  0
 84169  1  0  0  0
 85 87  1  0  0  0
 85 88  1  0  0  0
 85170  1  0  0  0
 86 89  1  0  0  0
 86171  1  0  0  0
 87172  1  0  0  0
 88173  1  0  0  0
 88174  1  0  0  0
 88175  1  0  0  0
M  ISO  4   1 100  68 101  87 101  90 100
M  END
> <chiral flag>
0

> <version>
0

> <s_m_source_file>
/data/baiqing/PycharmProjects/Reinvent-master-3.2/result/LINK_invent/BTK/process_docking_weight1_custom_sum_contain_oxygen_bond_distance_aromatic_linkinvent_7_9_3/rearranged_h_0170.sdf

> <i_m_source_file_index>
70

> <r_mmod_Potential_Energy-OPLS-2005>
350.619781494141

> <r_mmod_Stretch_Energy-OPLS-2005>
45.1918907165527

> <r_mmod_Bend_Energy-OPLS-2005>
154.826690673828

> <r_mmod_Torsional_Energy-OPLS-2005>
480.627990722656

> <r_mmod_Improper_Torsional_Energy-OPLS-2005>
7.57756519317627

> <r_mmod_Van_der_Waal_Energy-OPLS-2005>
126.378791809082

> <r_mmod_Electrostatic_Energy-OPLS-2005>
-310.641235351562

> <r_mmod_Solvation_Energy-OPLS-2005>
-180.779937744141

> <b_mmod_Minimization_Converged-OPLS-2005>
0

> <r_mmod_RMS_Derivative-OPLS-2005>
3.04458975791931

$$$$
71
                    3D
 Structure written by MMmdl.
174184  0  0  1  0            999 V2000
  -30.6144  -14.7240   20.4357 C   0  0  0  0  0  0
  -30.4493  -12.4486   19.4348 C   0  0  0  0  0  0
  -29.5002  -12.5007   18.2146 C   0  0  0  0  0  0
  -28.0256  -12.3392   18.6374 C   0  0  0  0  0  0
  -27.6416  -13.2106   19.8653 C   0  0  2  0  0  0
  -28.7099  -13.1368   20.9797 C   0  0  0  0  0  0
  -25.2465  -13.8047   20.5724 C   0  0  0  0  0  0
  -24.1768  -13.0335   20.9223 C   0  0  0  0  0  0
  -24.6385  -11.6823   20.8808 C   0  0  0  0  0  0
  -23.9057  -10.4238   21.0452 C   0  0  0  0  0  0
  -24.3588   -9.4145   21.9213 C   0  0  0  0  0  0
  -23.6238   -8.2206   22.0769 C   0  0  0  0  0  0
  -22.4221   -8.0265   21.3553 C   0  0  0  0  0  0
  -21.9889   -9.0262   20.4655 C   0  0  0  0  0  0
  -22.7247  -10.2121   20.3082 C   0  0  0  0  0  0
  -21.6846   -6.0701   22.5283 C   0  0  0  0  0  0
  -21.4007   -6.5608   23.8218 C   0  0  0  0  0  0
  -21.3640   -5.6770   24.9178 C   0  0  0  0  0  0
  -21.6037   -4.3038   24.7255 C   0  0  0  0  0  0
  -21.8813   -3.8117   23.4385 C   0  0  0  0  0  0
  -21.9196   -4.6922   22.3422 C   0  0  0  0  0  0
  -22.7801  -13.5140   21.1857 C   0  0  0  0  0  0
  -22.1669   -4.2096   21.1010 F   0  0  0  0  0  0
  -21.5621   -3.4533   25.7778 F   0  0  0  0  0  0
  -30.0060  -13.4917   20.3811 N   0  0  0  0  0  0
  -26.2954  -12.9242   20.3448 N   0  0  0  0  0  0
  -25.9323  -11.6411   20.5899 N   0  0  0  0  0  0
  -22.0445  -12.8166   22.0429 N   0  0  0  0  0  0
  -25.4038  -15.1743   20.4028 N   0  0  0  0  0  0
  -31.8233  -14.8496   20.2294 O   0  0  0  0  0  0
  -21.6598   -6.8852   21.4243 O   0  0  0  0  0  0
  -22.3513  -14.5456   20.6711 O   0  0  0  0  0  0
  -24.6293  -31.8581   23.2045 C   0  0  0  0  0  0
  -25.9129  -32.4766   23.8374 C   0  0  1  0  0  0
  -27.2155  -27.2828   20.1136 C   0  0  0  0  0  0
  -25.5940  -33.8579   24.2272 N   0  0  0  0  0  0
  -23.4244  -30.4848   21.5487 C   0  0  2  0  0  0
  -24.8703  -28.9479   20.1085 C   0  0  0  0  0  0
  -22.7494  -29.4626   22.4932 C   0  0  0  0  0  0
  -18.0277  -28.1386   22.8483 C   0  0  0  0  0  0
  -24.1487  -36.7291   23.2634 C   0  0  0  0  0  0
  -25.9718  -30.7721   21.3885 C   0  0  0  0  0  0
  -26.0419  -29.4000   20.7282 C   0  0  0  0  0  0
  -27.2141  -28.5772   20.7315 C   0  0  0  0  0  0
  -26.0231  -26.9195   19.4334 C   0  0  0  0  0  0
  -24.8653  -27.7130   19.4517 C   0  0  0  0  0  0
  -23.6394  -29.8296   20.1617 C   0  0  0  0  0  0
  -25.4110  -36.3083   24.0318 C   0  0  1  0  0  0
  -20.5888  -28.3700   23.1267 C   0  0  2  0  0  0
  -20.6781  -26.9420   22.5412 C   0  0  0  0  0  0
  -19.5765  -26.6388   21.5210 C   0  0  0  0  0  0
  -18.1930  -26.7930   22.1608 C   0  0  0  0  0  0
  -19.1534  -28.8855   23.2864 C   0  0  0  0  0  0
  -18.9457  -30.1455   23.8892 C   0  0  0  0  0  0
  -17.6470  -30.6593   24.0563 C   0  0  0  0  0  0
  -25.9057  -34.9448   23.5096 C   0  0  0  0  0  0
  -16.5359  -29.9095   23.6337 C   0  0  0  0  0  0
  -16.7276  -28.6507   23.0361 C   0  0  0  0  0  0
  -26.4516  -31.6594   25.0755 C   0  0  0  0  0  0
  -25.3726  -31.3729   26.1459 C   0  0  0  0  0  0
  -27.0356  -30.3004   24.6236 C   0  0  0  0  0  0
  -27.6083  -32.4331   25.7506 C   0  0  0  0  0  0
  -27.5580  -37.1786   24.8449 C   0  0  0  0  0  0
  -21.4205  -29.3053   22.3654 N   0  0  0  0  0  0
  -26.4279  -37.3783   23.9428 N   0  0  0  0  0  0
  -24.6942  -31.0557   22.1030 N   0  0  0  0  0  0
  -23.4194  -28.8141   23.3007 O   0  0  0  0  0  0
  -28.2942  -26.3665   20.2087 O   0  0  0  0  0  0
  -26.5642  -34.8938   22.4666 O   0  0  0  0  0  0
  -23.5445  -32.1416   23.7352 O   0  0  0  0  0  0
  -29.1841  -23.3831   21.5842 C   0  0  0  0  0  0
  -29.6294  -22.0972   21.9825 C   0  0  0  0  0  0
  -28.8045  -23.6601   20.2462 C   0  0  0  0  0  0
  -28.9389  -22.5159   19.3849 C   0  0  0  0  0  0
  -29.6904  -21.0097   21.0627 C   0  0  0  0  0  0
  -28.3254  -17.1932   20.0016 C   0  0  0  0  0  0
  -29.8390  -23.5710   23.8817 C   0  0  0  0  0  0
  -29.2248  -16.3478   19.0986 C   0  0  0  0  0  0
  -29.1181  -24.3414   22.7533 C   0  0  2  0  0  0
  -29.5021  -17.1885   20.9690 C   0  0  2  0  0  0
  -29.9408  -22.0729   23.4765 C   0  0  0  0  0  0
  -28.5118  -22.5842   17.9268 C   0  0  0  0  0  0
  -27.6835  -24.7182   23.1583 C   0  0  0  0  0  0
  -28.8873  -21.2369   24.2334 C   0  0  0  0  0  0
  -31.3580  -21.5474   23.7926 C   0  0  0  0  0  0
  -28.0243  -24.9634   19.7754 C   0  0  0  0  0  0
  -30.4460  -18.4503   20.7629 C   0  0  0  0  0  0
  -29.3748  -21.2667   19.7707 N   0  0  0  0  0  0
  -29.7656  -15.8151   20.3501 N   0  0  0  0  0  0
  -29.9769  -19.6711   21.4973 N   0  0  0  0  0  0
  -31.4777  -12.6151   19.1088 H   0  0  0  0  0  0
  -30.4352  -11.4643   19.9045 H   0  0  0  0  0  0
  -29.7650  -11.7254   17.4946 H   0  0  0  0  0  0
  -29.6254  -13.4484   17.6907 H   0  0  0  0  0  0
  -27.8609  -11.2842   18.8605 H   0  0  0  0  0  0
  -27.3717  -12.5777   17.7978 H   0  0  0  0  0  0
  -27.6090  -14.2332   19.5154 H   0  0  0  0  0  0
  -28.7593  -12.1368   21.4096 H   0  0  0  0  0  0
  -28.4604  -13.8172   21.7959 H   0  0  0  0  0  0
  -25.2749   -9.5586   22.4771 H   0  0  0  0  0  0
  -23.9931   -7.4591   22.7477 H   0  0  0  0  0  0
  -21.0846   -8.8823   19.8934 H   0  0  0  0  0  0
  -22.3773  -10.9674   19.6175 H   0  0  0  0  0  0
  -21.1997   -7.6113   23.9717 H   0  0  0  0  0  0
  -21.1455   -6.0500   25.9079 H   0  0  0  0  0  0
  -22.0605   -2.7576   23.2934 H   0  0  0  0  0  0
  -22.4033  -11.9759   22.4722 H   0  0  0  0  0  0
  -21.1089  -13.1226   22.2660 H   0  0  0  0  0  0
  -24.6400  -15.8319   20.5126 H   0  0  0  0  0  0
  -26.2666  -15.6089   20.1082 H   0  0  0  0  0  0
  -26.7182  -32.5432   23.1109 H   0  0  0  0  0  0
  -25.0100  -33.9714   25.0431 H   0  0  0  0  0  0
  -22.7183  -31.3050   21.4067 H   0  0  0  0  0  0
  -23.3770  -35.9590   23.3256 H   0  0  0  0  0  0
  -24.3582  -36.8978   22.2054 H   0  0  0  0  0  0
  -23.7212  -37.6468   23.6701 H   0  0  0  0  0  0
  -26.1103  -31.5291   20.6161 H   0  0  0  0  0  0
  -26.8500  -30.8195   22.0197 H   0  0  0  0  0  0
  -28.1039  -28.9081   21.2487 H   0  0  0  0  0  0
  -25.9303  -26.0002   18.8767 H   0  0  0  0  0  0
  -23.9734  -27.3729   18.9425 H   0  0  0  0  0  0
  -23.7639  -30.6110   19.4110 H   0  0  0  0  0  0
  -22.7579  -29.2648   19.8565 H   0  0  0  0  0  0
  -25.1282  -36.1923   25.0801 H   0  0  0  0  0  0
  -20.9964  -28.3291   24.1394 H   0  0  0  0  0  0
  -20.5686  -26.2315   23.3614 H   0  0  0  0  0  0
  -21.6641  -26.7447   22.1194 H   0  0  0  0  0  0
  -19.6945  -25.6294   21.1247 H   0  0  0  0  0  0
  -19.6719  -27.3187   20.6725 H   0  0  0  0  0  0
  -17.4204  -26.6682   21.4000 H   0  0  0  0  0  0
  -18.0331  -26.0053   22.8982 H   0  0  0  0  0  0
  -19.7933  -30.7257   24.2278 H   0  0  0  0  0  0
  -17.5028  -31.6280   24.5159 H   0  0  0  0  0  0
  -15.5364  -30.3008   23.7675 H   0  0  0  0  0  0
  -15.8662  -28.0845   22.7094 H   0  0  0  0  0  0
  -24.5924  -30.7052   25.7791 H   0  0  0  0  0  0
  -24.8882  -32.2885   26.4854 H   0  0  0  0  0  0
  -25.8025  -30.8940   27.0258 H   0  0  0  0  0  0
  -26.2934  -29.6747   24.1252 H   0  0  0  0  0  0
  -27.4041  -29.7272   25.4763 H   0  0  0  0  0  0
  -27.8822  -30.4302   23.9480 H   0  0  0  0  0  0
  -27.2726  -33.3676   26.2014 H   0  0  0  0  0  0
  -28.3909  -32.6809   25.0319 H   0  0  0  0  0  0
  -28.0717  -31.8487   26.5469 H   0  0  0  0  0  0
  -28.2550  -38.0135   24.7583 H   0  0  0  0  0  0
  -28.1140  -36.2678   24.6168 H   0  0  0  0  0  0
  -27.2325  -37.1295   25.8857 H   0  0  0  0  0  0
  -20.9396  -29.8791   21.6877 H   0  0  0  0  0  0
  -26.0162  -38.2844   24.1494 H   0  0  0  0  0  0
  -27.4559  -16.6720   20.3941 H   0  0  0  0  0  0
  -28.0557  -18.1706   19.5963 H   0  0  0  0  0  0
  -29.3973  -23.7273   24.8671 H   0  0  0  0  0  0
  -30.8448  -23.9887   23.9442 H   0  0  0  0  0  0
  -29.9529  -16.9118   18.5113 H   0  0  0  0  0  0
  -28.6878  -15.6591   18.4524 H   0  0  0  0  0  0
  -29.6743  -25.2491   22.5098 H   0  0  0  0  0  0
  -29.1647  -17.0945   22.0018 H   0  0  0  0  0  0
  -27.4514  -22.8260   17.8492 H   0  0  0  0  0  0
  -28.6751  -21.6404   17.4039 H   0  0  0  0  0  0
  -29.0785  -23.3460   17.3928 H   0  0  0  0  0  0
  -27.0908  -23.8317   23.3817 H   0  0  0  0  0  0
  -27.1702  -25.2798   22.3804 H   0  0  0  0  0  0
  -27.6862  -25.3480   24.0483 H   0  0  0  0  0  0
  -27.8733  -21.5665   24.0092 H   0  0  0  0  0  0
  -29.0183  -21.3126   25.3132 H   0  0  0  0  0  0
  -28.9471  -20.1804   23.9772 H   0  0  0  0  0  0
  -32.1259  -22.1319   23.2841 H   0  0  0  0  0  0
  -31.4957  -20.5072   23.5049 H   0  0  0  0  0  0
  -31.5648  -21.6047   24.8627 H   0  0  0  0  0  0
  -27.0140  -24.6944   20.0811 H   0  0  0  0  0  0
  -28.0196  -24.9974   18.6882 H   0  0  0  0  0  0
  -30.5639  -18.7043   19.7093 H   0  0  0  0  0  0
  -31.4466  -18.2117   21.1257 H   0  0  0  0  0  0
  -30.0604  -19.5827   22.5016 H   0  0  0  0  0  0
  1 25  1  0  0  0
  1 30  2  0  0  0
  1 89  1  0  0  0
  2  3  1  0  0  0
  2 25  1  0  0  0
  2 91  1  0  0  0
  2 92  1  0  0  0
  3  4  1  0  0  0
  3 93  1  0  0  0
  3 94  1  0  0  0
  4  5  1  0  0  0
  4 95  1  0  0  0
  4 96  1  0  0  0
  5  6  1  0  0  0
  5 26  1  0  0  0
  5 97  1  0  0  0
  6 25  1  0  0  0
  6 98  1  0  0  0
  6 99  1  0  0  0
  7  8  2  0  0  0
  7 26  1  0  0  0
  7 29  1  0  0  0
  8  9  1  0  0  0
  8 22  1  0  0  0
  9 10  1  0  0  0
  9 27  2  0  0  0
 10 11  2  0  0  0
 10 15  1  0  0  0
 11 12  1  0  0  0
 11100  1  0  0  0
 12 13  2  0  0  0
 12101  1  0  0  0
 13 14  1  0  0  0
 13 31  1  0  0  0
 14 15  2  0  0  0
 14102  1  0  0  0
 15103  1  0  0  0
 16 17  2  0  0  0
 16 21  1  0  0  0
 16 31  1  0  0  0
 17 18  1  0  0  0
 17104  1  0  0  0
 18 19  2  0  0  0
 18105  1  0  0  0
 19 20  1  0  0  0
 19 24  1  0  0  0
 20 21  2  0  0  0
 20106  1  0  0  0
 21 23  1  0  0  0
 22 28  1  0  0  0
 22 32  2  0  0  0
 26 27  1  0  0  0
 28107  1  0  0  0
 28108  1  0  0  0
 29109  1  0  0  0
 29110  1  0  0  0
 33 34  1  0  0  0
 33 66  1  0  0  0
 33 70  2  0  0  0
 34 36  1  0  0  0
 34 59  1  0  0  0
 34111  1  0  0  0
 35 44  2  0  0  0
 35 45  1  0  0  0
 35 68  1  0  0  0
 36 56  1  0  0  0
 36112  1  0  0  0
 37 39  1  0  0  0
 37 47  1  0  0  0
 37 66  1  0  0  0
 37113  1  0  0  0
 38 43  2  0  0  0
 38 46  1  0  0  0
 38 47  1  0  0  0
 39 64  1  0  0  0
 39 67  2  0  0  0
 40 52  1  0  0  0
 40 53  2  0  0  0
 40 58  1  0  0  0
 41114  1  0  0  0
 41115  1  0  0  0
 41116  1  0  0  0
 41 48  1  0  0  0
 42 43  1  0  0  0
 42 66  1  0  0  0
 42117  1  0  0  0
 42118  1  0  0  0
 43 44  1  0  0  0
 44119  1  0  0  0
 45 46  2  0  0  0
 45120  1  0  0  0
 46121  1  0  0  0
 47122  1  0  0  0
 47123  1  0  0  0
 48 56  1  0  0  0
 48 65  1  0  0  0
 48124  1  0  0  0
 49 50  1  0  0  0
 49 53  1  0  0  0
 49 64  1  0  0  0
 49125  1  0  0  0
 50 51  1  0  0  0
 50126  1  0  0  0
 50127  1  0  0  0
 51 52  1  0  0  0
 51128  1  0  0  0
 51129  1  0  0  0
 52130  1  0  0  0
 52131  1  0  0  0
 53 54  1  0  0  0
 54 55  2  0  0  0
 54132  1  0  0  0
 55 57  1  0  0  0
 55133  1  0  0  0
 56 69  2  0  0  0
 57 58  2  0  0  0
 57134  1  0  0  0
 58135  1  0  0  0
 59 60  1  0  0  0
 59 61  1  0  0  0
 59 62  1  0  0  0
 60136  1  0  0  0
 60137  1  0  0  0
 60138  1  0  0  0
 61139  1  0  0  0
 61140  1  0  0  0
 61141  1  0  0  0
 62142  1  0  0  0
 62143  1  0  0  0
 62144  1  0  0  0
 63 65  1  0  0  0
 63145  1  0  0  0
 63146  1  0  0  0
 63147  1  0  0  0
 64148  1  0  0  0
 65149  1  0  0  0
 68 86  1  0  0  0
 71 72  2  0  0  0
 71 73  1  0  0  0
 71 79  1  0  0  0
 72 75  1  0  0  0
 72 81  1  0  0  0
 73 74  2  0  0  0
 73 86  1  0  0  0
 74 82  1  0  0  0
 74 88  1  0  0  0
 75 88  2  0  0  0
 75 90  1  0  0  0
 76 78  1  0  0  0
 76 80  1  0  0  0
 76150  1  0  0  0
 76151  1  0  0  0
 77 79  1  0  0  0
 77 81  1  0  0  0
 77152  1  0  0  0
 77153  1  0  0  0
 78 89  1  0  0  0
 78154  1  0  0  0
 78155  1  0  0  0
 79 83  1  0  0  0
 79156  1  0  0  0
 80 87  1  0  0  0
 80 89  1  0  0  0
 80157  1  0  0  0
 81 84  1  0  0  0
 81 85  1  0  0  0
 82158  1  0  0  0
 82159  1  0  0  0
 82160  1  0  0  0
 83161  1  0  0  0
 83162  1  0  0  0
 83163  1  0  0  0
 84164  1  0  0  0
 84165  1  0  0  0
 84166  1  0  0  0
 85167  1  0  0  0
 85168  1  0  0  0
 85169  1  0  0  0
 86170  1  0  0  0
 86171  1  0  0  0
 87 90  1  0  0  0
 87172  1  0  0  0
 87173  1  0  0  0
 90174  1  0  0  0
M  ISO  4   1 100  68 101  86 101  89 100
M  END
> <chiral flag>
0

> <version>
0

> <s_m_source_file>
/data/baiqing/PycharmProjects/Reinvent-master-3.2/result/LINK_invent/BTK/process_docking_weight1_custom_sum_contain_oxygen_bond_distance_aromatic_linkinvent_7_9_3/rearranged_h_0170.sdf

> <i_m_source_file_index>
71

> <r_mmod_Potential_Energy-OPLS-2005>
167.378768920898

> <r_mmod_Stretch_Energy-OPLS-2005>
99.0874481201172

> <r_mmod_Bend_Energy-OPLS-2005>
270.796875

> <r_mmod_Torsional_Energy-OPLS-2005>
334.928466796875

> <r_mmod_Improper_Torsional_Energy-OPLS-2005>
15.903359413147

> <r_mmod_Van_der_Waal_Energy-OPLS-2005>
144.527145385742

> <r_mmod_Electrostatic_Energy-OPLS-2005>
-564.958740234375

> <r_mmod_Solvation_Energy-OPLS-2005>
-216.265853881836

> <b_mmod_Minimization_Converged-OPLS-2005>
0

> <r_mmod_RMS_Derivative-OPLS-2005>
3.38374137878418

$$$$
72
                    3D
 Structure written by MMmdl.
171180  0  0  1  0            999 V2000
  -30.7735  -14.4124   20.5435 C   0  0  0  0  0  0
  -30.3993  -12.2663   19.4214 C   0  0  0  0  0  0
  -29.4854  -12.4879   18.2011 C   0  0  0  0  0  0
  -28.0062  -12.3706   18.6154 C   0  0  0  0  0  0
  -27.6587  -13.2179   19.8700 C   0  0  2  0  0  0
  -28.7053  -13.0271   20.9934 C   0  0  0  0  0  0
  -25.2561  -13.8186   20.5693 C   0  0  0  0  0  0
  -24.1836  -13.0451   20.9189 C   0  0  0  0  0  0
  -24.6404  -11.6917   20.8737 C   0  0  0  0  0  0
  -23.9067  -10.4296   21.0402 C   0  0  0  0  0  0
  -24.3614   -9.4206   21.9179 C   0  0  0  0  0  0
  -23.6290   -8.2243   22.0747 C   0  0  0  0  0  0
  -22.4273   -8.0284   21.3538 C   0  0  0  0  0  0
  -21.9913   -9.0255   20.4642 C   0  0  0  0  0  0
  -22.7239  -10.2135   20.3055 C   0  0  0  0  0  0
  -21.6856   -6.0736   22.5274 C   0  0  0  0  0  0
  -21.4018   -6.5639   23.8209 C   0  0  0  0  0  0
  -21.3659   -5.6787   24.9174 C   0  0  0  0  0  0
  -21.6043   -4.3052   24.7227 C   0  0  0  0  0  0
  -21.8816   -3.8143   23.4348 C   0  0  0  0  0  0
  -21.9193   -4.6958   22.3401 C   0  0  0  0  0  0
  -22.7852  -13.5230   21.1849 C   0  0  0  0  0  0
  -22.1660   -4.2143   21.0978 F   0  0  0  0  0  0
  -21.5628   -3.4535   25.7746 F   0  0  0  0  0  0
  -30.0388  -13.2775   20.4257 N   0  0  0  0  0  0
  -26.3012  -12.9386   20.3370 N   0  0  0  0  0  0
  -25.9337  -11.6523   20.5776 N   0  0  0  0  0  0
  -22.0495  -12.8215   22.0403 N   0  0  0  0  0  0
  -25.4265  -15.1908   20.4100 N   0  0  0  0  0  0
  -31.9289  -14.5000   20.1258 O   0  0  0  0  0  0
  -21.6638   -6.8883   21.4239 O   0  0  0  0  0  0
  -22.3524  -14.5530   20.6696 O   0  0  0  0  0  0
  -24.6078  -31.8723   23.2134 C   0  0  0  0  0  0
  -25.8986  -32.4846   23.8418 C   0  0  1  0  0  0
  -27.2372  -27.4884   20.0871 C   0  0  0  0  0  0
  -25.5854  -33.8643   24.2348 N   0  0  0  0  0  0
  -23.3947  -30.4891   21.5560 C   0  0  2  0  0  0
  -24.8416  -28.9614   20.1175 C   0  0  0  0  0  0
  -22.7369  -29.4647   22.5068 C   0  0  0  0  0  0
  -18.0236  -28.1362   22.8468 C   0  0  0  0  0  0
  -24.1506  -36.7352   23.2639 C   0  0  0  0  0  0
  -25.9163  -30.8517   21.3607 C   0  0  0  0  0  0
  -25.9936  -29.4870   20.7127 C   0  0  0  0  0  0
  -27.1964  -28.7544   20.7028 C   0  0  0  0  0  0
  -26.0783  -26.9635   19.4819 C   0  0  0  0  0  0
  -24.8742  -27.6939   19.5023 C   0  0  0  0  0  0
  -23.5975  -29.8188   20.1708 C   0  0  0  0  0  0
  -25.4124  -36.3138   24.0336 C   0  0  1  0  0  0
  -20.5816  -28.3610   23.1352 C   0  0  2  0  0  0
  -20.6742  -26.9364   22.5433 C   0  0  0  0  0  0
  -19.5742  -26.6361   21.5216 C   0  0  0  0  0  0
  -18.1892  -26.7903   22.1601 C   0  0  0  0  0  0
  -19.1490  -28.8809   23.2894 C   0  0  0  0  0  0
  -18.9440  -30.1420   23.8891 C   0  0  0  0  0  0
  -17.6440  -30.6567   24.0550 C   0  0  0  0  0  0
  -25.9043  -34.9496   23.5157 C   0  0  0  0  0  0
  -16.5328  -29.9078   23.6329 C   0  0  0  0  0  0
  -16.7236  -28.6498   23.0320 C   0  0  0  0  0  0
  -26.4459  -31.6592   25.0713 C   0  0  0  0  0  0
  -25.3763  -31.3661   26.1476 C   0  0  0  0  0  0
  -27.0273  -30.3049   24.6005 C   0  0  0  0  0  0
  -27.6026  -32.4330   25.7459 C   0  0  0  0  0  0
  -27.5597  -37.1832   24.8453 C   0  0  0  0  0  0
  -21.4105  -29.2996   22.3798 N   0  0  0  0  0  0
  -26.4322  -37.3807   23.9392 N   0  0  0  0  0  0
  -24.6563  -31.0852   22.1014 N   0  0  0  0  0  0
  -23.4146  -28.8178   23.3108 O   0  0  0  0  0  0
  -28.3897  -26.7541   20.0663 O   0  0  0  0  0  0
  -26.5626  -34.8943   22.4728 O   0  0  0  0  0  0
  -23.5286  -32.1467   23.7558 O   0  0  0  0  0  0
  -29.0803  -18.7968   21.1529 C   0  0  0  0  0  0
  -30.0474  -17.9293   21.6995 C   0  0  0  0  0  0
  -30.4623  -18.1615   23.0369 C   0  0  0  0  0  0
  -29.9864  -19.3224   23.7019 C   0  0  0  0  0  0
  -29.1323  -20.2019   22.9924 C   0  0  0  0  0  0
  -29.9145  -22.5536   23.8522 C   0  0  0  0  0  0
  -28.8072  -21.6097   23.4093 C   0  0  1  0  0  0
  -29.3076  -22.7105   22.4894 C   0  0  1  0  0  0
  -31.4686  -17.2396   23.7217 C   0  0  0  0  0  0
  -30.4497  -19.6470   25.1194 C   0  0  0  0  0  0
  -30.8125  -17.3000   19.3282 C   0  0  0  0  0  0
  -30.1110  -26.8866   21.7290 C   0  0  0  0  0  0
  -28.8616  -24.7246   21.1678 C   0  0  0  0  0  0
  -30.7079  -16.8637   20.8121 C   0  0  2  0  0  0
  -28.7699  -26.2451   21.3423 C   0  0  2  0  0  0
  -28.6400  -19.9013   21.7767 N   0  0  0  0  0  0
  -30.1249  -15.5183   20.9422 N   0  0  0  0  0  0
  -28.5236  -23.9591   22.3918 N   0  3  0  0  0  0
  -31.4489  -12.3133   19.1222 H   0  0  0  0  0  0
  -30.2535  -11.2665   19.8319 H   0  0  0  0  0  0
  -29.7123  -11.7576   17.4233 H   0  0  0  0  0  0
  -29.6742  -13.4700   17.7670 H   0  0  0  0  0  0
  -27.8025  -11.3182   18.8105 H   0  0  0  0  0  0
  -27.3608  -12.6520   17.7826 H   0  0  0  0  0  0
  -27.6964  -14.2626   19.5588 H   0  0  0  0  0  0
  -28.6634  -12.0088   21.3827 H   0  0  0  0  0  0
  -28.4925  -13.6830   21.8399 H   0  0  0  0  0  0
  -25.2762   -9.5683   22.4751 H   0  0  0  0  0  0
  -23.9998   -7.4636   22.7474 H   0  0  0  0  0  0
  -21.0835   -8.8769   19.8956 H   0  0  0  0  0  0
  -22.3688  -10.9669   19.6162 H   0  0  0  0  0  0
  -21.2012   -7.6151   23.9713 H   0  0  0  0  0  0
  -21.1485   -6.0524   25.9077 H   0  0  0  0  0  0
  -22.0599   -2.7607   23.2850 H   0  0  0  0  0  0
  -22.4104  -11.9878   22.4788 H   0  0  0  0  0  0
  -21.1114  -13.1235   22.2617 H   0  0  0  0  0  0
  -24.6591  -15.8462   20.5168 H   0  0  0  0  0  0
  -26.2787  -15.6300   20.0833 H   0  0  0  0  0  0
  -26.7042  -32.5573   23.1178 H   0  0  0  0  0  0
  -24.9931  -33.9798   25.0449 H   0  0  0  0  0  0
  -22.6814  -31.3038   21.4171 H   0  0  0  0  0  0
  -23.3753  -35.9708   23.3319 H   0  0  0  0  0  0
  -24.3595  -36.8961   22.2057 H   0  0  0  0  0  0
  -23.7302  -37.6566   23.6657 H   0  0  0  0  0  0
  -26.0221  -31.6188   20.5914 H   0  0  0  0  0  0
  -26.8042  -30.9030   21.9779 H   0  0  0  0  0  0
  -28.0881  -29.1640   21.1542 H   0  0  0  0  0  0
  -26.1101  -25.9940   19.0023 H   0  0  0  0  0  0
  -23.9868  -27.2816   19.0400 H   0  0  0  0  0  0
  -23.6932  -30.5907   19.4078 H   0  0  0  0  0  0
  -22.7250  -29.2250   19.8896 H   0  0  0  0  0  0
  -25.1300  -36.2027   25.0838 H   0  0  0  0  0  0
  -20.9867  -28.3168   24.1492 H   0  0  0  0  0  0
  -20.5674  -26.2212   23.3586 H   0  0  0  0  0  0
  -21.6612  -26.7455   22.1215 H   0  0  0  0  0  0
  -19.6923  -25.6279   21.1224 H   0  0  0  0  0  0
  -19.6708  -27.3199   20.6762 H   0  0  0  0  0  0
  -17.4183  -26.6633   21.3977 H   0  0  0  0  0  0
  -18.0266  -26.0053   22.9019 H   0  0  0  0  0  0
  -19.7942  -30.7218   24.2233 H   0  0  0  0  0  0
  -17.5033  -31.6246   24.5155 H   0  0  0  0  0  0
  -15.5332  -30.2973   23.7704 H   0  0  0  0  0  0
  -15.8627  -28.0861   22.7005 H   0  0  0  0  0  0
  -24.5903  -30.7037   25.7832 H   0  0  0  0  0  0
  -24.8966  -32.2787   26.5010 H   0  0  0  0  0  0
  -25.8124  -30.8771   27.0204 H   0  0  0  0  0  0
  -26.2750  -29.6790   24.1170 H   0  0  0  0  0  0
  -27.4188  -29.7282   25.4399 H   0  0  0  0  0  0
  -27.8539  -30.4384   23.9020 H   0  0  0  0  0  0
  -27.2596  -33.3609   26.2078 H   0  0  0  0  0  0
  -28.3780  -32.6955   25.0243 H   0  0  0  0  0  0
  -28.0765  -31.8457   26.5348 H   0  0  0  0  0  0
  -28.2607  -38.0131   24.7492 H   0  0  0  0  0  0
  -28.1083  -36.2657   24.6273 H   0  0  0  0  0  0
  -27.2292  -37.1476   25.8845 H   0  0  0  0  0  0
  -20.9247  -29.8764   21.7073 H   0  0  0  0  0  0
  -26.0216  -38.2888   24.1384 H   0  0  0  0  0  0
  -28.7013  -18.6642   20.1502 H   0  0  0  0  0  0
  -30.9349  -22.1786   23.8892 H   0  0  0  0  0  0
  -29.6617  -23.2828   24.6197 H   0  0  0  0  0  0
  -27.8234  -21.6962   23.8699 H   0  0  0  0  0  0
  -29.8662  -22.4191   21.6000 H   0  0  0  0  0  0
  -31.4362  -16.2255   23.3276 H   0  0  0  0  0  0
  -31.2799  -17.1432   24.7882 H   0  0  0  0  0  0
  -32.4797  -17.6261   23.5933 H   0  0  0  0  0  0
  -31.5281  -19.8175   25.1372 H   0  0  0  0  0  0
  -30.2226  -18.8249   25.7997 H   0  0  0  0  0  0
  -29.9597  -20.5248   25.5374 H   0  0  0  0  0  0
  -31.2623  -18.2902   19.2385 H   0  0  0  0  0  0
  -29.8457  -17.3221   18.8259 H   0  0  0  0  0  0
  -31.4501  -16.6294   18.7524 H   0  0  0  0  0  0
  -30.0202  -27.9677   21.8287 H   0  0  0  0  0  0
  -30.8767  -26.6968   20.9760 H   0  0  0  0  0  0
  -30.4787  -26.4990   22.6798 H   0  0  0  0  0  0
  -29.8608  -24.4828   20.8031 H   0  0  0  0  0  0
  -28.1716  -24.3937   20.3912 H   0  0  0  0  0  0
  -31.7454  -16.8126   21.1494 H   0  0  0  0  0  0
  -28.0260  -26.4820   22.1077 H   0  0  0  0  0  0
  -29.1639  -15.4289   21.2340 H   0  0  0  0  0  0
  -28.7031  -24.5221   23.2087 H   0  0  0  0  0  0
  -27.5356  -23.7515   22.3782 H   0  0  0  0  0  0
  1 25  1  0  0  0
  1 30  2  0  0  0
  1 87  1  0  0  0
  2  3  1  0  0  0
  2 25  1  0  0  0
  2 89  1  0  0  0
  2 90  1  0  0  0
  3  4  1  0  0  0
  3 91  1  0  0  0
  3 92  1  0  0  0
  4  5  1  0  0  0
  4 93  1  0  0  0
  4 94  1  0  0  0
  5  6  1  0  0  0
  5 26  1  0  0  0
  5 95  1  0  0  0
  6 25  1  0  0  0
  6 96  1  0  0  0
  6 97  1  0  0  0
  7  8  2  0  0  0
  7 26  1  0  0  0
  7 29  1  0  0  0
  8  9  1  0  0  0
  8 22  1  0  0  0
  9 10  1  0  0  0
  9 27  2  0  0  0
 10 11  2  0  0  0
 10 15  1  0  0  0
 11 12  1  0  0  0
 11 98  1  0  0  0
 12 13  2  0  0  0
 12 99  1  0  0  0
 13 14  1  0  0  0
 13 31  1  0  0  0
 14 15  2  0  0  0
 14100  1  0  0  0
 15101  1  0  0  0
 16 17  2  0  0  0
 16 21  1  0  0  0
 16 31  1  0  0  0
 17 18  1  0  0  0
 17102  1  0  0  0
 18 19  2  0  0  0
 18103  1  0  0  0
 19 20  1  0  0  0
 19 24  1  0  0  0
 20 21  2  0  0  0
 20104  1  0  0  0
 21 23  1  0  0  0
 22 28  1  0  0  0
 22 32  2  0  0  0
 26 27  1  0  0  0
 28105  1  0  0  0
 28106  1  0  0  0
 29107  1  0  0  0
 29108  1  0  0  0
 33 34  1  0  0  0
 33 66  1  0  0  0
 33 70  2  0  0  0
 34 36  1  0  0  0
 34 59  1  0  0  0
 34109  1  0  0  0
 35 44  2  0  0  0
 35 45  1  0  0  0
 35 68  1  0  0  0
 36 56  1  0  0  0
 36110  1  0  0  0
 37 39  1  0  0  0
 37 47  1  0  0  0
 37 66  1  0  0  0
 37111  1  0  0  0
 38 43  2  0  0  0
 38 46  1  0  0  0
 38 47  1  0  0  0
 39 64  1  0  0  0
 39 67  2  0  0  0
 40 52  1  0  0  0
 40 53  2  0  0  0
 40 58  1  0  0  0
 41112  1  0  0  0
 41113  1  0  0  0
 41114  1  0  0  0
 41 48  1  0  0  0
 42 43  1  0  0  0
 42 66  1  0  0  0
 42115  1  0  0  0
 42116  1  0  0  0
 43 44  1  0  0  0
 44117  1  0  0  0
 45 46  2  0  0  0
 45118  1  0  0  0
 46119  1  0  0  0
 47120  1  0  0  0
 47121  1  0  0  0
 48 56  1  0  0  0
 48 65  1  0  0  0
 48122  1  0  0  0
 49 50  1  0  0  0
 49 53  1  0  0  0
 49 64  1  0  0  0
 49123  1  0  0  0
 50 51  1  0  0  0
 50124  1  0  0  0
 50125  1  0  0  0
 51 52  1  0  0  0
 51126  1  0  0  0
 51127  1  0  0  0
 52128  1  0  0  0
 52129  1  0  0  0
 53 54  1  0  0  0
 54 55  2  0  0  0
 54130  1  0  0  0
 55 57  1  0  0  0
 55131  1  0  0  0
 56 69  2  0  0  0
 57 58  2  0  0  0
 57132  1  0  0  0
 58133  1  0  0  0
 59 60  1  0  0  0
 59 61  1  0  0  0
 59 62  1  0  0  0
 60134  1  0  0  0
 60135  1  0  0  0
 60136  1  0  0  0
 61137  1  0  0  0
 61138  1  0  0  0
 61139  1  0  0  0
 62140  1  0  0  0
 62141  1  0  0  0
 62142  1  0  0  0
 63 65  1  0  0  0
 63143  1  0  0  0
 63144  1  0  0  0
 63145  1  0  0  0
 64146  1  0  0  0
 65147  1  0  0  0
 68 85  1  0  0  0
 71 72  2  0  0  0
 71 86  1  0  0  0
 71148  1  0  0  0
 72 73  1  0  0  0
 72 84  1  0  0  0
 73 74  2  0  0  0
 73 79  1  0  0  0
 74 75  1  0  0  0
 74 80  1  0  0  0
 75 86  2  0  0  0
 75 77  1  0  0  0
 76 77  1  0  0  0
 76 78  1  0  0  0
 76149  1  0  0  0
 76150  1  0  0  0
 77 78  1  0  0  0
 77151  1  0  0  0
 78 88  1  0  0  0
 78152  1  0  0  0
 79153  1  0  0  0
 79154  1  0  0  0
 79155  1  0  0  0
 80156  1  0  0  0
 80157  1  0  0  0
 80158  1  0  0  0
 81159  1  0  0  0
 81160  1  0  0  0
 81161  1  0  0  0
 81 84  1  0  0  0
 82162  1  0  0  0
 82163  1  0  0  0
 82164  1  0  0  0
 82 85  1  0  0  0
 83 85  1  0  0  0
 83 88  1  0  0  0
 83165  1  0  0  0
 83166  1  0  0  0
 84 87  1  0  0  0
 84167  1  0  0  0
 85168  1  0  0  0
 87169  1  0  0  0
 88170  1  0  0  0
 88171  1  0  0  0
M  CHG  1  88   1
M  ISO  4   1 100  68 101  85 101  87 100
M  END
> <chiral flag>
0

> <version>
0

> <s_m_source_file>
/data/baiqing/PycharmProjects/Reinvent-master-3.2/result/LINK_invent/BTK/process_docking_weight1_custom_sum_contain_oxygen_bond_distance_aromatic_linkinvent_7_9_3/rearranged_h_0170.sdf

> <i_m_source_file_index>
72

> <r_mmod_Potential_Energy-OPLS-2005>
-271.274261474609

> <r_mmod_Stretch_Energy-OPLS-2005>
34.3151893615723

> <r_mmod_Bend_Energy-OPLS-2005>
103.897354125977

> <r_mmod_Torsional_Energy-OPLS-2005>
294.148498535156

> <r_mmod_Improper_Torsional_Energy-OPLS-2005>
5.87031936645508

> <r_mmod_Van_der_Waal_Energy-OPLS-2005>
166.833084106445

> <r_mmod_Electrostatic_Energy-OPLS-2005>
-444.134338378906

> <r_mmod_Solvation_Energy-OPLS-2005>
-446.8447265625

> <b_mmod_Minimization_Converged-OPLS-2005>
0

> <r_mmod_RMS_Derivative-OPLS-2005>
3.28687500953674

$$$$
73
                    3D
 Structure written by MMmdl.
173183  0  0  1  0            999 V2000
  -30.7158  -14.4827   20.5126 C   0  0  0  0  0  0
  -30.4112  -12.2949   19.4341 C   0  0  0  0  0  0
  -29.4961  -12.4745   18.2101 C   0  0  0  0  0  0
  -28.0138  -12.3544   18.6178 C   0  0  0  0  0  0
  -27.6522  -13.2164   19.8593 C   0  0  2  0  0  0
  -28.6956  -13.0479   20.9857 C   0  0  0  0  0  0
  -25.2565  -13.8215   20.5728 C   0  0  0  0  0  0
  -24.1821  -13.0471   20.9216 C   0  0  0  0  0  0
  -24.6396  -11.6940   20.8748 C   0  0  0  0  0  0
  -23.9056  -10.4321   21.0342 C   0  0  0  0  0  0
  -24.3612   -9.4243   21.9133 C   0  0  0  0  0  0
  -23.6311   -8.2271   22.0725 C   0  0  0  0  0  0
  -22.4309   -8.0281   21.3506 C   0  0  0  0  0  0
  -21.9910   -9.0247   20.4634 C   0  0  0  0  0  0
  -22.7207  -10.2140   20.3021 C   0  0  0  0  0  0
  -21.6897   -6.0717   22.5266 C   0  0  0  0  0  0
  -21.4028   -6.5626   23.8193 C   0  0  0  0  0  0
  -21.3653   -5.6782   24.9163 C   0  0  0  0  0  0
  -21.6058   -4.3048   24.7212 C   0  0  0  0  0  0
  -21.8827   -3.8118   23.4349 C   0  0  0  0  0  0
  -21.9218   -4.6935   22.3403 C   0  0  0  0  0  0
  -22.7832  -13.5250   21.1827 C   0  0  0  0  0  0
  -22.1676   -4.2120   21.0977 F   0  0  0  0  0  0
  -21.5612   -3.4533   25.7718 F   0  0  0  0  0  0
  -30.0231  -13.3158   20.4196 N   0  0  0  0  0  0
  -26.2985  -12.9398   20.3322 N   0  0  0  0  0  0
  -25.9322  -11.6540   20.5764 N   0  0  0  0  0  0
  -22.0472  -12.8266   22.0419 N   0  0  0  0  0  0
  -25.4295  -15.1962   20.4169 N   0  0  0  0  0  0
  -31.9028  -14.5678   20.1947 O   0  0  0  0  0  0
  -21.6697   -6.8855   21.4225 O   0  0  0  0  0  0
  -22.3523  -14.5514   20.6625 O   0  0  0  0  0  0
  -24.6211  -31.8695   23.2110 C   0  0  0  0  0  0
  -25.9107  -32.4812   23.8386 C   0  0  1  0  0  0
  -27.2097  -27.4328   20.0974 C   0  0  0  0  0  0
  -25.5962  -33.8605   24.2297 N   0  0  0  0  0  0
  -23.4052  -30.4948   21.5566 C   0  0  2  0  0  0
  -24.8415  -28.9699   20.1120 C   0  0  0  0  0  0
  -22.7458  -29.4648   22.5041 C   0  0  0  0  0  0
  -18.0268  -28.1391   22.8509 C   0  0  0  0  0  0
  -24.1487  -36.7336   23.2629 C   0  0  0  0  0  0
  -25.9370  -30.8355   21.3639 C   0  0  0  0  0  0
  -26.0079  -29.4766   20.6986 C   0  0  0  0  0  0
  -27.2021  -28.7213   20.6767 C   0  0  0  0  0  0
  -26.0275  -26.9494   19.4913 C   0  0  0  0  0  0
  -24.8449  -27.7066   19.5031 C   0  0  0  0  0  0
  -23.6114  -29.8414   20.1674 C   0  0  0  0  0  0
  -25.4106  -36.3094   24.0315 C   0  0  1  0  0  0
  -20.5871  -28.3655   23.1370 C   0  0  2  0  0  0
  -20.6774  -26.9404   22.5452 C   0  0  0  0  0  0
  -19.5736  -26.6381   21.5262 C   0  0  0  0  0  0
  -18.1905  -26.7939   22.1648 C   0  0  0  0  0  0
  -19.1523  -28.8843   23.2922 C   0  0  0  0  0  0
  -18.9438  -30.1457   23.8922 C   0  0  0  0  0  0
  -17.6438  -30.6594   24.0567 C   0  0  0  0  0  0
  -25.9054  -34.9470   23.5086 C   0  0  0  0  0  0
  -16.5334  -29.9102   23.6322 C   0  0  0  0  0  0
  -16.7250  -28.6516   23.0347 C   0  0  0  0  0  0
  -26.4523  -31.6604   25.0737 C   0  0  0  0  0  0
  -25.3788  -31.3791   26.1504 C   0  0  0  0  0  0
  -27.0303  -30.2995   24.6168 C   0  0  0  0  0  0
  -27.6073  -32.4359   25.7509 C   0  0  0  0  0  0
  -27.5577  -37.1815   24.8448 C   0  0  0  0  0  0
  -21.4190  -29.3004   22.3784 N   0  0  0  0  0  0
  -26.4288  -37.3782   23.9393 N   0  0  0  0  0  0
  -24.6715  -31.0818   22.1016 N   0  0  0  0  0  0
  -23.4227  -28.8214   23.3094 O   0  0  0  0  0  0
  -28.3451  -26.6563   20.1659 O   0  0  0  0  0  0
  -26.5607  -34.8932   22.4647 O   0  0  0  0  0  0
  -23.5400  -32.1444   23.7540 O   0  0  0  0  0  0
  -32.2496  -20.6703   18.5581 C   0  0  0  0  0  0
  -29.9858  -19.8531   19.9703 C   0  0  0  0  0  0
  -32.1267  -19.3205   18.9122 C   0  0  0  0  0  0
  -30.9738  -18.8863   19.6272 C   0  0  0  0  0  0
  -31.2622  -21.6155   18.8685 C   0  0  0  0  0  0
  -30.0935  -21.2211   19.5770 C   0  0  0  0  0  0
  -34.2124  -17.8105   19.4386 C   0  0  0  0  0  0
  -34.6890  -18.8271   18.4330 C   0  0  0  0  0  0
  -30.5114  -16.8282   21.3812 C   0  0  0  0  0  0
  -29.6426  -16.4900   19.5719 C   0  0  0  0  0  0
  -33.2305  -18.4051   18.4587 C   0  0  0  0  0  0
  -30.8018  -17.3953   19.9935 C   0  0  0  0  0  0
  -31.5240  -23.0308   18.3815 C   0  0  0  0  0  0
  -27.5502  -21.5931   19.8651 C   0  0  0  0  0  0
  -29.3195  -24.5295   20.9249 C   0  0  0  0  0  0
  -28.0910  -25.2507   20.3412 C   0  0  0  0  0  0
  -28.9527  -22.2370   19.8370 C   0  0  1  0  0  0
  -29.9767  -15.6087   20.7181 N   0  0  0  0  0  0
  -29.1659  -23.0452   21.0682 N   0  3  0  0  0  0
  -31.4565  -12.3785   19.1319 H   0  0  0  0  0  0
  -30.2954  -11.2949   19.8539 H   0  0  0  0  0  0
  -29.7343  -11.7243   17.4539 H   0  0  0  0  0  0
  -29.6845  -13.4453   17.7517 H   0  0  0  0  0  0
  -27.8185  -11.3021   18.8252 H   0  0  0  0  0  0
  -27.3706  -12.6196   17.7782 H   0  0  0  0  0  0
  -27.6758  -14.2575   19.5394 H   0  0  0  0  0  0
  -28.6669  -12.0388   21.3923 H   0  0  0  0  0  0
  -28.4791  -13.7242   21.8149 H   0  0  0  0  0  0
  -25.2732   -9.5780   22.4725 H   0  0  0  0  0  0
  -24.0048   -7.4691   22.7452 H   0  0  0  0  0  0
  -21.0812   -8.8696   19.8996 H   0  0  0  0  0  0
  -22.3549  -10.9649   19.6148 H   0  0  0  0  0  0
  -21.2022   -7.6133   23.9681 H   0  0  0  0  0  0
  -21.1465   -6.0514   25.9063 H   0  0  0  0  0  0
  -22.0626   -2.7583   23.2858 H   0  0  0  0  0  0
  -22.4119  -11.9967   22.4850 H   0  0  0  0  0  0
  -21.1055  -13.1201   22.2548 H   0  0  0  0  0  0
  -24.6733  -15.8593   20.5424 H   0  0  0  0  0  0
  -26.2956  -15.6322   20.1279 H   0  0  0  0  0  0
  -26.7198  -32.5507   23.1164 H   0  0  0  0  0  0
  -25.0102  -33.9736   25.0436 H   0  0  0  0  0  0
  -22.6923  -31.3108   21.4255 H   0  0  0  0  0  0
  -23.3721  -35.9695   23.3284 H   0  0  0  0  0  0
  -24.3584  -36.8984   22.2047 H   0  0  0  0  0  0
  -23.7283  -37.6555   23.6665 H   0  0  0  0  0  0
  -26.0636  -31.6074   20.6039 H   0  0  0  0  0  0
  -26.8227  -30.8710   21.9878 H   0  0  0  0  0  0
  -28.1053  -29.1115   21.1240 H   0  0  0  0  0  0
  -25.9850  -25.9804   19.0166 H   0  0  0  0  0  0
  -23.9473  -27.3044   19.0517 H   0  0  0  0  0  0
  -23.7417  -30.6257   19.4211 H   0  0  0  0  0  0
  -22.7305  -29.2792   19.8556 H   0  0  0  0  0  0
  -25.1286  -36.1932   25.0807 H   0  0  0  0  0  0
  -20.9911  -28.3190   24.1514 H   0  0  0  0  0  0
  -20.5729  -26.2256   23.3620 H   0  0  0  0  0  0
  -21.6631  -26.7492   22.1198 H   0  0  0  0  0  0
  -19.6894  -25.6297   21.1268 H   0  0  0  0  0  0
  -19.6685  -27.3212   20.6808 H   0  0  0  0  0  0
  -17.4210  -26.6741   21.4016 H   0  0  0  0  0  0
  -18.0239  -26.0069   22.9006 H   0  0  0  0  0  0
  -19.7911  -30.7269   24.2306 H   0  0  0  0  0  0
  -17.4987  -31.6263   24.5180 H   0  0  0  0  0  0
  -15.5333  -30.3006   23.7626 H   0  0  0  0  0  0
  -15.8649  -28.0833   22.7057 H   0  0  0  0  0  0
  -24.5911  -30.7174   25.7899 H   0  0  0  0  0  0
  -24.9056  -32.2995   26.4934 H   0  0  0  0  0  0
  -25.8152  -30.8987   27.0269 H   0  0  0  0  0  0
  -26.2825  -29.6791   24.1209 H   0  0  0  0  0  0
  -27.3987  -29.7222   25.4666 H   0  0  0  0  0  0
  -27.8720  -30.4225   23.9342 H   0  0  0  0  0  0
  -27.2607  -33.3601   26.2146 H   0  0  0  0  0  0
  -28.3848  -32.7048   25.0347 H   0  0  0  0  0  0
  -28.0784  -31.8483   26.5402 H   0  0  0  0  0  0
  -28.2608  -38.0096   24.7454 H   0  0  0  0  0  0
  -28.1062  -36.2639   24.6292 H   0  0  0  0  0  0
  -27.2313  -37.1483   25.8857 H   0  0  0  0  0  0
  -20.9383  -29.8735   21.6999 H   0  0  0  0  0  0
  -26.0173  -38.2855   24.1398 H   0  0  0  0  0  0
  -33.1240  -20.9853   18.0067 H   0  0  0  0  0  0
  -29.1208  -19.5145   20.5194 H   0  0  0  0  0  0
  -34.1624  -18.1305   20.4773 H   0  0  0  0  0  0
  -34.4901  -16.7688   19.2834 H   0  0  0  0  0  0
  -35.3081  -18.4587   17.6176 H   0  0  0  0  0  0
  -34.9752  -19.8026   18.8210 H   0  0  0  0  0  0
  -29.7569  -17.4001   21.9286 H   0  0  0  0  0  0
  -31.4128  -16.6877   21.9829 H   0  0  0  0  0  0
  -29.7641  -16.0425   18.5794 H   0  0  0  0  0  0
  -28.6635  -16.9636   19.6586 H   0  0  0  0  0  0
  -32.8885  -17.7929   17.6259 H   0  0  0  0  0  0
  -31.7110  -16.9152   19.6444 H   0  0  0  0  0  0
  -32.5228  -23.1271   17.9541 H   0  0  0  0  0  0
  -31.5065  -23.7343   19.2061 H   0  0  0  0  0  0
  -30.8135  -23.3240   17.6082 H   0  0  0  0  0  0
  -27.3681  -21.0184   18.9553 H   0  0  0  0  0  0
  -26.7612  -22.3443   19.9405 H   0  0  0  0  0  0
  -27.4252  -20.9204   20.7146 H   0  0  0  0  0  0
  -29.5259  -24.9352   21.9176 H   0  0  0  0  0  0
  -30.1804  -24.7984   20.3248 H   0  0  0  0  0  0
  -27.2519  -25.0956   21.0226 H   0  0  0  0  0  0
  -27.8190  -24.8213   19.3746 H   0  0  0  0  0  0
  -28.9348  -22.9042   18.9767 H   0  0  0  0  0  0
  -28.3923  -22.8633   21.6881 H   0  0  0  0  0  0
  -29.9818  -22.6714   21.5261 H   0  0  0  0  0  0
  1 25  1  0  0  0
  1 30  2  0  0  0
  1 88  1  0  0  0
  2  3  1  0  0  0
  2 25  1  0  0  0
  2 90  1  0  0  0
  2 91  1  0  0  0
  3  4  1  0  0  0
  3 92  1  0  0  0
  3 93  1  0  0  0
  4  5  1  0  0  0
  4 94  1  0  0  0
  4 95  1  0  0  0
  5  6  1  0  0  0
  5 26  1  0  0  0
  5 96  1  0  0  0
  6 25  1  0  0  0
  6 97  1  0  0  0
  6 98  1  0  0  0
  7  8  2  0  0  0
  7 26  1  0  0  0
  7 29  1  0  0  0
  8  9  1  0  0  0
  8 22  1  0  0  0
  9 10  1  0  0  0
  9 27  2  0  0  0
 10 11  2  0  0  0
 10 15  1  0  0  0
 11 12  1  0  0  0
 11 99  1  0  0  0
 12 13  2  0  0  0
 12100  1  0  0  0
 13 14  1  0  0  0
 13 31  1  0  0  0
 14 15  2  0  0  0
 14101  1  0  0  0
 15102  1  0  0  0
 16 17  2  0  0  0
 16 21  1  0  0  0
 16 31  1  0  0  0
 17 18  1  0  0  0
 17103  1  0  0  0
 18 19  2  0  0  0
 18104  1  0  0  0
 19 20  1  0  0  0
 19 24  1  0  0  0
 20 21  2  0  0  0
 20105  1  0  0  0
 21 23  1  0  0  0
 22 28  1  0  0  0
 22 32  2  0  0  0
 26 27  1  0  0  0
 28106  1  0  0  0
 28107  1  0  0  0
 29108  1  0  0  0
 29109  1  0  0  0
 33 34  1  0  0  0
 33 66  1  0  0  0
 33 70  2  0  0  0
 34 36  1  0  0  0
 34 59  1  0  0  0
 34110  1  0  0  0
 35 44  2  0  0  0
 35 45  1  0  0  0
 35 68  1  0  0  0
 36 56  1  0  0  0
 36111  1  0  0  0
 37 39  1  0  0  0
 37 47  1  0  0  0
 37 66  1  0  0  0
 37112  1  0  0  0
 38 43  2  0  0  0
 38 46  1  0  0  0
 38 47  1  0  0  0
 39 64  1  0  0  0
 39 67  2  0  0  0
 40 52  1  0  0  0
 40 53  2  0  0  0
 40 58  1  0  0  0
 41113  1  0  0  0
 41114  1  0  0  0
 41115  1  0  0  0
 41 48  1  0  0  0
 42 43  1  0  0  0
 42 66  1  0  0  0
 42116  1  0  0  0
 42117  1  0  0  0
 43 44  1  0  0  0
 44118  1  0  0  0
 45 46  2  0  0  0
 45119  1  0  0  0
 46120  1  0  0  0
 47121  1  0  0  0
 47122  1  0  0  0
 48 56  1  0  0  0
 48 65  1  0  0  0
 48123  1  0  0  0
 49 50  1  0  0  0
 49 53  1  0  0  0
 49 64  1  0  0  0
 49124  1  0  0  0
 50 51  1  0  0  0
 50125  1  0  0  0
 50126  1  0  0  0
 51 52  1  0  0  0
 51127  1  0  0  0
 51128  1  0  0  0
 52129  1  0  0  0
 52130  1  0  0  0
 53 54  1  0  0  0
 54 55  2  0  0  0
 54131  1  0  0  0
 55 57  1  0  0  0
 55132  1  0  0  0
 56 69  2  0  0  0
 57 58  2  0  0  0
 57133  1  0  0  0
 58134  1  0  0  0
 59 60  1  0  0  0
 59 61  1  0  0  0
 59 62  1  0  0  0
 60135  1  0  0  0
 60136  1  0  0  0
 60137  1  0  0  0
 61138  1  0  0  0
 61139  1  0  0  0
 61140  1  0  0  0
 62141  1  0  0  0
 62142  1  0  0  0
 62143  1  0  0  0
 63 65  1  0  0  0
 63144  1  0  0  0
 63145  1  0  0  0
 63146  1  0  0  0
 64147  1  0  0  0
 65148  1  0  0  0
 68 86  1  0  0  0
 71 73  2  0  0  0
 71 75  1  0  0  0
 71149  1  0  0  0
 72 74  2  0  0  0
 72 76  1  0  0  0
 72150  1  0  0  0
 73 74  1  0  0  0
 73 81  1  0  0  0
 74 82  1  0  0  0
 75 76  2  0  0  0
 75 83  1  0  0  0
 76 87  1  0  0  0
 77 78  1  0  0  0
 77 81  1  0  0  0
 77151  1  0  0  0
 77152  1  0  0  0
 78 81  1  0  0  0
 78153  1  0  0  0
 78154  1  0  0  0
 79 82  1  0  0  0
 79 88  1  0  0  0
 79155  1  0  0  0
 79156  1  0  0  0
 80 82  1  0  0  0
 80 88  1  0  0  0
 80157  1  0  0  0
 80158  1  0  0  0
 81159  1  0  0  0
 82160  1  0  0  0
 83161  1  0  0  0
 83162  1  0  0  0
 83163  1  0  0  0
 84164  1  0  0  0
 84165  1  0  0  0
 84166  1  0  0  0
 84 87  1  0  0  0
 85 86  1  0  0  0
 85 89  1  0  0  0
 85167  1  0  0  0
 85168  1  0  0  0
 86169  1  0  0  0
 86170  1  0  0  0
 87 89  1  0  0  0
 87171  1  0  0  0
 89172  1  0  0  0
 89173  1  0  0  0
M  CHG  1  89   1
M  ISO  4   1 100  68 101  86 101  88 100
M  END
> <chiral flag>
0

> <version>
0

> <s_m_source_file>
/data/baiqing/PycharmProjects/Reinvent-master-3.2/result/LINK_invent/BTK/process_docking_weight1_custom_sum_contain_oxygen_bond_distance_aromatic_linkinvent_7_9_3/rearranged_h_0170.sdf

> <i_m_source_file_index>
73

> <r_mmod_Potential_Energy-OPLS-2005>
-40.7109870910645

> <r_mmod_Stretch_Energy-OPLS-2005>
46.5750999450684

> <r_mmod_Bend_Energy-OPLS-2005>
120.715042114258

> <r_mmod_Torsional_Energy-OPLS-2005>
301.890930175781

> <r_mmod_Improper_Torsional_Energy-OPLS-2005>
13.7454805374146

> <r_mmod_Van_der_Waal_Energy-OPLS-2005>
168.269439697266

> <r_mmod_Electrostatic_Energy-OPLS-2005>
-284.043609619141

> <r_mmod_Solvation_Energy-OPLS-2005>
-431.329284667969

> <b_mmod_Minimization_Converged-OPLS-2005>
0

> <r_mmod_RMS_Derivative-OPLS-2005>
5.09884786605835

$$$$
74
                    3D
 Structure written by MMmdl.
179189  0  0  1  0            999 V2000
  -30.6375  -14.4799   20.5116 C   0  0  0  0  0  0
  -30.4345  -12.2964   19.3980 C   0  0  0  0  0  0
  -29.4904  -12.4809   18.1904 C   0  0  0  0  0  0
  -28.0094  -12.3463   18.6092 C   0  0  0  0  0  0
  -27.6583  -13.1851   19.8642 C   0  0  2  0  0  0
  -28.7070  -12.9495   20.9765 C   0  0  0  0  0  0
  -25.2644  -13.8101   20.5647 C   0  0  0  0  0  0
  -24.1865  -13.0444   20.9165 C   0  0  0  0  0  0
  -24.6379  -11.6890   20.8760 C   0  0  0  0  0  0
  -23.9008  -10.4268   21.0426 C   0  0  0  0  0  0
  -24.3567   -9.4180   21.9190 C   0  0  0  0  0  0
  -23.6246   -8.2221   22.0730 C   0  0  0  0  0  0
  -22.4245   -8.0240   21.3498 C   0  0  0  0  0  0
  -21.9868   -9.0240   20.4640 C   0  0  0  0  0  0
  -22.7194  -10.2115   20.3066 C   0  0  0  0  0  0
  -21.6844   -6.0707   22.5258 C   0  0  0  0  0  0
  -21.3979   -6.5606   23.8189 C   0  0  0  0  0  0
  -21.3658   -5.6750   24.9161 C   0  0  0  0  0  0
  -21.6062   -4.3014   24.7214 C   0  0  0  0  0  0
  -21.8850   -3.8123   23.4336 C   0  0  0  0  0  0
  -21.9217   -4.6941   22.3403 C   0  0  0  0  0  0
  -22.7903  -13.5277   21.1856 C   0  0  0  0  0  0
  -22.1690   -4.2126   21.0968 F   0  0  0  0  0  0
  -21.5659   -3.4522   25.7730 F   0  0  0  0  0  0
  -30.0368  -13.2643   20.4273 N   0  0  0  0  0  0
  -26.3009  -12.9192   20.3340 N   0  0  0  0  0  0
  -25.9274  -11.6386   20.5785 N   0  0  0  0  0  0
  -22.0494  -12.8291   22.0385 N   0  0  0  0  0  0
  -25.4494  -15.1814   20.3955 N   0  0  0  0  0  0
  -31.7895  -14.7041   20.1429 O   0  0  0  0  0  0
  -21.6618   -6.8834   21.4202 O   0  0  0  0  0  0
  -22.3589  -14.5611   20.6734 O   0  0  0  0  0  0
  -24.6145  -31.8704   23.2128 C   0  0  0  0  0  0
  -25.9069  -32.4827   23.8438 C   0  0  1  0  0  0
  -27.2263  -27.4642   20.0844 C   0  0  0  0  0  0
  -25.5928  -33.8625   24.2366 N   0  0  0  0  0  0
  -23.3982  -30.4971   21.5516 C   0  0  2  0  0  0
  -24.8418  -28.9680   20.1179 C   0  0  0  0  0  0
  -22.7402  -29.4695   22.4987 C   0  0  0  0  0  0
  -18.0270  -28.1368   22.8496 C   0  0  0  0  0  0
  -24.1483  -36.7314   23.2637 C   0  0  0  0  0  0
  -25.9259  -30.8464   21.3621 C   0  0  0  0  0  0
  -26.0030  -29.4846   20.7072 C   0  0  0  0  0  0
  -27.2032  -28.7384   20.6900 C   0  0  0  0  0  0
  -26.0484  -26.9593   19.4916 C   0  0  0  0  0  0
  -24.8567  -27.7014   19.5097 C   0  0  0  0  0  0
  -23.6043  -29.8333   20.1655 C   0  0  0  0  0  0
  -25.4101  -36.3109   24.0341 C   0  0  1  0  0  0
  -20.5860  -28.3660   23.1290 C   0  0  2  0  0  0
  -20.6762  -26.9398   22.5395 C   0  0  0  0  0  0
  -19.5739  -26.6376   21.5199 C   0  0  0  0  0  0
  -18.1913  -26.7915   22.1611 C   0  0  0  0  0  0
  -19.1519  -28.8828   23.2894 C   0  0  0  0  0  0
  -18.9458  -30.1429   23.8907 C   0  0  0  0  0  0
  -17.6460  -30.6573   24.0566 C   0  0  0  0  0  0
  -25.9038  -34.9470   23.5135 C   0  0  0  0  0  0
  -16.5353  -29.9074   23.6329 C   0  0  0  0  0  0
  -16.7265  -28.6488   23.0369 C   0  0  0  0  0  0
  -26.4493  -31.6588   25.0746 C   0  0  0  0  0  0
  -25.3780  -31.3686   26.1504 C   0  0  0  0  0  0
  -27.0318  -30.3035   24.6095 C   0  0  0  0  0  0
  -27.6052  -32.4301   25.7534 C   0  0  0  0  0  0
  -27.5579  -37.1803   24.8469 C   0  0  0  0  0  0
  -21.4133  -29.3044   22.3733 N   0  0  0  0  0  0
  -26.4289  -37.3789   23.9417 N   0  0  0  0  0  0
  -24.6647  -31.0846   22.1014 N   0  0  0  0  0  0
  -23.4195  -28.8224   23.3016 O   0  0  0  0  0  0
  -28.3790  -26.7189   20.0648 O   0  0  0  0  0  0
  -26.5565  -34.8923   22.4686 O   0  0  0  0  0  0
  -23.5346  -32.1432   23.7544 O   0  0  0  0  0  0
  -30.9565  -22.7689   20.8688 C   0  0  0  0  0  0
  -30.1106  -23.8393   21.2146 C   0  0  0  0  0  0
  -30.0676  -22.8119   18.6027 C   0  0  0  0  0  0
  -30.9355  -22.2431   19.5618 C   0  0  0  0  0  0
  -29.2309  -24.3982   20.2661 C   0  0  0  0  0  0
  -29.2136  -23.8851   18.9421 C   0  0  0  0  0  0
  -34.1119  -20.2014   19.0791 C   0  0  0  0  0  0
  -33.3474  -21.5280   19.1646 C   0  0  0  0  0  0
  -33.1957  -19.1336   19.7013 C   0  0  0  0  0  0
  -30.2372  -18.5529   18.6533 C   0  0  0  0  0  0
  -31.8772  -21.1142   19.1550 C   0  0  1  0  0  0
  -29.9893  -17.0392   18.7574 C   0  0  1  0  0  0
  -29.7152  -16.8471   20.2483 C   0  0  2  0  0  0
  -31.8854  -19.8602   20.0570 C   0  0  1  0  0  0
  -30.6497  -17.8554   20.9256 C   0  0  2  0  0  0
  -28.2934  -24.4631   17.8752 C   0  0  0  0  0  0
  -28.8694  -16.5115   17.8451 C   0  0  0  0  0  0
  -30.1717  -18.2444   22.3366 C   0  0  0  0  0  0
  -28.2533  -25.4642   20.7369 C   0  0  0  0  0  0
  -29.7532  -15.4663   20.7463 N   0  0  0  0  0  0
  -30.6560  -19.0238   20.0034 N   0  3  2  0  0  0
  -31.4720  -12.4351   19.0876 H   0  0  0  0  0  0
  -30.3519  -11.2815   19.7808 H   0  0  0  0  0  0
  -29.7193  -11.7454   17.4177 H   0  0  0  0  0  0
  -29.6663  -13.4524   17.7316 H   0  0  0  0  0  0
  -27.8278  -11.2925   18.8175 H   0  0  0  0  0  0
  -27.3547  -12.6142   17.7788 H   0  0  0  0  0  0
  -27.6916  -14.2276   19.5596 H   0  0  0  0  0  0
  -28.6970  -11.9096   21.3017 H   0  0  0  0  0  0
  -28.4779  -13.5351   21.8674 H   0  0  0  0  0  0
  -25.2734   -9.5686   22.4729 H   0  0  0  0  0  0
  -24.0007   -7.4605   22.7445 H   0  0  0  0  0  0
  -21.0798   -8.8763   19.8936 H   0  0  0  0  0  0
  -22.3680  -10.9642   19.6166 H   0  0  0  0  0  0
  -21.1881   -7.6102   23.9677 H   0  0  0  0  0  0
  -21.1459   -6.0476   25.9052 H   0  0  0  0  0  0
  -22.0628   -2.7582   23.2851 H   0  0  0  0  0  0
  -22.4027  -11.9943   22.4842 H   0  0  0  0  0  0
  -21.1117  -13.1382   22.2549 H   0  0  0  0  0  0
  -24.6846  -15.8471   20.4354 H   0  0  0  0  0  0
  -26.3140  -15.5970   20.0807 H   0  0  0  0  0  0
  -26.7150  -32.5543   23.1223 H   0  0  0  0  0  0
  -25.0164  -33.9795   25.0564 H   0  0  0  0  0  0
  -22.6878  -31.3143   21.4140 H   0  0  0  0  0  0
  -23.3743  -35.9649   23.3285 H   0  0  0  0  0  0
  -24.3594  -36.8934   22.2057 H   0  0  0  0  0  0
  -23.7234  -37.6517   23.6654 H   0  0  0  0  0  0
  -26.0373  -31.6141   20.5956 H   0  0  0  0  0  0
  -26.8161  -30.8965   21.9781 H   0  0  0  0  0  0
  -28.1016  -29.1286   21.1475 H   0  0  0  0  0  0
  -26.0451  -25.9909   19.0146 H   0  0  0  0  0  0
  -23.9635  -27.2934   19.0555 H   0  0  0  0  0  0
  -23.7172  -30.6087   19.4060 H   0  0  0  0  0  0
  -22.7282  -29.2537   19.8667 H   0  0  0  0  0  0
  -25.1278  -36.1973   25.0830 H   0  0  0  0  0  0
  -20.9964  -28.3227   24.1404 H   0  0  0  0  0  0
  -20.5646  -26.2291   23.3592 H   0  0  0  0  0  0
  -21.6632  -26.7429   22.1194 H   0  0  0  0  0  0
  -19.6896  -25.6279   21.1235 H   0  0  0  0  0  0
  -19.6667  -27.3178   20.6720 H   0  0  0  0  0  0
  -17.4186  -26.6678   21.4006 H   0  0  0  0  0  0
  -18.0314  -26.0038   22.8988 H   0  0  0  0  0  0
  -19.7946  -30.7245   24.2283 H   0  0  0  0  0  0
  -17.5023  -31.6250   24.5186 H   0  0  0  0  0  0
  -15.5354  -30.2991   23.7646 H   0  0  0  0  0  0
  -15.8668  -28.0807   22.7099 H   0  0  0  0  0  0
  -24.5943  -30.7033   25.7867 H   0  0  0  0  0  0
  -24.8993  -32.2837   26.4994 H   0  0  0  0  0  0
  -25.8159  -30.8844   27.0241 H   0  0  0  0  0  0
  -26.2839  -29.6785   24.1197 H   0  0  0  0  0  0
  -27.4150  -29.7278   25.4535 H   0  0  0  0  0  0
  -27.8654  -30.4357   23.9192 H   0  0  0  0  0  0
  -27.2648  -33.3567   26.2176 H   0  0  0  0  0  0
  -28.3867  -32.6916   25.0386 H   0  0  0  0  0  0
  -28.0730  -31.8392   26.5422 H   0  0  0  0  0  0
  -28.2586  -38.0111   24.7529 H   0  0  0  0  0  0
  -28.1079  -36.2637   24.6273 H   0  0  0  0  0  0
  -27.2296  -37.1435   25.8872 H   0  0  0  0  0  0
  -20.9296  -29.8824   21.6985 H   0  0  0  0  0  0
  -26.0170  -38.2860   24.1437 H   0  0  0  0  0  0
  -31.6169  -22.3657   21.6208 H   0  0  0  0  0  0
  -30.1363  -24.2272   22.2218 H   0  0  0  0  0  0
  -30.0562  -22.4179   17.5931 H   0  0  0  0  0  0
  -35.0782  -20.2598   19.5842 H   0  0  0  0  0  0
  -34.2993  -19.9519   18.0330 H   0  0  0  0  0  0
  -33.5993  -22.2204   18.3593 H   0  0  0  0  0  0
  -33.5898  -22.0162   20.1109 H   0  0  0  0  0  0
  -33.6474  -18.6938   20.5909 H   0  0  0  0  0  0
  -33.0330  -18.3219   18.9910 H   0  0  0  0  0  0
  -29.3258  -19.0841   18.3771 H   0  0  0  0  0  0
  -30.9665  -18.7590   17.8688 H   0  0  0  0  0  0
  -31.6436  -20.8324   18.1288 H   0  0  0  0  0  0
  -30.9235  -16.5410   18.4954 H   0  0  0  0  0  0
  -28.6929  -17.1873   20.4271 H   0  0  0  0  0  0
  -31.9949  -20.1950   21.0881 H   0  0  0  0  0  0
  -31.6459  -17.4205   20.9691 H   0  0  0  0  0  0
  -28.4699  -24.0116   16.8989 H   0  0  0  0  0  0
  -28.4506  -25.5368   17.7679 H   0  0  0  0  0  0
  -27.2495  -24.2900   18.1329 H   0  0  0  0  0  0
  -27.9059  -16.9572   18.0861 H   0  0  0  0  0  0
  -28.7653  -15.4378   17.9580 H   0  0  0  0  0  0
  -29.0757  -16.7113   16.7924 H   0  0  0  0  0  0
  -29.1736  -18.6820   22.3236 H   0  0  0  0  0  0
  -30.8321  -18.9790   22.7974 H   0  0  0  0  0  0
  -30.1314  -17.3740   22.9911 H   0  0  0  0  0  0
  -28.4041  -25.6523   21.8001 H   0  0  0  0  0  0
  -27.2579  -25.0267   20.6616 H   0  0  0  0  0  0
  -28.8541  -15.1134   21.0343 H   0  0  0  0  0  0
  -29.9093  -19.6316   20.3081 H   0  0  0  0  0  0
  1 25  1  0  0  0
  1 30  2  0  0  0
  1 90  1  0  0  0
  2  3  1  0  0  0
  2 25  1  0  0  0
  2 92  1  0  0  0
  2 93  1  0  0  0
  3  4  1  0  0  0
  3 94  1  0  0  0
  3 95  1  0  0  0
  4  5  1  0  0  0
  4 96  1  0  0  0
  4 97  1  0  0  0
  5  6  1  0  0  0
  5 26  1  0  0  0
  5 98  1  0  0  0
  6 25  1  0  0  0
  6 99  1  0  0  0
  6100  1  0  0  0
  7  8  2  0  0  0
  7 26  1  0  0  0
  7 29  1  0  0  0
  8  9  1  0  0  0
  8 22  1  0  0  0
  9 10  1  0  0  0
  9 27  2  0  0  0
 10 11  2  0  0  0
 10 15  1  0  0  0
 11 12  1  0  0  0
 11101  1  0  0  0
 12 13  2  0  0  0
 12102  1  0  0  0
 13 14  1  0  0  0
 13 31  1  0  0  0
 14 15  2  0  0  0
 14103  1  0  0  0
 15104  1  0  0  0
 16 17  2  0  0  0
 16 21  1  0  0  0
 16 31  1  0  0  0
 17 18  1  0  0  0
 17105  1  0  0  0
 18 19  2  0  0  0
 18106  1  0  0  0
 19 20  1  0  0  0
 19 24  1  0  0  0
 20 21  2  0  0  0
 20107  1  0  0  0
 21 23  1  0  0  0
 22 28  1  0  0  0
 22 32  2  0  0  0
 26 27  1  0  0  0
 28108  1  0  0  0
 28109  1  0  0  0
 29110  1  0  0  0
 29111  1  0  0  0
 33 34  1  0  0  0
 33 66  1  0  0  0
 33 70  2  0  0  0
 34 36  1  0  0  0
 34 59  1  0  0  0
 34112  1  0  0  0
 35 44  2  0  0  0
 35 45  1  0  0  0
 35 68  1  0  0  0
 36 56  1  0  0  0
 36113  1  0  0  0
 37 39  1  0  0  0
 37 47  1  0  0  0
 37 66  1  0  0  0
 37114  1  0  0  0
 38 43  2  0  0  0
 38 46  1  0  0  0
 38 47  1  0  0  0
 39 64  1  0  0  0
 39 67  2  0  0  0
 40 52  1  0  0  0
 40 53  2  0  0  0
 40 58  1  0  0  0
 41115  1  0  0  0
 41116  1  0  0  0
 41117  1  0  0  0
 41 48  1  0  0  0
 42 43  1  0  0  0
 42 66  1  0  0  0
 42118  1  0  0  0
 42119  1  0  0  0
 43 44  1  0  0  0
 44120  1  0  0  0
 45 46  2  0  0  0
 45121  1  0  0  0
 46122  1  0  0  0
 47123  1  0  0  0
 47124  1  0  0  0
 48 56  1  0  0  0
 48 65  1  0  0  0
 48125  1  0  0  0
 49 50  1  0  0  0
 49 53  1  0  0  0
 49 64  1  0  0  0
 49126  1  0  0  0
 50 51  1  0  0  0
 50127  1  0  0  0
 50128  1  0  0  0
 51 52  1  0  0  0
 51129  1  0  0  0
 51130  1  0  0  0
 52131  1  0  0  0
 52132  1  0  0  0
 53 54  1  0  0  0
 54 55  2  0  0  0
 54133  1  0  0  0
 55 57  1  0  0  0
 55134  1  0  0  0
 56 69  2  0  0  0
 57 58  2  0  0  0
 57135  1  0  0  0
 58136  1  0  0  0
 59 60  1  0  0  0
 59 61  1  0  0  0
 59 62  1  0  0  0
 60137  1  0  0  0
 60138  1  0  0  0
 60139  1  0  0  0
 61140  1  0  0  0
 61141  1  0  0  0
 61142  1  0  0  0
 62143  1  0  0  0
 62144  1  0  0  0
 62145  1  0  0  0
 63 65  1  0  0  0
 63146  1  0  0  0
 63147  1  0  0  0
 63148  1  0  0  0
 64149  1  0  0  0
 65150  1  0  0  0
 68 89  1  0  0  0
 71 72  2  0  0  0
 71 74  1  0  0  0
 71151  1  0  0  0
 72 75  1  0  0  0
 72152  1  0  0  0
 73 74  2  0  0  0
 73 76  1  0  0  0
 73153  1  0  0  0
 74 81  1  0  0  0
 75 76  2  0  0  0
 75 89  1  0  0  0
 76 86  1  0  0  0
 77 78  1  0  0  0
 77 79  1  0  0  0
 77154  1  0  0  0
 77155  1  0  0  0
 78 81  1  0  0  0
 78156  1  0  0  0
 78157  1  0  0  0
 79158  1  0  0  0
 79159  1  0  0  0
 79 84  1  0  0  0
 80 82  1  0  0  0
 80160  1  0  0  0
 80161  1  0  0  0
 80 91  1  0  0  0
 81 84  1  0  0  0
 81162  1  0  0  0
 82 83  1  0  0  0
 82 87  1  0  0  0
 82163  1  0  0  0
 83 85  1  0  0  0
 83 90  1  0  0  0
 83164  1  0  0  0
 84 91  1  0  0  0
 84165  1  0  0  0
 85 88  1  0  0  0
 85 91  1  0  0  0
 85166  1  0  0  0
 86167  1  0  0  0
 86168  1  0  0  0
 86169  1  0  0  0
 87170  1  0  0  0
 87171  1  0  0  0
 87172  1  0  0  0
 88173  1  0  0  0
 88174  1  0  0  0
 88175  1  0  0  0
 89176  1  0  0  0
 89177  1  0  0  0
 90178  1  0  0  0
 91179  1  0  0  0
M  CHG  1  91   1
M  ISO  4   1 100  68 101  89 101  90 100
M  END
> <chiral flag>
0

> <version>
0

> <s_m_source_file>
/data/baiqing/PycharmProjects/Reinvent-master-3.2/result/LINK_invent/BTK/process_docking_weight1_custom_sum_contain_oxygen_bond_distance_aromatic_linkinvent_7_9_3/rearranged_h_0170.sdf

> <i_m_source_file_index>
74

> <r_mmod_Potential_Energy-OPLS-2005>
20.2861633300781

> <r_mmod_Stretch_Energy-OPLS-2005>
34.6065711975098

> <r_mmod_Bend_Energy-OPLS-2005>
158.557662963867

> <r_mmod_Torsional_Energy-OPLS-2005>
375.899505615234

> <r_mmod_Improper_Torsional_Energy-OPLS-2005>
9.28560161590576

> <r_mmod_Van_der_Waal_Energy-OPLS-2005>
140.426849365234

> <r_mmod_Electrostatic_Energy-OPLS-2005>
-301.196350097656

> <r_mmod_Solvation_Energy-OPLS-2005>
-411.976928710938

> <b_mmod_Minimization_Converged-OPLS-2005>
0

> <r_mmod_RMS_Derivative-OPLS-2005>
5.7089638710022

$$$$
75
                    3D
 Structure written by MMmdl.
160169  0  0  1  0            999 V2000
  -30.6068  -14.7741   20.4098 C   0  0  0  0  0  0
  -30.4235  -12.4579   19.4873 C   0  0  0  0  0  0
  -29.5069  -12.4994   18.2441 C   0  0  0  0  0  0
  -28.0365  -12.3174   18.6618 C   0  0  0  0  0  0
  -27.6381  -13.2345   19.8484 C   0  0  2  0  0  0
  -28.6813  -13.1969   20.9867 C   0  0  0  0  0  0
  -25.2504  -13.8208   20.5707 C   0  0  0  0  0  0
  -24.1805  -13.0456   20.9192 C   0  0  0  0  0  0
  -24.6400  -11.6923   20.8758 C   0  0  0  0  0  0
  -23.9087  -10.4300   21.0421 C   0  0  0  0  0  0
  -24.3630   -9.4211   21.9204 C   0  0  0  0  0  0
  -23.6286   -8.2252   22.0775 C   0  0  0  0  0  0
  -22.4270   -8.0298   21.3550 C   0  0  0  0  0  0
  -21.9919   -9.0277   20.4653 C   0  0  0  0  0  0
  -22.7262  -10.2151   20.3066 C   0  0  0  0  0  0
  -21.6852   -6.0744   22.5268 C   0  0  0  0  0  0
  -21.4016   -6.5639   23.8205 C   0  0  0  0  0  0
  -21.3660   -5.6791   24.9158 C   0  0  0  0  0  0
  -21.6040   -4.3052   24.7209 C   0  0  0  0  0  0
  -21.8818   -3.8151   23.4326 C   0  0  0  0  0  0
  -21.9189   -4.6972   22.3387 C   0  0  0  0  0  0
  -22.7817  -13.5234   21.1839 C   0  0  0  0  0  0
  -22.1656   -4.2162   21.0963 F   0  0  0  0  0  0
  -21.5630   -3.4535   25.7717 F   0  0  0  0  0  0
  -29.9829  -13.5407   20.4014 N   0  0  0  0  0  0
  -26.2932  -12.9419   20.3290 N   0  0  0  0  0  0
  -25.9335  -11.6565   20.5785 N   0  0  0  0  0  0
  -22.0460  -12.8241   22.0393 N   0  0  0  0  0  0
  -25.4218  -15.1941   20.4135 N   0  0  0  0  0  0
  -31.8053  -14.8263   20.1139 O   0  0  0  0  0  0
  -21.6630   -6.8895   21.4235 O   0  0  0  0  0  0
  -22.3512  -14.5544   20.6679 O   0  0  0  0  0  0
  -24.6333  -31.8492   23.1892 C   0  0  0  0  0  0
  -25.9169  -32.4675   23.8239 C   0  0  1  0  0  0
  -27.2250  -27.2274   20.1139 C   0  0  0  0  0  0
  -25.5992  -33.8489   24.2152 N   0  0  0  0  0  0
  -23.4315  -30.4688   21.5306 C   0  0  2  0  0  0
  -24.8808  -28.9053   20.1053 C   0  0  0  0  0  0
  -22.7509  -29.4570   22.4851 C   0  0  0  0  0  0
  -18.0301  -28.1375   22.8471 C   0  0  0  0  0  0
  -24.1519  -36.7247   23.2641 C   0  0  0  0  0  0
  -25.9809  -30.7436   21.3826 C   0  0  0  0  0  0
  -26.0486  -29.3642   20.7229 C   0  0  0  0  0  0
  -27.2154  -28.5292   20.7303 C   0  0  0  0  0  0
  -26.0361  -26.8512   19.4541 C   0  0  0  0  0  0
  -24.8784  -27.6565   19.4651 C   0  0  0  0  0  0
  -23.6543  -29.7960   20.1489 C   0  0  0  0  0  0
  -25.4142  -36.2985   24.0293 C   0  0  1  0  0  0
  -20.5908  -28.3682   23.1280 C   0  0  2  0  0  0
  -20.6784  -26.9398   22.5421 C   0  0  0  0  0  0
  -19.5767  -26.6353   21.5220 C   0  0  0  0  0  0
  -18.1937  -26.7920   22.1602 C   0  0  0  0  0  0
  -19.1558  -28.8844   23.2864 C   0  0  0  0  0  0
  -18.9488  -30.1439   23.8877 C   0  0  0  0  0  0
  -17.6494  -30.6580   24.0562 C   0  0  0  0  0  0
  -25.9091  -34.9377   23.5005 C   0  0  0  0  0  0
  -16.5377  -29.9073   23.6357 C   0  0  0  0  0  0
  -16.7291  -28.6498   23.0364 C   0  0  0  0  0  0
  -26.4544  -31.6533   25.0650 C   0  0  0  0  0  0
  -25.3769  -31.3739   26.1372 C   0  0  0  0  0  0
  -27.0443  -30.2952   24.6177 C   0  0  0  0  0  0
  -27.6049  -32.4316   25.7457 C   0  0  0  0  0  0
  -27.5570  -37.1767   24.8459 C   0  0  0  0  0  0
  -21.4213  -29.3027   22.3651 N   0  0  0  0  0  0
  -26.4288  -37.3697   23.9402 N   0  0  0  0  0  0
  -24.6995  -31.0395   22.0897 N   0  0  0  0  0  0
  -23.4202  -28.8136   23.2976 O   0  0  0  0  0  0
  -28.3119  -26.3200   20.2246 O   0  0  0  0  0  0
  -26.5632  -34.8870   22.4554 O   0  0  0  0  0  0
  -23.5477  -32.1385   23.7141 O   0  0  0  0  0  0
  -30.3104  -19.9372   18.9983 C   0  0  0  0  0  0
  -29.3070  -18.4802   20.6291 C   0  0  0  0  0  0
  -29.4544  -19.8404   20.1051 C   0  0  0  0  0  0
  -30.9513  -18.7930   18.4940 C   0  0  0  0  0  0
  -30.0191  -17.3237   20.0935 C   0  0  0  0  0  0
  -29.3262  -22.6212   20.3379 C   0  0  0  0  0  0
  -28.3891  -23.5377   19.9533 C   0  0  0  0  0  0
  -27.2286  -22.6280   19.7963 C   0  0  0  0  0  0
  -28.7642  -21.1869   20.6647 C   0  0  2  0  0  0
  -31.8124  -18.9170   17.2543 C   0  0  0  0  0  0
  -25.9227  -23.1121   19.2140 C   0  0  0  0  0  0
  -28.6563  -21.0556   22.1922 C   0  0  0  0  0  0
  -28.4798  -25.0587   19.4070 C   0  0  0  0  0  0
  -30.8237  -17.5529   19.0254 N   0  0  0  0  0  0
  -27.4149  -21.3985   20.1415 N   0  0  0  0  0  0
  -29.8462  -15.9302   20.6074 N   0  0  0  0  0  0
  -31.4681  -12.5577   19.1878 H   0  0  0  0  0  0
  -30.3491  -11.4887   19.9840 H   0  0  0  0  0  0
  -29.7917  -11.7169   17.5397 H   0  0  0  0  0  0
  -29.6293  -13.4485   17.7197 H   0  0  0  0  0  0
  -27.9085  -11.2724   18.9468 H   0  0  0  0  0  0
  -27.3724  -12.4828   17.8129 H   0  0  0  0  0  0
  -27.6256  -14.2498   19.4527 H   0  0  0  0  0  0
  -28.7152  -12.2094   21.4489 H   0  0  0  0  0  0
  -28.4111  -13.8957   21.7798 H   0  0  0  0  0  0
  -25.2772   -9.5668   22.4782 H   0  0  0  0  0  0
  -23.9973   -7.4644   22.7506 H   0  0  0  0  0  0
  -21.0849   -8.8816   19.8953 H   0  0  0  0  0  0
  -22.3744  -10.9701   19.6174 H   0  0  0  0  0  0
  -21.2016   -7.6152   23.9709 H   0  0  0  0  0  0
  -21.1483   -6.0519   25.9062 H   0  0  0  0  0  0
  -22.0601   -2.7616   23.2812 H   0  0  0  0  0  0
  -22.4057  -11.9881   22.4757 H   0  0  0  0  0  0
  -21.1112  -13.1331   22.2659 H   0  0  0  0  0  0
  -24.6547  -15.8477   20.5218 H   0  0  0  0  0  0
  -26.2684  -15.6331   20.0774 H   0  0  0  0  0  0
  -26.7202  -32.5272   23.0939 H   0  0  0  0  0  0
  -25.0238  -33.9635   25.0363 H   0  0  0  0  0  0
  -22.7329  -31.2935   21.3714 H   0  0  0  0  0  0
  -23.3738  -35.9619   23.3286 H   0  0  0  0  0  0
  -24.3623  -36.8902   22.2063 H   0  0  0  0  0  0
  -23.7343  -37.6459   23.6708 H   0  0  0  0  0  0
  -26.1356  -31.5051   20.6171 H   0  0  0  0  0  0
  -26.8539  -30.7853   22.0216 H   0  0  0  0  0  0
  -28.1042  -28.8630   21.2473 H   0  0  0  0  0  0
  -25.9612  -25.9046   18.9480 H   0  0  0  0  0  0
  -23.9855  -27.2920   18.9765 H   0  0  0  0  0  0
  -23.7900  -30.5691   19.3933 H   0  0  0  0  0  0
  -22.7745  -29.2344   19.8292 H   0  0  0  0  0  0
  -25.1330  -36.1764   25.0781 H   0  0  0  0  0  0
  -21.0001  -28.3246   24.1402 H   0  0  0  0  0  0
  -20.5721  -26.2264   23.3610 H   0  0  0  0  0  0
  -21.6648  -26.7447   22.1190 H   0  0  0  0  0  0
  -19.6958  -25.6263   21.1246 H   0  0  0  0  0  0
  -19.6723  -27.3156   20.6749 H   0  0  0  0  0  0
  -17.4224  -26.6703   21.3977 H   0  0  0  0  0  0
  -18.0302  -26.0049   22.8982 H   0  0  0  0  0  0
  -19.7976  -30.7251   24.2217 H   0  0  0  0  0  0
  -17.5057  -31.6270   24.5138 H   0  0  0  0  0  0
  -15.5382  -30.2974   23.7690 H   0  0  0  0  0  0
  -15.8689  -28.0807   22.7099 H   0  0  0  0  0  0
  -24.5943  -30.7074   25.7727 H   0  0  0  0  0  0
  -24.8977  -32.2942   26.4725 H   0  0  0  0  0  0
  -25.8096  -30.8992   27.0187 H   0  0  0  0  0  0
  -26.3058  -29.6608   24.1246 H   0  0  0  0  0  0
  -27.4218  -29.7282   25.4695 H   0  0  0  0  0  0
  -27.8875  -30.4228   23.9381 H   0  0  0  0  0  0
  -27.2611  -33.3634   26.1953 H   0  0  0  0  0  0
  -28.3931  -32.6839   25.0356 H   0  0  0  0  0  0
  -28.0613  -31.8481   26.5460 H   0  0  0  0  0  0
  -28.2531  -38.0100   24.7466 H   0  0  0  0  0  0
  -28.1112  -36.2614   24.6321 H   0  0  0  0  0  0
  -27.2272  -37.1441   25.8855 H   0  0  0  0  0  0
  -20.9383  -29.8813   21.6921 H   0  0  0  0  0  0
  -26.0120  -38.2744   24.1422 H   0  0  0  0  0  0
  -30.4717  -20.8928   18.5187 H   0  0  0  0  0  0
  -28.6418  -18.3227   21.4657 H   0  0  0  0  0  0
  -30.3769  -22.8466   20.4543 H   0  0  0  0  0  0
  -32.3431  -19.8693   17.2517 H   0  0  0  0  0  0
  -31.1796  -18.8881   16.3672 H   0  0  0  0  0  0
  -32.5503  -18.1188   17.1802 H   0  0  0  0  0  0
  -26.0970  -23.6952   18.3111 H   0  0  0  0  0  0
  -25.3897  -23.7224   19.9426 H   0  0  0  0  0  0
  -25.2839  -22.2683   18.9501 H   0  0  0  0  0  0
  -29.6368  -20.8531   22.6220 H   0  0  0  0  0  0
  -27.9916  -20.2429   22.4871 H   0  0  0  0  0  0
  -28.2706  -21.9654   22.6532 H   0  0  0  0  0  0
  -27.9341  -25.1368   18.4681 H   0  0  0  0  0  0
  -29.5189  -25.1353   19.0842 H   0  0  0  0  0  0
  -28.9549  -15.7586   21.0435 H   0  0  0  0  0  0
  1 25  1  0  0  0
  1 30  2  0  0  0
  1 86  1  0  0  0
  2  3  1  0  0  0
  2 25  1  0  0  0
  2 87  1  0  0  0
  2 88  1  0  0  0
  3  4  1  0  0  0
  3 89  1  0  0  0
  3 90  1  0  0  0
  4  5  1  0  0  0
  4 91  1  0  0  0
  4 92  1  0  0  0
  5  6  1  0  0  0
  5 26  1  0  0  0
  5 93  1  0  0  0
  6 25  1  0  0  0
  6 94  1  0  0  0
  6 95  1  0  0  0
  7  8  2  0  0  0
  7 26  1  0  0  0
  7 29  1  0  0  0
  8  9  1  0  0  0
  8 22  1  0  0  0
  9 10  1  0  0  0
  9 27  2  0  0  0
 10 11  2  0  0  0
 10 15  1  0  0  0
 11 12  1  0  0  0
 11 96  1  0  0  0
 12 13  2  0  0  0
 12 97  1  0  0  0
 13 14  1  0  0  0
 13 31  1  0  0  0
 14 15  2  0  0  0
 14 98  1  0  0  0
 15 99  1  0  0  0
 16 17  2  0  0  0
 16 21  1  0  0  0
 16 31  1  0  0  0
 17 18  1  0  0  0
 17100  1  0  0  0
 18 19  2  0  0  0
 18101  1  0  0  0
 19 20  1  0  0  0
 19 24  1  0  0  0
 20 21  2  0  0  0
 20102  1  0  0  0
 21 23  1  0  0  0
 22 28  1  0  0  0
 22 32  2  0  0  0
 26 27  1  0  0  0
 28103  1  0  0  0
 28104  1  0  0  0
 29105  1  0  0  0
 29106  1  0  0  0
 33 34  1  0  0  0
 33 66  1  0  0  0
 33 70  2  0  0  0
 34 36  1  0  0  0
 34 59  1  0  0  0
 34107  1  0  0  0
 35 44  2  0  0  0
 35 45  1  0  0  0
 35 68  1  0  0  0
 36 56  1  0  0  0
 36108  1  0  0  0
 37 39  1  0  0  0
 37 47  1  0  0  0
 37 66  1  0  0  0
 37109  1  0  0  0
 38 43  2  0  0  0
 38 46  1  0  0  0
 38 47  1  0  0  0
 39 64  1  0  0  0
 39 67  2  0  0  0
 40 52  1  0  0  0
 40 53  2  0  0  0
 40 58  1  0  0  0
 41110  1  0  0  0
 41111  1  0  0  0
 41112  1  0  0  0
 41 48  1  0  0  0
 42 43  1  0  0  0
 42 66  1  0  0  0
 42113  1  0  0  0
 42114  1  0  0  0
 43 44  1  0  0  0
 44115  1  0  0  0
 45 46  2  0  0  0
 45116  1  0  0  0
 46117  1  0  0  0
 47118  1  0  0  0
 47119  1  0  0  0
 48 56  1  0  0  0
 48 65  1  0  0  0
 48120  1  0  0  0
 49 50  1  0  0  0
 49 53  1  0  0  0
 49 64  1  0  0  0
 49121  1  0  0  0
 50 51  1  0  0  0
 50122  1  0  0  0
 50123  1  0  0  0
 51 52  1  0  0  0
 51124  1  0  0  0
 51125  1  0  0  0
 52126  1  0  0  0
 52127  1  0  0  0
 53 54  1  0  0  0
 54 55  2  0  0  0
 54128  1  0  0  0
 55 57  1  0  0  0
 55129  1  0  0  0
 56 69  2  0  0  0
 57 58  2  0  0  0
 57130  1  0  0  0
 58131  1  0  0  0
 59 60  1  0  0  0
 59 61  1  0  0  0
 59 62  1  0  0  0
 60132  1  0  0  0
 60133  1  0  0  0
 60134  1  0  0  0
 61135  1  0  0  0
 61136  1  0  0  0
 61137  1  0  0  0
 62138  1  0  0  0
 62139  1  0  0  0
 62140  1  0  0  0
 63 65  1  0  0  0
 63141  1  0  0  0
 63142  1  0  0  0
 63143  1  0  0  0
 64144  1  0  0  0
 65145  1  0  0  0
 68 83  1  0  0  0
 71 73  2  0  0  0
 71 74  1  0  0  0
 71146  1  0  0  0
 72 73  1  0  0  0
 72 75  2  0  0  0
 72147  1  0  0  0
 73 79  1  0  0  0
 74 80  1  0  0  0
 74 84  2  0  0  0
 75 84  1  0  0  0
 75 86  1  0  0  0
 76 77  2  0  0  0
 76 79  1  0  0  0
 76148  1  0  0  0
 77 78  1  0  0  0
 77 83  1  0  0  0
 78 81  1  0  0  0
 78 85  2  0  0  0
 79 82  1  0  0  0
 79 85  1  0  0  0
 80149  1  0  0  0
 80150  1  0  0  0
 80151  1  0  0  0
 81152  1  0  0  0
 81153  1  0  0  0
 81154  1  0  0  0
 82155  1  0  0  0
 82156  1  0  0  0
 82157  1  0  0  0
 83158  1  0  0  0
 83159  1  0  0  0
 86160  1  0  0  0
M  ISO  4   1 100  68 101  83 101  86 100
M  END
> <chiral flag>
0

> <version>
0

> <s_m_source_file>
/data/baiqing/PycharmProjects/Reinvent-master-3.2/result/LINK_invent/BTK/process_docking_weight1_custom_sum_contain_oxygen_bond_distance_aromatic_linkinvent_7_9_3/rearranged_h_0170.sdf

> <i_m_source_file_index>
75

> <r_mmod_Potential_Energy-OPLS-2005>
26.2570171356201

> <r_mmod_Stretch_Energy-OPLS-2005>
137.977722167969

> <r_mmod_Bend_Energy-OPLS-2005>
261.989776611328

> <r_mmod_Torsional_Energy-OPLS-2005>
228.729202270508

> <r_mmod_Improper_Torsional_Energy-OPLS-2005>
5.04161739349365

> <r_mmod_Van_der_Waal_Energy-OPLS-2005>
133.451675415039

> <r_mmod_Electrostatic_Energy-OPLS-2005>
-606.389709472656

> <r_mmod_Solvation_Energy-OPLS-2005>
-239.581130981445

> <b_mmod_Minimization_Converged-OPLS-2005>
0

> <r_mmod_RMS_Derivative-OPLS-2005>
3.39688181877136

$$$$
76
                    3D
 Structure written by MMmdl.
161170  0  0  1  0            999 V2000
  -30.6084  -14.9048   20.4260 C   0  0  0  0  0  0
  -30.4261  -12.5638   19.4952 C   0  0  0  0  0  0
  -29.5160  -12.5278   18.2498 C   0  0  0  0  0  0
  -28.0486  -12.3234   18.6670 C   0  0  0  0  0  0
  -27.6280  -13.2534   19.8372 C   0  0  2  0  0  0
  -28.6730  -13.2953   20.9719 C   0  0  0  0  0  0
  -25.2463  -13.8242   20.5728 C   0  0  0  0  0  0
  -24.1772  -13.0459   20.9233 C   0  0  0  0  0  0
  -24.6392  -11.6940   20.8748 C   0  0  0  0  0  0
  -23.9080  -10.4308   21.0398 C   0  0  0  0  0  0
  -24.3624   -9.4227   21.9176 C   0  0  0  0  0  0
  -23.6312   -8.2250   22.0747 C   0  0  0  0  0  0
  -22.4293   -8.0277   21.3538 C   0  0  0  0  0  0
  -21.9932   -9.0250   20.4639 C   0  0  0  0  0  0
  -22.7246  -10.2141   20.3047 C   0  0  0  0  0  0
  -21.6858   -6.0740   22.5279 C   0  0  0  0  0  0
  -21.4010   -6.5640   23.8219 C   0  0  0  0  0  0
  -21.3669   -5.6793   24.9178 C   0  0  0  0  0  0
  -21.6051   -4.3053   24.7215 C   0  0  0  0  0  0
  -21.8817   -3.8148   23.4339 C   0  0  0  0  0  0
  -21.9191   -4.6968   22.3396 C   0  0  0  0  0  0
  -22.7791  -13.5220   21.1886 C   0  0  0  0  0  0
  -22.1656   -4.2149   21.0976 F   0  0  0  0  0  0
  -21.5644   -3.4536   25.7732 F   0  0  0  0  0  0
  -29.9505  -13.6783   20.3625 N   0  0  0  0  0  0
  -26.2886  -12.9476   20.3259 N   0  0  0  0  0  0
  -25.9329  -11.6601   20.5749 N   0  0  0  0  0  0
  -22.0425  -12.8215   22.0435 N   0  0  0  0  0  0
  -25.4169  -15.1969   20.4186 N   0  0  0  0  0  0
  -31.8188  -14.8937   20.1781 O   0  0  0  0  0  0
  -21.6647   -6.8880   21.4242 O   0  0  0  0  0  0
  -22.3477  -14.5514   20.6719 O   0  0  0  0  0  0
  -24.6424  -31.8445   23.1888 C   0  0  0  0  0  0
  -25.9210  -32.4686   23.8264 C   0  0  1  0  0  0
  -27.2096  -27.1496   20.1421 C   0  0  0  0  0  0
  -25.5959  -33.8494   24.2187 N   0  0  0  0  0  0
  -23.4440  -30.4671   21.5337 C   0  0  2  0  0  0
  -24.8899  -28.8960   20.1101 C   0  0  0  0  0  0
  -22.7561  -29.4566   22.4852 C   0  0  0  0  0  0
  -18.0309  -28.1396   22.8472 C   0  0  0  0  0  0
  -24.1499  -36.7277   23.2641 C   0  0  0  0  0  0
  -25.9999  -30.7231   21.3832 C   0  0  0  0  0  0
  -26.0690  -29.3361   20.7253 C   0  0  0  0  0  0
  -27.2318  -28.4797   20.7225 C   0  0  0  0  0  0
  -26.0014  -26.8082   19.4946 C   0  0  0  0  0  0
  -24.8679  -27.6446   19.4806 C   0  0  0  0  0  0
  -23.6682  -29.7978   20.1525 C   0  0  0  0  0  0
  -25.4124  -36.3031   24.0313 C   0  0  1  0  0  0
  -20.5918  -28.3726   23.1235 C   0  0  2  0  0  0
  -20.6791  -26.9431   22.5403 C   0  0  0  0  0  0
  -19.5764  -26.6379   21.5213 C   0  0  0  0  0  0
  -18.1948  -26.7939   22.1623 C   0  0  0  0  0  0
  -19.1563  -28.8880   23.2850 C   0  0  0  0  0  0
  -18.9479  -30.1472   23.8876 C   0  0  0  0  0  0
  -17.6474  -30.6594   24.0561 C   0  0  0  0  0  0
  -25.9069  -34.9398   23.5058 C   0  0  0  0  0  0
  -16.5366  -29.9084   23.6334 C   0  0  0  0  0  0
  -16.7290  -28.6511   23.0348 C   0  0  0  0  0  0
  -26.4518  -31.6547   25.0707 C   0  0  0  0  0  0
  -25.3704  -31.3748   26.1408 C   0  0  0  0  0  0
  -27.0359  -30.2927   24.6292 C   0  0  0  0  0  0
  -27.6039  -32.4309   25.7505 C   0  0  0  0  0  0
  -27.5581  -37.1799   24.8460 C   0  0  0  0  0  0
  -21.4255  -29.3062   22.3607 N   0  0  0  0  0  0
  -26.4290  -37.3740   23.9396 N   0  0  0  0  0  0
  -24.7155  -31.0329   22.0905 N   0  0  0  0  0  0
  -23.4222  -28.8107   23.2989 O   0  0  0  0  0  0
  -28.2634  -26.1724   20.1984 O   0  0  0  0  0  0
  -26.5658  -34.8899   22.4636 O   0  0  0  0  0  0
  -23.5551  -32.1307   23.7128 O   0  0  0  0  0  0
  -31.2183  -21.7308   20.2512 C   0  0  0  0  0  0
  -29.9155  -21.1414   20.2437 C   0  0  0  0  0  0
  -31.3444  -23.1405   20.2562 C   0  0  0  0  0  0
  -29.0719  -23.4661   20.2348 C   0  0  0  0  0  0
  -30.0209  -18.6878   21.6339 C   0  0  0  0  0  0
  -28.9116  -18.4934   19.5264 C   0  0  0  0  0  0
  -30.5758  -17.1805   21.5257 C   0  0  0  0  0  0
  -29.4236  -16.9482   19.4064 C   0  0  0  0  0  0
  -29.8651  -19.4733   20.2922 C   0  0  0  0  0  0
  -32.5014  -20.8875   20.2429 C   0  0  0  0  0  0
  -32.6851  -23.8583   20.2626 C   0  0  0  0  0  0
  -27.9479  -24.6497   20.1296 C   0  0  0  0  0  0
  -28.8514  -22.0762   20.2575 N   0  0  0  0  0  0
  -30.2938  -23.9653   20.2439 N   0  0  0  0  0  0
  -29.9462  -16.1629   20.5982 N   0  0  0  0  0  0
  -31.4657  -12.6888   19.1886 H   0  0  0  0  0  0
  -30.3861  -11.6130   20.0322 H   0  0  0  0  0  0
  -29.8321  -11.7333   17.5724 H   0  0  0  0  0  0
  -29.6121  -13.4643   17.6962 H   0  0  0  0  0  0
  -27.9371  -11.2822   18.9696 H   0  0  0  0  0  0
  -27.3852  -12.4646   17.8120 H   0  0  0  0  0  0
  -27.5876  -14.2548   19.4105 H   0  0  0  0  0  0
  -28.7493  -12.3306   21.4759 H   0  0  0  0  0  0
  -28.3852  -14.0262   21.7303 H   0  0  0  0  0  0
  -25.2757   -9.5716   22.4769 H   0  0  0  0  0  0
  -24.0023   -7.4649   22.7473 H   0  0  0  0  0  0
  -21.0861   -8.8756   19.8955 H   0  0  0  0  0  0
  -22.3678  -10.9675   19.6166 H   0  0  0  0  0  0
  -21.1986   -7.6145   23.9716 H   0  0  0  0  0  0
  -21.1508   -6.0521   25.9088 H   0  0  0  0  0  0
  -22.0589   -2.7606   23.2829 H   0  0  0  0  0  0
  -22.4033  -11.9878   22.4839 H   0  0  0  0  0  0
  -21.1034  -13.1258   22.2610 H   0  0  0  0  0  0
  -24.6616  -15.8599   20.5506 H   0  0  0  0  0  0
  -26.2852  -15.6354   20.1393 H   0  0  0  0  0  0
  -26.7279  -32.5291   23.0993 H   0  0  0  0  0  0
  -25.0046  -33.9589   25.0294 H   0  0  0  0  0  0
  -22.7466  -31.2929   21.3805 H   0  0  0  0  0  0
  -23.3744  -35.9626   23.3281 H   0  0  0  0  0  0
  -24.3600  -36.8932   22.2064 H   0  0  0  0  0  0
  -23.7272  -37.6477   23.6689 H   0  0  0  0  0  0
  -26.1527  -31.4762   20.6093 H   0  0  0  0  0  0
  -26.8726  -30.7732   22.0232 H   0  0  0  0  0  0
  -28.1307  -28.8134   21.2208 H   0  0  0  0  0  0
  -25.8873  -25.8564   19.0011 H   0  0  0  0  0  0
  -23.9678  -27.3020   18.9883 H   0  0  0  0  0  0
  -23.8061  -30.5704   19.3953 H   0  0  0  0  0  0
  -22.7826  -29.2394   19.8438 H   0  0  0  0  0  0
  -25.1314  -36.1852   25.0805 H   0  0  0  0  0  0
  -21.0018  -28.3320   24.1354 H   0  0  0  0  0  0
  -20.5685  -26.2349   23.3623 H   0  0  0  0  0  0
  -21.6656  -26.7437   22.1201 H   0  0  0  0  0  0
  -19.6921  -25.6285   21.1262 H   0  0  0  0  0  0
  -19.6697  -27.3171   20.6727 H   0  0  0  0  0  0
  -17.4221  -26.6687   21.4026 H   0  0  0  0  0  0
  -18.0342  -26.0086   22.9023 H   0  0  0  0  0  0
  -19.7952  -30.7295   24.2240 H   0  0  0  0  0  0
  -17.5026  -31.6272   24.5164 H   0  0  0  0  0  0
  -15.5365  -30.2975   23.7670 H   0  0  0  0  0  0
  -15.8698  -28.0820   22.7058 H   0  0  0  0  0  0
  -24.5880  -30.7096   25.7747 H   0  0  0  0  0  0
  -24.8896  -32.2933   26.4778 H   0  0  0  0  0  0
  -25.7988  -30.8962   27.0222 H   0  0  0  0  0  0
  -26.2962  -29.6658   24.1307 H   0  0  0  0  0  0
  -27.3955  -29.7226   25.4871 H   0  0  0  0  0  0
  -27.8882  -30.4133   23.9603 H   0  0  0  0  0  0
  -27.2607  -33.3607   26.2052 H   0  0  0  0  0  0
  -28.3873  -32.6876   25.0364 H   0  0  0  0  0  0
  -28.0678  -31.8458   26.5455 H   0  0  0  0  0  0
  -28.2581  -38.0110   24.7495 H   0  0  0  0  0  0
  -28.1090  -36.2638   24.6285 H   0  0  0  0  0  0
  -27.2309  -37.1451   25.8866 H   0  0  0  0  0  0
  -20.9460  -29.8792   21.6807 H   0  0  0  0  0  0
  -26.0155  -38.2811   24.1373 H   0  0  0  0  0  0
  -30.6948  -19.2485   22.2816 H   0  0  0  0  0  0
  -29.0635  -18.6918   22.1548 H   0  0  0  0  0  0
  -27.9314  -18.5140   20.0059 H   0  0  0  0  0  0
  -28.7476  -18.8801   18.5198 H   0  0  0  0  0  0
  -30.5613  -16.7495   22.5274 H   0  0  0  0  0  0
  -31.6332  -17.2510   21.2643 H   0  0  0  0  0  0
  -30.2279  -16.9394   18.6692 H   0  0  0  0  0  0
  -28.6245  -16.3586   18.9562 H   0  0  0  0  0  0
  -30.7646  -19.2361   19.7310 H   0  0  0  0  0  0
  -32.4331  -20.0186   20.8940 H   0  0  0  0  0  0
  -33.3805  -21.4255   20.5906 H   0  0  0  0  0  0
  -32.7212  -20.5459   19.2306 H   0  0  0  0  0  0
  -33.2361  -23.6464   19.3457 H   0  0  0  0  0  0
  -33.2895  -23.5528   21.1168 H   0  0  0  0  0  0
  -32.5621  -24.9399   20.3342 H   0  0  0  0  0  0
  -27.2036  -24.4400   20.8992 H   0  0  0  0  0  0
  -27.4603  -24.4570   19.1761 H   0  0  0  0  0  0
  1 25  1  0  0  0
  1 30  2  0  0  0
  1 85  1  0  0  0
  2  3  1  0  0  0
  2 25  1  0  0  0
  2 86  1  0  0  0
  2 87  1  0  0  0
  3  4  1  0  0  0
  3 88  1  0  0  0
  3 89  1  0  0  0
  4  5  1  0  0  0
  4 90  1  0  0  0
  4 91  1  0  0  0
  5  6  1  0  0  0
  5 26  1  0  0  0
  5 92  1  0  0  0
  6 25  1  0  0  0
  6 93  1  0  0  0
  6 94  1  0  0  0
  7  8  2  0  0  0
  7 26  1  0  0  0
  7 29  1  0  0  0
  8  9  1  0  0  0
  8 22  1  0  0  0
  9 10  1  0  0  0
  9 27  2  0  0  0
 10 11  2  0  0  0
 10 15  1  0  0  0
 11 12  1  0  0  0
 11 95  1  0  0  0
 12 13  2  0  0  0
 12 96  1  0  0  0
 13 14  1  0  0  0
 13 31  1  0  0  0
 14 15  2  0  0  0
 14 97  1  0  0  0
 15 98  1  0  0  0
 16 17  2  0  0  0
 16 21  1  0  0  0
 16 31  1  0  0  0
 17 18  1  0  0  0
 17 99  1  0  0  0
 18 19  2  0  0  0
 18100  1  0  0  0
 19 20  1  0  0  0
 19 24  1  0  0  0
 20 21  2  0  0  0
 20101  1  0  0  0
 21 23  1  0  0  0
 22 28  1  0  0  0
 22 32  2  0  0  0
 26 27  1  0  0  0
 28102  1  0  0  0
 28103  1  0  0  0
 29104  1  0  0  0
 29105  1  0  0  0
 33 34  1  0  0  0
 33 66  1  0  0  0
 33 70  2  0  0  0
 34 36  1  0  0  0
 34 59  1  0  0  0
 34106  1  0  0  0
 35 44  2  0  0  0
 35 45  1  0  0  0
 35 68  1  0  0  0
 36 56  1  0  0  0
 36107  1  0  0  0
 37 39  1  0  0  0
 37 47  1  0  0  0
 37 66  1  0  0  0
 37108  1  0  0  0
 38 43  2  0  0  0
 38 46  1  0  0  0
 38 47  1  0  0  0
 39 64  1  0  0  0
 39 67  2  0  0  0
 40 52  1  0  0  0
 40 53  2  0  0  0
 40 58  1  0  0  0
 41109  1  0  0  0
 41110  1  0  0  0
 41111  1  0  0  0
 41 48  1  0  0  0
 42 43  1  0  0  0
 42 66  1  0  0  0
 42112  1  0  0  0
 42113  1  0  0  0
 43 44  1  0  0  0
 44114  1  0  0  0
 45 46  2  0  0  0
 45115  1  0  0  0
 46116  1  0  0  0
 47117  1  0  0  0
 47118  1  0  0  0
 48 56  1  0  0  0
 48 65  1  0  0  0
 48119  1  0  0  0
 49 50  1  0  0  0
 49 53  1  0  0  0
 49 64  1  0  0  0
 49120  1  0  0  0
 50 51  1  0  0  0
 50121  1  0  0  0
 50122  1  0  0  0
 51 52  1  0  0  0
 51123  1  0  0  0
 51124  1  0  0  0
 52125  1  0  0  0
 52126  1  0  0  0
 53 54  1  0  0  0
 54 55  2  0  0  0
 54127  1  0  0  0
 55 57  1  0  0  0
 55128  1  0  0  0
 56 69  2  0  0  0
 57 58  2  0  0  0
 57129  1  0  0  0
 58130  1  0  0  0
 59 60  1  0  0  0
 59 61  1  0  0  0
 59 62  1  0  0  0
 60131  1  0  0  0
 60132  1  0  0  0
 60133  1  0  0  0
 61134  1  0  0  0
 61135  1  0  0  0
 61136  1  0  0  0
 62137  1  0  0  0
 62138  1  0  0  0
 62139  1  0  0  0
 63 65  1  0  0  0
 63140  1  0  0  0
 63141  1  0  0  0
 63142  1  0  0  0
 64143  1  0  0  0
 65144  1  0  0  0
 68 82  1  0  0  0
 71 72  2  0  0  0
 71 73  1  0  0  0
 71 80  1  0  0  0
 72 83  1  0  0  0
 72 79  1  0  0  0
 73 81  1  0  0  0
 73 84  2  0  0  0
 74 82  1  0  0  0
 74 83  2  0  0  0
 74 84  1  0  0  0
 75 77  1  0  0  0
 75 79  1  0  0  0
 75145  1  0  0  0
 75146  1  0  0  0
 76 78  1  0  0  0
 76 79  1  0  0  0
 76147  1  0  0  0
 76148  1  0  0  0
 77 85  1  0  0  0
 77149  1  0  0  0
 77150  1  0  0  0
 78 85  1  0  0  0
 78151  1  0  0  0
 78152  1  0  0  0
 79153  1  0  0  0
 80154  1  0  0  0
 80155  1  0  0  0
 80156  1  0  0  0
 81157  1  0  0  0
 81158  1  0  0  0
 81159  1  0  0  0
 82160  1  0  0  0
 82161  1  0  0  0
M  ISO  4   1 100  68 101  82 101  85 100
M  END
> <chiral flag>
0

> <version>
0

> <s_m_source_file>
/data/baiqing/PycharmProjects/Reinvent-master-3.2/result/LINK_invent/BTK/process_docking_weight1_custom_sum_contain_oxygen_bond_distance_aromatic_linkinvent_7_9_3/rearranged_h_0170.sdf

> <i_m_source_file_index>
76

> <r_mmod_Potential_Energy-OPLS-2005>
323.682220458984

> <r_mmod_Stretch_Energy-OPLS-2005>
226.800643920898

> <r_mmod_Bend_Energy-OPLS-2005>
299.147277832031

> <r_mmod_Torsional_Energy-OPLS-2005>
319.787322998047

> <r_mmod_Improper_Torsional_Energy-OPLS-2005>
7.50482797622681

> <r_mmod_Van_der_Waal_Energy-OPLS-2005>
153.226470947266

> <r_mmod_Electrostatic_Energy-OPLS-2005>
-623.1318359375

> <r_mmod_Solvation_Energy-OPLS-2005>
-231.100250244141

> <b_mmod_Minimization_Converged-OPLS-2005>
0

> <r_mmod_RMS_Derivative-OPLS-2005>
2.21781444549561

$$$$
77
                    3D
 Structure written by MMmdl.
164173  0  0  1  0            999 V2000
  -30.5898  -14.8979   20.4204 C   0  0  0  0  0  0
  -30.4251  -12.5545   19.4938 C   0  0  0  0  0  0
  -29.5118  -12.5173   18.2496 C   0  0  0  0  0  0
  -28.0443  -12.3198   18.6692 C   0  0  0  0  0  0
  -27.6283  -13.2522   19.8383 C   0  0  2  0  0  0
  -28.6719  -13.2801   20.9747 C   0  0  0  0  0  0
  -25.2463  -13.8240   20.5727 C   0  0  0  0  0  0
  -24.1774  -13.0460   20.9227 C   0  0  0  0  0  0
  -24.6392  -11.6941   20.8755 C   0  0  0  0  0  0
  -23.9079  -10.4304   21.0407 C   0  0  0  0  0  0
  -24.3626   -9.4215   21.9181 C   0  0  0  0  0  0
  -23.6297   -8.2250   22.0747 C   0  0  0  0  0  0
  -22.4276   -8.0282   21.3540 C   0  0  0  0  0  0
  -21.9913   -9.0258   20.4644 C   0  0  0  0  0  0
  -22.7250  -10.2135   20.3057 C   0  0  0  0  0  0
  -21.6858   -6.0732   22.5275 C   0  0  0  0  0  0
  -21.4022   -6.5632   23.8209 C   0  0  0  0  0  0
  -21.3661   -5.6782   24.9168 C   0  0  0  0  0  0
  -21.6041   -4.3046   24.7219 C   0  0  0  0  0  0
  -21.8824   -3.8141   23.4343 C   0  0  0  0  0  0
  -21.9198   -4.6960   22.3399 C   0  0  0  0  0  0
  -22.7792  -13.5230   21.1883 C   0  0  0  0  0  0
  -22.1667   -4.2152   21.0975 F   0  0  0  0  0  0
  -21.5629   -3.4527   25.7733 F   0  0  0  0  0  0
  -29.9490  -13.6650   20.3662 N   0  0  0  0  0  0
  -26.2887  -12.9478   20.3264 N   0  0  0  0  0  0
  -25.9325  -11.6603   20.5747 N   0  0  0  0  0  0
  -22.0448  -12.8205   22.0433 N   0  0  0  0  0  0
  -25.4160  -15.1961   20.4165 N   0  0  0  0  0  0
  -31.7941  -14.9054   20.1396 O   0  0  0  0  0  0
  -21.6641   -6.8875   21.4237 O   0  0  0  0  0  0
  -22.3471  -14.5535   20.6736 O   0  0  0  0  0  0
  -24.6421  -31.8458   23.1905 C   0  0  0  0  0  0
  -25.9202  -32.4701   23.8280 C   0  0  1  0  0  0
  -27.2082  -27.1520   20.1432 C   0  0  0  0  0  0
  -25.5961  -33.8505   24.2202 N   0  0  0  0  0  0
  -23.4439  -30.4679   21.5360 C   0  0  2  0  0  0
  -24.8914  -28.9016   20.1078 C   0  0  0  0  0  0
  -22.7560  -29.4558   22.4862 C   0  0  0  0  0  0
  -18.0307  -28.1395   22.8474 C   0  0  0  0  0  0
  -24.1495  -36.7261   23.2640 C   0  0  0  0  0  0
  -25.9996  -30.7242   21.3881 C   0  0  0  0  0  0
  -26.0692  -29.3384   20.7273 C   0  0  0  0  0  0
  -27.2298  -28.4789   20.7299 C   0  0  0  0  0  0
  -26.0052  -26.8173   19.4814 C   0  0  0  0  0  0
  -24.8717  -27.6545   19.4691 C   0  0  0  0  0  0
  -23.6685  -29.8023   20.1532 C   0  0  0  0  0  0
  -25.4125  -36.3033   24.0316 C   0  0  1  0  0  0
  -20.5918  -28.3720   23.1239 C   0  0  2  0  0  0
  -20.6793  -26.9425   22.5404 C   0  0  0  0  0  0
  -19.5767  -26.6382   21.5211 C   0  0  0  0  0  0
  -18.1947  -26.7933   22.1621 C   0  0  0  0  0  0
  -19.1561  -28.8875   23.2849 C   0  0  0  0  0  0
  -18.9478  -30.1474   23.8875 C   0  0  0  0  0  0
  -17.6473  -30.6590   24.0560 C   0  0  0  0  0  0
  -25.9075  -34.9410   23.5066 C   0  0  0  0  0  0
  -16.5366  -29.9082   23.6336 C   0  0  0  0  0  0
  -16.7289  -28.6502   23.0350 C   0  0  0  0  0  0
  -26.4531  -31.6560   25.0716 C   0  0  0  0  0  0
  -25.3718  -31.3747   26.1413 C   0  0  0  0  0  0
  -27.0391  -30.2953   24.6288 C   0  0  0  0  0  0
  -27.6063  -32.4321   25.7503 C   0  0  0  0  0  0
  -27.5578  -37.1785   24.8462 C   0  0  0  0  0  0
  -21.4254  -29.3049   22.3608 N   0  0  0  0  0  0
  -26.4287  -37.3747   23.9409 N   0  0  0  0  0  0
  -24.7148  -31.0332   22.0934 N   0  0  0  0  0  0
  -23.4216  -28.8097   23.2993 O   0  0  0  0  0  0
  -28.2524  -26.1646   20.2205 O   0  0  0  0  0  0
  -26.5650  -34.8904   22.4639 O   0  0  0  0  0  0
  -23.5547  -32.1326   23.7142 O   0  0  0  0  0  0
  -28.9153  -23.3670   20.3254 C   0  0  0  0  0  0
  -30.2668  -23.5560   20.7156 C   0  0  0  0  0  0
  -28.5443  -21.9331   20.1878 C   0  0  0  0  0  0
  -31.1088  -22.4287   20.9263 C   0  0  0  0  0  0
  -29.4733  -20.8096   20.4241 C   0  0  0  0  0  0
  -30.1978  -18.6313   19.3785 C   0  0  0  0  0  0
  -29.3334  -18.4958   21.5147 C   0  0  0  0  0  0
  -29.9847  -17.0573   19.1471 C   0  0  0  0  0  0
  -29.1391  -16.8878   21.3866 C   0  0  0  0  0  0
  -30.8065  -24.9720   20.9031 C   0  0  0  0  0  0
  -27.1163  -21.6055   19.7817 C   0  0  0  0  0  0
  -32.5675  -22.5792   21.3220 C   0  0  0  0  0  0
  -27.9254  -24.6569   20.0456 C   0  0  0  0  0  0
  -30.7230  -21.1388   20.7908 N   0  0  0  0  0  0
  -29.2589  -19.3451   20.2866 N   0  0  0  0  0  0
  -29.8677  -16.1222   20.3184 N   0  0  0  0  0  0
  -31.4642  -12.6801   19.1842 H   0  0  0  0  0  0
  -30.3893  -11.6039   20.0283 H   0  0  0  0  0  0
  -29.8199  -11.7167   17.5763 H   0  0  0  0  0  0
  -29.6127  -13.4479   17.6888 H   0  0  0  0  0  0
  -27.9296  -11.2780   18.9716 H   0  0  0  0  0  0
  -27.3824  -12.4662   17.8154 H   0  0  0  0  0  0
  -27.5944  -14.2554   19.4116 H   0  0  0  0  0  0
  -28.7466  -12.3123   21.4720 H   0  0  0  0  0  0
  -28.3829  -14.0038   21.7387 H   0  0  0  0  0  0
  -25.2778   -9.5695   22.4754 H   0  0  0  0  0  0
  -24.0010   -7.4644   22.7462 H   0  0  0  0  0  0
  -21.0844   -8.8784   19.8945 H   0  0  0  0  0  0
  -22.3713  -10.9672   19.6163 H   0  0  0  0  0  0
  -21.2012   -7.6141   23.9713 H   0  0  0  0  0  0
  -21.1482   -6.0510   25.9072 H   0  0  0  0  0  0
  -22.0602   -2.7603   23.2840 H   0  0  0  0  0  0
  -22.4071  -11.9867   22.4821 H   0  0  0  0  0  0
  -21.1069  -13.1223   22.2658 H   0  0  0  0  0  0
  -24.6527  -15.8539   20.5311 H   0  0  0  0  0  0
  -26.2696  -15.6315   20.0913 H   0  0  0  0  0  0
  -26.7264  -32.5312   23.1006 H   0  0  0  0  0  0
  -25.0096  -33.9619   25.0341 H   0  0  0  0  0  0
  -22.7458  -31.2939   21.3857 H   0  0  0  0  0  0
  -23.3760  -35.9588   23.3284 H   0  0  0  0  0  0
  -24.3586  -36.8909   22.2058 H   0  0  0  0  0  0
  -23.7250  -37.6453   23.6687 H   0  0  0  0  0  0
  -26.1547  -31.4810   20.6182 H   0  0  0  0  0  0
  -26.8702  -30.7720   22.0300 H   0  0  0  0  0  0
  -28.1251  -28.8040   21.2410 H   0  0  0  0  0  0
  -25.8972  -25.8676   18.9809 H   0  0  0  0  0  0
  -23.9735  -27.3178   18.9703 H   0  0  0  0  0  0
  -23.8050  -30.5793   19.4000 H   0  0  0  0  0  0
  -22.7831  -29.2456   19.8413 H   0  0  0  0  0  0
  -25.1312  -36.1859   25.0806 H   0  0  0  0  0  0
  -21.0010  -28.3310   24.1360 H   0  0  0  0  0  0
  -20.5695  -26.2328   23.3618 H   0  0  0  0  0  0
  -21.6658  -26.7438   22.1199 H   0  0  0  0  0  0
  -19.6928  -25.6287   21.1254 H   0  0  0  0  0  0
  -19.6702  -27.3181   20.6732 H   0  0  0  0  0  0
  -17.4215  -26.6675   21.4026 H   0  0  0  0  0  0
  -18.0348  -26.0084   22.9027 H   0  0  0  0  0  0
  -19.7953  -30.7296   24.2232 H   0  0  0  0  0  0
  -17.5027  -31.6266   24.5168 H   0  0  0  0  0  0
  -15.5365  -30.2974   23.7675 H   0  0  0  0  0  0
  -15.8691  -28.0816   22.7073 H   0  0  0  0  0  0
  -24.5899  -30.7094   25.7737 H   0  0  0  0  0  0
  -24.8909  -32.2929   26.4792 H   0  0  0  0  0  0
  -25.8004  -30.8949   27.0221 H   0  0  0  0  0  0
  -26.3000  -29.6676   24.1298 H   0  0  0  0  0  0
  -27.4007  -29.7254   25.4859 H   0  0  0  0  0  0
  -27.8913  -30.4188   23.9602 H   0  0  0  0  0  0
  -27.2651  -33.3632   26.2042 H   0  0  0  0  0  0
  -28.3896  -32.6860   25.0349 H   0  0  0  0  0  0
  -28.0706  -31.8471   26.5453 H   0  0  0  0  0  0
  -28.2580  -38.0096   24.7517 H   0  0  0  0  0  0
  -28.1089  -36.2626   24.6274 H   0  0  0  0  0  0
  -27.2297  -37.1417   25.8864 H   0  0  0  0  0  0
  -20.9457  -29.8761   21.6792 H   0  0  0  0  0  0
  -26.0154  -38.2813   24.1413 H   0  0  0  0  0  0
  -30.1625  -19.1320   18.4098 H   0  0  0  0  0  0
  -31.2150  -18.7856   19.7433 H   0  0  0  0  0  0
  -30.3003  -18.6836   21.9839 H   0  0  0  0  0  0
  -28.5968  -18.8798   22.2210 H   0  0  0  0  0  0
  -30.7815  -16.7056   18.4886 H   0  0  0  0  0  0
  -29.0695  -16.9250   18.5686 H   0  0  0  0  0  0
  -28.0785  -16.6917   21.2259 H   0  0  0  0  0  0
  -29.3673  -16.4344   22.3526 H   0  0  0  0  0  0
  -30.7321  -25.5325   19.9709 H   0  0  0  0  0  0
  -31.8482  -25.0153   21.2131 H   0  0  0  0  0  0
  -30.2334  -25.4954   21.6686 H   0  0  0  0  0  0
  -26.7900  -22.2318   18.9516 H   0  0  0  0  0  0
  -26.4391  -21.7676   20.6208 H   0  0  0  0  0  0
  -27.0125  -20.5670   19.4657 H   0  0  0  0  0  0
  -32.6537  -23.0681   22.2924 H   0  0  0  0  0  0
  -33.1094  -23.1683   20.5817 H   0  0  0  0  0  0
  -33.0678  -21.6130   21.3955 H   0  0  0  0  0  0
  -27.0297  -24.4636   20.6368 H   0  0  0  0  0  0
  -27.6258  -24.5367   19.0049 H   0  0  0  0  0  0
  1 25  1  0  0  0
  1 30  2  0  0  0
  1 86  1  0  0  0
  2  3  1  0  0  0
  2 25  1  0  0  0
  2 87  1  0  0  0
  2 88  1  0  0  0
  3  4  1  0  0  0
  3 89  1  0  0  0
  3 90  1  0  0  0
  4  5  1  0  0  0
  4 91  1  0  0  0
  4 92  1  0  0  0
  5  6  1  0  0  0
  5 26  1  0  0  0
  5 93  1  0  0  0
  6 25  1  0  0  0
  6 94  1  0  0  0
  6 95  1  0  0  0
  7  8  2  0  0  0
  7 26  1  0  0  0
  7 29  1  0  0  0
  8  9  1  0  0  0
  8 22  1  0  0  0
  9 10  1  0  0  0
  9 27  2  0  0  0
 10 11  2  0  0  0
 10 15  1  0  0  0
 11 12  1  0  0  0
 11 96  1  0  0  0
 12 13  2  0  0  0
 12 97  1  0  0  0
 13 14  1  0  0  0
 13 31  1  0  0  0
 14 15  2  0  0  0
 14 98  1  0  0  0
 15 99  1  0  0  0
 16 17  2  0  0  0
 16 21  1  0  0  0
 16 31  1  0  0  0
 17 18  1  0  0  0
 17100  1  0  0  0
 18 19  2  0  0  0
 18101  1  0  0  0
 19 20  1  0  0  0
 19 24  1  0  0  0
 20 21  2  0  0  0
 20102  1  0  0  0
 21 23  1  0  0  0
 22 28  1  0  0  0
 22 32  2  0  0  0
 26 27  1  0  0  0
 28103  1  0  0  0
 28104  1  0  0  0
 29105  1  0  0  0
 29106  1  0  0  0
 33 34  1  0  0  0
 33 66  1  0  0  0
 33 70  2  0  0  0
 34 36  1  0  0  0
 34 59  1  0  0  0
 34107  1  0  0  0
 35 44  2  0  0  0
 35 45  1  0  0  0
 35 68  1  0  0  0
 36 56  1  0  0  0
 36108  1  0  0  0
 37 39  1  0  0  0
 37 47  1  0  0  0
 37 66  1  0  0  0
 37109  1  0  0  0
 38 43  2  0  0  0
 38 46  1  0  0  0
 38 47  1  0  0  0
 39 64  1  0  0  0
 39 67  2  0  0  0
 40 52  1  0  0  0
 40 53  2  0  0  0
 40 58  1  0  0  0
 41110  1  0  0  0
 41111  1  0  0  0
 41112  1  0  0  0
 41 48  1  0  0  0
 42 43  1  0  0  0
 42 66  1  0  0  0
 42113  1  0  0  0
 42114  1  0  0  0
 43 44  1  0  0  0
 44115  1  0  0  0
 45 46  2  0  0  0
 45116  1  0  0  0
 46117  1  0  0  0
 47118  1  0  0  0
 47119  1  0  0  0
 48 56  1  0  0  0
 48 65  1  0  0  0
 48120  1  0  0  0
 49 50  1  0  0  0
 49 53  1  0  0  0
 49 64  1  0  0  0
 49121  1  0  0  0
 50 51  1  0  0  0
 50122  1  0  0  0
 50123  1  0  0  0
 51 52  1  0  0  0
 51124  1  0  0  0
 51125  1  0  0  0
 52126  1  0  0  0
 52127  1  0  0  0
 53 54  1  0  0  0
 54 55  2  0  0  0
 54128  1  0  0  0
 55 57  1  0  0  0
 55129  1  0  0  0
 56 69  2  0  0  0
 57 58  2  0  0  0
 57130  1  0  0  0
 58131  1  0  0  0
 59 60  1  0  0  0
 59 61  1  0  0  0
 59 62  1  0  0  0
 60132  1  0  0  0
 60133  1  0  0  0
 60134  1  0  0  0
 61135  1  0  0  0
 61136  1  0  0  0
 61137  1  0  0  0
 62138  1  0  0  0
 62139  1  0  0  0
 62140  1  0  0  0
 63 65  1  0  0  0
 63141  1  0  0  0
 63142  1  0  0  0
 63143  1  0  0  0
 64144  1  0  0  0
 65145  1  0  0  0
 68 83  1  0  0  0
 71 72  2  0  0  0
 71 73  1  0  0  0
 71 83  1  0  0  0
 72 74  1  0  0  0
 72 80  1  0  0  0
 73 75  2  0  0  0
 73 81  1  0  0  0
 74 82  1  0  0  0
 74 84  2  0  0  0
 75 84  1  0  0  0
 75 85  1  0  0  0
 76 78  1  0  0  0
 76 85  1  0  0  0
 76146  1  0  0  0
 76147  1  0  0  0
 77 79  1  0  0  0
 77 85  1  0  0  0
 77148  1  0  0  0
 77149  1  0  0  0
 78 86  1  0  0  0
 78150  1  0  0  0
 78151  1  0  0  0
 79 86  1  0  0  0
 79152  1  0  0  0
 79153  1  0  0  0
 80154  1  0  0  0
 80155  1  0  0  0
 80156  1  0  0  0
 81157  1  0  0  0
 81158  1  0  0  0
 81159  1  0  0  0
 82160  1  0  0  0
 82161  1  0  0  0
 82162  1  0  0  0
 83163  1  0  0  0
 83164  1  0  0  0
M  ISO  4   1 100  68 101  83 101  86 100
M  END
> <chiral flag>
0

> <version>
0

> <s_m_source_file>
/data/baiqing/PycharmProjects/Reinvent-master-3.2/result/LINK_invent/BTK/process_docking_weight1_custom_sum_contain_oxygen_bond_distance_aromatic_linkinvent_7_9_3/rearranged_h_0170.sdf

> <i_m_source_file_index>
77

> <r_mmod_Potential_Energy-OPLS-2005>
380.045227050781

> <r_mmod_Stretch_Energy-OPLS-2005>
205.970489501953

> <r_mmod_Bend_Energy-OPLS-2005>
240.927719116211

> <r_mmod_Torsional_Energy-OPLS-2005>
370.744598388672

> <r_mmod_Improper_Torsional_Energy-OPLS-2005>
21.0770416259766

> <r_mmod_Van_der_Waal_Energy-OPLS-2005>
147.820526123047

> <r_mmod_Electrostatic_Energy-OPLS-2005>
-551.428833007812

> <r_mmod_Solvation_Energy-OPLS-2005>
-224.809509277344

> <b_mmod_Minimization_Converged-OPLS-2005>
0

> <r_mmod_RMS_Derivative-OPLS-2005>
1.13800728321075

$$$$
78
                    3D
 Structure written by MMmdl.
160170  0  0  1  0            999 V2000
  -30.6998  -14.6213   20.5637 C   0  0  0  0  0  0
  -30.4183  -12.4020   19.4691 C   0  0  0  0  0  0
  -29.5099  -12.5149   18.2290 C   0  0  0  0  0  0
  -28.0341  -12.3431   18.6342 C   0  0  0  0  0  0
  -27.6460  -13.2241   19.8514 C   0  0  2  0  0  0
  -28.6832  -13.1119   20.9906 C   0  0  0  0  0  0
  -25.2516  -13.8171   20.5646 C   0  0  0  0  0  0
  -24.1809  -13.0415   20.9197 C   0  0  0  0  0  0
  -24.6393  -11.6903   20.8725 C   0  0  0  0  0  0
  -23.9056  -10.4285   21.0390 C   0  0  0  0  0  0
  -24.3600   -9.4211   21.9179 C   0  0  0  0  0  0
  -23.6283   -8.2242   22.0751 C   0  0  0  0  0  0
  -22.4268   -8.0273   21.3544 C   0  0  0  0  0  0
  -21.9900   -9.0239   20.4642 C   0  0  0  0  0  0
  -22.7222  -10.2123   20.3049 C   0  0  0  0  0  0
  -21.6850   -6.0734   22.5278 C   0  0  0  0  0  0
  -21.4007   -6.5633   23.8213 C   0  0  0  0  0  0
  -21.3662   -5.6783   24.9175 C   0  0  0  0  0  0
  -21.6042   -4.3046   24.7223 C   0  0  0  0  0  0
  -21.8815   -3.8142   23.4344 C   0  0  0  0  0  0
  -21.9196   -4.6962   22.3405 C   0  0  0  0  0  0
  -22.7844  -13.5234   21.1861 C   0  0  0  0  0  0
  -22.1669   -4.2143   21.0983 F   0  0  0  0  0  0
  -21.5633   -3.4536   25.7743 F   0  0  0  0  0  0
  -30.0010  -13.4448   20.4332 N   0  0  0  0  0  0
  -26.2938  -12.9373   20.3222 N   0  0  0  0  0  0
  -25.9311  -11.6523   20.5693 N   0  0  0  0  0  0
  -22.0468  -12.8226   22.0405 N   0  0  0  0  0  0
  -25.4115  -15.1891   20.4047 N   0  0  0  0  0  0
  -31.8379  -14.7251   20.1002 O   0  0  0  0  0  0
  -21.6640   -6.8867   21.4238 O   0  0  0  0  0  0
  -22.3545  -14.5552   20.6727 O   0  0  0  0  0  0
  -24.6281  -31.8598   23.2040 C   0  0  0  0  0  0
  -25.9129  -32.4763   23.8366 C   0  0  1  0  0  0
  -27.2107  -27.3203   20.1201 C   0  0  0  0  0  0
  -25.5948  -33.8571   24.2284 N   0  0  0  0  0  0
  -23.4179  -30.4856   21.5472 C   0  0  2  0  0  0
  -24.8588  -28.9352   20.1125 C   0  0  0  0  0  0
  -22.7470  -29.4634   22.4954 C   0  0  0  0  0  0
  -18.0283  -28.1394   22.8464 C   0  0  0  0  0  0
  -24.1464  -36.7264   23.2648 C   0  0  0  0  0  0
  -25.9596  -30.7875   21.3736 C   0  0  0  0  0  0
  -26.0296  -29.4167   20.7145 C   0  0  0  0  0  0
  -27.2123  -28.6229   20.7029 C   0  0  0  0  0  0
  -26.0190  -26.8769   19.5105 C   0  0  0  0  0  0
  -24.8546  -27.6694   19.5029 C   0  0  0  0  0  0
  -23.6290  -29.8207   20.1617 C   0  0  0  0  0  0
  -25.4093  -36.3069   24.0338 C   0  0  1  0  0  0
  -20.5888  -28.3689   23.1277 C   0  0  2  0  0  0
  -20.6775  -26.9416   22.5409 C   0  0  0  0  0  0
  -19.5756  -26.6380   21.5207 C   0  0  0  0  0  0
  -18.1924  -26.7933   22.1601 C   0  0  0  0  0  0
  -19.1540  -28.8859   23.2852 C   0  0  0  0  0  0
  -18.9487  -30.1466   23.8860 C   0  0  0  0  0  0
  -17.6496  -30.6596   24.0570 C   0  0  0  0  0  0
  -25.9061  -34.9449   23.5107 C   0  0  0  0  0  0
  -16.5374  -29.9089   23.6363 C   0  0  0  0  0  0
  -16.7276  -28.6521   23.0344 C   0  0  0  0  0  0
  -26.4511  -31.6604   25.0759 C   0  0  0  0  0  0
  -25.3742  -31.3741   26.1496 C   0  0  0  0  0  0
  -27.0395  -30.3038   24.6238 C   0  0  0  0  0  0
  -27.6082  -32.4360   25.7492 C   0  0  0  0  0  0
  -27.5567  -37.1761   24.8456 C   0  0  0  0  0  0
  -21.4197  -29.3035   22.3668 N   0  0  0  0  0  0
  -26.4251  -37.3784   23.9445 N   0  0  0  0  0  0
  -24.6882  -31.0619   22.0977 N   0  0  0  0  0  0
  -23.4190  -28.8191   23.3045 O   0  0  0  0  0  0
  -28.3218  -26.4737   20.1183 O   0  0  0  0  0  0
  -26.5631  -34.8923   22.4674 O   0  0  0  0  0  0
  -23.5459  -32.1407   23.7379 O   0  0  0  0  0  0
  -29.7617  -20.4175   20.6001 C   0  0  0  0  0  0
  -30.0300  -19.0123   20.7223 C   0  0  0  0  0  0
  -28.4283  -20.9109   20.5044 C   0  0  0  0  0  0
  -28.9575  -18.0861   20.7409 C   0  0  0  0  0  0
  -27.4415  -19.8833   20.4663 C   0  0  0  0  0  0
  -28.9816  -16.4366   22.7333 C   0  0  0  0  0  0
  -27.3458  -23.0504   19.3878 C   0  0  0  0  0  0
  -30.4442  -15.9960   22.6629 C   0  0  0  0  0  0
  -27.9809  -22.4128   20.6030 C   0  0  2  0  0  0
  -28.9857  -16.5792   21.2063 C   0  0  2  0  0  0
  -28.4839  -23.7983   20.0354 C   0  0  2  0  0  0
  -25.9559  -20.1837   20.3658 C   0  0  0  0  0  0
  -28.1672  -25.1579   20.7723 C   0  0  0  0  0  0
  -27.7023  -18.5542   20.5684 N   0  0  0  0  0  0
  -30.1840  -15.6817   21.2607 N   0  0  0  0  0  0
  -31.4668  -12.4878   19.1796 H   0  0  0  0  0  0
  -30.3221  -11.4150   19.9251 H   0  0  0  0  0  0
  -29.7871  -11.7602   17.4925 H   0  0  0  0  0  0
  -29.6596  -13.4823   17.7456 H   0  0  0  0  0  0
  -27.8838  -11.2912   18.8806 H   0  0  0  0  0  0
  -27.3803  -12.5533   17.7871 H   0  0  0  0  0  0
  -27.6557  -14.2519   19.4918 H   0  0  0  0  0  0
  -28.6907  -12.1014   21.4020 H   0  0  0  0  0  0
  -28.4127  -13.7646   21.8183 H   0  0  0  0  0  0
  -25.2737   -9.5707   22.4760 H   0  0  0  0  0  0
  -23.9997   -7.4644   22.7476 H   0  0  0  0  0  0
  -21.0832   -8.8746   19.8955 H   0  0  0  0  0  0
  -22.3663  -10.9655   19.6162 H   0  0  0  0  0  0
  -21.1985   -7.6134   23.9715 H   0  0  0  0  0  0
  -21.1492   -6.0513   25.9076 H   0  0  0  0  0  0
  -22.0593   -2.7602   23.2848 H   0  0  0  0  0  0
  -22.4066  -11.9898   22.4820 H   0  0  0  0  0  0
  -21.1082  -13.1260   22.2565 H   0  0  0  0  0  0
  -24.6276  -15.8225   20.5103 H   0  0  0  0  0  0
  -26.2352  -15.6442   20.0326 H   0  0  0  0  0  0
  -26.7190  -32.5415   23.1111 H   0  0  0  0  0  0
  -25.0130  -33.9716   25.0450 H   0  0  0  0  0  0
  -22.7130  -31.3088   21.4079 H   0  0  0  0  0  0
  -23.3741  -35.9577   23.3310 H   0  0  0  0  0  0
  -24.3568  -36.8888   22.2065 H   0  0  0  0  0  0
  -23.7197  -37.6453   23.6677 H   0  0  0  0  0  0
  -26.0988  -31.5490   20.6056 H   0  0  0  0  0  0
  -26.8375  -30.8304   22.0063 H   0  0  0  0  0  0
  -28.1153  -28.9864   21.1727 H   0  0  0  0  0  0
  -25.9835  -25.8997   19.0487 H   0  0  0  0  0  0
  -23.9536  -27.2921   19.0369 H   0  0  0  0  0  0
  -23.7457  -30.5993   19.4071 H   0  0  0  0  0  0
  -22.7436  -29.2565   19.8617 H   0  0  0  0  0  0
  -25.1255  -36.1905   25.0826 H   0  0  0  0  0  0
  -20.9964  -28.3273   24.1403 H   0  0  0  0  0  0
  -20.5674  -26.2311   23.3611 H   0  0  0  0  0  0
  -21.6647  -26.7443   22.1209 H   0  0  0  0  0  0
  -19.6933  -25.6283   21.1245 H   0  0  0  0  0  0
  -19.6709  -27.3187   20.6735 H   0  0  0  0  0  0
  -17.4205  -26.6695   21.3979 H   0  0  0  0  0  0
  -18.0311  -26.0060   22.8983 H   0  0  0  0  0  0
  -19.7975  -30.7282   24.2184 H   0  0  0  0  0  0
  -17.5069  -31.6275   24.5182 H   0  0  0  0  0  0
  -15.5379  -30.2996   23.7733 H   0  0  0  0  0  0
  -15.8665  -28.0867   22.7053 H   0  0  0  0  0  0
  -24.5939  -30.7035   25.7860 H   0  0  0  0  0  0
  -24.8879  -32.2890   26.4893 H   0  0  0  0  0  0
  -25.8079  -30.8975   27.0293 H   0  0  0  0  0  0
  -26.3000  -29.6721   24.1298 H   0  0  0  0  0  0
  -27.4157  -29.7358   25.4758 H   0  0  0  0  0  0
  -27.8818  -30.4345   23.9442 H   0  0  0  0  0  0
  -27.2732  -33.3706   26.2000 H   0  0  0  0  0  0
  -28.3905  -32.6848   25.0305 H   0  0  0  0  0  0
  -28.0726  -31.8520   26.5446 H   0  0  0  0  0  0
  -28.2544  -38.0096   24.7617 H   0  0  0  0  0  0
  -28.1102  -36.2653   24.6133 H   0  0  0  0  0  0
  -27.2333  -37.1254   25.8864 H   0  0  0  0  0  0
  -20.9408  -29.8733   21.6838 H   0  0  0  0  0  0
  -26.0122  -38.2824   24.1542 H   0  0  0  0  0  0
  -30.5781  -21.1225   20.6531 H   0  0  0  0  0  0
  -31.0436  -18.6676   20.8733 H   0  0  0  0  0  0
  -28.8267  -17.3679   23.2811 H   0  0  0  0  0  0
  -28.3175  -15.6527   23.0953 H   0  0  0  0  0  0
  -26.3355  -23.4342   19.5134 H   0  0  0  0  0  0
  -27.5514  -22.6149   18.4116 H   0  0  0  0  0  0
  -30.6625  -15.1398   23.3051 H   0  0  0  0  0  0
  -31.1607  -16.8048   22.8134 H   0  0  0  0  0  0
  -27.4388  -22.5018   21.5417 H   0  0  0  0  0  0
  -28.1219  -16.0724   20.7802 H   0  0  0  0  0  0
  -29.4395  -23.7897   19.5130 H   0  0  0  0  0  0
  -25.6197  -20.0096   19.3438 H   0  0  0  0  0  0
  -25.6965  -21.2032   20.6428 H   0  0  0  0  0  0
  -25.3855  -19.5280   21.0242 H   0  0  0  0  0  0
  -28.8315  -25.1944   21.6365 H   0  0  0  0  0  0
  -27.1689  -25.0685   21.2067 H   0  0  0  0  0  0
  1 25  1  0  0  0
  1 30  2  0  0  0
  1 85  1  0  0  0
  2  3  1  0  0  0
  2 25  1  0  0  0
  2 86  1  0  0  0
  2 87  1  0  0  0
  3  4  1  0  0  0
  3 88  1  0  0  0
  3 89  1  0  0  0
  4  5  1  0  0  0
  4 90  1  0  0  0
  4 91  1  0  0  0
  5  6  1  0  0  0
  5 26  1  0  0  0
  5 92  1  0  0  0
  6 25  1  0  0  0
  6 93  1  0  0  0
  6 94  1  0  0  0
  7  8  2  0  0  0
  7 26  1  0  0  0
  7 29  1  0  0  0
  8  9  1  0  0  0
  8 22  1  0  0  0
  9 10  1  0  0  0
  9 27  2  0  0  0
 10 11  2  0  0  0
 10 15  1  0  0  0
 11 12  1  0  0  0
 11 95  1  0  0  0
 12 13  2  0  0  0
 12 96  1  0  0  0
 13 14  1  0  0  0
 13 31  1  0  0  0
 14 15  2  0  0  0
 14 97  1  0  0  0
 15 98  1  0  0  0
 16 17  2  0  0  0
 16 21  1  0  0  0
 16 31  1  0  0  0
 17 18  1  0  0  0
 17 99  1  0  0  0
 18 19  2  0  0  0
 18100  1  0  0  0
 19 20  1  0  0  0
 19 24  1  0  0  0
 20 21  2  0  0  0
 20101  1  0  0  0
 21 23  1  0  0  0
 22 28  1  0  0  0
 22 32  2  0  0  0
 26 27  1  0  0  0
 28102  1  0  0  0
 28103  1  0  0  0
 29104  1  0  0  0
 29105  1  0  0  0
 33 34  1  0  0  0
 33 66  1  0  0  0
 33 70  2  0  0  0
 34 36  1  0  0  0
 34 59  1  0  0  0
 34106  1  0  0  0
 35 44  2  0  0  0
 35 45  1  0  0  0
 35 68  1  0  0  0
 36 56  1  0  0  0
 36107  1  0  0  0
 37 39  1  0  0  0
 37 47  1  0  0  0
 37 66  1  0  0  0
 37108  1  0  0  0
 38 43  2  0  0  0
 38 46  1  0  0  0
 38 47  1  0  0  0
 39 64  1  0  0  0
 39 67  2  0  0  0
 40 52  1  0  0  0
 40 53  2  0  0  0
 40 58  1  0  0  0
 41109  1  0  0  0
 41110  1  0  0  0
 41111  1  0  0  0
 41 48  1  0  0  0
 42 43  1  0  0  0
 42 66  1  0  0  0
 42112  1  0  0  0
 42113  1  0  0  0
 43 44  1  0  0  0
 44114  1  0  0  0
 45 46  2  0  0  0
 45115  1  0  0  0
 46116  1  0  0  0
 47117  1  0  0  0
 47118  1  0  0  0
 48 56  1  0  0  0
 48 65  1  0  0  0
 48119  1  0  0  0
 49 50  1  0  0  0
 49 53  1  0  0  0
 49 64  1  0  0  0
 49120  1  0  0  0
 50 51  1  0  0  0
 50121  1  0  0  0
 50122  1  0  0  0
 51 52  1  0  0  0
 51123  1  0  0  0
 51124  1  0  0  0
 52125  1  0  0  0
 52126  1  0  0  0
 53 54  1  0  0  0
 54 55  2  0  0  0
 54127  1  0  0  0
 55 57  1  0  0  0
 55128  1  0  0  0
 56 69  2  0  0  0
 57 58  2  0  0  0
 57129  1  0  0  0
 58130  1  0  0  0
 59 60  1  0  0  0
 59 61  1  0  0  0
 59 62  1  0  0  0
 60131  1  0  0  0
 60132  1  0  0  0
 60133  1  0  0  0
 61134  1  0  0  0
 61135  1  0  0  0
 61136  1  0  0  0
 62137  1  0  0  0
 62138  1  0  0  0
 62139  1  0  0  0
 63 65  1  0  0  0
 63140  1  0  0  0
 63141  1  0  0  0
 63142  1  0  0  0
 64143  1  0  0  0
 65144  1  0  0  0
 68 83  1  0  0  0
 71 72  2  0  0  0
 71 73  1  0  0  0
 71145  1  0  0  0
 72 74  1  0  0  0
 72146  1  0  0  0
 73 75  2  0  0  0
 73 79  1  0  0  0
 74 84  2  0  0  0
 74 80  1  0  0  0
 75 82  1  0  0  0
 75 84  1  0  0  0
 76 78  1  0  0  0
 76 80  1  0  0  0
 76147  1  0  0  0
 76148  1  0  0  0
 77 79  1  0  0  0
 77 81  1  0  0  0
 77149  1  0  0  0
 77150  1  0  0  0
 78 85  1  0  0  0
 78151  1  0  0  0
 78152  1  0  0  0
 79 81  1  0  0  0
 79153  1  0  0  0
 80 85  1  0  0  0
 80154  1  0  0  0
 81 83  1  0  0  0
 81155  1  0  0  0
 82156  1  0  0  0
 82157  1  0  0  0
 82158  1  0  0  0
 83159  1  0  0  0
 83160  1  0  0  0
M  ISO  4   1 100  68 101  83 101  85 100
M  END
> <chiral flag>
0

> <version>
0

> <s_m_source_file>
/data/baiqing/PycharmProjects/Reinvent-master-3.2/result/LINK_invent/BTK/process_docking_weight1_custom_sum_contain_oxygen_bond_distance_aromatic_linkinvent_7_9_3/rearranged_h_0170.sdf

> <i_m_source_file_index>
78

> <r_mmod_Potential_Energy-OPLS-2005>
84.85205078125

> <r_mmod_Stretch_Energy-OPLS-2005>
79.4551086425781

> <r_mmod_Bend_Energy-OPLS-2005>
202.70735168457

> <r_mmod_Torsional_Energy-OPLS-2005>
358.043701171875

> <r_mmod_Improper_Torsional_Energy-OPLS-2005>
5.71556615829468

> <r_mmod_Van_der_Waal_Energy-OPLS-2005>
128.825897216797

> <r_mmod_Electrostatic_Energy-OPLS-2005>
-532.97265625

> <r_mmod_Solvation_Energy-OPLS-2005>
-202.713287353516

> <b_mmod_Minimization_Converged-OPLS-2005>
0

> <r_mmod_RMS_Derivative-OPLS-2005>
3.06651639938354

$$$$
79
                    3D
 Structure written by MMmdl.
170180  0  0  1  0            999 V2000
  -30.7023  -14.5022   20.5632 C   0  0  0  0  0  0
  -30.4313  -12.3268   19.4236 C   0  0  0  0  0  0
  -29.4969  -12.5003   18.2071 C   0  0  0  0  0  0
  -28.0173  -12.3644   18.6215 C   0  0  0  0  0  0
  -27.6621  -13.2061   19.8784 C   0  0  2  0  0  0
  -28.7096  -12.9731   20.9887 C   0  0  0  0  0  0
  -25.2590  -13.8169   20.5690 C   0  0  0  0  0  0
  -24.1839  -13.0452   20.9203 C   0  0  0  0  0  0
  -24.6396  -11.6916   20.8766 C   0  0  0  0  0  0
  -23.9071  -10.4305   21.0416 C   0  0  0  0  0  0
  -24.3619   -9.4222   21.9194 C   0  0  0  0  0  0
  -23.6292   -8.2258   22.0757 C   0  0  0  0  0  0
  -22.4269   -8.0301   21.3547 C   0  0  0  0  0  0
  -21.9914   -9.0271   20.4645 C   0  0  0  0  0  0
  -22.7248  -10.2147   20.3064 C   0  0  0  0  0  0
  -21.6856   -6.0751   22.5287 C   0  0  0  0  0  0
  -21.4012   -6.5645   23.8227 C   0  0  0  0  0  0
  -21.3654   -5.6794   24.9185 C   0  0  0  0  0  0
  -21.6051   -4.3062   24.7226 C   0  0  0  0  0  0
  -21.8825   -3.8158   23.4347 C   0  0  0  0  0  0
  -21.9184   -4.6980   22.3402 C   0  0  0  0  0  0
  -22.7860  -13.5246   21.1843 C   0  0  0  0  0  0
  -22.1638   -4.2169   21.0974 F   0  0  0  0  0  0
  -21.5647   -3.4538   25.7739 F   0  0  0  0  0  0
  -30.0290  -13.3195   20.4365 N   0  0  0  0  0  0
  -26.3033  -12.9332   20.3408 N   0  0  0  0  0  0
  -25.9317  -11.6495   20.5800 N   0  0  0  0  0  0
  -22.0480  -12.8231   22.0390 N   0  0  0  0  0  0
  -25.4336  -15.1881   20.4049 N   0  0  0  0  0  0
  -31.8443  -14.6406   20.1121 O   0  0  0  0  0  0
  -21.6637   -6.8892   21.4250 O   0  0  0  0  0  0
  -22.3536  -14.5547   20.6688 O   0  0  0  0  0  0
  -24.6155  -31.8685   23.2129 C   0  0  0  0  0  0
  -25.9058  -32.4819   23.8404 C   0  0  1  0  0  0
  -27.2197  -27.4157   20.0797 C   0  0  0  0  0  0
  -25.5927  -33.8620   24.2333 N   0  0  0  0  0  0
  -23.4029  -30.4953   21.5556 C   0  0  2  0  0  0
  -24.8446  -28.9704   20.1101 C   0  0  0  0  0  0
  -22.7412  -29.4656   22.5007 C   0  0  0  0  0  0
  -18.0271  -28.1360   22.8495 C   0  0  0  0  0  0
  -24.1492  -36.7308   23.2639 C   0  0  0  0  0  0
  -25.9371  -30.8215   21.3782 C   0  0  0  0  0  0
  -26.0082  -29.4604   20.7147 C   0  0  0  0  0  0
  -27.1971  -28.6888   20.7021 C   0  0  0  0  0  0
  -26.0329  -26.9626   19.4493 C   0  0  0  0  0  0
  -24.8533  -27.7217   19.4739 C   0  0  0  0  0  0
  -23.6088  -29.8380   20.1675 C   0  0  0  0  0  0
  -25.4118  -36.3108   24.0335 C   0  0  1  0  0  0
  -20.5860  -28.3648   23.1319 C   0  0  2  0  0  0
  -20.6764  -26.9387   22.5409 C   0  0  0  0  0  0
  -19.5741  -26.6369   21.5209 C   0  0  0  0  0  0
  -18.1917  -26.7910   22.1619 C   0  0  0  0  0  0
  -19.1524  -28.8827   23.2894 C   0  0  0  0  0  0
  -18.9450  -30.1437   23.8892 C   0  0  0  0  0  0
  -17.6456  -30.6576   24.0559 C   0  0  0  0  0  0
  -25.9047  -34.9478   23.5129 C   0  0  0  0  0  0
  -16.5343  -29.9072   23.6337 C   0  0  0  0  0  0
  -16.7260  -28.6482   23.0363 C   0  0  0  0  0  0
  -26.4484  -31.6599   25.0733 C   0  0  0  0  0  0
  -25.3745  -31.3702   26.1480 C   0  0  0  0  0  0
  -27.0332  -30.3038   24.6138 C   0  0  0  0  0  0
  -27.6045  -32.4325   25.7499 C   0  0  0  0  0  0
  -27.5585  -37.1811   24.8466 C   0  0  0  0  0  0
  -21.4145  -29.3018   22.3733 N   0  0  0  0  0  0
  -26.4306  -37.3793   23.9401 N   0  0  0  0  0  0
  -24.6700  -31.0756   22.1060 N   0  0  0  0  0  0
  -23.4177  -28.8201   23.3058 O   0  0  0  0  0  0
  -28.3739  -26.6432   20.1082 O   0  0  0  0  0  0
  -26.5590  -34.8921   22.4680 O   0  0  0  0  0  0
  -23.5344  -32.1467   23.7510 O   0  0  0  0  0  0
  -29.0984  -20.5256   20.5755 C   0  0  0  0  0  0
  -29.9504  -19.4587   20.9707 C   0  0  0  0  0  0
  -29.6960  -21.8034   20.4940 C   0  0  0  0  0  0
  -31.6761  -20.9509   21.2282 C   0  0  0  0  0  0
  -26.5318  -21.1723   20.7864 C   0  0  0  0  0  0
  -26.6612  -19.7404   21.2316 C   0  0  0  0  0  0
  -29.5675  -17.3687   22.4573 C   0  0  0  0  0  0
  -29.3847  -15.8733   22.1757 C   0  0  0  0  0  0
  -27.6447  -20.3051   20.2252 C   0  0  0  0  0  0
  -29.4811  -17.9845   21.0699 C   0  0  2  0  0  0
  -30.1966  -16.9295   20.1934 C   0  0  2  0  0  0
  -33.1184  -21.1983   21.6165 C   0  0  0  0  0  0
  -29.7056  -16.9421   18.7316 C   0  0  0  0  0  0
  -29.3564  -24.3009   20.2358 C   0  0  0  0  0  0
  -28.2005  -25.2410   19.8187 C   0  0  0  0  0  0
  -31.2350  -19.6994   21.3051 N   0  0  0  0  0  0
  -30.9763  -22.0077   20.8298 N   0  0  0  0  0  0
  -29.9552  -15.6115   20.8446 N   0  0  0  0  0  0
  -28.9753  -22.9017   20.0067 N   0  0  0  0  0  0
  -31.4717  -12.4363   19.1140 H   0  0  0  0  0  0
  -30.3518  -11.3181   19.8324 H   0  0  0  0  0  0
  -29.7370  -11.7620   17.4406 H   0  0  0  0  0  0
  -29.6631  -13.4777   17.7509 H   0  0  0  0  0  0
  -27.8277  -11.3085   18.8210 H   0  0  0  0  0  0
  -27.3654  -12.6332   17.7894 H   0  0  0  0  0  0
  -27.7060  -14.2561   19.5880 H   0  0  0  0  0  0
  -28.7018  -11.9242   21.2893 H   0  0  0  0  0  0
  -28.4616  -13.5148   21.8966 H   0  0  0  0  0  0
  -25.2761   -9.5705   22.4773 H   0  0  0  0  0  0
  -24.0020   -7.4643   22.7447 H   0  0  0  0  0  0
  -21.0869   -8.8789   19.8910 H   0  0  0  0  0  0
  -22.3723  -10.9690   19.6175 H   0  0  0  0  0  0
  -21.1991   -7.6149   23.9742 H   0  0  0  0  0  0
  -21.1470   -6.0514   25.9093 H   0  0  0  0  0  0
  -22.0600   -2.7619   23.2845 H   0  0  0  0  0  0
  -22.4059  -11.9865   22.4768 H   0  0  0  0  0  0
  -21.1103  -13.1286   22.2576 H   0  0  0  0  0  0
  -24.6725  -15.8505   20.5109 H   0  0  0  0  0  0
  -26.2923  -15.6175   20.0868 H   0  0  0  0  0  0
  -26.7115  -32.5517   23.1142 H   0  0  0  0  0  0
  -25.0125  -33.9788   25.0515 H   0  0  0  0  0  0
  -22.6926  -31.3143   21.4229 H   0  0  0  0  0  0
  -23.3766  -35.9628   23.3299 H   0  0  0  0  0  0
  -24.3588  -36.8927   22.2054 H   0  0  0  0  0  0
  -23.7232  -37.6502   23.6662 H   0  0  0  0  0  0
  -26.0670  -31.5931   20.6185 H   0  0  0  0  0  0
  -26.8185  -30.8580   22.0066 H   0  0  0  0  0  0
  -28.0903  -29.0581   21.1861 H   0  0  0  0  0  0
  -25.9837  -26.0213   18.9225 H   0  0  0  0  0  0
  -23.9621  -27.3476   18.9882 H   0  0  0  0  0  0
  -23.7165  -30.6177   19.4128 H   0  0  0  0  0  0
  -22.7312  -29.2601   19.8705 H   0  0  0  0  0  0
  -25.1299  -36.1979   25.0826 H   0  0  0  0  0  0
  -20.9936  -28.3196   24.1449 H   0  0  0  0  0  0
  -20.5695  -26.2242   23.3587 H   0  0  0  0  0  0
  -21.6631  -26.7443   22.1190 H   0  0  0  0  0  0
  -19.6906  -25.6286   21.1228 H   0  0  0  0  0  0
  -19.6688  -27.3194   20.6751 H   0  0  0  0  0  0
  -17.4194  -26.6678   21.4003 H   0  0  0  0  0  0
  -18.0302  -26.0035   22.8994 H   0  0  0  0  0  0
  -19.7932  -30.7252   24.2247 H   0  0  0  0  0  0
  -17.5018  -31.6263   24.5149 H   0  0  0  0  0  0
  -15.5352  -30.2973   23.7672 H   0  0  0  0  0  0
  -15.8656  -28.0808   22.7086 H   0  0  0  0  0  0
  -24.5890  -30.7090   25.7799 H   0  0  0  0  0  0
  -24.8980  -32.2863   26.4973 H   0  0  0  0  0  0
  -25.8094  -30.8813   27.0206 H   0  0  0  0  0  0
  -26.2881  -29.6770   24.1217 H   0  0  0  0  0  0
  -27.4124  -29.7301   25.4602 H   0  0  0  0  0  0
  -27.8709  -30.4353   23.9286 H   0  0  0  0  0  0
  -27.2655  -33.3619   26.2085 H   0  0  0  0  0  0
  -28.3850  -32.6896   25.0325 H   0  0  0  0  0  0
  -28.0717  -31.8447   26.5407 H   0  0  0  0  0  0
  -28.2606  -38.0106   24.7519 H   0  0  0  0  0  0
  -28.1080  -36.2639   24.6300 H   0  0  0  0  0  0
  -27.2292  -37.1464   25.8865 H   0  0  0  0  0  0
  -20.9313  -29.8731   21.6949 H   0  0  0  0  0  0
  -26.0198  -38.2869   24.1397 H   0  0  0  0  0  0
  -26.7767  -21.9326   21.5266 H   0  0  0  0  0  0
  -25.6897  -21.4069   20.1370 H   0  0  0  0  0  0
  -25.9112  -19.0373   20.8712 H   0  0  0  0  0  0
  -27.0040  -19.5700   22.2509 H   0  0  0  0  0  0
  -30.5555  -17.5433   22.8867 H   0  0  0  0  0  0
  -28.8277  -17.7732   23.1487 H   0  0  0  0  0  0
  -28.3150  -15.6576   22.1434 H   0  0  0  0  0  0
  -29.8293  -15.2575   22.9592 H   0  0  0  0  0  0
  -27.5503  -19.9778   19.1912 H   0  0  0  0  0  0
  -28.4324  -17.9332   20.7872 H   0  0  0  0  0  0
  -31.2686  -17.1367   20.2146 H   0  0  0  0  0  0
  -33.5807  -20.3011   22.0262 H   0  0  0  0  0  0
  -33.1866  -21.9829   22.3699 H   0  0  0  0  0  0
  -33.6985  -21.5079   20.7471 H   0  0  0  0  0  0
  -28.6539  -16.6624   18.6590 H   0  0  0  0  0  0
  -30.2780  -16.2543   18.1066 H   0  0  0  0  0  0
  -29.8104  -17.9376   18.2980 H   0  0  0  0  0  0
  -29.5982  -24.4428   21.2897 H   0  0  0  0  0  0
  -30.2546  -24.5336   19.6636 H   0  0  0  0  0  0
  -27.3050  -24.8797   20.3302 H   0  0  0  0  0  0
  -28.0295  -25.1266   18.7464 H   0  0  0  0  0  0
  -28.0017  -22.7210   19.7930 H   0  0  0  0  0  0
  1 25  1  0  0  0
  1 30  2  0  0  0
  1 88  1  0  0  0
  2  3  1  0  0  0
  2 25  1  0  0  0
  2 90  1  0  0  0
  2 91  1  0  0  0
  3  4  1  0  0  0
  3 92  1  0  0  0
  3 93  1  0  0  0
  4  5  1  0  0  0
  4 94  1  0  0  0
  4 95  1  0  0  0
  5  6  1  0  0  0
  5 26  1  0  0  0
  5 96  1  0  0  0
  6 25  1  0  0  0
  6 97  1  0  0  0
  6 98  1  0  0  0
  7  8  2  0  0  0
  7 26  1  0  0  0
  7 29  1  0  0  0
  8  9  1  0  0  0
  8 22  1  0  0  0
  9 10  1  0  0  0
  9 27  2  0  0  0
 10 11  2  0  0  0
 10 15  1  0  0  0
 11 12  1  0  0  0
 11 99  1  0  0  0
 12 13  2  0  0  0
 12100  1  0  0  0
 13 14  1  0  0  0
 13 31  1  0  0  0
 14 15  2  0  0  0
 14101  1  0  0  0
 15102  1  0  0  0
 16 17  2  0  0  0
 16 21  1  0  0  0
 16 31  1  0  0  0
 17 18  1  0  0  0
 17103  1  0  0  0
 18 19  2  0  0  0
 18104  1  0  0  0
 19 20  1  0  0  0
 19 24  1  0  0  0
 20 21  2  0  0  0
 20105  1  0  0  0
 21 23  1  0  0  0
 22 28  1  0  0  0
 22 32  2  0  0  0
 26 27  1  0  0  0
 28106  1  0  0  0
 28107  1  0  0  0
 29108  1  0  0  0
 29109  1  0  0  0
 33 34  1  0  0  0
 33 66  1  0  0  0
 33 70  2  0  0  0
 34 36  1  0  0  0
 34 59  1  0  0  0
 34110  1  0  0  0
 35 44  2  0  0  0
 35 45  1  0  0  0
 35 68  1  0  0  0
 36 56  1  0  0  0
 36111  1  0  0  0
 37 39  1  0  0  0
 37 47  1  0  0  0
 37 66  1  0  0  0
 37112  1  0  0  0
 38 43  2  0  0  0
 38 46  1  0  0  0
 38 47  1  0  0  0
 39 64  1  0  0  0
 39 67  2  0  0  0
 40 52  1  0  0  0
 40 53  2  0  0  0
 40 58  1  0  0  0
 41113  1  0  0  0
 41114  1  0  0  0
 41115  1  0  0  0
 41 48  1  0  0  0
 42 43  1  0  0  0
 42 66  1  0  0  0
 42116  1  0  0  0
 42117  1  0  0  0
 43 44  1  0  0  0
 44118  1  0  0  0
 45 46  2  0  0  0
 45119  1  0  0  0
 46120  1  0  0  0
 47121  1  0  0  0
 47122  1  0  0  0
 48 56  1  0  0  0
 48 65  1  0  0  0
 48123  1  0  0  0
 49 50  1  0  0  0
 49 53  1  0  0  0
 49 64  1  0  0  0
 49124  1  0  0  0
 50 51  1  0  0  0
 50125  1  0  0  0
 50126  1  0  0  0
 51 52  1  0  0  0
 51127  1  0  0  0
 51128  1  0  0  0
 52129  1  0  0  0
 52130  1  0  0  0
 53 54  1  0  0  0
 54 55  2  0  0  0
 54131  1  0  0  0
 55 57  1  0  0  0
 55132  1  0  0  0
 56 69  2  0  0  0
 57 58  2  0  0  0
 57133  1  0  0  0
 58134  1  0  0  0
 59 60  1  0  0  0
 59 61  1  0  0  0
 59 62  1  0  0  0
 60135  1  0  0  0
 60136  1  0  0  0
 60137  1  0  0  0
 61138  1  0  0  0
 61139  1  0  0  0
 61140  1  0  0  0
 62141  1  0  0  0
 62142  1  0  0  0
 62143  1  0  0  0
 63 65  1  0  0  0
 63144  1  0  0  0
 63145  1  0  0  0
 63146  1  0  0  0
 64147  1  0  0  0
 65148  1  0  0  0
 68 85  1  0  0  0
 71 72  2  0  0  0
 71 73  1  0  0  0
 71 79  1  0  0  0
 72 86  1  0  0  0
 72 80  1  0  0  0
 73 87  2  0  0  0
 73 89  1  0  0  0
 74 82  1  0  0  0
 74 86  2  0  0  0
 74 87  1  0  0  0
 75 76  1  0  0  0
 75 79  1  0  0  0
 75149  1  0  0  0
 75150  1  0  0  0
 76 79  1  0  0  0
 76151  1  0  0  0
 76152  1  0  0  0
 77 78  1  0  0  0
 77 80  1  0  0  0
 77153  1  0  0  0
 77154  1  0  0  0
 78 88  1  0  0  0
 78155  1  0  0  0
 78156  1  0  0  0
 79157  1  0  0  0
 80 81  1  0  0  0
 80158  1  0  0  0
 81 83  1  0  0  0
 81 88  1  0  0  0
 81159  1  0  0  0
 82160  1  0  0  0
 82161  1  0  0  0
 82162  1  0  0  0
 83163  1  0  0  0
 83164  1  0  0  0
 83165  1  0  0  0
 84 85  1  0  0  0
 84 89  1  0  0  0
 84166  1  0  0  0
 84167  1  0  0  0
 85168  1  0  0  0
 85169  1  0  0  0
 89170  1  0  0  0
M  ISO  4   1 100  68 101  85 101  88 100
M  END
> <chiral flag>
0

> <version>
0

> <s_m_source_file>
/data/baiqing/PycharmProjects/Reinvent-master-3.2/result/LINK_invent/BTK/process_docking_weight1_custom_sum_contain_oxygen_bond_distance_aromatic_linkinvent_7_9_3/rearranged_h_0170.sdf

> <i_m_source_file_index>
79

> <r_mmod_Potential_Energy-OPLS-2005>
-242.974624633789

> <r_mmod_Stretch_Energy-OPLS-2005>
44.3807411193848

> <r_mmod_Bend_Energy-OPLS-2005>
143.728164672852

> <r_mmod_Torsional_Energy-OPLS-2005>
321.515411376953

> <r_mmod_Improper_Torsional_Energy-OPLS-2005>
13.9737386703491

> <r_mmod_Van_der_Waal_Energy-OPLS-2005>
160.720886230469

> <r_mmod_Electrostatic_Energy-OPLS-2005>
-718.773803710938

> <r_mmod_Solvation_Energy-OPLS-2005>
-226.153457641602

> <b_mmod_Minimization_Converged-OPLS-2005>
0

> <r_mmod_RMS_Derivative-OPLS-2005>
2.11604142189026

$$$$
80
                    3D
 Structure written by MMmdl.
165175  0  0  1  0            999 V2000
  -30.6044  -14.7041   20.4682 C   0  0  0  0  0  0
  -30.4351  -12.4261   19.4744 C   0  0  0  0  0  0
  -29.5128  -12.5076   18.2369 C   0  0  0  0  0  0
  -28.0360  -12.3376   18.6445 C   0  0  0  0  0  0
  -27.6469  -13.2246   19.8572 C   0  0  2  0  0  0
  -28.6887  -13.1262   20.9942 C   0  0  0  0  0  0
  -25.2528  -13.8182   20.5684 C   0  0  0  0  0  0
  -24.1810  -13.0437   20.9198 C   0  0  0  0  0  0
  -24.6393  -11.6912   20.8740 C   0  0  0  0  0  0
  -23.9065  -10.4291   21.0404 C   0  0  0  0  0  0
  -24.3618   -9.4207   21.9180 C   0  0  0  0  0  0
  -23.6294   -8.2242   22.0753 C   0  0  0  0  0  0
  -22.4276   -8.0278   21.3544 C   0  0  0  0  0  0
  -21.9909   -9.0252   20.4647 C   0  0  0  0  0  0
  -22.7236  -10.2131   20.3054 C   0  0  0  0  0  0
  -21.6851   -6.0735   22.5280 C   0  0  0  0  0  0
  -21.4013   -6.5638   23.8212 C   0  0  0  0  0  0
  -21.3659   -5.6792   24.9175 C   0  0  0  0  0  0
  -21.6044   -4.3056   24.7227 C   0  0  0  0  0  0
  -21.8818   -3.8147   23.4346 C   0  0  0  0  0  0
  -21.9194   -4.6962   22.3403 C   0  0  0  0  0  0
  -22.7834  -13.5226   21.1860 C   0  0  0  0  0  0
  -22.1661   -4.2147   21.0980 F   0  0  0  0  0  0
  -21.5628   -3.4541   25.7738 F   0  0  0  0  0  0
  -29.9985  -13.4711   20.4267 N   0  0  0  0  0  0
  -26.2952  -12.9378   20.3284 N   0  0  0  0  0  0
  -25.9320  -11.6526   20.5744 N   0  0  0  0  0  0
  -22.0475  -12.8221   22.0417 N   0  0  0  0  0  0
  -25.4228  -15.1903   20.4087 N   0  0  0  0  0  0
  -31.7776  -14.8360   20.1075 O   0  0  0  0  0  0
  -21.6638   -6.8878   21.4240 O   0  0  0  0  0  0
  -22.3523  -14.5531   20.6701 O   0  0  0  0  0  0
  -24.6289  -31.8560   23.1989 C   0  0  0  0  0  0
  -25.9124  -32.4755   23.8328 C   0  0  1  0  0  0
  -27.2226  -27.2835   20.1317 C   0  0  0  0  0  0
  -25.5929  -33.8557   24.2255 N   0  0  0  0  0  0
  -23.4244  -30.4784   21.5410 C   0  0  2  0  0  0
  -24.8717  -28.9265   20.1088 C   0  0  0  0  0  0
  -22.7489  -29.4603   22.4914 C   0  0  0  0  0  0
  -18.0288  -28.1386   22.8482 C   0  0  0  0  0  0
  -24.1490  -36.7285   23.2642 C   0  0  0  0  0  0
  -25.9670  -30.7771   21.3742 C   0  0  0  0  0  0
  -26.0399  -29.4008   20.7177 C   0  0  0  0  0  0
  -27.2169  -28.5910   20.7178 C   0  0  0  0  0  0
  -26.0346  -26.8719   19.4869 C   0  0  0  0  0  0
  -24.8732  -27.6700   19.4820 C   0  0  0  0  0  0
  -23.6409  -29.8105   20.1569 C   0  0  0  0  0  0
  -25.4116  -36.3071   24.0327 C   0  0  1  0  0  0
  -20.5891  -28.3694   23.1275 C   0  0  2  0  0  0
  -20.6774  -26.9415   22.5412 C   0  0  0  0  0  0
  -19.5751  -26.6385   21.5212 C   0  0  0  0  0  0
  -18.1930  -26.7927   22.1623 C   0  0  0  0  0  0
  -19.1540  -28.8857   23.2873 C   0  0  0  0  0  0
  -18.9464  -30.1458   23.8889 C   0  0  0  0  0  0
  -17.6464  -30.6587   24.0561 C   0  0  0  0  0  0
  -25.9054  -34.9439   23.5093 C   0  0  0  0  0  0
  -16.5354  -29.9085   23.6330 C   0  0  0  0  0  0
  -16.7275  -28.6503   23.0349 C   0  0  0  0  0  0
  -26.4499  -31.6577   25.0712 C   0  0  0  0  0  0
  -25.3729  -31.3728   26.1439 C   0  0  0  0  0  0
  -27.0346  -30.2995   24.6190 C   0  0  0  0  0  0
  -27.6053  -32.4320   25.7484 C   0  0  0  0  0  0
  -27.5576  -37.1799   24.8465 C   0  0  0  0  0  0
  -21.4200  -29.3041   22.3662 N   0  0  0  0  0  0
  -26.4289  -37.3771   23.9406 N   0  0  0  0  0  0
  -24.6921  -31.0552   22.0947 N   0  0  0  0  0  0
  -23.4199  -28.8154   23.3010 O   0  0  0  0  0  0
  -28.3358  -26.4236   20.2081 O   0  0  0  0  0  0
  -26.5626  -34.8914   22.4662 O   0  0  0  0  0  0
  -23.5446  -32.1367   23.7303 O   0  0  0  0  0  0
  -30.3765  -20.5666   19.5554 C   0  0  0  0  0  0
  -29.4179  -20.0709   20.3878 C   0  0  0  0  0  0
  -28.7230  -21.2415   20.9178 C   0  0  0  0  0  0
  -29.3307  -22.4190   20.4509 C   0  0  0  0  0  0
  -31.1632  -24.2855   19.1338 C   0  0  0  0  0  0
  -30.6461  -24.5787   20.5486 C   0  0  0  0  0  0
  -28.8510  -17.7181   19.3907 C   0  0  0  0  0  0
  -31.2955  -22.7801   18.8584 C   0  0  0  0  0  0
  -29.1391  -18.5202   20.6246 C   0  0  1  0  0  0
  -30.0034  -17.2201   20.2374 C   0  0  1  0  0  0
  -29.2399  -23.9780   20.7861 C   0  0  2  0  0  0
  -27.5477  -21.1797   21.8603 C   0  0  0  0  0  0
  -28.9333  -24.1541   22.2866 C   0  0  0  0  0  0
  -28.1923  -24.9410   20.0206 C   0  0  0  0  0  0
  -30.3374  -21.9581   19.5889 N   0  0  0  0  0  0
  -29.7927  -15.8037   20.6691 N   0  0  0  0  0  0
  -31.4774  -12.5488   19.1753 H   0  0  0  0  0  0
  -30.3731  -11.4405   19.9388 H   0  0  0  0  0  0
  -29.7905  -11.7449   17.5083 H   0  0  0  0  0  0
  -29.6471  -13.4694   17.7388 H   0  0  0  0  0  0
  -27.8836  -11.2868   18.8939 H   0  0  0  0  0  0
  -27.3822  -12.5463   17.7967 H   0  0  0  0  0  0
  -27.6515  -14.2513   19.4908 H   0  0  0  0  0  0
  -28.7101  -12.1193   21.4137 H   0  0  0  0  0  0
  -28.4278  -13.7923   21.8181 H   0  0  0  0  0  0
  -25.2760   -9.5688   22.4758 H   0  0  0  0  0  0
  -24.0006   -7.4635   22.7473 H   0  0  0  0  0  0
  -21.0838   -8.8771   19.8954 H   0  0  0  0  0  0
  -22.3692  -10.9671   19.6167 H   0  0  0  0  0  0
  -21.2005   -7.6146   23.9715 H   0  0  0  0  0  0
  -21.1482   -6.0522   25.9078 H   0  0  0  0  0  0
  -22.0600   -2.7610   23.2844 H   0  0  0  0  0  0
  -22.4090  -11.9881   22.4805 H   0  0  0  0  0  0
  -21.1095  -13.1252   22.2628 H   0  0  0  0  0  0
  -24.6510  -15.8409   20.5085 H   0  0  0  0  0  0
  -26.2628  -15.6266   20.0527 H   0  0  0  0  0  0
  -26.7188  -32.5411   23.1069 H   0  0  0  0  0  0
  -25.0078  -33.9692   25.0402 H   0  0  0  0  0  0
  -22.7198  -31.2999   21.3956 H   0  0  0  0  0  0
  -23.3748  -35.9622   23.3308 H   0  0  0  0  0  0
  -24.3584  -36.8904   22.2056 H   0  0  0  0  0  0
  -23.7248  -37.6490   23.6661 H   0  0  0  0  0  0
  -26.1029  -31.5385   20.6048 H   0  0  0  0  0  0
  -26.8458  -30.8261   22.0059 H   0  0  0  0  0  0
  -28.1111  -28.9486   21.2088 H   0  0  0  0  0  0
  -25.9793  -25.9139   18.9917 H   0  0  0  0  0  0
  -23.9794  -27.3035   18.9960 H   0  0  0  0  0  0
  -23.7630  -30.5855   19.3991 H   0  0  0  0  0  0
  -22.7599  -29.2418   19.8543 H   0  0  0  0  0  0
  -25.1301  -36.1917   25.0820 H   0  0  0  0  0  0
  -20.9980  -28.3269   24.1397 H   0  0  0  0  0  0
  -20.5673  -26.2304   23.3616 H   0  0  0  0  0  0
  -21.6644  -26.7438   22.1210 H   0  0  0  0  0  0
  -19.6914  -25.6296   21.1245 H   0  0  0  0  0  0
  -19.6688  -27.3191   20.6738 H   0  0  0  0  0  0
  -17.4203  -26.6674   21.4023 H   0  0  0  0  0  0
  -18.0327  -26.0072   22.9023 H   0  0  0  0  0  0
  -19.7941  -30.7274   24.2252 H   0  0  0  0  0  0
  -17.5020  -31.6265   24.5170 H   0  0  0  0  0  0
  -15.5355  -30.2986   23.7660 H   0  0  0  0  0  0
  -15.8675  -28.0826   22.7062 H   0  0  0  0  0  0
  -24.5900  -30.7081   25.7771 H   0  0  0  0  0  0
  -24.8925  -32.2900   26.4854 H   0  0  0  0  0  0
  -25.8053  -30.8913   27.0218 H   0  0  0  0  0  0
  -26.2925  -29.6739   24.1215 H   0  0  0  0  0  0
  -27.4034  -29.7262   25.4705 H   0  0  0  0  0  0
  -27.8800  -30.4272   23.9425 H   0  0  0  0  0  0
  -27.2656  -33.3622   26.2051 H   0  0  0  0  0  0
  -28.3868  -32.6877   25.0317 H   0  0  0  0  0  0
  -28.0715  -31.8451   26.5409 H   0  0  0  0  0  0
  -28.2601  -38.0090   24.7502 H   0  0  0  0  0  0
  -28.1066  -36.2619   24.6302 H   0  0  0  0  0  0
  -27.2294  -37.1466   25.8870 H   0  0  0  0  0  0
  -20.9381  -29.8761   21.6870 H   0  0  0  0  0  0
  -26.0167  -38.2846   24.1398 H   0  0  0  0  0  0
  -31.1098  -20.0533   18.9462 H   0  0  0  0  0  0
  -32.1281  -24.7687   18.9793 H   0  0  0  0  0  0
  -30.4916  -24.7286   18.3990 H   0  0  0  0  0  0
  -30.6539  -25.6532   20.7324 H   0  0  0  0  0  0
  -31.3524  -24.1554   21.2646 H   0  0  0  0  0  0
  -29.1086  -18.1557   18.4281 H   0  0  0  0  0  0
  -27.9188  -17.1568   19.3913 H   0  0  0  0  0  0
  -32.2936  -22.4511   19.1507 H   0  0  0  0  0  0
  -31.2010  -22.5768   17.7908 H   0  0  0  0  0  0
  -28.4635  -18.3988   21.4690 H   0  0  0  0  0  0
  -31.0055  -17.4460   19.8762 H   0  0  0  0  0  0
  -27.0259  -20.2266   21.7781 H   0  0  0  0  0  0
  -26.8285  -21.9660   21.6300 H   0  0  0  0  0  0
  -27.8783  -21.3010   22.8921 H   0  0  0  0  0  0
  -29.6341  -23.5949   22.9073 H   0  0  0  0  0  0
  -27.9288  -23.8178   22.5378 H   0  0  0  0  0  0
  -28.9960  -25.2013   22.5845 H   0  0  0  0  0  0
  -27.1943  -24.6268   20.3279 H   0  0  0  0  0  0
  -28.2436  -24.7464   18.9495 H   0  0  0  0  0  0
  -28.8633  -15.5817   20.9917 H   0  0  0  0  0  0
  1 25  1  0  0  0
  1 30  2  0  0  0
  1 86  1  0  0  0
  2  3  1  0  0  0
  2 25  1  0  0  0
  2 87  1  0  0  0
  2 88  1  0  0  0
  3  4  1  0  0  0
  3 89  1  0  0  0
  3 90  1  0  0  0
  4  5  1  0  0  0
  4 91  1  0  0  0
  4 92  1  0  0  0
  5  6  1  0  0  0
  5 26  1  0  0  0
  5 93  1  0  0  0
  6 25  1  0  0  0
  6 94  1  0  0  0
  6 95  1  0  0  0
  7  8  2  0  0  0
  7 26  1  0  0  0
  7 29  1  0  0  0
  8  9  1  0  0  0
  8 22  1  0  0  0
  9 10  1  0  0  0
  9 27  2  0  0  0
 10 11  2  0  0  0
 10 15  1  0  0  0
 11 12  1  0  0  0
 11 96  1  0  0  0
 12 13  2  0  0  0
 12 97  1  0  0  0
 13 14  1  0  0  0
 13 31  1  0  0  0
 14 15  2  0  0  0
 14 98  1  0  0  0
 15 99  1  0  0  0
 16 17  2  0  0  0
 16 21  1  0  0  0
 16 31  1  0  0  0
 17 18  1  0  0  0
 17100  1  0  0  0
 18 19  2  0  0  0
 18101  1  0  0  0
 19 20  1  0  0  0
 19 24  1  0  0  0
 20 21  2  0  0  0
 20102  1  0  0  0
 21 23  1  0  0  0
 22 28  1  0  0  0
 22 32  2  0  0  0
 26 27  1  0  0  0
 28103  1  0  0  0
 28104  1  0  0  0
 29105  1  0  0  0
 29106  1  0  0  0
 33 34  1  0  0  0
 33 66  1  0  0  0
 33 70  2  0  0  0
 34 36  1  0  0  0
 34 59  1  0  0  0
 34107  1  0  0  0
 35 44  2  0  0  0
 35 45  1  0  0  0
 35 68  1  0  0  0
 36 56  1  0  0  0
 36108  1  0  0  0
 37 39  1  0  0  0
 37 47  1  0  0  0
 37 66  1  0  0  0
 37109  1  0  0  0
 38 43  2  0  0  0
 38 46  1  0  0  0
 38 47  1  0  0  0
 39 64  1  0  0  0
 39 67  2  0  0  0
 40 52  1  0  0  0
 40 53  2  0  0  0
 40 58  1  0  0  0
 41110  1  0  0  0
 41111  1  0  0  0
 41112  1  0  0  0
 41 48  1  0  0  0
 42 43  1  0  0  0
 42 66  1  0  0  0
 42113  1  0  0  0
 42114  1  0  0  0
 43 44  1  0  0  0
 44115  1  0  0  0
 45 46  2  0  0  0
 45116  1  0  0  0
 46117  1  0  0  0
 47118  1  0  0  0
 47119  1  0  0  0
 48 56  1  0  0  0
 48 65  1  0  0  0
 48120  1  0  0  0
 49 50  1  0  0  0
 49 53  1  0  0  0
 49 64  1  0  0  0
 49121  1  0  0  0
 50 51  1  0  0  0
 50122  1  0  0  0
 50123  1  0  0  0
 51 52  1  0  0  0
 51124  1  0  0  0
 51125  1  0  0  0
 52126  1  0  0  0
 52127  1  0  0  0
 53 54  1  0  0  0
 54 55  2  0  0  0
 54128  1  0  0  0
 55 57  1  0  0  0
 55129  1  0  0  0
 56 69  2  0  0  0
 57 58  2  0  0  0
 57130  1  0  0  0
 58131  1  0  0  0
 59 60  1  0  0  0
 59 61  1  0  0  0
 59 62  1  0  0  0
 60132  1  0  0  0
 60133  1  0  0  0
 60134  1  0  0  0
 61135  1  0  0  0
 61136  1  0  0  0
 61137  1  0  0  0
 62138  1  0  0  0
 62139  1  0  0  0
 62140  1  0  0  0
 63 65  1  0  0  0
 63141  1  0  0  0
 63142  1  0  0  0
 63143  1  0  0  0
 64144  1  0  0  0
 65145  1  0  0  0
 68 84  1  0  0  0
 71 72  2  0  0  0
 71 85  1  0  0  0
 71146  1  0  0  0
 72 73  1  0  0  0
 72 79  1  0  0  0
 73 74  2  0  0  0
 73 82  1  0  0  0
 74 81  1  0  0  0
 74 85  1  0  0  0
 75 76  1  0  0  0
 75 78  1  0  0  0
 75147  1  0  0  0
 75148  1  0  0  0
 76 81  1  0  0  0
 76149  1  0  0  0
 76150  1  0  0  0
 77 79  1  0  0  0
 77 80  1  0  0  0
 77151  1  0  0  0
 77152  1  0  0  0
 78 85  1  0  0  0
 78153  1  0  0  0
 78154  1  0  0  0
 79 80  1  0  0  0
 79155  1  0  0  0
 80 86  1  0  0  0
 80156  1  0  0  0
 81 83  1  0  0  0
 81 84  1  0  0  0
 82157  1  0  0  0
 82158  1  0  0  0
 82159  1  0  0  0
 83160  1  0  0  0
 83161  1  0  0  0
 83162  1  0  0  0
 84163  1  0  0  0
 84164  1  0  0  0
 86165  1  0  0  0
M  ISO  4   1 100  68 101  84 101  86 100
M  END
> <chiral flag>
0

> <version>
0

> <s_m_source_file>
/data/baiqing/PycharmProjects/Reinvent-master-3.2/result/LINK_invent/BTK/process_docking_weight1_custom_sum_contain_oxygen_bond_distance_aromatic_linkinvent_7_9_3/rearranged_h_0170.sdf

> <i_m_source_file_index>
80

> <r_mmod_Potential_Energy-OPLS-2005>
171.641342163086

> <r_mmod_Stretch_Energy-OPLS-2005>
115.45051574707

> <r_mmod_Bend_Energy-OPLS-2005>
168.72314453125

> <r_mmod_Torsional_Energy-OPLS-2005>
294.088012695312

> <r_mmod_Improper_Torsional_Energy-OPLS-2005>
7.28624534606934

> <r_mmod_Van_der_Waal_Energy-OPLS-2005>
120.379264831543

> <r_mmod_Electrostatic_Energy-OPLS-2005>
-392.506866455078

> <r_mmod_Solvation_Energy-OPLS-2005>
-211.368194580078

> <b_mmod_Minimization_Converged-OPLS-2005>
0

> <r_mmod_RMS_Derivative-OPLS-2005>
0.709123432636261

$$$$
81
                    3D
 Structure written by MMmdl.
161170  0  0  1  0            999 V2000
  -30.6719  -14.8440   20.4245 C   0  0  0  0  0  0
  -30.3996  -12.5314   19.4824 C   0  0  0  0  0  0
  -29.4918  -12.5046   18.2375 C   0  0  0  0  0  0
  -28.0264  -12.3125   18.6614 C   0  0  0  0  0  0
  -27.6187  -13.2493   19.8296 C   0  0  2  0  0  0
  -28.6679  -13.2943   20.9623 C   0  0  0  0  0  0
  -25.2414  -13.8230   20.5728 C   0  0  0  0  0  0
  -24.1727  -13.0448   20.9232 C   0  0  0  0  0  0
  -24.6348  -11.6932   20.8762 C   0  0  0  0  0  0
  -23.9040  -10.4300   21.0405 C   0  0  0  0  0  0
  -24.3603   -9.4221   21.9183 C   0  0  0  0  0  0
  -23.6288   -8.2240   22.0752 C   0  0  0  0  0  0
  -22.4272   -8.0271   21.3533 C   0  0  0  0  0  0
  -21.9901   -9.0240   20.4641 C   0  0  0  0  0  0
  -22.7216  -10.2126   20.3052 C   0  0  0  0  0  0
  -21.6850   -6.0722   22.5277 C   0  0  0  0  0  0
  -21.4014   -6.5629   23.8208 C   0  0  0  0  0  0
  -21.3665   -5.6786   24.9172 C   0  0  0  0  0  0
  -21.6046   -4.3047   24.7220 C   0  0  0  0  0  0
  -21.8821   -3.8134   23.4340 C   0  0  0  0  0  0
  -21.9191   -4.6950   22.3396 C   0  0  0  0  0  0
  -22.7750  -13.5223   21.1879 C   0  0  0  0  0  0
  -22.1662   -4.2134   21.0974 F   0  0  0  0  0  0
  -21.5632   -3.4536   25.7733 F   0  0  0  0  0  0
  -29.9430  -13.6635   20.3406 N   0  0  0  0  0  0
  -26.2827  -12.9465   20.3259 N   0  0  0  0  0  0
  -25.9284  -11.6591   20.5762 N   0  0  0  0  0  0
  -22.0389  -12.8228   22.0434 N   0  0  0  0  0  0
  -25.4108  -15.1955   20.4176 N   0  0  0  0  0  0
  -31.8840  -14.7321   20.2110 O   0  0  0  0  0  0
  -21.6640   -6.8866   21.4233 O   0  0  0  0  0  0
  -22.3453  -14.5528   20.6718 O   0  0  0  0  0  0
  -24.6376  -31.8501   23.1948 C   0  0  0  0  0  0
  -25.9165  -32.4730   23.8312 C   0  0  1  0  0  0
  -27.1922  -27.1888   20.1346 C   0  0  0  0  0  0
  -25.5926  -33.8529   24.2226 N   0  0  0  0  0  0
  -23.4370  -30.4772   21.5397 C   0  0  2  0  0  0
  -24.8807  -28.9225   20.1051 C   0  0  0  0  0  0
  -22.7533  -29.4589   22.4868 C   0  0  0  0  0  0
  -18.0294  -28.1400   22.8490 C   0  0  0  0  0  0
  -24.1489  -36.7287   23.2643 C   0  0  0  0  0  0
  -25.9914  -30.7404   21.3881 C   0  0  0  0  0  0
  -26.0586  -29.3592   20.7263 C   0  0  0  0  0  0
  -27.2194  -28.5063   20.7292 C   0  0  0  0  0  0
  -25.9989  -26.8577   19.4539 C   0  0  0  0  0  0
  -24.8618  -27.6832   19.4542 C   0  0  0  0  0  0
  -23.6579  -29.8187   20.1545 C   0  0  0  0  0  0
  -25.4116  -36.3059   24.0327 C   0  0  1  0  0  0
  -20.5909  -28.3712   23.1244 C   0  0  2  0  0  0
  -20.6784  -26.9418   22.5395 C   0  0  0  0  0  0
  -19.5744  -26.6385   21.5215 C   0  0  0  0  0  0
  -18.1930  -26.7942   22.1633 C   0  0  0  0  0  0
  -19.1553  -28.8871   23.2865 C   0  0  0  0  0  0
  -18.9475  -30.1481   23.8875 C   0  0  0  0  0  0
  -17.6474  -30.6595   24.0566 C   0  0  0  0  0  0
  -25.9051  -34.9427   23.5081 C   0  0  0  0  0  0
  -16.5364  -29.9094   23.6350 C   0  0  0  0  0  0
  -16.7283  -28.6515   23.0366 C   0  0  0  0  0  0
  -26.4498  -31.6579   25.0735 C   0  0  0  0  0  0
  -25.3688  -31.3770   26.1444 C   0  0  0  0  0  0
  -27.0340  -30.2967   24.6283 C   0  0  0  0  0  0
  -27.6036  -32.4333   25.7514 C   0  0  0  0  0  0
  -27.5580  -37.1812   24.8465 C   0  0  0  0  0  0
  -21.4234  -29.3054   22.3627 N   0  0  0  0  0  0
  -26.4286  -37.3764   23.9409 N   0  0  0  0  0  0
  -24.7082  -31.0420   22.0956 N   0  0  0  0  0  0
  -23.4214  -28.8116   23.2971 O   0  0  0  0  0  0
  -28.2219  -26.1959   20.2219 O   0  0  0  0  0  0
  -26.5640  -34.8913   22.4660 O   0  0  0  0  0  0
  -23.5505  -32.1346   23.7210 O   0  0  0  0  0  0
  -29.9771  -21.6419   19.0638 C   0  0  0  0  0  0
  -29.5773  -23.1356   19.0338 C   0  0  0  0  0  0
  -28.4326  -18.2997   20.5693 C   0  0  0  0  0  0
  -30.7645  -18.8011   20.7203 C   0  0  0  0  0  0
  -28.7505  -16.7184   20.3497 C   0  0  0  0  0  0
  -31.1541  -17.2923   20.4315 C   0  0  0  0  0  0
  -28.3986  -21.8821   20.6726 C   0  0  0  0  0  0
  -28.8672  -23.4154   20.3626 C   0  0  2  0  0  0
  -29.4881  -19.3255   20.0190 C   0  0  0  0  0  0
  -27.0803  -24.6463   21.7460 C   0  0  0  0  0  0
  -27.8354  -24.7118   20.3991 C   0  0  1  0  0  0
  -29.3143  -20.8899   19.9758 N   0  0  0  0  0  0
  -30.1475  -16.1716   20.5314 N   0  0  0  0  0  0
  -30.8243  -21.2062   18.2796 O   0  0  0  0  0  0
  -31.4416  -12.6178   19.1701 H   0  0  0  0  0  0
  -30.3376  -11.5864   20.0250 H   0  0  0  0  0  0
  -29.7946  -11.7026   17.5632 H   0  0  0  0  0  0
  -29.5997  -13.4359   17.6789 H   0  0  0  0  0  0
  -27.9116  -11.2717   18.9656 H   0  0  0  0  0  0
  -27.3612  -12.4535   17.8081 H   0  0  0  0  0  0
  -27.5743  -14.2456   19.3907 H   0  0  0  0  0  0
  -28.7425  -12.3312   21.4694 H   0  0  0  0  0  0
  -28.3893  -14.0222   21.7241 H   0  0  0  0  0  0
  -25.2735   -9.5707   22.4774 H   0  0  0  0  0  0
  -23.9987   -7.4643   22.7488 H   0  0  0  0  0  0
  -21.0822   -8.8753   19.8962 H   0  0  0  0  0  0
  -22.3657  -10.9661   19.6167 H   0  0  0  0  0  0
  -21.2011   -7.6140   23.9707 H   0  0  0  0  0  0
  -21.1491   -6.0516   25.9079 H   0  0  0  0  0  0
  -22.0598   -2.7594   23.2837 H   0  0  0  0  0  0
  -22.3988  -11.9888   22.4826 H   0  0  0  0  0  0
  -21.1008  -13.1270   22.2632 H   0  0  0  0  0  0
  -24.6529  -15.8547   20.5570 H   0  0  0  0  0  0
  -26.2680  -15.6370   20.1127 H   0  0  0  0  0  0
  -26.7238  -32.5355   23.1053 H   0  0  0  0  0  0
  -25.0053  -33.9650   25.0360 H   0  0  0  0  0  0
  -22.7361  -31.3027   21.3956 H   0  0  0  0  0  0
  -23.3744  -35.9626   23.3297 H   0  0  0  0  0  0
  -24.3577  -36.8906   22.2054 H   0  0  0  0  0  0
  -23.7245  -37.6491   23.6667 H   0  0  0  0  0  0
  -26.1410  -31.4990   20.6188 H   0  0  0  0  0  0
  -26.8659  -30.7863   22.0258 H   0  0  0  0  0  0
  -28.1129  -28.8276   21.2468 H   0  0  0  0  0  0
  -25.9000  -25.9261   18.9198 H   0  0  0  0  0  0
  -23.9673  -27.3510   18.9451 H   0  0  0  0  0  0
  -23.7893  -30.5989   19.4029 H   0  0  0  0  0  0
  -22.7729  -29.2590   19.8466 H   0  0  0  0  0  0
  -25.1298  -36.1899   25.0819 H   0  0  0  0  0  0
  -21.0024  -28.3293   24.1356 H   0  0  0  0  0  0
  -20.5677  -26.2317   23.3605 H   0  0  0  0  0  0
  -21.6651  -26.7425   22.1184 H   0  0  0  0  0  0
  -19.6884  -25.6288   21.1253 H   0  0  0  0  0  0
  -19.6680  -27.3197   20.6745 H   0  0  0  0  0  0
  -17.4197  -26.6705   21.4038 H   0  0  0  0  0  0
  -18.0320  -26.0085   22.9022 H   0  0  0  0  0  0
  -19.7947  -30.7315   24.2223 H   0  0  0  0  0  0
  -17.5021  -31.6274   24.5179 H   0  0  0  0  0  0
  -15.5359  -30.2990   23.7686 H   0  0  0  0  0  0
  -15.8685  -28.0832   22.7088 H   0  0  0  0  0  0
  -24.5856  -30.7121   25.7788 H   0  0  0  0  0  0
  -24.8893  -32.2955   26.4832 H   0  0  0  0  0  0
  -25.7979  -30.8970   27.0247 H   0  0  0  0  0  0
  -26.2940  -29.6708   24.1281 H   0  0  0  0  0  0
  -27.3943  -29.7239   25.4842 H   0  0  0  0  0  0
  -27.8857  -30.4200   23.9590 H   0  0  0  0  0  0
  -27.2640  -33.3656   26.2037 H   0  0  0  0  0  0
  -28.3885  -32.6850   25.0369 H   0  0  0  0  0  0
  -28.0661  -31.8479   26.5472 H   0  0  0  0  0  0
  -28.2606  -38.0105   24.7500 H   0  0  0  0  0  0
  -28.1065  -36.2631   24.6301 H   0  0  0  0  0  0
  -27.2296  -37.1479   25.8869 H   0  0  0  0  0  0
  -20.9405  -29.8807   21.6867 H   0  0  0  0  0  0
  -26.0155  -38.2834   24.1403 H   0  0  0  0  0  0
  -28.8994  -23.2854   18.1937 H   0  0  0  0  0  0
  -30.4442  -23.7792   18.8855 H   0  0  0  0  0  0
  -28.2992  -18.4812   21.6371 H   0  0  0  0  0  0
  -27.4622  -18.5234   20.1243 H   0  0  0  0  0  0
  -31.6096  -19.4240   20.4245 H   0  0  0  0  0  0
  -30.6668  -18.9471   21.7972 H   0  0  0  0  0  0
  -28.4697  -16.4707   19.3256 H   0  0  0  0  0  0
  -28.0767  -16.1508   20.9888 H   0  0  0  0  0  0
  -31.9942  -17.0644   21.0907 H   0  0  0  0  0  0
  -31.5589  -17.2528   19.4187 H   0  0  0  0  0  0
  -27.3846  -21.7233   20.3017 H   0  0  0  0  0  0
  -28.3749  -21.6866   21.7450 H   0  0  0  0  0  0
  -29.6499  -23.6387   21.0894 H   0  0  0  0  0  0
  -29.5873  -19.0527   18.9661 H   0  0  0  0  0  0
  -26.2591  -25.3605   21.8074 H   0  0  0  0  0  0
  -27.7497  -24.8537   22.5804 H   0  0  0  0  0  0
  -26.6400  -23.6634   21.9141 H   0  0  0  0  0  0
  -27.1262  -24.4588   19.6154 H   0  0  0  0  0  0
  1 25  1  0  0  0
  1 30  2  0  0  0
  1 83  1  0  0  0
  2  3  1  0  0  0
  2 25  1  0  0  0
  2 85  1  0  0  0
  2 86  1  0  0  0
  3  4  1  0  0  0
  3 87  1  0  0  0
  3 88  1  0  0  0
  4  5  1  0  0  0
  4 89  1  0  0  0
  4 90  1  0  0  0
  5  6  1  0  0  0
  5 26  1  0  0  0
  5 91  1  0  0  0
  6 25  1  0  0  0
  6 92  1  0  0  0
  6 93  1  0  0  0
  7  8  2  0  0  0
  7 26  1  0  0  0
  7 29  1  0  0  0
  8  9  1  0  0  0
  8 22  1  0  0  0
  9 10  1  0  0  0
  9 27  2  0  0  0
 10 11  2  0  0  0
 10 15  1  0  0  0
 11 12  1  0  0  0
 11 94  1  0  0  0
 12 13  2  0  0  0
 12 95  1  0  0  0
 13 14  1  0  0  0
 13 31  1  0  0  0
 14 15  2  0  0  0
 14 96  1  0  0  0
 15 97  1  0  0  0
 16 17  2  0  0  0
 16 21  1  0  0  0
 16 31  1  0  0  0
 17 18  1  0  0  0
 17 98  1  0  0  0
 18 19  2  0  0  0
 18 99  1  0  0  0
 19 20  1  0  0  0
 19 24  1  0  0  0
 20 21  2  0  0  0
 20100  1  0  0  0
 21 23  1  0  0  0
 22 28  1  0  0  0
 22 32  2  0  0  0
 26 27  1  0  0  0
 28101  1  0  0  0
 28102  1  0  0  0
 29103  1  0  0  0
 29104  1  0  0  0
 33 34  1  0  0  0
 33 66  1  0  0  0
 33 70  2  0  0  0
 34 36  1  0  0  0
 34 59  1  0  0  0
 34105  1  0  0  0
 35 44  2  0  0  0
 35 45  1  0  0  0
 35 68  1  0  0  0
 36 56  1  0  0  0
 36106  1  0  0  0
 37 39  1  0  0  0
 37 47  1  0  0  0
 37 66  1  0  0  0
 37107  1  0  0  0
 38 43  2  0  0  0
 38 46  1  0  0  0
 38 47  1  0  0  0
 39 64  1  0  0  0
 39 67  2  0  0  0
 40 52  1  0  0  0
 40 53  2  0  0  0
 40 58  1  0  0  0
 41108  1  0  0  0
 41109  1  0  0  0
 41110  1  0  0  0
 41 48  1  0  0  0
 42 43  1  0  0  0
 42 66  1  0  0  0
 42111  1  0  0  0
 42112  1  0  0  0
 43 44  1  0  0  0
 44113  1  0  0  0
 45 46  2  0  0  0
 45114  1  0  0  0
 46115  1  0  0  0
 47116  1  0  0  0
 47117  1  0  0  0
 48 56  1  0  0  0
 48 65  1  0  0  0
 48118  1  0  0  0
 49 50  1  0  0  0
 49 53  1  0  0  0
 49 64  1  0  0  0
 49119  1  0  0  0
 50 51  1  0  0  0
 50120  1  0  0  0
 50121  1  0  0  0
 51 52  1  0  0  0
 51122  1  0  0  0
 51123  1  0  0  0
 52124  1  0  0  0
 52125  1  0  0  0
 53 54  1  0  0  0
 54 55  2  0  0  0
 54126  1  0  0  0
 55 57  1  0  0  0
 55127  1  0  0  0
 56 69  2  0  0  0
 57 58  2  0  0  0
 57128  1  0  0  0
 58129  1  0  0  0
 59 60  1  0  0  0
 59 61  1  0  0  0
 59 62  1  0  0  0
 60130  1  0  0  0
 60131  1  0  0  0
 60132  1  0  0  0
 61133  1  0  0  0
 61134  1  0  0  0
 61135  1  0  0  0
 62136  1  0  0  0
 62137  1  0  0  0
 62138  1  0  0  0
 63 65  1  0  0  0
 63139  1  0  0  0
 63140  1  0  0  0
 63141  1  0  0  0
 64142  1  0  0  0
 65143  1  0  0  0
 68 81  1  0  0  0
 71 72  1  0  0  0
 71 82  1  0  0  0
 71 84  2  0  0  0
 72144  1  0  0  0
 72145  1  0  0  0
 72 78  1  0  0  0
 73 75  1  0  0  0
 73 79  1  0  0  0
 73146  1  0  0  0
 73147  1  0  0  0
 74 76  1  0  0  0
 74 79  1  0  0  0
 74148  1  0  0  0
 74149  1  0  0  0
 75 83  1  0  0  0
 75150  1  0  0  0
 75151  1  0  0  0
 76 83  1  0  0  0
 76152  1  0  0  0
 76153  1  0  0  0
 77 78  1  0  0  0
 77 82  1  0  0  0
 77154  1  0  0  0
 77155  1  0  0  0
 78 81  1  0  0  0
 78156  1  0  0  0
 79 82  1  0  0  0
 79157  1  0  0  0
 80158  1  0  0  0
 80159  1  0  0  0
 80160  1  0  0  0
 80 81  1  0  0  0
 81161  1  0  0  0
M  ISO  4   1 100  68 101  81 101  83 100
M  END
> <chiral flag>
0

> <version>
0

> <s_m_source_file>
/data/baiqing/PycharmProjects/Reinvent-master-3.2/result/LINK_invent/BTK/process_docking_weight1_custom_sum_contain_oxygen_bond_distance_aromatic_linkinvent_7_9_3/rearranged_h_0170.sdf

> <i_m_source_file_index>
81

> <r_mmod_Potential_Energy-OPLS-2005>
613.189697265625

> <r_mmod_Stretch_Energy-OPLS-2005>
186.002517700195

> <r_mmod_Bend_Energy-OPLS-2005>
314.224334716797

> <r_mmod_Torsional_Energy-OPLS-2005>
357.209167480469

> <r_mmod_Improper_Torsional_Energy-OPLS-2005>
5.05056524276733

> <r_mmod_Van_der_Waal_Energy-OPLS-2005>
128.069473266602

> <r_mmod_Electrostatic_Energy-OPLS-2005>
-302.061614990234

> <r_mmod_Solvation_Energy-OPLS-2005>
-225.516876220703

> <b_mmod_Minimization_Converged-OPLS-2005>
0

> <r_mmod_RMS_Derivative-OPLS-2005>
1.80868804454803

$$$$
82
                    3D
 Structure written by MMmdl.
177186  0  0  1  0            999 V2000
  -30.6846  -14.5242   20.5010 C   0  0  0  0  0  0
  -30.4264  -12.3158   19.4403 C   0  0  0  0  0  0
  -29.5033  -12.4845   18.2136 C   0  0  0  0  0  0
  -28.0239  -12.3435   18.6288 C   0  0  0  0  0  0
  -27.6574  -13.2043   19.8678 C   0  0  2  0  0  0
  -28.7057  -13.0337   20.9933 C   0  0  0  0  0  0
  -25.2562  -13.8143   20.5647 C   0  0  0  0  0  0
  -24.1830  -13.0419   20.9176 C   0  0  0  0  0  0
  -24.6389  -11.6886   20.8743 C   0  0  0  0  0  0
  -23.9047  -10.4279   21.0418 C   0  0  0  0  0  0
  -24.3616   -9.4195   21.9196 C   0  0  0  0  0  0
  -23.6293   -8.2235   22.0750 C   0  0  0  0  0  0
  -22.4273   -8.0269   21.3540 C   0  0  0  0  0  0
  -21.9910   -9.0239   20.4640 C   0  0  0  0  0  0
  -22.7227  -10.2122   20.3057 C   0  0  0  0  0  0
  -21.6843   -6.0733   22.5288 C   0  0  0  0  0  0
  -21.4013   -6.5639   23.8214 C   0  0  0  0  0  0
  -21.3654   -5.6787   24.9180 C   0  0  0  0  0  0
  -21.6053   -4.3056   24.7238 C   0  0  0  0  0  0
  -21.8825   -3.8146   23.4355 C   0  0  0  0  0  0
  -21.9183   -4.6965   22.3401 C   0  0  0  0  0  0
  -22.7847  -13.5202   21.1839 C   0  0  0  0  0  0
  -22.1640   -4.2151   21.0986 F   0  0  0  0  0  0
  -21.5634   -3.4530   25.7749 F   0  0  0  0  0  0
  -30.0270  -13.3330   20.4250 N   0  0  0  0  0  0
  -26.3013  -12.9313   20.3362 N   0  0  0  0  0  0
  -25.9318  -11.6477   20.5787 N   0  0  0  0  0  0
  -22.0498  -12.8210   22.0406 N   0  0  0  0  0  0
  -25.4232  -15.1876   20.3963 N   0  0  0  0  0  0
  -31.8585  -14.6469   20.1388 O   0  0  0  0  0  0
  -21.6635   -6.8880   21.4236 O   0  0  0  0  0  0
  -22.3520  -14.5486   20.6641 O   0  0  0  0  0  0
  -24.6164  -31.8696   23.2089 C   0  0  0  0  0  0
  -25.9052  -32.4834   23.8394 C   0  0  1  0  0  0
  -27.2368  -27.4298   20.1115 C   0  0  0  0  0  0
  -25.5907  -33.8633   24.2329 N   0  0  0  0  0  0
  -23.4029  -30.4930   21.5513 C   0  0  2  0  0  0
  -24.8494  -28.9592   20.1148 C   0  0  0  0  0  0
  -22.7408  -29.4689   22.5008 C   0  0  0  0  0  0
  -18.0274  -28.1381   22.8485 C   0  0  0  0  0  0
  -24.1488  -36.7321   23.2637 C   0  0  0  0  0  0
  -25.9313  -30.8377   21.3587 C   0  0  0  0  0  0
  -26.0108  -29.4723   20.7060 C   0  0  0  0  0  0
  -27.2067  -28.7171   20.6959 C   0  0  0  0  0  0
  -26.0558  -26.9397   19.5020 C   0  0  0  0  0  0
  -24.8672  -27.6921   19.5094 C   0  0  0  0  0  0
  -23.6096  -29.8234   20.1670 C   0  0  0  0  0  0
  -25.4106  -36.3123   24.0337 C   0  0  1  0  0  0
  -20.5867  -28.3678   23.1308 C   0  0  2  0  0  0
  -20.6775  -26.9413   22.5415 C   0  0  0  0  0  0
  -19.5760  -26.6384   21.5212 C   0  0  0  0  0  0
  -18.1932  -26.7929   22.1612 C   0  0  0  0  0  0
  -19.1522  -28.8843   23.2894 C   0  0  0  0  0  0
  -18.9456  -30.1447   23.8910 C   0  0  0  0  0  0
  -17.6463  -30.6589   24.0567 C   0  0  0  0  0  0
  -25.9030  -34.9487   23.5128 C   0  0  0  0  0  0
  -16.5351  -29.9094   23.6329 C   0  0  0  0  0  0
  -16.7264  -28.6506   23.0353 C   0  0  0  0  0  0
  -26.4458  -31.6616   25.0729 C   0  0  0  0  0  0
  -25.3712  -31.3756   26.1476 C   0  0  0  0  0  0
  -27.0268  -30.3054   24.6103 C   0  0  0  0  0  0
  -27.6040  -32.4323   25.7493 C   0  0  0  0  0  0
  -27.5585  -37.1815   24.8461 C   0  0  0  0  0  0
  -21.4142  -29.3050   22.3726 N   0  0  0  0  0  0
  -26.4300  -37.3802   23.9401 N   0  0  0  0  0  0
  -24.6690  -31.0804   22.0988 N   0  0  0  0  0  0
  -23.4172  -28.8250   23.3067 O   0  0  0  0  0  0
  -28.3995  -26.6806   20.1702 O   0  0  0  0  0  0
  -26.5590  -34.8934   22.4687 O   0  0  0  0  0  0
  -23.5356  -32.1442   23.7485 O   0  0  0  0  0  0
  -29.6144  -17.7591   21.8361 C   0  0  0  0  0  0
  -30.0782  -17.9038   19.4168 C   0  0  0  0  0  0
  -29.2820  -16.2439   21.6732 C   0  0  0  0  0  0
  -29.7191  -16.4129   19.2431 C   0  0  0  0  0  0
  -30.3030  -22.2938   21.4704 C   0  0  0  0  0  0
  -28.8245  -22.3459   19.6508 C   0  0  0  0  0  0
  -29.2841  -18.5776   20.5625 C   0  0  0  0  0  0
  -29.9581  -20.8006   21.7852 C   0  0  1  0  0  0
  -28.3852  -20.8688   19.8683 C   0  0  1  0  0  0
  -29.0089  -20.7500   23.0112 C   0  0  0  0  0  0
  -26.3887  -20.6664   18.2607 C   0  0  0  0  0  0
  -28.7281  -20.6255   17.2889 C   0  0  0  0  0  0
  -29.4473  -24.4539   20.7092 C   0  0  0  0  0  0
  -28.2390  -25.2522   20.1409 C   0  0  0  0  0  0
  -27.8549  -20.2760   18.5129 C   0  0  0  0  0  0
  -29.8757  -15.6210   20.4782 N   0  0  0  0  0  0
  -29.1491  -23.0162   20.9102 N   0  0  0  0  0  0
  -29.4826  -20.0858   20.5434 N   0  3  2  0  0  0
  -31.4724  -12.4064   19.1421 H   0  0  0  0  0  0
  -30.3259  -11.3150   19.8652 H   0  0  0  0  0  0
  -29.7526  -11.7457   17.4499 H   0  0  0  0  0  0
  -29.6640  -13.4602   17.7535 H   0  0  0  0  0  0
  -27.8427  -11.2901   18.8439 H   0  0  0  0  0  0
  -27.3736  -12.5892   17.7898 H   0  0  0  0  0  0
  -27.6781  -14.2421   19.5417 H   0  0  0  0  0  0
  -28.6957  -12.0131   21.3749 H   0  0  0  0  0  0
  -28.4750  -13.6684   21.8482 H   0  0  0  0  0  0
  -25.2773   -9.5659   22.4763 H   0  0  0  0  0  0
  -23.9982   -7.4615   22.7456 H   0  0  0  0  0  0
  -21.0842   -8.8746   19.8955 H   0  0  0  0  0  0
  -22.3671  -10.9651   19.6160 H   0  0  0  0  0  0
  -21.2007   -7.6148   23.9722 H   0  0  0  0  0  0
  -21.1466   -6.0520   25.9078 H   0  0  0  0  0  0
  -22.0618   -2.7614   23.2842 H   0  0  0  0  0  0
  -22.4106  -11.9865   22.4787 H   0  0  0  0  0  0
  -21.1118  -13.1254   22.2610 H   0  0  0  0  0  0
  -24.6455  -15.8337   20.4753 H   0  0  0  0  0  0
  -26.2608  -15.6158   20.0276 H   0  0  0  0  0  0
  -26.7143  -32.5543   23.1181 H   0  0  0  0  0  0
  -25.0072  -33.9798   25.0489 H   0  0  0  0  0  0
  -22.6922  -31.3102   21.4111 H   0  0  0  0  0  0
  -23.3753  -35.9653   23.3306 H   0  0  0  0  0  0
  -24.3595  -36.8923   22.2051 H   0  0  0  0  0  0
  -23.7226  -37.6526   23.6637 H   0  0  0  0  0  0
  -26.0379  -31.6041   20.5895 H   0  0  0  0  0  0
  -26.8225  -30.8958   21.9720 H   0  0  0  0  0  0
  -28.1015  -29.1088   21.1605 H   0  0  0  0  0  0
  -26.0308  -25.9708   19.0257 H   0  0  0  0  0  0
  -23.9738  -27.2868   19.0553 H   0  0  0  0  0  0
  -23.7124  -30.5967   19.4047 H   0  0  0  0  0  0
  -22.7337  -29.2405   19.8769 H   0  0  0  0  0  0
  -25.1286  -36.2004   25.0832 H   0  0  0  0  0  0
  -20.9947  -28.3244   24.1431 H   0  0  0  0  0  0
  -20.5688  -26.2289   23.3603 H   0  0  0  0  0  0
  -21.6648  -26.7466   22.1205 H   0  0  0  0  0  0
  -19.6931  -25.6292   21.1249 H   0  0  0  0  0  0
  -19.6713  -27.3189   20.6736 H   0  0  0  0  0  0
  -17.4208  -26.6680   21.4004 H   0  0  0  0  0  0
  -18.0329  -26.0063   22.9000 H   0  0  0  0  0  0
  -19.7938  -30.7260   24.2279 H   0  0  0  0  0  0
  -17.5023  -31.6271   24.5168 H   0  0  0  0  0  0
  -15.5354  -30.3010   23.7648 H   0  0  0  0  0  0
  -15.8660  -28.0835   22.7067 H   0  0  0  0  0  0
  -24.5869  -30.7120   25.7819 H   0  0  0  0  0  0
  -24.8927  -32.2931   26.4910 H   0  0  0  0  0  0
  -25.8053  -30.8931   27.0241 H   0  0  0  0  0  0
  -26.2814  -29.6846   24.1119 H   0  0  0  0  0  0
  -27.3989  -29.7268   25.4568 H   0  0  0  0  0  0
  -27.8670  -30.4369   23.9280 H   0  0  0  0  0  0
  -27.2675  -33.3632   26.2068 H   0  0  0  0  0  0
  -28.3855  -32.6862   25.0321 H   0  0  0  0  0  0
  -28.0687  -31.8435   26.5409 H   0  0  0  0  0  0
  -28.2609  -38.0109   24.7512 H   0  0  0  0  0  0
  -28.1078  -36.2639   24.6289 H   0  0  0  0  0  0
  -27.2304  -37.1467   25.8867 H   0  0  0  0  0  0
  -20.9310  -29.8764   21.6939 H   0  0  0  0  0  0
  -26.0199  -38.2887   24.1402 H   0  0  0  0  0  0
  -30.6604  -17.8837   22.1187 H   0  0  0  0  0  0
  -29.0026  -18.0924   22.6676 H   0  0  0  0  0  0
  -29.9030  -18.4005   18.4645 H   0  0  0  0  0  0
  -31.1483  -18.0006   19.5977 H   0  0  0  0  0  0
  -28.2000  -16.1201   21.6014 H   0  0  0  0  0  0
  -29.5893  -15.7035   22.5702 H   0  0  0  0  0  0
  -30.3106  -15.9951   18.4261 H   0  0  0  0  0  0
  -28.6824  -16.3261   18.9182 H   0  0  0  0  0  0
  -31.1601  -22.3547   20.7949 H   0  0  0  0  0  0
  -30.6187  -22.7918   22.3914 H   0  0  0  0  0  0
  -28.0041  -22.8601   19.1547 H   0  0  0  0  0  0
  -29.6790  -22.4097   18.9734 H   0  0  0  0  0  0
  -28.2165  -18.3975   20.4278 H   0  0  0  0  0  0
  -30.8971  -20.3312   22.0851 H   0  0  0  0  0  0
  -27.5433  -20.8748   20.5612 H   0  0  0  0  0  0
  -27.9530  -20.7682   22.7485 H   0  0  0  0  0  0
  -29.1872  -21.6074   23.6601 H   0  0  0  0  0  0
  -29.1961  -19.8938   23.6540 H   0  0  0  0  0  0
  -25.7471  -20.3110   19.0678 H   0  0  0  0  0  0
  -26.0158  -20.2182   17.3397 H   0  0  0  0  0  0
  -26.2540  -21.7450   18.1845 H   0  0  0  0  0  0
  -29.7938  -20.5639   17.5132 H   0  0  0  0  0  0
  -28.5273  -21.6344   16.9235 H   0  0  0  0  0  0
  -28.5341  -19.9406   16.4628 H   0  0  0  0  0  0
  -29.7156  -24.8877   21.6748 H   0  0  0  0  0  0
  -30.3151  -24.5846   20.0602 H   0  0  0  0  0  0
  -27.3534  -24.9650   20.7123 H   0  0  0  0  0  0
  -28.0712  -24.9725   19.1009 H   0  0  0  0  0  0
  -27.8129  -19.1923   18.5509 H   0  0  0  0  0  0
  -30.2688  -20.2059   19.9246 H   0  0  0  0  0  0
  1 25  1  0  0  0
  1 30  2  0  0  0
  1 86  1  0  0  0
  2  3  1  0  0  0
  2 25  1  0  0  0
  2 89  1  0  0  0
  2 90  1  0  0  0
  3  4  1  0  0  0
  3 91  1  0  0  0
  3 92  1  0  0  0
  4  5  1  0  0  0
  4 93  1  0  0  0
  4 94  1  0  0  0
  5  6  1  0  0  0
  5 26  1  0  0  0
  5 95  1  0  0  0
  6 25  1  0  0  0
  6 96  1  0  0  0
  6 97  1  0  0  0
  7  8  2  0  0  0
  7 26  1  0  0  0
  7 29  1  0  0  0
  8  9  1  0  0  0
  8 22  1  0  0  0
  9 10  1  0  0  0
  9 27  2  0  0  0
 10 11  2  0  0  0
 10 15  1  0  0  0
 11 12  1  0  0  0
 11 98  1  0  0  0
 12 13  2  0  0  0
 12 99  1  0  0  0
 13 14  1  0  0  0
 13 31  1  0  0  0
 14 15  2  0  0  0
 14100  1  0  0  0
 15101  1  0  0  0
 16 17  2  0  0  0
 16 21  1  0  0  0
 16 31  1  0  0  0
 17 18  1  0  0  0
 17102  1  0  0  0
 18 19  2  0  0  0
 18103  1  0  0  0
 19 20  1  0  0  0
 19 24  1  0  0  0
 20 21  2  0  0  0
 20104  1  0  0  0
 21 23  1  0  0  0
 22 28  1  0  0  0
 22 32  2  0  0  0
 26 27  1  0  0  0
 28105  1  0  0  0
 28106  1  0  0  0
 29107  1  0  0  0
 29108  1  0  0  0
 33 34  1  0  0  0
 33 66  1  0  0  0
 33 70  2  0  0  0
 34 36  1  0  0  0
 34 59  1  0  0  0
 34109  1  0  0  0
 35 44  2  0  0  0
 35 45  1  0  0  0
 35 68  1  0  0  0
 36 56  1  0  0  0
 36110  1  0  0  0
 37 39  1  0  0  0
 37 47  1  0  0  0
 37 66  1  0  0  0
 37111  1  0  0  0
 38 43  2  0  0  0
 38 46  1  0  0  0
 38 47  1  0  0  0
 39 64  1  0  0  0
 39 67  2  0  0  0
 40 52  1  0  0  0
 40 53  2  0  0  0
 40 58  1  0  0  0
 41112  1  0  0  0
 41113  1  0  0  0
 41114  1  0  0  0
 41 48  1  0  0  0
 42 43  1  0  0  0
 42 66  1  0  0  0
 42115  1  0  0  0
 42116  1  0  0  0
 43 44  1  0  0  0
 44117  1  0  0  0
 45 46  2  0  0  0
 45118  1  0  0  0
 46119  1  0  0  0
 47120  1  0  0  0
 47121  1  0  0  0
 48 56  1  0  0  0
 48 65  1  0  0  0
 48122  1  0  0  0
 49 50  1  0  0  0
 49 53  1  0  0  0
 49 64  1  0  0  0
 49123  1  0  0  0
 50 51  1  0  0  0
 50124  1  0  0  0
 50125  1  0  0  0
 51 52  1  0  0  0
 51126  1  0  0  0
 51127  1  0  0  0
 52128  1  0  0  0
 52129  1  0  0  0
 53 54  1  0  0  0
 54 55  2  0  0  0
 54130  1  0  0  0
 55 57  1  0  0  0
 55131  1  0  0  0
 56 69  2  0  0  0
 57 58  2  0  0  0
 57132  1  0  0  0
 58133  1  0  0  0
 59 60  1  0  0  0
 59 61  1  0  0  0
 59 62  1  0  0  0
 60134  1  0  0  0
 60135  1  0  0  0
 60136  1  0  0  0
 61137  1  0  0  0
 61138  1  0  0  0
 61139  1  0  0  0
 62140  1  0  0  0
 62141  1  0  0  0
 62142  1  0  0  0
 63 65  1  0  0  0
 63143  1  0  0  0
 63144  1  0  0  0
 63145  1  0  0  0
 64146  1  0  0  0
 65147  1  0  0  0
 68 84  1  0  0  0
 71 73  1  0  0  0
 71148  1  0  0  0
 71149  1  0  0  0
 71 77  1  0  0  0
 72 74  1  0  0  0
 72 77  1  0  0  0
 72150  1  0  0  0
 72151  1  0  0  0
 73 86  1  0  0  0
 73152  1  0  0  0
 73153  1  0  0  0
 74 86  1  0  0  0
 74154  1  0  0  0
 74155  1  0  0  0
 75 78  1  0  0  0
 75 87  1  0  0  0
 75156  1  0  0  0
 75157  1  0  0  0
 76 87  1  0  0  0
 76158  1  0  0  0
 76159  1  0  0  0
 76 79  1  0  0  0
 77160  1  0  0  0
 77 88  1  0  0  0
 78 80  1  0  0  0
 78 88  1  0  0  0
 78161  1  0  0  0
 79 85  1  0  0  0
 79 88  1  0  0  0
 79162  1  0  0  0
 80163  1  0  0  0
 80164  1  0  0  0
 80165  1  0  0  0
 81166  1  0  0  0
 81167  1  0  0  0
 81168  1  0  0  0
 81 85  1  0  0  0
 82 85  1  0  0  0
 82169  1  0  0  0
 82170  1  0  0  0
 82171  1  0  0  0
 83 84  1  0  0  0
 83 87  1  0  0  0
 83172  1  0  0  0
 83173  1  0  0  0
 84174  1  0  0  0
 84175  1  0  0  0
 85176  1  0  0  0
 88177  1  0  0  0
M  CHG  1  88   1
M  ISO  4   1 100  68 101  84 101  86 100
M  END
> <chiral flag>
0

> <version>
0

> <s_m_source_file>
/data/baiqing/PycharmProjects/Reinvent-master-3.2/result/LINK_invent/BTK/process_docking_weight1_custom_sum_contain_oxygen_bond_distance_aromatic_linkinvent_7_9_3/rearranged_h_0170.sdf

> <i_m_source_file_index>
82

> <r_mmod_Potential_Energy-OPLS-2005>
305.588806152344

> <r_mmod_Stretch_Energy-OPLS-2005>
54.4151344299316

> <r_mmod_Bend_Energy-OPLS-2005>
140.790267944336

> <r_mmod_Torsional_Energy-OPLS-2005>
385.994506835938

> <r_mmod_Improper_Torsional_Energy-OPLS-2005>
17.0247802734375

> <r_mmod_Van_der_Waal_Energy-OPLS-2005>
157.928314208984

> <r_mmod_Electrostatic_Energy-OPLS-2005>
-64.4767532348633

> <r_mmod_Solvation_Energy-OPLS-2005>
-407.150299072266

> <b_mmod_Minimization_Converged-OPLS-2005>
0

> <r_mmod_RMS_Derivative-OPLS-2005>
3.05355644226074

$$$$
83
                    3D
 Structure written by MMmdl.
156165  0  0  1  0            999 V2000
  -30.5286  -15.0367   20.3920 C   0  0  0  0  0  0
  -30.4328  -12.6564   19.4811 C   0  0  0  0  0  0
  -29.5065  -12.5328   18.2489 C   0  0  0  0  0  0
  -28.0475  -12.2946   18.6821 C   0  0  0  0  0  0
  -27.6145  -13.2397   19.8305 C   0  0  2  0  0  0
  -28.6681  -13.3025   20.9562 C   0  0  0  0  0  0
  -25.2348  -13.8161   20.5704 C   0  0  0  0  0  0
  -24.1678  -13.0398   20.9241 C   0  0  0  0  0  0
  -24.6302  -11.6893   20.8787 C   0  0  0  0  0  0
  -23.8996  -10.4280   21.0427 C   0  0  0  0  0  0
  -24.3537   -9.4206   21.9219 C   0  0  0  0  0  0
  -23.6224   -8.2229   22.0779 C   0  0  0  0  0  0
  -22.4221   -8.0256   21.3545 C   0  0  0  0  0  0
  -21.9839   -9.0230   20.4658 C   0  0  0  0  0  0
  -22.7160  -10.2117   20.3079 C   0  0  0  0  0  0
  -21.6834   -6.0696   22.5261 C   0  0  0  0  0  0
  -21.4010   -6.5610   23.8191 C   0  0  0  0  0  0
  -21.3671   -5.6772   24.9158 C   0  0  0  0  0  0
  -21.6036   -4.3034   24.7216 C   0  0  0  0  0  0
  -21.8815   -3.8109   23.4345 C   0  0  0  0  0  0
  -21.9191   -4.6923   22.3394 C   0  0  0  0  0  0
  -22.7714  -13.5216   21.1875 C   0  0  0  0  0  0
  -22.1670   -4.2119   21.0972 F   0  0  0  0  0  0
  -21.5628   -3.4519   25.7736 F   0  0  0  0  0  0
  -29.9146  -13.7745   20.3316 N   0  0  0  0  0  0
  -26.2789  -12.9390   20.3246 N   0  0  0  0  0  0
  -25.9239  -11.6537   20.5773 N   0  0  0  0  0  0
  -22.0304  -12.8261   22.0422 N   0  0  0  0  0  0
  -25.3890  -15.1885   20.4135 N   0  0  0  0  0  0
  -31.7494  -15.0268   20.1822 O   0  0  0  0  0  0
  -21.6603   -6.8838   21.4229 O   0  0  0  0  0  0
  -22.3449  -14.5537   20.6720 O   0  0  0  0  0  0
  -24.6519  -31.8374   23.1832 C   0  0  0  0  0  0
  -25.9273  -32.4650   23.8247 C   0  0  1  0  0  0
  -27.2308  -27.0996   20.1525 C   0  0  0  0  0  0
  -25.6010  -33.8441   24.2179 N   0  0  0  0  0  0
  -23.4580  -30.4599   21.5212 C   0  0  2  0  0  0
  -24.9130  -28.8792   20.0991 C   0  0  0  0  0  0
  -22.7611  -29.4561   22.4755 C   0  0  0  0  0  0
  -18.0348  -28.1420   22.8512 C   0  0  0  0  0  0
  -24.1486  -36.7239   23.2641 C   0  0  0  0  0  0
  -26.0166  -30.7018   21.3878 C   0  0  0  0  0  0
  -26.0881  -29.3084   20.7304 C   0  0  0  0  0  0
  -27.2454  -28.4340   20.7394 C   0  0  0  0  0  0
  -26.0352  -26.7910   19.4651 C   0  0  0  0  0  0
  -24.9054  -27.6376   19.4459 C   0  0  0  0  0  0
  -23.6903  -29.7844   20.1431 C   0  0  0  0  0  0
  -25.4113  -36.2991   24.0311 C   0  0  1  0  0  0
  -20.5962  -28.3788   23.1182 C   0  0  2  0  0  0
  -20.6809  -26.9485   22.5374 C   0  0  0  0  0  0
  -19.5773  -26.6435   21.5189 C   0  0  0  0  0  0
  -18.1970  -26.7969   22.1627 C   0  0  0  0  0  0
  -19.1602  -28.8918   23.2849 C   0  0  0  0  0  0
  -18.9496  -30.1509   23.8903 C   0  0  0  0  0  0
  -17.6481  -30.6599   24.0595 C   0  0  0  0  0  0
  -25.9077  -34.9381   23.5029 C   0  0  0  0  0  0
  -16.5387  -29.9093   23.6349 C   0  0  0  0  0  0
  -16.7325  -28.6508   23.0381 C   0  0  0  0  0  0
  -26.4578  -31.6528   25.0704 C   0  0  0  0  0  0
  -25.3753  -31.3714   26.1395 C   0  0  0  0  0  0
  -27.0452  -30.2926   24.6308 C   0  0  0  0  0  0
  -27.6103  -32.4296   25.7481 C   0  0  0  0  0  0
  -27.5555  -37.1786   24.8466 C   0  0  0  0  0  0
  -21.4303  -29.3092   22.3491 N   0  0  0  0  0  0
  -26.4273  -37.3723   23.9406 N   0  0  0  0  0  0
  -24.7270  -31.0242   22.0842 N   0  0  0  0  0  0
  -23.4233  -28.8122   23.2921 O   0  0  0  0  0  0
  -28.2625  -26.0792   20.2507 O   0  0  0  0  0  0
  -26.5631  -34.8895   22.4598 O   0  0  0  0  0  0
  -23.5634  -32.1251   23.7058 O   0  0  0  0  0  0
  -28.7044  -21.7991   19.9518 C   0  0  0  0  0  0
  -30.1776  -22.0268   22.1792 C   0  0  0  0  0  0
  -28.7875  -23.1896   20.5026 C   0  0  0  0  0  0
  -29.5410  -23.2031   21.7073 C   0  0  0  0  0  0
  -29.3454  -20.5810   20.5307 C   0  0  0  0  0  0
  -28.1459  -18.1429   20.9176 C   0  0  0  0  0  0
  -28.3997  -16.6050   20.6636 C   0  0  0  0  0  0
  -30.3560  -17.7816   20.2333 C   0  0  0  0  0  0
  -29.1931  -18.9601   20.1382 C   0  0  2  0  0  0
  -29.6313  -24.4311   22.6023 C   0  0  0  0  0  0
  -27.9734  -24.5543   19.9670 C   0  0  0  0  0  0
  -30.0832  -20.7872   21.6392 N   0  0  0  0  0  0
  -29.8319  -16.3170   20.4220 N   0  0  0  0  0  0
  -31.4570  -12.8329   19.1476 H   0  0  0  0  0  0
  -30.4634  -11.7211   20.0448 H   0  0  0  0  0  0
  -29.8355  -11.7211   17.5973 H   0  0  0  0  0  0
  -29.5664  -13.4464   17.6536 H   0  0  0  0  0  0
  -27.9705  -11.2584   19.0145 H   0  0  0  0  0  0
  -27.3691  -12.3953   17.8328 H   0  0  0  0  0  0
  -27.5537  -14.2208   19.3668 H   0  0  0  0  0  0
  -28.7958  -12.3208   21.4141 H   0  0  0  0  0  0
  -28.3600  -13.9645   21.7633 H   0  0  0  0  0  0
  -25.2673   -9.5691   22.4799 H   0  0  0  0  0  0
  -23.9932   -7.4623   22.7501 H   0  0  0  0  0  0
  -21.0772   -8.8739   19.8959 H   0  0  0  0  0  0
  -22.3611  -10.9651   19.6188 H   0  0  0  0  0  0
  -21.1999   -7.6118   23.9688 H   0  0  0  0  0  0
  -21.1505   -6.0500   25.9062 H   0  0  0  0  0  0
  -22.0579   -2.7570   23.2834 H   0  0  0  0  0  0
  -22.3886  -11.9948   22.4875 H   0  0  0  0  0  0
  -21.0947  -13.1375   22.2620 H   0  0  0  0  0  0
  -24.6027  -15.8197   20.5281 H   0  0  0  0  0  0
  -26.2258  -15.6486   20.0840 H   0  0  0  0  0  0
  -26.7343  -32.5289   23.0978 H   0  0  0  0  0  0
  -25.0205  -33.9499   25.0362 H   0  0  0  0  0  0
  -22.7667  -31.2888   21.3619 H   0  0  0  0  0  0
  -23.3712  -35.9597   23.3284 H   0  0  0  0  0  0
  -24.3598  -36.8899   22.2066 H   0  0  0  0  0  0
  -23.7278  -37.6452   23.6677 H   0  0  0  0  0  0
  -26.1790  -31.4519   20.6129 H   0  0  0  0  0  0
  -26.8813  -30.7597   22.0350 H   0  0  0  0  0  0
  -28.1390  -28.7568   21.2562 H   0  0  0  0  0  0
  -25.9376  -25.8470   18.9492 H   0  0  0  0  0  0
  -24.0202  -27.3076   18.9216 H   0  0  0  0  0  0
  -23.8300  -30.5533   19.3827 H   0  0  0  0  0  0
  -22.8077  -29.2226   19.8333 H   0  0  0  0  0  0
  -25.1300  -36.1810   25.0799 H   0  0  0  0  0  0
  -21.0117  -28.3416   24.1270 H   0  0  0  0  0  0
  -20.5702  -26.2420   23.3608 H   0  0  0  0  0  0
  -21.6667  -26.7475   22.1166 H   0  0  0  0  0  0
  -19.6915  -25.6331   21.1245 H   0  0  0  0  0  0
  -19.6662  -27.3204   20.6674 H   0  0  0  0  0  0
  -17.4227  -26.6773   21.4031 H   0  0  0  0  0  0
  -18.0371  -26.0074   22.8986 H   0  0  0  0  0  0
  -19.7970  -30.7348   24.2258 H   0  0  0  0  0  0
  -17.5025  -31.6284   24.5189 H   0  0  0  0  0  0
  -15.5379  -30.2983   23.7639 H   0  0  0  0  0  0
  -15.8753  -28.0807   22.7080 H   0  0  0  0  0  0
  -24.5966  -30.7022   25.7704 H   0  0  0  0  0  0
  -24.8902  -32.2877   26.4767 H   0  0  0  0  0  0
  -25.8057  -30.8952   27.0215 H   0  0  0  0  0  0
  -26.3077  -29.6611   24.1341 H   0  0  0  0  0  0
  -27.4074  -29.7287   25.4912 H   0  0  0  0  0  0
  -27.8977  -30.4129   23.9619 H   0  0  0  0  0  0
  -27.2712  -33.3638   26.1961 H   0  0  0  0  0  0
  -28.3953  -32.6786   25.0317 H   0  0  0  0  0  0
  -28.0701  -31.8486   26.5490 H   0  0  0  0  0  0
  -28.2564  -38.0091   24.7490 H   0  0  0  0  0  0
  -28.1078  -36.2627   24.6303 H   0  0  0  0  0  0
  -27.2304  -37.1450   25.8885 H   0  0  0  0  0  0
  -20.9509  -29.8790   21.6654 H   0  0  0  0  0  0
  -26.0131  -38.2786   24.1404 H   0  0  0  0  0  0
  -28.0800  -21.6546   19.0797 H   0  0  0  0  0  0
  -30.7578  -22.0682   23.0909 H   0  0  0  0  0  0
  -28.2594  -18.3482   21.9851 H   0  0  0  0  0  0
  -27.1261  -18.4325   20.6543 H   0  0  0  0  0  0
  -27.8586  -16.3210   19.7617 H   0  0  0  0  0  0
  -27.9941  -16.0373   21.4996 H   0  0  0  0  0  0
  -30.9861  -17.9972   21.0970 H   0  0  0  0  0  0
  -31.0081  -17.8372   19.3598 H   0  0  0  0  0  0
  -28.8567  -18.9699   19.0990 H   0  0  0  0  0  0
  -29.5227  -24.1169   23.6435 H   0  0  0  0  0  0
  -28.8381  -25.1543   22.4214 H   0  0  0  0  0  0
  -30.6002  -24.9245   22.4942 H   0  0  0  0  0  0
  -26.9619  -24.3806   20.3340 H   0  0  0  0  0  0
  -27.9033  -24.4619   18.8842 H   0  0  0  0  0  0
  1 25  1  0  0  0
  1 30  2  0  0  0
  1 83  1  0  0  0
  2  3  1  0  0  0
  2 25  1  0  0  0
  2 84  1  0  0  0
  2 85  1  0  0  0
  3  4  1  0  0  0
  3 86  1  0  0  0
  3 87  1  0  0  0
  4  5  1  0  0  0
  4 88  1  0  0  0
  4 89  1  0  0  0
  5  6  1  0  0  0
  5 26  1  0  0  0
  5 90  1  0  0  0
  6 25  1  0  0  0
  6 91  1  0  0  0
  6 92  1  0  0  0
  7  8  2  0  0  0
  7 26  1  0  0  0
  7 29  1  0  0  0
  8  9  1  0  0  0
  8 22  1  0  0  0
  9 10  1  0  0  0
  9 27  2  0  0  0
 10 11  2  0  0  0
 10 15  1  0  0  0
 11 12  1  0  0  0
 11 93  1  0  0  0
 12 13  2  0  0  0
 12 94  1  0  0  0
 13 14  1  0  0  0
 13 31  1  0  0  0
 14 15  2  0  0  0
 14 95  1  0  0  0
 15 96  1  0  0  0
 16 17  2  0  0  0
 16 21  1  0  0  0
 16 31  1  0  0  0
 17 18  1  0  0  0
 17 97  1  0  0  0
 18 19  2  0  0  0
 18 98  1  0  0  0
 19 20  1  0  0  0
 19 24  1  0  0  0
 20 21  2  0  0  0
 20 99  1  0  0  0
 21 23  1  0  0  0
 22 28  1  0  0  0
 22 32  2  0  0  0
 26 27  1  0  0  0
 28100  1  0  0  0
 28101  1  0  0  0
 29102  1  0  0  0
 29103  1  0  0  0
 33 34  1  0  0  0
 33 66  1  0  0  0
 33 70  2  0  0  0
 34 36  1  0  0  0
 34 59  1  0  0  0
 34104  1  0  0  0
 35 44  2  0  0  0
 35 45  1  0  0  0
 35 68  1  0  0  0
 36 56  1  0  0  0
 36105  1  0  0  0
 37 39  1  0  0  0
 37 47  1  0  0  0
 37 66  1  0  0  0
 37106  1  0  0  0
 38 43  2  0  0  0
 38 46  1  0  0  0
 38 47  1  0  0  0
 39 64  1  0  0  0
 39 67  2  0  0  0
 40 52  1  0  0  0
 40 53  2  0  0  0
 40 58  1  0  0  0
 41107  1  0  0  0
 41108  1  0  0  0
 41109  1  0  0  0
 41 48  1  0  0  0
 42 43  1  0  0  0
 42 66  1  0  0  0
 42110  1  0  0  0
 42111  1  0  0  0
 43 44  1  0  0  0
 44112  1  0  0  0
 45 46  2  0  0  0
 45113  1  0  0  0
 46114  1  0  0  0
 47115  1  0  0  0
 47116  1  0  0  0
 48 56  1  0  0  0
 48 65  1  0  0  0
 48117  1  0  0  0
 49 50  1  0  0  0
 49 53  1  0  0  0
 49 64  1  0  0  0
 49118  1  0  0  0
 50 51  1  0  0  0
 50119  1  0  0  0
 50120  1  0  0  0
 51 52  1  0  0  0
 51121  1  0  0  0
 51122  1  0  0  0
 52123  1  0  0  0
 52124  1  0  0  0
 53 54  1  0  0  0
 54 55  2  0  0  0
 54125  1  0  0  0
 55 57  1  0  0  0
 55126  1  0  0  0
 56 69  2  0  0  0
 57 58  2  0  0  0
 57127  1  0  0  0
 58128  1  0  0  0
 59 60  1  0  0  0
 59 61  1  0  0  0
 59 62  1  0  0  0
 60129  1  0  0  0
 60130  1  0  0  0
 60131  1  0  0  0
 61132  1  0  0  0
 61133  1  0  0  0
 61134  1  0  0  0
 62135  1  0  0  0
 62136  1  0  0  0
 62137  1  0  0  0
 63 65  1  0  0  0
 63138  1  0  0  0
 63139  1  0  0  0
 63140  1  0  0  0
 64141  1  0  0  0
 65142  1  0  0  0
 68 81  1  0  0  0
 71 73  2  0  0  0
 71 75  1  0  0  0
 71143  1  0  0  0
 72 74  2  0  0  0
 72 82  1  0  0  0
 72144  1  0  0  0
 73 74  1  0  0  0
 73 81  1  0  0  0
 74 80  1  0  0  0
 75 82  2  0  0  0
 75 79  1  0  0  0
 76 77  1  0  0  0
 76 79  1  0  0  0
 76145  1  0  0  0
 76146  1  0  0  0
 77 83  1  0  0  0
 77147  1  0  0  0
 77148  1  0  0  0
 78 79  1  0  0  0
 78 83  1  0  0  0
 78149  1  0  0  0
 78150  1  0  0  0
 79151  1  0  0  0
 80152  1  0  0  0
 80153  1  0  0  0
 80154  1  0  0  0
 81155  1  0  0  0
 81156  1  0  0  0
M  ISO  4   1 100  68 101  81 101  83 100
M  END
> <chiral flag>
0

> <version>
0

> <s_m_source_file>
/data/baiqing/PycharmProjects/Reinvent-master-3.2/result/LINK_invent/BTK/process_docking_weight1_custom_sum_contain_oxygen_bond_distance_aromatic_linkinvent_7_9_3/rearranged_h_0170.sdf

> <i_m_source_file_index>
83

> <r_mmod_Potential_Energy-OPLS-2005>
655.106140136719

> <r_mmod_Stretch_Energy-OPLS-2005>
294.538696289062

> <r_mmod_Bend_Energy-OPLS-2005>
309.421875

> <r_mmod_Torsional_Energy-OPLS-2005>
305.886138916016

> <r_mmod_Improper_Torsional_Energy-OPLS-2005>
7.15418148040771

> <r_mmod_Van_der_Waal_Energy-OPLS-2005>
131.960052490234

> <r_mmod_Electrostatic_Energy-OPLS-2005>
-415.712188720703

> <r_mmod_Solvation_Energy-OPLS-2005>
-223.638610839844

> <b_mmod_Minimization_Converged-OPLS-2005>
0

> <r_mmod_RMS_Derivative-OPLS-2005>
4.54347324371338

$$$$
84
                    3D
 Structure written by MMmdl.
165175  0  0  1  0            999 V2000
  -30.6810  -14.8065   20.4440 C   0  0  0  0  0  0
  -30.4109  -12.5128   19.4672 C   0  0  0  0  0  0
  -29.4929  -12.5100   18.2289 C   0  0  0  0  0  0
  -28.0262  -12.3242   18.6552 C   0  0  0  0  0  0
  -27.6283  -13.2430   19.8413 C   0  0  2  0  0  0
  -28.6843  -13.2411   20.9682 C   0  0  0  0  0  0
  -25.2449  -13.8210   20.5718 C   0  0  0  0  0  0
  -24.1766  -13.0440   20.9243 C   0  0  0  0  0  0
  -24.6378  -11.6923   20.8779 C   0  0  0  0  0  0
  -23.9067  -10.4291   21.0414 C   0  0  0  0  0  0
  -24.3623   -9.4203   21.9184 C   0  0  0  0  0  0
  -23.6301   -8.2235   22.0747 C   0  0  0  0  0  0
  -22.4286   -8.0271   21.3536 C   0  0  0  0  0  0
  -21.9918   -9.0249   20.4648 C   0  0  0  0  0  0
  -22.7245  -10.2129   20.3063 C   0  0  0  0  0  0
  -21.6850   -6.0727   22.5278 C   0  0  0  0  0  0
  -21.4009   -6.5637   23.8211 C   0  0  0  0  0  0
  -21.3660   -5.6793   24.9176 C   0  0  0  0  0  0
  -21.6052   -4.3054   24.7224 C   0  0  0  0  0  0
  -21.8820   -3.8138   23.4344 C   0  0  0  0  0  0
  -21.9190   -4.6954   22.3398 C   0  0  0  0  0  0
  -22.7789  -13.5218   21.1878 C   0  0  0  0  0  0
  -22.1664   -4.2140   21.0974 F   0  0  0  0  0  0
  -21.5631   -3.4540   25.7735 F   0  0  0  0  0  0
  -29.9564  -13.6262   20.3472 N   0  0  0  0  0  0
  -26.2886  -12.9447   20.3314 N   0  0  0  0  0  0
  -25.9316  -11.6579   20.5802 N   0  0  0  0  0  0
  -22.0439  -12.8215   22.0442 N   0  0  0  0  0  0
  -25.4083  -15.1932   20.4076 N   0  0  0  0  0  0
  -31.8925  -14.7109   20.2284 O   0  0  0  0  0  0
  -21.6645   -6.8872   21.4238 O   0  0  0  0  0  0
  -22.3487  -14.5522   20.6719 O   0  0  0  0  0  0
  -24.6339  -31.8534   23.1973 C   0  0  0  0  0  0
  -25.9149  -32.4750   23.8327 C   0  0  1  0  0  0
  -27.2126  -27.2377   20.1404 C   0  0  0  0  0  0
  -25.5934  -33.8552   24.2243 N   0  0  0  0  0  0
  -23.4331  -30.4752   21.5411 C   0  0  2  0  0  0
  -24.8826  -28.9213   20.1088 C   0  0  0  0  0  0
  -22.7527  -29.4588   22.4900 C   0  0  0  0  0  0
  -18.0295  -28.1396   22.8486 C   0  0  0  0  0  0
  -24.1487  -36.7281   23.2636 C   0  0  0  0  0  0
  -25.9822  -30.7589   21.3826 C   0  0  0  0  0  0
  -26.0560  -29.3800   20.7237 C   0  0  0  0  0  0
  -27.2294  -28.5509   20.7277 C   0  0  0  0  0  0
  -26.0239  -26.8599   19.4832 C   0  0  0  0  0  0
  -24.8728  -27.6709   19.4740 C   0  0  0  0  0  0
  -23.6542  -29.8108   20.1571 C   0  0  0  0  0  0
  -25.4113  -36.3067   24.0324 C   0  0  1  0  0  0
  -20.5902  -28.3707   23.1268 C   0  0  2  0  0  0
  -20.6783  -26.9420   22.5416 C   0  0  0  0  0  0
  -19.5757  -26.6386   21.5224 C   0  0  0  0  0  0
  -18.1937  -26.7937   22.1630 C   0  0  0  0  0  0
  -19.1549  -28.8869   23.2873 C   0  0  0  0  0  0
  -18.9466  -30.1468   23.8888 C   0  0  0  0  0  0
  -17.6464  -30.6595   24.0561 C   0  0  0  0  0  0
  -25.9060  -34.9439   23.5090 C   0  0  0  0  0  0
  -16.5355  -29.9086   23.6334 C   0  0  0  0  0  0
  -16.7282  -28.6508   23.0353 C   0  0  0  0  0  0
  -26.4502  -31.6586   25.0734 C   0  0  0  0  0  0
  -25.3709  -31.3775   26.1451 C   0  0  0  0  0  0
  -27.0332  -30.2981   24.6261 C   0  0  0  0  0  0
  -27.6056  -32.4330   25.7499 C   0  0  0  0  0  0
  -27.5585  -37.1784   24.8454 C   0  0  0  0  0  0
  -21.4226  -29.3042   22.3648 N   0  0  0  0  0  0
  -26.4280  -37.3775   23.9424 N   0  0  0  0  0  0
  -24.7021  -31.0477   22.0960 N   0  0  0  0  0  0
  -23.4213  -28.8124   23.3006 O   0  0  0  0  0  0
  -28.2485  -26.2694   20.1884 O   0  0  0  0  0  0
  -26.5639  -34.8914   22.4663 O   0  0  0  0  0  0
  -23.5481  -32.1368   23.7253 O   0  0  0  0  0  0
  -29.1187  -22.9838   19.5577 C   0  0  0  0  0  0
  -29.4387  -21.5793   19.4181 C   0  0  0  0  0  0
  -28.4075  -23.4920   20.6792 C   0  0  0  0  0  0
  -28.0728  -22.4549   21.6117 C   0  0  0  0  0  0
  -29.0593  -20.6240   20.4212 C   0  0  0  0  0  0
  -29.5722  -21.4584   16.8072 C   0  0  0  0  0  0
  -29.6707  -20.0314   17.2858 C   0  0  0  0  0  0
  -30.7198  -18.7194   20.3853 C   0  0  0  0  0  0
  -28.5336  -18.1729   21.0861 C   0  0  0  0  0  0
  -30.9453  -17.2481   19.8571 C   0  0  0  0  0  0
  -28.7412  -16.6276   20.6843 C   0  0  0  0  0  0
  -30.1602  -21.1592   18.1682 C   0  0  0  0  0  0
  -27.2984  -22.7857   22.8755 C   0  0  0  0  0  0
  -27.9003  -25.0072   20.9397 C   0  0  0  0  0  0
  -28.3783  -21.1163   21.4874 N   0  0  0  0  0  0
  -29.3291  -19.1828   20.3487 N   0  0  0  0  0  0
  -30.1232  -16.1138   20.4145 N   0  0  0  0  0  0
  -31.4492  -12.6145   19.1463 H   0  0  0  0  0  0
  -30.3601  -11.5566   19.9901 H   0  0  0  0  0  0
  -29.7870  -11.7180   17.5388 H   0  0  0  0  0  0
  -29.6030  -13.4498   17.6855 H   0  0  0  0  0  0
  -27.8970  -11.2793   18.9386 H   0  0  0  0  0  0
  -27.3606  -12.4922   17.8069 H   0  0  0  0  0  0
  -27.5982  -14.2496   19.4270 H   0  0  0  0  0  0
  -28.7596  -12.2551   21.4287 H   0  0  0  0  0  0
  -28.4149  -13.9198   21.7744 H   0  0  0  0  0  0
  -25.2754   -9.5697   22.4776 H   0  0  0  0  0  0
  -24.0000   -7.4632   22.7474 H   0  0  0  0  0  0
  -21.0840   -8.8785   19.8970 H   0  0  0  0  0  0
  -22.3687  -10.9677   19.6194 H   0  0  0  0  0  0
  -21.2006   -7.6148   23.9712 H   0  0  0  0  0  0
  -21.1486   -6.0521   25.9082 H   0  0  0  0  0  0
  -22.0599   -2.7598   23.2843 H   0  0  0  0  0  0
  -22.4049  -11.9880   22.4843 H   0  0  0  0  0  0
  -21.1058  -13.1255   22.2643 H   0  0  0  0  0  0
  -24.6315  -15.8387   20.5023 H   0  0  0  0  0  0
  -26.2451  -15.6283   20.0450 H   0  0  0  0  0  0
  -26.7218  -32.5393   23.1071 H   0  0  0  0  0  0
  -25.0058  -33.9681   25.0371 H   0  0  0  0  0  0
  -22.7310  -31.2985   21.3944 H   0  0  0  0  0  0
  -23.3764  -35.9598   23.3268 H   0  0  0  0  0  0
  -24.3582  -36.8939   22.2059 H   0  0  0  0  0  0
  -23.7216  -37.6461   23.6679 H   0  0  0  0  0  0
  -26.1254  -31.5188   20.6129 H   0  0  0  0  0  0
  -26.8579  -30.8076   22.0190 H   0  0  0  0  0  0
  -28.1246  -28.8919   21.2283 H   0  0  0  0  0  0
  -25.9705  -25.8951   18.9984 H   0  0  0  0  0  0
  -23.9769  -27.3162   18.9832 H   0  0  0  0  0  0
  -23.7811  -30.5883   19.4031 H   0  0  0  0  0  0
  -22.7725  -29.2459   19.8498 H   0  0  0  0  0  0
  -25.1289  -36.1906   25.0815 H   0  0  0  0  0  0
  -20.9996  -28.3288   24.1388 H   0  0  0  0  0  0
  -20.5694  -26.2315   23.3623 H   0  0  0  0  0  0
  -21.6647  -26.7440   22.1201 H   0  0  0  0  0  0
  -19.6912  -25.6294   21.1257 H   0  0  0  0  0  0
  -19.6695  -27.3192   20.6752 H   0  0  0  0  0  0
  -17.4210  -26.6692   21.4031 H   0  0  0  0  0  0
  -18.0324  -26.0082   22.9025 H   0  0  0  0  0  0
  -19.7943  -30.7289   24.2252 H   0  0  0  0  0  0
  -17.5018  -31.6272   24.5169 H   0  0  0  0  0  0
  -15.5355  -30.2984   23.7670 H   0  0  0  0  0  0
  -15.8683  -28.0826   22.7063 H   0  0  0  0  0  0
  -24.5863  -30.7146   25.7787 H   0  0  0  0  0  0
  -24.8923  -32.2960   26.4855 H   0  0  0  0  0  0
  -25.8002  -30.8960   27.0246 H   0  0  0  0  0  0
  -26.2920  -29.6741   24.1251 H   0  0  0  0  0  0
  -27.3937  -29.7246   25.4814 H   0  0  0  0  0  0
  -27.8842  -30.4222   23.9558 H   0  0  0  0  0  0
  -27.2659  -33.3631   26.2069 H   0  0  0  0  0  0
  -28.3862  -32.6895   25.0323 H   0  0  0  0  0  0
  -28.0732  -31.8464   26.5420 H   0  0  0  0  0  0
  -28.2571  -38.0113   24.7552 H   0  0  0  0  0  0
  -28.1110  -36.2649   24.6202 H   0  0  0  0  0  0
  -27.2319  -37.1342   25.8858 H   0  0  0  0  0  0
  -20.9423  -29.8762   21.6844 H   0  0  0  0  0  0
  -26.0158  -38.2839   24.1462 H   0  0  0  0  0  0
  -29.4060  -23.6716   18.7751 H   0  0  0  0  0  0
  -28.5739  -21.8895   16.7543 H   0  0  0  0  0  0
  -30.2538  -21.7579   16.0130 H   0  0  0  0  0  0
  -30.4200  -19.4020   16.8089 H   0  0  0  0  0  0
  -28.7450  -19.5277   17.5593 H   0  0  0  0  0  0
  -31.3500  -19.4040   19.8171 H   0  0  0  0  0  0
  -31.0688  -18.7887   21.4169 H   0  0  0  0  0  0
  -28.7649  -18.2907   22.1459 H   0  0  0  0  0  0
  -27.4778  -18.4296   20.9910 H   0  0  0  0  0  0
  -32.0118  -17.0614   19.9879 H   0  0  0  0  0  0
  -30.7887  -17.2446   18.7776 H   0  0  0  0  0  0
  -28.1771  -16.4548   19.7676 H   0  0  0  0  0  0
  -28.2638  -16.0258   21.4533 H   0  0  0  0  0  0
  -31.2359  -21.2803   18.2842 H   0  0  0  0  0  0
  -26.3709  -23.3064   22.6377 H   0  0  0  0  0  0
  -27.8930  -23.4216   23.5312 H   0  0  0  0  0  0
  -27.0326  -21.8866   23.4328 H   0  0  0  0  0  0
  -28.2030  -25.2343   21.9615 H   0  0  0  0  0  0
  -26.8160  -24.9219   20.9983 H   0  0  0  0  0  0
  1 25  1  0  0  0
  1 30  2  0  0  0
  1 87  1  0  0  0
  2  3  1  0  0  0
  2 25  1  0  0  0
  2 88  1  0  0  0
  2 89  1  0  0  0
  3  4  1  0  0  0
  3 90  1  0  0  0
  3 91  1  0  0  0
  4  5  1  0  0  0
  4 92  1  0  0  0
  4 93  1  0  0  0
  5  6  1  0  0  0
  5 26  1  0  0  0
  5 94  1  0  0  0
  6 25  1  0  0  0
  6 95  1  0  0  0
  6 96  1  0  0  0
  7  8  2  0  0  0
  7 26  1  0  0  0
  7 29  1  0  0  0
  8  9  1  0  0  0
  8 22  1  0  0  0
  9 10  1  0  0  0
  9 27  2  0  0  0
 10 11  2  0  0  0
 10 15  1  0  0  0
 11 12  1  0  0  0
 11 97  1  0  0  0
 12 13  2  0  0  0
 12 98  1  0  0  0
 13 14  1  0  0  0
 13 31  1  0  0  0
 14 15  2  0  0  0
 14 99  1  0  0  0
 15100  1  0  0  0
 16 17  2  0  0  0
 16 21  1  0  0  0
 16 31  1  0  0  0
 17 18  1  0  0  0
 17101  1  0  0  0
 18 19  2  0  0  0
 18102  1  0  0  0
 19 20  1  0  0  0
 19 24  1  0  0  0
 20 21  2  0  0  0
 20103  1  0  0  0
 21 23  1  0  0  0
 22 28  1  0  0  0
 22 32  2  0  0  0
 26 27  1  0  0  0
 28104  1  0  0  0
 28105  1  0  0  0
 29106  1  0  0  0
 29107  1  0  0  0
 33 34  1  0  0  0
 33 66  1  0  0  0
 33 70  2  0  0  0
 34 36  1  0  0  0
 34 59  1  0  0  0
 34108  1  0  0  0
 35 44  2  0  0  0
 35 45  1  0  0  0
 35 68  1  0  0  0
 36 56  1  0  0  0
 36109  1  0  0  0
 37 39  1  0  0  0
 37 47  1  0  0  0
 37 66  1  0  0  0
 37110  1  0  0  0
 38 43  2  0  0  0
 38 46  1  0  0  0
 38 47  1  0  0  0
 39 64  1  0  0  0
 39 67  2  0  0  0
 40 52  1  0  0  0
 40 53  2  0  0  0
 40 58  1  0  0  0
 41111  1  0  0  0
 41112  1  0  0  0
 41113  1  0  0  0
 41 48  1  0  0  0
 42 43  1  0  0  0
 42 66  1  0  0  0
 42114  1  0  0  0
 42115  1  0  0  0
 43 44  1  0  0  0
 44116  1  0  0  0
 45 46  2  0  0  0
 45117  1  0  0  0
 46118  1  0  0  0
 47119  1  0  0  0
 47120  1  0  0  0
 48 56  1  0  0  0
 48 65  1  0  0  0
 48121  1  0  0  0
 49 50  1  0  0  0
 49 53  1  0  0  0
 49 64  1  0  0  0
 49122  1  0  0  0
 50 51  1  0  0  0
 50123  1  0  0  0
 50124  1  0  0  0
 51 52  1  0  0  0
 51125  1  0  0  0
 51126  1  0  0  0
 52127  1  0  0  0
 52128  1  0  0  0
 53 54  1  0  0  0
 54 55  2  0  0  0
 54129  1  0  0  0
 55 57  1  0  0  0
 55130  1  0  0  0
 56 69  2  0  0  0
 57 58  2  0  0  0
 57131  1  0  0  0
 58132  1  0  0  0
 59 60  1  0  0  0
 59 61  1  0  0  0
 59 62  1  0  0  0
 60133  1  0  0  0
 60134  1  0  0  0
 60135  1  0  0  0
 61136  1  0  0  0
 61137  1  0  0  0
 61138  1  0  0  0
 62139  1  0  0  0
 62140  1  0  0  0
 62141  1  0  0  0
 63 65  1  0  0  0
 63142  1  0  0  0
 63143  1  0  0  0
 63144  1  0  0  0
 64145  1  0  0  0
 65146  1  0  0  0
 68 84  1  0  0  0
 71 72  2  0  0  0
 71 73  1  0  0  0
 71147  1  0  0  0
 72 75  1  0  0  0
 72 82  1  0  0  0
 73 74  2  0  0  0
 73 84  1  0  0  0
 74 83  1  0  0  0
 74 85  1  0  0  0
 75 85  2  0  0  0
 75 86  1  0  0  0
 76 77  1  0  0  0
 76 82  1  0  0  0
 76148  1  0  0  0
 76149  1  0  0  0
 77 82  1  0  0  0
 77150  1  0  0  0
 77151  1  0  0  0
 78 80  1  0  0  0
 78 86  1  0  0  0
 78152  1  0  0  0
 78153  1  0  0  0
 79 81  1  0  0  0
 79 86  1  0  0  0
 79154  1  0  0  0
 79155  1  0  0  0
 80 87  1  0  0  0
 80156  1  0  0  0
 80157  1  0  0  0
 81 87  1  0  0  0
 81158  1  0  0  0
 81159  1  0  0  0
 82160  1  0  0  0
 83161  1  0  0  0
 83162  1  0  0  0
 83163  1  0  0  0
 84164  1  0  0  0
 84165  1  0  0  0
M  ISO  4   1 100  68 101  84 101  87 100
M  END
> <chiral flag>
0

> <version>
0

> <s_m_source_file>
/data/baiqing/PycharmProjects/Reinvent-master-3.2/result/LINK_invent/BTK/process_docking_weight1_custom_sum_contain_oxygen_bond_distance_aromatic_linkinvent_7_9_3/rearranged_h_0170.sdf

> <i_m_source_file_index>
84

> <r_mmod_Potential_Energy-OPLS-2005>
334.609527587891

> <r_mmod_Stretch_Energy-OPLS-2005>
138.496353149414

> <r_mmod_Bend_Energy-OPLS-2005>
242.730407714844

> <r_mmod_Torsional_Energy-OPLS-2005>
388.125732421875

> <r_mmod_Improper_Torsional_Energy-OPLS-2005>
13.7689609527588

> <r_mmod_Van_der_Waal_Energy-OPLS-2005>
148.626953125

> <r_mmod_Electrostatic_Energy-OPLS-2005>
-495.862609863281

> <r_mmod_Solvation_Energy-OPLS-2005>
-221.032485961914

> <b_mmod_Minimization_Converged-OPLS-2005>
0

> <r_mmod_RMS_Derivative-OPLS-2005>
1.36820101737976

$$$$
85
                    3D
 Structure written by MMmdl.
167177  0  0  1  0            999 V2000
  -30.6034  -14.6943   20.5968 C   0  0  0  0  0  0
  -30.4633  -12.4601   19.4583 C   0  0  0  0  0  0
  -29.5162  -12.5139   18.2376 C   0  0  0  0  0  0
  -28.0361  -12.3261   18.6403 C   0  0  0  0  0  0
  -27.6554  -13.2023   19.8633 C   0  0  2  0  0  0
  -28.7068  -12.9993   20.9686 C   0  0  0  0  0  0
  -25.2495  -13.8162   20.5734 C   0  0  0  0  0  0
  -24.1811  -13.0416   20.9278 C   0  0  0  0  0  0
  -24.6383  -11.6885   20.8774 C   0  0  0  0  0  0
  -23.9035  -10.4291   21.0395 C   0  0  0  0  0  0
  -24.3564   -9.4199   21.9175 C   0  0  0  0  0  0
  -23.6266   -8.2241   22.0772 C   0  0  0  0  0  0
  -22.4216   -8.0317   21.3599 C   0  0  0  0  0  0
  -21.9937   -9.0285   20.4655 C   0  0  0  0  0  0
  -22.7227  -10.2140   20.3016 C   0  0  0  0  0  0
  -21.6873   -6.0762   22.5302 C   0  0  0  0  0  0
  -21.3995   -6.5608   23.8262 C   0  0  0  0  0  0
  -21.3681   -5.6754   24.9168 C   0  0  0  0  0  0
  -21.6064   -4.3015   24.7173 C   0  0  0  0  0  0
  -21.8814   -3.8129   23.4281 C   0  0  0  0  0  0
  -21.9165   -4.6986   22.3387 C   0  0  0  0  0  0
  -22.7780  -13.5170   21.1932 C   0  0  0  0  0  0
  -22.1623   -4.2173   21.0968 F   0  0  0  0  0  0
  -21.5690   -3.4493   25.7682 F   0  0  0  0  0  0
  -29.9891  -13.4622   20.4404 N   0  0  0  0  0  0
  -26.2982  -12.9339   20.3317 N   0  0  0  0  0  0
  -25.9285  -11.6498   20.5646 N   0  0  0  0  0  0
  -22.0448  -12.8165   22.0513 N   0  0  0  0  0  0
  -25.3834  -15.1924   20.4335 N   0  0  0  0  0  0
  -31.7828  -14.8006   20.2671 O   0  0  0  0  0  0
  -21.6606   -6.8928   21.4290 O   0  0  0  0  0  0
  -22.3307  -14.5372   20.6777 O   0  0  0  0  0  0
  -24.6294  -31.8604   23.1961 C   0  0  0  0  0  0
  -25.9107  -32.4785   23.8322 C   0  0  1  0  0  0
  -27.2369  -27.2944   20.1491 C   0  0  0  0  0  0
  -25.5897  -33.8590   24.2246 N   0  0  0  0  0  0
  -23.4256  -30.4780   21.5408 C   0  0  2  0  0  0
  -24.8765  -28.9272   20.1125 C   0  0  0  0  0  0
  -22.7513  -29.4612   22.4893 C   0  0  0  0  0  0
  -18.0292  -28.1401   22.8514 C   0  0  0  0  0  0
  -24.1473  -36.7336   23.2653 C   0  0  0  0  0  0
  -25.9663  -30.7878   21.3625 C   0  0  0  0  0  0
  -26.0448  -29.4097   20.7166 C   0  0  0  0  0  0
  -27.2300  -28.6101   20.7184 C   0  0  0  0  0  0
  -26.0482  -26.8758   19.5082 C   0  0  0  0  0  0
  -24.8840  -27.6674   19.4937 C   0  0  0  0  0  0
  -23.6439  -29.8100   20.1574 C   0  0  0  0  0  0
  -25.4099  -36.3114   24.0335 C   0  0  1  0  0  0
  -20.5916  -28.3695   23.1274 C   0  0  2  0  0  0
  -20.6760  -26.9397   22.5414 C   0  0  0  0  0  0
  -19.5735  -26.6367   21.5227 C   0  0  0  0  0  0
  -18.1922  -26.7940   22.1641 C   0  0  0  0  0  0
  -19.1549  -28.8841   23.2889 C   0  0  0  0  0  0
  -18.9481  -30.1455   23.8912 C   0  0  0  0  0  0
  -17.6473  -30.6581   24.0577 C   0  0  0  0  0  0
  -25.9034  -34.9459   23.5106 C   0  0  0  0  0  0
  -16.5370  -29.9094   23.6335 C   0  0  0  0  0  0
  -16.7269  -28.6517   23.0338 C   0  0  0  0  0  0
  -26.4449  -31.6640   25.0728 C   0  0  0  0  0  0
  -25.3663  -31.3821   26.1451 C   0  0  0  0  0  0
  -27.0317  -30.3087   24.6185 C   0  0  0  0  0  0
  -27.5970  -32.4396   25.7520 C   0  0  0  0  0  0
  -27.5562  -37.1846   24.8462 C   0  0  0  0  0  0
  -21.4225  -29.3054   22.3687 N   0  0  0  0  0  0
  -26.4287  -37.3784   23.9380 N   0  0  0  0  0  0
  -24.6930  -31.0586   22.0940 N   0  0  0  0  0  0
  -23.4216  -28.8179   23.3003 O   0  0  0  0  0  0
  -28.3481  -26.4246   20.1963 O   0  0  0  0  0  0
  -26.5632  -34.8956   22.4675 O   0  0  0  0  0  0
  -23.5440  -32.1387   23.7305 O   0  0  0  0  0  0
  -30.3792  -17.3528   20.6176 C   0  0  0  0  0  0
  -29.8208  -16.0361   20.8329 C   0  0  0  0  0  0
  -29.5206  -18.5015   20.3812 C   0  0  0  0  0  0
  -28.2187  -18.1107   20.0118 C   0  0  0  0  0  0
  -28.4607  -16.1294   21.2207 C   0  0  0  0  0  0
  -28.0987  -17.6149   17.4617 C   0  0  0  0  0  0
  -28.5851  -19.0342   17.5665 C   0  0  0  0  0  0
  -29.5647  -20.4642   22.0660 C   0  0  0  0  0  0
  -29.4930  -22.0112   22.0556 C   0  0  0  0  0  0
  -29.3449  -21.2720   19.7977 C   0  0  0  0  0  0
  -29.9070  -20.0291   20.6328 C   0  0  2  0  0  0
  -27.6739  -18.4766   18.6459 C   0  0  0  0  0  0
  -28.0206  -15.8042   22.6547 C   0  0  0  0  0  0
  -29.2671  -23.8864   20.3126 C   0  0  0  0  0  0
  -28.1206  -24.9886   20.5600 C   0  0  0  0  0  0
  -27.6531  -17.0184   20.5841 N   0  0  0  0  0  0
  -28.9804  -22.4229   20.7226 N   0  3  2  0  0  0
  -31.4920  -12.6405   19.1393 H   0  0  0  0  0  0
  -30.4559  -11.4622   19.8920 H   0  0  0  0  0  0
  -29.7945  -11.7490   17.5127 H   0  0  0  0  0  0
  -29.6350  -13.4735   17.7379 H   0  0  0  0  0  0
  -27.8957  -11.2736   18.8944 H   0  0  0  0  0  0
  -27.3791  -12.5261   17.7901 H   0  0  0  0  0  0
  -27.6812  -14.2378   19.5227 H   0  0  0  0  0  0
  -28.7486  -11.9317   21.2068 H   0  0  0  0  0  0
  -28.4839  -13.4494   21.9250 H   0  0  0  0  0  0
  -25.2757   -9.5682   22.4625 H   0  0  0  0  0  0
  -24.0090   -7.4542   22.7381 H   0  0  0  0  0  0
  -21.0951   -8.8693   19.8859 H   0  0  0  0  0  0
  -22.3733  -10.9629   19.6008 H   0  0  0  0  0  0
  -21.1936   -7.6090   23.9755 H   0  0  0  0  0  0
  -21.1575   -6.0443   25.9123 H   0  0  0  0  0  0
  -22.0592   -2.7589   23.2682 H   0  0  0  0  0  0
  -22.4121  -12.0000   22.5088 H   0  0  0  0  0  0
  -21.1078  -13.1247   22.2749 H   0  0  0  0  0  0
  -24.6290  -15.8132   20.7032 H   0  0  0  0  0  0
  -26.2524  -15.7162   20.3180 H   0  0  0  0  0  0
  -26.7189  -32.5474   23.1078 H   0  0  0  0  0  0
  -24.9987  -33.9692   25.0369 H   0  0  0  0  0  0
  -22.7226  -31.3015   21.3946 H   0  0  0  0  0  0
  -23.3700  -35.9712   23.3371 H   0  0  0  0  0  0
  -24.3538  -36.8898   22.2055 H   0  0  0  0  0  0
  -23.7278  -37.6580   23.6625 H   0  0  0  0  0  0
  -26.0829  -31.5389   20.5815 H   0  0  0  0  0  0
  -26.8541  -30.8544   21.9810 H   0  0  0  0  0  0
  -28.1251  -28.9907   21.1883 H   0  0  0  0  0  0
  -25.9980  -25.9221   19.0030 H   0  0  0  0  0  0
  -23.9926  -27.2926   19.0079 H   0  0  0  0  0  0
  -23.7624  -30.5826   19.4004 H   0  0  0  0  0  0
  -22.7644  -29.2333   19.8594 H   0  0  0  0  0  0
  -25.1292  -36.1979   25.0833 H   0  0  0  0  0  0
  -21.0011  -28.3233   24.1398 H   0  0  0  0  0  0
  -20.5617  -26.2304   23.3619 H   0  0  0  0  0  0
  -21.6612  -26.7369   22.1232 H   0  0  0  0  0  0
  -19.6854  -25.6274   21.1253 H   0  0  0  0  0  0
  -19.6674  -27.3164   20.6761 H   0  0  0  0  0  0
  -17.4195  -26.6711   21.4045 H   0  0  0  0  0  0
  -18.0298  -26.0072   22.9032 H   0  0  0  0  0  0
  -19.7933  -30.7271   24.2273 H   0  0  0  0  0  0
  -17.5013  -31.6262   24.5186 H   0  0  0  0  0  0
  -15.5365  -30.2983   23.7632 H   0  0  0  0  0  0
  -15.8684  -28.0831   22.7015 H   0  0  0  0  0  0
  -24.5756  -30.7265   25.7758 H   0  0  0  0  0  0
  -24.8950  -32.3028   26.4893 H   0  0  0  0  0  0
  -25.7930  -30.8941   27.0218 H   0  0  0  0  0  0
  -26.2935  -29.6857   24.1126 H   0  0  0  0  0  0
  -27.3953  -29.7306   25.4678 H   0  0  0  0  0  0
  -27.8784  -30.4403   23.9459 H   0  0  0  0  0  0
  -27.2528  -33.3678   26.2082 H   0  0  0  0  0  0
  -28.3791  -32.7010   25.0389 H   0  0  0  0  0  0
  -28.0622  -31.8568   26.5473 H   0  0  0  0  0  0
  -28.2625  -38.0100   24.7425 H   0  0  0  0  0  0
  -28.1024  -36.2630   24.6386 H   0  0  0  0  0  0
  -27.2281  -37.1608   25.8872 H   0  0  0  0  0  0
  -20.9385  -29.8837   21.6964 H   0  0  0  0  0  0
  -26.0200  -38.2888   24.1298 H   0  0  0  0  0  0
  -31.4460  -17.4732   20.6207 H   0  0  0  0  0  0
  -28.8299  -16.8216   17.6459 H   0  0  0  0  0  0
  -27.4010  -17.4111   16.6548 H   0  0  0  0  0  0
  -28.1683  -19.7506   16.8597 H   0  0  0  0  0  0
  -29.6382  -19.1811   17.8090 H   0  0  0  0  0  0
  -28.5873  -20.0705   22.3476 H   0  0  0  0  0  0
  -30.2759  -20.0752   22.7966 H   0  0  0  0  0  0
  -30.4999  -22.3984   22.1931 H   0  0  0  0  0  0
  -28.8703  -22.3917   22.8631 H   0  0  0  0  0  0
  -28.4441  -21.0411   19.2392 H   0  0  0  0  0  0
  -30.1018  -21.5929   19.0763 H   0  0  0  0  0  0
  -30.9868  -20.0611   20.5136 H   0  0  0  0  0  0
  -26.6350  -18.8096   18.6733 H   0  0  0  0  0  0
  -27.3325  -14.9608   22.7222 H   0  0  0  0  0  0
  -27.4910  -16.6702   23.0649 H   0  0  0  0  0  0
  -28.8744  -15.6368   23.3294 H   0  0  0  0  0  0
  -30.1697  -24.2201   20.8279 H   0  0  0  0  0  0
  -29.5260  -23.9091   19.2538 H   0  0  0  0  0  0
  -27.8749  -24.9786   21.6231 H   0  0  0  0  0  0
  -27.2290  -24.6013   20.0709 H   0  0  0  0  0  0
  -27.9768  -22.3519   20.7854 H   0  0  0  0  0  0
  1 25  1  0  0  0
  1 30  2  0  0  0
  1 72  1  0  0  0
  2  3  1  0  0  0
  2 25  1  0  0  0
  2 88  1  0  0  0
  2 89  1  0  0  0
  3  4  1  0  0  0
  3 90  1  0  0  0
  3 91  1  0  0  0
  4  5  1  0  0  0
  4 92  1  0  0  0
  4 93  1  0  0  0
  5  6  1  0  0  0
  5 26  1  0  0  0
  5 94  1  0  0  0
  6 25  1  0  0  0
  6 95  1  0  0  0
  6 96  1  0  0  0
  7  8  2  0  0  0
  7 26  1  0  0  0
  7 29  1  0  0  0
  8  9  1  0  0  0
  8 22  1  0  0  0
  9 10  1  0  0  0
  9 27  2  0  0  0
 10 11  2  0  0  0
 10 15  1  0  0  0
 11 12  1  0  0  0
 11 97  1  0  0  0
 12 13  2  0  0  0
 12 98  1  0  0  0
 13 14  1  0  0  0
 13 31  1  0  0  0
 14 15  2  0  0  0
 14 99  1  0  0  0
 15100  1  0  0  0
 16 17  2  0  0  0
 16 21  1  0  0  0
 16 31  1  0  0  0
 17 18  1  0  0  0
 17101  1  0  0  0
 18 19  2  0  0  0
 18102  1  0  0  0
 19 20  1  0  0  0
 19 24  1  0  0  0
 20 21  2  0  0  0
 20103  1  0  0  0
 21 23  1  0  0  0
 22 28  1  0  0  0
 22 32  2  0  0  0
 26 27  1  0  0  0
 28104  1  0  0  0
 28105  1  0  0  0
 29106  1  0  0  0
 29107  1  0  0  0
 33 34  1  0  0  0
 33 66  1  0  0  0
 33 70  2  0  0  0
 34 36  1  0  0  0
 34 59  1  0  0  0
 34108  1  0  0  0
 35 44  2  0  0  0
 35 45  1  0  0  0
 35 68  1  0  0  0
 36 56  1  0  0  0
 36109  1  0  0  0
 37 39  1  0  0  0
 37 47  1  0  0  0
 37 66  1  0  0  0
 37110  1  0  0  0
 38 43  2  0  0  0
 38 46  1  0  0  0
 38 47  1  0  0  0
 39 64  1  0  0  0
 39 67  2  0  0  0
 40 52  1  0  0  0
 40 53  2  0  0  0
 40 58  1  0  0  0
 41111  1  0  0  0
 41112  1  0  0  0
 41113  1  0  0  0
 41 48  1  0  0  0
 42 43  1  0  0  0
 42 66  1  0  0  0
 42114  1  0  0  0
 42115  1  0  0  0
 43 44  1  0  0  0
 44116  1  0  0  0
 45 46  2  0  0  0
 45117  1  0  0  0
 46118  1  0  0  0
 47119  1  0  0  0
 47120  1  0  0  0
 48 56  1  0  0  0
 48 65  1  0  0  0
 48121  1  0  0  0
 49 50  1  0  0  0
 49 53  1  0  0  0
 49 64  1  0  0  0
 49122  1  0  0  0
 50 51  1  0  0  0
 50123  1  0  0  0
 50124  1  0  0  0
 51 52  1  0  0  0
 51125  1  0  0  0
 51126  1  0  0  0
 52127  1  0  0  0
 52128  1  0  0  0
 53 54  1  0  0  0
 54 55  2  0  0  0
 54129  1  0  0  0
 55 57  1  0  0  0
 55130  1  0  0  0
 56 69  2  0  0  0
 57 58  2  0  0  0
 57131  1  0  0  0
 58132  1  0  0  0
 59 60  1  0  0  0
 59 61  1  0  0  0
 59 62  1  0  0  0
 60133  1  0  0  0
 60134  1  0  0  0
 60135  1  0  0  0
 61136  1  0  0  0
 61137  1  0  0  0
 61138  1  0  0  0
 62139  1  0  0  0
 62140  1  0  0  0
 62141  1  0  0  0
 63 65  1  0  0  0
 63142  1  0  0  0
 63143  1  0  0  0
 63144  1  0  0  0
 64145  1  0  0  0
 65146  1  0  0  0
 68 85  1  0  0  0
 71 72  2  0  0  0
 71 73  1  0  0  0
 71147  1  0  0  0
 72 75  1  0  0  0
 73 74  2  0  0  0
 73 81  1  0  0  0
 74 86  1  0  0  0
 74 82  1  0  0  0
 75 83  1  0  0  0
 75 86  2  0  0  0
 76 77  1  0  0  0
 76 82  1  0  0  0
 76148  1  0  0  0
 76149  1  0  0  0
 77 82  1  0  0  0
 77150  1  0  0  0
 77151  1  0  0  0
 78 79  1  0  0  0
 78 81  1  0  0  0
 78152  1  0  0  0
 78153  1  0  0  0
 79 87  1  0  0  0
 79154  1  0  0  0
 79155  1  0  0  0
 80 81  1  0  0  0
 80 87  1  0  0  0
 80156  1  0  0  0
 80157  1  0  0  0
 81158  1  0  0  0
 82159  1  0  0  0
 83160  1  0  0  0
 83161  1  0  0  0
 83162  1  0  0  0
 84 85  1  0  0  0
 84163  1  0  0  0
 84164  1  0  0  0
 84 87  1  0  0  0
 85165  1  0  0  0
 85166  1  0  0  0
 87167  1  0  0  0
M  CHG  1  87   1
M  ISO  4   1 100  68 101  72 100  85 101
M  END
> <chiral flag>
0

> <version>
0

> <s_m_source_file>
/data/baiqing/PycharmProjects/Reinvent-master-3.2/result/LINK_invent/BTK/process_docking_weight1_custom_sum_contain_oxygen_bond_distance_aromatic_linkinvent_7_9_3/rearranged_h_0170.sdf

> <i_m_source_file_index>
85

> <r_mmod_Potential_Energy-OPLS-2005>
310.210693359375

> <r_mmod_Stretch_Energy-OPLS-2005>
114.871612548828

> <r_mmod_Bend_Energy-OPLS-2005>
204.727966308594

> <r_mmod_Torsional_Energy-OPLS-2005>
535.210205078125

> <r_mmod_Improper_Torsional_Energy-OPLS-2005>
21.5498847961426

> <r_mmod_Van_der_Waal_Energy-OPLS-2005>
145.942687988281

> <r_mmod_Electrostatic_Energy-OPLS-2005>
-362.15380859375

> <r_mmod_Solvation_Energy-OPLS-2005>
-415.132263183594

> <b_mmod_Minimization_Converged-OPLS-2005>
0

> <r_mmod_RMS_Derivative-OPLS-2005>
10.8787746429443

$$$$
86
                    3D
 Structure written by MMmdl.
164173  0  0  1  0            999 V2000
  -30.6513  -14.8877   20.4402 C   0  0  0  0  0  0
  -30.4174  -12.5641   19.4810 C   0  0  0  0  0  0
  -29.5020  -12.5034   18.2417 C   0  0  0  0  0  0
  -28.0433  -12.2793   18.6727 C   0  0  0  0  0  0
  -27.6197  -13.2279   19.8207 C   0  0  2  0  0  0
  -28.6684  -13.3083   20.9544 C   0  0  0  0  0  0
  -25.2454  -13.8162   20.5701 C   0  0  0  0  0  0
  -24.1762  -13.0413   20.9239 C   0  0  0  0  0  0
  -24.6361  -11.6894   20.8784 C   0  0  0  0  0  0
  -23.9048  -10.4273   21.0436 C   0  0  0  0  0  0
  -24.3607   -9.4189   21.9205 C   0  0  0  0  0  0
  -23.6283   -8.2225   22.0765 C   0  0  0  0  0  0
  -22.4268   -8.0265   21.3547 C   0  0  0  0  0  0
  -21.9905   -9.0241   20.4653 C   0  0  0  0  0  0
  -22.7232  -10.2119   20.3071 C   0  0  0  0  0  0
  -21.6845   -6.0728   22.5278 C   0  0  0  0  0  0
  -21.4005   -6.5635   23.8211 C   0  0  0  0  0  0
  -21.3659   -5.6791   24.9177 C   0  0  0  0  0  0
  -21.6048   -4.3054   24.7229 C   0  0  0  0  0  0
  -21.8820   -3.8143   23.4351 C   0  0  0  0  0  0
  -21.9190   -4.6957   22.3406 C   0  0  0  0  0  0
  -22.7788  -13.5206   21.1878 C   0  0  0  0  0  0
  -22.1659   -4.2142   21.0982 F   0  0  0  0  0  0
  -21.5634   -3.4540   25.7743 F   0  0  0  0  0  0
  -29.9438  -13.6921   20.3377 N   0  0  0  0  0  0
  -26.2842  -12.9350   20.3218 N   0  0  0  0  0  0
  -25.9283  -11.6508   20.5768 N   0  0  0  0  0  0
  -22.0425  -12.8204   22.0431 N   0  0  0  0  0  0
  -25.4119  -15.1882   20.4089 N   0  0  0  0  0  0
  -31.8621  -14.8161   20.2045 O   0  0  0  0  0  0
  -21.6632   -6.8865   21.4237 O   0  0  0  0  0  0
  -22.3484  -14.5511   20.6713 O   0  0  0  0  0  0
  -24.6398  -31.8477   23.1907 C   0  0  0  0  0  0
  -25.9186  -32.4709   23.8283 C   0  0  1  0  0  0
  -27.2176  -27.1763   20.1363 C   0  0  0  0  0  0
  -25.5949  -33.8517   24.2202 N   0  0  0  0  0  0
  -23.4396  -30.4698   21.5353 C   0  0  2  0  0  0
  -24.8864  -28.9027   20.1066 C   0  0  0  0  0  0
  -22.7541  -29.4577   22.4862 C   0  0  0  0  0  0
  -18.0295  -28.1396   22.8478 C   0  0  0  0  0  0
  -24.1489  -36.7261   23.2641 C   0  0  0  0  0  0
  -25.9923  -30.7327   21.3842 C   0  0  0  0  0  0
  -26.0613  -29.3491   20.7231 C   0  0  0  0  0  0
  -27.2229  -28.4988   20.7259 C   0  0  0  0  0  0
  -26.0126  -26.8168   19.4898 C   0  0  0  0  0  0
  -24.8724  -27.6487   19.4786 C   0  0  0  0  0  0
  -23.6618  -29.8010   20.1530 C   0  0  0  0  0  0
  -25.4119  -36.3045   24.0320 C   0  0  1  0  0  0
  -20.5906  -28.3728   23.1226 C   0  0  2  0  0  0
  -20.6782  -26.9434   22.5394 C   0  0  0  0  0  0
  -19.5754  -26.6383   21.5205 C   0  0  0  0  0  0
  -18.1934  -26.7929   22.1623 C   0  0  0  0  0  0
  -19.1554  -28.8875   23.2845 C   0  0  0  0  0  0
  -18.9485  -30.1470   23.8879 C   0  0  0  0  0  0
  -17.6489  -30.6599   24.0561 C   0  0  0  0  0  0
  -25.9074  -34.9420   23.5064 C   0  0  0  0  0  0
  -16.5373  -29.9104   23.6334 C   0  0  0  0  0  0
  -16.7282  -28.6515   23.0360 C   0  0  0  0  0  0
  -26.4511  -31.6574   25.0726 C   0  0  0  0  0  0
  -25.3694  -31.3773   26.1420 C   0  0  0  0  0  0
  -27.0378  -30.2975   24.6308 C   0  0  0  0  0  0
  -27.6040  -32.4348   25.7506 C   0  0  0  0  0  0
  -27.5568  -37.1786   24.8462 C   0  0  0  0  0  0
  -21.4238  -29.3065   22.3608 N   0  0  0  0  0  0
  -26.4278  -37.3762   23.9413 N   0  0  0  0  0  0
  -24.7100  -31.0374   22.0921 N   0  0  0  0  0  0
  -23.4202  -28.8118   23.2994 O   0  0  0  0  0  0
  -28.2965  -26.2393   20.2554 O   0  0  0  0  0  0
  -26.5658  -34.8916   22.4643 O   0  0  0  0  0  0
  -23.5533  -32.1331   23.7159 O   0  0  0  0  0  0
  -29.1395  -22.5274   17.9231 C   0  0  0  0  0  0
  -29.5364  -21.5141   17.1255 C   0  0  0  0  0  0
  -29.6444  -20.3578   17.9309 C   0  0  0  0  0  0
  -29.3188  -20.6650   19.2500 C   0  0  0  0  0  0
  -28.4231  -18.2068   20.0342 C   0  0  0  0  0  0
  -30.7818  -18.7871   20.5287 C   0  0  0  0  0  0
  -28.6991  -16.7277   20.6268 C   0  0  0  0  0  0
  -30.9102  -17.3369   21.1890 C   0  0  0  0  0  0
  -29.3633  -19.4640   20.3361 C   0  0  0  0  0  0
  -29.8171  -21.6199   15.6473 C   0  0  0  0  0  0
  -30.0743  -19.0477   17.2860 C   0  0  0  0  0  0
  -28.6445  -23.3043   20.2285 C   0  0  0  0  0  0
  -28.3812  -24.8503   19.5982 C   0  0  0  0  0  0
  -29.0192  -22.1358   19.2504 N   0  0  0  0  0  0
  -30.0938  -16.1874   20.6617 N   0  0  0  0  0  0
  -31.4527  -12.6823   19.1554 H   0  0  0  0  0  0
  -30.3910  -11.6220   20.0311 H   0  0  0  0  0  0
  -29.8215  -11.7030   17.5724 H   0  0  0  0  0  0
  -29.5852  -13.4312   17.6739 H   0  0  0  0  0  0
  -27.9504  -11.2424   18.9976 H   0  0  0  0  0  0
  -27.3739  -12.3929   17.8195 H   0  0  0  0  0  0
  -27.5561  -14.1945   19.3322 H   0  0  0  0  0  0
  -28.7579  -12.3546   21.4771 H   0  0  0  0  0  0
  -28.3723  -14.0455   21.7017 H   0  0  0  0  0  0
  -25.2745   -9.5667   22.4788 H   0  0  0  0  0  0
  -23.9989   -7.4615   22.7485 H   0  0  0  0  0  0
  -21.0839   -8.8761   19.8956 H   0  0  0  0  0  0
  -22.3694  -10.9662   19.6184 H   0  0  0  0  0  0
  -21.1986   -7.6142   23.9707 H   0  0  0  0  0  0
  -21.1484   -6.0525   25.9077 H   0  0  0  0  0  0
  -22.0599   -2.7605   23.2856 H   0  0  0  0  0  0
  -22.4026  -11.9866   22.4829 H   0  0  0  0  0  0
  -21.1041  -13.1239   22.2620 H   0  0  0  0  0  0
  -24.6433  -15.8408   20.5192 H   0  0  0  0  0  0
  -26.2592  -15.6273   20.0762 H   0  0  0  0  0  0
  -26.7245  -32.5319   23.1008 H   0  0  0  0  0  0
  -25.0071  -33.9627   25.0334 H   0  0  0  0  0  0
  -22.7407  -31.2951   21.3857 H   0  0  0  0  0  0
  -23.3762  -35.9581   23.3299 H   0  0  0  0  0  0
  -24.3566  -36.8898   22.2052 H   0  0  0  0  0  0
  -23.7239  -37.6457   23.6679 H   0  0  0  0  0  0
  -26.1480  -31.4900   20.6148 H   0  0  0  0  0  0
  -26.8623  -30.7753   22.0282 H   0  0  0  0  0  0
  -28.1170  -28.8346   21.2318 H   0  0  0  0  0  0
  -25.8919  -25.8528   19.0243 H   0  0  0  0  0  0
  -23.9695  -27.2984   18.9984 H   0  0  0  0  0  0
  -23.7946  -30.5766   19.3981 H   0  0  0  0  0  0
  -22.7766  -29.2422   19.8453 H   0  0  0  0  0  0
  -25.1313  -36.1866   25.0815 H   0  0  0  0  0  0
  -20.9999  -28.3319   24.1344 H   0  0  0  0  0  0
  -20.5667  -26.2352   23.3620 H   0  0  0  0  0  0
  -21.6650  -26.7430   22.1203 H   0  0  0  0  0  0
  -19.6922  -25.6287   21.1252 H   0  0  0  0  0  0
  -19.6681  -27.3177   20.6723 H   0  0  0  0  0  0
  -17.4200  -26.6661   21.4029 H   0  0  0  0  0  0
  -18.0348  -26.0067   22.9021 H   0  0  0  0  0  0
  -19.7967  -30.7280   24.2240 H   0  0  0  0  0  0
  -17.5055  -31.6277   24.5174 H   0  0  0  0  0  0
  -15.5378  -30.3019   23.7674 H   0  0  0  0  0  0
  -15.8669  -28.0839   22.7097 H   0  0  0  0  0  0
  -24.5875  -30.7121   25.7742 H   0  0  0  0  0  0
  -24.8880  -32.2967   26.4774 H   0  0  0  0  0  0
  -25.7956  -30.8991   27.0249 H   0  0  0  0  0  0
  -26.2997  -29.6709   24.1286 H   0  0  0  0  0  0
  -27.3962  -29.7271   25.4892 H   0  0  0  0  0  0
  -27.8923  -30.4222   23.9649 H   0  0  0  0  0  0
  -27.2619  -33.3666   26.2025 H   0  0  0  0  0  0
  -28.3865  -32.6877   25.0338 H   0  0  0  0  0  0
  -28.0693  -31.8520   26.5468 H   0  0  0  0  0  0
  -28.2589  -38.0079   24.7516 H   0  0  0  0  0  0
  -28.1061  -36.2613   24.6291 H   0  0  0  0  0  0
  -27.2278  -37.1438   25.8860 H   0  0  0  0  0  0
  -20.9441  -29.8787   21.6796 H   0  0  0  0  0  0
  -26.0149  -38.2833   24.1424 H   0  0  0  0  0  0
  -28.9578  -23.5352   17.5893 H   0  0  0  0  0  0
  -27.4097  -18.4906   20.3212 H   0  0  0  0  0  0
  -28.3275  -18.0787   18.9606 H   0  0  0  0  0  0
  -31.3183  -18.7442   19.5863 H   0  0  0  0  0  0
  -31.3895  -19.4780   21.1140 H   0  0  0  0  0  0
  -28.0831  -16.0480   20.0565 H   0  0  0  0  0  0
  -28.3155  -16.6830   21.6473 H   0  0  0  0  0  0
  -30.6612  -17.4314   22.2470 H   0  0  0  0  0  0
  -31.9690  -17.0749   21.1841 H   0  0  0  0  0  0
  -29.0612  -19.8654   21.3043 H   0  0  0  0  0  0
  -29.4496  -22.5647   15.2447 H   0  0  0  0  0  0
  -29.3384  -20.8087   15.0987 H   0  0  0  0  0  0
  -30.8911  -21.5691   15.4671 H   0  0  0  0  0  0
  -31.0456  -19.1791   16.8084 H   0  0  0  0  0  0
  -29.3631  -18.7686   16.5089 H   0  0  0  0  0  0
  -30.1633  -18.1903   17.9435 H   0  0  0  0  0  0
  -27.7556  -22.9955   20.7790 H   0  0  0  0  0  0
  -29.4452  -23.3658   20.9660 H   0  0  0  0  0  0
  -27.5949  -24.7505   18.8563 H   0  0  0  0  0  0
  -29.2737  -25.0353   19.0026 H   0  0  0  0  0  0
  1 25  1  0  0  0
  1 30  2  0  0  0
  1 85  1  0  0  0
  2  3  1  0  0  0
  2 25  1  0  0  0
  2 86  1  0  0  0
  2 87  1  0  0  0
  3  4  1  0  0  0
  3 88  1  0  0  0
  3 89  1  0  0  0
  4  5  1  0  0  0
  4 90  1  0  0  0
  4 91  1  0  0  0
  5  6  1  0  0  0
  5 26  1  0  0  0
  5 92  1  0  0  0
  6 25  1  0  0  0
  6 93  1  0  0  0
  6 94  1  0  0  0
  7  8  2  0  0  0
  7 26  1  0  0  0
  7 29  1  0  0  0
  8  9  1  0  0  0
  8 22  1  0  0  0
  9 10  1  0  0  0
  9 27  2  0  0  0
 10 11  2  0  0  0
 10 15  1  0  0  0
 11 12  1  0  0  0
 11 95  1  0  0  0
 12 13  2  0  0  0
 12 96  1  0  0  0
 13 14  1  0  0  0
 13 31  1  0  0  0
 14 15  2  0  0  0
 14 97  1  0  0  0
 15 98  1  0  0  0
 16 17  2  0  0  0
 16 21  1  0  0  0
 16 31  1  0  0  0
 17 18  1  0  0  0
 17 99  1  0  0  0
 18 19  2  0  0  0
 18100  1  0  0  0
 19 20  1  0  0  0
 19 24  1  0  0  0
 20 21  2  0  0  0
 20101  1  0  0  0
 21 23  1  0  0  0
 22 28  1  0  0  0
 22 32  2  0  0  0
 26 27  1  0  0  0
 28102  1  0  0  0
 28103  1  0  0  0
 29104  1  0  0  0
 29105  1  0  0  0
 33 34  1  0  0  0
 33 66  1  0  0  0
 33 70  2  0  0  0
 34 36  1  0  0  0
 34 59  1  0  0  0
 34106  1  0  0  0
 35 44  2  0  0  0
 35 45  1  0  0  0
 35 68  1  0  0  0
 36 56  1  0  0  0
 36107  1  0  0  0
 37 39  1  0  0  0
 37 47  1  0  0  0
 37 66  1  0  0  0
 37108  1  0  0  0
 38 43  2  0  0  0
 38 46  1  0  0  0
 38 47  1  0  0  0
 39 64  1  0  0  0
 39 67  2  0  0  0
 40 52  1  0  0  0
 40 53  2  0  0  0
 40 58  1  0  0  0
 41109  1  0  0  0
 41110  1  0  0  0
 41111  1  0  0  0
 41 48  1  0  0  0
 42 43  1  0  0  0
 42 66  1  0  0  0
 42112  1  0  0  0
 42113  1  0  0  0
 43 44  1  0  0  0
 44114  1  0  0  0
 45 46  2  0  0  0
 45115  1  0  0  0
 46116  1  0  0  0
 47117  1  0  0  0
 47118  1  0  0  0
 48 56  1  0  0  0
 48 65  1  0  0  0
 48119  1  0  0  0
 49 50  1  0  0  0
 49 53  1  0  0  0
 49 64  1  0  0  0
 49120  1  0  0  0
 50 51  1  0  0  0
 50121  1  0  0  0
 50122  1  0  0  0
 51 52  1  0  0  0
 51123  1  0  0  0
 51124  1  0  0  0
 52125  1  0  0  0
 52126  1  0  0  0
 53 54  1  0  0  0
 54 55  2  0  0  0
 54127  1  0  0  0
 55 57  1  0  0  0
 55128  1  0  0  0
 56 69  2  0  0  0
 57 58  2  0  0  0
 57129  1  0  0  0
 58130  1  0  0  0
 59 60  1  0  0  0
 59 61  1  0  0  0
 59 62  1  0  0  0
 60131  1  0  0  0
 60132  1  0  0  0
 60133  1  0  0  0
 61134  1  0  0  0
 61135  1  0  0  0
 61136  1  0  0  0
 62137  1  0  0  0
 62138  1  0  0  0
 62139  1  0  0  0
 63 65  1  0  0  0
 63140  1  0  0  0
 63141  1  0  0  0
 63142  1  0  0  0
 64143  1  0  0  0
 65144  1  0  0  0
 68 83  1  0  0  0
 71 72  2  0  0  0
 71 84  1  0  0  0
 71145  1  0  0  0
 72 73  1  0  0  0
 72 80  1  0  0  0
 73 74  2  0  0  0
 73 81  1  0  0  0
 74 84  1  0  0  0
 74 79  1  0  0  0
 75 77  1  0  0  0
 75 79  1  0  0  0
 75146  1  0  0  0
 75147  1  0  0  0
 76 78  1  0  0  0
 76 79  1  0  0  0
 76148  1  0  0  0
 76149  1  0  0  0
 77 85  1  0  0  0
 77150  1  0  0  0
 77151  1  0  0  0
 78 85  1  0  0  0
 78152  1  0  0  0
 78153  1  0  0  0
 79154  1  0  0  0
 80155  1  0  0  0
 80156  1  0  0  0
 80157  1  0  0  0
 81158  1  0  0  0
 81159  1  0  0  0
 81160  1  0  0  0
 82 83  1  0  0  0
 82 84  1  0  0  0
 82161  1  0  0  0
 82162  1  0  0  0
 83163  1  0  0  0
 83164  1  0  0  0
M  ISO  4   1 100  68 101  83 101  85 100
M  END
> <chiral flag>
0

> <version>
0

> <s_m_source_file>
/data/baiqing/PycharmProjects/Reinvent-master-3.2/result/LINK_invent/BTK/process_docking_weight1_custom_sum_contain_oxygen_bond_distance_aromatic_linkinvent_7_9_3/rearranged_h_0170.sdf

> <i_m_source_file_index>
86

> <r_mmod_Potential_Energy-OPLS-2005>
700.479064941406

> <r_mmod_Stretch_Energy-OPLS-2005>
228.171722412109

> <r_mmod_Bend_Energy-OPLS-2005>
351.661407470703

> <r_mmod_Torsional_Energy-OPLS-2005>
328.294372558594

> <r_mmod_Improper_Torsional_Energy-OPLS-2005>
2.86254715919495

> <r_mmod_Van_der_Waal_Energy-OPLS-2005>
138.765167236328

> <r_mmod_Electrostatic_Energy-OPLS-2005>
-304.717864990234

> <r_mmod_Solvation_Energy-OPLS-2005>
-204.098754882812

> <b_mmod_Minimization_Converged-OPLS-2005>
0

> <r_mmod_RMS_Derivative-OPLS-2005>
1.21158564090729

$$$$
87
                    3D
 Structure written by MMmdl.
171182  0  0  1  0            999 V2000
  -30.6959  -14.4939   20.6063 C   0  0  0  0  0  0
  -30.4279  -12.3301   19.4275 C   0  0  0  0  0  0
  -29.4964  -12.5092   18.2095 C   0  0  0  0  0  0
  -28.0177  -12.3594   18.6222 C   0  0  0  0  0  0
  -27.6585  -13.2045   19.8724 C   0  0  2  0  0  0
  -28.6977  -12.9949   20.9952 C   0  0  0  0  0  0
  -25.2558  -13.8149   20.5676 C   0  0  0  0  0  0
  -24.1795  -13.0440   20.9172 C   0  0  0  0  0  0
  -24.6345  -11.6903   20.8719 C   0  0  0  0  0  0
  -23.9012  -10.4298   21.0411 C   0  0  0  0  0  0
  -24.3585   -9.4212   21.9183 C   0  0  0  0  0  0
  -23.6278   -8.2243   22.0756 C   0  0  0  0  0  0
  -22.4256   -8.0262   21.3560 C   0  0  0  0  0  0
  -21.9873   -9.0237   20.4665 C   0  0  0  0  0  0
  -22.7189  -10.2122   20.3067 C   0  0  0  0  0  0
  -21.6848   -6.0725   22.5279 C   0  0  0  0  0  0
  -21.4016   -6.5631   23.8216 C   0  0  0  0  0  0
  -21.3657   -5.6783   24.9168 C   0  0  0  0  0  0
  -21.6041   -4.3050   24.7219 C   0  0  0  0  0  0
  -21.8816   -3.8141   23.4340 C   0  0  0  0  0  0
  -21.9190   -4.6957   22.3403 C   0  0  0  0  0  0
  -22.7822  -13.5256   21.1826 C   0  0  0  0  0  0
  -22.1657   -4.2147   21.0983 F   0  0  0  0  0  0
  -21.5643   -3.4535   25.7734 F   0  0  0  0  0  0
  -30.0263  -13.3141   20.4480 N   0  0  0  0  0  0
  -26.2992  -12.9317   20.3342 N   0  0  0  0  0  0
  -25.9268  -11.6481   20.5740 N   0  0  0  0  0  0
  -22.0442  -12.8277   22.0391 N   0  0  0  0  0  0
  -25.4309  -15.1860   20.4080 N   0  0  0  0  0  0
  -31.8174  -14.6828   20.1245 O   0  0  0  0  0  0
  -21.6625   -6.8857   21.4238 O   0  0  0  0  0  0
  -22.3521  -14.5548   20.6649 O   0  0  0  0  0  0
  -24.6150  -31.8672   23.2076 C   0  0  0  0  0  0
  -25.9025  -32.4820   23.8393 C   0  0  1  0  0  0
  -27.2495  -27.4333   20.0910 C   0  0  0  0  0  0
  -25.5870  -33.8620   24.2324 N   0  0  0  0  0  0
  -23.4047  -30.4895   21.5475 C   0  0  2  0  0  0
  -24.8538  -28.9452   20.1223 C   0  0  0  0  0  0
  -22.7418  -29.4658   22.4975 C   0  0  0  0  0  0
  -18.0277  -28.1370   22.8475 C   0  0  0  0  0  0
  -24.1480  -36.7322   23.2638 C   0  0  0  0  0  0
  -25.9321  -30.8329   21.3556 C   0  0  0  0  0  0
  -26.0141  -29.4639   20.7096 C   0  0  0  0  0  0
  -27.2172  -28.7177   20.6857 C   0  0  0  0  0  0
  -26.0690  -26.9307   19.5013 C   0  0  0  0  0  0
  -24.8751  -27.6768   19.5177 C   0  0  0  0  0  0
  -23.6153  -29.8141   20.1663 C   0  0  0  0  0  0
  -25.4099  -36.3123   24.0347 C   0  0  1  0  0  0
  -20.5863  -28.3675   23.1300 C   0  0  2  0  0  0
  -20.6744  -26.9404   22.5414 C   0  0  0  0  0  0
  -19.5746  -26.6384   21.5180 C   0  0  0  0  0  0
  -18.1921  -26.7923   22.1588 C   0  0  0  0  0  0
  -19.1520  -28.8832   23.2887 C   0  0  0  0  0  0
  -18.9452  -30.1428   23.8916 C   0  0  0  0  0  0
  -17.6458  -30.6579   24.0560 C   0  0  0  0  0  0
  -25.9026  -34.9479   23.5143 C   0  0  0  0  0  0
  -16.5353  -29.9087   23.6308 C   0  0  0  0  0  0
  -16.7269  -28.6496   23.0343 C   0  0  0  0  0  0
  -26.4450  -31.6602   25.0721 C   0  0  0  0  0  0
  -25.3735  -31.3685   26.1495 C   0  0  0  0  0  0
  -27.0240  -30.3061   24.6024 C   0  0  0  0  0  0
  -27.6052  -32.4298   25.7462 C   0  0  0  0  0  0
  -27.5593  -37.1810   24.8462 C   0  0  0  0  0  0
  -21.4140  -29.3054   22.3718 N   0  0  0  0  0  0
  -26.4288  -37.3811   23.9427 N   0  0  0  0  0  0
  -24.6691  -31.0780   22.0962 N   0  0  0  0  0  0
  -23.4189  -28.8182   23.3002 O   0  0  0  0  0  0
  -28.4261  -26.7083   20.0433 O   0  0  0  0  0  0
  -26.5612  -34.8942   22.4716 O   0  0  0  0  0  0
  -23.5334  -32.1394   23.7482 O   0  0  0  0  0  0
  -29.9328  -19.8126   19.8270 C   0  0  0  0  0  0
  -29.9065  -21.2215   19.8826 C   0  0  0  0  0  0
  -30.0283  -19.7196   22.2452 C   0  0  0  0  0  0
  -30.0349  -19.0399   21.0032 C   0  0  0  0  0  0
  -29.9799  -21.9057   21.1161 C   0  0  0  0  0  0
  -30.0097  -21.1383   22.3157 C   0  0  0  0  0  0
  -31.2852  -22.5467   24.1254 C   0  0  0  0  0  0
  -30.8646  -21.2804   24.8279 C   0  0  0  0  0  0
  -30.7213  -16.5900   22.0089 C   0  0  0  0  0  0
  -29.1509  -16.4700   20.6727 C   0  0  0  0  0  0
  -31.5266  -23.9894   20.7350 C   0  0  0  0  0  0
  -30.2464  -17.5164   20.8876 C   0  0  0  0  0  0
  -30.1586  -23.4393   21.1212 C   0  0  1  0  0  0
  -30.0470  -21.8079   23.6673 C   0  0  0  0  0  0
  -29.5886  -24.4959   20.1392 C   0  0  1  0  0  0
  -31.4382  -25.8486   19.1094 C   0  0  0  0  0  0
  -28.3771  -25.3636   20.5578 C   0  0  0  0  0  0
  -30.0523  -15.4724   21.2998 N   0  0  0  0  0  0
  -30.8604  -25.2202   20.3184 N   0  3  2  0  0  0
  -31.4724  -12.4370   19.1273 H   0  0  0  0  0  0
  -30.3411  -11.3211   19.8337 H   0  0  0  0  0  0
  -29.7455  -11.7790   17.4376 H   0  0  0  0  0  0
  -29.6541  -13.4903   17.7599 H   0  0  0  0  0  0
  -27.8394  -11.3038   18.8307 H   0  0  0  0  0  0
  -27.3636  -12.6202   17.7895 H   0  0  0  0  0  0
  -27.6990  -14.2485   19.5639 H   0  0  0  0  0  0
  -28.6792  -11.9582   21.3379 H   0  0  0  0  0  0
  -28.4442  -13.5955   21.8694 H   0  0  0  0  0  0
  -25.2742   -9.5711   22.4732 H   0  0  0  0  0  0
  -24.0016   -7.4635   22.7460 H   0  0  0  0  0  0
  -21.0828   -8.8740   19.8966 H   0  0  0  0  0  0
  -22.3653  -10.9651   19.6168 H   0  0  0  0  0  0
  -21.2003   -7.6137   23.9714 H   0  0  0  0  0  0
  -21.1491   -6.0512   25.9077 H   0  0  0  0  0  0
  -22.0595   -2.7605   23.2826 H   0  0  0  0  0  0
  -22.4039  -11.9981   22.4867 H   0  0  0  0  0  0
  -21.1052  -13.1340   22.2562 H   0  0  0  0  0  0
  -24.6719  -15.8491   20.5215 H   0  0  0  0  0  0
  -26.2901  -15.6164   20.0937 H   0  0  0  0  0  0
  -26.7095  -32.5546   23.1154 H   0  0  0  0  0  0
  -24.9993  -33.9757   25.0454 H   0  0  0  0  0  0
  -22.6940  -31.3056   21.4022 H   0  0  0  0  0  0
  -23.3749  -35.9645   23.3280 H   0  0  0  0  0  0
  -24.3585  -36.8958   22.2057 H   0  0  0  0  0  0
  -23.7208  -37.6515   23.6658 H   0  0  0  0  0  0
  -26.0332  -31.5896   20.5765 H   0  0  0  0  0  0
  -26.8234  -30.8982   21.9677 H   0  0  0  0  0  0
  -28.1175  -29.1240   21.1243 H   0  0  0  0  0  0
  -26.0673  -25.9687   19.0104 H   0  0  0  0  0  0
  -23.9850  -27.2690   19.0597 H   0  0  0  0  0  0
  -23.7294  -30.5831   19.4010 H   0  0  0  0  0  0
  -22.7385  -29.2339   19.8723 H   0  0  0  0  0  0
  -25.1254  -36.1987   25.0835 H   0  0  0  0  0  0
  -20.9950  -28.3224   24.1422 H   0  0  0  0  0  0
  -20.5555  -26.2296   23.3606 H   0  0  0  0  0  0
  -21.6631  -26.7384   22.1272 H   0  0  0  0  0  0
  -19.6909  -25.6282   21.1234 H   0  0  0  0  0  0
  -19.6703  -27.3174   20.6688 H   0  0  0  0  0  0
  -17.4193  -26.6676   21.3987 H   0  0  0  0  0  0
  -18.0336  -26.0048   22.8973 H   0  0  0  0  0  0
  -19.7932  -30.7220   24.2316 H   0  0  0  0  0  0
  -17.5026  -31.6262   24.5160 H   0  0  0  0  0  0
  -15.5356  -30.3004   23.7605 H   0  0  0  0  0  0
  -15.8670  -28.0818   22.7060 H   0  0  0  0  0  0
  -24.5933  -30.6977   25.7869 H   0  0  0  0  0  0
  -24.8877  -32.2813   26.4956 H   0  0  0  0  0  0
  -25.8129  -30.8891   27.0251 H   0  0  0  0  0  0
  -26.2728  -29.6867   24.1107 H   0  0  0  0  0  0
  -27.4073  -29.7247   25.4414 H   0  0  0  0  0  0
  -27.8542  -30.4411   23.9088 H   0  0  0  0  0  0
  -27.2710  -33.3609   26.2045 H   0  0  0  0  0  0
  -28.3850  -32.6832   25.0268 H   0  0  0  0  0  0
  -28.0725  -31.8412   26.5365 H   0  0  0  0  0  0
  -28.2599  -38.0126   24.7544 H   0  0  0  0  0  0
  -28.1099  -36.2658   24.6212 H   0  0  0  0  0  0
  -27.2337  -37.1387   25.8876 H   0  0  0  0  0  0
  -20.9295  -29.8834   21.6994 H   0  0  0  0  0  0
  -26.0179  -38.2889   24.1452 H   0  0  0  0  0  0
  -29.9244  -19.3252   18.8613 H   0  0  0  0  0  0
  -29.8839  -21.7737   18.9545 H   0  0  0  0  0  0
  -30.0814  -19.1520   23.1629 H   0  0  0  0  0  0
  -32.1735  -22.4911   23.4997 H   0  0  0  0  0  0
  -31.1487  -23.4837   24.6620 H   0  0  0  0  0  0
  -30.4628  -21.3989   25.8321 H   0  0  0  0  0  0
  -31.4942  -20.4064   24.6786 H   0  0  0  0  0  0
  -30.2754  -16.8101   22.9816 H   0  0  0  0  0  0
  -31.8072  -16.5294   22.0849 H   0  0  0  0  0  0
  -28.9159  -16.3098   19.6182 H   0  0  0  0  0  0
  -28.2423  -16.6480   21.2519 H   0  0  0  0  0  0
  -31.9822  -23.4492   19.9035 H   0  0  0  0  0  0
  -32.2264  -24.1125   21.5623 H   0  0  0  0  0  0
  -30.9586  -17.4169   20.0647 H   0  0  0  0  0  0
  -29.9105  -23.7990   22.1197 H   0  0  0  0  0  0
  -29.0832  -22.2604   23.8985 H   0  0  0  0  0  0
  -29.5223  -24.1177   19.1173 H   0  0  0  0  0  0
  -32.4692  -26.1503   19.3016 H   0  0  0  0  0  0
  -30.8728  -26.7349   18.8216 H   0  0  0  0  0  0
  -31.4477  -25.1645   18.2608 H   0  0  0  0  0  0
  -28.3185  -25.4412   21.6448 H   0  0  0  0  0  0
  -27.4677  -24.8455   20.2599 H   0  0  0  0  0  0
  -30.8020  -25.8744   21.0828 H   0  0  0  0  0  0
  1 25  1  0  0  0
  1 30  2  0  0  0
  1 88  1  0  0  0
  2  3  1  0  0  0
  2 25  1  0  0  0
  2 90  1  0  0  0
  2 91  1  0  0  0
  3  4  1  0  0  0
  3 92  1  0  0  0
  3 93  1  0  0  0
  4  5  1  0  0  0
  4 94  1  0  0  0
  4 95  1  0  0  0
  5  6  1  0  0  0
  5 26  1  0  0  0
  5 96  1  0  0  0
  6 25  1  0  0  0
  6 97  1  0  0  0
  6 98  1  0  0  0
  7  8  2  0  0  0
  7 26  1  0  0  0
  7 29  1  0  0  0
  8  9  1  0  0  0
  8 22  1  0  0  0
  9 10  1  0  0  0
  9 27  2  0  0  0
 10 11  2  0  0  0
 10 15  1  0  0  0
 11 12  1  0  0  0
 11 99  1  0  0  0
 12 13  2  0  0  0
 12100  1  0  0  0
 13 14  1  0  0  0
 13 31  1  0  0  0
 14 15  2  0  0  0
 14101  1  0  0  0
 15102  1  0  0  0
 16 17  2  0  0  0
 16 21  1  0  0  0
 16 31  1  0  0  0
 17 18  1  0  0  0
 17103  1  0  0  0
 18 19  2  0  0  0
 18104  1  0  0  0
 19 20  1  0  0  0
 19 24  1  0  0  0
 20 21  2  0  0  0
 20105  1  0  0  0
 21 23  1  0  0  0
 22 28  1  0  0  0
 22 32  2  0  0  0
 26 27  1  0  0  0
 28106  1  0  0  0
 28107  1  0  0  0
 29108  1  0  0  0
 29109  1  0  0  0
 33 34  1  0  0  0
 33 66  1  0  0  0
 33 70  2  0  0  0
 34 36  1  0  0  0
 34 59  1  0  0  0
 34110  1  0  0  0
 35 44  2  0  0  0
 35 45  1  0  0  0
 35 68  1  0  0  0
 36 56  1  0  0  0
 36111  1  0  0  0
 37 39  1  0  0  0
 37 47  1  0  0  0
 37 66  1  0  0  0
 37112  1  0  0  0
 38 43  2  0  0  0
 38 46  1  0  0  0
 38 47  1  0  0  0
 39 64  1  0  0  0
 39 67  2  0  0  0
 40 52  1  0  0  0
 40 53  2  0  0  0
 40 58  1  0  0  0
 41113  1  0  0  0
 41114  1  0  0  0
 41115  1  0  0  0
 41 48  1  0  0  0
 42 43  1  0  0  0
 42 66  1  0  0  0
 42116  1  0  0  0
 42117  1  0  0  0
 43 44  1  0  0  0
 44118  1  0  0  0
 45 46  2  0  0  0
 45119  1  0  0  0
 46120  1  0  0  0
 47121  1  0  0  0
 47122  1  0  0  0
 48 56  1  0  0  0
 48 65  1  0  0  0
 48123  1  0  0  0
 49 50  1  0  0  0
 49 53  1  0  0  0
 49 64  1  0  0  0
 49124  1  0  0  0
 50 51  1  0  0  0
 50125  1  0  0  0
 50126  1  0  0  0
 51 52  1  0  0  0
 51127  1  0  0  0
 51128  1  0  0  0
 52129  1  0  0  0
 52130  1  0  0  0
 53 54  1  0  0  0
 54 55  2  0  0  0
 54131  1  0  0  0
 55 57  1  0  0  0
 55132  1  0  0  0
 56 69  2  0  0  0
 57 58  2  0  0  0
 57133  1  0  0  0
 58134  1  0  0  0
 59 60  1  0  0  0
 59 61  1  0  0  0
 59 62  1  0  0  0
 60135  1  0  0  0
 60136  1  0  0  0
 60137  1  0  0  0
 61138  1  0  0  0
 61139  1  0  0  0
 61140  1  0  0  0
 62141  1  0  0  0
 62142  1  0  0  0
 62143  1  0  0  0
 63 65  1  0  0  0
 63144  1  0  0  0
 63145  1  0  0  0
 63146  1  0  0  0
 64147  1  0  0  0
 65148  1  0  0  0
 68 87  1  0  0  0
 71 72  2  0  0  0
 71 74  1  0  0  0
 71149  1  0  0  0
 72 75  1  0  0  0
 72150  1  0  0  0
 73 74  2  0  0  0
 73 76  1  0  0  0
 73151  1  0  0  0
 74 82  1  0  0  0
 75 76  2  0  0  0
 75 83  1  0  0  0
 76 84  1  0  0  0
 77 78  1  0  0  0
 77 84  1  0  0  0
 77152  1  0  0  0
 77153  1  0  0  0
 78 84  1  0  0  0
 78154  1  0  0  0
 78155  1  0  0  0
 79 82  1  0  0  0
 79 88  1  0  0  0
 79156  1  0  0  0
 79157  1  0  0  0
 80 82  1  0  0  0
 80 88  1  0  0  0
 80158  1  0  0  0
 80159  1  0  0  0
 81 83  1  0  0  0
 81 89  1  0  0  0
 81160  1  0  0  0
 81161  1  0  0  0
 82162  1  0  0  0
 83 85  1  0  0  0
 83163  1  0  0  0
 84164  1  0  0  0
 85 87  1  0  0  0
 85 89  1  0  0  0
 85165  1  0  0  0
 86166  1  0  0  0
 86167  1  0  0  0
 86168  1  0  0  0
 86 89  1  0  0  0
 87169  1  0  0  0
 87170  1  0  0  0
 89171  1  0  0  0
M  CHG  1  89   1
M  ISO  4   1 100  68 101  87 101  88 100
M  END
> <chiral flag>
0

> <version>
0

> <s_m_source_file>
/data/baiqing/PycharmProjects/Reinvent-master-3.2/result/LINK_invent/BTK/process_docking_weight1_custom_sum_contain_oxygen_bond_distance_aromatic_linkinvent_7_9_3/rearranged_h_0170.sdf

> <i_m_source_file_index>
87

> <r_mmod_Potential_Energy-OPLS-2005>
-76.0724716186523

> <r_mmod_Stretch_Energy-OPLS-2005>
46.1454734802246

> <r_mmod_Bend_Energy-OPLS-2005>
125.88671875

> <r_mmod_Torsional_Energy-OPLS-2005>
350.329254150391

> <r_mmod_Improper_Torsional_Energy-OPLS-2005>
9.38191795349121

> <r_mmod_Van_der_Waal_Energy-OPLS-2005>
145.684097290039

> <r_mmod_Electrostatic_Energy-OPLS-2005>
-327.684844970703

> <r_mmod_Solvation_Energy-OPLS-2005>
-438.833892822266

> <b_mmod_Minimization_Converged-OPLS-2005>
0

> <r_mmod_RMS_Derivative-OPLS-2005>
3.01592326164246

$$$$
88
                    3D
 Structure written by MMmdl.
164173  0  0  1  0            999 V2000
  -30.6344  -14.6536   20.4074 C   0  0  0  0  0  0
  -30.4304  -12.3811   19.4493 C   0  0  0  0  0  0
  -29.5007  -12.4573   18.2194 C   0  0  0  0  0  0
  -28.0216  -12.3211   18.6395 C   0  0  0  0  0  0
  -27.6405  -13.2092   19.8562 C   0  0  2  0  0  0
  -28.6977  -13.1301   20.9780 C   0  0  0  0  0  0
  -25.2538  -13.8139   20.5738 C   0  0  0  0  0  0
  -24.1796  -13.0416   20.9214 C   0  0  0  0  0  0
  -24.6361  -11.6885   20.8774 C   0  0  0  0  0  0
  -23.9037  -10.4276   21.0425 C   0  0  0  0  0  0
  -24.3597   -9.4193   21.9197 C   0  0  0  0  0  0
  -23.6278   -8.2227   22.0757 C   0  0  0  0  0  0
  -22.4262   -8.0268   21.3543 C   0  0  0  0  0  0
  -21.9894   -9.0242   20.4648 C   0  0  0  0  0  0
  -22.7217  -10.2124   20.3065 C   0  0  0  0  0  0
  -21.6847   -6.0727   22.5279 C   0  0  0  0  0  0
  -21.4009   -6.5635   23.8211 C   0  0  0  0  0  0
  -21.3657   -5.6790   24.9176 C   0  0  0  0  0  0
  -21.6044   -4.3052   24.7229 C   0  0  0  0  0  0
  -21.8819   -3.8142   23.4351 C   0  0  0  0  0  0
  -21.9190   -4.6956   22.3405 C   0  0  0  0  0  0
  -22.7824  -13.5222   21.1862 C   0  0  0  0  0  0
  -22.1660   -4.2142   21.0983 F   0  0  0  0  0  0
  -21.5630   -3.4538   25.7743 F   0  0  0  0  0  0
  -30.0012  -13.4405   20.3777 N   0  0  0  0  0  0
  -26.2941  -12.9289   20.3376 N   0  0  0  0  0  0
  -25.9289  -11.6458   20.5823 N   0  0  0  0  0  0
  -22.0461  -12.8221   22.0417 N   0  0  0  0  0  0
  -25.4274  -15.1864   20.4174 N   0  0  0  0  0  0
  -31.8542  -14.7454   20.2431 O   0  0  0  0  0  0
  -21.6629   -6.8866   21.4239 O   0  0  0  0  0  0
  -22.3521  -14.5531   20.6705 O   0  0  0  0  0  0
  -24.6231  -31.8605   23.2023 C   0  0  0  0  0  0
  -25.9090  -32.4780   23.8347 C   0  0  1  0  0  0
  -27.2312  -27.3386   20.1117 C   0  0  0  0  0  0
  -25.5915  -33.8581   24.2279 N   0  0  0  0  0  0
  -23.4151  -30.4825   21.5448 C   0  0  2  0  0  0
  -24.8602  -28.9331   20.1139 C   0  0  0  0  0  0
  -22.7453  -29.4626   22.4952 C   0  0  0  0  0  0
  -18.0281  -28.1381   22.8489 C   0  0  0  0  0  0
  -24.1488  -36.7296   23.2640 C   0  0  0  0  0  0
  -25.9522  -30.7970   21.3681 C   0  0  0  0  0  0
  -26.0256  -29.4240   20.7134 C   0  0  0  0  0  0
  -27.2101  -28.6370   20.7019 C   0  0  0  0  0  0
  -26.0374  -26.8811   19.5086 C   0  0  0  0  0  0
  -24.8664  -27.6661   19.5065 C   0  0  0  0  0  0
  -23.6276  -29.8121   20.1611 C   0  0  0  0  0  0
  -25.4113  -36.3087   24.0330 C   0  0  1  0  0  0
  -20.5878  -28.3680   23.1295 C   0  0  2  0  0  0
  -20.6770  -26.9407   22.5414 C   0  0  0  0  0  0
  -19.5748  -26.6384   21.5213 C   0  0  0  0  0  0
  -18.1927  -26.7926   22.1624 C   0  0  0  0  0  0
  -19.1533  -28.8847   23.2888 C   0  0  0  0  0  0
  -18.9458  -30.1451   23.8902 C   0  0  0  0  0  0
  -17.6459  -30.6586   24.0564 C   0  0  0  0  0  0
  -25.9047  -34.9454   23.5106 C   0  0  0  0  0  0
  -16.5349  -29.9086   23.6329 C   0  0  0  0  0  0
  -16.7269  -28.6503   23.0350 C   0  0  0  0  0  0
  -26.4486  -31.6589   25.0712 C   0  0  0  0  0  0
  -25.3728  -31.3716   26.1446 C   0  0  0  0  0  0
  -27.0329  -30.3019   24.6149 C   0  0  0  0  0  0
  -27.6051  -32.4320   25.7481 C   0  0  0  0  0  0
  -27.5580  -37.1803   24.8465 C   0  0  0  0  0  0
  -21.4171  -29.3036   22.3693 N   0  0  0  0  0  0
  -26.4293  -37.3779   23.9407 N   0  0  0  0  0  0
  -24.6823  -31.0633   22.0959 N   0  0  0  0  0  0
  -23.4188  -28.8176   23.3030 O   0  0  0  0  0  0
  -28.4005  -26.5726   20.1493 O   0  0  0  0  0  0
  -26.5620  -34.8921   22.4675 O   0  0  0  0  0  0
  -23.5404  -32.1396   23.7369 O   0  0  0  0  0  0
  -28.2577  -20.3323   19.6388 C   0  0  0  0  0  0
  -29.8961  -21.9888   21.1511 C   0  0  0  0  0  0
  -29.4173  -19.7360   20.2164 C   0  0  0  0  0  0
  -30.2333  -20.6115   20.9879 C   0  0  0  0  0  0
  -28.7454  -22.5754   20.5629 C   0  0  0  0  0  0
  -27.9147  -21.7161   19.8006 C   0  0  0  0  0  0
  -29.0572  -17.5662   18.7665 C   0  0  0  0  0  0
  -29.5655  -16.1227   18.8022 C   0  0  0  0  0  0
  -29.9303  -17.0868   20.9207 C   0  0  0  0  0  0
  -29.8532  -18.2551   19.8636 C   0  0  2  0  0  0
  -31.5037  -20.0983   21.6434 C   0  0  0  0  0  0
  -25.9154  -21.4761   18.4787 C   0  0  0  0  0  0
  -28.3591  -24.0693   20.8627 C   0  0  0  0  0  0
  -28.4756  -25.1615   19.7291 C   0  0  0  0  0  0
  -29.8371  -15.7627   20.2080 N   0  0  0  0  0  0
  -26.7886  -22.2915   19.2498 O   0  0  0  0  0  0
  -31.4720  -12.4968   19.1438 H   0  0  0  0  0  0
  -30.3604  -11.4040   19.9298 H   0  0  0  0  0  0
  -29.7564  -11.6692   17.5099 H   0  0  0  0  0  0
  -29.6559  -13.3963   17.6887 H   0  0  0  0  0  0
  -27.8539  -11.2728   18.8885 H   0  0  0  0  0  0
  -27.3670  -12.5378   17.7945 H   0  0  0  0  0  0
  -27.6181  -14.2317   19.4971 H   0  0  0  0  0  0
  -28.7142  -12.1379   21.4313 H   0  0  0  0  0  0
  -28.4627  -13.8360   21.7768 H   0  0  0  0  0  0
  -25.2741   -9.5671   22.4772 H   0  0  0  0  0  0
  -23.9988   -7.4616   22.7472 H   0  0  0  0  0  0
  -21.0827   -8.8761   19.8951 H   0  0  0  0  0  0
  -22.3678  -10.9667   19.6177 H   0  0  0  0  0  0
  -21.2000   -7.6143   23.9713 H   0  0  0  0  0  0
  -21.1480   -6.0523   25.9078 H   0  0  0  0  0  0
  -22.0601   -2.7604   23.2857 H   0  0  0  0  0  0
  -22.4069  -11.9878   22.4805 H   0  0  0  0  0  0
  -21.1083  -13.1256   22.2624 H   0  0  0  0  0  0
  -24.6680  -15.8470   20.5400 H   0  0  0  0  0  0
  -26.2956  -15.6262   20.1392 H   0  0  0  0  0  0
  -26.7155  -32.5454   23.1095 H   0  0  0  0  0  0
  -25.0057  -33.9728   25.0420 H   0  0  0  0  0  0
  -22.7077  -31.3020   21.4008 H   0  0  0  0  0  0
  -23.3749  -35.9631   23.3307 H   0  0  0  0  0  0
  -24.3576  -36.8913   22.2053 H   0  0  0  0  0  0
  -23.7245  -37.6500   23.6658 H   0  0  0  0  0  0
  -26.0784  -31.5597   20.5986 H   0  0  0  0  0  0
  -26.8350  -30.8478   21.9942 H   0  0  0  0  0  0
  -28.1090  -29.0144   21.1693 H   0  0  0  0  0  0
  -25.9752  -25.9103   19.0427 H   0  0  0  0  0  0
  -23.9688  -27.2807   19.0428 H   0  0  0  0  0  0
  -23.7444  -30.5857   19.4013 H   0  0  0  0  0  0
  -22.7479  -29.2390   19.8625 H   0  0  0  0  0  0
  -25.1294  -36.1941   25.0823 H   0  0  0  0  0  0
  -20.9969  -28.3254   24.1416 H   0  0  0  0  0  0
  -20.5673  -26.2289   23.3609 H   0  0  0  0  0  0
  -21.6639  -26.7441   22.1207 H   0  0  0  0  0  0
  -19.6910  -25.6297   21.1238 H   0  0  0  0  0  0
  -19.6688  -27.3198   20.6745 H   0  0  0  0  0  0
  -17.4197  -26.6676   21.4026 H   0  0  0  0  0  0
  -18.0327  -26.0065   22.9018 H   0  0  0  0  0  0
  -19.7934  -30.7265   24.2275 H   0  0  0  0  0  0
  -17.5013  -31.6267   24.5164 H   0  0  0  0  0  0
  -15.5350  -30.2990   23.7649 H   0  0  0  0  0  0
  -15.8669  -28.0824   22.7062 H   0  0  0  0  0  0
  -24.5904  -30.7063   25.7775 H   0  0  0  0  0  0
  -24.8914  -32.2877   26.4879 H   0  0  0  0  0  0
  -25.8059  -30.8890   27.0216 H   0  0  0  0  0  0
  -26.2895  -29.6768   24.1187 H   0  0  0  0  0  0
  -27.4055  -29.7274   25.4640 H   0  0  0  0  0  0
  -27.8750  -30.4317   23.9346 H   0  0  0  0  0  0
  -27.2667  -33.3619   26.2064 H   0  0  0  0  0  0
  -28.3857  -32.6884   25.0305 H   0  0  0  0  0  0
  -28.0725  -31.8441   26.5390 H   0  0  0  0  0  0
  -28.2601  -38.0097   24.7510 H   0  0  0  0  0  0
  -28.1074  -36.2628   24.6295 H   0  0  0  0  0  0
  -27.2296  -37.1457   25.8868 H   0  0  0  0  0  0
  -20.9345  -29.8753   21.6901 H   0  0  0  0  0  0
  -26.0177  -38.2856   24.1405 H   0  0  0  0  0  0
  -27.6240  -19.7093   19.0299 H   0  0  0  0  0  0
  -30.5390  -22.6148   21.7547 H   0  0  0  0  0  0
  -27.9929  -17.5617   19.0046 H   0  0  0  0  0  0
  -29.1861  -18.0338   17.7895 H   0  0  0  0  0  0
  -30.4906  -16.0574   18.2244 H   0  0  0  0  0  0
  -28.8545  -15.4607   18.3148 H   0  0  0  0  0  0
  -29.0833  -17.1504   21.6047 H   0  0  0  0  0  0
  -30.8369  -17.1520   21.5234 H   0  0  0  0  0  0
  -30.8624  -18.3611   19.4615 H   0  0  0  0  0  0
  -32.0422  -20.8971   22.1545 H   0  0  0  0  0  0
  -32.1802  -19.6692   20.9043 H   0  0  0  0  0  0
  -31.2686  -19.3350   22.3848 H   0  0  0  0  0  0
  -25.0781  -22.0781   18.1260 H   0  0  0  0  0  0
  -25.5036  -20.6575   19.0706 H   0  0  0  0  0  0
  -26.4188  -21.0700   17.6002 H   0  0  0  0  0  0
  -28.9711  -24.3998   21.7019 H   0  0  0  0  0  0
  -27.3365  -24.0759   21.2409 H   0  0  0  0  0  0
  -27.8101  -24.9303   18.8999 H   0  0  0  0  0  0
  -29.4727  -25.0581   19.3009 H   0  0  0  0  0  0
  1 25  1  0  0  0
  1 30  2  0  0  0
  1 85  1  0  0  0
  2  3  1  0  0  0
  2 25  1  0  0  0
  2 87  1  0  0  0
  2 88  1  0  0  0
  3  4  1  0  0  0
  3 89  1  0  0  0
  3 90  1  0  0  0
  4  5  1  0  0  0
  4 91  1  0  0  0
  4 92  1  0  0  0
  5  6  1  0  0  0
  5 26  1  0  0  0
  5 93  1  0  0  0
  6 25  1  0  0  0
  6 94  1  0  0  0
  6 95  1  0  0  0
  7  8  2  0  0  0
  7 26  1  0  0  0
  7 29  1  0  0  0
  8  9  1  0  0  0
  8 22  1  0  0  0
  9 10  1  0  0  0
  9 27  2  0  0  0
 10 11  2  0  0  0
 10 15  1  0  0  0
 11 12  1  0  0  0
 11 96  1  0  0  0
 12 13  2  0  0  0
 12 97  1  0  0  0
 13 14  1  0  0  0
 13 31  1  0  0  0
 14 15  2  0  0  0
 14 98  1  0  0  0
 15 99  1  0  0  0
 16 17  2  0  0  0
 16 21  1  0  0  0
 16 31  1  0  0  0
 17 18  1  0  0  0
 17100  1  0  0  0
 18 19  2  0  0  0
 18101  1  0  0  0
 19 20  1  0  0  0
 19 24  1  0  0  0
 20 21  2  0  0  0
 20102  1  0  0  0
 21 23  1  0  0  0
 22 28  1  0  0  0
 22 32  2  0  0  0
 26 27  1  0  0  0
 28103  1  0  0  0
 28104  1  0  0  0
 29105  1  0  0  0
 29106  1  0  0  0
 33 34  1  0  0  0
 33 66  1  0  0  0
 33 70  2  0  0  0
 34 36  1  0  0  0
 34 59  1  0  0  0
 34107  1  0  0  0
 35 44  2  0  0  0
 35 45  1  0  0  0
 35 68  1  0  0  0
 36 56  1  0  0  0
 36108  1  0  0  0
 37 39  1  0  0  0
 37 47  1  0  0  0
 37 66  1  0  0  0
 37109  1  0  0  0
 38 43  2  0  0  0
 38 46  1  0  0  0
 38 47  1  0  0  0
 39 64  1  0  0  0
 39 67  2  0  0  0
 40 52  1  0  0  0
 40 53  2  0  0  0
 40 58  1  0  0  0
 41110  1  0  0  0
 41111  1  0  0  0
 41112  1  0  0  0
 41 48  1  0  0  0
 42 43  1  0  0  0
 42 66  1  0  0  0
 42113  1  0  0  0
 42114  1  0  0  0
 43 44  1  0  0  0
 44115  1  0  0  0
 45 46  2  0  0  0
 45116  1  0  0  0
 46117  1  0  0  0
 47118  1  0  0  0
 47119  1  0  0  0
 48 56  1  0  0  0
 48 65  1  0  0  0
 48120  1  0  0  0
 49 50  1  0  0  0
 49 53  1  0  0  0
 49 64  1  0  0  0
 49121  1  0  0  0
 50 51  1  0  0  0
 50122  1  0  0  0
 50123  1  0  0  0
 51 52  1  0  0  0
 51124  1  0  0  0
 51125  1  0  0  0
 52126  1  0  0  0
 52127  1  0  0  0
 53 54  1  0  0  0
 54 55  2  0  0  0
 54128  1  0  0  0
 55 57  1  0  0  0
 55129  1  0  0  0
 56 69  2  0  0  0
 57 58  2  0  0  0
 57130  1  0  0  0
 58131  1  0  0  0
 59 60  1  0  0  0
 59 61  1  0  0  0
 59 62  1  0  0  0
 60132  1  0  0  0
 60133  1  0  0  0
 60134  1  0  0  0
 61135  1  0  0  0
 61136  1  0  0  0
 61137  1  0  0  0
 62138  1  0  0  0
 62139  1  0  0  0
 62140  1  0  0  0
 63 65  1  0  0  0
 63141  1  0  0  0
 63142  1  0  0  0
 63143  1  0  0  0
 64144  1  0  0  0
 65145  1  0  0  0
 68 84  1  0  0  0
 71 73  2  0  0  0
 71 76  1  0  0  0
 71146  1  0  0  0
 72 74  2  0  0  0
 72 75  1  0  0  0
 72147  1  0  0  0
 73 74  1  0  0  0
 73 80  1  0  0  0
 74 81  1  0  0  0
 75 76  2  0  0  0
 75 83  1  0  0  0
 76 86  1  0  0  0
 77 78  1  0  0  0
 77 80  1  0  0  0
 77148  1  0  0  0
 77149  1  0  0  0
 78 85  1  0  0  0
 78150  1  0  0  0
 78151  1  0  0  0
 79 80  1  0  0  0
 79 85  1  0  0  0
 79152  1  0  0  0
 79153  1  0  0  0
 80154  1  0  0  0
 81155  1  0  0  0
 81156  1  0  0  0
 81157  1  0  0  0
 82 86  1  0  0  0
 82158  1  0  0  0
 82159  1  0  0  0
 82160  1  0  0  0
 83 84  1  0  0  0
 83161  1  0  0  0
 83162  1  0  0  0
 84163  1  0  0  0
 84164  1  0  0  0
M  ISO  4   1 100  68 101  84 101  85 100
M  END
> <chiral flag>
0

> <version>
0

> <s_m_source_file>
/data/baiqing/PycharmProjects/Reinvent-master-3.2/result/LINK_invent/BTK/process_docking_weight1_custom_sum_contain_oxygen_bond_distance_aromatic_linkinvent_7_9_3/rearranged_h_0170.sdf

> <i_m_source_file_index>
88

> <r_mmod_Potential_Energy-OPLS-2005>
279.889465332031

> <r_mmod_Stretch_Energy-OPLS-2005>
76.3964538574219

> <r_mmod_Bend_Energy-OPLS-2005>
180.028106689453

> <r_mmod_Torsional_Energy-OPLS-2005>
333.513488769531

> <r_mmod_Improper_Torsional_Energy-OPLS-2005>
16.2956123352051

> <r_mmod_Van_der_Waal_Energy-OPLS-2005>
142.101257324219

> <r_mmod_Electrostatic_Energy-OPLS-2005>
-323.496307373047

> <r_mmod_Solvation_Energy-OPLS-2005>
-197.612823486328

> <b_mmod_Minimization_Converged-OPLS-2005>
0

> <r_mmod_RMS_Derivative-OPLS-2005>
0.261966198682785

$$$$
89
                    3D
 Structure written by MMmdl.
168178  0  0  1  0            999 V2000
  -30.6888  -14.6272   20.4984 C   0  0  0  0  0  0
  -30.4239  -12.3894   19.4523 C   0  0  0  0  0  0
  -29.5047  -12.5025   18.2188 C   0  0  0  0  0  0
  -28.0277  -12.3392   18.6298 C   0  0  0  0  0  0
  -27.6453  -13.2186   19.8502 C   0  0  2  0  0  0
  -28.6940  -13.1281   20.9814 C   0  0  0  0  0  0
  -25.2526  -13.8171   20.5666 C   0  0  0  0  0  0
  -24.1807  -13.0432   20.9205 C   0  0  0  0  0  0
  -24.6386  -11.6911   20.8744 C   0  0  0  0  0  0
  -23.9069  -10.4296   21.0399 C   0  0  0  0  0  0
  -24.3625   -9.4208   21.9172 C   0  0  0  0  0  0
  -23.6308   -8.2234   22.0740 C   0  0  0  0  0  0
  -22.4287   -8.0277   21.3537 C   0  0  0  0  0  0
  -21.9921   -9.0249   20.4632 C   0  0  0  0  0  0
  -22.7243  -10.2132   20.3044 C   0  0  0  0  0  0
  -21.6848   -6.0737   22.5283 C   0  0  0  0  0  0
  -21.4003   -6.5635   23.8217 C   0  0  0  0  0  0
  -21.3661   -5.6784   24.9178 C   0  0  0  0  0  0
  -21.6044   -4.3051   24.7220 C   0  0  0  0  0  0
  -21.8824   -3.8141   23.4343 C   0  0  0  0  0  0
  -21.9193   -4.6955   22.3396 C   0  0  0  0  0  0
  -22.7824  -13.5217   21.1858 C   0  0  0  0  0  0
  -22.1660   -4.2148   21.0975 F   0  0  0  0  0  0
  -21.5643   -3.4536   25.7738 F   0  0  0  0  0  0
  -30.0078  -13.4407   20.4008 N   0  0  0  0  0  0
  -26.2956  -12.9350   20.3282 N   0  0  0  0  0  0
  -25.9308  -11.6510   20.5725 N   0  0  0  0  0  0
  -22.0455  -12.8225   22.0408 N   0  0  0  0  0  0
  -25.4236  -15.1885   20.4068 N   0  0  0  0  0  0
  -31.8761  -14.7061   20.1713 O   0  0  0  0  0  0
  -21.6639   -6.8874   21.4240 O   0  0  0  0  0  0
  -22.3518  -14.5518   20.6682 O   0  0  0  0  0  0
  -24.6200  -31.8631   23.2047 C   0  0  0  0  0  0
  -25.9067  -32.4803   23.8367 C   0  0  1  0  0  0
  -27.2261  -27.3622   20.1288 C   0  0  0  0  0  0
  -25.5895  -33.8602   24.2289 N   0  0  0  0  0  0
  -23.4117  -30.4848   21.5475 C   0  0  2  0  0  0
  -24.8579  -28.9357   20.1198 C   0  0  0  0  0  0
  -22.7441  -29.4645   22.4986 C   0  0  0  0  0  0
  -18.0277  -28.1378   22.8498 C   0  0  0  0  0  0
  -24.1478  -36.7299   23.2638 C   0  0  0  0  0  0
  -25.9464  -30.8073   21.3681 C   0  0  0  0  0  0
  -26.0227  -29.4348   20.7194 C   0  0  0  0  0  0
  -27.2123  -28.6598   20.7120 C   0  0  0  0  0  0
  -26.0480  -26.8977   19.5100 C   0  0  0  0  0  0
  -24.8690  -27.6711   19.5073 C   0  0  0  0  0  0
  -23.6228  -29.8112   20.1652 C   0  0  0  0  0  0
  -25.4100  -36.3094   24.0341 C   0  0  1  0  0  0
  -20.5871  -28.3669   23.1317 C   0  0  2  0  0  0
  -20.6758  -26.9401   22.5426 C   0  0  0  0  0  0
  -19.5742  -26.6380   21.5222 C   0  0  0  0  0  0
  -18.1918  -26.7930   22.1622 C   0  0  0  0  0  0
  -19.1527  -28.8839   23.2905 C   0  0  0  0  0  0
  -18.9453  -30.1446   23.8912 C   0  0  0  0  0  0
  -17.6456  -30.6590   24.0561 C   0  0  0  0  0  0
  -25.9046  -34.9470   23.5120 C   0  0  0  0  0  0
  -16.5342  -29.9090   23.6330 C   0  0  0  0  0  0
  -16.7263  -28.6500   23.0361 C   0  0  0  0  0  0
  -26.4466  -31.6612   25.0731 C   0  0  0  0  0  0
  -25.3719  -31.3739   26.1470 C   0  0  0  0  0  0
  -27.0308  -30.3047   24.6156 C   0  0  0  0  0  0
  -27.6036  -32.4349   25.7489 C   0  0  0  0  0  0
  -27.5594  -37.1774   24.8446 C   0  0  0  0  0  0
  -21.4162  -29.3030   22.3716 N   0  0  0  0  0  0
  -26.4268  -37.3800   23.9443 N   0  0  0  0  0  0
  -24.6783  -31.0679   22.0980 N   0  0  0  0  0  0
  -23.4191  -28.8196   23.3052 O   0  0  0  0  0  0
  -28.3700  -26.5747   20.1056 O   0  0  0  0  0  0
  -26.5626  -34.8934   22.4693 O   0  0  0  0  0  0
  -23.5378  -32.1408   23.7407 O   0  0  0  0  0  0
  -31.2453  -20.8014   20.2270 C   0  0  0  0  0  0
  -28.8990  -21.4114   20.5380 C   0  0  0  0  0  0
  -29.9201  -20.3898   20.5197 C   0  0  0  0  0  0
  -31.5017  -22.1594   19.9686 C   0  0  0  0  0  0
  -29.1696  -22.8080   20.2585 C   0  0  0  0  0  0
  -30.5097  -23.1251   19.9661 C   0  0  0  0  0  0
  -32.8094  -22.8066   19.6548 C   0  0  0  0  0  0
  -29.4665  -17.9789   19.5581 C   0  0  0  0  0  0
  -30.7055  -18.1348   21.6506 C   0  0  0  0  0  0
  -29.1212  -16.4768   19.8617 C   0  0  0  0  0  0
  -30.3963  -16.6326   21.9754 C   0  0  0  0  0  0
  -32.3504  -24.2071   19.1957 C   0  0  0  0  0  0
  -29.6257  -18.8701   20.8125 C   0  0  0  0  0  0
  -28.3772  -25.3287   20.8795 C   0  0  0  0  0  0
  -28.0961  -23.9518   20.1323 C   0  0  2  0  0  0
  -29.9961  -15.7709   20.8343 N   0  0  0  0  0  0
  -26.7407  -23.4551   20.4550 N   0  3  0  0  0  0
  -30.9877  -24.3607   19.6270 O   0  0  0  0  0  0
  -31.4699  -12.4850   19.1555 H   0  0  0  0  0  0
  -30.3322  -11.4048   19.9145 H   0  0  0  0  0  0
  -29.7753  -11.7480   17.4786 H   0  0  0  0  0  0
  -29.6498  -13.4723   17.7372 H   0  0  0  0  0  0
  -27.8620  -11.2875   18.8632 H   0  0  0  0  0  0
  -27.3759  -12.5676   17.7854 H   0  0  0  0  0  0
  -27.6401  -14.2406   19.4816 H   0  0  0  0  0  0
  -28.7055  -12.1316   21.4243 H   0  0  0  0  0  0
  -28.4460  -13.8211   21.7876 H   0  0  0  0  0  0
  -25.2769   -9.5690   22.4746 H   0  0  0  0  0  0
  -24.0021   -7.4619   22.7462 H   0  0  0  0  0  0
  -21.0851   -8.8769   19.8949 H   0  0  0  0  0  0
  -22.3705  -10.9663   19.6154 H   0  0  0  0  0  0
  -21.1987   -7.6145   23.9736 H   0  0  0  0  0  0
  -21.1478   -6.0499   25.9088 H   0  0  0  0  0  0
  -22.0604   -2.7601   23.2829 H   0  0  0  0  0  0
  -22.4064  -11.9905   22.4837 H   0  0  0  0  0  0
  -21.1057  -13.1256   22.2579 H   0  0  0  0  0  0
  -24.6616  -15.8458   20.5297 H   0  0  0  0  0  0
  -26.2845  -15.6276   20.1073 H   0  0  0  0  0  0
  -26.7139  -32.5483   23.1130 H   0  0  0  0  0  0
  -24.9997  -33.9749   25.0398 H   0  0  0  0  0  0
  -22.7036  -31.3040   21.4043 H   0  0  0  0  0  0
  -23.3768  -35.9603   23.3255 H   0  0  0  0  0  0
  -24.3571  -36.8956   22.2060 H   0  0  0  0  0  0
  -23.7187  -37.6468   23.6688 H   0  0  0  0  0  0
  -26.0686  -31.5681   20.5956 H   0  0  0  0  0  0
  -26.8301  -30.8590   21.9923 H   0  0  0  0  0  0
  -28.1135  -29.0453   21.1681 H   0  0  0  0  0  0
  -26.0369  -25.9396   19.0124 H   0  0  0  0  0  0
  -23.9767  -27.2871   19.0300 H   0  0  0  0  0  0
  -23.7325  -30.5828   19.4020 H   0  0  0  0  0  0
  -22.7440  -29.2325   19.8730 H   0  0  0  0  0  0
  -25.1272  -36.1937   25.0830 H   0  0  0  0  0  0
  -20.9966  -28.3223   24.1438 H   0  0  0  0  0  0
  -20.5642  -26.2283   23.3619 H   0  0  0  0  0  0
  -21.6625  -26.7429   22.1216 H   0  0  0  0  0  0
  -19.6895  -25.6293   21.1244 H   0  0  0  0  0  0
  -19.6694  -27.3197   20.6764 H   0  0  0  0  0  0
  -17.4201  -26.6711   21.4004 H   0  0  0  0  0  0
  -18.0295  -26.0058   22.8997 H   0  0  0  0  0  0
  -19.7934  -30.7258   24.2280 H   0  0  0  0  0  0
  -17.5015  -31.6271   24.5161 H   0  0  0  0  0  0
  -15.5346  -30.2992   23.7657 H   0  0  0  0  0  0
  -15.8661  -28.0825   22.7074 H   0  0  0  0  0  0
  -24.5873  -30.7115   25.7798 H   0  0  0  0  0  0
  -24.8932  -32.2903   26.4936 H   0  0  0  0  0  0
  -25.8040  -30.8876   27.0225 H   0  0  0  0  0  0
  -26.2866  -29.6798   24.1201 H   0  0  0  0  0  0
  -27.4042  -29.7301   25.4643 H   0  0  0  0  0  0
  -27.8721  -30.4356   23.9348 H   0  0  0  0  0  0
  -27.2654  -33.3649   26.2076 H   0  0  0  0  0  0
  -28.3830  -32.6909   25.0304 H   0  0  0  0  0  0
  -28.0730  -31.8474   26.5386 H   0  0  0  0  0  0
  -28.2543  -38.0144   24.7605 H   0  0  0  0  0  0
  -28.1150  -36.2677   24.6113 H   0  0  0  0  0  0
  -27.2335  -37.1221   25.8847 H   0  0  0  0  0  0
  -20.9335  -29.8743   21.6921 H   0  0  0  0  0  0
  -26.0153  -38.2859   24.1512 H   0  0  0  0  0  0
  -32.0635  -20.0981   20.1929 H   0  0  0  0  0  0
  -27.8908  -21.0908   20.7542 H   0  0  0  0  0  0
  -33.3671  -22.2791   18.8818 H   0  0  0  0  0  0
  -33.4162  -22.8668   20.5599 H   0  0  0  0  0  0
  -28.6900  -18.3965   18.9164 H   0  0  0  0  0  0
  -30.3870  -18.0201   18.9725 H   0  0  0  0  0  0
  -31.6605  -18.1636   21.1252 H   0  0  0  0  0  0
  -30.8659  -18.6773   22.5836 H   0  0  0  0  0  0
  -29.1070  -15.9367   18.9130 H   0  0  0  0  0  0
  -28.1060  -16.4284   20.2536 H   0  0  0  0  0  0
  -29.5875  -16.5901   22.7049 H   0  0  0  0  0  0
  -31.2669  -16.2042   22.4766 H   0  0  0  0  0  0
  -32.3587  -24.2710   18.1064 H   0  0  0  0  0  0
  -32.9922  -25.0025   19.5763 H   0  0  0  0  0  0
  -28.6895  -18.8370   21.3729 H   0  0  0  0  0  0
  -29.3671  -25.2824   21.3305 H   0  0  0  0  0  0
  -27.7164  -25.4352   21.7416 H   0  0  0  0  0  0
  -28.0815  -24.1930   19.0688 H   0  0  0  0  0  0
  -26.6992  -23.1159   21.4005 H   0  0  0  0  0  0
  -26.4814  -22.7089   19.8335 H   0  0  0  0  0  0
  -26.0570  -24.1841   20.3572 H   0  0  0  0  0  0
  1 25  1  0  0  0
  1 30  2  0  0  0
  1 86  1  0  0  0
  2  3  1  0  0  0
  2 25  1  0  0  0
  2 89  1  0  0  0
  2 90  1  0  0  0
  3  4  1  0  0  0
  3 91  1  0  0  0
  3 92  1  0  0  0
  4  5  1  0  0  0
  4 93  1  0  0  0
  4 94  1  0  0  0
  5  6  1  0  0  0
  5 26  1  0  0  0
  5 95  1  0  0  0
  6 25  1  0  0  0
  6 96  1  0  0  0
  6 97  1  0  0  0
  7  8  2  0  0  0
  7 26  1  0  0  0
  7 29  1  0  0  0
  8  9  1  0  0  0
  8 22  1  0  0  0
  9 10  1  0  0  0
  9 27  2  0  0  0
 10 11  2  0  0  0
 10 15  1  0  0  0
 11 12  1  0  0  0
 11 98  1  0  0  0
 12 13  2  0  0  0
 12 99  1  0  0  0
 13 14  1  0  0  0
 13 31  1  0  0  0
 14 15  2  0  0  0
 14100  1  0  0  0
 15101  1  0  0  0
 16 17  2  0  0  0
 16 21  1  0  0  0
 16 31  1  0  0  0
 17 18  1  0  0  0
 17102  1  0  0  0
 18 19  2  0  0  0
 18103  1  0  0  0
 19 20  1  0  0  0
 19 24  1  0  0  0
 20 21  2  0  0  0
 20104  1  0  0  0
 21 23  1  0  0  0
 22 28  1  0  0  0
 22 32  2  0  0  0
 26 27  1  0  0  0
 28105  1  0  0  0
 28106  1  0  0  0
 29107  1  0  0  0
 29108  1  0  0  0
 33 34  1  0  0  0
 33 66  1  0  0  0
 33 70  2  0  0  0
 34 36  1  0  0  0
 34 59  1  0  0  0
 34109  1  0  0  0
 35 44  2  0  0  0
 35 45  1  0  0  0
 35 68  1  0  0  0
 36 56  1  0  0  0
 36110  1  0  0  0
 37 39  1  0  0  0
 37 47  1  0  0  0
 37 66  1  0  0  0
 37111  1  0  0  0
 38 43  2  0  0  0
 38 46  1  0  0  0
 38 47  1  0  0  0
 39 64  1  0  0  0
 39 67  2  0  0  0
 40 52  1  0  0  0
 40 53  2  0  0  0
 40 58  1  0  0  0
 41112  1  0  0  0
 41113  1  0  0  0
 41114  1  0  0  0
 41 48  1  0  0  0
 42 43  1  0  0  0
 42 66  1  0  0  0
 42115  1  0  0  0
 42116  1  0  0  0
 43 44  1  0  0  0
 44117  1  0  0  0
 45 46  2  0  0  0
 45118  1  0  0  0
 46119  1  0  0  0
 47120  1  0  0  0
 47121  1  0  0  0
 48 56  1  0  0  0
 48 65  1  0  0  0
 48122  1  0  0  0
 49 50  1  0  0  0
 49 53  1  0  0  0
 49 64  1  0  0  0
 49123  1  0  0  0
 50 51  1  0  0  0
 50124  1  0  0  0
 50125  1  0  0  0
 51 52  1  0  0  0
 51126  1  0  0  0
 51127  1  0  0  0
 52128  1  0  0  0
 52129  1  0  0  0
 53 54  1  0  0  0
 54 55  2  0  0  0
 54130  1  0  0  0
 55 57  1  0  0  0
 55131  1  0  0  0
 56 69  2  0  0  0
 57 58  2  0  0  0
 57132  1  0  0  0
 58133  1  0  0  0
 59 60  1  0  0  0
 59 61  1  0  0  0
 59 62  1  0  0  0
 60134  1  0  0  0
 60135  1  0  0  0
 60136  1  0  0  0
 61137  1  0  0  0
 61138  1  0  0  0
 61139  1  0  0  0
 62140  1  0  0  0
 62141  1  0  0  0
 62142  1  0  0  0
 63 65  1  0  0  0
 63143  1  0  0  0
 63144  1  0  0  0
 63145  1  0  0  0
 64146  1  0  0  0
 65147  1  0  0  0
 68 84  1  0  0  0
 71 73  2  0  0  0
 71 74  1  0  0  0
 71148  1  0  0  0
 72 73  1  0  0  0
 72 75  2  0  0  0
 72149  1  0  0  0
 73 83  1  0  0  0
 74 76  2  0  0  0
 74 77  1  0  0  0
 75 76  1  0  0  0
 75 85  1  0  0  0
 76 88  1  0  0  0
 77 82  1  0  0  0
 77150  1  0  0  0
 77151  1  0  0  0
 78 80  1  0  0  0
 78 83  1  0  0  0
 78152  1  0  0  0
 78153  1  0  0  0
 79 81  1  0  0  0
 79 83  1  0  0  0
 79154  1  0  0  0
 79155  1  0  0  0
 80 86  1  0  0  0
 80156  1  0  0  0
 80157  1  0  0  0
 81 86  1  0  0  0
 81158  1  0  0  0
 81159  1  0  0  0
 82 88  1  0  0  0
 82160  1  0  0  0
 82161  1  0  0  0
 83162  1  0  0  0
 84 85  1  0  0  0
 84163  1  0  0  0
 84164  1  0  0  0
 85 87  1  0  0  0
 85165  1  0  0  0
 87166  1  0  0  0
 87167  1  0  0  0
 87168  1  0  0  0
M  CHG  1  87   1
M  ISO  4   1 100  68 101  84 101  86 100
M  END
> <chiral flag>
0

> <version>
0

> <s_m_source_file>
/data/baiqing/PycharmProjects/Reinvent-master-3.2/result/LINK_invent/BTK/process_docking_weight1_custom_sum_contain_oxygen_bond_distance_aromatic_linkinvent_7_9_3/rearranged_h_0170.sdf

> <i_m_source_file_index>
89

> <r_mmod_Potential_Energy-OPLS-2005>
61.6002807617188

> <r_mmod_Stretch_Energy-OPLS-2005>
77.6173629760742

> <r_mmod_Bend_Energy-OPLS-2005>
172.795776367188

> <r_mmod_Torsional_Energy-OPLS-2005>
376.433685302734

> <r_mmod_Improper_Torsional_Energy-OPLS-2005>
4.27359437942505

> <r_mmod_Van_der_Waal_Energy-OPLS-2005>
133.148513793945

> <r_mmod_Electrostatic_Energy-OPLS-2005>
-281.292663574219

> <r_mmod_Solvation_Energy-OPLS-2005>
-461.193939208984

> <b_mmod_Minimization_Converged-OPLS-2005>
0

> <r_mmod_RMS_Derivative-OPLS-2005>
2.32073974609375

$$$$
90
                    3D
 Structure written by MMmdl.
167176  0  0  1  0            999 V2000
  -30.7119  -14.4596   20.5664 C   0  0  0  0  0  0
  -30.4186  -12.2960   19.4329 C   0  0  0  0  0  0
  -29.4977  -12.5069   18.2123 C   0  0  0  0  0  0
  -28.0170  -12.3719   18.6178 C   0  0  0  0  0  0
  -27.6626  -13.2107   19.8757 C   0  0  2  0  0  0
  -28.7018  -12.9970   21.0021 C   0  0  0  0  0  0
  -25.2584  -13.8172   20.5668 C   0  0  0  0  0  0
  -24.1838  -13.0441   20.9171 C   0  0  0  0  0  0
  -24.6399  -11.6912   20.8723 C   0  0  0  0  0  0
  -23.9063  -10.4295   21.0393 C   0  0  0  0  0  0
  -24.3619   -9.4212   21.9169 C   0  0  0  0  0  0
  -23.6299   -8.2248   22.0748 C   0  0  0  0  0  0
  -22.4277   -8.0283   21.3541 C   0  0  0  0  0  0
  -21.9909   -9.0254   20.4641 C   0  0  0  0  0  0
  -22.7239  -10.2132   20.3043 C   0  0  0  0  0  0
  -21.6854   -6.0738   22.5282 C   0  0  0  0  0  0
  -21.4017   -6.5638   23.8217 C   0  0  0  0  0  0
  -21.3652   -5.6792   24.9175 C   0  0  0  0  0  0
  -21.6047   -4.3053   24.7229 C   0  0  0  0  0  0
  -21.8822   -3.8150   23.4347 C   0  0  0  0  0  0
  -21.9193   -4.6964   22.3407 C   0  0  0  0  0  0
  -22.7857  -13.5233   21.1845 C   0  0  0  0  0  0
  -22.1665   -4.2149   21.0984 F   0  0  0  0  0  0
  -21.5620   -3.4535   25.7742 F   0  0  0  0  0  0
  -30.0381  -13.2845   20.4550 N   0  0  0  0  0  0
  -26.3027  -12.9354   20.3355 N   0  0  0  0  0  0
  -25.9330  -11.6504   20.5747 N   0  0  0  0  0  0
  -22.0503  -12.8219   22.0399 N   0  0  0  0  0  0
  -25.4307  -15.1898   20.4079 N   0  0  0  0  0  0
  -31.8362  -14.6352   20.0904 O   0  0  0  0  0  0
  -21.6644   -6.8879   21.4241 O   0  0  0  0  0  0
  -22.3531  -14.5534   20.6683 O   0  0  0  0  0  0
  -24.6136  -31.8709   23.2164 C   0  0  0  0  0  0
  -25.9034  -32.4836   23.8447 C   0  0  1  0  0  0
  -27.2253  -27.4399   20.0909 C   0  0  0  0  0  0
  -25.5906  -33.8641   24.2378 N   0  0  0  0  0  0
  -23.4026  -30.4989   21.5548 C   0  0  2  0  0  0
  -24.8501  -28.9751   20.1140 C   0  0  0  0  0  0
  -22.7410  -29.4680   22.4985 C   0  0  0  0  0  0
  -18.0275  -28.1374   22.8487 C   0  0  0  0  0  0
  -24.1483  -36.7307   23.2636 C   0  0  0  0  0  0
  -25.9339  -30.8322   21.3787 C   0  0  0  0  0  0
  -26.0087  -29.4669   20.7298 C   0  0  0  0  0  0
  -27.1978  -28.6982   20.7374 C   0  0  0  0  0  0
  -26.0639  -26.9949   19.4271 C   0  0  0  0  0  0
  -24.8714  -27.7338   19.4633 C   0  0  0  0  0  0
  -23.6126  -29.8410   20.1666 C   0  0  0  0  0  0
  -25.4094  -36.3126   24.0359 C   0  0  1  0  0  0
  -20.5870  -28.3661   23.1301 C   0  0  2  0  0  0
  -20.6758  -26.9394   22.5408 C   0  0  0  0  0  0
  -19.5737  -26.6384   21.5201 C   0  0  0  0  0  0
  -18.1917  -26.7919   22.1615 C   0  0  0  0  0  0
  -19.1526  -28.8834   23.2895 C   0  0  0  0  0  0
  -18.9456  -30.1436   23.8903 C   0  0  0  0  0  0
  -17.6463  -30.6580   24.0563 C   0  0  0  0  0  0
  -25.9027  -34.9488   23.5163 C   0  0  0  0  0  0
  -16.5350  -29.9081   23.6328 C   0  0  0  0  0  0
  -16.7267  -28.6499   23.0345 C   0  0  0  0  0  0
  -26.4466  -31.6595   25.0755 C   0  0  0  0  0  0
  -25.3737  -31.3702   26.1513 C   0  0  0  0  0  0
  -27.0286  -30.3035   24.6115 C   0  0  0  0  0  0
  -27.6078  -32.4282   25.7487 C   0  0  0  0  0  0
  -27.5590  -37.1788   24.8456 C   0  0  0  0  0  0
  -21.4141  -29.3039   22.3714 N   0  0  0  0  0  0
  -26.4278  -37.3812   23.9444 N   0  0  0  0  0  0
  -24.6674  -31.0813   22.1075 N   0  0  0  0  0  0
  -23.4189  -28.8202   23.3005 O   0  0  0  0  0  0
  -28.3374  -26.6228   20.0879 O   0  0  0  0  0  0
  -26.5578  -34.8930   22.4717 O   0  0  0  0  0  0
  -23.5325  -32.1474   23.7543 O   0  0  0  0  0  0
  -28.7198  -22.1814   20.5960 C   0  0  0  0  0  0
  -28.3432  -23.5363   20.5192 C   0  0  0  0  0  0
  -29.0280  -24.5025   21.3030 C   0  0  0  0  0  0
  -30.0541  -24.0048   22.1507 C   0  0  0  0  0  0
  -29.7278  -21.7825   21.4874 C   0  0  0  0  0  0
  -29.5786  -19.3580   20.7775 C   0  0  0  0  0  0
  -30.5429  -19.8848   22.8985 C   0  0  0  0  0  0
  -29.7911  -18.0208   21.5272 C   0  0  2  0  0  0
  -30.8333  -18.4023   22.6011 C   0  0  2  0  0  0
  -27.1852  -23.8846   19.6170 C   0  0  0  0  0  0
  -30.8672  -24.9179   23.0509 C   0  0  0  0  0  0
  -28.6015  -25.9939   21.3529 C   0  0  0  0  0  0
  -30.2029  -16.8822   20.5529 C   0  0  0  0  0  0
  -30.3778  -22.6886   22.2453 N   0  0  0  0  0  0
  -30.1014  -20.4286   21.6261 N   0  0  0  0  0  0
  -29.9981  -15.5019   21.0356 N   0  0  0  0  0  0
  -30.7858  -17.5553   23.8041 N   0  3  0  0  0  0
  -31.4672  -12.3788   19.1377 H   0  0  0  0  0  0
  -30.3023  -11.2864   19.8311 H   0  0  0  0  0  0
  -29.7403  -11.7886   17.4285 H   0  0  0  0  0  0
  -29.6721  -13.4954   17.7835 H   0  0  0  0  0  0
  -27.8206  -11.3158   18.8084 H   0  0  0  0  0  0
  -27.3708  -12.6535   17.7849 H   0  0  0  0  0  0
  -27.7044  -14.2579   19.5746 H   0  0  0  0  0  0
  -28.6689  -11.9659   21.3575 H   0  0  0  0  0  0
  -28.4678  -13.6117   21.8720 H   0  0  0  0  0  0
  -25.2771   -9.5690   22.4722 H   0  0  0  0  0  0
  -24.0017   -7.4640   22.7462 H   0  0  0  0  0  0
  -21.0843   -8.8770   19.8948 H   0  0  0  0  0  0
  -22.3701  -10.9659   19.6141 H   0  0  0  0  0  0
  -21.2013   -7.6148   23.9712 H   0  0  0  0  0  0
  -21.1463   -6.0522   25.9073 H   0  0  0  0  0  0
  -22.0601   -2.7609   23.2848 H   0  0  0  0  0  0
  -22.4121  -11.9890   22.4796 H   0  0  0  0  0  0
  -21.1108  -13.1232   22.2591 H   0  0  0  0  0  0
  -24.6647  -15.8466   20.5067 H   0  0  0  0  0  0
  -26.2828  -15.6215   20.0741 H   0  0  0  0  0  0
  -26.7104  -32.5564   23.1212 H   0  0  0  0  0  0
  -25.0091  -33.9806   25.0549 H   0  0  0  0  0  0
  -22.6910  -31.3166   21.4199 H   0  0  0  0  0  0
  -23.3770  -35.9608   23.3265 H   0  0  0  0  0  0
  -24.3599  -36.8941   22.2058 H   0  0  0  0  0  0
  -23.7191  -37.6491   23.6648 H   0  0  0  0  0  0
  -26.0521  -31.5960   20.6085 H   0  0  0  0  0  0
  -26.8206  -30.8840   21.9991 H   0  0  0  0  0  0
  -28.0850  -29.0659   21.2334 H   0  0  0  0  0  0
  -26.0574  -26.0790   18.8642 H   0  0  0  0  0  0
  -23.9905  -27.3594   18.9602 H   0  0  0  0  0  0
  -23.7233  -30.6201   19.4110 H   0  0  0  0  0  0
  -22.7373  -29.2626   19.8662 H   0  0  0  0  0  0
  -25.1255  -36.1999   25.0847 H   0  0  0  0  0  0
  -20.9972  -28.3225   24.1415 H   0  0  0  0  0  0
  -20.5646  -26.2273   23.3598 H   0  0  0  0  0  0
  -21.6629  -26.7417   22.1218 H   0  0  0  0  0  0
  -19.6895  -25.6300   21.1221 H   0  0  0  0  0  0
  -19.6678  -27.3200   20.6734 H   0  0  0  0  0  0
  -17.4189  -26.6678   21.4010 H   0  0  0  0  0  0
  -18.0313  -26.0054   22.9005 H   0  0  0  0  0  0
  -19.7942  -30.7241   24.2278 H   0  0  0  0  0  0
  -17.5027  -31.6258   24.5168 H   0  0  0  0  0  0
  -15.5350  -30.2984   23.7650 H   0  0  0  0  0  0
  -15.8669  -28.0819   22.7049 H   0  0  0  0  0  0
  -24.5893  -30.7060   25.7856 H   0  0  0  0  0  0
  -24.8934  -32.2854   26.4986 H   0  0  0  0  0  0
  -25.8094  -30.8854   27.0258 H   0  0  0  0  0  0
  -26.2822  -29.6801   24.1174 H   0  0  0  0  0  0
  -27.4068  -29.7265   25.4563 H   0  0  0  0  0  0
  -27.8665  -30.4356   23.9265 H   0  0  0  0  0  0
  -27.2753  -33.3594   26.2083 H   0  0  0  0  0  0
  -28.3867  -32.6804   25.0279 H   0  0  0  0  0  0
  -28.0760  -31.8376   26.5370 H   0  0  0  0  0  0
  -28.2570  -38.0127   24.7593 H   0  0  0  0  0  0
  -28.1125  -36.2671   24.6156 H   0  0  0  0  0  0
  -27.2336  -37.1301   25.8862 H   0  0  0  0  0  0
  -20.9293  -29.8783   21.6963 H   0  0  0  0  0  0
  -26.0176  -38.2881   24.1490 H   0  0  0  0  0  0
  -28.1934  -21.4633   19.9863 H   0  0  0  0  0  0
  -28.5204  -19.4806   20.5509 H   0  0  0  0  0  0
  -30.1270  -19.3747   19.8347 H   0  0  0  0  0  0
  -31.4251  -20.4024   23.2766 H   0  0  0  0  0  0
  -29.7394  -20.0012   23.6279 H   0  0  0  0  0  0
  -28.8435  -17.7698   22.0067 H   0  0  0  0  0  0
  -31.8340  -18.3344   22.1688 H   0  0  0  0  0  0
  -26.7266  -22.9996   19.1753 H   0  0  0  0  0  0
  -27.5321  -24.5141   18.7985 H   0  0  0  0  0  0
  -26.4123  -24.3901   20.1950 H   0  0  0  0  0  0
  -31.3862  -25.6725   22.4593 H   0  0  0  0  0  0
  -31.6225  -24.3663   23.6112 H   0  0  0  0  0  0
  -30.2214  -25.4217   23.7698 H   0  0  0  0  0  0
  -29.3646  -26.6046   21.8331 H   0  0  0  0  0  0
  -27.7294  -26.0468   22.0088 H   0  0  0  0  0  0
  -31.2313  -17.0479   20.2243 H   0  0  0  0  0  0
  -29.5991  -16.9672   19.6476 H   0  0  0  0  0  0
  -29.0834  -15.2688   21.3954 H   0  0  0  0  0  0
  -29.9010  -17.6372   24.2731 H   0  0  0  0  0  0
  -31.5109  -17.8244   24.4457 H   0  0  0  0  0  0
  -30.9298  -16.5925   23.5610 H   0  0  0  0  0  0
  1 25  1  0  0  0
  1 30  2  0  0  0
  1 86  1  0  0  0
  2  3  1  0  0  0
  2 25  1  0  0  0
  2 88  1  0  0  0
  2 89  1  0  0  0
  3  4  1  0  0  0
  3 90  1  0  0  0
  3 91  1  0  0  0
  4  5  1  0  0  0
  4 92  1  0  0  0
  4 93  1  0  0  0
  5  6  1  0  0  0
  5 26  1  0  0  0
  5 94  1  0  0  0
  6 25  1  0  0  0
  6 95  1  0  0  0
  6 96  1  0  0  0
  7  8  2  0  0  0
  7 26  1  0  0  0
  7 29  1  0  0  0
  8  9  1  0  0  0
  8 22  1  0  0  0
  9 10  1  0  0  0
  9 27  2  0  0  0
 10 11  2  0  0  0
 10 15  1  0  0  0
 11 12  1  0  0  0
 11 97  1  0  0  0
 12 13  2  0  0  0
 12 98  1  0  0  0
 13 14  1  0  0  0
 13 31  1  0  0  0
 14 15  2  0  0  0
 14 99  1  0  0  0
 15100  1  0  0  0
 16 17  2  0  0  0
 16 21  1  0  0  0
 16 31  1  0  0  0
 17 18  1  0  0  0
 17101  1  0  0  0
 18 19  2  0  0  0
 18102  1  0  0  0
 19 20  1  0  0  0
 19 24  1  0  0  0
 20 21  2  0  0  0
 20103  1  0  0  0
 21 23  1  0  0  0
 22 28  1  0  0  0
 22 32  2  0  0  0
 26 27  1  0  0  0
 28104  1  0  0  0
 28105  1  0  0  0
 29106  1  0  0  0
 29107  1  0  0  0
 33 34  1  0  0  0
 33 66  1  0  0  0
 33 70  2  0  0  0
 34 36  1  0  0  0
 34 59  1  0  0  0
 34108  1  0  0  0
 35 44  2  0  0  0
 35 45  1  0  0  0
 35 68  1  0  0  0
 36 56  1  0  0  0
 36109  1  0  0  0
 37 39  1  0  0  0
 37 47  1  0  0  0
 37 66  1  0  0  0
 37110  1  0  0  0
 38 43  2  0  0  0
 38 46  1  0  0  0
 38 47  1  0  0  0
 39 64  1  0  0  0
 39 67  2  0  0  0
 40 52  1  0  0  0
 40 53  2  0  0  0
 40 58  1  0  0  0
 41111  1  0  0  0
 41112  1  0  0  0
 41113  1  0  0  0
 41 48  1  0  0  0
 42 43  1  0  0  0
 42 66  1  0  0  0
 42114  1  0  0  0
 42115  1  0  0  0
 43 44  1  0  0  0
 44116  1  0  0  0
 45 46  2  0  0  0
 45117  1  0  0  0
 46118  1  0  0  0
 47119  1  0  0  0
 47120  1  0  0  0
 48 56  1  0  0  0
 48 65  1  0  0  0
 48121  1  0  0  0
 49 50  1  0  0  0
 49 53  1  0  0  0
 49 64  1  0  0  0
 49122  1  0  0  0
 50 51  1  0  0  0
 50123  1  0  0  0
 50124  1  0  0  0
 51 52  1  0  0  0
 51125  1  0  0  0
 51126  1  0  0  0
 52127  1  0  0  0
 52128  1  0  0  0
 53 54  1  0  0  0
 54 55  2  0  0  0
 54129  1  0  0  0
 55 57  1  0  0  0
 55130  1  0  0  0
 56 69  2  0  0  0
 57 58  2  0  0  0
 57131  1  0  0  0
 58132  1  0  0  0
 59 60  1  0  0  0
 59 61  1  0  0  0
 59 62  1  0  0  0
 60133  1  0  0  0
 60134  1  0  0  0
 60135  1  0  0  0
 61136  1  0  0  0
 61137  1  0  0  0
 61138  1  0  0  0
 62139  1  0  0  0
 62140  1  0  0  0
 62141  1  0  0  0
 63 65  1  0  0  0
 63142  1  0  0  0
 63143  1  0  0  0
 63144  1  0  0  0
 64145  1  0  0  0
 65146  1  0  0  0
 68 82  1  0  0  0
 71 72  2  0  0  0
 71 75  1  0  0  0
 71147  1  0  0  0
 72 73  1  0  0  0
 72 80  1  0  0  0
 73 74  2  0  0  0
 73 82  1  0  0  0
 74 81  1  0  0  0
 74 84  1  0  0  0
 75 84  2  0  0  0
 75 85  1  0  0  0
 76 78  1  0  0  0
 76 85  1  0  0  0
 76148  1  0  0  0
 76149  1  0  0  0
 77 79  1  0  0  0
 77 85  1  0  0  0
 77150  1  0  0  0
 77151  1  0  0  0
 78 79  1  0  0  0
 78 83  1  0  0  0
 78152  1  0  0  0
 79 87  1  0  0  0
 79153  1  0  0  0
 80154  1  0  0  0
 80155  1  0  0  0
 80156  1  0  0  0
 81157  1  0  0  0
 81158  1  0  0  0
 81159  1  0  0  0
 82160  1  0  0  0
 82161  1  0  0  0
 83 86  1  0  0  0
 83162  1  0  0  0
 83163  1  0  0  0
 86164  1  0  0  0
 87165  1  0  0  0
 87166  1  0  0  0
 87167  1  0  0  0
M  CHG  1  87   1
M  ISO  4   1 100  68 101  82 101  86 100
M  END
> <chiral flag>
0

> <version>
0

> <s_m_source_file>
/data/baiqing/PycharmProjects/Reinvent-master-3.2/result/LINK_invent/BTK/process_docking_weight1_custom_sum_contain_oxygen_bond_distance_aromatic_linkinvent_7_9_3/rearranged_h_0170.sdf

> <i_m_source_file_index>
90

> <r_mmod_Potential_Energy-OPLS-2005>
-401.215362548828

> <r_mmod_Stretch_Energy-OPLS-2005>
39.4719734191895

> <r_mmod_Bend_Energy-OPLS-2005>
140.882446289062

> <r_mmod_Torsional_Energy-OPLS-2005>
313.300689697266

> <r_mmod_Improper_Torsional_Energy-OPLS-2005>
8.68366241455078

> <r_mmod_Van_der_Waal_Energy-OPLS-2005>
161.943939208984

> <r_mmod_Electrostatic_Energy-OPLS-2005>
-543.005432128906

> <r_mmod_Solvation_Energy-OPLS-2005>
-537.234802246094

> <b_mmod_Minimization_Converged-OPLS-2005>
0

> <r_mmod_RMS_Derivative-OPLS-2005>
1.63991105556488

$$$$
91
                    3D
 Structure written by MMmdl.
168177  0  0  1  0            999 V2000
  -30.5279  -15.0189   20.3945 C   0  0  0  0  0  0
  -30.4364  -12.6269   19.5136 C   0  0  0  0  0  0
  -29.5336  -12.5235   18.2636 C   0  0  0  0  0  0
  -28.0669  -12.3014   18.6796 C   0  0  0  0  0  0
  -27.6249  -13.2516   19.8259 C   0  0  2  0  0  0
  -28.6617  -13.3129   20.9655 C   0  0  0  0  0  0
  -25.2429  -13.8210   20.5699 C   0  0  0  0  0  0
  -24.1748  -13.0438   20.9207 C   0  0  0  0  0  0
  -24.6348  -11.6918   20.8707 C   0  0  0  0  0  0
  -23.9029  -10.4281   21.0394 C   0  0  0  0  0  0
  -24.3597   -9.4196   21.9161 C   0  0  0  0  0  0
  -23.6271   -8.2232   22.0754 C   0  0  0  0  0  0
  -22.4245   -8.0265   21.3558 C   0  0  0  0  0  0
  -21.9858   -9.0245   20.4665 C   0  0  0  0  0  0
  -22.7193  -10.2117   20.3054 C   0  0  0  0  0  0
  -21.6852   -6.0710   22.5268 C   0  0  0  0  0  0
  -21.4026   -6.5616   23.8201 C   0  0  0  0  0  0
  -21.3656   -5.6763   24.9167 C   0  0  0  0  0  0
  -21.6050   -4.3026   24.7222 C   0  0  0  0  0  0
  -21.8821   -3.8126   23.4343 C   0  0  0  0  0  0
  -21.9193   -4.6930   22.3398 C   0  0  0  0  0  0
  -22.7769  -13.5224   21.1852 C   0  0  0  0  0  0
  -22.1660   -4.2112   21.0979 F   0  0  0  0  0  0
  -21.5619   -3.4525   25.7746 F   0  0  0  0  0  0
  -29.9248  -13.7529   20.3605 N   0  0  0  0  0  0
  -26.2849  -12.9454   20.3164 N   0  0  0  0  0  0
  -25.9283  -11.6577   20.5659 N   0  0  0  0  0  0
  -22.0387  -12.8275   22.0439 N   0  0  0  0  0  0
  -25.4060  -15.1936   20.4166 N   0  0  0  0  0  0
  -31.7295  -15.0338   20.0981 O   0  0  0  0  0  0
  -21.6621   -6.8862   21.4239 O   0  0  0  0  0  0
  -22.3458  -14.5511   20.6665 O   0  0  0  0  0  0
  -24.6525  -31.8365   23.1798 C   0  0  0  0  0  0
  -25.9248  -32.4658   23.8227 C   0  0  1  0  0  0
  -27.2253  -27.0756   20.1380 C   0  0  0  0  0  0
  -25.5962  -33.8470   24.2131 N   0  0  0  0  0  0
  -23.4578  -30.4521   21.5303 C   0  0  2  0  0  0
  -24.9052  -28.8571   20.1185 C   0  0  0  0  0  0
  -22.7607  -29.4504   22.4867 C   0  0  0  0  0  0
  -18.0310  -28.1399   22.8473 C   0  0  0  0  0  0
  -24.1489  -36.7233   23.2644 C   0  0  0  0  0  0
  -26.0203  -30.6891   21.3851 C   0  0  0  0  0  0
  -26.0906  -29.2924   20.7260 C   0  0  0  0  0  0
  -27.2536  -28.4227   20.7060 C   0  0  0  0  0  0
  -26.0041  -26.7437   19.5163 C   0  0  0  0  0  0
  -24.8761  -27.5960   19.5012 C   0  0  0  0  0  0
  -23.6867  -29.7698   20.1555 C   0  0  0  0  0  0
  -25.4125  -36.3016   24.0310 C   0  0  1  0  0  0
  -20.5924  -28.3726   23.1232 C   0  0  2  0  0  0
  -20.6794  -26.9420   22.5418 C   0  0  0  0  0  0
  -19.5774  -26.6370   21.5224 C   0  0  0  0  0  0
  -18.1948  -26.7936   22.1622 C   0  0  0  0  0  0
  -19.1566  -28.8884   23.2840 C   0  0  0  0  0  0
  -18.9483  -30.1477   23.8869 C   0  0  0  0  0  0
  -17.6478  -30.6593   24.0554 C   0  0  0  0  0  0
  -25.9084  -34.9391   23.5039 C   0  0  0  0  0  0
  -16.5369  -29.9080   23.6340 C   0  0  0  0  0  0
  -16.7292  -28.6500   23.0360 C   0  0  0  0  0  0
  -26.4533  -31.6562   25.0707 C   0  0  0  0  0  0
  -25.3699  -31.3820   26.1409 C   0  0  0  0  0  0
  -27.0382  -30.2935   24.6347 C   0  0  0  0  0  0
  -27.6073  -32.4337   25.7477 C   0  0  0  0  0  0
  -27.5581  -37.1757   24.8453 C   0  0  0  0  0  0
  -21.4290  -29.3030   22.3598 N   0  0  0  0  0  0
  -26.4283  -37.3739   23.9419 N   0  0  0  0  0  0
  -24.7304  -31.0154   22.0856 N   0  0  0  0  0  0
  -23.4223  -28.8081   23.3056 O   0  0  0  0  0  0
  -28.2884  -26.0843   20.0878 O   0  0  0  0  0  0
  -26.5688  -34.8909   22.4626 O   0  0  0  0  0  0
  -23.5613  -32.1278   23.6969 O   0  0  0  0  0  0
  -31.2031  -20.2168   21.0498 C   0  0  0  0  0  0
  -29.9503  -20.4912   20.4599 C   0  0  0  0  0  0
  -29.7012  -21.9931   20.1738 C   0  0  0  0  0  0
  -30.9147  -22.7645   20.1417 C   0  0  0  0  0  0
  -32.1133  -22.2753   20.7024 C   0  0  0  0  0  0
  -28.7994  -18.2888   21.5978 C   0  0  0  0  0  0
  -28.8903  -16.7084   21.4893 C   0  0  0  0  0  0
  -29.2407  -18.9862   20.2855 C   0  0  2  0  0  0
  -30.1111  -17.6515   19.7532 C   0  0  2  0  0  0
  -31.0016  -24.1345   19.4541 C   0  0  0  0  0  0
  -33.3942  -23.0884   20.7790 C   0  0  0  0  0  0
  -30.0410  -17.5402   18.2216 C   0  0  0  0  0  0
  -27.1020  -22.1990   19.9582 C   0  0  0  0  0  0
  -28.1545  -24.5715   20.5418 C   0  0  0  0  0  0
  -28.4086  -22.9967   19.8376 C   0  0  1  0  0  0
  -32.2268  -21.0526   21.2103 N   0  0  0  0  0  0
  -29.7880  -16.2692   20.4064 N   0  0  0  0  0  0
  -31.4747  -12.7720   19.2094 H   0  0  0  0  0  0
  -30.4287  -11.6906   20.0747 H   0  0  0  0  0  0
  -29.8745  -11.7077   17.6225 H   0  0  0  0  0  0
  -29.6153  -13.4351   17.6719 H   0  0  0  0  0  0
  -27.9812  -11.2673   19.0119 H   0  0  0  0  0  0
  -27.4054  -12.3980   17.8175 H   0  0  0  0  0  0
  -27.5796  -14.2446   19.3765 H   0  0  0  0  0  0
  -28.7663  -12.3426   21.4547 H   0  0  0  0  0  0
  -28.3416  -14.0094   21.7396 H   0  0  0  0  0  0
  -25.2757   -9.5674   22.4715 H   0  0  0  0  0  0
  -23.9983   -7.4624   22.7483 H   0  0  0  0  0  0
  -21.0771   -8.8785   19.8996 H   0  0  0  0  0  0
  -22.3656  -10.9661   19.6164 H   0  0  0  0  0  0
  -21.2029   -7.6121   23.9708 H   0  0  0  0  0  0
  -21.1474   -6.0483   25.9063 H   0  0  0  0  0  0
  -22.0600   -2.7586   23.2845 H   0  0  0  0  0  0
  -22.4015  -12.0007   22.4940 H   0  0  0  0  0  0
  -21.1012  -13.1358   22.2599 H   0  0  0  0  0  0
  -24.6320  -15.8382   20.5371 H   0  0  0  0  0  0
  -26.2448  -15.6424   20.0721 H   0  0  0  0  0  0
  -26.7324  -32.5233   23.0956 H   0  0  0  0  0  0
  -25.0053  -33.9563   25.0250 H   0  0  0  0  0  0
  -22.7644  -31.2802   21.3666 H   0  0  0  0  0  0
  -23.3777  -35.9534   23.3254 H   0  0  0  0  0  0
  -24.3583  -36.8929   22.2069 H   0  0  0  0  0  0
  -23.7211  -37.6398   23.6720 H   0  0  0  0  0  0
  -26.1851  -31.4408   20.6113 H   0  0  0  0  0  0
  -26.8868  -30.7387   22.0338 H   0  0  0  0  0  0
  -28.1693  -28.7616   21.1701 H   0  0  0  0  0  0
  -25.9147  -25.7777   19.0403 H   0  0  0  0  0  0
  -23.9699  -27.2532   19.0213 H   0  0  0  0  0  0
  -23.8320  -30.5370   19.3940 H   0  0  0  0  0  0
  -22.7986  -29.2163   19.8462 H   0  0  0  0  0  0
  -25.1308  -36.1824   25.0801 H   0  0  0  0  0  0
  -21.0013  -28.3330   24.1357 H   0  0  0  0  0  0
  -20.5682  -26.2346   23.3649 H   0  0  0  0  0  0
  -21.6666  -26.7417   22.1233 H   0  0  0  0  0  0
  -19.6934  -25.6267   21.1283 H   0  0  0  0  0  0
  -19.6719  -27.3164   20.6739 H   0  0  0  0  0  0
  -17.4226  -26.6696   21.4008 H   0  0  0  0  0  0
  -18.0317  -26.0082   22.9019 H   0  0  0  0  0  0
  -19.7958  -30.7294   24.2243 H   0  0  0  0  0  0
  -17.5027  -31.6272   24.5157 H   0  0  0  0  0  0
  -15.5363  -30.2973   23.7669 H   0  0  0  0  0  0
  -15.8699  -28.0800   22.7098 H   0  0  0  0  0  0
  -24.5815  -30.7238   25.7726 H   0  0  0  0  0  0
  -24.8961  -32.3034   26.4803 H   0  0  0  0  0  0
  -25.7945  -30.8985   27.0212 H   0  0  0  0  0  0
  -26.2998  -29.6663   24.1325 H   0  0  0  0  0  0
  -27.3915  -29.7253   25.4958 H   0  0  0  0  0  0
  -27.8949  -30.4133   23.9717 H   0  0  0  0  0  0
  -27.2675  -33.3663   26.1997 H   0  0  0  0  0  0
  -28.3898  -32.6861   25.0307 H   0  0  0  0  0  0
  -28.0724  -31.8503   26.5435 H   0  0  0  0  0  0
  -28.2578  -38.0075   24.7528 H   0  0  0  0  0  0
  -28.1094  -36.2602   24.6222 H   0  0  0  0  0  0
  -27.2312  -37.1351   25.8863 H   0  0  0  0  0  0
  -20.9538  -29.8712   21.6727 H   0  0  0  0  0  0
  -26.0134  -38.2794   24.1473 H   0  0  0  0  0  0
  -31.4444  -19.2343   21.4193 H   0  0  0  0  0  0
  -29.4560  -18.6000   22.4099 H   0  0  0  0  0  0
  -27.8008  -18.6061   21.8995 H   0  0  0  0  0  0
  -27.8998  -16.2936   21.3135 H   0  0  0  0  0  0
  -29.2371  -16.2994   22.4412 H   0  0  0  0  0  0
  -28.3536  -19.0995   19.6607 H   0  0  0  0  0  0
  -31.1667  -17.7785   19.9819 H   0  0  0  0  0  0
  -30.9280  -24.9496   20.1737 H   0  0  0  0  0  0
  -30.2668  -24.2872   18.6681 H   0  0  0  0  0  0
  -31.9508  -24.2398   18.9293 H   0  0  0  0  0  0
  -33.9382  -23.0308   19.8359 H   0  0  0  0  0  0
  -34.0521  -22.7089   21.5629 H   0  0  0  0  0  0
  -33.2020  -24.1369   21.0055 H   0  0  0  0  0  0
  -29.0156  -17.4137   17.8716 H   0  0  0  0  0  0
  -30.6294  -16.6994   17.8564 H   0  0  0  0  0  0
  -30.4430  -18.4388   17.7520 H   0  0  0  0  0  0
  -27.1530  -21.2635   19.4012 H   0  0  0  0  0  0
  -26.2661  -22.7709   19.5526 H   0  0  0  0  0  0
  -26.8759  -21.9679   20.9984 H   0  0  0  0  0  0
  -28.7740  -24.5389   21.4369 H   0  0  0  0  0  0
  -27.1478  -24.5340   20.9590 H   0  0  0  0  0  0
  -28.4769  -23.1709   18.7646 H   0  0  0  0  0  0
  1 25  1  0  0  0
  1 30  2  0  0  0
  1 87  1  0  0  0
  2  3  1  0  0  0
  2 25  1  0  0  0
  2 88  1  0  0  0
  2 89  1  0  0  0
  3  4  1  0  0  0
  3 90  1  0  0  0
  3 91  1  0  0  0
  4  5  1  0  0  0
  4 92  1  0  0  0
  4 93  1  0  0  0
  5  6  1  0  0  0
  5 26  1  0  0  0
  5 94  1  0  0  0
  6 25  1  0  0  0
  6 95  1  0  0  0
  6 96  1  0  0  0
  7  8  2  0  0  0
  7 26  1  0  0  0
  7 29  1  0  0  0
  8  9  1  0  0  0
  8 22  1  0  0  0
  9 10  1  0  0  0
  9 27  2  0  0  0
 10 11  2  0  0  0
 10 15  1  0  0  0
 11 12  1  0  0  0
 11 97  1  0  0  0
 12 13  2  0  0  0
 12 98  1  0  0  0
 13 14  1  0  0  0
 13 31  1  0  0  0
 14 15  2  0  0  0
 14 99  1  0  0  0
 15100  1  0  0  0
 16 17  2  0  0  0
 16 21  1  0  0  0
 16 31  1  0  0  0
 17 18  1  0  0  0
 17101  1  0  0  0
 18 19  2  0  0  0
 18102  1  0  0  0
 19 20  1  0  0  0
 19 24  1  0  0  0
 20 21  2  0  0  0
 20103  1  0  0  0
 21 23  1  0  0  0
 22 28  1  0  0  0
 22 32  2  0  0  0
 26 27  1  0  0  0
 28104  1  0  0  0
 28105  1  0  0  0
 29106  1  0  0  0
 29107  1  0  0  0
 33 34  1  0  0  0
 33 66  1  0  0  0
 33 70  2  0  0  0
 34 36  1  0  0  0
 34 59  1  0  0  0
 34108  1  0  0  0
 35 44  2  0  0  0
 35 45  1  0  0  0
 35 68  1  0  0  0
 36 56  1  0  0  0
 36109  1  0  0  0
 37 39  1  0  0  0
 37 47  1  0  0  0
 37 66  1  0  0  0
 37110  1  0  0  0
 38 43  2  0  0  0
 38 46  1  0  0  0
 38 47  1  0  0  0
 39 64  1  0  0  0
 39 67  2  0  0  0
 40 52  1  0  0  0
 40 53  2  0  0  0
 40 58  1  0  0  0
 41111  1  0  0  0
 41112  1  0  0  0
 41113  1  0  0  0
 41 48  1  0  0  0
 42 43  1  0  0  0
 42 66  1  0  0  0
 42114  1  0  0  0
 42115  1  0  0  0
 43 44  1  0  0  0
 44116  1  0  0  0
 45 46  2  0  0  0
 45117  1  0  0  0
 46118  1  0  0  0
 47119  1  0  0  0
 47120  1  0  0  0
 48 56  1  0  0  0
 48 65  1  0  0  0
 48121  1  0  0  0
 49 50  1  0  0  0
 49 53  1  0  0  0
 49 64  1  0  0  0
 49122  1  0  0  0
 50 51  1  0  0  0
 50123  1  0  0  0
 50124  1  0  0  0
 51 52  1  0  0  0
 51125  1  0  0  0
 51126  1  0  0  0
 52127  1  0  0  0
 52128  1  0  0  0
 53 54  1  0  0  0
 54 55  2  0  0  0
 54129  1  0  0  0
 55 57  1  0  0  0
 55130  1  0  0  0
 56 69  2  0  0  0
 57 58  2  0  0  0
 57131  1  0  0  0
 58132  1  0  0  0
 59 60  1  0  0  0
 59 61  1  0  0  0
 59 62  1  0  0  0
 60133  1  0  0  0
 60134  1  0  0  0
 60135  1  0  0  0
 61136  1  0  0  0
 61137  1  0  0  0
 61138  1  0  0  0
 62139  1  0  0  0
 62140  1  0  0  0
 62141  1  0  0  0
 63 65  1  0  0  0
 63142  1  0  0  0
 63143  1  0  0  0
 63144  1  0  0  0
 64145  1  0  0  0
 65146  1  0  0  0
 68 84  1  0  0  0
 71 72  2  0  0  0
 71 86  1  0  0  0
 71147  1  0  0  0
 72 73  1  0  0  0
 72 78  1  0  0  0
 73 74  2  0  0  0
 73 85  1  0  0  0
 74 75  1  0  0  0
 74 80  1  0  0  0
 75 81  1  0  0  0
 75 86  2  0  0  0
 76 77  1  0  0  0
 76 78  1  0  0  0
 76148  1  0  0  0
 76149  1  0  0  0
 77 87  1  0  0  0
 77150  1  0  0  0
 77151  1  0  0  0
 78 79  1  0  0  0
 78152  1  0  0  0
 79 82  1  0  0  0
 79 87  1  0  0  0
 79153  1  0  0  0
 80154  1  0  0  0
 80155  1  0  0  0
 80156  1  0  0  0
 81157  1  0  0  0
 81158  1  0  0  0
 81159  1  0  0  0
 82160  1  0  0  0
 82161  1  0  0  0
 82162  1  0  0  0
 83163  1  0  0  0
 83164  1  0  0  0
 83165  1  0  0  0
 83 85  1  0  0  0
 84 85  1  0  0  0
 84166  1  0  0  0
 84167  1  0  0  0
 85168  1  0  0  0
M  ISO  4   1 100  68 101  84 101  87 100
M  END
> <chiral flag>
0

> <version>
0

> <s_m_source_file>
/data/baiqing/PycharmProjects/Reinvent-master-3.2/result/LINK_invent/BTK/process_docking_weight1_custom_sum_contain_oxygen_bond_distance_aromatic_linkinvent_7_9_3/rearranged_h_0170.sdf

> <i_m_source_file_index>
91

> <r_mmod_Potential_Energy-OPLS-2005>
891.368530273438

> <r_mmod_Stretch_Energy-OPLS-2005>
361.915771484375

> <r_mmod_Bend_Energy-OPLS-2005>
419.676605224609

> <r_mmod_Torsional_Energy-OPLS-2005>
384.490509033203

> <r_mmod_Improper_Torsional_Energy-OPLS-2005>
11.1432437896729

> <r_mmod_Van_der_Waal_Energy-OPLS-2005>
138.790237426758

> <r_mmod_Electrostatic_Energy-OPLS-2005>
-452.528656005859

> <r_mmod_Solvation_Energy-OPLS-2005>
-211.005111694336

> <b_mmod_Minimization_Converged-OPLS-2005>
0

> <r_mmod_RMS_Derivative-OPLS-2005>
4.21789026260376

$$$$
92
                    3D
 Structure written by MMmdl.
162171  0  0  1  0            999 V2000
  -30.6236  -14.8495   20.4128 C   0  0  0  0  0  0
  -30.4278  -12.5205   19.4812 C   0  0  0  0  0  0
  -29.5123  -12.5127   18.2385 C   0  0  0  0  0  0
  -28.0434  -12.3182   18.6588 C   0  0  0  0  0  0
  -27.6324  -13.2448   19.8350 C   0  0  2  0  0  0
  -28.6809  -13.2613   20.9680 C   0  0  0  0  0  0
  -25.2498  -13.8200   20.5714 C   0  0  0  0  0  0
  -24.1788  -13.0437   20.9196 C   0  0  0  0  0  0
  -24.6397  -11.6917   20.8736 C   0  0  0  0  0  0
  -23.9078  -10.4286   21.0398 C   0  0  0  0  0  0
  -24.3618   -9.4200   21.9175 C   0  0  0  0  0  0
  -23.6294   -8.2232   22.0759 C   0  0  0  0  0  0
  -22.4278   -8.0268   21.3557 C   0  0  0  0  0  0
  -21.9911   -9.0237   20.4650 C   0  0  0  0  0  0
  -22.7237  -10.2114   20.3050 C   0  0  0  0  0  0
  -21.6851   -6.0726   22.5284 C   0  0  0  0  0  0
  -21.4007   -6.5634   23.8210 C   0  0  0  0  0  0
  -21.3664   -5.6783   24.9176 C   0  0  0  0  0  0
  -21.6044   -4.3050   24.7224 C   0  0  0  0  0  0
  -21.8818   -3.8132   23.4346 C   0  0  0  0  0  0
  -21.9191   -4.6951   22.3411 C   0  0  0  0  0  0
  -22.7812  -13.5227   21.1860 C   0  0  0  0  0  0
  -22.1662   -4.2134   21.0988 F   0  0  0  0  0  0
  -21.5640   -3.4535   25.7739 F   0  0  0  0  0  0
  -29.9659  -13.6276   20.3618 N   0  0  0  0  0  0
  -26.2920  -12.9434   20.3259 N   0  0  0  0  0  0
  -25.9335  -11.6559   20.5725 N   0  0  0  0  0  0
  -22.0446  -12.8220   22.0410 N   0  0  0  0  0  0
  -25.4216  -15.1918   20.4170 N   0  0  0  0  0  0
  -31.8278  -14.8569   20.1422 O   0  0  0  0  0  0
  -21.6651   -6.8859   21.4245 O   0  0  0  0  0  0
  -22.3504  -14.5547   20.6727 O   0  0  0  0  0  0
  -24.6415  -31.8483   23.1954 C   0  0  0  0  0  0
  -25.9218  -32.4714   23.8309 C   0  0  1  0  0  0
  -27.2137  -27.1759   20.1374 C   0  0  0  0  0  0
  -25.6009  -33.8522   24.2240 N   0  0  0  0  0  0
  -23.4405  -30.4738   21.5396 C   0  0  2  0  0  0
  -24.8884  -28.9151   20.1093 C   0  0  0  0  0  0
  -22.7560  -29.4592   22.4895 C   0  0  0  0  0  0
  -18.0301  -28.1391   22.8494 C   0  0  0  0  0  0
  -24.1487  -36.7244   23.2634 C   0  0  0  0  0  0
  -25.9970  -30.7339   21.3893 C   0  0  0  0  0  0
  -26.0667  -29.3502   20.7294 C   0  0  0  0  0  0
  -27.2301  -28.4964   20.7333 C   0  0  0  0  0  0
  -26.0107  -26.8508   19.4620 C   0  0  0  0  0  0
  -24.8721  -27.6755   19.4604 C   0  0  0  0  0  0
  -23.6621  -29.8079   20.1576 C   0  0  0  0  0  0
  -25.4103  -36.3031   24.0337 C   0  0  1  0  0  0
  -20.5915  -28.3720   23.1241 C   0  0  2  0  0  0
  -20.6774  -26.9428   22.5403 C   0  0  0  0  0  0
  -19.5750  -26.6371   21.5221 C   0  0  0  0  0  0
  -18.1929  -26.7942   22.1608 C   0  0  0  0  0  0
  -19.1557  -28.8874   23.2860 C   0  0  0  0  0  0
  -18.9477  -30.1474   23.8874 C   0  0  0  0  0  0
  -17.6478  -30.6595   24.0557 C   0  0  0  0  0  0
  -25.9081  -34.9421   23.5081 C   0  0  0  0  0  0
  -16.5364  -29.9088   23.6353 C   0  0  0  0  0  0
  -16.7279  -28.6497   23.0386 C   0  0  0  0  0  0
  -26.4549  -31.6564   25.0733 C   0  0  0  0  0  0
  -25.3753  -31.3760   26.1452 C   0  0  0  0  0  0
  -27.0404  -30.2956   24.6308 C   0  0  0  0  0  0
  -27.6098  -32.4317   25.7496 C   0  0  0  0  0  0
  -27.5596  -37.1745   24.8448 C   0  0  0  0  0  0
  -21.4259  -29.3077   22.3634 N   0  0  0  0  0  0
  -26.4249  -37.3771   23.9480 N   0  0  0  0  0  0
  -24.7126  -31.0402   22.0950 N   0  0  0  0  0  0
  -23.4235  -28.8122   23.3002 O   0  0  0  0  0  0
  -28.2481  -26.1766   20.2283 O   0  0  0  0  0  0
  -26.5640  -34.8915   22.4644 O   0  0  0  0  0  0
  -23.5547  -32.1322   23.7224 O   0  0  0  0  0  0
  -30.0379  -23.1197   20.5877 C   0  0  0  0  0  0
  -30.3935  -21.6882   20.7017 C   0  0  0  0  0  0
  -28.7201  -23.3942   20.2406 C   0  0  0  0  0  0
  -29.3850  -20.7635   20.4493 C   0  0  0  0  0  0
  -29.5076  -18.4019   19.3045 C   0  0  0  0  0  0
  -29.2521  -16.8204   19.5256 C   0  0  0  0  0  0
  -29.7186  -18.5035   21.7189 C   0  0  0  0  0  0
  -30.5554  -17.1486   21.5197 C   0  0  1  0  0  0
  -31.0572  -24.2023   20.8132 C   0  0  0  0  0  0
  -31.7967  -21.2641   21.0493 C   0  0  0  0  0  0
  -30.9089  -16.5743   22.9052 C   0  0  0  0  0  0
  -27.8579  -24.7238   19.9143 C   0  0  0  0  0  0
  -29.4023  -19.2790   20.4969 N   0  0  0  0  0  0
  -29.9546  -16.0794   20.6391 N   0  0  0  0  0  0
  -27.9516  -21.7655   20.0449 S   0  0  0  0  0  0
  -31.4697  -12.6323   19.1750 H   0  0  0  0  0  0
  -30.3777  -11.5643   20.0037 H   0  0  0  0  0  0
  -29.8138  -11.7199   17.5520 H   0  0  0  0  0  0
  -29.6169  -13.4508   17.6905 H   0  0  0  0  0  0
  -27.9219  -11.2741   18.9482 H   0  0  0  0  0  0
  -27.3800  -12.4697   17.8072 H   0  0  0  0  0  0
  -27.5995  -14.2495   19.4140 H   0  0  0  0  0  0
  -28.7445  -12.2895   21.4580 H   0  0  0  0  0  0
  -28.4009  -13.9811   21.7385 H   0  0  0  0  0  0
  -25.2754   -9.5682   22.4762 H   0  0  0  0  0  0
  -23.9996   -7.4630   22.7485 H   0  0  0  0  0  0
  -21.0839   -8.8741   19.8959 H   0  0  0  0  0  0
  -22.3684  -10.9650   19.6165 H   0  0  0  0  0  0
  -21.1991   -7.6140   23.9716 H   0  0  0  0  0  0
  -21.1500   -6.0515   25.9080 H   0  0  0  0  0  0
  -22.0597   -2.7593   23.2845 H   0  0  0  0  0  0
  -22.4006  -11.9838   22.4746 H   0  0  0  0  0  0
  -21.1100  -13.1305   22.2663 H   0  0  0  0  0  0
  -24.6648  -15.8541   20.5488 H   0  0  0  0  0  0
  -26.2895  -15.6311   20.1409 H   0  0  0  0  0  0
  -26.7291  -32.5327   23.1045 H   0  0  0  0  0  0
  -25.0236  -33.9639   25.0444 H   0  0  0  0  0  0
  -22.7390  -31.2978   21.3911 H   0  0  0  0  0  0
  -23.3797  -35.9522   23.3175 H   0  0  0  0  0  0
  -24.3615  -36.8975   22.2075 H   0  0  0  0  0  0
  -23.7161  -37.6373   23.6730 H   0  0  0  0  0  0
  -26.1523  -31.4857   20.6149 H   0  0  0  0  0  0
  -26.8713  -30.7815   22.0279 H   0  0  0  0  0  0
  -28.1222  -28.8249   21.2489 H   0  0  0  0  0  0
  -25.8873  -25.9153   18.9408 H   0  0  0  0  0  0
  -23.9760  -27.3394   18.9572 H   0  0  0  0  0  0
  -23.7868  -30.5843   19.4018 H   0  0  0  0  0  0
  -22.7797  -29.2416   19.8526 H   0  0  0  0  0  0
  -25.1261  -36.1831   25.0820 H   0  0  0  0  0  0
  -21.0009  -28.3286   24.1360 H   0  0  0  0  0  0
  -20.5651  -26.2346   23.3621 H   0  0  0  0  0  0
  -21.6633  -26.7413   22.1189 H   0  0  0  0  0  0
  -19.6894  -25.6273   21.1267 H   0  0  0  0  0  0
  -19.6689  -27.3168   20.6742 H   0  0  0  0  0  0
  -17.4208  -26.6748   21.3998 H   0  0  0  0  0  0
  -18.0283  -26.0061   22.8961 H   0  0  0  0  0  0
  -19.7955  -30.7314   24.2218 H   0  0  0  0  0  0
  -17.5027  -31.6292   24.5141 H   0  0  0  0  0  0
  -15.5364  -30.2987   23.7707 H   0  0  0  0  0  0
  -15.8672  -28.0813   22.7140 H   0  0  0  0  0  0
  -24.5999  -30.7006   25.7823 H   0  0  0  0  0  0
  -24.8869  -32.2931   26.4753 H   0  0  0  0  0  0
  -25.8062  -30.9066   27.0308 H   0  0  0  0  0  0
  -26.3021  -29.6684   24.1304 H   0  0  0  0  0  0
  -27.4003  -29.7252   25.4882 H   0  0  0  0  0  0
  -27.8935  -30.4182   23.9633 H   0  0  0  0  0  0
  -27.2744  -33.3695   26.1937 H   0  0  0  0  0  0
  -28.3984  -32.6734   25.0359 H   0  0  0  0  0  0
  -28.0686  -31.8513   26.5512 H   0  0  0  0  0  0
  -28.2475  -38.0178   24.7682 H   0  0  0  0  0  0
  -28.1213  -36.2725   24.5984 H   0  0  0  0  0  0
  -27.2376  -37.1031   25.8850 H   0  0  0  0  0  0
  -20.9461  -29.8836   21.6857 H   0  0  0  0  0  0
  -26.0088  -38.2800   24.1591 H   0  0  0  0  0  0
  -28.8203  -18.7755   18.5432 H   0  0  0  0  0  0
  -30.5043  -18.5445   18.8836 H   0  0  0  0  0  0
  -29.4695  -16.3182   18.5796 H   0  0  0  0  0  0
  -28.1834  -16.6742   19.6818 H   0  0  0  0  0  0
  -30.2658  -19.1575   22.3991 H   0  0  0  0  0  0
  -28.7782  -18.2753   22.2255 H   0  0  0  0  0  0
  -31.5008  -17.4344   21.0520 H   0  0  0  0  0  0
  -31.6325  -24.0252   21.7227 H   0  0  0  0  0  0
  -30.6032  -25.1880   20.9157 H   0  0  0  0  0  0
  -31.7705  -24.2509   19.9886 H   0  0  0  0  0  0
  -32.5133  -21.6480   20.3222 H   0  0  0  0  0  0
  -31.9203  -20.1819   21.0653 H   0  0  0  0  0  0
  -32.0900  -21.6383   22.0304 H   0  0  0  0  0  0
  -30.0278  -16.1702   23.4045 H   0  0  0  0  0  0
  -31.3257  -17.3458   23.5521 H   0  0  0  0  0  0
  -31.6553  -15.7813   22.8470 H   0  0  0  0  0  0
  -26.8895  -24.5536   20.3883 H   0  0  0  0  0  0
  -27.6720  -24.6927   18.8409 H   0  0  0  0  0  0
  1 25  1  0  0  0
  1 30  2  0  0  0
  1 84  1  0  0  0
  2  3  1  0  0  0
  2 25  1  0  0  0
  2 86  1  0  0  0
  2 87  1  0  0  0
  3  4  1  0  0  0
  3 88  1  0  0  0
  3 89  1  0  0  0
  4  5  1  0  0  0
  4 90  1  0  0  0
  4 91  1  0  0  0
  5  6  1  0  0  0
  5 26  1  0  0  0
  5 92  1  0  0  0
  6 25  1  0  0  0
  6 93  1  0  0  0
  6 94  1  0  0  0
  7  8  2  0  0  0
  7 26  1  0  0  0
  7 29  1  0  0  0
  8  9  1  0  0  0
  8 22  1  0  0  0
  9 10  1  0  0  0
  9 27  2  0  0  0
 10 11  2  0  0  0
 10 15  1  0  0  0
 11 12  1  0  0  0
 11 95  1  0  0  0
 12 13  2  0  0  0
 12 96  1  0  0  0
 13 14  1  0  0  0
 13 31  1  0  0  0
 14 15  2  0  0  0
 14 97  1  0  0  0
 15 98  1  0  0  0
 16 17  2  0  0  0
 16 21  1  0  0  0
 16 31  1  0  0  0
 17 18  1  0  0  0
 17 99  1  0  0  0
 18 19  2  0  0  0
 18100  1  0  0  0
 19 20  1  0  0  0
 19 24  1  0  0  0
 20 21  2  0  0  0
 20101  1  0  0  0
 21 23  1  0  0  0
 22 28  1  0  0  0
 22 32  2  0  0  0
 26 27  1  0  0  0
 28102  1  0  0  0
 28103  1  0  0  0
 29104  1  0  0  0
 29105  1  0  0  0
 33 34  1  0  0  0
 33 66  1  0  0  0
 33 70  2  0  0  0
 34 36  1  0  0  0
 34 59  1  0  0  0
 34106  1  0  0  0
 35 44  2  0  0  0
 35 45  1  0  0  0
 35 68  1  0  0  0
 36 56  1  0  0  0
 36107  1  0  0  0
 37 39  1  0  0  0
 37 47  1  0  0  0
 37 66  1  0  0  0
 37108  1  0  0  0
 38 43  2  0  0  0
 38 46  1  0  0  0
 38 47  1  0  0  0
 39 64  1  0  0  0
 39 67  2  0  0  0
 40 52  1  0  0  0
 40 53  2  0  0  0
 40 58  1  0  0  0
 41109  1  0  0  0
 41110  1  0  0  0
 41111  1  0  0  0
 41 48  1  0  0  0
 42 43  1  0  0  0
 42 66  1  0  0  0
 42112  1  0  0  0
 42113  1  0  0  0
 43 44  1  0  0  0
 44114  1  0  0  0
 45 46  2  0  0  0
 45115  1  0  0  0
 46116  1  0  0  0
 47117  1  0  0  0
 47118  1  0  0  0
 48 56  1  0  0  0
 48 65  1  0  0  0
 48119  1  0  0  0
 49 50  1  0  0  0
 49 53  1  0  0  0
 49 64  1  0  0  0
 49120  1  0  0  0
 50 51  1  0  0  0
 50121  1  0  0  0
 50122  1  0  0  0
 51 52  1  0  0  0
 51123  1  0  0  0
 51124  1  0  0  0
 52125  1  0  0  0
 52126  1  0  0  0
 53 54  1  0  0  0
 54 55  2  0  0  0
 54127  1  0  0  0
 55 57  1  0  0  0
 55128  1  0  0  0
 56 69  2  0  0  0
 57 58  2  0  0  0
 57129  1  0  0  0
 58130  1  0  0  0
 59 60  1  0  0  0
 59 61  1  0  0  0
 59 62  1  0  0  0
 60131  1  0  0  0
 60132  1  0  0  0
 60133  1  0  0  0
 61134  1  0  0  0
 61135  1  0  0  0
 61136  1  0  0  0
 62137  1  0  0  0
 62138  1  0  0  0
 62139  1  0  0  0
 63 65  1  0  0  0
 63140  1  0  0  0
 63141  1  0  0  0
 63142  1  0  0  0
 64143  1  0  0  0
 65144  1  0  0  0
 68 82  1  0  0  0
 71 72  1  0  0  0
 71 73  2  0  0  0
 71 79  1  0  0  0
 72 74  2  0  0  0
 72 80  1  0  0  0
 73 82  1  0  0  0
 73 85  1  0  0  0
 74 83  1  0  0  0
 74 85  1  0  0  0
 75 76  1  0  0  0
 75 83  1  0  0  0
 75145  1  0  0  0
 75146  1  0  0  0
 76 84  1  0  0  0
 76147  1  0  0  0
 76148  1  0  0  0
 77 78  1  0  0  0
 77 83  1  0  0  0
 77149  1  0  0  0
 77150  1  0  0  0
 78 81  1  0  0  0
 78 84  1  0  0  0
 78151  1  0  0  0
 79152  1  0  0  0
 79153  1  0  0  0
 79154  1  0  0  0
 80155  1  0  0  0
 80156  1  0  0  0
 80157  1  0  0  0
 81158  1  0  0  0
 81159  1  0  0  0
 81160  1  0  0  0
 82161  1  0  0  0
 82162  1  0  0  0
M  ISO  4   1 100  68 101  82 101  84 100
M  END
> <chiral flag>
0

> <version>
0

> <s_m_source_file>
/data/baiqing/PycharmProjects/Reinvent-master-3.2/result/LINK_invent/BTK/process_docking_weight1_custom_sum_contain_oxygen_bond_distance_aromatic_linkinvent_7_9_3/rearranged_h_0170.sdf

> <i_m_source_file_index>
92

> <r_mmod_Potential_Energy-OPLS-2005>
576.340026855469

> <r_mmod_Stretch_Energy-OPLS-2005>
175.294082641602

> <r_mmod_Bend_Energy-OPLS-2005>
251.401062011719

> <r_mmod_Torsional_Energy-OPLS-2005>
387.22607421875

> <r_mmod_Improper_Torsional_Energy-OPLS-2005>
7.15716791152954

> <r_mmod_Van_der_Waal_Energy-OPLS-2005>
125.629600524902

> <r_mmod_Electrostatic_Energy-OPLS-2005>
-318.793548583984

> <r_mmod_Solvation_Energy-OPLS-2005>
-200.966186523438

> <b_mmod_Minimization_Converged-OPLS-2005>
0

> <r_mmod_RMS_Derivative-OPLS-2005>
2.65139436721802

$$$$
93
                    3D
 Structure written by MMmdl.
170179  0  0  1  0            999 V2000
  -28.6980  -16.3690   20.9360 C   0  0  0  0  0  0
  -29.9914  -13.9150   19.8273 C   0  0  0  0  0  0
  -29.4927  -13.0187   18.5951 C   0  0  0  0  0  0
  -28.1667  -12.3216   18.9053 C   0  0  0  0  0  0
  -27.4193  -13.2711   19.8428 C   0  0  2  0  0  0
  -28.1649  -13.6923   21.1092 C   0  0  0  0  0  0
  -25.1317  -13.7976   20.5470 C   0  0  0  0  0  0
  -24.0933  -13.0164   20.9245 C   0  0  0  0  0  0
  -24.5717  -11.6692   20.8766 C   0  0  0  0  0  0
  -23.8656  -10.4109   21.0502 C   0  0  0  0  0  0
  -24.3396   -9.4099   21.9238 C   0  0  0  0  0  0
  -23.6170   -8.2096   22.0765 C   0  0  0  0  0  0
  -22.4157   -8.0123   21.3545 C   0  0  0  0  0  0
  -21.9700   -9.0039   20.4644 C   0  0  0  0  0  0
  -22.6917  -10.1947   20.3083 C   0  0  0  0  0  0
  -21.6799   -6.0646   22.5300 C   0  0  0  0  0  0
  -21.3972   -6.5587   23.8220 C   0  0  0  0  0  0
  -21.3645   -5.6760   24.9195 C   0  0  0  0  0  0
  -21.6041   -4.3021   24.7258 C   0  0  0  0  0  0
  -21.8826   -3.8094   23.4388 C   0  0  0  0  0  0
  -21.9180   -4.6891   22.3434 C   0  0  0  0  0  0
  -22.7114  -13.5027   21.2053 C   0  0  0  0  0  0
  -22.1661   -4.2087   21.1010 F   0  0  0  0  0  0
  -21.5639   -3.4517   25.7779 F   0  0  0  0  0  0
  -28.8988  -14.8381   20.6224 N   0  0  0  0  0  0
  -26.1352  -12.9046   20.2581 N   0  0  0  0  0  0
  -25.8477  -11.6235   20.5389 N   0  0  0  0  0  0
  -21.9879  -12.8054   22.0690 N   0  0  0  0  0  0
  -25.3026  -15.1755   20.4083 N   0  0  0  0  0  0
  -29.9715  -16.5301   20.7201 O   0  0  0  0  0  0
  -21.6555   -6.8730   21.4241 O   0  0  0  0  0  0
  -22.2893  -14.5401   20.6951 O   0  0  0  0  0  0
  -24.7108  -32.0070   23.2114 C   0  0  0  0  0  0
  -25.9846  -32.5455   23.8898 C   0  0  1  0  0  0
  -26.3633  -27.2783   20.1637 C   0  0  0  0  0  0
  -25.6609  -33.9131   24.2844 N   0  0  0  0  0  0
  -23.6607  -30.5381   21.6006 C   0  0  2  0  0  0
  -25.1162  -29.4939   19.7526 C   0  0  0  0  0  0
  -23.6580  -29.3249   22.5689 C   0  0  0  0  0  0
  -18.3655  -27.1920   22.8165 C   0  0  0  0  0  0
  -24.1521  -36.7470   23.2561 C   0  0  0  0  0  0
  -26.1386  -30.8582   21.5073 C   0  0  0  0  0  0
  -26.0958  -29.5705   20.7141 C   0  0  0  0  0  0
  -26.8805  -28.4160   20.8718 C   0  0  0  0  0  0
  -26.2064  -27.5013   18.8365 C   0  0  0  0  0  0
  -25.3841  -28.6293   18.6510 C   0  0  0  0  0  0
  -23.8588  -30.2650   20.0587 C   0  0  0  0  0  0
  -25.4128  -36.3386   24.0337 C   0  0  1  0  0  0
  -22.3804  -27.2121   22.9998 C   0  0  2  0  0  0
  -22.2688  -25.8132   21.5337 C   0  0  0  0  0  0
  -20.3340  -25.2510   20.9798 C   0  0  0  0  0  0
  -18.6830  -25.9206   21.7072 C   0  0  0  0  0  0
  -19.4915  -27.6214   23.7250 C   0  0  0  0  0  0
  -18.8936  -28.8958   24.4160 C   0  0  0  0  0  0
  -17.7814  -29.7520   24.1536 C   0  0  0  0  0  0
  -25.9178  -34.9804   23.5237 C   0  0  0  0  0  0
  -16.8169  -29.2425   23.3113 C   0  0  0  0  0  0
  -17.1111  -27.9767   22.7147 C   0  0  0  0  0  0
  -26.4731  -31.6887   25.1215 C   0  0  0  0  0  0
  -25.3700  -31.4025   26.1662 C   0  0  0  0  0  0
  -27.0847  -30.3315   24.6935 C   0  0  0  0  0  0
  -27.6181  -32.4514   25.8225 C   0  0  0  0  0  0
  -27.5618  -37.1967   24.8458 C   0  0  0  0  0  0
  -23.1408  -28.2309   22.2081 N   0  0  0  0  0  0
  -26.4318  -37.4041   23.9434 N   0  0  0  0  0  0
  -24.8333  -31.2520   22.0919 N   0  0  0  0  0  0
  -24.0321  -29.2959   23.7208 O   0  0  0  0  0  0
  -25.0070  -26.9098   20.4629 O   0  0  0  0  0  0
  -26.5424  -34.9122   22.4611 O   0  0  0  0  0  0
  -23.6063  -32.2569   23.7222 O   0  0  0  0  0  0
  -20.8477  -29.0019   22.4874 C   0  0  0  0  0  0
  -21.3730  -29.0532   24.1116 C   0  0  0  0  0  0
  -20.6286  -27.4482   21.7686 C   0  0  0  0  0  0
  -21.4385  -27.7190   25.1282 C   0  0  0  0  0  0
  -20.8344  -25.6226   23.2830 C   0  0  0  0  0  0
  -23.4706  -22.9976   22.5514 C   0  0  0  0  0  0
  -21.6306  -22.3720   23.1580 C   0  0  0  0  0  0
  -24.2852  -20.9909   22.1851 C   0  0  2  0  0  0
  -22.9002  -21.0897   23.1861 C   0  0  2  0  0  0
  -21.8425  -27.9325   26.5685 C   0  0  0  0  0  0
  -20.8883  -28.8242   19.3920 C   0  0  0  0  0  0
  -26.1911  -19.4122   21.8620 C   0  0  0  0  0  0
  -23.3967  -27.2504   19.7522 C   0  0  0  0  0  0
  -21.5574  -27.6826   20.1968 C   0  0  1  0  0  0
  -21.1431  -26.1845   24.7474 N   0  0  0  0  0  0
  -21.8728  -23.9275   23.1307 N   0  0  0  0  0  0
  -27.3570  -17.5968   21.3347 N   0  0  0  0  0  0
  -22.2219  -19.7833   23.1493 N   0  3  0  0  0  0
  -30.7595  -14.5789   19.4287 H   0  0  0  0  0  0
  -30.5482  -13.2947   20.5328 H   0  0  0  0  0  0
  -30.2566  -12.2993   18.2971 H   0  0  0  0  0  0
  -29.3436  -13.6756   17.7371 H   0  0  0  0  0  0
  -28.3572  -11.3726   19.4082 H   0  0  0  0  0  0
  -27.6001  -12.1067   17.9988 H   0  0  0  0  0  0
  -27.2389  -14.1339   19.1947 H   0  0  0  0  0  0
  -28.7361  -12.8866   21.5758 H   0  0  0  0  0  0
  -27.4977  -14.0614   21.8913 H   0  0  0  0  0  0
  -25.2538   -9.5657   22.4794 H   0  0  0  0  0  0
  -23.9922   -7.4485   22.7459 H   0  0  0  0  0  0
  -21.0642   -8.8490   19.8950 H   0  0  0  0  0  0
  -22.3350  -10.9486   19.6204 H   0  0  0  0  0  0
  -21.1942   -7.6093   23.9702 H   0  0  0  0  0  0
  -21.1469   -6.0498   25.9094 H   0  0  0  0  0  0
  -22.0625   -2.7557   23.2904 H   0  0  0  0  0  0
  -22.3522  -11.9688   22.4999 H   0  0  0  0  0  0
  -21.0548  -13.1126   22.3041 H   0  0  0  0  0  0
  -24.5435  -15.8251   20.5804 H   0  0  0  0  0  0
  -26.1366  -15.6342   20.0690 H   0  0  0  0  0  0
  -26.8165  -32.6049   23.1903 H   0  0  0  0  0  0
  -25.1024  -34.0310   25.1168 H   0  0  0  0  0  0
  -22.7486  -31.1225   21.7302 H   0  0  0  0  0  0
  -23.3825  -35.9761   23.3229 H   0  0  0  0  0  0
  -24.3658  -36.9046   22.1979 H   0  0  0  0  0  0
  -23.7203  -37.6673   23.6505 H   0  0  0  0  0  0
  -26.4596  -31.6572   20.8369 H   0  0  0  0  0  0
  -26.9424  -30.7349   22.2176 H   0  0  0  0  0  0
  -27.6129  -28.3242   21.6616 H   0  0  0  0  0  0
  -26.1702  -26.7043   18.1066 H   0  0  0  0  0  0
  -24.8279  -28.7204   17.7274 H   0  0  0  0  0  0
  -23.9615  -31.2307   19.5617 H   0  0  0  0  0  0
  -23.0295  -29.8234   19.5604 H   0  0  0  0  0  0
  -25.1242  -36.2309   25.0820 H   0  0  0  0  0  0
  -23.1356  -26.8460   23.7137 H   0  0  0  0  0  0
  -23.0941  -25.3429   22.0385 H   0  0  0  0  0  0
  -22.9480  -25.3460   20.8390 H   0  0  0  0  0  0
  -20.2760  -24.1726   21.1284 H   0  0  0  0  0  0
  -20.2217  -25.2324   19.8974 H   0  0  0  0  0  0
  -18.0668  -26.1590   20.8400 H   0  0  0  0  0  0
  -18.1782  -25.0582   22.1423 H   0  0  0  0  0  0
  -19.4249  -29.3491   25.2407 H   0  0  0  0  0  0
  -17.6242  -30.6691   24.7045 H   0  0  0  0  0  0
  -15.8917  -29.7685   23.1163 H   0  0  0  0  0  0
  -16.3697  -27.6006   22.0237 H   0  0  0  0  0  0
  -24.5812  -30.7611   25.7754 H   0  0  0  0  0  0
  -24.8992  -32.3222   26.5145 H   0  0  0  0  0  0
  -25.7757  -30.8992   27.0447 H   0  0  0  0  0  0
  -26.3971  -29.7030   24.1365 H   0  0  0  0  0  0
  -27.3861  -29.7484   25.5648 H   0  0  0  0  0  0
  -27.9870  -30.4648   24.0959 H   0  0  0  0  0  0
  -27.2761  -33.3800   26.2810 H   0  0  0  0  0  0
  -28.4150  -32.7091   25.1233 H   0  0  0  0  0  0
  -28.0673  -31.8588   26.6207 H   0  0  0  0  0  0
  -28.2598  -38.0308   24.7624 H   0  0  0  0  0  0
  -28.1167  -36.2860   24.6151 H   0  0  0  0  0  0
  -27.2345  -37.1458   25.8857 H   0  0  0  0  0  0
  -22.9405  -28.1815   21.2255 H   0  0  0  0  0  0
  -26.0233  -38.3114   24.1514 H   0  0  0  0  0  0
  -20.8510  -29.9135   21.9157 H   0  0  0  0  0  0
  -21.6158  -30.0212   24.5292 H   0  0  0  0  0  0
  -23.7187  -23.4605   21.5988 H   0  0  0  0  0  0
  -24.2055  -23.4279   23.2344 H   0  0  0  0  0  0
  -20.9674  -22.1920   24.0049 H   0  0  0  0  0  0
  -21.0092  -22.1751   22.2829 H   0  0  0  0  0  0
  -23.8675  -20.8269   21.1916 H   0  0  0  0  0  0
  -23.3094  -21.1411   24.1982 H   0  0  0  0  0  0
  -22.0683  -28.9815   26.7565 H   0  0  0  0  0  0
  -22.7320  -27.3462   26.8018 H   0  0  0  0  0  0
  -21.0390  -27.6287   27.2394 H   0  0  0  0  0  0
  -19.8174  -28.6410   19.2896 H   0  0  0  0  0  0
  -21.2895  -28.8906   18.3799 H   0  0  0  0  0  0
  -20.9688  -29.8108   19.8401 H   0  0  0  0  0  0
  -26.6718  -19.5715   22.8274 H   0  0  0  0  0  0
  -26.7486  -20.0563   21.1813 H   0  0  0  0  0  0
  -23.3465  -27.7523   18.8004 H   0  0  0  0  0  0
  -23.3156  -26.3170   19.1935 H   0  0  0  0  0  0
  -21.1392  -26.9551   19.5160 H   0  0  0  0  0  0
  -28.1475  -18.2257   21.2639 H   0  0  0  0  0  0
  -21.7880  -19.6267   22.2575 H   0  0  0  0  0  0
  -21.5145  -19.7327   23.8602 H   0  0  0  0  0  0
  -22.8807  -19.0442   23.3161 H   0  0  0  0  0  0
  1 25  1  0  0  0
  1 30  2  0  0  0
  1 87  1  0  0  0
  2  3  1  0  0  0
  2 25  1  0  0  0
  2 89  1  0  0  0
  2 90  1  0  0  0
  3  4  1  0  0  0
  3 91  1  0  0  0
  3 92  1  0  0  0
  4  5  1  0  0  0
  4 93  1  0  0  0
  4 94  1  0  0  0
  5  6  1  0  0  0
  5 26  1  0  0  0
  5 95  1  0  0  0
  6 25  1  0  0  0
  6 96  1  0  0  0
  6 97  1  0  0  0
  7  8  2  0  0  0
  7 26  1  0  0  0
  7 29  1  0  0  0
  8  9  1  0  0  0
  8 22  1  0  0  0
  9 10  1  0  0  0
  9 27  2  0  0  0
 10 11  2  0  0  0
 10 15  1  0  0  0
 11 12  1  0  0  0
 11 98  1  0  0  0
 12 13  2  0  0  0
 12 99  1  0  0  0
 13 14  1  0  0  0
 13 31  1  0  0  0
 14 15  2  0  0  0
 14100  1  0  0  0
 15101  1  0  0  0
 16 17  2  0  0  0
 16 21  1  0  0  0
 16 31  1  0  0  0
 17 18  1  0  0  0
 17102  1  0  0  0
 18 19  2  0  0  0
 18103  1  0  0  0
 19 20  1  0  0  0
 19 24  1  0  0  0
 20 21  2  0  0  0
 20104  1  0  0  0
 21 23  1  0  0  0
 22 28  1  0  0  0
 22 32  2  0  0  0
 26 27  1  0  0  0
 28105  1  0  0  0
 28106  1  0  0  0
 29107  1  0  0  0
 29108  1  0  0  0
 33 34  1  0  0  0
 33 66  1  0  0  0
 33 70  2  0  0  0
 34 36  1  0  0  0
 34 59  1  0  0  0
 34109  1  0  0  0
 35 44  2  0  0  0
 35 45  1  0  0  0
 35 68  1  0  0  0
 36 56  1  0  0  0
 36110  1  0  0  0
 37 39  1  0  0  0
 37 47  1  0  0  0
 37 66  1  0  0  0
 37111  1  0  0  0
 38 43  2  0  0  0
 38 46  1  0  0  0
 38 47  1  0  0  0
 39 64  1  0  0  0
 39 67  2  0  0  0
 40 52  1  0  0  0
 40 53  2  0  0  0
 40 58  1  0  0  0
 41112  1  0  0  0
 41113  1  0  0  0
 41114  1  0  0  0
 41 48  1  0  0  0
 42 43  1  0  0  0
 42 66  1  0  0  0
 42115  1  0  0  0
 42116  1  0  0  0
 43 44  1  0  0  0
 44117  1  0  0  0
 45 46  2  0  0  0
 45118  1  0  0  0
 46119  1  0  0  0
 47120  1  0  0  0
 47121  1  0  0  0
 48 56  1  0  0  0
 48 65  1  0  0  0
 48122  1  0  0  0
 49 50  1  0  0  0
 49 53  1  0  0  0
 49 64  1  0  0  0
 49123  1  0  0  0
 50 51  1  0  0  0
 50124  1  0  0  0
 50125  1  0  0  0
 51 52  1  0  0  0
 51126  1  0  0  0
 51127  1  0  0  0
 52128  1  0  0  0
 52129  1  0  0  0
 53 54  1  0  0  0
 54 55  2  0  0  0
 54130  1  0  0  0
 55 57  1  0  0  0
 55131  1  0  0  0
 56 69  2  0  0  0
 57 58  2  0  0  0
 57132  1  0  0  0
 58133  1  0  0  0
 59 60  1  0  0  0
 59 61  1  0  0  0
 59 62  1  0  0  0
 60134  1  0  0  0
 60135  1  0  0  0
 60136  1  0  0  0
 61137  1  0  0  0
 61138  1  0  0  0
 61139  1  0  0  0
 62140  1  0  0  0
 62141  1  0  0  0
 62142  1  0  0  0
 63 65  1  0  0  0
 63143  1  0  0  0
 63144  1  0  0  0
 63145  1  0  0  0
 64146  1  0  0  0
 65147  1  0  0  0
 68 83  1  0  0  0
 71 72  2  0  0  0
 71 73  1  0  0  0
 71148  1  0  0  0
 72 74  1  0  0  0
 72149  1  0  0  0
 73 75  2  0  0  0
 73 84  1  0  0  0
 74 80  1  0  0  0
 74 85  2  0  0  0
 75 85  1  0  0  0
 75 86  1  0  0  0
 76 78  1  0  0  0
 76 86  1  0  0  0
 76150  1  0  0  0
 76151  1  0  0  0
 77 79  1  0  0  0
 77 86  1  0  0  0
 77152  1  0  0  0
 77153  1  0  0  0
 78 79  1  0  0  0
 78 82  1  0  0  0
 78154  1  0  0  0
 79 88  1  0  0  0
 79155  1  0  0  0
 80156  1  0  0  0
 80157  1  0  0  0
 80158  1  0  0  0
 81159  1  0  0  0
 81160  1  0  0  0
 81161  1  0  0  0
 81 84  1  0  0  0
 82 87  1  0  0  0
 82162  1  0  0  0
 82163  1  0  0  0
 83 84  1  0  0  0
 83164  1  0  0  0
 83165  1  0  0  0
 84166  1  0  0  0
 87167  1  0  0  0
 88168  1  0  0  0
 88169  1  0  0  0
 88170  1  0  0  0
M  CHG  1  88   1
M  ISO  4   1 100  68 101  83 101  87 100
M  END
> <chiral flag>
0

> <version>
0

> <s_m_source_file>
/data/baiqing/PycharmProjects/Reinvent-master-3.2/result/LINK_invent/BTK/process_docking_weight1_custom_sum_contain_oxygen_bond_distance_aromatic_linkinvent_7_9_3/rearranged_h_0170.sdf

> <i_m_source_file_index>
93

> <r_mmod_Potential_Energy-OPLS-2005>
24252.685546875

> <r_mmod_Stretch_Energy-OPLS-2005>
11637.046875

> <r_mmod_Bend_Energy-OPLS-2005>
2505.98754882812

> <r_mmod_Torsional_Energy-OPLS-2005>
729.236022949219

> <r_mmod_Improper_Torsional_Energy-OPLS-2005>
84.9043731689453

> <r_mmod_Van_der_Waal_Energy-OPLS-2005>
3644.80346679688

> <r_mmod_Electrostatic_Energy-OPLS-2005>
-480.039154052734

> <r_mmod_Solvation_Energy-OPLS-2005>
-581.707458496094

> <b_mmod_Minimization_Converged-OPLS-2005>
0

> <r_mmod_RMS_Derivative-OPLS-2005>
2.68437767028809

$$$$
94
                    3D
 Structure written by MMmdl.
166177  0  0  1  0            999 V2000
  -30.6591  -14.5954   20.4929 C   0  0  0  0  0  0
  -30.4207  -12.3564   19.4553 C   0  0  0  0  0  0
  -29.5045  -12.4935   18.2226 C   0  0  0  0  0  0
  -28.0266  -12.3434   18.6342 C   0  0  0  0  0  0
  -27.6507  -13.2180   19.8614 C   0  0  2  0  0  0
  -28.6932  -13.0867   20.9934 C   0  0  0  0  0  0
  -25.2550  -13.8146   20.5674 C   0  0  0  0  0  0
  -24.1827  -13.0420   20.9194 C   0  0  0  0  0  0
  -24.6404  -11.6891   20.8757 C   0  0  0  0  0  0
  -23.9069  -10.4281   21.0415 C   0  0  0  0  0  0
  -24.3621   -9.4198   21.9196 C   0  0  0  0  0  0
  -23.6292   -8.2232   22.0765 C   0  0  0  0  0  0
  -22.4276   -8.0275   21.3546 C   0  0  0  0  0  0
  -21.9915   -9.0251   20.4651 C   0  0  0  0  0  0
  -22.7242  -10.2126   20.3064 C   0  0  0  0  0  0
  -21.6846   -6.0736   22.5273 C   0  0  0  0  0  0
  -21.4010   -6.5642   23.8205 C   0  0  0  0  0  0
  -21.3660   -5.6798   24.9171 C   0  0  0  0  0  0
  -21.6040   -4.3058   24.7228 C   0  0  0  0  0  0
  -21.8818   -3.8149   23.4349 C   0  0  0  0  0  0
  -21.9192   -4.6964   22.3400 C   0  0  0  0  0  0
  -22.7850  -13.5218   21.1842 C   0  0  0  0  0  0
  -22.1661   -4.2151   21.0980 F   0  0  0  0  0  0
  -21.5630   -3.4543   25.7741 F   0  0  0  0  0  0
  -30.0064  -13.3968   20.4164 N   0  0  0  0  0  0
  -26.2986  -12.9345   20.3326 N   0  0  0  0  0  0
  -25.9330  -11.6497   20.5766 N   0  0  0  0  0  0
  -22.0500  -12.8225   22.0404 N   0  0  0  0  0  0
  -25.4234  -15.1855   20.4045 N   0  0  0  0  0  0
  -31.8452  -14.6937   20.1688 O   0  0  0  0  0  0
  -21.6633   -6.8879   21.4238 O   0  0  0  0  0  0
  -22.3544  -14.5525   20.6683 O   0  0  0  0  0  0
  -24.6197  -31.8649   23.2059 C   0  0  0  0  0  0
  -25.9076  -32.4805   23.8376 C   0  0  1  0  0  0
  -27.2239  -27.3712   20.1123 C   0  0  0  0  0  0
  -25.5932  -33.8595   24.2313 N   0  0  0  0  0  0
  -23.4122  -30.4864   21.5469 C   0  0  2  0  0  0
  -24.8585  -28.9371   20.1214 C   0  0  0  0  0  0
  -22.7460  -29.4625   22.4957 C   0  0  0  0  0  0
  -18.0281  -28.1346   22.8487 C   0  0  0  0  0  0
  -24.1493  -36.7280   23.2650 C   0  0  0  0  0  0
  -25.9455  -30.8053   21.3733 C   0  0  0  0  0  0
  -26.0212  -29.4304   20.7298 C   0  0  0  0  0  0
  -27.2110  -28.6523   20.7269 C   0  0  0  0  0  0
  -26.0479  -26.9075   19.4947 C   0  0  0  0  0  0
  -24.8674  -27.6753   19.5006 C   0  0  0  0  0  0
  -23.6266  -29.8154   20.1630 C   0  0  0  0  0  0
  -25.4114  -36.3076   24.0336 C   0  0  1  0  0  0
  -20.5873  -28.3652   23.1274 C   0  0  2  0  0  0
  -20.6771  -26.9369   22.5404 C   0  0  0  0  0  0
  -19.5743  -26.6347   21.5205 C   0  0  0  0  0  0
  -18.1920  -26.7894   22.1613 C   0  0  0  0  0  0
  -19.1528  -28.8808   23.2888 C   0  0  0  0  0  0
  -18.9473  -30.1424   23.8895 C   0  0  0  0  0  0
  -17.6480  -30.6576   24.0528 C   0  0  0  0  0  0
  -25.9048  -34.9457   23.5119 C   0  0  0  0  0  0
  -16.5366  -29.9064   23.6317 C   0  0  0  0  0  0
  -16.7275  -28.6472   23.0348 C   0  0  0  0  0  0
  -26.4480  -31.6601   25.0726 C   0  0  0  0  0  0
  -25.3728  -31.3711   26.1473 C   0  0  0  0  0  0
  -27.0350  -30.3058   24.6129 C   0  0  0  0  0  0
  -27.6041  -32.4336   25.7496 C   0  0  0  0  0  0
  -27.5577  -37.1790   24.8473 C   0  0  0  0  0  0
  -21.4183  -29.3016   22.3683 N   0  0  0  0  0  0
  -26.4289  -37.3768   23.9420 N   0  0  0  0  0  0
  -24.6767  -31.0691   22.0986 N   0  0  0  0  0  0
  -23.4215  -28.8174   23.3020 O   0  0  0  0  0  0
  -28.3571  -26.5839   19.9921 O   0  0  0  0  0  0
  -26.5597  -34.8915   22.4675 O   0  0  0  0  0  0
  -23.5371  -32.1409   23.7406 O   0  0  0  0  0  0
  -27.6039  -20.9150   20.9294 C   0  0  0  0  0  0
  -27.6956  -19.4897   20.9606 C   0  0  0  0  0  0
  -28.8526  -21.4663   20.9319 C   0  0  0  0  0  0
  -29.0284  -19.1445   20.9800 C   0  0  0  0  0  0
  -31.9795  -19.9491   22.0290 C   0  0  0  0  0  0
  -31.9009  -21.4305   21.7674 C   0  0  0  0  0  0
  -29.0530  -23.5835   22.3322 C   0  0  0  0  0  0
  -29.0399  -16.4051   21.4309 C   0  0  0  0  0  0
  -30.1720  -17.0056   19.7660 C   0  0  0  0  0  0
  -29.2638  -22.9535   20.9935 C   0  0  2  0  0  0
  -29.7096  -17.7468   21.0298 C   0  0  0  0  0  0
  -28.3607  -24.2352   21.1542 C   0  0  2  0  0  0
  -31.1998  -20.4618   20.8323 C   0  0  0  0  0  0
  -26.5042  -18.5675   20.9691 C   0  0  0  0  0  0
  -28.7494  -25.7488   21.1028 C   0  0  0  0  0  0
  -29.7432  -20.3677   20.9423 N   0  0  0  0  0  0
  -29.8719  -15.7159   20.4268 N   0  0  0  0  0  0
  -31.4686  -12.4464   19.1644 H   0  0  0  0  0  0
  -30.3157  -11.3652   19.9003 H   0  0  0  0  0  0
  -29.7602  -11.7452   17.4720 H   0  0  0  0  0  0
  -29.6620  -13.4661   17.7516 H   0  0  0  0  0  0
  -27.8579  -11.2917   18.8685 H   0  0  0  0  0  0
  -27.3731  -12.5745   17.7921 H   0  0  0  0  0  0
  -27.6668  -14.2516   19.5156 H   0  0  0  0  0  0
  -28.6902  -12.0790   21.4129 H   0  0  0  0  0  0
  -28.4572  -13.7601   21.8182 H   0  0  0  0  0  0
  -25.2759   -9.5668   22.4777 H   0  0  0  0  0  0
  -23.9988   -7.4631   22.7494 H   0  0  0  0  0  0
  -21.0838   -8.8774   19.8966 H   0  0  0  0  0  0
  -22.3697  -10.9675   19.6182 H   0  0  0  0  0  0
  -21.1997   -7.6153   23.9709 H   0  0  0  0  0  0
  -21.1483   -6.0532   25.9075 H   0  0  0  0  0  0
  -22.0598   -2.7614   23.2846 H   0  0  0  0  0  0
  -22.4113  -11.9882   22.4784 H   0  0  0  0  0  0
  -21.1125  -13.1269   22.2621 H   0  0  0  0  0  0
  -24.6487  -15.8333   20.4923 H   0  0  0  0  0  0
  -26.2642  -15.6120   20.0394 H   0  0  0  0  0  0
  -26.7159  -32.5497   23.1147 H   0  0  0  0  0  0
  -25.0094  -33.9722   25.0463 H   0  0  0  0  0  0
  -22.7053  -31.3059   21.4035 H   0  0  0  0  0  0
  -23.3739  -35.9633   23.3307 H   0  0  0  0  0  0
  -24.3590  -36.8895   22.2070 H   0  0  0  0  0  0
  -23.7241  -37.6478   23.6672 H   0  0  0  0  0  0
  -26.0703  -31.5678   20.6021 H   0  0  0  0  0  0
  -26.8269  -30.8559   22.0007 H   0  0  0  0  0  0
  -28.1140  -29.0283   21.1894 H   0  0  0  0  0  0
  -26.0487  -25.9449   19.0004 H   0  0  0  0  0  0
  -23.9759  -27.2974   19.0175 H   0  0  0  0  0  0
  -23.7497  -30.5899   19.4044 H   0  0  0  0  0  0
  -22.7474  -29.2430   19.8622 H   0  0  0  0  0  0
  -25.1284  -36.1946   25.0820 H   0  0  0  0  0  0
  -20.9959  -28.3228   24.1393 H   0  0  0  0  0  0
  -20.5658  -26.2267   23.3601 H   0  0  0  0  0  0
  -21.6646  -26.7406   22.1198 H   0  0  0  0  0  0
  -19.6908  -25.6254   21.1237 H   0  0  0  0  0  0
  -19.6679  -27.3165   20.6737 H   0  0  0  0  0  0
  -17.4188  -26.6645   21.4008 H   0  0  0  0  0  0
  -18.0308  -26.0029   22.8991 H   0  0  0  0  0  0
  -19.7968  -30.7200   24.2277 H   0  0  0  0  0  0
  -17.5053  -31.6264   24.5118 H   0  0  0  0  0  0
  -15.5364  -30.2953   23.7654 H   0  0  0  0  0  0
  -15.8678  -28.0794   22.7048 H   0  0  0  0  0  0
  -24.5911  -30.7047   25.7807 H   0  0  0  0  0  0
  -24.8897  -32.2857   26.4920 H   0  0  0  0  0  0
  -25.8054  -30.8890   27.0250 H   0  0  0  0  0  0
  -26.2908  -29.6766   24.1239 H   0  0  0  0  0  0
  -27.4186  -29.7363   25.4604 H   0  0  0  0  0  0
  -27.8709  -30.4373   23.9251 H   0  0  0  0  0  0
  -27.2678  -33.3656   26.2046 H   0  0  0  0  0  0
  -28.3862  -32.6865   25.0322 H   0  0  0  0  0  0
  -28.0705  -31.8481   26.5431 H   0  0  0  0  0  0
  -28.2582  -38.0104   24.7522 H   0  0  0  0  0  0
  -28.1074  -36.2620   24.6287 H   0  0  0  0  0  0
  -27.2295  -37.1428   25.8878 H   0  0  0  0  0  0
  -20.9347  -29.8756   21.6910 H   0  0  0  0  0  0
  -26.0171  -38.2834   24.1429 H   0  0  0  0  0  0
  -26.6885  -21.4908   20.9239 H   0  0  0  0  0  0
  -31.4335  -19.5816   22.8960 H   0  0  0  0  0  0
  -32.9245  -19.4480   21.8285 H   0  0  0  0  0  0
  -32.7925  -21.9248   21.3882 H   0  0  0  0  0  0
  -31.3227  -22.0043   22.4843 H   0  0  0  0  0  0
  -29.9201  -24.0797   22.7692 H   0  0  0  0  0  0
  -28.4220  -23.0657   23.0514 H   0  0  0  0  0  0
  -27.9788  -16.3369   21.2032 H   0  0  0  0  0  0
  -29.2323  -16.1190   22.4661 H   0  0  0  0  0  0
  -31.2225  -17.1803   19.5307 H   0  0  0  0  0  0
  -29.5388  -17.2036   18.9001 H   0  0  0  0  0  0
  -30.1992  -23.1271   20.4657 H   0  0  0  0  0  0
  -30.5703  -17.8301   21.6907 H   0  0  0  0  0  0
  -27.2889  -24.0652   21.0704 H   0  0  0  0  0  0
  -31.5647  -20.2987   19.8208 H   0  0  0  0  0  0
  -25.5755  -19.1389   20.9862 H   0  0  0  0  0  0
  -26.5118  -17.9254   21.8503 H   0  0  0  0  0  0
  -26.4967  -17.9433   20.0751 H   0  0  0  0  0  0
  -29.8374  -25.8159   21.1448 H   0  0  0  0  0  0
  -28.4009  -26.2135   22.0284 H   0  0  0  0  0  0
  1 25  1  0  0  0
  1 30  2  0  0  0
  1 87  1  0  0  0
  2  3  1  0  0  0
  2 25  1  0  0  0
  2 88  1  0  0  0
  2 89  1  0  0  0
  3  4  1  0  0  0
  3 90  1  0  0  0
  3 91  1  0  0  0
  4  5  1  0  0  0
  4 92  1  0  0  0
  4 93  1  0  0  0
  5  6  1  0  0  0
  5 26  1  0  0  0
  5 94  1  0  0  0
  6 25  1  0  0  0
  6 95  1  0  0  0
  6 96  1  0  0  0
  7  8  2  0  0  0
  7 26  1  0  0  0
  7 29  1  0  0  0
  8  9  1  0  0  0
  8 22  1  0  0  0
  9 10  1  0  0  0
  9 27  2  0  0  0
 10 11  2  0  0  0
 10 15  1  0  0  0
 11 12  1  0  0  0
 11 97  1  0  0  0
 12 13  2  0  0  0
 12 98  1  0  0  0
 13 14  1  0  0  0
 13 31  1  0  0  0
 14 15  2  0  0  0
 14 99  1  0  0  0
 15100  1  0  0  0
 16 17  2  0  0  0
 16 21  1  0  0  0
 16 31  1  0  0  0
 17 18  1  0  0  0
 17101  1  0  0  0
 18 19  2  0  0  0
 18102  1  0  0  0
 19 20  1  0  0  0
 19 24  1  0  0  0
 20 21  2  0  0  0
 20103  1  0  0  0
 21 23  1  0  0  0
 22 28  1  0  0  0
 22 32  2  0  0  0
 26 27  1  0  0  0
 28104  1  0  0  0
 28105  1  0  0  0
 29106  1  0  0  0
 29107  1  0  0  0
 33 34  1  0  0  0
 33 66  1  0  0  0
 33 70  2  0  0  0
 34 36  1  0  0  0
 34 59  1  0  0  0
 34108  1  0  0  0
 35 44  2  0  0  0
 35 45  1  0  0  0
 35 68  1  0  0  0
 36 56  1  0  0  0
 36109  1  0  0  0
 37 39  1  0  0  0
 37 47  1  0  0  0
 37 66  1  0  0  0
 37110  1  0  0  0
 38 43  2  0  0  0
 38 46  1  0  0  0
 38 47  1  0  0  0
 39 64  1  0  0  0
 39 67  2  0  0  0
 40 52  1  0  0  0
 40 53  2  0  0  0
 40 58  1  0  0  0
 41111  1  0  0  0
 41112  1  0  0  0
 41113  1  0  0  0
 41 48  1  0  0  0
 42 43  1  0  0  0
 42 66  1  0  0  0
 42114  1  0  0  0
 42115  1  0  0  0
 43 44  1  0  0  0
 44116  1  0  0  0
 45 46  2  0  0  0
 45117  1  0  0  0
 46118  1  0  0  0
 47119  1  0  0  0
 47120  1  0  0  0
 48 56  1  0  0  0
 48 65  1  0  0  0
 48121  1  0  0  0
 49 50  1  0  0  0
 49 53  1  0  0  0
 49 64  1  0  0  0
 49122  1  0  0  0
 50 51  1  0  0  0
 50123  1  0  0  0
 50124  1  0  0  0
 51 52  1  0  0  0
 51125  1  0  0  0
 51126  1  0  0  0
 52127  1  0  0  0
 52128  1  0  0  0
 53 54  1  0  0  0
 54 55  2  0  0  0
 54129  1  0  0  0
 55 57  1  0  0  0
 55130  1  0  0  0
 56 69  2  0  0  0
 57 58  2  0  0  0
 57131  1  0  0  0
 58132  1  0  0  0
 59 60  1  0  0  0
 59 61  1  0  0  0
 59 62  1  0  0  0
 60133  1  0  0  0
 60134  1  0  0  0
 60135  1  0  0  0
 61136  1  0  0  0
 61137  1  0  0  0
 61138  1  0  0  0
 62139  1  0  0  0
 62140  1  0  0  0
 62141  1  0  0  0
 63 65  1  0  0  0
 63142  1  0  0  0
 63143  1  0  0  0
 63144  1  0  0  0
 64145  1  0  0  0
 65146  1  0  0  0
 68 85  1  0  0  0
 71 72  1  0  0  0
 71 73  2  0  0  0
 71147  1  0  0  0
 72 74  2  0  0  0
 72 84  1  0  0  0
 73 86  1  0  0  0
 73 80  1  0  0  0
 74 86  1  0  0  0
 74 81  1  0  0  0
 75 76  1  0  0  0
 75 83  1  0  0  0
 75148  1  0  0  0
 75149  1  0  0  0
 76 83  1  0  0  0
 76150  1  0  0  0
 76151  1  0  0  0
 77 80  1  0  0  0
 77 82  1  0  0  0
 77152  1  0  0  0
 77153  1  0  0  0
 78 81  1  0  0  0
 78 87  1  0  0  0
 78154  1  0  0  0
 78155  1  0  0  0
 79 81  1  0  0  0
 79 87  1  0  0  0
 79156  1  0  0  0
 79157  1  0  0  0
 80 82  1  0  0  0
 80158  1  0  0  0
 81159  1  0  0  0
 82 85  1  0  0  0
 82160  1  0  0  0
 83 86  1  0  0  0
 83161  1  0  0  0
 84162  1  0  0  0
 84163  1  0  0  0
 84164  1  0  0  0
 85165  1  0  0  0
 85166  1  0  0  0
M  ISO  4   1 100  68 101  85 101  87 100
M  END
> <chiral flag>
0

> <version>
0

> <s_m_source_file>
/data/baiqing/PycharmProjects/Reinvent-master-3.2/result/LINK_invent/BTK/process_docking_weight1_custom_sum_contain_oxygen_bond_distance_aromatic_linkinvent_7_9_3/rearranged_h_0170.sdf

> <i_m_source_file_index>
94

> <r_mmod_Potential_Energy-OPLS-2005>
225.884292602539

> <r_mmod_Stretch_Energy-OPLS-2005>
62.1125144958496

> <r_mmod_Bend_Energy-OPLS-2005>
169.155410766602

> <r_mmod_Torsional_Energy-OPLS-2005>
378.791534423828

> <r_mmod_Improper_Torsional_Energy-OPLS-2005>
20.8690433502197

> <r_mmod_Van_der_Waal_Energy-OPLS-2005>
107.472671508789

> <r_mmod_Electrostatic_Energy-OPLS-2005>
-353.842376708984

> <r_mmod_Solvation_Energy-OPLS-2005>
-191.488876342773

> <b_mmod_Minimization_Converged-OPLS-2005>
0

> <r_mmod_RMS_Derivative-OPLS-2005>
2.94097518920898

$$$$
95
                    3D
 Structure written by MMmdl.
176187  0  0  1  0            999 V2000
  -30.5337  -14.6104   20.6136 C   0  0  0  0  0  0
  -30.4210  -12.4334   19.4023 C   0  0  0  0  0  0
  -29.4716  -12.5596   18.1893 C   0  0  0  0  0  0
  -28.0006  -12.3528   18.6042 C   0  0  0  0  0  0
  -27.6348  -13.1734   19.8676 C   0  0  2  0  0  0
  -28.6800  -12.9034   20.9711 C   0  0  0  0  0  0
  -25.2346  -13.8103   20.5379 C   0  0  0  0  0  0
  -24.1704  -13.0506   20.9131 C   0  0  0  0  0  0
  -24.6250  -11.6978   20.8716 C   0  0  0  0  0  0
  -23.8909  -10.4377   21.0387 C   0  0  0  0  0  0
  -24.3541   -9.4336   21.9135 C   0  0  0  0  0  0
  -23.6318   -8.2342   22.0719 C   0  0  0  0  0  0
  -22.4254   -8.0295   21.3557 C   0  0  0  0  0  0
  -21.9847   -9.0231   20.4626 C   0  0  0  0  0  0
  -22.7112  -10.2187   20.3051 C   0  0  0  0  0  0
  -21.6879   -6.0725   22.5316 C   0  0  0  0  0  0
  -21.4012   -6.5629   23.8205 C   0  0  0  0  0  0
  -21.3654   -5.6812   24.9143 C   0  0  0  0  0  0
  -21.6041   -4.3048   24.7235 C   0  0  0  0  0  0
  -21.8850   -3.8155   23.4311 C   0  0  0  0  0  0
  -21.9235   -4.6978   22.3387 C   0  0  0  0  0  0
  -22.7746  -13.5323   21.1888 C   0  0  0  0  0  0
  -22.1700   -4.2166   21.0965 F   0  0  0  0  0  0
  -21.5647   -3.4547   25.7701 F   0  0  0  0  0  0
  -29.9502  -13.3864   20.4341 N   0  0  0  0  0  0
  -26.2794  -12.9264   20.3337 N   0  0  0  0  0  0
  -25.9158  -11.6427   20.5810 N   0  0  0  0  0  0
  -22.0454  -12.8348   22.0484 N   0  0  0  0  0  0
  -25.3921  -15.1767   20.3292 N   0  0  0  0  0  0
  -31.7236  -14.7325   20.2714 O   0  0  0  0  0  0
  -21.6684   -6.8879   21.4224 O   0  0  0  0  0  0
  -22.3464  -14.5641   20.6662 O   0  0  0  0  0  0
  -24.6335  -31.8646   23.2067 C   0  0  0  0  0  0
  -25.9191  -32.4817   23.8445 C   0  0  1  0  0  0
  -27.2067  -27.3554   20.1086 C   0  0  0  0  0  0
  -25.6030  -33.8649   24.2440 N   0  0  0  0  0  0
  -23.4137  -30.5263   21.5346 C   0  0  2  0  0  0
  -24.8573  -28.9641   20.1167 C   0  0  0  0  0  0
  -22.7267  -29.5088   22.4818 C   0  0  0  0  0  0
  -17.9984  -28.1487   22.8796 C   0  0  0  0  0  0
  -24.1514  -36.7336   23.2635 C   0  0  0  0  0  0
  -25.9595  -30.8167   21.3671 C   0  0  0  0  0  0
  -26.0307  -29.4422   20.7198 C   0  0  0  0  0  0
  -27.2045  -28.6370   20.7274 C   0  0  0  0  0  0
  -26.0287  -26.9319   19.4640 C   0  0  0  0  0  0
  -24.8588  -27.7075   19.4767 C   0  0  0  0  0  0
  -23.6232  -29.8416   20.1547 C   0  0  0  0  0  0
  -25.4124  -36.3125   24.0368 C   0  0  1  0  0  0
  -20.5623  -28.4283   23.0948 C   0  0  2  0  0  0
  -20.6853  -27.0483   22.4182 C   0  0  0  0  0  0
  -19.4962  -26.7186   21.5055 C   0  0  0  0  0  0
  -18.2012  -26.7614   22.3036 C   0  0  0  0  0  0
  -19.1209  -28.9140   23.2976 C   0  0  0  0  0  0
  -18.9043  -30.1654   23.8993 C   0  0  0  0  0  0
  -17.5917  -30.6632   24.0901 C   0  0  0  0  0  0
  -25.9056  -34.9452   23.5159 C   0  0  0  0  0  0
  -16.4969  -29.9348   23.6108 C   0  0  0  0  0  0
  -16.6998  -28.6775   23.0025 C   0  0  0  0  0  0
  -26.4536  -31.6580   25.0866 C   0  0  0  0  0  0
  -25.3794  -31.3646   26.1634 C   0  0  0  0  0  0
  -27.0335  -30.3017   24.6208 C   0  0  0  0  0  0
  -27.6086  -32.4322   25.7650 C   0  0  0  0  0  0
  -27.5587  -37.1862   24.8460 C   0  0  0  0  0  0
  -21.3931  -29.4226   22.4104 N   0  0  0  0  0  0
  -26.4285  -37.3825   23.9428 N   0  0  0  0  0  0
  -24.6900  -31.0784   22.0949 N   0  0  0  0  0  0
  -23.3920  -28.7954   23.2383 O   0  0  0  0  0  0
  -28.3247  -26.5207   20.1391 O   0  0  0  0  0  0
  -26.5538  -34.8887   22.4702 O   0  0  0  0  0  0
  -23.5520  -32.1462   23.7497 O   0  0  0  0  0  0
  -24.6222  -21.6940   21.2530 C   0  0  0  0  0  0
  -25.4000  -20.5434   21.5161 C   0  0  0  0  0  0
  -26.5596  -22.8301   20.3260 C   0  0  0  0  0  0
  -25.1722  -22.8070   20.6086 C   0  0  0  0  0  0
  -27.2478  -21.5521   20.2310 C   0  0  0  0  0  0
  -26.6570  -20.3897   20.8620 C   0  0  0  0  0  0
  -23.3941  -19.1953   22.6502 C   0  0  0  0  0  0
  -24.0764  -19.9992   23.7321 C   0  0  0  0  0  0
  -29.5269  -18.3269   20.5486 C   0  0  0  0  0  0
  -28.1282  -17.1882   22.2514 C   0  0  0  0  0  0
  -28.7324  -24.2434   20.9128 C   0  0  0  0  0  0
  -30.4463  -17.0766   20.7837 C   0  0  0  0  0  0
  -28.3533  -15.9651   21.3234 C   0  0  0  0  0  0
  -24.8622  -19.5426   22.5175 C   0  0  0  0  0  0
  -27.2651  -24.1893   20.6076 C   0  0  1  0  0  0
  -28.3706  -18.5539   21.5414 C   0  0  0  0  0  0
  -28.1874  -25.1088   19.7811 C   0  0  1  0  0  0
  -24.2105  -23.9566   20.2663 C   0  0  0  0  0  0
  -28.5443  -21.4752   19.4157 C   0  0  0  0  0  0
  -29.7781  -15.7490   20.9229 N   0  0  0  0  0  0
  -27.1664  -19.0612   20.8458 N   0  0  0  0  0  0
  -31.4470  -12.6356   19.0849 H   0  0  0  0  0  0
  -30.4535  -11.4185   19.8044 H   0  0  0  0  0  0
  -29.7584  -11.8417   17.4240 H   0  0  0  0  0  0
  -29.5799  -13.5437   17.7360 H   0  0  0  0  0  0
  -27.8372  -11.2948   18.7949 H   0  0  0  0  0  0
  -27.3399  -12.6298   17.7828 H   0  0  0  0  0  0
  -27.6831  -14.2113   19.5607 H   0  0  0  0  0  0
  -28.7426  -11.8331   21.1419 H   0  0  0  0  0  0
  -28.4596  -13.2799   21.9648 H   0  0  0  0  0  0
  -25.2692   -9.5913   22.4648 H   0  0  0  0  0  0
  -24.0091   -7.4766   22.7461 H   0  0  0  0  0  0
  -21.0776   -8.8706   19.8939 H   0  0  0  0  0  0
  -22.3496  -10.9673   19.6162 H   0  0  0  0  0  0
  -21.1943   -7.6151   23.9706 H   0  0  0  0  0  0
  -21.1440   -6.0500   25.9060 H   0  0  0  0  0  0
  -22.0601   -2.7626   23.2812 H   0  0  0  0  0  0
  -22.4039  -11.9960   22.4818 H   0  0  0  0  0  0
  -21.1090  -13.1340   22.2797 H   0  0  0  0  0  0
  -24.5876  -15.7872   20.2663 H   0  0  0  0  0  0
  -26.1992  -15.5273   19.8355 H   0  0  0  0  0  0
  -26.7393  -32.5505   23.1274 H   0  0  0  0  0  0
  -25.0349  -33.9820   25.0696 H   0  0  0  0  0  0
  -22.7326  -31.3649   21.3766 H   0  0  0  0  0  0
  -23.3745  -35.9685   23.3294 H   0  0  0  0  0  0
  -24.3590  -36.8970   22.2025 H   0  0  0  0  0  0
  -23.7223  -37.6555   23.6640 H   0  0  0  0  0  0
  -26.1116  -31.5743   20.5995 H   0  0  0  0  0  0
  -26.8493  -30.8716   21.9851 H   0  0  0  0  0  0
  -28.0924  -28.9940   21.2331 H   0  0  0  0  0  0
  -26.0005  -25.9951   18.9430 H   0  0  0  0  0  0
  -23.9668  -27.3479   18.9842 H   0  0  0  0  0  0
  -23.7223  -30.5988   19.3723 H   0  0  0  0  0  0
  -22.7503  -29.2524   19.8640 H   0  0  0  0  0  0
  -25.1270  -36.2016   25.0851 H   0  0  0  0  0  0
  -20.9675  -28.3425   24.1002 H   0  0  0  0  0  0
  -20.7602  -26.2494   23.1683 H   0  0  0  0  0  0
  -21.6016  -27.0051   21.8226 H   0  0  0  0  0  0
  -19.6030  -25.7436   21.0448 H   0  0  0  0  0  0
  -19.4557  -27.4690   20.7121 H   0  0  0  0  0  0
  -17.3431  -26.4762   21.7023 H   0  0  0  0  0  0
  -18.2492  -26.0639   23.1452 H   0  0  0  0  0  0
  -19.7382  -30.7691   24.2395 H   0  0  0  0  0  0
  -17.4400  -31.6032   24.6029 H   0  0  0  0  0  0
  -15.4894  -30.3298   23.7176 H   0  0  0  0  0  0
  -15.8433  -28.1554   22.5961 H   0  0  0  0  0  0
  -24.5988  -30.6957   25.8013 H   0  0  0  0  0  0
  -24.8948  -32.2739   26.5181 H   0  0  0  0  0  0
  -25.8199  -30.8811   27.0338 H   0  0  0  0  0  0
  -26.2865  -29.6894   24.1156 H   0  0  0  0  0  0
  -27.3977  -29.7194   25.4651 H   0  0  0  0  0  0
  -27.8769  -30.4390   23.9461 H   0  0  0  0  0  0
  -27.2691  -33.3615   26.2214 H   0  0  0  0  0  0
  -28.3867  -32.6903   25.0473 H   0  0  0  0  0  0
  -28.0757  -31.8463   26.5558 H   0  0  0  0  0  0
  -28.2633  -38.0151   24.7521 H   0  0  0  0  0  0
  -28.1088  -36.2675   24.6281 H   0  0  0  0  0  0
  -27.2333  -37.1512   25.8883 H   0  0  0  0  0  0
  -20.9219  -30.1395   21.8687 H   0  0  0  0  0  0
  -26.0194  -38.2939   24.1374 H   0  0  0  0  0  0
  -23.6141  -21.7907   21.6279 H   0  0  0  0  0  0
  -22.6777  -19.6914   21.9910 H   0  0  0  0  0  0
  -23.1383  -18.1749   22.9403 H   0  0  0  0  0  0
  -24.2041  -19.4785   24.6706 H   0  0  0  0  0  0
  -23.8376  -21.0502   23.8336 H   0  0  0  0  0  0
  -29.1144  -18.2636   19.5376 H   0  0  0  0  0  0
  -30.1514  -19.2175   20.5560 H   0  0  0  0  0  0
  -28.8215  -17.0607   23.0852 H   0  0  0  0  0  0
  -27.1435  -17.1491   22.7256 H   0  0  0  0  0  0
  -29.3599  -23.3932   20.6738 H   0  0  0  0  0  0
  -28.9992  -24.7001   21.8562 H   0  0  0  0  0  0
  -31.0658  -17.2258   21.6684 H   0  0  0  0  0  0
  -31.1250  -17.0387   19.9298 H   0  0  0  0  0  0
  -27.8107  -16.1878   20.4063 H   0  0  0  0  0  0
  -27.8323  -15.1317   21.7870 H   0  0  0  0  0  0
  -25.5782  -18.7543   22.7127 H   0  0  0  0  0  0
  -26.6456  -24.7167   21.3316 H   0  0  0  0  0  0
  -28.6561  -19.2700   22.3157 H   0  0  0  0  0  0
  -28.5190  -24.8606   18.7692 H   0  0  0  0  0  0
  -24.1163  -24.6887   21.0576 H   0  0  0  0  0  0
  -23.1926  -23.5945   20.1063 H   0  0  0  0  0  0
  -24.4953  -24.4452   19.3473 H   0  0  0  0  0  0
  -28.8292  -22.4194   18.9706 H   0  0  0  0  0  0
  -28.4923  -20.8322   18.5429 H   0  0  0  0  0  0
  -29.3539  -21.1610   20.0569 H   0  0  0  0  0  0
  -26.3756  -18.4815   21.1376 H   0  0  0  0  0  0
  1 25  1  0  0  0
  1 30  2  0  0  0
  1 90  1  0  0  0
  2  3  1  0  0  0
  2 25  1  0  0  0
  2 92  1  0  0  0
  2 93  1  0  0  0
  3  4  1  0  0  0
  3 94  1  0  0  0
  3 95  1  0  0  0
  4  5  1  0  0  0
  4 96  1  0  0  0
  4 97  1  0  0  0
  5  6  1  0  0  0
  5 26  1  0  0  0
  5 98  1  0  0  0
  6 25  1  0  0  0
  6 99  1  0  0  0
  6100  1  0  0  0
  7  8  2  0  0  0
  7 26  1  0  0  0
  7 29  1  0  0  0
  8  9  1  0  0  0
  8 22  1  0  0  0
  9 10  1  0  0  0
  9 27  2  0  0  0
 10 11  2  0  0  0
 10 15  1  0  0  0
 11 12  1  0  0  0
 11101  1  0  0  0
 12 13  2  0  0  0
 12102  1  0  0  0
 13 14  1  0  0  0
 13 31  1  0  0  0
 14 15  2  0  0  0
 14103  1  0  0  0
 15104  1  0  0  0
 16 17  2  0  0  0
 16 21  1  0  0  0
 16 31  1  0  0  0
 17 18  1  0  0  0
 17105  1  0  0  0
 18 19  2  0  0  0
 18106  1  0  0  0
 19 20  1  0  0  0
 19 24  1  0  0  0
 20 21  2  0  0  0
 20107  1  0  0  0
 21 23  1  0  0  0
 22 28  1  0  0  0
 22 32  2  0  0  0
 26 27  1  0  0  0
 28108  1  0  0  0
 28109  1  0  0  0
 29110  1  0  0  0
 29111  1  0  0  0
 33 34  1  0  0  0
 33 66  1  0  0  0
 33 70  2  0  0  0
 34 36  1  0  0  0
 34 59  1  0  0  0
 34112  1  0  0  0
 35 44  2  0  0  0
 35 45  1  0  0  0
 35 68  1  0  0  0
 36 56  1  0  0  0
 36113  1  0  0  0
 37 39  1  0  0  0
 37 47  1  0  0  0
 37 66  1  0  0  0
 37114  1  0  0  0
 38 43  2  0  0  0
 38 46  1  0  0  0
 38 47  1  0  0  0
 39 64  1  0  0  0
 39 67  2  0  0  0
 40 52  1  0  0  0
 40 53  2  0  0  0
 40 58  1  0  0  0
 41115  1  0  0  0
 41116  1  0  0  0
 41117  1  0  0  0
 41 48  1  0  0  0
 42 43  1  0  0  0
 42 66  1  0  0  0
 42118  1  0  0  0
 42119  1  0  0  0
 43 44  1  0  0  0
 44120  1  0  0  0
 45 46  2  0  0  0
 45121  1  0  0  0
 46122  1  0  0  0
 47123  1  0  0  0
 47124  1  0  0  0
 48 56  1  0  0  0
 48 65  1  0  0  0
 48125  1  0  0  0
 49 50  1  0  0  0
 49 53  1  0  0  0
 49 64  1  0  0  0
 49126  1  0  0  0
 50 51  1  0  0  0
 50127  1  0  0  0
 50128  1  0  0  0
 51 52  1  0  0  0
 51129  1  0  0  0
 51130  1  0  0  0
 52131  1  0  0  0
 52132  1  0  0  0
 53 54  1  0  0  0
 54 55  2  0  0  0
 54133  1  0  0  0
 55 57  1  0  0  0
 55134  1  0  0  0
 56 69  2  0  0  0
 57 58  2  0  0  0
 57135  1  0  0  0
 58136  1  0  0  0
 59 60  1  0  0  0
 59 61  1  0  0  0
 59 62  1  0  0  0
 60137  1  0  0  0
 60138  1  0  0  0
 60139  1  0  0  0
 61140  1  0  0  0
 61141  1  0  0  0
 61142  1  0  0  0
 62143  1  0  0  0
 62144  1  0  0  0
 62145  1  0  0  0
 63 65  1  0  0  0
 63146  1  0  0  0
 63147  1  0  0  0
 63148  1  0  0  0
 64149  1  0  0  0
 65150  1  0  0  0
 68 87  1  0  0  0
 71 72  2  0  0  0
 71 74  1  0  0  0
 71151  1  0  0  0
 72 76  1  0  0  0
 72 84  1  0  0  0
 73 74  2  0  0  0
 73 75  1  0  0  0
 73 85  1  0  0  0
 74 88  1  0  0  0
 75 76  2  0  0  0
 75 89  1  0  0  0
 76 91  1  0  0  0
 77 78  1  0  0  0
 77 84  1  0  0  0
 77152  1  0  0  0
 77153  1  0  0  0
 78 84  1  0  0  0
 78154  1  0  0  0
 78155  1  0  0  0
 79 82  1  0  0  0
 79 86  1  0  0  0
 79156  1  0  0  0
 79157  1  0  0  0
 80 83  1  0  0  0
 80 86  1  0  0  0
 80158  1  0  0  0
 80159  1  0  0  0
 81 85  1  0  0  0
 81 87  1  0  0  0
 81160  1  0  0  0
 81161  1  0  0  0
 82 90  1  0  0  0
 82162  1  0  0  0
 82163  1  0  0  0
 83 90  1  0  0  0
 83164  1  0  0  0
 83165  1  0  0  0
 84166  1  0  0  0
 85 87  1  0  0  0
 85167  1  0  0  0
 86 91  1  0  0  0
 86168  1  0  0  0
 87169  1  0  0  0
 88170  1  0  0  0
 88171  1  0  0  0
 88172  1  0  0  0
 89173  1  0  0  0
 89174  1  0  0  0
 89175  1  0  0  0
 91176  1  0  0  0
M  ISO  4   1 100  68 101  87 101  90 100
M  END
> <chiral flag>
0

> <version>
0

> <s_m_source_file>
/data/baiqing/PycharmProjects/Reinvent-master-3.2/result/LINK_invent/BTK/process_docking_weight1_custom_sum_contain_oxygen_bond_distance_aromatic_linkinvent_7_9_3/rearranged_h_0170.sdf

> <i_m_source_file_index>
95

> <r_mmod_Potential_Energy-OPLS-2005>
491.288696289062

> <r_mmod_Stretch_Energy-OPLS-2005>
85.6788787841797

> <r_mmod_Bend_Energy-OPLS-2005>
223.292053222656

> <r_mmod_Torsional_Energy-OPLS-2005>
477.560302734375

> <r_mmod_Improper_Torsional_Energy-OPLS-2005>
17.6102771759033

> <r_mmod_Van_der_Waal_Energy-OPLS-2005>
192.899337768555

> <r_mmod_Electrostatic_Energy-OPLS-2005>
-364.72607421875

> <r_mmod_Solvation_Energy-OPLS-2005>
-196.59538269043

> <b_mmod_Minimization_Converged-OPLS-2005>
0

> <r_mmod_RMS_Derivative-OPLS-2005>
23.8349514007568

$$$$
