0
                    3D
 Structure written by MMmdl.
161169  0  0  1  0            999 V2000
  -30.7533  -14.3825   20.6533 C   0  0  0  0  0  0
  -30.4227  -12.2850   19.4068 C   0  0  0  0  0  0
  -29.4902  -12.5259   18.2020 C   0  0  0  0  0  0
  -28.0145  -12.3755   18.6161 C   0  0  0  0  0  0
  -27.6735  -13.2042   19.8815 C   0  0  2  0  0  0
  -28.7097  -12.9512   21.0017 C   0  0  0  0  0  0
  -25.2682  -13.8211   20.5700 C   0  0  0  0  0  0
  -24.1880  -13.0494   20.9108 C   0  0  0  0  0  0
  -24.6417  -11.6960   20.8689 C   0  0  0  0  0  0
  -23.9074  -10.4344   21.0398 C   0  0  0  0  0  0
  -24.3638   -9.4258   21.9183 C   0  0  0  0  0  0
  -23.6311   -8.2295   22.0759 C   0  0  0  0  0  0
  -22.4294   -8.0326   21.3549 C   0  0  0  0  0  0
  -21.9929   -9.0294   20.4652 C   0  0  0  0  0  0
  -22.7249  -10.2173   20.3049 C   0  0  0  0  0  0
  -21.6870   -6.0768   22.5266 C   0  0  0  0  0  0
  -21.4034   -6.5662   23.8199 C   0  0  0  0  0  0
  -21.3646   -5.6802   24.9146 C   0  0  0  0  0  0
  -21.6035   -4.3067   24.7194 C   0  0  0  0  0  0
  -21.8828   -3.8173   23.4316 C   0  0  0  0  0  0
  -21.9204   -4.6997   22.3371 C   0  0  0  0  0  0
  -22.7909  -13.5312   21.1774 C   0  0  0  0  0  0
  -22.1677   -4.2200   21.0947 F   0  0  0  0  0  0
  -21.5599   -3.4529   25.7694 F   0  0  0  0  0  0
  -30.0613  -13.2269   20.4759 N   0  0  0  0  0  0
  -26.3095  -12.9358   20.3372 N   0  0  0  0  0  0
  -25.9345  -11.6520   20.5723 N   0  0  0  0  0  0
  -22.0555  -12.8284   22.0319 N   0  0  0  0  0  0
  -25.4541  -15.1931   20.4337 N   0  0  0  0  0  0
  -31.7675  -14.6784   20.0151 O   0  0  0  0  0  0
  -21.6665   -6.8923   21.4240 O   0  0  0  0  0  0
  -22.3589  -14.5635   20.6661 O   0  0  0  0  0  0
  -24.6108  -31.8680   23.2113 C   0  0  0  0  0  0
  -25.9022  -32.4821   23.8418 C   0  0  1  0  0  0
  -27.2397  -27.4543   20.0997 C   0  0  0  0  0  0
  -25.5903  -33.8619   24.2374 N   0  0  0  0  0  0
  -23.4000  -30.4876   21.5506 C   0  0  2  0  0  0
  -24.8473  -28.9518   20.1175 C   0  0  0  0  0  0
  -22.7394  -29.4669   22.5038 C   0  0  0  0  0  0
  -18.0268  -28.1312   22.8498 C   0  0  0  0  0  0
  -24.1493  -36.7302   23.2639 C   0  0  0  0  0  0
  -25.9205  -30.8433   21.3549 C   0  0  0  0  0  0
  -26.0034  -29.4739   20.7126 C   0  0  0  0  0  0
  -27.2038  -28.7299   20.7033 C   0  0  0  0  0  0
  -26.0713  -26.9386   19.5027 C   0  0  0  0  0  0
  -24.8736  -27.6815   19.5122 C   0  0  0  0  0  0
  -23.6028  -29.8086   20.1680 C   0  0  0  0  0  0
  -25.4111  -36.3104   24.0345 C   0  0  1  0  0  0
  -20.5871  -28.3627   23.1313 C   0  0  2  0  0  0
  -20.6832  -26.9417   22.5294 C   0  0  0  0  0  0
  -19.5776  -26.6456   21.5093 C   0  0  0  0  0  0
  -18.1945  -26.7907   22.1530 C   0  0  0  0  0  0
  -19.1524  -28.8777   23.2922 C   0  0  0  0  0  0
  -18.9456  -30.1400   23.8899 C   0  0  0  0  0  0
  -17.6456  -30.6529   24.0551 C   0  0  0  0  0  0
  -25.9024  -34.9463   23.5137 C   0  0  0  0  0  0
  -16.5336  -29.9028   23.6327 C   0  0  0  0  0  0
  -16.7259  -28.6433   23.0338 C   0  0  0  0  0  0
  -26.4477  -31.6596   25.0733 C   0  0  0  0  0  0
  -25.3787  -31.3690   26.1525 C   0  0  0  0  0  0
  -27.0321  -30.3067   24.6054 C   0  0  0  0  0  0
  -27.6083  -32.4292   25.7475 C   0  0  0  0  0  0
  -27.5588  -37.1791   24.8472 C   0  0  0  0  0  0
  -21.4123  -29.3039   22.3763 N   0  0  0  0  0  0
  -26.4310  -37.3781   23.9414 N   0  0  0  0  0  0
  -24.6624  -31.0809   22.0982 N   0  0  0  0  0  0
  -23.4169  -28.8207   23.3070 O   0  0  0  0  0  0
  -28.4102  -26.7382   20.0604 O   0  0  0  0  0  0
  -26.5572  -34.8903   22.4693 O   0  0  0  0  0  0
  -23.5310  -32.1402   23.7535 O   0  0  0  0  0  0
  -29.6038  -17.0844   20.1577 C   0  0  0  0  0  0
  -28.9914  -18.3474   20.0437 C   0  0  0  0  0  0
  -29.6461  -17.3325   22.5818 C   0  0  0  0  0  0
  -29.8886  -16.5447   21.4352 C   0  0  0  0  0  0
  -28.6643  -19.0938   21.1984 C   0  0  0  0  0  0
  -29.0511  -18.6046   22.4628 C   0  0  0  0  0  0
  -28.6588  -24.3049   20.2605 C   0  0  0  0  0  0
  -28.4922  -25.6549   20.9936 C   0  0  0  0  0  0
  -25.4664  -22.3926   20.5796 C   0  0  0  0  0  0
  -25.5697  -20.8973   20.9390 C   0  0  0  0  0  0
  -26.5236  -23.3372   21.1797 C   0  0  0  0  0  0
  -26.7436  -20.1265   20.3202 C   0  0  0  0  0  0
  -30.2838  -15.1891   21.6140 N   0  0  0  0  0  0
  -27.7768  -23.3048   20.4314 N   0  0  0  0  0  0
  -29.6345  -24.1327   19.5282 O   0  0  0  0  0  0
  -27.9197  -20.2502   21.1204 O   0  0  0  0  0  0
  -28.7815  -19.3261   23.5785 F   0  0  0  0  0  0
  -31.4670  -12.3824   19.1038 H   0  0  0  0  0  0
  -30.3186  -11.2642   19.7717 H   0  0  0  0  0  0
  -29.7234  -11.8250   17.4007 H   0  0  0  0  0  0
  -29.6552  -13.5256   17.7978 H   0  0  0  0  0  0
  -27.8191  -11.3173   18.7933 H   0  0  0  0  0  0
  -27.3616  -12.6671   17.7923 H   0  0  0  0  0  0
  -27.7335  -14.2571   19.6001 H   0  0  0  0  0  0
  -28.6641  -11.9142   21.3351 H   0  0  0  0  0  0
  -28.4517  -13.5412   21.8829 H   0  0  0  0  0  0
  -25.2797   -9.5720   22.4751 H   0  0  0  0  0  0
  -24.0010   -7.4700   22.7496 H   0  0  0  0  0  0
  -21.0846   -8.8818   19.8973 H   0  0  0  0  0  0
  -22.3715  -10.9713   19.6150 H   0  0  0  0  0  0
  -21.2057   -7.6177   23.9706 H   0  0  0  0  0  0
  -21.1449   -6.0530   25.9042 H   0  0  0  0  0  0
  -22.0629   -2.7647   23.2774 H   0  0  0  0  0  0
  -22.4146  -11.9905   22.4641 H   0  0  0  0  0  0
  -21.1208  -13.1379   22.2560 H   0  0  0  0  0  0
  -24.7289  -15.8687   20.6502 H   0  0  0  0  0  0
  -26.3577  -15.6227   20.2751 H   0  0  0  0  0  0
  -26.7117  -32.5569   23.1220 H   0  0  0  0  0  0
  -25.0104  -33.9790   25.0550 H   0  0  0  0  0  0
  -22.6944  -31.3072   21.4082 H   0  0  0  0  0  0
  -23.3742  -35.9645   23.3319 H   0  0  0  0  0  0
  -24.3604  -36.8872   22.2049 H   0  0  0  0  0  0
  -23.7252  -37.6517   23.6636 H   0  0  0  0  0  0
  -26.0111  -31.6006   20.5743 H   0  0  0  0  0  0
  -26.8172  -30.9163   21.9589 H   0  0  0  0  0  0
  -28.1012  -29.1224   21.1576 H   0  0  0  0  0  0
  -26.0899  -25.9682   19.0266 H   0  0  0  0  0  0
  -23.9812  -27.2736   19.0568 H   0  0  0  0  0  0
  -23.6931  -30.5719   19.3938 H   0  0  0  0  0  0
  -22.7313  -29.2109   19.8941 H   0  0  0  0  0  0
  -25.1279  -36.1963   25.0837 H   0  0  0  0  0  0
  -20.9978  -28.3135   24.1424 H   0  0  0  0  0  0
  -20.5791  -26.2199   23.3387 H   0  0  0  0  0  0
  -21.6688  -26.7577   22.0952 H   0  0  0  0  0  0
  -19.6968  -25.6440   21.0921 H   0  0  0  0  0  0
  -19.6676  -27.3400   20.6736 H   0  0  0  0  0  0
  -17.4216  -26.6757   21.3908 H   0  0  0  0  0  0
  -18.0376  -25.9892   22.8779 H   0  0  0  0  0  0
  -19.7957  -30.7231   24.2221 H   0  0  0  0  0  0
  -17.5006  -31.6225   24.5107 H   0  0  0  0  0  0
  -15.5319  -30.2920   23.7624 H   0  0  0  0  0  0
  -15.8662  -28.0768   22.7018 H   0  0  0  0  0  0
  -24.5935  -30.7057   25.7902 H   0  0  0  0  0  0
  -24.9008  -32.2832   26.5051 H   0  0  0  0  0  0
  -25.8163  -30.8823   27.0247 H   0  0  0  0  0  0
  -26.2840  -29.6798   24.1196 H   0  0  0  0  0  0
  -27.4248  -29.7340   25.4468 H   0  0  0  0  0  0
  -27.8600  -30.4468   23.9099 H   0  0  0  0  0  0
  -27.2751  -33.3565   26.2153 H   0  0  0  0  0  0
  -28.3839  -32.6870   25.0257 H   0  0  0  0  0  0
  -28.0831  -31.8351   26.5293 H   0  0  0  0  0  0
  -28.2598  -38.0086   24.7491 H   0  0  0  0  0  0
  -28.1068  -36.2603   24.6318 H   0  0  0  0  0  0
  -27.2307  -37.1484   25.8875 H   0  0  0  0  0  0
  -20.9262  -29.8766   21.7009 H   0  0  0  0  0  0
  -26.0180  -38.2850   24.1414 H   0  0  0  0  0  0
  -29.7910  -16.5212   19.2524 H   0  0  0  0  0  0
  -28.7269  -18.7144   19.0627 H   0  0  0  0  0  0
  -29.8729  -16.9524   23.5674 H   0  0  0  0  0  0
  -27.6764  -25.6546   21.7140 H   0  0  0  0  0  0
  -29.3891  -25.8098   21.5940 H   0  0  0  0  0  0
  -24.4967  -22.7428   20.9365 H   0  0  0  0  0  0
  -25.4214  -22.5116   19.4968 H   0  0  0  0  0  0
  -24.6586  -20.4276   20.5660 H   0  0  0  0  0  0
  -25.5464  -20.7508   22.0195 H   0  0  0  0  0  0
  -26.7033  -23.1105   22.2331 H   0  0  0  0  0  0
  -26.0927  -24.3368   21.1384 H   0  0  0  0  0  0
  -26.9333  -20.4639   19.3020 H   0  0  0  0  0  0
  -26.4333  -19.0777   20.2565 H   0  0  0  0  0  0
  -29.7836  -14.7068   22.3458 H   0  0  0  0  0  0
  -28.0065  -22.4241   19.9908 H   0  0  0  0  0  0
  1 25  1  0  0  0
  1 30  2  0  0  0
  1 83  1  0  0  0
  2  3  1  0  0  0
  2 25  1  0  0  0
  2 88  1  0  0  0
  2 89  1  0  0  0
  3  4  1  0  0  0
  3 90  1  0  0  0
  3 91  1  0  0  0
  4  5  1  0  0  0
  4 92  1  0  0  0
  4 93  1  0  0  0
  5  6  1  0  0  0
  5 26  1  0  0  0
  5 94  1  0  0  0
  6 25  1  0  0  0
  6 95  1  0  0  0
  6 96  1  0  0  0
  7  8  2  0  0  0
  7 26  1  0  0  0
  7 29  1  0  0  0
  8  9  1  0  0  0
  8 22  1  0  0  0
  9 10  1  0  0  0
  9 27  2  0  0  0
 10 11  2  0  0  0
 10 15  1  0  0  0
 11 12  1  0  0  0
 11 97  1  0  0  0
 12 13  2  0  0  0
 12 98  1  0  0  0
 13 14  1  0  0  0
 13 31  1  0  0  0
 14 15  2  0  0  0
 14 99  1  0  0  0
 15100  1  0  0  0
 16 17  2  0  0  0
 16 21  1  0  0  0
 16 31  1  0  0  0
 17 18  1  0  0  0
 17101  1  0  0  0
 18 19  2  0  0  0
 18102  1  0  0  0
 19 20  1  0  0  0
 19 24  1  0  0  0
 20 21  2  0  0  0
 20103  1  0  0  0
 21 23  1  0  0  0
 22 28  1  0  0  0
 22 32  2  0  0  0
 26 27  1  0  0  0
 28104  1  0  0  0
 28105  1  0  0  0
 29106  1  0  0  0
 29107  1  0  0  0
 33 34  1  0  0  0
 33 66  1  0  0  0
 33 70  2  0  0  0
 34 36  1  0  0  0
 34 59  1  0  0  0
 34108  1  0  0  0
 35 44  2  0  0  0
 35 45  1  0  0  0
 35 68  1  0  0  0
 36 56  1  0  0  0
 36109  1  0  0  0
 37 39  1  0  0  0
 37 47  1  0  0  0
 37 66  1  0  0  0
 37110  1  0  0  0
 38 43  2  0  0  0
 38 46  1  0  0  0
 38 47  1  0  0  0
 39 64  1  0  0  0
 39 67  2  0  0  0
 40 52  1  0  0  0
 40 53  2  0  0  0
 40 58  1  0  0  0
 41111  1  0  0  0
 41112  1  0  0  0
 41113  1  0  0  0
 41 48  1  0  0  0
 42 43  1  0  0  0
 42 66  1  0  0  0
 42114  1  0  0  0
 42115  1  0  0  0
 43 44  1  0  0  0
 44116  1  0  0  0
 45 46  2  0  0  0
 45117  1  0  0  0
 46118  1  0  0  0
 47119  1  0  0  0
 47120  1  0  0  0
 48 56  1  0  0  0
 48 65  1  0  0  0
 48121  1  0  0  0
 49 50  1  0  0  0
 49 53  1  0  0  0
 49 64  1  0  0  0
 49122  1  0  0  0
 50 51  1  0  0  0
 50123  1  0  0  0
 50124  1  0  0  0
 51 52  1  0  0  0
 51125  1  0  0  0
 51126  1  0  0  0
 52127  1  0  0  0
 52128  1  0  0  0
 53 54  1  0  0  0
 54 55  2  0  0  0
 54129  1  0  0  0
 55 57  1  0  0  0
 55130  1  0  0  0
 56 69  2  0  0  0
 57 58  2  0  0  0
 57131  1  0  0  0
 58132  1  0  0  0
 59 60  1  0  0  0
 59 61  1  0  0  0
 59 62  1  0  0  0
 60133  1  0  0  0
 60134  1  0  0  0
 60135  1  0  0  0
 61136  1  0  0  0
 61137  1  0  0  0
 61138  1  0  0  0
 62139  1  0  0  0
 62140  1  0  0  0
 62141  1  0  0  0
 63 65  1  0  0  0
 63142  1  0  0  0
 63143  1  0  0  0
 63144  1  0  0  0
 64145  1  0  0  0
 65146  1  0  0  0
 68 78  1  0  0  0
 71 72  2  0  0  0
 71 74  1  0  0  0
 71147  1  0  0  0
 72 75  1  0  0  0
 72148  1  0  0  0
 73 74  2  0  0  0
 73 76  1  0  0  0
 73149  1  0  0  0
 74 83  1  0  0  0
 75 76  2  0  0  0
 75 86  1  0  0  0
 76 87  1  0  0  0
 77 78  1  0  0  0
 77 84  1  0  0  0
 77 85  2  0  0  0
 78150  1  0  0  0
 78151  1  0  0  0
 79 80  1  0  0  0
 79 81  1  0  0  0
 79152  1  0  0  0
 79153  1  0  0  0
 80 82  1  0  0  0
 80154  1  0  0  0
 80155  1  0  0  0
 81 84  1  0  0  0
 81156  1  0  0  0
 81157  1  0  0  0
 82 86  1  0  0  0
 82158  1  0  0  0
 82159  1  0  0  0
 83160  1  0  0  0
 84161  1  0  0  0
M  ISO  4   1 100  68 101  78 101  83 100
M  END
> <chiral flag>
0

> <version>
0

> <s_m_source_file>
/data/baiqing/PycharmProjects/Reinvent-master-3.2/result/LINK_invent/BTK/process_docking_weight1_custom_sum_contain_oxygen_bond_distance_aromatic_linkinvent_7_9_3/rearranged_h_0007.sdf

> <i_m_source_file_index>
1

> <r_mmod_Potential_Energy-OPLS-2005>
-8.12113571166992

> <r_mmod_Stretch_Energy-OPLS-2005>
34.4477806091309

> <r_mmod_Bend_Energy-OPLS-2005>
100.266883850098

> <r_mmod_Torsional_Energy-OPLS-2005>
310.500122070312

> <r_mmod_Improper_Torsional_Energy-OPLS-2005>
5.26316928863525

> <r_mmod_Van_der_Waal_Energy-OPLS-2005>
145.089263916016

> <r_mmod_Electrostatic_Energy-OPLS-2005>
-372.976379394531

> <r_mmod_Solvation_Energy-OPLS-2005>
-237.744506835938

> <b_mmod_Minimization_Converged-OPLS-2005>
0

> <r_mmod_RMS_Derivative-OPLS-2005>
3.96485590934753

$$$$
1
                    3D
 Structure written by MMmdl.
154162  0  0  1  0            999 V2000
  -30.4821  -14.9961   20.3965 C   0  0  0  0  0  0
  -30.4366  -12.6257   19.4519 C   0  0  0  0  0  0
  -29.5042  -12.5470   18.2210 C   0  0  0  0  0  0
  -28.0343  -12.3406   18.6444 C   0  0  0  0  0  0
  -27.6178  -13.2526   19.8279 C   0  0  2  0  0  0
  -28.6753  -13.2653   20.9482 C   0  0  0  0  0  0
  -25.2425  -13.8183   20.5698 C   0  0  0  0  0  0
  -24.1767  -13.0407   20.9265 C   0  0  0  0  0  0
  -24.6413  -11.6905   20.8793 C   0  0  0  0  0  0
  -23.9087  -10.4285   21.0406 C   0  0  0  0  0  0
  -24.3615   -9.4203   21.9202 C   0  0  0  0  0  0
  -23.6298   -8.2236   22.0764 C   0  0  0  0  0  0
  -22.4296   -8.0271   21.3530 C   0  0  0  0  0  0
  -21.9926   -9.0252   20.4643 C   0  0  0  0  0  0
  -22.7247  -10.2133   20.3075 C   0  0  0  0  0  0
  -21.6844   -6.0763   22.5301 C   0  0  0  0  0  0
  -21.4005   -6.5657   23.8240 C   0  0  0  0  0  0
  -21.3653   -5.6794   24.9188 C   0  0  0  0  0  0
  -21.6071   -4.3064   24.7219 C   0  0  0  0  0  0
  -21.8801   -3.8163   23.4328 C   0  0  0  0  0  0
  -21.9193   -4.6995   22.3404 C   0  0  0  0  0  0
  -22.7792  -13.5190   21.1849 C   0  0  0  0  0  0
  -22.1666   -4.2192   21.0971 F   0  0  0  0  0  0
  -21.5622   -3.4548   25.7719 F   0  0  0  0  0  0
  -29.9204  -13.7217   20.3180 N   0  0  0  0  0  0
  -26.2847  -12.9440   20.3257 N   0  0  0  0  0  0
  -25.9331  -11.6561   20.5755 N   0  0  0  0  0  0
  -22.0404  -12.8235   22.0398 N   0  0  0  0  0  0
  -25.3953  -15.1875   20.3908 N   0  0  0  0  0  0
  -31.7110  -15.0665   20.2816 O   0  0  0  0  0  0
  -21.6629   -6.8879   21.4254 O   0  0  0  0  0  0
  -22.3508  -14.5489   20.6645 O   0  0  0  0  0  0
  -24.6445  -31.8401   23.1820 C   0  0  0  0  0  0
  -25.9178  -32.4673   23.8216 C   0  0  1  0  0  0
  -27.2156  -27.0948   20.1489 C   0  0  0  0  0  0
  -25.5937  -33.8492   24.2139 N   0  0  0  0  0  0
  -23.4519  -30.4555   21.5307 C   0  0  2  0  0  0
  -24.9038  -28.8792   20.1066 C   0  0  0  0  0  0
  -22.7579  -29.4476   22.4823 C   0  0  0  0  0  0
  -18.0377  -28.1381   22.8439 C   0  0  0  0  0  0
  -24.1500  -36.7237   23.2642 C   0  0  0  0  0  0
  -26.0114  -30.6985   21.3924 C   0  0  0  0  0  0
  -26.0818  -29.3079   20.7286 C   0  0  0  0  0  0
  -27.2386  -28.4319   20.7302 C   0  0  0  0  0  0
  -26.0060  -26.7771   19.4912 C   0  0  0  0  0  0
  -24.8795  -27.6278   19.4736 C   0  0  0  0  0  0
  -23.6823  -29.7841   20.1512 C   0  0  0  0  0  0
  -25.4128  -36.3001   24.0303 C   0  0  1  0  0  0
  -20.5949  -28.3792   23.1355 C   0  0  2  0  0  0
  -20.6769  -26.9416   22.5770 C   0  0  0  0  0  0
  -19.5999  -26.6492   21.5272 C   0  0  0  0  0  0
  -18.2111  -26.7939   22.1542 C   0  0  0  0  0  0
  -19.1578  -28.8925   23.2843 C   0  0  0  0  0  0
  -18.9450  -30.1554   23.8797 C   0  0  0  0  0  0
  -17.6409  -30.6600   24.0441 C   0  0  0  0  0  0
  -25.9086  -34.9397   23.5032 C   0  0  0  0  0  0
  -16.5329  -29.9004   23.6250 C   0  0  0  0  0  0
  -16.7329  -28.6411   23.0316 C   0  0  0  0  0  0
  -26.4519  -31.6558   25.0694 C   0  0  0  0  0  0
  -25.3699  -31.3768   26.1371 C   0  0  0  0  0  0
  -27.0401  -30.2940   24.6330 C   0  0  0  0  0  0
  -27.6020  -32.4353   25.7506 C   0  0  0  0  0  0
  -27.5564  -37.1766   24.8455 C   0  0  0  0  0  0
  -21.4268  -29.2995   22.3576 N   0  0  0  0  0  0
  -26.4273  -37.3729   23.9399 N   0  0  0  0  0  0
  -24.7232  -31.0211   22.0891 N   0  0  0  0  0  0
  -23.4207  -28.8038   23.2984 O   0  0  0  0  0  0
  -28.2518  -26.0798   20.2189 O   0  0  0  0  0  0
  -26.5677  -34.8882   22.4616 O   0  0  0  0  0  0
  -23.5553  -32.1293   23.7015 O   0  0  0  0  0  0
  -26.8355  -18.1238   21.1714 C   0  0  0  0  0  0
  -27.5448  -18.7808   20.1491 C   0  0  0  0  0  0
  -28.9361  -17.2601   22.0733 C   0  0  0  0  0  0
  -27.5342  -17.4461   22.1938 C   0  0  0  0  0  0
  -29.5650  -17.5712   20.8461 C   0  0  0  0  0  0
  -28.9488  -18.8318   20.2655 C   0  0  0  0  0  0
  -28.9504  -23.1729   20.3320 C   0  0  0  0  0  0
  -27.9651  -24.5399   20.0249 C   0  0  0  0  0  0
  -28.5516  -21.5243   20.1014 C   0  0  0  0  0  0
  -26.7752  -16.8392   23.3692 C   0  0  0  0  0  0
  -29.6589  -16.1597   20.2195 N   0  0  0  0  0  0
  -29.4317  -20.2304   20.3055 O   0  0  0  0  0  0
  -27.2664  -15.6323   23.6629 F   0  0  0  0  0  0
  -26.9134  -17.6249   24.4352 F   0  0  0  0  0  0
  -25.4723  -16.7098   23.1074 F   0  0  0  0  0  0
  -31.4611  -12.8180   19.1316 H   0  0  0  0  0  0
  -30.4479  -11.6720   19.9826 H   0  0  0  0  0  0
  -29.8190  -11.7446   17.5530 H   0  0  0  0  0  0
  -29.5888  -13.4702   17.6435 H   0  0  0  0  0  0
  -27.9092  -11.2930   18.9185 H   0  0  0  0  0  0
  -27.3728  -12.5112   17.7909 H   0  0  0  0  0  0
  -27.5688  -14.2606   19.4166 H   0  0  0  0  0  0
  -28.7852  -12.2725   21.3893 H   0  0  0  0  0  0
  -28.3805  -13.9404   21.7523 H   0  0  0  0  0  0
  -25.2730   -9.5705   22.4800 H   0  0  0  0  0  0
  -24.0014   -7.4630   22.7479 H   0  0  0  0  0  0
  -21.0873   -8.8771   19.8915 H   0  0  0  0  0  0
  -22.3699  -10.9691   19.6212 H   0  0  0  0  0  0
  -21.1985   -7.6158   23.9757 H   0  0  0  0  0  0
  -21.1495   -6.0513   25.9099 H   0  0  0  0  0  0
  -22.0574   -2.7632   23.2812 H   0  0  0  0  0  0
  -22.4010  -11.9950   22.4894 H   0  0  0  0  0  0
  -21.1021  -13.1280   22.2483 H   0  0  0  0  0  0
  -24.5926  -15.7984   20.4739 H   0  0  0  0  0  0
  -26.1970  -15.6365   19.9775 H   0  0  0  0  0  0
  -26.7229  -32.5269   23.0926 H   0  0  0  0  0  0
  -25.0010  -33.9624   25.0234 H   0  0  0  0  0  0
  -22.7583  -31.2814   21.3718 H   0  0  0  0  0  0
  -23.3769  -35.9569   23.3301 H   0  0  0  0  0  0
  -24.3566  -36.8896   22.2057 H   0  0  0  0  0  0
  -23.7266  -37.6422   23.6723 H   0  0  0  0  0  0
  -26.1740  -31.4616   20.6272 H   0  0  0  0  0  0
  -26.8780  -30.7464   22.0411 H   0  0  0  0  0  0
  -28.1394  -28.7506   21.2374 H   0  0  0  0  0  0
  -25.8939  -25.8213   19.0013 H   0  0  0  0  0  0
  -23.9744  -27.2943   18.9829 H   0  0  0  0  0  0
  -23.8229  -30.5607   19.3971 H   0  0  0  0  0  0
  -22.7980  -29.2282   19.8348 H   0  0  0  0  0  0
  -25.1345  -36.1798   25.0801 H   0  0  0  0  0  0
  -21.0015  -28.3587   24.1514 H   0  0  0  0  0  0
  -20.5125  -26.2571   23.4106 H   0  0  0  0  0  0
  -21.6744  -26.7115   22.2053 H   0  0  0  0  0  0
  -19.7178  -27.3383   20.6881 H   0  0  0  0  0  0
  -19.7198  -25.6467   21.1157 H   0  0  0  0  0  0
  -17.4487  -26.6673   21.3846 H   0  0  0  0  0  0
  -18.0485  -26.0058   22.8909 H   0  0  0  0  0  0
  -19.7885  -30.7488   24.2158 H   0  0  0  0  0  0
  -17.4901  -31.6321   24.4945 H   0  0  0  0  0  0
  -15.5306  -30.2899   23.7500 H   0  0  0  0  0  0
  -15.8764  -28.0665   22.6998 H   0  0  0  0  0  0
  -24.5907  -30.7083   25.7687 H   0  0  0  0  0  0
  -24.8854  -32.2967   26.4666 H   0  0  0  0  0  0
  -25.7967  -30.9023   27.0214 H   0  0  0  0  0  0
  -26.3036  -29.6638   24.1327 H   0  0  0  0  0  0
  -27.3961  -29.7265   25.4938 H   0  0  0  0  0  0
  -27.8976  -30.4139   23.9704 H   0  0  0  0  0  0
  -27.2583  -33.3688   26.1960 H   0  0  0  0  0  0
  -28.3909  -32.6831   25.0408 H   0  0  0  0  0  0
  -28.0590  -31.8542   26.5520 H   0  0  0  0  0  0
  -28.2557  -38.0080   24.7508 H   0  0  0  0  0  0
  -28.1086  -36.2607   24.6306 H   0  0  0  0  0  0
  -27.2276  -37.1438   25.8853 H   0  0  0  0  0  0
  -20.9477  -29.8639   21.6700 H   0  0  0  0  0  0
  -26.0128  -38.2785   24.1418 H   0  0  0  0  0  0
  -25.7626  -18.2370   21.2262 H   0  0  0  0  0  0
  -27.0000  -19.4770   19.5314 H   0  0  0  0  0  0
  -29.3839  -16.5398   22.7422 H   0  0  0  0  0  0
  -29.2457  -23.2637   21.3758 H   0  0  0  0  0  0
  -29.8717  -23.3369   19.7769 H   0  0  0  0  0  0
  -27.0416  -24.3471   20.5724 H   0  0  0  0  0  0
  -27.6807  -24.4408   18.9771 H   0  0  0  0  0  0
  -28.2018  -21.4610   19.0701 H   0  0  0  0  0  0
  -27.6678  -21.3724   20.7196 H   0  0  0  0  0  0
  -28.7669  -15.8774   19.8420 H   0  0  0  0  0  0
  1 25  1  0  0  0
  1 30  2  0  0  0
  1 81  1  0  0  0
  2  3  1  0  0  0
  2 25  1  0  0  0
  2 86  1  0  0  0
  2 87  1  0  0  0
  3  4  1  0  0  0
  3 88  1  0  0  0
  3 89  1  0  0  0
  4  5  1  0  0  0
  4 90  1  0  0  0
  4 91  1  0  0  0
  5  6  1  0  0  0
  5 26  1  0  0  0
  5 92  1  0  0  0
  6 25  1  0  0  0
  6 93  1  0  0  0
  6 94  1  0  0  0
  7  8  2  0  0  0
  7 26  1  0  0  0
  7 29  1  0  0  0
  8  9  1  0  0  0
  8 22  1  0  0  0
  9 10  1  0  0  0
  9 27  2  0  0  0
 10 11  2  0  0  0
 10 15  1  0  0  0
 11 12  1  0  0  0
 11 95  1  0  0  0
 12 13  2  0  0  0
 12 96  1  0  0  0
 13 14  1  0  0  0
 13 31  1  0  0  0
 14 15  2  0  0  0
 14 97  1  0  0  0
 15 98  1  0  0  0
 16 17  2  0  0  0
 16 21  1  0  0  0
 16 31  1  0  0  0
 17 18  1  0  0  0
 17 99  1  0  0  0
 18 19  2  0  0  0
 18100  1  0  0  0
 19 20  1  0  0  0
 19 24  1  0  0  0
 20 21  2  0  0  0
 20101  1  0  0  0
 21 23  1  0  0  0
 22 28  1  0  0  0
 22 32  2  0  0  0
 26 27  1  0  0  0
 28102  1  0  0  0
 28103  1  0  0  0
 29104  1  0  0  0
 29105  1  0  0  0
 33 34  1  0  0  0
 33 66  1  0  0  0
 33 70  2  0  0  0
 34 36  1  0  0  0
 34 59  1  0  0  0
 34106  1  0  0  0
 35 44  2  0  0  0
 35 45  1  0  0  0
 35 68  1  0  0  0
 36 56  1  0  0  0
 36107  1  0  0  0
 37 39  1  0  0  0
 37 47  1  0  0  0
 37 66  1  0  0  0
 37108  1  0  0  0
 38 43  2  0  0  0
 38 46  1  0  0  0
 38 47  1  0  0  0
 39 64  1  0  0  0
 39 67  2  0  0  0
 40 52  1  0  0  0
 40 53  2  0  0  0
 40 58  1  0  0  0
 41109  1  0  0  0
 41110  1  0  0  0
 41111  1  0  0  0
 41 48  1  0  0  0
 42 43  1  0  0  0
 42 66  1  0  0  0
 42112  1  0  0  0
 42113  1  0  0  0
 43 44  1  0  0  0
 44114  1  0  0  0
 45 46  2  0  0  0
 45115  1  0  0  0
 46116  1  0  0  0
 47117  1  0  0  0
 47118  1  0  0  0
 48 56  1  0  0  0
 48 65  1  0  0  0
 48119  1  0  0  0
 49 50  1  0  0  0
 49 53  1  0  0  0
 49 64  1  0  0  0
 49120  1  0  0  0
 50 51  1  0  0  0
 50121  1  0  0  0
 50122  1  0  0  0
 51 52  1  0  0  0
 51123  1  0  0  0
 51124  1  0  0  0
 52125  1  0  0  0
 52126  1  0  0  0
 53 54  1  0  0  0
 54 55  2  0  0  0
 54127  1  0  0  0
 55 57  1  0  0  0
 55128  1  0  0  0
 56 69  2  0  0  0
 57 58  2  0  0  0
 57129  1  0  0  0
 58130  1  0  0  0
 59 60  1  0  0  0
 59 61  1  0  0  0
 59 62  1  0  0  0
 60131  1  0  0  0
 60132  1  0  0  0
 60133  1  0  0  0
 61134  1  0  0  0
 61135  1  0  0  0
 61136  1  0  0  0
 62137  1  0  0  0
 62138  1  0  0  0
 62139  1  0  0  0
 63 65  1  0  0  0
 63140  1  0  0  0
 63141  1  0  0  0
 63142  1  0  0  0
 64143  1  0  0  0
 65144  1  0  0  0
 68 78  1  0  0  0
 71 72  2  0  0  0
 71 74  1  0  0  0
 71145  1  0  0  0
 72 76  1  0  0  0
 72146  1  0  0  0
 73 74  2  0  0  0
 73 75  1  0  0  0
 73147  1  0  0  0
 74 80  1  0  0  0
 75 76  2  0  0  0
 75 81  1  0  0  0
 76 82  1  0  0  0
 77 78  1  0  0  0
 77 79  1  0  0  0
 77148  1  0  0  0
 77149  1  0  0  0
 78150  1  0  0  0
 78151  1  0  0  0
 79 82  1  0  0  0
 79152  1  0  0  0
 79153  1  0  0  0
 80 83  1  0  0  0
 80 84  1  0  0  0
 80 85  1  0  0  0
 81154  1  0  0  0
M  ISO  4   1 100  68 101  78 101  81 100
M  END
> <chiral flag>
0

> <version>
0

> <s_m_source_file>
/data/baiqing/PycharmProjects/Reinvent-master-3.2/result/LINK_invent/BTK/process_docking_weight1_custom_sum_contain_oxygen_bond_distance_aromatic_linkinvent_7_9_3/rearranged_h_0007.sdf

> <i_m_source_file_index>
2

> <r_mmod_Potential_Energy-OPLS-2005>
929.437072753906

> <r_mmod_Stretch_Energy-OPLS-2005>
324.909637451172

> <r_mmod_Bend_Energy-OPLS-2005>
325.994995117188

> <r_mmod_Torsional_Energy-OPLS-2005>
458.878540039062

> <r_mmod_Improper_Torsional_Energy-OPLS-2005>
44.4753608703613

> <r_mmod_Van_der_Waal_Energy-OPLS-2005>
132.940277099609

> <r_mmod_Electrostatic_Energy-OPLS-2005>
-379.195953369141

> <r_mmod_Solvation_Energy-OPLS-2005>
-214.951370239258

> <b_mmod_Minimization_Converged-OPLS-2005>
0

> <r_mmod_RMS_Derivative-OPLS-2005>
5.66927289962769

$$$$
2
                    3D
 Structure written by MMmdl.
147155  0  0  1  0            999 V2000
  -30.4199  -15.1785   20.4077 C   0  0  0  0  0  0
  -30.4434  -12.7436   19.5359 C   0  0  0  0  0  0
  -29.5361  -12.5807   18.2885 C   0  0  0  0  0  0
  -28.0756  -12.3212   18.6994 C   0  0  0  0  0  0
  -27.6183  -13.2694   19.8376 C   0  0  2  0  0  0
  -28.6491  -13.3686   20.9817 C   0  0  0  0  0  0
  -25.2398  -13.8251   20.5735 C   0  0  0  0  0  0
  -24.1742  -13.0447   20.9244 C   0  0  0  0  0  0
  -24.6393  -11.6938   20.8752 C   0  0  0  0  0  0
  -23.9093  -10.4302   21.0411 C   0  0  0  0  0  0
  -24.3638   -9.4215   21.9178 C   0  0  0  0  0  0
  -23.6314   -8.2250   22.0747 C   0  0  0  0  0  0
  -22.4291   -8.0289   21.3545 C   0  0  0  0  0  0
  -21.9935   -9.0272   20.4646 C   0  0  0  0  0  0
  -22.7267  -10.2147   20.3058 C   0  0  0  0  0  0
  -21.6856   -6.0747   22.5280 C   0  0  0  0  0  0
  -21.4015   -6.5644   23.8214 C   0  0  0  0  0  0
  -21.3661   -5.6794   24.9171 C   0  0  0  0  0  0
  -21.6039   -4.3058   24.7224 C   0  0  0  0  0  0
  -21.8813   -3.8150   23.4345 C   0  0  0  0  0  0
  -21.9193   -4.6969   22.3401 C   0  0  0  0  0  0
  -22.7759  -13.5193   21.1916 C   0  0  0  0  0  0
  -22.1662   -4.2155   21.0985 F   0  0  0  0  0  0
  -21.5633   -3.4541   25.7739 F   0  0  0  0  0  0
  -29.9007  -13.8606   20.3858 N   0  0  0  0  0  0
  -26.2826  -12.9509   20.3243 N   0  0  0  0  0  0
  -25.9327  -11.6621   20.5714 N   0  0  0  0  0  0
  -22.0442  -12.8163   22.0481 N   0  0  0  0  0  0
  -25.4065  -15.1986   20.4180 N   0  0  0  0  0  0
  -31.6195  -15.2546   20.1039 O   0  0  0  0  0  0
  -21.6645   -6.8893   21.4244 O   0  0  0  0  0  0
  -22.3433  -14.5506   20.6779 O   0  0  0  0  0  0
  -24.6577  -31.8292   23.1741 C   0  0  0  0  0  0
  -25.9272  -32.4616   23.8213 C   0  0  1  0  0  0
  -27.2156  -26.9802   20.1894 C   0  0  0  0  0  0
  -25.5943  -33.8437   24.2122 N   0  0  0  0  0  0
  -23.4723  -30.4436   21.5204 C   0  0  2  0  0  0
  -24.9261  -28.8409   20.1091 C   0  0  0  0  0  0
  -22.7641  -29.4482   22.4765 C   0  0  0  0  0  0
  -18.0337  -28.1353   22.8534 C   0  0  0  0  0  0
  -24.1490  -36.7222   23.2652 C   0  0  0  0  0  0
  -26.0372  -30.6537   21.3993 C   0  0  0  0  0  0
  -26.1055  -29.2485   20.7451 C   0  0  0  0  0  0
  -27.2468  -28.3367   20.7623 C   0  0  0  0  0  0
  -26.0136  -26.7108   19.4999 C   0  0  0  0  0  0
  -24.9029  -27.5926   19.4648 C   0  0  0  0  0  0
  -23.7123  -29.7661   20.1432 C   0  0  0  0  0  0
  -25.4128  -36.2998   24.0319 C   0  0  1  0  0  0
  -20.5951  -28.3754   23.1160 C   0  0  2  0  0  0
  -20.6836  -26.9471   22.5281 C   0  0  0  0  0  0
  -19.5714  -26.6366   21.5196 C   0  0  0  0  0  0
  -18.1980  -26.7843   22.1789 C   0  0  0  0  0  0
  -19.1590  -28.8895   23.2811 C   0  0  0  0  0  0
  -18.9494  -30.1508   23.8787 C   0  0  0  0  0  0
  -17.6489  -30.6615   24.0459 C   0  0  0  0  0  0
  -25.9082  -34.9368   23.5047 C   0  0  0  0  0  0
  -16.5377  -29.9067   23.6299 C   0  0  0  0  0  0
  -16.7308  -28.6436   23.0417 C   0  0  0  0  0  0
  -26.4548  -31.6536   25.0708 C   0  0  0  0  0  0
  -25.3699  -31.3755   26.1372 C   0  0  0  0  0  0
  -27.0436  -30.2919   24.6397 C   0  0  0  0  0  0
  -27.6056  -32.4326   25.7501 C   0  0  0  0  0  0
  -27.5575  -37.1775   24.8477 C   0  0  0  0  0  0
  -21.4311  -29.3114   22.3557 N   0  0  0  0  0  0
  -26.4285  -37.3721   23.9410 N   0  0  0  0  0  0
  -24.7432  -31.0015   22.0853 N   0  0  0  0  0  0
  -23.4211  -28.7982   23.2937 O   0  0  0  0  0  0
  -28.2297  -25.9091   20.2855 O   0  0  0  0  0  0
  -26.5698  -34.8894   22.4640 O   0  0  0  0  0  0
  -23.5656  -32.1229   23.6866 O   0  0  0  0  0  0
  -30.0405  -20.3927   19.7329 C   0  0  0  0  0  0
  -28.2858  -20.2223   21.2111 C   0  0  0  0  0  0
  -30.2556  -18.9213   19.7784 C   0  0  0  0  0  0
  -28.4911  -18.7521   21.2474 C   0  0  0  0  0  0
  -29.0404  -21.1948   20.4368 C   0  0  0  0  0  0
  -29.4970  -17.9531   20.5530 C   0  0  0  0  0  0
  -29.0415  -22.9312   20.5599 C   0  0  0  0  0  0
  -27.9942  -24.3010   20.1489 C   0  0  0  0  0  0
  -29.5703  -16.3507   20.6420 N   0  0  0  0  0  0
  -31.4677  -12.9427   19.2166 H   0  0  0  0  0  0
  -30.4922  -11.8132   20.1030 H   0  0  0  0  0  0
  -29.8993  -11.7719   17.6550 H   0  0  0  0  0  0
  -29.5855  -13.4889   17.6849 H   0  0  0  0  0  0
  -28.0020  -11.2856   19.0331 H   0  0  0  0  0  0
  -27.4168  -12.4120   17.8353 H   0  0  0  0  0  0
  -27.5552  -14.2570   19.3783 H   0  0  0  0  0  0
  -28.7834  -12.4042   21.4725 H   0  0  0  0  0  0
  -28.2980  -14.0594   21.7504 H   0  0  0  0  0  0
  -25.2785   -9.5675   22.4752 H   0  0  0  0  0  0
  -24.0022   -7.4631   22.7451 H   0  0  0  0  0  0
  -21.0874   -8.8790   19.8948 H   0  0  0  0  0  0
  -22.3731  -10.9684   19.6165 H   0  0  0  0  0  0
  -21.2004   -7.6150   23.9716 H   0  0  0  0  0  0
  -21.1490   -6.0530   25.9075 H   0  0  0  0  0  0
  -22.0591   -2.7617   23.2846 H   0  0  0  0  0  0
  -22.4099  -11.9825   22.4840 H   0  0  0  0  0  0
  -21.1061  -13.1149   22.2726 H   0  0  0  0  0  0
  -24.6370  -15.8508   20.5231 H   0  0  0  0  0  0
  -26.2500  -15.6372   20.0746 H   0  0  0  0  0  0
  -26.7333  -32.5197   23.0929 H   0  0  0  0  0  0
  -25.0036  -33.9524   25.0241 H   0  0  0  0  0  0
  -22.7860  -31.2764   21.3532 H   0  0  0  0  0  0
  -23.3768  -35.9540   23.3304 H   0  0  0  0  0  0
  -24.3563  -36.8864   22.2066 H   0  0  0  0  0  0
  -23.7229  -37.6408   23.6699 H   0  0  0  0  0  0
  -26.2124  -31.3977   20.6219 H   0  0  0  0  0  0
  -26.8992  -30.7092   22.0515 H   0  0  0  0  0  0
  -28.1398  -28.6440   21.2902 H   0  0  0  0  0  0
  -25.9044  -25.7572   19.0039 H   0  0  0  0  0  0
  -24.0074  -27.2838   18.9412 H   0  0  0  0  0  0
  -23.8760  -30.5395   19.3916 H   0  0  0  0  0  0
  -22.8224  -29.2248   19.8171 H   0  0  0  0  0  0
  -25.1316  -36.1821   25.0814 H   0  0  0  0  0  0
  -21.0055  -28.3306   24.1266 H   0  0  0  0  0  0
  -20.5885  -26.2365   23.3497 H   0  0  0  0  0  0
  -21.6658  -26.7513   22.0941 H   0  0  0  0  0  0
  -19.6884  -25.6277   21.1232 H   0  0  0  0  0  0
  -19.6496  -27.3175   20.6705 H   0  0  0  0  0  0
  -17.4132  -26.6403   21.4344 H   0  0  0  0  0  0
  -18.0613  -26.0055   22.9317 H   0  0  0  0  0  0
  -19.7980  -30.7371   24.2072 H   0  0  0  0  0  0
  -17.5033  -31.6342   24.4949 H   0  0  0  0  0  0
  -15.5372  -30.2968   23.7612 H   0  0  0  0  0  0
  -15.8706  -28.0693   22.7248 H   0  0  0  0  0  0
  -24.5888  -30.7090   25.7689 H   0  0  0  0  0  0
  -24.8860  -32.2931   26.4734 H   0  0  0  0  0  0
  -25.7935  -30.8964   27.0211 H   0  0  0  0  0  0
  -26.3083  -29.6604   24.1385 H   0  0  0  0  0  0
  -27.3985  -29.7261   25.5027 H   0  0  0  0  0  0
  -27.9023  -30.4130   23.9782 H   0  0  0  0  0  0
  -27.2645  -33.3663   26.2005 H   0  0  0  0  0  0
  -28.3906  -32.6842   25.0348 H   0  0  0  0  0  0
  -28.0700  -31.8506   26.5480 H   0  0  0  0  0  0
  -28.2590  -38.0071   24.7496 H   0  0  0  0  0  0
  -28.1063  -36.2594   24.6329 H   0  0  0  0  0  0
  -27.2283  -37.1454   25.8877 H   0  0  0  0  0  0
  -20.9532  -29.8939   21.6821 H   0  0  0  0  0  0
  -26.0147  -38.2790   24.1409 H   0  0  0  0  0  0
  -30.7419  -20.9456   19.1256 H   0  0  0  0  0  0
  -27.5153  -20.6130   21.8621 H   0  0  0  0  0  0
  -31.0611  -18.5335   19.1705 H   0  0  0  0  0  0
  -27.8148  -18.2083   21.8916 H   0  0  0  0  0  0
  -29.9867  -23.1912   20.0848 H   0  0  0  0  0  0
  -29.2406  -23.0836   21.6200 H   0  0  0  0  0  0
  -27.0590  -24.1235   20.6812 H   0  0  0  0  0  0
  -27.7400  -24.1585   19.0980 H   0  0  0  0  0  0
  -28.6928  -15.9915   20.9849 H   0  0  0  0  0  0
  1 25  1  0  0  0
  1 30  2  0  0  0
  1 79  1  0  0  0
  2  3  1  0  0  0
  2 25  1  0  0  0
  2 80  1  0  0  0
  2 81  1  0  0  0
  3  4  1  0  0  0
  3 82  1  0  0  0
  3 83  1  0  0  0
  4  5  1  0  0  0
  4 84  1  0  0  0
  4 85  1  0  0  0
  5  6  1  0  0  0
  5 26  1  0  0  0
  5 86  1  0  0  0
  6 25  1  0  0  0
  6 87  1  0  0  0
  6 88  1  0  0  0
  7  8  2  0  0  0
  7 26  1  0  0  0
  7 29  1  0  0  0
  8  9  1  0  0  0
  8 22  1  0  0  0
  9 10  1  0  0  0
  9 27  2  0  0  0
 10 11  2  0  0  0
 10 15  1  0  0  0
 11 12  1  0  0  0
 11 89  1  0  0  0
 12 13  2  0  0  0
 12 90  1  0  0  0
 13 14  1  0  0  0
 13 31  1  0  0  0
 14 15  2  0  0  0
 14 91  1  0  0  0
 15 92  1  0  0  0
 16 17  2  0  0  0
 16 21  1  0  0  0
 16 31  1  0  0  0
 17 18  1  0  0  0
 17 93  1  0  0  0
 18 19  2  0  0  0
 18 94  1  0  0  0
 19 20  1  0  0  0
 19 24  1  0  0  0
 20 21  2  0  0  0
 20 95  1  0  0  0
 21 23  1  0  0  0
 22 28  1  0  0  0
 22 32  2  0  0  0
 26 27  1  0  0  0
 28 96  1  0  0  0
 28 97  1  0  0  0
 29 98  1  0  0  0
 29 99  1  0  0  0
 33 34  1  0  0  0
 33 66  1  0  0  0
 33 70  2  0  0  0
 34 36  1  0  0  0
 34 59  1  0  0  0
 34100  1  0  0  0
 35 44  2  0  0  0
 35 45  1  0  0  0
 35 68  1  0  0  0
 36 56  1  0  0  0
 36101  1  0  0  0
 37 39  1  0  0  0
 37 47  1  0  0  0
 37 66  1  0  0  0
 37102  1  0  0  0
 38 43  2  0  0  0
 38 46  1  0  0  0
 38 47  1  0  0  0
 39 64  1  0  0  0
 39 67  2  0  0  0
 40 52  1  0  0  0
 40 53  2  0  0  0
 40 58  1  0  0  0
 41103  1  0  0  0
 41104  1  0  0  0
 41105  1  0  0  0
 41 48  1  0  0  0
 42 43  1  0  0  0
 42 66  1  0  0  0
 42106  1  0  0  0
 42107  1  0  0  0
 43 44  1  0  0  0
 44108  1  0  0  0
 45 46  2  0  0  0
 45109  1  0  0  0
 46110  1  0  0  0
 47111  1  0  0  0
 47112  1  0  0  0
 48 56  1  0  0  0
 48 65  1  0  0  0
 48113  1  0  0  0
 49 50  1  0  0  0
 49 53  1  0  0  0
 49 64  1  0  0  0
 49114  1  0  0  0
 50 51  1  0  0  0
 50115  1  0  0  0
 50116  1  0  0  0
 51 52  1  0  0  0
 51117  1  0  0  0
 51118  1  0  0  0
 52119  1  0  0  0
 52120  1  0  0  0
 53 54  1  0  0  0
 54 55  2  0  0  0
 54121  1  0  0  0
 55 57  1  0  0  0
 55122  1  0  0  0
 56 69  2  0  0  0
 57 58  2  0  0  0
 57123  1  0  0  0
 58124  1  0  0  0
 59 60  1  0  0  0
 59 61  1  0  0  0
 59 62  1  0  0  0
 60125  1  0  0  0
 60126  1  0  0  0
 60127  1  0  0  0
 61128  1  0  0  0
 61129  1  0  0  0
 61130  1  0  0  0
 62131  1  0  0  0
 62132  1  0  0  0
 62133  1  0  0  0
 63 65  1  0  0  0
 63134  1  0  0  0
 63135  1  0  0  0
 63136  1  0  0  0
 64137  1  0  0  0
 65138  1  0  0  0
 68 78  1  0  0  0
 71 73  2  0  0  0
 71 75  1  0  0  0
 71139  1  0  0  0
 72 74  1  0  0  0
 72 75  2  0  0  0
 72140  1  0  0  0
 73 76  1  0  0  0
 73141  1  0  0  0
 74 76  2  0  0  0
 74142  1  0  0  0
 75 77  1  0  0  0
 76 79  1  0  0  0
 77 78  1  0  0  0
 77143  1  0  0  0
 77144  1  0  0  0
 78145  1  0  0  0
 78146  1  0  0  0
 79147  1  0  0  0
M  ISO  4   1 100  68 101  78 101  79 100
M  END
> <chiral flag>
0

> <version>
0

> <s_m_source_file>
/data/baiqing/PycharmProjects/Reinvent-master-3.2/result/LINK_invent/BTK/process_docking_weight1_custom_sum_contain_oxygen_bond_distance_aromatic_linkinvent_7_9_3/rearranged_h_0007.sdf

> <i_m_source_file_index>
3

> <r_mmod_Potential_Energy-OPLS-2005>
1025.51647949219

> <r_mmod_Stretch_Energy-OPLS-2005>
450.272552490234

> <r_mmod_Bend_Energy-OPLS-2005>
407.48046875

> <r_mmod_Torsional_Energy-OPLS-2005>
218.750228881836

> <r_mmod_Improper_Torsional_Energy-OPLS-2005>
5.29044628143311

> <r_mmod_Van_der_Waal_Energy-OPLS-2005>
127.384757995605

> <r_mmod_Electrostatic_Energy-OPLS-2005>
-353.050445556641

> <r_mmod_Solvation_Energy-OPLS-2005>
-210.476058959961

> <b_mmod_Minimization_Converged-OPLS-2005>
0

> <r_mmod_RMS_Derivative-OPLS-2005>
2.94189381599426

$$$$
3
                    3D
 Structure written by MMmdl.
152160  0  0  1  0            999 V2000
  -30.5591  -15.0211   20.3790 C   0  0  0  0  0  0
  -30.4385  -12.6329   19.5078 C   0  0  0  0  0  0
  -29.5296  -12.5445   18.2608 C   0  0  0  0  0  0
  -28.0661  -12.3165   18.6783 C   0  0  0  0  0  0
  -27.6260  -13.2639   19.8251 C   0  0  2  0  0  0
  -28.6678  -13.3494   20.9626 C   0  0  0  0  0  0
  -25.2424  -13.8256   20.5679 C   0  0  0  0  0  0
  -24.1764  -13.0447   20.9219 C   0  0  0  0  0  0
  -24.6420  -11.6939   20.8756 C   0  0  0  0  0  0
  -23.9111  -10.4293   21.0405 C   0  0  0  0  0  0
  -24.3647   -9.4199   21.9173 C   0  0  0  0  0  0
  -23.6309   -8.2243   22.0748 C   0  0  0  0  0  0
  -22.4291   -8.0290   21.3534 C   0  0  0  0  0  0
  -21.9940   -9.0274   20.4646 C   0  0  0  0  0  0
  -22.7287  -10.2137   20.3048 C   0  0  0  0  0  0
  -21.6862   -6.0742   22.5285 C   0  0  0  0  0  0
  -21.4027   -6.5634   23.8224 C   0  0  0  0  0  0
  -21.3657   -5.6773   24.9174 C   0  0  0  0  0  0
  -21.6034   -4.3034   24.7219 C   0  0  0  0  0  0
  -21.8808   -3.8142   23.4336 C   0  0  0  0  0  0
  -21.9187   -4.6964   22.3393 C   0  0  0  0  0  0
  -22.7763  -13.5195   21.1859 C   0  0  0  0  0  0
  -22.1635   -4.2151   21.0965 F   0  0  0  0  0  0
  -21.5637   -3.4505   25.7727 F   0  0  0  0  0  0
  -29.9419  -13.7609   20.3554 N   0  0  0  0  0  0
  -26.2877  -12.9519   20.3188 N   0  0  0  0  0  0
  -25.9371  -11.6632   20.5740 N   0  0  0  0  0  0
  -22.0383  -12.8235   22.0427 N   0  0  0  0  0  0
  -25.4049  -15.1992   20.4075 N   0  0  0  0  0  0
  -31.7748  -15.0062   20.1539 O   0  0  0  0  0  0
  -21.6638   -6.8905   21.4250 O   0  0  0  0  0  0
  -22.3416  -14.5464   20.6655 O   0  0  0  0  0  0
  -24.6477  -31.8428   23.1837 C   0  0  0  0  0  0
  -25.9230  -32.4683   23.8242 C   0  0  1  0  0  0
  -27.2197  -27.1181   20.1340 C   0  0  0  0  0  0
  -25.5960  -33.8493   24.2178 N   0  0  0  0  0  0
  -23.4488  -30.4609   21.5331 C   0  0  2  0  0  0
  -24.8959  -28.8822   20.1116 C   0  0  0  0  0  0
  -22.7570  -29.4560   22.4882 C   0  0  0  0  0  0
  -18.0309  -28.1380   22.8494 C   0  0  0  0  0  0
  -24.1494  -36.7268   23.2641 C   0  0  0  0  0  0
  -26.0067  -30.7105   21.3788 C   0  0  0  0  0  0
  -26.0779  -29.3189   20.7237 C   0  0  0  0  0  0
  -27.2409  -28.4539   20.7156 C   0  0  0  0  0  0
  -26.0084  -26.7905   19.4843 C   0  0  0  0  0  0
  -24.8762  -27.6314   19.4775 C   0  0  0  0  0  0
  -23.6715  -29.7837   20.1554 C   0  0  0  0  0  0
  -25.4119  -36.3031   24.0318 C   0  0  1  0  0  0
  -20.5918  -28.3730   23.1237 C   0  0  2  0  0  0
  -20.6790  -26.9433   22.5406 C   0  0  0  0  0  0
  -19.5762  -26.6375   21.5218 C   0  0  0  0  0  0
  -18.1946  -26.7918   22.1634 C   0  0  0  0  0  0
  -19.1562  -28.8873   23.2854 C   0  0  0  0  0  0
  -18.9472  -30.1464   23.8877 C   0  0  0  0  0  0
  -17.6466  -30.6583   24.0556 C   0  0  0  0  0  0
  -25.9076  -34.9407   23.5057 C   0  0  0  0  0  0
  -16.5362  -29.9077   23.6322 C   0  0  0  0  0  0
  -16.7291  -28.6489   23.0367 C   0  0  0  0  0  0
  -26.4531  -31.6542   25.0701 C   0  0  0  0  0  0
  -25.3706  -31.3739   26.1382 C   0  0  0  0  0  0
  -27.0367  -30.2930   24.6268 C   0  0  0  0  0  0
  -27.6073  -32.4287   25.7495 C   0  0  0  0  0  0
  -27.5577  -37.1787   24.8464 C   0  0  0  0  0  0
  -21.4265  -29.3061   22.3617 N   0  0  0  0  0  0
  -26.4282  -37.3747   23.9405 N   0  0  0  0  0  0
  -24.7214  -31.0264   22.0871 N   0  0  0  0  0  0
  -23.4209  -28.8119   23.3043 O   0  0  0  0  0  0
  -28.2736  -26.1228   20.1830 O   0  0  0  0  0  0
  -26.5679  -34.8916   22.4643 O   0  0  0  0  0  0
  -23.5590  -32.1317   23.7055 O   0  0  0  0  0  0
  -30.9058  -20.5003   19.6972 C   0  0  0  0  0  0
  -31.4182  -18.1025   19.8255 C   0  0  0  0  0  0
  -31.8119  -19.4334   19.5505 C   0  0  0  0  0  0
  -29.5866  -20.2703   20.1121 C   0  0  0  0  0  0
  -30.1093  -17.7615   20.2390 C   0  0  0  0  0  0
  -33.2181  -19.7283   19.0620 C   0  0  0  0  0  0
  -28.5816  -21.5946   20.1622 C   0  0  0  0  0  0
  -29.0269  -23.2436   20.2066 C   0  0  0  0  0  0
  -27.9905  -24.5841   20.0360 C   0  0  0  0  0  0
  -29.2301  -18.8989   20.3594 N   0  0  0  0  0  0
  -29.8096  -16.2508   20.4611 N   0  0  0  0  0  0
  -31.4744  -12.7758   19.1955 H   0  0  0  0  0  0
  -30.4275  -11.6927   20.0639 H   0  0  0  0  0  0
  -29.8704  -11.7476   17.5996 H   0  0  0  0  0  0
  -29.6045  -13.4700   17.6873 H   0  0  0  0  0  0
  -27.9798  -11.2812   19.0114 H   0  0  0  0  0  0
  -27.4068  -12.4173   17.8150 H   0  0  0  0  0  0
  -27.5706  -14.2535   19.3675 H   0  0  0  0  0  0
  -28.7628  -12.3964   21.4825 H   0  0  0  0  0  0
  -28.3557  -14.0851   21.7054 H   0  0  0  0  0  0
  -25.2797   -9.5649   22.4740 H   0  0  0  0  0  0
  -23.9989   -7.4635   22.7488 H   0  0  0  0  0  0
  -21.0860   -8.8828   19.8980 H   0  0  0  0  0  0
  -22.3777  -10.9665   19.6141 H   0  0  0  0  0  0
  -21.2039   -7.6142   23.9735 H   0  0  0  0  0  0
  -21.1484   -6.0494   25.9078 H   0  0  0  0  0  0
  -22.0601   -2.7608   23.2824 H   0  0  0  0  0  0
  -22.3954  -11.9951   22.4944 H   0  0  0  0  0  0
  -21.0984  -13.1302   22.2549 H   0  0  0  0  0  0
  -24.6327  -15.8485   20.5178 H   0  0  0  0  0  0
  -26.2484  -15.6423   20.0701 H   0  0  0  0  0  0
  -26.7309  -32.5291   23.0990 H   0  0  0  0  0  0
  -25.0054  -33.9587   25.0287 H   0  0  0  0  0  0
  -22.7541  -31.2882   21.3750 H   0  0  0  0  0  0
  -23.3752  -35.9600   23.3275 H   0  0  0  0  0  0
  -24.3584  -36.8927   22.2062 H   0  0  0  0  0  0
  -23.7249  -37.6459   23.6689 H   0  0  0  0  0  0
  -26.1518  -31.4605   20.6001 H   0  0  0  0  0  0
  -26.8805  -30.7724   22.0143 H   0  0  0  0  0  0
  -28.1433  -28.7891   21.2074 H   0  0  0  0  0  0
  -25.9041  -25.8400   18.9834 H   0  0  0  0  0  0
  -23.9744  -27.2924   18.9858 H   0  0  0  0  0  0
  -23.7996  -30.5509   19.3915 H   0  0  0  0  0  0
  -22.7866  -29.2189   19.8547 H   0  0  0  0  0  0
  -25.1300  -36.1860   25.0807 H   0  0  0  0  0  0
  -21.0018  -28.3320   24.1356 H   0  0  0  0  0  0
  -20.5676  -26.2359   23.3636 H   0  0  0  0  0  0
  -21.6656  -26.7437   22.1203 H   0  0  0  0  0  0
  -19.6922  -25.6279   21.1272 H   0  0  0  0  0  0
  -19.6669  -27.3168   20.6729 H   0  0  0  0  0  0
  -17.4215  -26.6685   21.4034 H   0  0  0  0  0  0
  -18.0333  -26.0042   22.9013 H   0  0  0  0  0  0
  -19.7941  -30.7284   24.2243 H   0  0  0  0  0  0
  -17.5014  -31.6257   24.5165 H   0  0  0  0  0  0
  -15.5360  -30.2975   23.7616 H   0  0  0  0  0  0
  -15.8701  -28.0779   22.7104 H   0  0  0  0  0  0
  -24.5919  -30.7047   25.7698 H   0  0  0  0  0  0
  -24.8857  -32.2921   26.4712 H   0  0  0  0  0  0
  -25.7985  -30.8983   27.0223 H   0  0  0  0  0  0
  -26.2962  -29.6671   24.1286 H   0  0  0  0  0  0
  -27.3968  -29.7210   25.4831 H   0  0  0  0  0  0
  -27.8880  -30.4125   23.9568 H   0  0  0  0  0  0
  -27.2686  -33.3621   26.1999 H   0  0  0  0  0  0
  -28.3944  -32.6778   25.0370 H   0  0  0  0  0  0
  -28.0671  -31.8446   26.5483 H   0  0  0  0  0  0
  -28.2580  -38.0100   24.7505 H   0  0  0  0  0  0
  -28.1081  -36.2624   24.6274 H   0  0  0  0  0  0
  -27.2306  -37.1429   25.8873 H   0  0  0  0  0  0
  -20.9482  -29.8765   21.6780 H   0  0  0  0  0  0
  -26.0155  -38.2818   24.1371 H   0  0  0  0  0  0
  -31.2274  -21.5067   19.4617 H   0  0  0  0  0  0
  -32.1613  -17.3324   19.6912 H   0  0  0  0  0  0
  -33.6731  -20.5224   19.6545 H   0  0  0  0  0  0
  -33.1998  -20.0521   18.0200 H   0  0  0  0  0  0
  -33.8630  -18.8525   19.1251 H   0  0  0  0  0  0
  -27.9005  -21.4250   20.9968 H   0  0  0  0  0  0
  -27.9531  -21.4853   19.2761 H   0  0  0  0  0  0
  -29.7869  -23.3746   19.4348 H   0  0  0  0  0  0
  -29.5680  -23.3858   21.1422 H   0  0  0  0  0  0
  -27.1542  -24.3927   20.7096 H   0  0  0  0  0  0
  -27.5813  -24.4704   19.0321 H   0  0  0  0  0  0
  -28.8381  -16.0816   20.6619 H   0  0  0  0  0  0
  1 25  1  0  0  0
  1 30  2  0  0  0
  1 81  1  0  0  0
  2  3  1  0  0  0
  2 25  1  0  0  0
  2 82  1  0  0  0
  2 83  1  0  0  0
  3  4  1  0  0  0
  3 84  1  0  0  0
  3 85  1  0  0  0
  4  5  1  0  0  0
  4 86  1  0  0  0
  4 87  1  0  0  0
  5  6  1  0  0  0
  5 26  1  0  0  0
  5 88  1  0  0  0
  6 25  1  0  0  0
  6 89  1  0  0  0
  6 90  1  0  0  0
  7  8  2  0  0  0
  7 26  1  0  0  0
  7 29  1  0  0  0
  8  9  1  0  0  0
  8 22  1  0  0  0
  9 10  1  0  0  0
  9 27  2  0  0  0
 10 11  2  0  0  0
 10 15  1  0  0  0
 11 12  1  0  0  0
 11 91  1  0  0  0
 12 13  2  0  0  0
 12 92  1  0  0  0
 13 14  1  0  0  0
 13 31  1  0  0  0
 14 15  2  0  0  0
 14 93  1  0  0  0
 15 94  1  0  0  0
 16 17  2  0  0  0
 16 21  1  0  0  0
 16 31  1  0  0  0
 17 18  1  0  0  0
 17 95  1  0  0  0
 18 19  2  0  0  0
 18 96  1  0  0  0
 19 20  1  0  0  0
 19 24  1  0  0  0
 20 21  2  0  0  0
 20 97  1  0  0  0
 21 23  1  0  0  0
 22 28  1  0  0  0
 22 32  2  0  0  0
 26 27  1  0  0  0
 28 98  1  0  0  0
 28 99  1  0  0  0
 29100  1  0  0  0
 29101  1  0  0  0
 33 34  1  0  0  0
 33 66  1  0  0  0
 33 70  2  0  0  0
 34 36  1  0  0  0
 34 59  1  0  0  0
 34102  1  0  0  0
 35 44  2  0  0  0
 35 45  1  0  0  0
 35 68  1  0  0  0
 36 56  1  0  0  0
 36103  1  0  0  0
 37 39  1  0  0  0
 37 47  1  0  0  0
 37 66  1  0  0  0
 37104  1  0  0  0
 38 43  2  0  0  0
 38 46  1  0  0  0
 38 47  1  0  0  0
 39 64  1  0  0  0
 39 67  2  0  0  0
 40 52  1  0  0  0
 40 53  2  0  0  0
 40 58  1  0  0  0
 41105  1  0  0  0
 41106  1  0  0  0
 41107  1  0  0  0
 41 48  1  0  0  0
 42 43  1  0  0  0
 42 66  1  0  0  0
 42108  1  0  0  0
 42109  1  0  0  0
 43 44  1  0  0  0
 44110  1  0  0  0
 45 46  2  0  0  0
 45111  1  0  0  0
 46112  1  0  0  0
 47113  1  0  0  0
 47114  1  0  0  0
 48 56  1  0  0  0
 48 65  1  0  0  0
 48115  1  0  0  0
 49 50  1  0  0  0
 49 53  1  0  0  0
 49 64  1  0  0  0
 49116  1  0  0  0
 50 51  1  0  0  0
 50117  1  0  0  0
 50118  1  0  0  0
 51 52  1  0  0  0
 51119  1  0  0  0
 51120  1  0  0  0
 52121  1  0  0  0
 52122  1  0  0  0
 53 54  1  0  0  0
 54 55  2  0  0  0
 54123  1  0  0  0
 55 57  1  0  0  0
 55124  1  0  0  0
 56 69  2  0  0  0
 57 58  2  0  0  0
 57125  1  0  0  0
 58126  1  0  0  0
 59 60  1  0  0  0
 59 61  1  0  0  0
 59 62  1  0  0  0
 60127  1  0  0  0
 60128  1  0  0  0
 60129  1  0  0  0
 61130  1  0  0  0
 61131  1  0  0  0
 61132  1  0  0  0
 62133  1  0  0  0
 62134  1  0  0  0
 62135  1  0  0  0
 63 65  1  0  0  0
 63136  1  0  0  0
 63137  1  0  0  0
 63138  1  0  0  0
 64139  1  0  0  0
 65140  1  0  0  0
 68 79  1  0  0  0
 71 73  2  0  0  0
 71 74  1  0  0  0
 71141  1  0  0  0
 72 73  1  0  0  0
 72 75  2  0  0  0
 72142  1  0  0  0
 73 76  1  0  0  0
 74 77  1  0  0  0
 74 80  2  0  0  0
 75 80  1  0  0  0
 75 81  1  0  0  0
 76143  1  0  0  0
 76144  1  0  0  0
 76145  1  0  0  0
 77 78  1  0  0  0
 77146  1  0  0  0
 77147  1  0  0  0
 78 79  1  0  0  0
 78148  1  0  0  0
 78149  1  0  0  0
 79150  1  0  0  0
 79151  1  0  0  0
 81152  1  0  0  0
M  ISO  4   1 100  68 101  79 101  81 100
M  END
> <chiral flag>
0

> <version>
0

> <s_m_source_file>
/data/baiqing/PycharmProjects/Reinvent-master-3.2/result/LINK_invent/BTK/process_docking_weight1_custom_sum_contain_oxygen_bond_distance_aromatic_linkinvent_7_9_3/rearranged_h_0007.sdf

> <i_m_source_file_index>
4

> <r_mmod_Potential_Energy-OPLS-2005>
407.469390869141

> <r_mmod_Stretch_Energy-OPLS-2005>
306.933746337891

> <r_mmod_Bend_Energy-OPLS-2005>
269.582427978516

> <r_mmod_Torsional_Energy-OPLS-2005>
211.989807128906

> <r_mmod_Improper_Torsional_Energy-OPLS-2005>
4.17892169952393

> <r_mmod_Van_der_Waal_Energy-OPLS-2005>
133.878829956055

> <r_mmod_Electrostatic_Energy-OPLS-2005>
-526.678588867188

> <r_mmod_Solvation_Energy-OPLS-2005>
-218.516998291016

> <b_mmod_Minimization_Converged-OPLS-2005>
0

> <r_mmod_RMS_Derivative-OPLS-2005>
3.56390595436096

$$$$
4
                    3D
 Structure written by MMmdl.
165172  0  0  1  0            999 V2000
  -30.7907  -14.3593   20.7175 C   0  0  0  0  0  0
  -30.4117  -12.2963   19.4116 C   0  0  0  0  0  0
  -29.4892  -12.5335   18.2018 C   0  0  0  0  0  0
  -28.0145  -12.3729   18.6093 C   0  0  0  0  0  0
  -27.6620  -13.2058   19.8671 C   0  0  2  0  0  0
  -28.6892  -12.9749   20.9942 C   0  0  0  0  0  0
  -25.2593  -13.8165   20.5643 C   0  0  0  0  0  0
  -24.1845  -13.0446   20.9163 C   0  0  0  0  0  0
  -24.6397  -11.6913   20.8714 C   0  0  0  0  0  0
  -23.9062  -10.4302   21.0399 C   0  0  0  0  0  0
  -24.3616   -9.4224   21.9179 C   0  0  0  0  0  0
  -23.6297   -8.2255   22.0752 C   0  0  0  0  0  0
  -22.4275   -8.0289   21.3547 C   0  0  0  0  0  0
  -21.9910   -9.0258   20.4645 C   0  0  0  0  0  0
  -22.7237  -10.2138   20.3050 C   0  0  0  0  0  0
  -21.6854   -6.0742   22.5291 C   0  0  0  0  0  0
  -21.4012   -6.5643   23.8227 C   0  0  0  0  0  0
  -21.3659   -5.6793   24.9188 C   0  0  0  0  0  0
  -21.6044   -4.3056   24.7235 C   0  0  0  0  0  0
  -21.8816   -3.8151   23.4356 C   0  0  0  0  0  0
  -21.9195   -4.6970   22.3413 C   0  0  0  0  0  0
  -22.7869  -13.5246   21.1851 C   0  0  0  0  0  0
  -22.1663   -4.2155   21.0990 F   0  0  0  0  0  0
  -21.5630   -3.4539   25.7747 F   0  0  0  0  0  0
  -30.0472  -13.2419   20.4807 N   0  0  0  0  0  0
  -26.3016  -12.9330   20.3280 N   0  0  0  0  0  0
  -25.9311  -11.6488   20.5690 N   0  0  0  0  0  0
  -22.0503  -12.8232   22.0399 N   0  0  0  0  0  0
  -25.4332  -15.1883   20.4090 N   0  0  0  0  0  0
  -31.7470  -14.6794   20.0007 O   0  0  0  0  0  0
  -21.6639   -6.8886   21.4251 O   0  0  0  0  0  0
  -22.3563  -14.5571   20.6729 O   0  0  0  0  0  0
  -24.6129  -31.8701   23.2106 C   0  0  0  0  0  0
  -25.9029  -32.4836   23.8401 C   0  0  1  0  0  0
  -27.2349  -27.4576   20.1000 C   0  0  0  0  0  0
  -25.5897  -33.8633   24.2341 N   0  0  0  0  0  0
  -23.3992  -30.4930   21.5504 C   0  0  2  0  0  0
  -24.8476  -28.9569   20.1170 C   0  0  0  0  0  0
  -22.7403  -29.4675   22.5003 C   0  0  0  0  0  0
  -18.0278  -28.1390   22.8500 C   0  0  0  0  0  0
  -24.1481  -36.7315   23.2639 C   0  0  0  0  0  0
  -25.9239  -30.8442   21.3562 C   0  0  0  0  0  0
  -26.0041  -29.4751   20.7141 C   0  0  0  0  0  0
  -27.2028  -28.7310   20.7055 C   0  0  0  0  0  0
  -26.0694  -26.9451   19.4969 C   0  0  0  0  0  0
  -24.8728  -27.6893   19.5068 C   0  0  0  0  0  0
  -23.6072  -29.8211   20.1658 C   0  0  0  0  0  0
  -25.4102  -36.3126   24.0339 C   0  0  1  0  0  0
  -20.5865  -28.3665   23.1336 C   0  0  2  0  0  0
  -20.6768  -26.9406   22.5420 C   0  0  0  0  0  0
  -19.5742  -26.6396   21.5223 C   0  0  0  0  0  0
  -18.1921  -26.7940   22.1632 C   0  0  0  0  0  0
  -19.1523  -28.8842   23.2916 C   0  0  0  0  0  0
  -18.9452  -30.1451   23.8923 C   0  0  0  0  0  0
  -17.6452  -30.6585   24.0576 C   0  0  0  0  0  0
  -25.9034  -34.9487   23.5142 C   0  0  0  0  0  0
  -16.5346  -29.9093   23.6324 C   0  0  0  0  0  0
  -16.7264  -28.6512   23.0341 C   0  0  0  0  0  0
  -26.4457  -31.6602   25.0715 C   0  0  0  0  0  0
  -25.3718  -31.3683   26.1460 C   0  0  0  0  0  0
  -27.0276  -30.3062   24.6032 C   0  0  0  0  0  0
  -27.6054  -32.4300   25.7474 C   0  0  0  0  0  0
  -27.5572  -37.1816   24.8473 C   0  0  0  0  0  0
  -21.4132  -29.3040   22.3750 N   0  0  0  0  0  0
  -26.4283  -37.3810   23.9414 N   0  0  0  0  0  0
  -24.6641  -31.0835   22.0986 N   0  0  0  0  0  0
  -23.4193  -28.8216   23.3028 O   0  0  0  0  0  0
  -28.3938  -26.7234   20.0738 O   0  0  0  0  0  0
  -26.5590  -34.8932   22.4697 O   0  0  0  0  0  0
  -23.5329  -32.1431   23.7524 O   0  0  0  0  0  0
  -28.3784  -23.2956   21.8270 C   0  0  0  0  0  0
  -32.0430  -14.4385   23.5618 C   0  0  0  0  0  0
  -27.5392  -21.4990   20.3108 C   0  0  0  0  0  0
  -28.1845  -24.3522   20.7189 C   0  0  0  0  0  0
  -29.2425  -18.8240   21.9428 C   0  0  0  0  0  0
  -27.9513  -19.5180   22.4232 C   0  0  0  0  0  0
  -29.1306  -17.2848   21.9051 C   0  0  0  0  0  0
  -30.5730  -14.6311   23.1492 C   0  0  0  0  0  0
  -28.1054  -21.0339   22.7269 C   0  0  0  0  0  0
  -30.4975  -16.6053   21.6818 C   0  0  0  0  0  0
  -28.5305  -25.7954   21.1546 C   0  0  0  0  0  0
  -28.0659  -21.9905   21.5941 N   0  0  0  0  0  0
  -30.4213  -15.1336   21.7698 N   0  0  0  0  0  0
  -28.7996  -23.6699   22.9278 O   0  0  0  0  0  0
  -31.4576  -12.3873   19.1117 H   0  0  0  0  0  0
  -30.3009  -11.2738   19.7764 H   0  0  0  0  0  0
  -29.7338  -11.8374   17.3977 H   0  0  0  0  0  0
  -29.6534  -13.5351   17.8017 H   0  0  0  0  0  0
  -27.8342  -11.3145   18.8019 H   0  0  0  0  0  0
  -27.3613  -12.6471   17.7801 H   0  0  0  0  0  0
  -27.7144  -14.2561   19.5809 H   0  0  0  0  0  0
  -28.6373  -11.9476   21.3576 H   0  0  0  0  0  0
  -28.4075  -13.6030   21.8372 H   0  0  0  0  0  0
  -25.2765   -9.5704   22.4748 H   0  0  0  0  0  0
  -24.0019   -7.4641   22.7466 H   0  0  0  0  0  0
  -21.0846   -8.8777   19.8944 H   0  0  0  0  0  0
  -22.3706  -10.9674   19.6151 H   0  0  0  0  0  0
  -21.1994   -7.6151   23.9739 H   0  0  0  0  0  0
  -21.1480   -6.0518   25.9093 H   0  0  0  0  0  0
  -22.0590   -2.7612   23.2858 H   0  0  0  0  0  0
  -22.4101  -11.9880   22.4779 H   0  0  0  0  0  0
  -21.1120  -13.1261   22.2586 H   0  0  0  0  0  0
  -24.6705  -15.8467   20.5237 H   0  0  0  0  0  0
  -26.2963  -15.6280   20.1156 H   0  0  0  0  0  0
  -26.7104  -32.5558   23.1169 H   0  0  0  0  0  0
  -25.0100  -33.9798   25.0526 H   0  0  0  0  0  0
  -22.6887  -31.3106   21.4101 H   0  0  0  0  0  0
  -23.3746  -35.9648   23.3323 H   0  0  0  0  0  0
  -24.3573  -36.8900   22.2050 H   0  0  0  0  0  0
  -23.7221  -37.6521   23.6633 H   0  0  0  0  0  0
  -26.0227  -31.6020   20.5784 H   0  0  0  0  0  0
  -26.8189  -30.9121   21.9626 H   0  0  0  0  0  0
  -28.0977  -29.1283   21.1650 H   0  0  0  0  0  0
  -26.0887  -25.9768   19.0177 H   0  0  0  0  0  0
  -23.9836  -27.2874   19.0412 H   0  0  0  0  0  0
  -23.7114  -30.5939   19.4038 H   0  0  0  0  0  0
  -22.7327  -29.2371   19.8706 H   0  0  0  0  0  0
  -25.1279  -36.2000   25.0830 H   0  0  0  0  0  0
  -20.9963  -28.3219   24.1453 H   0  0  0  0  0  0
  -20.5705  -26.2266   23.3600 H   0  0  0  0  0  0
  -21.6635  -26.7467   22.1191 H   0  0  0  0  0  0
  -19.6901  -25.6319   21.1219 H   0  0  0  0  0  0
  -19.6677  -27.3242   20.6781 H   0  0  0  0  0  0
  -17.4199  -26.6712   21.4019 H   0  0  0  0  0  0
  -18.0293  -26.0077   22.9019 H   0  0  0  0  0  0
  -19.7924  -30.7262   24.2303 H   0  0  0  0  0  0
  -17.5007  -31.6267   24.5174 H   0  0  0  0  0  0
  -15.5352  -30.3004   23.7626 H   0  0  0  0  0  0
  -15.8672  -28.0842   22.7032 H   0  0  0  0  0  0
  -24.5915  -30.7006   25.7782 H   0  0  0  0  0  0
  -24.8872  -32.2820   26.4907 H   0  0  0  0  0  0
  -25.8066  -30.8852   27.0219 H   0  0  0  0  0  0
  -26.2801  -29.6864   24.1064 H   0  0  0  0  0  0
  -27.4062  -29.7253   25.4452 H   0  0  0  0  0  0
  -27.8624  -30.4426   23.9155 H   0  0  0  0  0  0
  -27.2707  -33.3607   26.2065 H   0  0  0  0  0  0
  -28.3853  -32.6835   25.0283 H   0  0  0  0  0  0
  -28.0720  -31.8395   26.5373 H   0  0  0  0  0  0
  -28.2625  -38.0092   24.7529 H   0  0  0  0  0  0
  -28.1039  -36.2625   24.6295 H   0  0  0  0  0  0
  -27.2291  -37.1463   25.8881 H   0  0  0  0  0  0
  -20.9299  -29.8757   21.6962 H   0  0  0  0  0  0
  -26.0182  -38.2892   24.1420 H   0  0  0  0  0  0
  -32.1084  -14.1047   24.5978 H   0  0  0  0  0  0
  -32.6095  -15.3672   23.4839 H   0  0  0  0  0  0
  -32.5431  -13.6879   22.9493 H   0  0  0  0  0  0
  -27.5656  -22.2208   19.4966 H   0  0  0  0  0  0
  -26.5000  -21.1908   20.4287 H   0  0  0  0  0  0
  -28.1102  -20.6431   19.9545 H   0  0  0  0  0  0
  -27.1465  -24.3166   20.3899 H   0  0  0  0  0  0
  -28.8087  -24.0820   19.8680 H   0  0  0  0  0  0
  -30.0511  -19.0977   22.6223 H   0  0  0  0  0  0
  -29.5370  -19.1972   20.9620 H   0  0  0  0  0  0
  -27.6641  -19.0425   23.3632 H   0  0  0  0  0  0
  -27.1196  -19.3174   21.7479 H   0  0  0  0  0  0
  -28.4273  -16.9830   21.1271 H   0  0  0  0  0  0
  -28.7086  -16.9369   22.8481 H   0  0  0  0  0  0
  -30.0940  -15.3187   23.8469 H   0  0  0  0  0  0
  -30.0525  -13.6824   23.2798 H   0  0  0  0  0  0
  -29.0238  -21.1718   23.3012 H   0  0  0  0  0  0
  -27.2981  -21.3212   23.4035 H   0  0  0  0  0  0
  -31.2167  -16.9756   22.4136 H   0  0  0  0  0  0
  -30.8855  -16.9258   20.7124 H   0  0  0  0  0  0
  -29.5675  -25.8396   21.4919 H   0  0  0  0  0  0
  -27.9196  -26.0914   22.0107 H   0  0  0  0  0  0
  1 25  1  0  0  0
  1 30  2  0  0  0
  1 83  1  0  0  0
  2  3  1  0  0  0
  2 25  1  0  0  0
  2 85  1  0  0  0
  2 86  1  0  0  0
  3  4  1  0  0  0
  3 87  1  0  0  0
  3 88  1  0  0  0
  4  5  1  0  0  0
  4 89  1  0  0  0
  4 90  1  0  0  0
  5  6  1  0  0  0
  5 26  1  0  0  0
  5 91  1  0  0  0
  6 25  1  0  0  0
  6 92  1  0  0  0
  6 93  1  0  0  0
  7  8  2  0  0  0
  7 26  1  0  0  0
  7 29  1  0  0  0
  8  9  1  0  0  0
  8 22  1  0  0  0
  9 10  1  0  0  0
  9 27  2  0  0  0
 10 11  2  0  0  0
 10 15  1  0  0  0
 11 12  1  0  0  0
 11 94  1  0  0  0
 12 13  2  0  0  0
 12 95  1  0  0  0
 13 14  1  0  0  0
 13 31  1  0  0  0
 14 15  2  0  0  0
 14 96  1  0  0  0
 15 97  1  0  0  0
 16 17  2  0  0  0
 16 21  1  0  0  0
 16 31  1  0  0  0
 17 18  1  0  0  0
 17 98  1  0  0  0
 18 19  2  0  0  0
 18 99  1  0  0  0
 19 20  1  0  0  0
 19 24  1  0  0  0
 20 21  2  0  0  0
 20100  1  0  0  0
 21 23  1  0  0  0
 22 28  1  0  0  0
 22 32  2  0  0  0
 26 27  1  0  0  0
 28101  1  0  0  0
 28102  1  0  0  0
 29103  1  0  0  0
 29104  1  0  0  0
 33 34  1  0  0  0
 33 66  1  0  0  0
 33 70  2  0  0  0
 34 36  1  0  0  0
 34 59  1  0  0  0
 34105  1  0  0  0
 35 44  2  0  0  0
 35 45  1  0  0  0
 35 68  1  0  0  0
 36 56  1  0  0  0
 36106  1  0  0  0
 37 39  1  0  0  0
 37 47  1  0  0  0
 37 66  1  0  0  0
 37107  1  0  0  0
 38 43  2  0  0  0
 38 46  1  0  0  0
 38 47  1  0  0  0
 39 64  1  0  0  0
 39 67  2  0  0  0
 40 52  1  0  0  0
 40 53  2  0  0  0
 40 58  1  0  0  0
 41108  1  0  0  0
 41109  1  0  0  0
 41110  1  0  0  0
 41 48  1  0  0  0
 42 43  1  0  0  0
 42 66  1  0  0  0
 42111  1  0  0  0
 42112  1  0  0  0
 43 44  1  0  0  0
 44113  1  0  0  0
 45 46  2  0  0  0
 45114  1  0  0  0
 46115  1  0  0  0
 47116  1  0  0  0
 47117  1  0  0  0
 48 56  1  0  0  0
 48 65  1  0  0  0
 48118  1  0  0  0
 49 50  1  0  0  0
 49 53  1  0  0  0
 49 64  1  0  0  0
 49119  1  0  0  0
 50 51  1  0  0  0
 50120  1  0  0  0
 50121  1  0  0  0
 51 52  1  0  0  0
 51122  1  0  0  0
 51123  1  0  0  0
 52124  1  0  0  0
 52125  1  0  0  0
 53 54  1  0  0  0
 54 55  2  0  0  0
 54126  1  0  0  0
 55 57  1  0  0  0
 55127  1  0  0  0
 56 69  2  0  0  0
 57 58  2  0  0  0
 57128  1  0  0  0
 58129  1  0  0  0
 59 60  1  0  0  0
 59 61  1  0  0  0
 59 62  1  0  0  0
 60130  1  0  0  0
 60131  1  0  0  0
 60132  1  0  0  0
 61133  1  0  0  0
 61134  1  0  0  0
 61135  1  0  0  0
 62136  1  0  0  0
 62137  1  0  0  0
 62138  1  0  0  0
 63 65  1  0  0  0
 63139  1  0  0  0
 63140  1  0  0  0
 63141  1  0  0  0
 64142  1  0  0  0
 65143  1  0  0  0
 68 81  1  0  0  0
 71 74  1  0  0  0
 71 82  1  0  0  0
 71 84  2  0  0  0
 72 78  1  0  0  0
 72144  1  0  0  0
 72145  1  0  0  0
 72146  1  0  0  0
 73 82  1  0  0  0
 73147  1  0  0  0
 73148  1  0  0  0
 73149  1  0  0  0
 74 81  1  0  0  0
 74150  1  0  0  0
 74151  1  0  0  0
 75 76  1  0  0  0
 75 77  1  0  0  0
 75152  1  0  0  0
 75153  1  0  0  0
 76 79  1  0  0  0
 76154  1  0  0  0
 76155  1  0  0  0
 77 80  1  0  0  0
 77156  1  0  0  0
 77157  1  0  0  0
 78 83  1  0  0  0
 78158  1  0  0  0
 78159  1  0  0  0
 79 82  1  0  0  0
 79160  1  0  0  0
 79161  1  0  0  0
 80 83  1  0  0  0
 80162  1  0  0  0
 80163  1  0  0  0
 81164  1  0  0  0
 81165  1  0  0  0
M  ISO  4   1 100  68 101  81 101  83 100
M  END
> <chiral flag>
0

> <version>
0

> <s_m_source_file>
/data/baiqing/PycharmProjects/Reinvent-master-3.2/result/LINK_invent/BTK/process_docking_weight1_custom_sum_contain_oxygen_bond_distance_aromatic_linkinvent_7_9_3/rearranged_h_0007.sdf

> <i_m_source_file_index>
5

> <r_mmod_Potential_Energy-OPLS-2005>
152.728210449219

> <r_mmod_Stretch_Energy-OPLS-2005>
39.3353462219238

> <r_mmod_Bend_Energy-OPLS-2005>
99.4224319458008

> <r_mmod_Torsional_Energy-OPLS-2005>
335.611114501953

> <r_mmod_Improper_Torsional_Energy-OPLS-2005>
3.96375155448914

> <r_mmod_Van_der_Waal_Energy-OPLS-2005>
147.535095214844

> <r_mmod_Electrostatic_Energy-OPLS-2005>
-277.165252685547

> <r_mmod_Solvation_Energy-OPLS-2005>
-203.792922973633

> <b_mmod_Minimization_Converged-OPLS-2005>
0

> <r_mmod_RMS_Derivative-OPLS-2005>
1.57764267921448

$$$$
5
                    3D
 Structure written by MMmdl.
178186  0  0  1  0            999 V2000
  -30.6730  -14.3321   20.8305 C   0  0  0  0  0  0
  -30.4829  -12.3670   19.3229 C   0  0  0  0  0  0
  -29.4986  -12.6177   18.1552 C   0  0  0  0  0  0
  -27.9992  -12.4972   18.5543 C   0  0  0  0  0  0
  -27.6837  -13.1921   19.9011 C   0  0  2  0  0  0
  -28.7265  -12.6901   20.9105 C   0  0  0  0  0  0
  -25.2706  -13.8029   20.5618 C   0  0  0  0  0  0
  -24.1982  -13.0256   20.9174 C   0  0  0  0  0  0
  -24.6431  -11.6718   20.8418 C   0  0  0  0  0  0
  -23.8981  -10.4164   21.0051 C   0  0  0  0  0  0
  -24.3620   -9.4132   21.8741 C   0  0  0  0  0  0
  -23.6281   -8.2220   22.0524 C   0  0  0  0  0  0
  -22.4146   -8.0322   21.3520 C   0  0  0  0  0  0
  -21.9805   -9.0151   20.4408 C   0  0  0  0  0  0
  -22.7167  -10.1974   20.2637 C   0  0  0  0  0  0
  -21.6642   -6.0951   22.5480 C   0  0  0  0  0  0
  -21.3813   -6.5707   23.8498 C   0  0  0  0  0  0
  -21.3678   -5.6770   24.9389 C   0  0  0  0  0  0
  -21.6038   -4.3035   24.7230 C   0  0  0  0  0  0
  -21.8738   -3.8265   23.4289 C   0  0  0  0  0  0
  -21.9114   -4.7209   22.3448 C   0  0  0  0  0  0
  -22.8159  -13.5105   21.2222 C   0  0  0  0  0  0
  -22.1518   -4.2563   21.0960 F   0  0  0  0  0  0
  -21.5708   -3.4383   25.7612 F   0  0  0  0  0  0
  -30.0508  -13.1689   20.4846 N   0  0  0  0  0  0
  -26.3128  -12.9138   20.3380 N   0  0  0  0  0  0
  -25.9367  -11.6290   20.5479 N   0  0  0  0  0  0
  -22.1168  -12.8066   22.1053 N   0  0  0  0  0  0
  -25.4389  -15.1652   20.4081 N   0  0  0  0  0  0
  -31.6184  -14.7693   20.1462 O   0  0  0  0  0  0
  -21.6346   -6.9038   21.4415 O   0  0  0  0  0  0
  -22.3656  -14.5343   20.7064 O   0  0  0  0  0  0
  -24.6096  -31.8675   23.2125 C   0  0  0  0  0  0
  -25.9039  -32.4782   23.8389 C   0  0  1  0  0  0
  -27.2165  -27.4584   20.0996 C   0  0  0  0  0  0
  -25.5927  -33.8597   24.2308 N   0  0  0  0  0  0
  -23.3938  -30.5000   21.5487 C   0  0  2  0  0  0
  -24.8358  -28.9706   20.1062 C   0  0  0  0  0  0
  -22.7374  -29.4664   22.4938 C   0  0  0  0  0  0
  -18.0271  -28.1386   22.8491 C   0  0  0  0  0  0
  -24.1487  -36.7322   23.2626 C   0  0  0  0  0  0
  -25.9181  -30.8415   21.3622 C   0  0  0  0  0  0
  -25.9930  -29.4776   20.7146 C   0  0  0  0  0  0
  -27.1881  -28.7285   20.7076 C   0  0  0  0  0  0
  -26.0502  -26.9672   19.4775 C   0  0  0  0  0  0
  -24.8578  -27.7103   19.4871 C   0  0  0  0  0  0
  -23.5988  -29.8372   20.1605 C   0  0  0  0  0  0
  -25.4101  -36.3070   24.0307 C   0  0  1  0  0  0
  -20.5866  -28.3667   23.1317 C   0  0  2  0  0  0
  -20.6772  -26.9412   22.5419 C   0  0  0  0  0  0
  -19.5754  -26.6391   21.5215 C   0  0  0  0  0  0
  -18.1932  -26.7930   22.1629 C   0  0  0  0  0  0
  -19.1523  -28.8831   23.2901 C   0  0  0  0  0  0
  -18.9466  -30.1441   23.8904 C   0  0  0  0  0  0
  -17.6478  -30.6598   24.0582 C   0  0  0  0  0  0
  -25.9043  -34.9446   23.5086 C   0  0  0  0  0  0
  -16.5362  -29.9111   23.6349 C   0  0  0  0  0  0
  -16.7253  -28.6534   23.0337 C   0  0  0  0  0  0
  -26.4518  -31.6571   25.0709 C   0  0  0  0  0  0
  -25.3860  -31.3703   26.1512 C   0  0  0  0  0  0
  -27.0344  -30.2977   24.6115 C   0  0  0  0  0  0
  -27.6020  -32.4317   25.7559 C   0  0  0  0  0  0
  -27.5566  -37.1812   24.8455 C   0  0  0  0  0  0
  -21.4088  -29.3040   22.3700 N   0  0  0  0  0  0
  -26.4276  -37.3759   23.9402 N   0  0  0  0  0  0
  -24.6576  -31.0819   22.0990 N   0  0  0  0  0  0
  -23.4143  -28.8199   23.2965 O   0  0  0  0  0  0
  -28.3662  -26.7128   20.0933 O   0  0  0  0  0  0
  -26.5614  -34.8911   22.4646 O   0  0  0  0  0  0
  -23.5312  -32.1428   23.7596 O   0  0  0  0  0  0
  -26.5230  -16.6168   24.1062 C   0  0  0  0  0  0
  -31.3373  -14.3574   24.3244 C   0  0  0  0  0  0
  -29.8316  -14.0605   24.2658 C   0  0  0  0  0  0
  -31.7199  -14.9142   22.9511 C   0  0  0  0  0  0
  -29.3629  -14.8744   23.0530 C   0  0  1  0  0  0
  -27.6288  -16.8189   23.0522 C   0  0  0  0  0  0
  -29.0430  -16.3369   23.4693 C   0  0  0  0  0  0
  -25.2415  -22.6409   23.5098 C   0  0  0  0  0  0
  -24.5381  -21.2713   23.3317 C   0  0  0  0  0  0
  -26.0182  -23.0619   22.2491 C   0  0  0  0  0  0
  -24.7411  -20.3467   24.5820 C   0  0  0  0  0  0
  -26.9752  -24.2406   22.4732 C   0  0  0  0  0  0
  -23.9726  -19.1040   25.1586 C   0  0  0  0  0  0
  -27.7353  -24.5814   21.1812 C   0  0  0  0  0  0
  -24.9205  -17.9367   25.5578 C   0  0  0  0  0  0
  -28.5235  -25.9048   21.2618 C   0  0  0  0  0  0
  -30.5278  -14.7387   22.1278 N   0  0  0  0  0  0
  -25.9953  -17.7503   24.5843 N   0  0  0  0  0  0
  -26.1446  -15.4864   24.4294 O   0  0  0  0  0  0
  -31.5086  -12.6085   19.0170 H   0  0  0  0  0  0
  -30.5226  -11.3097   19.5840 H   0  0  0  0  0  0
  -29.7194  -11.9443   17.3290 H   0  0  0  0  0  0
  -29.6891  -13.6178   17.7680 H   0  0  0  0  0  0
  -27.7274  -11.4397   18.5992 H   0  0  0  0  0  0
  -27.3616  -12.9372   17.7881 H   0  0  0  0  0  0
  -27.7759  -14.2712   19.7967 H   0  0  0  0  0  0
  -28.7486  -11.6019   20.8271 H   0  0  0  0  0  0
  -28.4717  -12.7293   21.9594 H   0  0  0  0  0  0
  -25.2845   -9.5688   22.4108 H   0  0  0  0  0  0
  -24.0088   -7.4619   22.7142 H   0  0  0  0  0  0
  -21.0838   -8.8602   19.8533 H   0  0  0  0  0  0
  -22.3675  -10.9270   19.5456 H   0  0  0  0  0  0
  -21.1499   -7.6141   24.0240 H   0  0  0  0  0  0
  -21.1608   -6.0297   25.9406 H   0  0  0  0  0  0
  -22.0449   -2.7753   23.2546 H   0  0  0  0  0  0
  -22.5124  -11.9820   22.5317 H   0  0  0  0  0  0
  -21.1949  -13.1056   22.3931 H   0  0  0  0  0  0
  -24.6465  -15.8005   20.4452 H   0  0  0  0  0  0
  -26.2677  -15.5551   19.9775 H   0  0  0  0  0  0
  -26.7095  -32.5504   23.1161 H   0  0  0  0  0  0
  -25.0063  -33.9757   25.0446 H   0  0  0  0  0  0
  -22.6784  -31.3157   21.4161 H   0  0  0  0  0  0
  -23.3702  -35.9708   23.3302 H   0  0  0  0  0  0
  -24.3571  -36.8939   22.2035 H   0  0  0  0  0  0
  -23.7353  -37.6560   23.6662 H   0  0  0  0  0  0
  -26.0349  -31.6091   20.5934 H   0  0  0  0  0  0
  -26.8039  -30.8881   21.9857 H   0  0  0  0  0  0
  -28.0803  -29.1111   21.1803 H   0  0  0  0  0  0
  -26.0615  -26.0061   18.9930 H   0  0  0  0  0  0
  -23.9708  -27.3193   19.0058 H   0  0  0  0  0  0
  -23.7034  -30.6184   19.4029 H   0  0  0  0  0  0
  -22.7211  -29.2585   19.8611 H   0  0  0  0  0  0
  -25.1294  -36.1886   25.0799 H   0  0  0  0  0  0
  -20.9966  -28.3256   24.1423 H   0  0  0  0  0  0
  -20.5693  -26.2272   23.3600 H   0  0  0  0  0  0
  -21.6647  -26.7469   22.1215 H   0  0  0  0  0  0
  -19.6933  -25.6301   21.1231 H   0  0  0  0  0  0
  -19.6714  -27.3216   20.6753 H   0  0  0  0  0  0
  -17.4203  -26.6666   21.4019 H   0  0  0  0  0  0
  -18.0345  -26.0068   22.9016 H   0  0  0  0  0  0
  -19.7937  -30.7258   24.2262 H   0  0  0  0  0  0
  -17.5039  -31.6271   24.5185 H   0  0  0  0  0  0
  -15.5360  -30.3029   23.7658 H   0  0  0  0  0  0
  -15.8652  -28.0868   22.7029 H   0  0  0  0  0  0
  -24.5970  -30.7077   25.7940 H   0  0  0  0  0  0
  -24.9168  -32.2883   26.5020 H   0  0  0  0  0  0
  -25.8291  -30.8867   27.0230 H   0  0  0  0  0  0
  -26.2865  -29.6723   24.1197 H   0  0  0  0  0  0
  -27.4090  -29.7212   25.4598 H   0  0  0  0  0  0
  -27.8727  -30.4208   23.9258 H   0  0  0  0  0  0
  -27.2487  -33.3517   26.2242 H   0  0  0  0  0  0
  -28.3850  -32.7054   25.0473 H   0  0  0  0  0  0
  -28.0695  -31.8419   26.5464 H   0  0  0  0  0  0
  -28.2561  -38.0123   24.7464 H   0  0  0  0  0  0
  -28.1080  -36.2642   24.6302 H   0  0  0  0  0  0
  -27.2285  -37.1493   25.8862 H   0  0  0  0  0  0
  -20.9197  -29.8752   21.6973 H   0  0  0  0  0  0
  -26.0130  -38.2805   24.1440 H   0  0  0  0  0  0
  -31.9200  -13.4645   24.5520 H   0  0  0  0  0  0
  -31.5612  -15.1077   25.0825 H   0  0  0  0  0  0
  -29.3251  -14.2940   25.2060 H   0  0  0  0  0  0
  -29.6526  -12.9986   24.0943 H   0  0  0  0  0  0
  -32.5995  -14.4011   22.5538 H   0  0  0  0  0  0
  -31.9631  -15.9764   23.0072 H   0  0  0  0  0  0
  -28.4174  -14.5231   22.6594 H   0  0  0  0  0  0
  -27.6674  -17.8829   22.8238 H   0  0  0  0  0  0
  -27.3263  -16.3525   22.1162 H   0  0  0  0  0  0
  -29.7788  -17.0290   23.0660 H   0  0  0  0  0  0
  -29.1301  -16.4471   24.5513 H   0  0  0  0  0  0
  -25.9349  -22.5905   24.3510 H   0  0  0  0  0  0
  -24.5070  -23.4066   23.7698 H   0  0  0  0  0  0
  -24.9128  -20.8404   22.3873 H   0  0  0  0  0  0
  -23.4787  -21.4301   23.1301 H   0  0  0  0  0  0
  -25.3027  -23.2843   21.4507 H   0  0  0  0  0  0
  -26.6100  -22.2136   21.9050 H   0  0  0  0  0  0
  -24.6971  -19.6372   23.7689 H   0  0  0  0  0  0
  -23.9733  -20.9574   25.0654 H   0  0  0  0  0  0
  -27.6883  -24.0021   23.2681 H   0  0  0  0  0  0
  -26.4008  -25.1058   22.8057 H   0  0  0  0  0  0
  -23.1913  -18.7120   24.4857 H   0  0  0  0  0  0
  -23.4241  -19.3673   26.0737 H   0  0  0  0  0  0
  -27.0275  -24.6153   20.3566 H   0  0  0  0  0  0
  -28.4101  -23.7626   20.9311 H   0  0  0  0  0  0
  -24.3544  -17.0154   25.7141 H   0  0  0  0  0  0
  -25.3836  -18.1926   26.5097 H   0  0  0  0  0  0
  -29.5816  -25.6626   21.3613 H   0  0  0  0  0  0
  -28.2662  -26.4638   22.1609 H   0  0  0  0  0  0
  -26.3675  -18.6069   24.1879 H   0  0  0  0  0  0
  1 25  1  0  0  0
  1 30  2  0  0  0
  1 87  1  0  0  0
  2  3  1  0  0  0
  2 25  1  0  0  0
  2 90  1  0  0  0
  2 91  1  0  0  0
  3  4  1  0  0  0
  3 92  1  0  0  0
  3 93  1  0  0  0
  4  5  1  0  0  0
  4 94  1  0  0  0
  4 95  1  0  0  0
  5  6  1  0  0  0
  5 26  1  0  0  0
  5 96  1  0  0  0
  6 25  1  0  0  0
  6 97  1  0  0  0
  6 98  1  0  0  0
  7  8  2  0  0  0
  7 26  1  0  0  0
  7 29  1  0  0  0
  8  9  1  0  0  0
  8 22  1  0  0  0
  9 10  1  0  0  0
  9 27  2  0  0  0
 10 11  2  0  0  0
 10 15  1  0  0  0
 11 12  1  0  0  0
 11 99  1  0  0  0
 12 13  2  0  0  0
 12100  1  0  0  0
 13 14  1  0  0  0
 13 31  1  0  0  0
 14 15  2  0  0  0
 14101  1  0  0  0
 15102  1  0  0  0
 16 17  2  0  0  0
 16 21  1  0  0  0
 16 31  1  0  0  0
 17 18  1  0  0  0
 17103  1  0  0  0
 18 19  2  0  0  0
 18104  1  0  0  0
 19 20  1  0  0  0
 19 24  1  0  0  0
 20 21  2  0  0  0
 20105  1  0  0  0
 21 23  1  0  0  0
 22 28  1  0  0  0
 22 32  2  0  0  0
 26 27  1  0  0  0
 28106  1  0  0  0
 28107  1  0  0  0
 29108  1  0  0  0
 29109  1  0  0  0
 33 34  1  0  0  0
 33 66  1  0  0  0
 33 70  2  0  0  0
 34 36  1  0  0  0
 34 59  1  0  0  0
 34110  1  0  0  0
 35 44  2  0  0  0
 35 45  1  0  0  0
 35 68  1  0  0  0
 36 56  1  0  0  0
 36111  1  0  0  0
 37 39  1  0  0  0
 37 47  1  0  0  0
 37 66  1  0  0  0
 37112  1  0  0  0
 38 43  2  0  0  0
 38 46  1  0  0  0
 38 47  1  0  0  0
 39 64  1  0  0  0
 39 67  2  0  0  0
 40 52  1  0  0  0
 40 53  2  0  0  0
 40 58  1  0  0  0
 41113  1  0  0  0
 41114  1  0  0  0
 41115  1  0  0  0
 41 48  1  0  0  0
 42 43  1  0  0  0
 42 66  1  0  0  0
 42116  1  0  0  0
 42117  1  0  0  0
 43 44  1  0  0  0
 44118  1  0  0  0
 45 46  2  0  0  0
 45119  1  0  0  0
 46120  1  0  0  0
 47121  1  0  0  0
 47122  1  0  0  0
 48 56  1  0  0  0
 48 65  1  0  0  0
 48123  1  0  0  0
 49 50  1  0  0  0
 49 53  1  0  0  0
 49 64  1  0  0  0
 49124  1  0  0  0
 50 51  1  0  0  0
 50125  1  0  0  0
 50126  1  0  0  0
 51 52  1  0  0  0
 51127  1  0  0  0
 51128  1  0  0  0
 52129  1  0  0  0
 52130  1  0  0  0
 53 54  1  0  0  0
 54 55  2  0  0  0
 54131  1  0  0  0
 55 57  1  0  0  0
 55132  1  0  0  0
 56 69  2  0  0  0
 57 58  2  0  0  0
 57133  1  0  0  0
 58134  1  0  0  0
 59 60  1  0  0  0
 59 61  1  0  0  0
 59 62  1  0  0  0
 60135  1  0  0  0
 60136  1  0  0  0
 60137  1  0  0  0
 61138  1  0  0  0
 61139  1  0  0  0
 61140  1  0  0  0
 62141  1  0  0  0
 62142  1  0  0  0
 62143  1  0  0  0
 63 65  1  0  0  0
 63144  1  0  0  0
 63145  1  0  0  0
 63146  1  0  0  0
 64147  1  0  0  0
 65148  1  0  0  0
 68 86  1  0  0  0
 71 76  1  0  0  0
 71 88  1  0  0  0
 71 89  2  0  0  0
 72 73  1  0  0  0
 72 74  1  0  0  0
 72149  1  0  0  0
 72150  1  0  0  0
 73 75  1  0  0  0
 73151  1  0  0  0
 73152  1  0  0  0
 74 87  1  0  0  0
 74153  1  0  0  0
 74154  1  0  0  0
 75 77  1  0  0  0
 75 87  1  0  0  0
 75155  1  0  0  0
 76 77  1  0  0  0
 76156  1  0  0  0
 76157  1  0  0  0
 77158  1  0  0  0
 77159  1  0  0  0
 78 79  1  0  0  0
 78 80  1  0  0  0
 78160  1  0  0  0
 78161  1  0  0  0
 79 81  1  0  0  0
 79162  1  0  0  0
 79163  1  0  0  0
 80 82  1  0  0  0
 80164  1  0  0  0
 80165  1  0  0  0
 81 83  1  0  0  0
 81166  1  0  0  0
 81167  1  0  0  0
 82 84  1  0  0  0
 82168  1  0  0  0
 82169  1  0  0  0
 83 85  1  0  0  0
 83170  1  0  0  0
 83171  1  0  0  0
 84 86  1  0  0  0
 84172  1  0  0  0
 84173  1  0  0  0
 85 88  1  0  0  0
 85174  1  0  0  0
 85175  1  0  0  0
 86176  1  0  0  0
 86177  1  0  0  0
 88178  1  0  0  0
M  ISO  4   1 100  68 101  86 101  87 100
M  END
> <chiral flag>
0

> <version>
0

> <s_m_source_file>
/data/baiqing/PycharmProjects/Reinvent-master-3.2/result/LINK_invent/BTK/process_docking_weight1_custom_sum_contain_oxygen_bond_distance_aromatic_linkinvent_7_9_3/rearranged_h_0007.sdf

> <i_m_source_file_index>
6

> <r_mmod_Potential_Energy-OPLS-2005>
540.134094238281

> <r_mmod_Stretch_Energy-OPLS-2005>
44.5327339172363

> <r_mmod_Bend_Energy-OPLS-2005>
394.097900390625

> <r_mmod_Torsional_Energy-OPLS-2005>
421.199951171875

> <r_mmod_Improper_Torsional_Energy-OPLS-2005>
13.8592700958252

> <r_mmod_Van_der_Waal_Energy-OPLS-2005>
162.540496826172

> <r_mmod_Electrostatic_Energy-OPLS-2005>
-324.375823974609

> <r_mmod_Solvation_Energy-OPLS-2005>
-203.258499145508

> <b_mmod_Minimization_Converged-OPLS-2005>
0

> <r_mmod_RMS_Derivative-OPLS-2005>
12.6980905532837

$$$$
6
                    3D
 Structure written by MMmdl.
152161  0  0  1  0            999 V2000
  -30.5888  -14.7962   20.4502 C   0  0  0  0  0  0
  -30.4392  -12.4881   19.4740 C   0  0  0  0  0  0
  -29.5113  -12.5018   18.2383 C   0  0  0  0  0  0
  -28.0421  -12.3102   18.6615 C   0  0  0  0  0  0
  -27.6389  -13.2289   19.8447 C   0  0  2  0  0  0
  -28.6845  -13.1901   20.9799 C   0  0  0  0  0  0
  -25.2504  -13.8189   20.5676 C   0  0  0  0  0  0
  -24.1795  -13.0438   20.9211 C   0  0  0  0  0  0
  -24.6387  -11.6914   20.8760 C   0  0  0  0  0  0
  -23.9064  -10.4293   21.0415 C   0  0  0  0  0  0
  -24.3614   -9.4205   21.9187 C   0  0  0  0  0  0
  -23.6286   -8.2243   22.0757 C   0  0  0  0  0  0
  -22.4269   -8.0285   21.3546 C   0  0  0  0  0  0
  -21.9911   -9.0258   20.4648 C   0  0  0  0  0  0
  -22.7241  -10.2133   20.3061 C   0  0  0  0  0  0
  -21.6851   -6.0735   22.5273 C   0  0  0  0  0  0
  -21.4013   -6.5637   23.8208 C   0  0  0  0  0  0
  -21.3657   -5.6787   24.9168 C   0  0  0  0  0  0
  -21.6043   -4.3050   24.7219 C   0  0  0  0  0  0
  -21.8823   -3.8145   23.4339 C   0  0  0  0  0  0
  -21.9193   -4.6963   22.3393 C   0  0  0  0  0  0
  -22.7819  -13.5227   21.1868 C   0  0  0  0  0  0
  -22.1660   -4.2147   21.0973 F   0  0  0  0  0  0
  -21.5630   -3.4536   25.7733 F   0  0  0  0  0  0
  -29.9776  -13.5591   20.3907 N   0  0  0  0  0  0
  -26.2924  -12.9386   20.3260 N   0  0  0  0  0  0
  -25.9314  -11.6533   20.5754 N   0  0  0  0  0  0
  -22.0465  -12.8220   22.0426 N   0  0  0  0  0  0
  -25.4202  -15.1913   20.4048 N   0  0  0  0  0  0
  -31.7875  -14.8793   20.1658 O   0  0  0  0  0  0
  -21.6636   -6.8880   21.4236 O   0  0  0  0  0  0
  -22.3509  -14.5529   20.6711 O   0  0  0  0  0  0
  -24.6344  -31.8515   23.1942 C   0  0  0  0  0  0
  -25.9148  -32.4736   23.8295 C   0  0  1  0  0  0
  -27.2201  -27.2235   20.1398 C   0  0  0  0  0  0
  -25.5929  -33.8536   24.2220 N   0  0  0  0  0  0
  -23.4337  -30.4714   21.5378 C   0  0  2  0  0  0
  -24.8818  -28.9108   20.1114 C   0  0  0  0  0  0
  -22.7531  -29.4563   22.4887 C   0  0  0  0  0  0
  -18.0293  -28.1391   22.8468 C   0  0  0  0  0  0
  -24.1488  -36.7275   23.2642 C   0  0  0  0  0  0
  -25.9810  -30.7548   21.3778 C   0  0  0  0  0  0
  -26.0553  -29.3726   20.7215 C   0  0  0  0  0  0
  -27.2282  -28.5440   20.7180 C   0  0  0  0  0  0
  -26.0182  -26.8342   19.5078 C   0  0  0  0  0  0
  -24.8696  -27.6517   19.4929 C   0  0  0  0  0  0
  -23.6557  -29.8043   20.1550 C   0  0  0  0  0  0
  -25.4122  -36.3053   24.0319 C   0  0  1  0  0  0
  -20.5899  -28.3700   23.1253 C   0  0  2  0  0  0
  -20.6782  -26.9413   22.5402 C   0  0  0  0  0  0
  -19.5756  -26.6376   21.5203 C   0  0  0  0  0  0
  -18.1931  -26.7928   22.1613 C   0  0  0  0  0  0
  -19.1553  -28.8864   23.2847 C   0  0  0  0  0  0
  -18.9481  -30.1462   23.8863 C   0  0  0  0  0  0
  -17.6482  -30.6592   24.0554 C   0  0  0  0  0  0
  -25.9064  -34.9426   23.5076 C   0  0  0  0  0  0
  -16.5367  -29.9090   23.6331 C   0  0  0  0  0  0
  -16.7283  -28.6516   23.0334 C   0  0  0  0  0  0
  -26.4514  -31.6586   25.0700 C   0  0  0  0  0  0
  -25.3722  -31.3754   26.1415 C   0  0  0  0  0  0
  -27.0386  -30.2999   24.6206 C   0  0  0  0  0  0
  -27.6051  -32.4350   25.7487 C   0  0  0  0  0  0
  -27.5573  -37.1791   24.8468 C   0  0  0  0  0  0
  -21.4228  -29.3043   22.3647 N   0  0  0  0  0  0
  -26.4290  -37.3757   23.9410 N   0  0  0  0  0  0
  -24.7020  -31.0451   22.0931 N   0  0  0  0  0  0
  -23.4218  -28.8099   23.2988 O   0  0  0  0  0  0
  -28.3146  -26.3164   20.1876 O   0  0  0  0  0  0
  -26.5644  -34.8920   22.4649 O   0  0  0  0  0  0
  -23.5484  -32.1349   23.7226 O   0  0  0  0  0  0
  -31.7031  -19.2657   20.9933 C   0  0  0  0  0  0
  -31.3835  -17.8811   20.9155 C   0  0  0  0  0  0
  -29.0759  -18.4586   20.3821 C   0  0  0  0  0  0
  -29.4154  -19.8746   20.4546 C   0  0  0  0  0  0
  -30.7050  -20.2349   20.7608 C   0  0  0  0  0  0
  -30.0734  -17.4079   20.6098 C   0  0  0  0  0  0
  -28.6195  -21.1838   20.2477 C   0  0  0  0  0  0
  -30.7978  -21.7568   20.7842 C   0  0  0  0  0  0
  -29.3820  -23.8302   20.3144 C   0  0  0  0  0  0
  -28.0952  -24.8090   20.1715 C   0  0  0  0  0  0
  -29.4419  -22.2828   20.4526 N   0  0  0  0  0  0
  -29.7829  -15.9331   20.5895 N   0  0  0  0  0  0
  -27.4286  -21.2174   19.9280 O   0  0  0  0  0  0
  -31.4752  -12.6293   19.1614 H   0  0  0  0  0  0
  -30.4074  -11.5177   19.9723 H   0  0  0  0  0  0
  -29.8028  -11.7172   17.5384 H   0  0  0  0  0  0
  -29.6201  -13.4468   17.7039 H   0  0  0  0  0  0
  -27.9224  -11.2656   18.9525 H   0  0  0  0  0  0
  -27.3762  -12.4659   17.8120 H   0  0  0  0  0  0
  -27.6253  -14.2418   19.4414 H   0  0  0  0  0  0
  -28.7353  -12.1982   21.4314 H   0  0  0  0  0  0
  -28.4107  -13.8784   21.7809 H   0  0  0  0  0  0
  -25.2758   -9.5675   22.4763 H   0  0  0  0  0  0
  -23.9987   -7.4637   22.7484 H   0  0  0  0  0  0
  -21.0842   -8.8778   19.8958 H   0  0  0  0  0  0
  -22.3700  -10.9671   19.6171 H   0  0  0  0  0  0
  -21.2009   -7.6146   23.9708 H   0  0  0  0  0  0
  -21.1474   -6.0519   25.9070 H   0  0  0  0  0  0
  -22.0607   -2.7607   23.2836 H   0  0  0  0  0  0
  -22.4066  -11.9857   22.4788 H   0  0  0  0  0  0
  -21.1098  -13.1264   22.2664 H   0  0  0  0  0  0
  -24.6488  -15.8425   20.5054 H   0  0  0  0  0  0
  -26.2544  -15.6248   20.0318 H   0  0  0  0  0  0
  -26.7212  -32.5390   23.1035 H   0  0  0  0  0  0
  -25.0060  -33.9664   25.0349 H   0  0  0  0  0  0
  -22.7313  -31.2937   21.3890 H   0  0  0  0  0  0
  -23.3751  -35.9599   23.3301 H   0  0  0  0  0  0
  -24.3572  -36.8908   22.2057 H   0  0  0  0  0  0
  -23.7248  -37.6467   23.6691 H   0  0  0  0  0  0
  -26.1189  -31.5143   20.6074 H   0  0  0  0  0  0
  -26.8585  -30.8083   22.0107 H   0  0  0  0  0  0
  -28.1291  -28.8930   21.2045 H   0  0  0  0  0  0
  -25.9355  -25.8710   19.0288 H   0  0  0  0  0  0
  -23.9696  -27.2907   19.0136 H   0  0  0  0  0  0
  -23.7873  -30.5800   19.3995 H   0  0  0  0  0  0
  -22.7730  -29.2406   19.8465 H   0  0  0  0  0  0
  -25.1304  -36.1884   25.0811 H   0  0  0  0  0  0
  -20.9979  -28.3296   24.1377 H   0  0  0  0  0  0
  -20.5686  -26.2315   23.3617 H   0  0  0  0  0  0
  -21.6650  -26.7433   22.1191 H   0  0  0  0  0  0
  -19.6918  -25.6283   21.1245 H   0  0  0  0  0  0
  -19.6697  -27.3185   20.6729 H   0  0  0  0  0  0
  -17.4199  -26.6658   21.4020 H   0  0  0  0  0  0
  -18.0327  -26.0089   22.9032 H   0  0  0  0  0  0
  -19.7967  -30.7266   24.2229 H   0  0  0  0  0  0
  -17.5050  -31.6270   24.5162 H   0  0  0  0  0  0
  -15.5374  -30.2980   23.7687 H   0  0  0  0  0  0
  -15.8677  -28.0844   22.7034 H   0  0  0  0  0  0
  -24.5893  -30.7108   25.7747 H   0  0  0  0  0  0
  -24.8919  -32.2933   26.4810 H   0  0  0  0  0  0
  -25.8017  -30.8952   27.0214 H   0  0  0  0  0  0
  -26.2975  -29.6718   24.1241 H   0  0  0  0  0  0
  -27.4086  -29.7295   25.4737 H   0  0  0  0  0  0
  -27.8845  -30.4278   23.9443 H   0  0  0  0  0  0
  -27.2625  -33.3667   26.2007 H   0  0  0  0  0  0
  -28.3883  -32.6885   25.0330 H   0  0  0  0  0  0
  -28.0682  -31.8506   26.5450 H   0  0  0  0  0  0
  -28.2585  -38.0092   24.7513 H   0  0  0  0  0  0
  -28.1075  -36.2622   24.6299 H   0  0  0  0  0  0
  -27.2288  -37.1436   25.8868 H   0  0  0  0  0  0
  -20.9428  -29.8796   21.6869 H   0  0  0  0  0  0
  -26.0162  -38.2819   24.1433 H   0  0  0  0  0  0
  -32.7121  -19.5739   21.2334 H   0  0  0  0  0  0
  -32.1793  -17.1782   21.1160 H   0  0  0  0  0  0
  -28.0565  -18.1855   20.1481 H   0  0  0  0  0  0
  -31.5327  -22.0967   20.0537 H   0  0  0  0  0  0
  -31.1089  -22.0967   21.7724 H   0  0  0  0  0  0
  -29.9367  -24.2093   21.1730 H   0  0  0  0  0  0
  -30.0193  -24.0579   19.4595 H   0  0  0  0  0  0
  -27.3955  -24.5709   20.9734 H   0  0  0  0  0  0
  -27.5989  -24.5344   19.2409 H   0  0  0  0  0  0
  -28.8045  -15.7009   20.6653 H   0  0  0  0  0  0
  1 25  1  0  0  0
  1 30  2  0  0  0
  1 82  1  0  0  0
  2  3  1  0  0  0
  2 25  1  0  0  0
  2 84  1  0  0  0
  2 85  1  0  0  0
  3  4  1  0  0  0
  3 86  1  0  0  0
  3 87  1  0  0  0
  4  5  1  0  0  0
  4 88  1  0  0  0
  4 89  1  0  0  0
  5  6  1  0  0  0
  5 26  1  0  0  0
  5 90  1  0  0  0
  6 25  1  0  0  0
  6 91  1  0  0  0
  6 92  1  0  0  0
  7  8  2  0  0  0
  7 26  1  0  0  0
  7 29  1  0  0  0
  8  9  1  0  0  0
  8 22  1  0  0  0
  9 10  1  0  0  0
  9 27  2  0  0  0
 10 11  2  0  0  0
 10 15  1  0  0  0
 11 12  1  0  0  0
 11 93  1  0  0  0
 12 13  2  0  0  0
 12 94  1  0  0  0
 13 14  1  0  0  0
 13 31  1  0  0  0
 14 15  2  0  0  0
 14 95  1  0  0  0
 15 96  1  0  0  0
 16 17  2  0  0  0
 16 21  1  0  0  0
 16 31  1  0  0  0
 17 18  1  0  0  0
 17 97  1  0  0  0
 18 19  2  0  0  0
 18 98  1  0  0  0
 19 20  1  0  0  0
 19 24  1  0  0  0
 20 21  2  0  0  0
 20 99  1  0  0  0
 21 23  1  0  0  0
 22 28  1  0  0  0
 22 32  2  0  0  0
 26 27  1  0  0  0
 28100  1  0  0  0
 28101  1  0  0  0
 29102  1  0  0  0
 29103  1  0  0  0
 33 34  1  0  0  0
 33 66  1  0  0  0
 33 70  2  0  0  0
 34 36  1  0  0  0
 34 59  1  0  0  0
 34104  1  0  0  0
 35 44  2  0  0  0
 35 45  1  0  0  0
 35 68  1  0  0  0
 36 56  1  0  0  0
 36105  1  0  0  0
 37 39  1  0  0  0
 37 47  1  0  0  0
 37 66  1  0  0  0
 37106  1  0  0  0
 38 43  2  0  0  0
 38 46  1  0  0  0
 38 47  1  0  0  0
 39 64  1  0  0  0
 39 67  2  0  0  0
 40 52  1  0  0  0
 40 53  2  0  0  0
 40 58  1  0  0  0
 41107  1  0  0  0
 41108  1  0  0  0
 41109  1  0  0  0
 41 48  1  0  0  0
 42 43  1  0  0  0
 42 66  1  0  0  0
 42110  1  0  0  0
 42111  1  0  0  0
 43 44  1  0  0  0
 44112  1  0  0  0
 45 46  2  0  0  0
 45113  1  0  0  0
 46114  1  0  0  0
 47115  1  0  0  0
 47116  1  0  0  0
 48 56  1  0  0  0
 48 65  1  0  0  0
 48117  1  0  0  0
 49 50  1  0  0  0
 49 53  1  0  0  0
 49 64  1  0  0  0
 49118  1  0  0  0
 50 51  1  0  0  0
 50119  1  0  0  0
 50120  1  0  0  0
 51 52  1  0  0  0
 51121  1  0  0  0
 51122  1  0  0  0
 52123  1  0  0  0
 52124  1  0  0  0
 53 54  1  0  0  0
 54 55  2  0  0  0
 54125  1  0  0  0
 55 57  1  0  0  0
 55126  1  0  0  0
 56 69  2  0  0  0
 57 58  2  0  0  0
 57127  1  0  0  0
 58128  1  0  0  0
 59 60  1  0  0  0
 59 61  1  0  0  0
 59 62  1  0  0  0
 60129  1  0  0  0
 60130  1  0  0  0
 60131  1  0  0  0
 61132  1  0  0  0
 61133  1  0  0  0
 61134  1  0  0  0
 62135  1  0  0  0
 62136  1  0  0  0
 62137  1  0  0  0
 63 65  1  0  0  0
 63138  1  0  0  0
 63139  1  0  0  0
 63140  1  0  0  0
 64141  1  0  0  0
 65142  1  0  0  0
 68 80  1  0  0  0
 71 72  2  0  0  0
 71 75  1  0  0  0
 71143  1  0  0  0
 72 76  1  0  0  0
 72144  1  0  0  0
 73 74  1  0  0  0
 73 76  2  0  0  0
 73145  1  0  0  0
 74 75  2  0  0  0
 74 77  1  0  0  0
 75 78  1  0  0  0
 76 82  1  0  0  0
 77 81  1  0  0  0
 77 83  2  0  0  0
 78 81  1  0  0  0
 78146  1  0  0  0
 78147  1  0  0  0
 79 80  1  0  0  0
 79 81  1  0  0  0
 79148  1  0  0  0
 79149  1  0  0  0
 80150  1  0  0  0
 80151  1  0  0  0
 82152  1  0  0  0
M  ISO  4   1 100  68 101  80 101  82 100
M  END
> <chiral flag>
0

> <version>
0

> <s_m_source_file>
/data/baiqing/PycharmProjects/Reinvent-master-3.2/result/LINK_invent/BTK/process_docking_weight1_custom_sum_contain_oxygen_bond_distance_aromatic_linkinvent_7_9_3/rearranged_h_0007.sdf

> <i_m_source_file_index>
7

> <r_mmod_Potential_Energy-OPLS-2005>
254.792190551758

> <r_mmod_Stretch_Energy-OPLS-2005>
146.694000244141

> <r_mmod_Bend_Energy-OPLS-2005>
262.755401611328

> <r_mmod_Torsional_Energy-OPLS-2005>
224.184265136719

> <r_mmod_Improper_Torsional_Energy-OPLS-2005>
5.76054191589355

> <r_mmod_Van_der_Waal_Energy-OPLS-2005>
129.978332519531

> <r_mmod_Electrostatic_Energy-OPLS-2005>
-385.068328857422

> <r_mmod_Solvation_Energy-OPLS-2005>
-238.161331176758

> <b_mmod_Minimization_Converged-OPLS-2005>
0

> <r_mmod_RMS_Derivative-OPLS-2005>
1.52283120155334

$$$$
7
                    3D
 Structure written by MMmdl.
151159  0  0  1  0            999 V2000
  -30.6215  -14.6467   20.4927 C   0  0  0  0  0  0
  -30.4407  -12.3957   19.4503 C   0  0  0  0  0  0
  -29.5080  -12.5074   18.2234 C   0  0  0  0  0  0
  -28.0310  -12.3448   18.6369 C   0  0  0  0  0  0
  -27.6531  -13.2179   19.8634 C   0  0  2  0  0  0
  -28.7004  -13.0767   20.9916 C   0  0  0  0  0  0
  -25.2552  -13.8167   20.5692 C   0  0  0  0  0  0
  -24.1817  -13.0425   20.9166 C   0  0  0  0  0  0
  -24.6396  -11.6902   20.8726 C   0  0  0  0  0  0
  -23.9065  -10.4286   21.0398 C   0  0  0  0  0  0
  -24.3615   -9.4205   21.9181 C   0  0  0  0  0  0
  -23.6291   -8.2241   22.0754 C   0  0  0  0  0  0
  -22.4273   -8.0278   21.3545 C   0  0  0  0  0  0
  -21.9906   -9.0250   20.4646 C   0  0  0  0  0  0
  -22.7236  -10.2128   20.3050 C   0  0  0  0  0  0
  -21.6852   -6.0733   22.5280 C   0  0  0  0  0  0
  -21.4013   -6.5637   23.8213 C   0  0  0  0  0  0
  -21.3660   -5.6791   24.9175 C   0  0  0  0  0  0
  -21.6045   -4.3053   24.7225 C   0  0  0  0  0  0
  -21.8819   -3.8144   23.4346 C   0  0  0  0  0  0
  -21.9192   -4.6961   22.3403 C   0  0  0  0  0  0
  -22.7841  -13.5220   21.1842 C   0  0  0  0  0  0
  -22.1662   -4.2147   21.0981 F   0  0  0  0  0  0
  -21.5630   -3.4537   25.7739 F   0  0  0  0  0  0
  -30.0151  -13.4189   20.4251 N   0  0  0  0  0  0
  -26.2995  -12.9359   20.3338 N   0  0  0  0  0  0
  -25.9330  -11.6508   20.5761 N   0  0  0  0  0  0
  -22.0489  -12.8217   22.0407 N   0  0  0  0  0  0
  -25.4214  -15.1896   20.4180 N   0  0  0  0  0  0
  -31.7915  -14.8056   20.1326 O   0  0  0  0  0  0
  -21.6637   -6.8876   21.4242 O   0  0  0  0  0  0
  -22.3520  -14.5528   20.6698 O   0  0  0  0  0  0
  -24.6266  -31.8601   23.2031 C   0  0  0  0  0  0
  -25.9113  -32.4780   23.8358 C   0  0  1  0  0  0
  -27.2236  -27.3176   20.1118 C   0  0  0  0  0  0
  -25.5926  -33.8581   24.2283 N   0  0  0  0  0  0
  -23.4199  -30.4850   21.5463 C   0  0  2  0  0  0
  -24.8656  -28.9422   20.1113 C   0  0  0  0  0  0
  -22.7476  -29.4628   22.4939 C   0  0  0  0  0  0
  -18.0286  -28.1384   22.8487 C   0  0  0  0  0  0
  -24.1489  -36.7296   23.2639 C   0  0  0  0  0  0
  -25.9621  -30.7907   21.3744 C   0  0  0  0  0  0
  -26.0362  -29.4188   20.7147 C   0  0  0  0  0  0
  -27.2183  -28.6189   20.7045 C   0  0  0  0  0  0
  -26.0260  -26.8968   19.4857 C   0  0  0  0  0  0
  -24.8626  -27.6866   19.4884 C   0  0  0  0  0  0
  -23.6342  -29.8222   20.1610 C   0  0  0  0  0  0
  -25.4113  -36.3085   24.0330 C   0  0  1  0  0  0
  -20.5886  -28.3689   23.1283 C   0  0  2  0  0  0
  -20.6775  -26.9414   22.5408 C   0  0  0  0  0  0
  -19.5750  -26.6385   21.5212 C   0  0  0  0  0  0
  -18.1931  -26.7926   22.1626 C   0  0  0  0  0  0
  -19.1538  -28.8853   23.2880 C   0  0  0  0  0  0
  -18.9460  -30.1455   23.8897 C   0  0  0  0  0  0
  -17.6461  -30.6587   24.0563 C   0  0  0  0  0  0
  -25.9051  -34.9454   23.5107 C   0  0  0  0  0  0
  -16.5352  -29.9086   23.6329 C   0  0  0  0  0  0
  -16.7273  -28.6503   23.0352 C   0  0  0  0  0  0
  -26.4494  -31.6587   25.0728 C   0  0  0  0  0  0
  -25.3727  -31.3725   26.1454 C   0  0  0  0  0  0
  -27.0334  -30.3010   24.6182 C   0  0  0  0  0  0
  -27.6054  -32.4320   25.7498 C   0  0  0  0  0  0
  -27.5580  -37.1804   24.8465 C   0  0  0  0  0  0
  -21.4189  -29.3045   22.3680 N   0  0  0  0  0  0
  -26.4293  -37.3779   23.9407 N   0  0  0  0  0  0
  -24.6885  -31.0614   22.0981 N   0  0  0  0  0  0
  -23.4201  -28.8163   23.3014 O   0  0  0  0  0  0
  -28.3403  -26.4633   20.1602 O   0  0  0  0  0  0
  -26.5620  -34.8919   22.4674 O   0  0  0  0  0  0
  -23.5429  -32.1399   23.7358 O   0  0  0  0  0  0
  -31.1180  -17.8849   20.6034 C   0  0  0  0  0  0
  -31.1123  -19.3107   20.5262 C   0  0  0  0  0  0
  -28.7106  -19.3389   20.5192 C   0  0  0  0  0  0
  -29.9083  -17.1463   20.6525 C   0  0  0  0  0  0
  -29.9190  -20.0843   20.4854 C   0  0  0  0  0  0
  -28.7114  -17.9126   20.6067 C   0  0  0  0  0  0
  -29.2528  -23.9564   20.3436 C   0  0  0  0  0  0
  -28.1015  -25.0048   20.0220 C   0  0  0  0  0  0
  -28.8904  -22.3990   20.2827 C   0  0  0  0  0  0
  -29.7931  -15.6941   20.7921 N   0  0  0  0  0  0
  -30.0305  -21.4919   20.4337 O   0  0  0  0  0  0
  -27.5271  -17.2553   20.6481 F   0  0  0  0  0  0
  -31.4812  -12.5238   19.1468 H   0  0  0  0  0  0
  -30.3783  -11.4007   19.8940 H   0  0  0  0  0  0
  -29.7724  -11.7555   17.4787 H   0  0  0  0  0  0
  -29.6485  -13.4764   17.7417 H   0  0  0  0  0  0
  -27.8691  -11.2920   18.8707 H   0  0  0  0  0  0
  -27.3755  -12.5722   17.7955 H   0  0  0  0  0  0
  -27.6666  -14.2522   19.5190 H   0  0  0  0  0  0
  -28.7131  -12.0565   21.3781 H   0  0  0  0  0  0
  -28.4480  -13.7124   21.8419 H   0  0  0  0  0  0
  -25.2760   -9.5683   22.4755 H   0  0  0  0  0  0
  -23.9999   -7.4633   22.7474 H   0  0  0  0  0  0
  -21.0836   -8.8767   19.8954 H   0  0  0  0  0  0
  -22.3693  -10.9665   19.6157 H   0  0  0  0  0  0
  -21.2003   -7.6146   23.9716 H   0  0  0  0  0  0
  -21.1485   -6.0521   25.9079 H   0  0  0  0  0  0
  -22.0598   -2.7606   23.2846 H   0  0  0  0  0  0
  -22.4103  -11.9877   22.4793 H   0  0  0  0  0  0
  -21.1112  -13.1253   22.2622 H   0  0  0  0  0  0
  -24.6550  -15.8367   20.5619 H   0  0  0  0  0  0
  -26.2902  -15.6637   20.1983 H   0  0  0  0  0  0
  -26.7180  -32.5450   23.1107 H   0  0  0  0  0  0
  -25.0065  -33.9725   25.0423 H   0  0  0  0  0  0
  -22.7139  -31.3059   21.4047 H   0  0  0  0  0  0
  -23.3749  -35.9632   23.3306 H   0  0  0  0  0  0
  -24.3580  -36.8912   22.2052 H   0  0  0  0  0  0
  -23.7246  -37.6502   23.6657 H   0  0  0  0  0  0
  -26.0942  -31.5552   20.6075 H   0  0  0  0  0  0
  -26.8423  -30.8379   22.0041 H   0  0  0  0  0  0
  -28.1158  -28.9808   21.1864 H   0  0  0  0  0  0
  -25.9527  -25.9397   18.9927 H   0  0  0  0  0  0
  -23.9657  -27.3159   19.0113 H   0  0  0  0  0  0
  -23.7534  -30.5997   19.4055 H   0  0  0  0  0  0
  -22.7537  -29.2525   19.8581 H   0  0  0  0  0  0
  -25.1293  -36.1940   25.0823 H   0  0  0  0  0  0
  -20.9979  -28.3261   24.1404 H   0  0  0  0  0  0
  -20.5679  -26.2299   23.3607 H   0  0  0  0  0  0
  -21.6643  -26.7445   22.1199 H   0  0  0  0  0  0
  -19.6913  -25.6296   21.1242 H   0  0  0  0  0  0
  -19.6686  -27.3195   20.6741 H   0  0  0  0  0  0
  -17.4200  -26.6671   21.4030 H   0  0  0  0  0  0
  -18.0335  -26.0069   22.9023 H   0  0  0  0  0  0
  -19.7937  -30.7270   24.2269 H   0  0  0  0  0  0
  -17.5016  -31.6267   24.5164 H   0  0  0  0  0  0
  -15.5352  -30.2988   23.7651 H   0  0  0  0  0  0
  -15.8672  -28.0822   22.7068 H   0  0  0  0  0  0
  -24.5898  -30.7080   25.7780 H   0  0  0  0  0  0
  -24.8923  -32.2892   26.4885 H   0  0  0  0  0  0
  -25.8050  -30.8895   27.0226 H   0  0  0  0  0  0
  -26.2907  -29.6762   24.1207 H   0  0  0  0  0  0
  -27.4029  -29.7264   25.4687 H   0  0  0  0  0  0
  -27.8779  -30.4291   23.9407 H   0  0  0  0  0  0
  -27.2666  -33.3618   26.2077 H   0  0  0  0  0  0
  -28.3864  -32.6881   25.0327 H   0  0  0  0  0  0
  -28.0722  -31.8443   26.5414 H   0  0  0  0  0  0
  -28.2599  -38.0100   24.7509 H   0  0  0  0  0  0
  -28.1073  -36.2631   24.6294 H   0  0  0  0  0  0
  -27.2298  -37.1456   25.8868 H   0  0  0  0  0  0
  -20.9367  -29.8773   21.6895 H   0  0  0  0  0  0
  -26.0176  -38.2855   24.1401 H   0  0  0  0  0  0
  -32.0671  -17.3700   20.6429 H   0  0  0  0  0  0
  -32.0626  -19.8258   20.5039 H   0  0  0  0  0  0
  -27.7601  -19.8494   20.4918 H   0  0  0  0  0  0
  -29.6470  -24.1729   21.3364 H   0  0  0  0  0  0
  -30.0761  -24.1424   19.6539 H   0  0  0  0  0  0
  -27.2506  -24.7435   20.6531 H   0  0  0  0  0  0
  -27.7948  -24.8125   18.9934 H   0  0  0  0  0  0
  -28.4094  -22.1808   19.3285 H   0  0  0  0  0  0
  -28.1566  -22.1770   21.0583 H   0  0  0  0  0  0
  -28.8555  -15.3945   21.0126 H   0  0  0  0  0  0
  1 25  1  0  0  0
  1 30  2  0  0  0
  1 80  1  0  0  0
  2  3  1  0  0  0
  2 25  1  0  0  0
  2 83  1  0  0  0
  2 84  1  0  0  0
  3  4  1  0  0  0
  3 85  1  0  0  0
  3 86  1  0  0  0
  4  5  1  0  0  0
  4 87  1  0  0  0
  4 88  1  0  0  0
  5  6  1  0  0  0
  5 26  1  0  0  0
  5 89  1  0  0  0
  6 25  1  0  0  0
  6 90  1  0  0  0
  6 91  1  0  0  0
  7  8  2  0  0  0
  7 26  1  0  0  0
  7 29  1  0  0  0
  8  9  1  0  0  0
  8 22  1  0  0  0
  9 10  1  0  0  0
  9 27  2  0  0  0
 10 11  2  0  0  0
 10 15  1  0  0  0
 11 12  1  0  0  0
 11 92  1  0  0  0
 12 13  2  0  0  0
 12 93  1  0  0  0
 13 14  1  0  0  0
 13 31  1  0  0  0
 14 15  2  0  0  0
 14 94  1  0  0  0
 15 95  1  0  0  0
 16 17  2  0  0  0
 16 21  1  0  0  0
 16 31  1  0  0  0
 17 18  1  0  0  0
 17 96  1  0  0  0
 18 19  2  0  0  0
 18 97  1  0  0  0
 19 20  1  0  0  0
 19 24  1  0  0  0
 20 21  2  0  0  0
 20 98  1  0  0  0
 21 23  1  0  0  0
 22 28  1  0  0  0
 22 32  2  0  0  0
 26 27  1  0  0  0
 28 99  1  0  0  0
 28100  1  0  0  0
 29101  1  0  0  0
 29102  1  0  0  0
 33 34  1  0  0  0
 33 66  1  0  0  0
 33 70  2  0  0  0
 34 36  1  0  0  0
 34 59  1  0  0  0
 34103  1  0  0  0
 35 44  2  0  0  0
 35 45  1  0  0  0
 35 68  1  0  0  0
 36 56  1  0  0  0
 36104  1  0  0  0
 37 39  1  0  0  0
 37 47  1  0  0  0
 37 66  1  0  0  0
 37105  1  0  0  0
 38 43  2  0  0  0
 38 46  1  0  0  0
 38 47  1  0  0  0
 39 64  1  0  0  0
 39 67  2  0  0  0
 40 52  1  0  0  0
 40 53  2  0  0  0
 40 58  1  0  0  0
 41106  1  0  0  0
 41107  1  0  0  0
 41108  1  0  0  0
 41 48  1  0  0  0
 42 43  1  0  0  0
 42 66  1  0  0  0
 42109  1  0  0  0
 42110  1  0  0  0
 43 44  1  0  0  0
 44111  1  0  0  0
 45 46  2  0  0  0
 45112  1  0  0  0
 46113  1  0  0  0
 47114  1  0  0  0
 47115  1  0  0  0
 48 56  1  0  0  0
 48 65  1  0  0  0
 48116  1  0  0  0
 49 50  1  0  0  0
 49 53  1  0  0  0
 49 64  1  0  0  0
 49117  1  0  0  0
 50 51  1  0  0  0
 50118  1  0  0  0
 50119  1  0  0  0
 51 52  1  0  0  0
 51120  1  0  0  0
 51121  1  0  0  0
 52122  1  0  0  0
 52123  1  0  0  0
 53 54  1  0  0  0
 54 55  2  0  0  0
 54124  1  0  0  0
 55 57  1  0  0  0
 55125  1  0  0  0
 56 69  2  0  0  0
 57 58  2  0  0  0
 57126  1  0  0  0
 58127  1  0  0  0
 59 60  1  0  0  0
 59 61  1  0  0  0
 59 62  1  0  0  0
 60128  1  0  0  0
 60129  1  0  0  0
 60130  1  0  0  0
 61131  1  0  0  0
 61132  1  0  0  0
 61133  1  0  0  0
 62134  1  0  0  0
 62135  1  0  0  0
 62136  1  0  0  0
 63 65  1  0  0  0
 63137  1  0  0  0
 63138  1  0  0  0
 63139  1  0  0  0
 64140  1  0  0  0
 65141  1  0  0  0
 68 78  1  0  0  0
 71 72  2  0  0  0
 71 74  1  0  0  0
 71142  1  0  0  0
 72 75  1  0  0  0
 72143  1  0  0  0
 73 75  2  0  0  0
 73 76  1  0  0  0
 73144  1  0  0  0
 74 76  2  0  0  0
 74 80  1  0  0  0
 75 81  1  0  0  0
 76 82  1  0  0  0
 77 78  1  0  0  0
 77 79  1  0  0  0
 77145  1  0  0  0
 77146  1  0  0  0
 78147  1  0  0  0
 78148  1  0  0  0
 79 81  1  0  0  0
 79149  1  0  0  0
 79150  1  0  0  0
 80151  1  0  0  0
M  ISO  4   1 100  68 101  78 101  80 100
M  END
> <chiral flag>
0

> <version>
0

> <s_m_source_file>
/data/baiqing/PycharmProjects/Reinvent-master-3.2/result/LINK_invent/BTK/process_docking_weight1_custom_sum_contain_oxygen_bond_distance_aromatic_linkinvent_7_9_3/rearranged_h_0007.sdf

> <i_m_source_file_index>
8

> <r_mmod_Potential_Energy-OPLS-2005>
8.48562717437744

> <r_mmod_Stretch_Energy-OPLS-2005>
78.0414810180664

> <r_mmod_Bend_Energy-OPLS-2005>
145.352081298828

> <r_mmod_Torsional_Energy-OPLS-2005>
209.226409912109

> <r_mmod_Improper_Torsional_Energy-OPLS-2005>
4.5839262008667

> <r_mmod_Van_der_Waal_Energy-OPLS-2005>
144.377670288086

> <r_mmod_Electrostatic_Energy-OPLS-2005>
-422.268218994141

> <r_mmod_Solvation_Energy-OPLS-2005>
-201.274765014648

> <b_mmod_Minimization_Converged-OPLS-2005>
0

> <r_mmod_RMS_Derivative-OPLS-2005>
0.238112762570381

$$$$
8
                    3D
 Structure written by MMmdl.
194202  0  0  1  0            999 V2000
  -30.7218  -14.4250   20.5485 C   0  0  0  0  0  0
  -30.4164  -12.2692   19.4228 C   0  0  0  0  0  0
  -29.4965  -12.4964   18.2060 C   0  0  0  0  0  0
  -28.0142  -12.3749   18.6117 C   0  0  0  0  0  0
  -27.6650  -13.2082   19.8749 C   0  0  2  0  0  0
  -28.7045  -12.9773   20.9961 C   0  0  0  0  0  0
  -25.2610  -13.8185   20.5665 C   0  0  0  0  0  0
  -24.1861  -13.0463   20.9167 C   0  0  0  0  0  0
  -24.6406  -11.6930   20.8721 C   0  0  0  0  0  0
  -23.9064  -10.4315   21.0382 C   0  0  0  0  0  0
  -24.3616   -9.4232   21.9160 C   0  0  0  0  0  0
  -23.6296   -8.2257   22.0727 C   0  0  0  0  0  0
  -22.4279   -8.0281   21.3520 C   0  0  0  0  0  0
  -21.9911   -9.0259   20.4627 C   0  0  0  0  0  0
  -22.7232  -10.2144   20.3033 C   0  0  0  0  0  0
  -21.6851   -6.0738   22.5274 C   0  0  0  0  0  0
  -21.4025   -6.5638   23.8214 C   0  0  0  0  0  0
  -21.3663   -5.6789   24.9169 C   0  0  0  0  0  0
  -21.6037   -4.3050   24.7221 C   0  0  0  0  0  0
  -21.8825   -3.8144   23.4341 C   0  0  0  0  0  0
  -21.9203   -4.6965   22.3401 C   0  0  0  0  0  0
  -22.7883  -13.5249   21.1829 C   0  0  0  0  0  0
  -22.1659   -4.2150   21.0972 F   0  0  0  0  0  0
  -21.5630   -3.4538   25.7728 F   0  0  0  0  0  0
  -30.0438  -13.2524   20.4486 N   0  0  0  0  0  0
  -26.3046  -12.9351   20.3344 N   0  0  0  0  0  0
  -25.9330  -11.6512   20.5751 N   0  0  0  0  0  0
  -22.0520  -12.8244   22.0385 N   0  0  0  0  0  0
  -25.4361  -15.1897   20.4071 N   0  0  0  0  0  0
  -31.8589  -14.5894   20.1000 O   0  0  0  0  0  0
  -21.6642   -6.8876   21.4228 O   0  0  0  0  0  0
  -22.3567  -14.5550   20.6665 O   0  0  0  0  0  0
  -24.6122  -31.8695   23.2126 C   0  0  0  0  0  0
  -25.9025  -32.4836   23.8401 C   0  0  1  0  0  0
  -27.2355  -27.4534   20.0701 C   0  0  0  0  0  0
  -25.5907  -33.8642   24.2313 N   0  0  0  0  0  0
  -23.3968  -30.4963   21.5521 C   0  0  2  0  0  0
  -24.8412  -28.9663   20.1133 C   0  0  0  0  0  0
  -22.7393  -29.4663   22.4986 C   0  0  0  0  0  0
  -18.0266  -28.1388   22.8494 C   0  0  0  0  0  0
  -24.1481  -36.7333   23.2633 C   0  0  0  0  0  0
  -25.9255  -30.8377   21.3628 C   0  0  0  0  0  0
  -25.9997  -29.4720   20.7135 C   0  0  0  0  0  0
  -27.1943  -28.7190   20.6986 C   0  0  0  0  0  0
  -26.0549  -26.9654   19.4591 C   0  0  0  0  0  0
  -24.8625  -27.7092   19.4881 C   0  0  0  0  0  0
  -23.6043  -29.8336   20.1643 C   0  0  0  0  0  0
  -25.4107  -36.3117   24.0312 C   0  0  1  0  0  0
  -20.5855  -28.3660   23.1339 C   0  0  2  0  0  0
  -20.6745  -26.9399   22.5434 C   0  0  0  0  0  0
  -19.5722  -26.6386   21.5230 C   0  0  0  0  0  0
  -18.1905  -26.7931   22.1634 C   0  0  0  0  0  0
  -19.1517  -28.8840   23.2915 C   0  0  0  0  0  0
  -18.9441  -30.1453   23.8915 C   0  0  0  0  0  0
  -17.6440  -30.6583   24.0589 C   0  0  0  0  0  0
  -25.9041  -34.9485   23.5100 C   0  0  0  0  0  0
  -16.5332  -29.9093   23.6335 C   0  0  0  0  0  0
  -16.7256  -28.6527   23.0321 C   0  0  0  0  0  0
  -26.4465  -31.6620   25.0728 C   0  0  0  0  0  0
  -25.3742  -31.3737   26.1484 C   0  0  0  0  0  0
  -27.0286  -30.3062   24.6095 C   0  0  0  0  0  0
  -27.6035  -32.4342   25.7502 C   0  0  0  0  0  0
  -27.5571  -37.1819   24.8461 C   0  0  0  0  0  0
  -21.4120  -29.3032   22.3746 N   0  0  0  0  0  0
  -26.4285  -37.3800   23.9408 N   0  0  0  0  0  0
  -24.6634  -31.0823   22.1009 N   0  0  0  0  0  0
  -23.4187  -28.8183   23.2988 O   0  0  0  0  0  0
  -28.4308  -26.7569   20.0801 O   0  0  0  0  0  0
  -26.5604  -34.8942   22.4663 O   0  0  0  0  0  0
  -23.5314  -32.1442   23.7533 O   0  0  0  0  0  0
  -30.2163  -17.8229   21.6431 C   0  0  0  0  0  0
  -30.5779  -18.5170   18.9206 C   0  0  0  0  0  0
  -30.2110  -16.8114   20.6613 C   0  0  0  0  0  0
  -30.4152  -19.1674   21.2738 C   0  0  0  0  0  0
  -30.3618  -17.1704   19.2955 C   0  0  0  0  0  0
  -30.6041  -19.5147   19.9211 C   0  0  0  0  0  0
  -30.2219  -20.4321   15.6733 C   0  0  0  0  0  0
  -27.8178  -24.3840   20.3014 C   0  0  0  0  0  0
  -30.8487  -18.8569   17.4578 C   0  0  0  0  0  0
  -29.3424  -21.6089   15.2454 C   0  0  0  0  0  0
  -28.5237  -25.4642   19.4600 C   0  0  0  0  0  0
  -27.9541  -21.1764   14.7316 C   0  0  0  0  0  0
  -27.9643  -20.2811   13.4722 C   0  0  0  0  0  0
  -26.5652  -19.8167   13.0201 C   0  0  0  0  0  0
  -25.7415  -19.0670   14.0865 C   0  0  0  0  0  0
  -26.4348  -17.8194   14.6741 C   0  0  0  0  0  0
  -25.6273  -17.1052   15.7777 C   0  0  0  0  0  0
  -25.2453  -17.9825   16.9869 C   0  0  0  0  0  0
  -26.4454  -18.5726   17.7498 C   0  0  0  0  0  0
  -26.0226  -19.6317   18.7800 C   0  0  0  0  0  0
  -27.2246  -20.2730   19.4934 C   0  0  0  0  0  0
  -26.8435  -21.2016   20.6623 C   0  0  0  0  0  0
  -26.1624  -22.5246   20.2600 C   0  0  0  0  0  0
  -30.0272  -15.4549   21.0564 N   0  0  0  0  0  0
  -30.0957  -19.9918   16.9295 N   0  0  0  0  0  0
  -27.0841  -23.4760   19.6395 N   0  0  0  0  0  0
  -31.0133  -19.9342   14.8709 O   0  0  0  0  0  0
  -27.8984  -24.4021   21.5322 O   0  0  0  0  0  0
  -30.4344  -20.1301   22.2253 F   0  0  0  0  0  0
  -30.2842  -16.2205   18.3309 F   0  0  0  0  0  0
  -30.7997  -20.8148   19.5907 F   0  0  0  0  0  0
  -31.4634  -12.3465   19.1248 H   0  0  0  0  0  0
  -30.2924  -11.2575   19.8116 H   0  0  0  0  0  0
  -29.7258  -11.7728   17.4225 H   0  0  0  0  0  0
  -29.6858  -13.4825   17.7780 H   0  0  0  0  0  0
  -27.8122  -11.3194   18.7974 H   0  0  0  0  0  0
  -27.3720  -12.6638   17.7789 H   0  0  0  0  0  0
  -27.7158  -14.2586   19.5859 H   0  0  0  0  0  0
  -28.6632  -11.9432   21.3431 H   0  0  0  0  0  0
  -28.4762  -13.5899   21.8693 H   0  0  0  0  0  0
  -25.2749   -9.5728   22.4741 H   0  0  0  0  0  0
  -24.0017   -7.4660   22.7443 H   0  0  0  0  0  0
  -21.0832   -8.8769   19.8942 H   0  0  0  0  0  0
  -22.3662  -10.9679   19.6149 H   0  0  0  0  0  0
  -21.2014   -7.6147   23.9716 H   0  0  0  0  0  0
  -21.1470   -6.0510   25.9071 H   0  0  0  0  0  0
  -22.0603   -2.7603   23.2838 H   0  0  0  0  0  0
  -22.4123  -11.9914   22.4809 H   0  0  0  0  0  0
  -21.1124  -13.1242   22.2547 H   0  0  0  0  0  0
  -24.6709  -15.8464   20.5073 H   0  0  0  0  0  0
  -26.2859  -15.6208   20.0666 H   0  0  0  0  0  0
  -26.7095  -32.5539   23.1166 H   0  0  0  0  0  0
  -25.0096  -33.9836   25.0477 H   0  0  0  0  0  0
  -22.6836  -31.3118   21.4170 H   0  0  0  0  0  0
  -23.3727  -35.9685   23.3307 H   0  0  0  0  0  0
  -24.3575  -36.8952   22.2049 H   0  0  0  0  0  0
  -23.7257  -37.6540   23.6661 H   0  0  0  0  0  0
  -26.0298  -31.5980   20.5869 H   0  0  0  0  0  0
  -26.8182  -30.8964   21.9740 H   0  0  0  0  0  0
  -28.0882  -29.1106   21.1636 H   0  0  0  0  0  0
  -26.0283  -26.0174   18.9453 H   0  0  0  0  0  0
  -23.9728  -27.3154   19.0156 H   0  0  0  0  0  0
  -23.7162  -30.6122   19.4087 H   0  0  0  0  0  0
  -22.7269  -29.2583   19.8622 H   0  0  0  0  0  0
  -25.1278  -36.1970   25.0797 H   0  0  0  0  0  0
  -20.9954  -28.3212   24.1456 H   0  0  0  0  0  0
  -20.5653  -26.2264   23.3613 H   0  0  0  0  0  0
  -21.6610  -26.7440   22.1222 H   0  0  0  0  0  0
  -19.6873  -25.6303   21.1237 H   0  0  0  0  0  0
  -19.6657  -27.3222   20.6782 H   0  0  0  0  0  0
  -17.4175  -26.6698   21.4033 H   0  0  0  0  0  0
  -18.0290  -26.0080   22.9031 H   0  0  0  0  0  0
  -19.7921  -30.7281   24.2263 H   0  0  0  0  0  0
  -17.4998  -31.6262   24.5192 H   0  0  0  0  0  0
  -15.5335  -30.2998   23.7656 H   0  0  0  0  0  0
  -15.8661  -28.0883   22.6964 H   0  0  0  0  0  0
  -24.5888  -30.7114   25.7827 H   0  0  0  0  0  0
  -24.8974  -32.2905   26.4956 H   0  0  0  0  0  0
  -25.8091  -30.8879   27.0225 H   0  0  0  0  0  0
  -26.2811  -29.6852   24.1143 H   0  0  0  0  0  0
  -27.4044  -29.7281   25.4546 H   0  0  0  0  0  0
  -27.8657  -30.4385   23.9239 H   0  0  0  0  0  0
  -27.2624  -33.3614   26.2122 H   0  0  0  0  0  0
  -28.3828  -32.6952   25.0330 H   0  0  0  0  0  0
  -28.0727  -31.8451   26.5393 H   0  0  0  0  0  0
  -28.2582  -38.0119   24.7504 H   0  0  0  0  0  0
  -28.1051  -36.2649   24.6259 H   0  0  0  0  0  0
  -27.2299  -37.1448   25.8865 H   0  0  0  0  0  0
  -20.9244  -29.8811   21.7052 H   0  0  0  0  0  0
  -26.0156  -38.2863   24.1425 H   0  0  0  0  0  0
  -30.0911  -17.5749   22.6877 H   0  0  0  0  0  0
  -30.6466  -17.9920   16.8246 H   0  0  0  0  0  0
  -31.9159  -19.0627   17.3541 H   0  0  0  0  0  0
  -29.8643  -22.1730   14.4718 H   0  0  0  0  0  0
  -29.2259  -22.2920   16.0876 H   0  0  0  0  0  0
  -28.1616  -25.4861   18.4307 H   0  0  0  0  0  0
  -29.5802  -25.2002   19.4023 H   0  0  0  0  0  0
  -27.3647  -22.0698   14.5227 H   0  0  0  0  0  0
  -27.4405  -20.6691   15.5453 H   0  0  0  0  0  0
  -28.5912  -19.4029   13.6278 H   0  0  0  0  0  0
  -28.4334  -20.8258   12.6513 H   0  0  0  0  0  0
  -26.6694  -19.1812   12.1399 H   0  0  0  0  0  0
  -25.9943  -20.6856   12.6881 H   0  0  0  0  0  0
  -24.7881  -18.7684   13.6476 H   0  0  0  0  0  0
  -25.4851  -19.7683   14.8792 H   0  0  0  0  0  0
  -27.4155  -18.0794   15.0698 H   0  0  0  0  0  0
  -26.6291  -17.1086   13.8699 H   0  0  0  0  0  0
  -26.1983  -16.2446   16.1296 H   0  0  0  0  0  0
  -24.7166  -16.6941   15.3406 H   0  0  0  0  0  0
  -24.6506  -17.3830   17.6781 H   0  0  0  0  0  0
  -24.5796  -18.7819   16.6610 H   0  0  0  0  0  0
  -27.1427  -19.0343   17.0546 H   0  0  0  0  0  0
  -26.9975  -17.7678   18.2387 H   0  0  0  0  0  0
  -25.3617  -19.1729   19.5163 H   0  0  0  0  0  0
  -25.4402  -20.4062   18.2789 H   0  0  0  0  0  0
  -27.8533  -20.8060   18.7796 H   0  0  0  0  0  0
  -27.8334  -19.4653   19.8976 H   0  0  0  0  0  0
  -27.7366  -21.4279   21.2470 H   0  0  0  0  0  0
  -26.1858  -20.6576   21.3419 H   0  0  0  0  0  0
  -25.7080  -22.9816   21.1419 H   0  0  0  0  0  0
  -25.3357  -22.3375   19.5747 H   0  0  0  0  0  0
  -29.1990  -15.2349   21.5868 H   0  0  0  0  0  0
  -29.4377  -20.4525   17.5412 H   0  0  0  0  0  0
  -27.0888  -23.5190   18.6284 H   0  0  0  0  0  0
  1 25  1  0  0  0
  1 30  2  0  0  0
  1 94  1  0  0  0
  2  3  1  0  0  0
  2 25  1  0  0  0
  2102  1  0  0  0
  2103  1  0  0  0
  3  4  1  0  0  0
  3104  1  0  0  0
  3105  1  0  0  0
  4  5  1  0  0  0
  4106  1  0  0  0
  4107  1  0  0  0
  5  6  1  0  0  0
  5 26  1  0  0  0
  5108  1  0  0  0
  6 25  1  0  0  0
  6109  1  0  0  0
  6110  1  0  0  0
  7  8  2  0  0  0
  7 26  1  0  0  0
  7 29  1  0  0  0
  8  9  1  0  0  0
  8 22  1  0  0  0
  9 10  1  0  0  0
  9 27  2  0  0  0
 10 11  2  0  0  0
 10 15  1  0  0  0
 11 12  1  0  0  0
 11111  1  0  0  0
 12 13  2  0  0  0
 12112  1  0  0  0
 13 14  1  0  0  0
 13 31  1  0  0  0
 14 15  2  0  0  0
 14113  1  0  0  0
 15114  1  0  0  0
 16 17  2  0  0  0
 16 21  1  0  0  0
 16 31  1  0  0  0
 17 18  1  0  0  0
 17115  1  0  0  0
 18 19  2  0  0  0
 18116  1  0  0  0
 19 20  1  0  0  0
 19 24  1  0  0  0
 20 21  2  0  0  0
 20117  1  0  0  0
 21 23  1  0  0  0
 22 28  1  0  0  0
 22 32  2  0  0  0
 26 27  1  0  0  0
 28118  1  0  0  0
 28119  1  0  0  0
 29120  1  0  0  0
 29121  1  0  0  0
 33 34  1  0  0  0
 33 66  1  0  0  0
 33 70  2  0  0  0
 34 36  1  0  0  0
 34 59  1  0  0  0
 34122  1  0  0  0
 35 44  2  0  0  0
 35 45  1  0  0  0
 35 68  1  0  0  0
 36 56  1  0  0  0
 36123  1  0  0  0
 37 39  1  0  0  0
 37 47  1  0  0  0
 37 66  1  0  0  0
 37124  1  0  0  0
 38 43  2  0  0  0
 38 46  1  0  0  0
 38 47  1  0  0  0
 39 64  1  0  0  0
 39 67  2  0  0  0
 40 52  1  0  0  0
 40 53  2  0  0  0
 40 58  1  0  0  0
 41125  1  0  0  0
 41126  1  0  0  0
 41127  1  0  0  0
 41 48  1  0  0  0
 42 43  1  0  0  0
 42 66  1  0  0  0
 42128  1  0  0  0
 42129  1  0  0  0
 43 44  1  0  0  0
 44130  1  0  0  0
 45 46  2  0  0  0
 45131  1  0  0  0
 46132  1  0  0  0
 47133  1  0  0  0
 47134  1  0  0  0
 48 56  1  0  0  0
 48 65  1  0  0  0
 48135  1  0  0  0
 49 50  1  0  0  0
 49 53  1  0  0  0
 49 64  1  0  0  0
 49136  1  0  0  0
 50 51  1  0  0  0
 50137  1  0  0  0
 50138  1  0  0  0
 51 52  1  0  0  0
 51139  1  0  0  0
 51140  1  0  0  0
 52141  1  0  0  0
 52142  1  0  0  0
 53 54  1  0  0  0
 54 55  2  0  0  0
 54143  1  0  0  0
 55 57  1  0  0  0
 55144  1  0  0  0
 56 69  2  0  0  0
 57 58  2  0  0  0
 57145  1  0  0  0
 58146  1  0  0  0
 59 60  1  0  0  0
 59 61  1  0  0  0
 59 62  1  0  0  0
 60147  1  0  0  0
 60148  1  0  0  0
 60149  1  0  0  0
 61150  1  0  0  0
 61151  1  0  0  0
 61152  1  0  0  0
 62153  1  0  0  0
 62154  1  0  0  0
 62155  1  0  0  0
 63 65  1  0  0  0
 63156  1  0  0  0
 63157  1  0  0  0
 63158  1  0  0  0
 64159  1  0  0  0
 65160  1  0  0  0
 68 81  1  0  0  0
 71 73  2  0  0  0
 71 74  1  0  0  0
 71161  1  0  0  0
 72 75  2  0  0  0
 72 76  1  0  0  0
 72 79  1  0  0  0
 73 75  1  0  0  0
 73 94  1  0  0  0
 74 76  2  0  0  0
 74 99  1  0  0  0
 75100  1  0  0  0
 76101  1  0  0  0
 77 80  1  0  0  0
 77 95  1  0  0  0
 77 97  2  0  0  0
 78 81  1  0  0  0
 78 96  1  0  0  0
 78 98  2  0  0  0
 79 95  1  0  0  0
 79162  1  0  0  0
 79163  1  0  0  0
 80 82  1  0  0  0
 80164  1  0  0  0
 80165  1  0  0  0
 81166  1  0  0  0
 81167  1  0  0  0
 82 83  1  0  0  0
 82168  1  0  0  0
 82169  1  0  0  0
 83 84  1  0  0  0
 83170  1  0  0  0
 83171  1  0  0  0
 84 85  1  0  0  0
 84172  1  0  0  0
 84173  1  0  0  0
 85 86  1  0  0  0
 85174  1  0  0  0
 85175  1  0  0  0
 86 87  1  0  0  0
 86176  1  0  0  0
 86177  1  0  0  0
 87 88  1  0  0  0
 87178  1  0  0  0
 87179  1  0  0  0
 88 89  1  0  0  0
 88180  1  0  0  0
 88181  1  0  0  0
 89 90  1  0  0  0
 89182  1  0  0  0
 89183  1  0  0  0
 90 91  1  0  0  0
 90184  1  0  0  0
 90185  1  0  0  0
 91 92  1  0  0  0
 91186  1  0  0  0
 91187  1  0  0  0
 92 93  1  0  0  0
 92188  1  0  0  0
 92189  1  0  0  0
 93 96  1  0  0  0
 93190  1  0  0  0
 93191  1  0  0  0
 94192  1  0  0  0
 95193  1  0  0  0
 96194  1  0  0  0
M  ISO  4   1 100  68 101  81 101  94 100
M  END
> <chiral flag>
0

> <version>
0

> <s_m_source_file>
/data/baiqing/PycharmProjects/Reinvent-master-3.2/result/LINK_invent/BTK/process_docking_weight1_custom_sum_contain_oxygen_bond_distance_aromatic_linkinvent_7_9_3/rearranged_h_0007.sdf

> <i_m_source_file_index>
9

> <r_mmod_Potential_Energy-OPLS-2005>
-180.540283203125

> <r_mmod_Stretch_Energy-OPLS-2005>
36.9287796020508

> <r_mmod_Bend_Energy-OPLS-2005>
106.070373535156

> <r_mmod_Torsional_Energy-OPLS-2005>
246.764633178711

> <r_mmod_Improper_Torsional_Energy-OPLS-2005>
4.10589408874512

> <r_mmod_Van_der_Waal_Energy-OPLS-2005>
132.85075378418

> <r_mmod_Electrostatic_Energy-OPLS-2005>
-461.913879394531

> <r_mmod_Solvation_Energy-OPLS-2005>
-257.100921630859

> <b_mmod_Minimization_Converged-OPLS-2005>
0

> <r_mmod_RMS_Derivative-OPLS-2005>
2.00234341621399

$$$$
9
                    3D
 Structure written by MMmdl.
156164  0  0  1  0            999 V2000
  -30.5041  -15.0581   20.3853 C   0  0  0  0  0  0
  -30.4391  -12.6567   19.5248 C   0  0  0  0  0  0
  -29.5280  -12.5519   18.2774 C   0  0  0  0  0  0
  -28.0679  -12.3135   18.6956 C   0  0  0  0  0  0
  -27.6263  -13.2617   19.8410 C   0  0  2  0  0  0
  -28.6638  -13.3385   20.9831 C   0  0  0  0  0  0
  -25.2434  -13.8243   20.5716 C   0  0  0  0  0  0
  -24.1770  -13.0453   20.9233 C   0  0  0  0  0  0
  -24.6401  -11.6939   20.8765 C   0  0  0  0  0  0
  -23.9091  -10.4299   21.0418 C   0  0  0  0  0  0
  -24.3632   -9.4209   21.9190 C   0  0  0  0  0  0
  -23.6299   -8.2254   22.0757 C   0  0  0  0  0  0
  -22.4286   -8.0290   21.3541 C   0  0  0  0  0  0
  -21.9929   -9.0270   20.4649 C   0  0  0  0  0  0
  -22.7268  -10.2141   20.3063 C   0  0  0  0  0  0
  -21.6855   -6.0739   22.5269 C   0  0  0  0  0  0
  -21.4011   -6.5641   23.8202 C   0  0  0  0  0  0
  -21.3660   -5.6794   24.9164 C   0  0  0  0  0  0
  -21.6048   -4.3054   24.7226 C   0  0  0  0  0  0
  -21.8816   -3.8145   23.4341 C   0  0  0  0  0  0
  -21.9190   -4.6962   22.3389 C   0  0  0  0  0  0
  -22.7786  -13.5202   21.1874 C   0  0  0  0  0  0
  -22.1660   -4.2142   21.0967 F   0  0  0  0  0  0
  -21.5628   -3.4530   25.7745 F   0  0  0  0  0  0
  -29.9327  -13.7745   20.3845 N   0  0  0  0  0  0
  -26.2878  -12.9498   20.3276 N   0  0  0  0  0  0
  -25.9343  -11.6610   20.5777 N   0  0  0  0  0  0
  -22.0446  -12.8204   22.0444 N   0  0  0  0  0  0
  -25.4084  -15.1971   20.4081 N   0  0  0  0  0  0
  -31.7031  -15.1017   20.0751 O   0  0  0  0  0  0
  -21.6642   -6.8891   21.4238 O   0  0  0  0  0  0
  -22.3472  -14.5510   20.6720 O   0  0  0  0  0  0
  -24.6454  -31.8353   23.1774 C   0  0  0  0  0  0
  -25.9206  -32.4645   23.8200 C   0  0  1  0  0  0
  -27.2303  -27.0739   20.1564 C   0  0  0  0  0  0
  -25.5914  -33.8456   24.2102 N   0  0  0  0  0  0
  -23.4557  -30.4450   21.5205 C   0  0  2  0  0  0
  -24.9122  -28.8562   20.0954 C   0  0  0  0  0  0
  -22.7598  -29.4478   22.4810 C   0  0  0  0  0  0
  -18.0307  -28.1394   22.8472 C   0  0  0  0  0  0
  -24.1479  -36.7262   23.2641 C   0  0  0  0  0  0
  -26.0102  -30.6862   21.3874 C   0  0  0  0  0  0
  -26.0816  -29.2896   20.7289 C   0  0  0  0  0  0
  -27.2313  -28.4097   20.7471 C   0  0  0  0  0  0
  -26.0444  -26.7542   19.4629 C   0  0  0  0  0  0
  -24.9110  -27.6077   19.4443 C   0  0  0  0  0  0
  -23.6863  -29.7602   20.1435 C   0  0  0  0  0  0
  -25.4111  -36.3002   24.0296 C   0  0  1  0  0  0
  -20.5911  -28.3726   23.1225 C   0  0  2  0  0  0
  -20.6784  -26.9419   22.5412 C   0  0  0  0  0  0
  -19.5751  -26.6375   21.5217 C   0  0  0  0  0  0
  -18.1930  -26.7942   22.1617 C   0  0  0  0  0  0
  -19.1563  -28.8873   23.2843 C   0  0  0  0  0  0
  -18.9494  -30.1470   23.8876 C   0  0  0  0  0  0
  -17.6487  -30.6603   24.0550 C   0  0  0  0  0  0
  -25.9072  -34.9377   23.5030 C   0  0  0  0  0  0
  -16.5371  -29.9087   23.6339 C   0  0  0  0  0  0
  -16.7289  -28.6495   23.0371 C   0  0  0  0  0  0
  -26.4503  -31.6568   25.0694 C   0  0  0  0  0  0
  -25.3659  -31.3839   26.1387 C   0  0  0  0  0  0
  -27.0363  -30.2925   24.6377 C   0  0  0  0  0  0
  -27.6004  -32.4372   25.7481 C   0  0  0  0  0  0
  -27.5570  -37.1756   24.8445 C   0  0  0  0  0  0
  -21.4278  -29.3042   22.3590 N   0  0  0  0  0  0
  -26.4266  -37.3719   23.9404 N   0  0  0  0  0  0
  -24.7233  -31.0128   22.0840 N   0  0  0  0  0  0
  -23.4218  -28.8070   23.3013 O   0  0  0  0  0  0
  -28.2834  -26.0917   20.3458 O   0  0  0  0  0  0
  -26.5695  -34.8885   22.4635 O   0  0  0  0  0  0
  -23.5560  -32.1264   23.6936 O   0  0  0  0  0  0
  -30.6046  -18.0254   18.9825 C   0  0  0  0  0  0
  -30.0307  -20.4561   18.9178 C   0  0  0  0  0  0
  -29.2036  -19.0176   20.6807 C   0  0  0  0  0  0
  -30.6791  -19.3112   18.3811 C   0  0  0  0  0  0
  -29.8489  -17.7629   20.1457 C   0  0  0  0  0  0
  -29.2726  -20.4173   20.1058 C   0  0  0  0  0  0
  -28.3633  -21.6484   22.0231 C   0  0  0  0  0  0
  -31.4844  -19.4712   17.1056 C   0  0  0  0  0  0
  -28.0821  -23.0082   19.9191 C   0  0  0  0  0  0
  -28.5827  -24.6530   19.7558 C   0  0  0  0  0  0
  -29.7399  -16.2675   20.6053 N   0  0  0  0  0  0
  -28.7609  -21.7474   20.6232 N   0  0  0  0  0  0
  -32.7873  -19.9641   17.3501 O   0  0  0  0  0  0
  -31.4721  -12.8157   19.2125 H   0  0  0  0  0  0
  -30.4450  -11.7172   20.0809 H   0  0  0  0  0  0
  -29.8696  -11.7509   17.6207 H   0  0  0  0  0  0
  -29.5970  -13.4755   17.6999 H   0  0  0  0  0  0
  -27.9856  -11.2775   19.0272 H   0  0  0  0  0  0
  -27.4017  -12.4133   17.8374 H   0  0  0  0  0  0
  -27.5745  -14.2536   19.3892 H   0  0  0  0  0  0
  -28.7722  -12.3766   21.4868 H   0  0  0  0  0  0
  -28.3434  -14.0519   21.7453 H   0  0  0  0  0  0
  -25.2764   -9.5678   22.4778 H   0  0  0  0  0  0
  -23.9985   -7.4648   22.7484 H   0  0  0  0  0  0
  -21.0849   -8.8812   19.8959 H   0  0  0  0  0  0
  -22.3727  -10.9694   19.6175 H   0  0  0  0  0  0
  -21.2005   -7.6152   23.9704 H   0  0  0  0  0  0
  -21.1484   -6.0524   25.9070 H   0  0  0  0  0  0
  -22.0597   -2.7606   23.2846 H   0  0  0  0  0  0
  -22.4065  -11.9856   22.4822 H   0  0  0  0  0  0
  -21.1071  -13.1232   22.2669 H   0  0  0  0  0  0
  -24.6273  -15.8412   20.4777 H   0  0  0  0  0  0
  -26.2465  -15.6321   20.0475 H   0  0  0  0  0  0
  -26.7269  -32.5204   23.0914 H   0  0  0  0  0  0
  -24.9938  -33.9558   25.0163 H   0  0  0  0  0  0
  -22.7597  -31.2709   21.3557 H   0  0  0  0  0  0
  -23.3740  -35.9595   23.3246 H   0  0  0  0  0  0
  -24.3553  -36.8993   22.2075 H   0  0  0  0  0  0
  -23.7250  -37.6420   23.6757 H   0  0  0  0  0  0
  -26.1682  -31.4388   20.6140 H   0  0  0  0  0  0
  -26.8798  -30.7396   22.0317 H   0  0  0  0  0  0
  -28.1133  -28.7254   21.2880 H   0  0  0  0  0  0
  -25.9591  -25.7909   18.9800 H   0  0  0  0  0  0
  -24.0172  -27.2745   18.9304 H   0  0  0  0  0  0
  -23.8124  -30.5275   19.3804 H   0  0  0  0  0  0
  -22.8044  -29.1940   19.8404 H   0  0  0  0  0  0
  -25.1294  -36.1807   25.0786 H   0  0  0  0  0  0
  -20.9983  -28.3347   24.1357 H   0  0  0  0  0  0
  -20.5679  -26.2350   23.3656 H   0  0  0  0  0  0
  -21.6661  -26.7432   22.1207 H   0  0  0  0  0  0
  -19.6928  -25.6279   21.1280 H   0  0  0  0  0  0
  -19.6709  -27.3177   20.6739 H   0  0  0  0  0  0
  -17.4216  -26.6712   21.4002 H   0  0  0  0  0  0
  -18.0288  -26.0089   22.9004 H   0  0  0  0  0  0
  -19.7977  -30.7255   24.2274 H   0  0  0  0  0  0
  -17.5052  -31.6288   24.5140 H   0  0  0  0  0  0
  -15.5367  -30.2965   23.7700 H   0  0  0  0  0  0
  -15.8697  -28.0799   22.7114 H   0  0  0  0  0  0
  -24.5764  -30.7302   25.7684 H   0  0  0  0  0  0
  -24.8957  -32.3077   26.4765 H   0  0  0  0  0  0
  -25.7881  -30.8990   27.0205 H   0  0  0  0  0  0
  -26.3011  -29.6611   24.1392 H   0  0  0  0  0  0
  -27.3895  -29.7283   25.5012 H   0  0  0  0  0  0
  -27.8941  -30.4064   23.9755 H   0  0  0  0  0  0
  -27.2595  -33.3738   26.1903 H   0  0  0  0  0  0
  -28.3891  -32.6853   25.0372 H   0  0  0  0  0  0
  -28.0586  -31.8624   26.5536 H   0  0  0  0  0  0
  -28.2520  -38.0103   24.7493 H   0  0  0  0  0  0
  -28.1127  -36.2626   24.6252 H   0  0  0  0  0  0
  -27.2291  -37.1375   25.8844 H   0  0  0  0  0  0
  -20.9513  -29.8738   21.6736 H   0  0  0  0  0  0
  -26.0127  -38.2767   24.1460 H   0  0  0  0  0  0
  -31.1272  -17.2095   18.5014 H   0  0  0  0  0  0
  -30.1598  -21.4031   18.4099 H   0  0  0  0  0  0
  -28.6240  -18.8971   21.5833 H   0  0  0  0  0  0
  -28.9977  -20.9676   22.5911 H   0  0  0  0  0  0
  -27.3317  -21.2971   22.0983 H   0  0  0  0  0  0
  -28.4152  -22.6218   22.5104 H   0  0  0  0  0  0
  -30.9645  -20.1495   16.4289 H   0  0  0  0  0  0
  -31.5559  -18.5144   16.5865 H   0  0  0  0  0  0
  -27.9973  -22.6681   18.8865 H   0  0  0  0  0  0
  -27.0417  -23.0319   20.2485 H   0  0  0  0  0  0
  -28.4135  -24.8416   18.6963 H   0  0  0  0  0  0
  -29.6683  -24.5951   19.8207 H   0  0  0  0  0  0
  -28.8643  -16.0645   21.0635 H   0  0  0  0  0  0
  -32.7075  -20.8584   17.6666 H   0  0  0  0  0  0
  1 25  1  0  0  0
  1 30  2  0  0  0
  1 81  1  0  0  0
  2  3  1  0  0  0
  2 25  1  0  0  0
  2 84  1  0  0  0
  2 85  1  0  0  0
  3  4  1  0  0  0
  3 86  1  0  0  0
  3 87  1  0  0  0
  4  5  1  0  0  0
  4 88  1  0  0  0
  4 89  1  0  0  0
  5  6  1  0  0  0
  5 26  1  0  0  0
  5 90  1  0  0  0
  6 25  1  0  0  0
  6 91  1  0  0  0
  6 92  1  0  0  0
  7  8  2  0  0  0
  7 26  1  0  0  0
  7 29  1  0  0  0
  8  9  1  0  0  0
  8 22  1  0  0  0
  9 10  1  0  0  0
  9 27  2  0  0  0
 10 11  2  0  0  0
 10 15  1  0  0  0
 11 12  1  0  0  0
 11 93  1  0  0  0
 12 13  2  0  0  0
 12 94  1  0  0  0
 13 14  1  0  0  0
 13 31  1  0  0  0
 14 15  2  0  0  0
 14 95  1  0  0  0
 15 96  1  0  0  0
 16 17  2  0  0  0
 16 21  1  0  0  0
 16 31  1  0  0  0
 17 18  1  0  0  0
 17 97  1  0  0  0
 18 19  2  0  0  0
 18 98  1  0  0  0
 19 20  1  0  0  0
 19 24  1  0  0  0
 20 21  2  0  0  0
 20 99  1  0  0  0
 21 23  1  0  0  0
 22 28  1  0  0  0
 22 32  2  0  0  0
 26 27  1  0  0  0
 28100  1  0  0  0
 28101  1  0  0  0
 29102  1  0  0  0
 29103  1  0  0  0
 33 34  1  0  0  0
 33 66  1  0  0  0
 33 70  2  0  0  0
 34 36  1  0  0  0
 34 59  1  0  0  0
 34104  1  0  0  0
 35 44  2  0  0  0
 35 45  1  0  0  0
 35 68  1  0  0  0
 36 56  1  0  0  0
 36105  1  0  0  0
 37 39  1  0  0  0
 37 47  1  0  0  0
 37 66  1  0  0  0
 37106  1  0  0  0
 38 43  2  0  0  0
 38 46  1  0  0  0
 38 47  1  0  0  0
 39 64  1  0  0  0
 39 67  2  0  0  0
 40 52  1  0  0  0
 40 53  2  0  0  0
 40 58  1  0  0  0
 41107  1  0  0  0
 41108  1  0  0  0
 41109  1  0  0  0
 41 48  1  0  0  0
 42 43  1  0  0  0
 42 66  1  0  0  0
 42110  1  0  0  0
 42111  1  0  0  0
 43 44  1  0  0  0
 44112  1  0  0  0
 45 46  2  0  0  0
 45113  1  0  0  0
 46114  1  0  0  0
 47115  1  0  0  0
 47116  1  0  0  0
 48 56  1  0  0  0
 48 65  1  0  0  0
 48117  1  0  0  0
 49 50  1  0  0  0
 49 53  1  0  0  0
 49 64  1  0  0  0
 49118  1  0  0  0
 50 51  1  0  0  0
 50119  1  0  0  0
 50120  1  0  0  0
 51 52  1  0  0  0
 51121  1  0  0  0
 51122  1  0  0  0
 52123  1  0  0  0
 52124  1  0  0  0
 53 54  1  0  0  0
 54 55  2  0  0  0
 54125  1  0  0  0
 55 57  1  0  0  0
 55126  1  0  0  0
 56 69  2  0  0  0
 57 58  2  0  0  0
 57127  1  0  0  0
 58128  1  0  0  0
 59 60  1  0  0  0
 59 61  1  0  0  0
 59 62  1  0  0  0
 60129  1  0  0  0
 60130  1  0  0  0
 60131  1  0  0  0
 61132  1  0  0  0
 61133  1  0  0  0
 61134  1  0  0  0
 62135  1  0  0  0
 62136  1  0  0  0
 62137  1  0  0  0
 63 65  1  0  0  0
 63138  1  0  0  0
 63139  1  0  0  0
 63140  1  0  0  0
 64141  1  0  0  0
 65142  1  0  0  0
 68 80  1  0  0  0
 71 74  2  0  0  0
 71 75  1  0  0  0
 71143  1  0  0  0
 72 74  1  0  0  0
 72 76  2  0  0  0
 72144  1  0  0  0
 73 75  2  0  0  0
 73 76  1  0  0  0
 73145  1  0  0  0
 74 78  1  0  0  0
 75 81  1  0  0  0
 76 82  1  0  0  0
 77 82  1  0  0  0
 77146  1  0  0  0
 77147  1  0  0  0
 77148  1  0  0  0
 78 83  1  0  0  0
 78149  1  0  0  0
 78150  1  0  0  0
 79 80  1  0  0  0
 79 82  1  0  0  0
 79151  1  0  0  0
 79152  1  0  0  0
 80153  1  0  0  0
 80154  1  0  0  0
 81155  1  0  0  0
 83156  1  0  0  0
M  ISO  4   1 100  68 101  80 101  81 100
M  END
> <chiral flag>
0

> <version>
0

> <s_m_source_file>
/data/baiqing/PycharmProjects/Reinvent-master-3.2/result/LINK_invent/BTK/process_docking_weight1_custom_sum_contain_oxygen_bond_distance_aromatic_linkinvent_7_9_3/rearranged_h_0007.sdf

> <i_m_source_file_index>
10

> <r_mmod_Potential_Energy-OPLS-2005>
771.039489746094

> <r_mmod_Stretch_Energy-OPLS-2005>
340.778564453125

> <r_mmod_Bend_Energy-OPLS-2005>
396.366912841797

> <r_mmod_Torsional_Energy-OPLS-2005>
231.878402709961

> <r_mmod_Improper_Torsional_Energy-OPLS-2005>
5.59802579879761

> <r_mmod_Van_der_Waal_Energy-OPLS-2005>
125.130493164062

> <r_mmod_Electrostatic_Energy-OPLS-2005>
-344.025756835938

> <r_mmod_Solvation_Energy-OPLS-2005>
-252.827758789062

> <b_mmod_Minimization_Converged-OPLS-2005>
0

> <r_mmod_RMS_Derivative-OPLS-2005>
3.28283905982971

$$$$
10
                    3D
 Structure written by MMmdl.
154162  0  0  1  0            999 V2000
  -30.6219  -14.6186   20.5177 C   0  0  0  0  0  0
  -30.4405  -12.3807   19.4481 C   0  0  0  0  0  0
  -29.5127  -12.5208   18.2203 C   0  0  0  0  0  0
  -28.0310  -12.3637   18.6235 C   0  0  0  0  0  0
  -27.6565  -13.2164   19.8646 C   0  0  2  0  0  0
  -28.6990  -13.0388   20.9925 C   0  0  0  0  0  0
  -25.2506  -13.8146   20.5552 C   0  0  0  0  0  0
  -24.1805  -13.0412   20.9162 C   0  0  0  0  0  0
  -24.6388  -11.6889   20.8739 C   0  0  0  0  0  0
  -23.9052  -10.4278   21.0413 C   0  0  0  0  0  0
  -24.3608   -9.4202   21.9197 C   0  0  0  0  0  0
  -23.6286   -8.2235   22.0756 C   0  0  0  0  0  0
  -22.4276   -8.0274   21.3545 C   0  0  0  0  0  0
  -21.9904   -9.0247   20.4658 C   0  0  0  0  0  0
  -22.7218  -10.2126   20.3066 C   0  0  0  0  0  0
  -21.6853   -6.0737   22.5285 C   0  0  0  0  0  0
  -21.4016   -6.5636   23.8211 C   0  0  0  0  0  0
  -21.3653   -5.6785   24.9174 C   0  0  0  0  0  0
  -21.6053   -4.3049   24.7222 C   0  0  0  0  0  0
  -21.8814   -3.8142   23.4336 C   0  0  0  0  0  0
  -21.9189   -4.6969   22.3407 C   0  0  0  0  0  0
  -22.7820  -13.5214   21.1840 C   0  0  0  0  0  0
  -22.1662   -4.2161   21.0985 F   0  0  0  0  0  0
  -21.5634   -3.4527   25.7723 F   0  0  0  0  0  0
  -30.0188  -13.3895   20.4410 N   0  0  0  0  0  0
  -26.2984  -12.9346   20.3285 N   0  0  0  0  0  0
  -25.9327  -11.6503   20.5740 N   0  0  0  0  0  0
  -22.0462  -12.8232   22.0406 N   0  0  0  0  0  0
  -25.4121  -15.1834   20.3795 N   0  0  0  0  0  0
  -31.7750  -14.7933   20.1090 O   0  0  0  0  0  0
  -21.6637   -6.8874   21.4241 O   0  0  0  0  0  0
  -22.3507  -14.5522   20.6672 O   0  0  0  0  0  0
  -24.6262  -31.8612   23.2013 C   0  0  0  0  0  0
  -25.9104  -32.4774   23.8368 C   0  0  1  0  0  0
  -27.2228  -27.3215   20.1128 C   0  0  0  0  0  0
  -25.5931  -33.8568   24.2316 N   0  0  0  0  0  0
  -23.4195  -30.4870   21.5446 C   0  0  2  0  0  0
  -24.8643  -28.9439   20.1094 C   0  0  0  0  0  0
  -22.7479  -29.4652   22.4928 C   0  0  0  0  0  0
  -18.0307  -28.1390   22.8499 C   0  0  0  0  0  0
  -24.1481  -36.7278   23.2640 C   0  0  0  0  0  0
  -25.9597  -30.7936   21.3706 C   0  0  0  0  0  0
  -26.0338  -29.4197   20.7155 C   0  0  0  0  0  0
  -27.2159  -28.6214   20.7083 C   0  0  0  0  0  0
  -26.0289  -26.9016   19.4774 C   0  0  0  0  0  0
  -24.8649  -27.6907   19.4812 C   0  0  0  0  0  0
  -23.6320  -29.8231   20.1600 C   0  0  0  0  0  0
  -25.4095  -36.3075   24.0354 C   0  0  1  0  0  0
  -20.5905  -28.3698   23.1288 C   0  0  2  0  0  0
  -20.6788  -26.9422   22.5419 C   0  0  0  0  0  0
  -19.5755  -26.6407   21.5224 C   0  0  0  0  0  0
  -18.1939  -26.7929   22.1639 C   0  0  0  0  0  0
  -19.1554  -28.8856   23.2892 C   0  0  0  0  0  0
  -18.9469  -30.1459   23.8901 C   0  0  0  0  0  0
  -17.6468  -30.6586   24.0573 C   0  0  0  0  0  0
  -25.9042  -34.9440   23.5135 C   0  0  0  0  0  0
  -16.5363  -29.9090   23.6337 C   0  0  0  0  0  0
  -16.7297  -28.6513   23.0356 C   0  0  0  0  0  0
  -26.4468  -31.6564   25.0727 C   0  0  0  0  0  0
  -25.3689  -31.3722   26.1456 C   0  0  0  0  0  0
  -27.0313  -30.3000   24.6148 C   0  0  0  0  0  0
  -27.6068  -32.4262   25.7482 C   0  0  0  0  0  0
  -27.5581  -37.1796   24.8466 C   0  0  0  0  0  0
  -21.4196  -29.3052   22.3665 N   0  0  0  0  0  0
  -26.4268  -37.3776   23.9431 N   0  0  0  0  0  0
  -24.6878  -31.0636   22.0957 N   0  0  0  0  0  0
  -23.4197  -28.8194   23.3013 O   0  0  0  0  0  0
  -28.3394  -26.4694   20.1721 O   0  0  0  0  0  0
  -26.5607  -34.8896   22.4698 O   0  0  0  0  0  0
  -23.5423  -32.1404   23.7337 O   0  0  0  0  0  0
  -30.9054  -19.2455   20.0841 C   0  0  0  0  0  0
  -30.9288  -17.8221   20.1991 C   0  0  0  0  0  0
  -28.7111  -19.3031   21.0585 C   0  0  0  0  0  0
  -28.7451  -17.8863   21.2264 C   0  0  0  0  0  0
  -29.7934  -20.0254   20.5007 C   0  0  0  0  0  0
  -29.8518  -17.0984   20.7799 C   0  0  0  0  0  0
  -28.8871  -22.4254   20.2254 C   0  0  0  0  0  0
  -27.5646  -17.2647   21.9594 C   0  0  0  0  0  0
  -29.2199  -23.9618   20.4185 C   0  0  0  0  0  0
  -28.1093  -25.0163   19.9869 C   0  0  0  0  0  0
  -29.8549  -21.4872   20.4707 N   0  0  0  0  0  0
  -29.8185  -15.6419   20.9441 N   0  0  0  0  0  0
  -27.7636  -22.0997   19.8335 O   0  0  0  0  0  0
  -31.4831  -12.5029   19.1509 H   0  0  0  0  0  0
  -30.3665  -11.3775   19.8720 H   0  0  0  0  0  0
  -29.7774  -11.7837   17.4614 H   0  0  0  0  0  0
  -29.6652  -13.4973   17.7592 H   0  0  0  0  0  0
  -27.8524  -11.3084   18.8316 H   0  0  0  0  0  0
  -27.3846  -12.6223   17.7839 H   0  0  0  0  0  0
  -27.6830  -14.2591   19.5457 H   0  0  0  0  0  0
  -28.7029  -12.0047   21.3422 H   0  0  0  0  0  0
  -28.4442  -13.6405   21.8654 H   0  0  0  0  0  0
  -25.2770   -9.5691   22.4738 H   0  0  0  0  0  0
  -24.0018   -7.4630   22.7456 H   0  0  0  0  0  0
  -21.0846   -8.8763   19.8952 H   0  0  0  0  0  0
  -22.3695  -10.9663   19.6154 H   0  0  0  0  0  0
  -21.2009   -7.6141   23.9720 H   0  0  0  0  0  0
  -21.1490   -6.0513   25.9077 H   0  0  0  0  0  0
  -22.0599   -2.7605   23.2827 H   0  0  0  0  0  0
  -22.4067  -11.9902   22.4826 H   0  0  0  0  0  0
  -21.1081  -13.1276   22.2619 H   0  0  0  0  0  0
  -24.6217  -15.8160   20.4406 H   0  0  0  0  0  0
  -26.2373  -15.6136   19.9819 H   0  0  0  0  0  0
  -26.7183  -32.5447   23.1129 H   0  0  0  0  0  0
  -25.0072  -33.9715   25.0459 H   0  0  0  0  0  0
  -22.7150  -31.3099   21.4037 H   0  0  0  0  0  0
  -23.3744  -35.9609   23.3273 H   0  0  0  0  0  0
  -24.3601  -36.8900   22.2060 H   0  0  0  0  0  0
  -23.7209  -37.6473   23.6649 H   0  0  0  0  0  0
  -26.0901  -31.5533   20.5979 H   0  0  0  0  0  0
  -26.8409  -30.8451   21.9997 H   0  0  0  0  0  0
  -28.1107  -28.9838   21.1950 H   0  0  0  0  0  0
  -25.9617  -25.9462   18.9784 H   0  0  0  0  0  0
  -23.9699  -27.3233   18.9995 H   0  0  0  0  0  0
  -23.7470  -30.5978   19.4010 H   0  0  0  0  0  0
  -22.7509  -29.2524   19.8628 H   0  0  0  0  0  0
  -25.1260  -36.1929   25.0849 H   0  0  0  0  0  0
  -21.0043  -28.3269   24.1393 H   0  0  0  0  0  0
  -20.5717  -26.2298   23.3620 H   0  0  0  0  0  0
  -21.6645  -26.7467   22.1198 H   0  0  0  0  0  0
  -19.6905  -25.6324   21.1256 H   0  0  0  0  0  0
  -19.6672  -27.3224   20.6755 H   0  0  0  0  0  0
  -17.4222  -26.6718   21.4031 H   0  0  0  0  0  0
  -18.0314  -26.0068   22.9030 H   0  0  0  0  0  0
  -19.7936  -30.7283   24.2265 H   0  0  0  0  0  0
  -17.5021  -31.6258   24.5182 H   0  0  0  0  0  0
  -15.5361  -30.2992   23.7627 H   0  0  0  0  0  0
  -15.8712  -28.0830   22.7050 H   0  0  0  0  0  0
  -24.5871  -30.7049   25.7801 H   0  0  0  0  0  0
  -24.8840  -32.2882   26.4839 H   0  0  0  0  0  0
  -25.8002  -30.8948   27.0259 H   0  0  0  0  0  0
  -26.2897  -29.6759   24.1142 H   0  0  0  0  0  0
  -27.4013  -29.7233   25.4631 H   0  0  0  0  0  0
  -27.8756  -30.4318   23.9380 H   0  0  0  0  0  0
  -27.2752  -33.3596   26.2035 H   0  0  0  0  0  0
  -28.3887  -32.6740   25.0296 H   0  0  0  0  0  0
  -28.0702  -31.8358   26.5393 H   0  0  0  0  0  0
  -28.2589  -38.0106   24.7534 H   0  0  0  0  0  0
  -28.1089  -36.2640   24.6252 H   0  0  0  0  0  0
  -27.2315  -37.1396   25.8873 H   0  0  0  0  0  0
  -20.9365  -29.8751   21.6866 H   0  0  0  0  0  0
  -26.0149  -38.2855   24.1416 H   0  0  0  0  0  0
  -31.7735  -19.7373   19.6711 H   0  0  0  0  0  0
  -31.8086  -17.3022   19.8483 H   0  0  0  0  0  0
  -27.8499  -19.8479   21.4197 H   0  0  0  0  0  0
  -27.5933  -17.5689   23.0063 H   0  0  0  0  0  0
  -27.5465  -16.1773   21.9348 H   0  0  0  0  0  0
  -26.6241  -17.6215   21.5380 H   0  0  0  0  0  0
  -30.1452  -24.1770   19.8864 H   0  0  0  0  0  0
  -29.4404  -24.1082   21.4772 H   0  0  0  0  0  0
  -27.2004  -24.7478   20.5282 H   0  0  0  0  0  0
  -27.8976  -24.8482   18.9297 H   0  0  0  0  0  0
  -30.7674  -21.8754   20.6734 H   0  0  0  0  0  0
  -28.9519  -15.2996   21.3252 H   0  0  0  0  0  0
  1 25  1  0  0  0
  1 30  2  0  0  0
  1 82  1  0  0  0
  2  3  1  0  0  0
  2 25  1  0  0  0
  2 84  1  0  0  0
  2 85  1  0  0  0
  3  4  1  0  0  0
  3 86  1  0  0  0
  3 87  1  0  0  0
  4  5  1  0  0  0
  4 88  1  0  0  0
  4 89  1  0  0  0
  5  6  1  0  0  0
  5 26  1  0  0  0
  5 90  1  0  0  0
  6 25  1  0  0  0
  6 91  1  0  0  0
  6 92  1  0  0  0
  7  8  2  0  0  0
  7 26  1  0  0  0
  7 29  1  0  0  0
  8  9  1  0  0  0
  8 22  1  0  0  0
  9 10  1  0  0  0
  9 27  2  0  0  0
 10 11  2  0  0  0
 10 15  1  0  0  0
 11 12  1  0  0  0
 11 93  1  0  0  0
 12 13  2  0  0  0
 12 94  1  0  0  0
 13 14  1  0  0  0
 13 31  1  0  0  0
 14 15  2  0  0  0
 14 95  1  0  0  0
 15 96  1  0  0  0
 16 17  2  0  0  0
 16 21  1  0  0  0
 16 31  1  0  0  0
 17 18  1  0  0  0
 17 97  1  0  0  0
 18 19  2  0  0  0
 18 98  1  0  0  0
 19 20  1  0  0  0
 19 24  1  0  0  0
 20 21  2  0  0  0
 20 99  1  0  0  0
 21 23  1  0  0  0
 22 28  1  0  0  0
 22 32  2  0  0  0
 26 27  1  0  0  0
 28100  1  0  0  0
 28101  1  0  0  0
 29102  1  0  0  0
 29103  1  0  0  0
 33 34  1  0  0  0
 33 66  1  0  0  0
 33 70  2  0  0  0
 34 36  1  0  0  0
 34 59  1  0  0  0
 34104  1  0  0  0
 35 44  2  0  0  0
 35 45  1  0  0  0
 35 68  1  0  0  0
 36 56  1  0  0  0
 36105  1  0  0  0
 37 39  1  0  0  0
 37 47  1  0  0  0
 37 66  1  0  0  0
 37106  1  0  0  0
 38 43  2  0  0  0
 38 46  1  0  0  0
 38 47  1  0  0  0
 39 64  1  0  0  0
 39 67  2  0  0  0
 40 52  1  0  0  0
 40 53  2  0  0  0
 40 58  1  0  0  0
 41107  1  0  0  0
 41108  1  0  0  0
 41109  1  0  0  0
 41 48  1  0  0  0
 42 43  1  0  0  0
 42 66  1  0  0  0
 42110  1  0  0  0
 42111  1  0  0  0
 43 44  1  0  0  0
 44112  1  0  0  0
 45 46  2  0  0  0
 45113  1  0  0  0
 46114  1  0  0  0
 47115  1  0  0  0
 47116  1  0  0  0
 48 56  1  0  0  0
 48 65  1  0  0  0
 48117  1  0  0  0
 49 50  1  0  0  0
 49 53  1  0  0  0
 49 64  1  0  0  0
 49118  1  0  0  0
 50 51  1  0  0  0
 50119  1  0  0  0
 50120  1  0  0  0
 51 52  1  0  0  0
 51121  1  0  0  0
 51122  1  0  0  0
 52123  1  0  0  0
 52124  1  0  0  0
 53 54  1  0  0  0
 54 55  2  0  0  0
 54125  1  0  0  0
 55 57  1  0  0  0
 55126  1  0  0  0
 56 69  2  0  0  0
 57 58  2  0  0  0
 57127  1  0  0  0
 58128  1  0  0  0
 59 60  1  0  0  0
 59 61  1  0  0  0
 59 62  1  0  0  0
 60129  1  0  0  0
 60130  1  0  0  0
 60131  1  0  0  0
 61132  1  0  0  0
 61133  1  0  0  0
 61134  1  0  0  0
 62135  1  0  0  0
 62136  1  0  0  0
 62137  1  0  0  0
 63 65  1  0  0  0
 63138  1  0  0  0
 63139  1  0  0  0
 63140  1  0  0  0
 64141  1  0  0  0
 65142  1  0  0  0
 68 80  1  0  0  0
 71 72  2  0  0  0
 71 75  1  0  0  0
 71143  1  0  0  0
 72 76  1  0  0  0
 72144  1  0  0  0
 73 74  1  0  0  0
 73 75  2  0  0  0
 73145  1  0  0  0
 74 76  2  0  0  0
 74 78  1  0  0  0
 75 81  1  0  0  0
 76 82  1  0  0  0
 77 79  1  0  0  0
 77 81  1  0  0  0
 77 83  2  0  0  0
 78146  1  0  0  0
 78147  1  0  0  0
 78148  1  0  0  0
 79 80  1  0  0  0
 79149  1  0  0  0
 79150  1  0  0  0
 80151  1  0  0  0
 80152  1  0  0  0
 81153  1  0  0  0
 82154  1  0  0  0
M  ISO  4   1 100  68 101  80 101  82 100
M  END
> <chiral flag>
0

> <version>
0

> <s_m_source_file>
/data/baiqing/PycharmProjects/Reinvent-master-3.2/result/LINK_invent/BTK/process_docking_weight1_custom_sum_contain_oxygen_bond_distance_aromatic_linkinvent_7_9_3/rearranged_h_0007.sdf

> <i_m_source_file_index>
11

> <r_mmod_Potential_Energy-OPLS-2005>
-25.5624561309814

> <r_mmod_Stretch_Energy-OPLS-2005>
77.6976699829102

> <r_mmod_Bend_Energy-OPLS-2005>
135.429275512695

> <r_mmod_Torsional_Energy-OPLS-2005>
227.864700317383

> <r_mmod_Improper_Torsional_Energy-OPLS-2005>
4.58875131607056

> <r_mmod_Van_der_Waal_Energy-OPLS-2005>
147.175598144531

> <r_mmod_Electrostatic_Energy-OPLS-2005>
-436.609588623047

> <r_mmod_Solvation_Energy-OPLS-2005>
-226.332656860352

> <b_mmod_Minimization_Converged-OPLS-2005>
0

> <r_mmod_RMS_Derivative-OPLS-2005>
3.21768665313721

$$$$
11
                    3D
 Structure written by MMmdl.
160169  0  0  1  0            999 V2000
  -30.5508  -14.7784   20.4518 C   0  0  0  0  0  0
  -30.4497  -12.4761   19.4643 C   0  0  0  0  0  0
  -29.5144  -12.5179   18.2328 C   0  0  0  0  0  0
  -28.0408  -12.3291   18.6493 C   0  0  0  0  0  0
  -27.6444  -13.2228   19.8533 C   0  0  2  0  0  0
  -28.6923  -13.1359   20.9851 C   0  0  0  0  0  0
  -25.2539  -13.8177   20.5687 C   0  0  0  0  0  0
  -24.1822  -13.0424   20.9211 C   0  0  0  0  0  0
  -24.6400  -11.6906   20.8746 C   0  0  0  0  0  0
  -23.9066  -10.4289   21.0403 C   0  0  0  0  0  0
  -24.3613   -9.4206   21.9179 C   0  0  0  0  0  0
  -23.6287   -8.2241   22.0743 C   0  0  0  0  0  0
  -22.4268   -8.0285   21.3541 C   0  0  0  0  0  0
  -21.9906   -9.0261   20.4647 C   0  0  0  0  0  0
  -22.7237  -10.2140   20.3057 C   0  0  0  0  0  0
  -21.6849   -6.0740   22.5280 C   0  0  0  0  0  0
  -21.4013   -6.5644   23.8216 C   0  0  0  0  0  0
  -21.3651   -5.6791   24.9177 C   0  0  0  0  0  0
  -21.6046   -4.3055   24.7226 C   0  0  0  0  0  0
  -21.8813   -3.8148   23.4346 C   0  0  0  0  0  0
  -21.9182   -4.6965   22.3399 C   0  0  0  0  0  0
  -22.7844  -13.5209   21.1863 C   0  0  0  0  0  0
  -22.1648   -4.2150   21.0976 F   0  0  0  0  0  0
  -21.5641   -3.4542   25.7740 F   0  0  0  0  0  0
  -29.9891  -13.5197   20.4071 N   0  0  0  0  0  0
  -26.2954  -12.9360   20.3286 N   0  0  0  0  0  0
  -25.9326  -11.6517   20.5751 N   0  0  0  0  0  0
  -22.0496  -12.8211   22.0437 N   0  0  0  0  0  0
  -25.4218  -15.1900   20.4078 N   0  0  0  0  0  0
  -31.7389  -14.9379   20.1526 O   0  0  0  0  0  0
  -21.6633   -6.8885   21.4242 O   0  0  0  0  0  0
  -22.3526  -14.5505   20.6702 O   0  0  0  0  0  0
  -24.6353  -31.8506   23.1941 C   0  0  0  0  0  0
  -25.9161  -32.4733   23.8302 C   0  0  1  0  0  0
  -27.2297  -27.2362   20.1324 C   0  0  0  0  0  0
  -25.5941  -33.8539   24.2222 N   0  0  0  0  0  0
  -23.4340  -30.4701   21.5385 C   0  0  2  0  0  0
  -24.8825  -28.9066   20.1133 C   0  0  0  0  0  0
  -22.7523  -29.4577   22.4905 C   0  0  0  0  0  0
  -18.0295  -28.1395   22.8498 C   0  0  0  0  0  0
  -24.1492  -36.7268   23.2644 C   0  0  0  0  0  0
  -25.9815  -30.7575   21.3751 C   0  0  0  0  0  0
  -26.0562  -29.3773   20.7162 C   0  0  0  0  0  0
  -27.2338  -28.5584   20.7030 C   0  0  0  0  0  0
  -26.0280  -26.8296   19.5165 C   0  0  0  0  0  0
  -24.8751  -27.6423   19.5012 C   0  0  0  0  0  0
  -23.6536  -29.7960   20.1579 C   0  0  0  0  0  0
  -25.4128  -36.3056   24.0314 C   0  0  1  0  0  0
  -20.5906  -28.3706   23.1274 C   0  0  2  0  0  0
  -20.6779  -26.9418   22.5421 C   0  0  0  0  0  0
  -19.5746  -26.6385   21.5232 C   0  0  0  0  0  0
  -18.1923  -26.7940   22.1635 C   0  0  0  0  0  0
  -19.1551  -28.8876   23.2872 C   0  0  0  0  0  0
  -18.9463  -30.1481   23.8876 C   0  0  0  0  0  0
  -17.6458  -30.6590   24.0576 C   0  0  0  0  0  0
  -25.9062  -34.9430   23.5072 C   0  0  0  0  0  0
  -16.5354  -29.9082   23.6345 C   0  0  0  0  0  0
  -16.7283  -28.6508   23.0360 C   0  0  0  0  0  0
  -26.4516  -31.6586   25.0721 C   0  0  0  0  0  0
  -25.3728  -31.3750   26.1444 C   0  0  0  0  0  0
  -27.0374  -30.2995   24.6256 C   0  0  0  0  0  0
  -27.6079  -32.4341   25.7467 C   0  0  0  0  0  0
  -27.5575  -37.1794   24.8467 C   0  0  0  0  0  0
  -21.4229  -29.3033   22.3648 N   0  0  0  0  0  0
  -26.4298  -37.3757   23.9397 N   0  0  0  0  0  0
  -24.7031  -31.0445   22.0921 N   0  0  0  0  0  0
  -23.4205  -28.8133   23.3032 O   0  0  0  0  0  0
  -28.3419  -26.3551   20.1577 O   0  0  0  0  0  0
  -26.5639  -34.8918   22.4643 O   0  0  0  0  0  0
  -23.5502  -32.1333   23.7228 O   0  0  0  0  0  0
  -30.3424  -19.6716   20.9931 C   0  0  0  0  0  0
  -30.5371  -18.2440   21.0758 C   0  0  0  0  0  0
  -28.4333  -19.3446   19.6157 C   0  0  0  0  0  0
  -29.2784  -20.2989   20.2664 C   0  0  0  0  0  0
  -29.6675  -17.3087   20.4431 C   0  0  0  0  0  0
  -28.6019  -17.9075   19.7027 C   0  0  0  0  0  0
  -28.1773  -23.9338   19.0466 C   0  0  0  0  0  0
  -29.3487  -24.1818   21.1433 C   0  0  0  0  0  0
  -28.0532  -22.3639   19.3077 C   0  0  0  0  0  0
  -29.2721  -22.6082   21.3895 C   0  0  0  0  0  0
  -28.1888  -24.8503   20.3220 C   0  0  0  0  0  0
  -26.7541  -17.5066   18.2012 C   0  0  0  0  0  0
  -29.0913  -21.7586   20.1846 N   0  0  0  0  0  0
  -29.6657  -15.8308   20.6464 N   0  0  0  0  0  0
  -27.7429  -17.0097   19.0959 O   0  0  0  0  0  0
  -31.4846  -12.6353   19.1567 H   0  0  0  0  0  0
  -30.4219  -11.4945   19.9397 H   0  0  0  0  0  0
  -29.7993  -11.7495   17.5128 H   0  0  0  0  0  0
  -29.6258  -13.4743   17.7186 H   0  0  0  0  0  0
  -27.9034  -11.2790   18.9100 H   0  0  0  0  0  0
  -27.3804  -12.5193   17.8027 H   0  0  0  0  0  0
  -27.6396  -14.2460   19.4778 H   0  0  0  0  0  0
  -28.7401  -12.1241   21.3915 H   0  0  0  0  0  0
  -28.4232  -13.7843   21.8205 H   0  0  0  0  0  0
  -25.2751   -9.5688   22.4758 H   0  0  0  0  0  0
  -24.0004   -7.4627   22.7447 H   0  0  0  0  0  0
  -21.0843   -8.8786   19.8939 H   0  0  0  0  0  0
  -22.3694  -10.9690   19.6178 H   0  0  0  0  0  0
  -21.2009   -7.6153   23.9728 H   0  0  0  0  0  0
  -21.1479   -6.0521   25.9085 H   0  0  0  0  0  0
  -22.0592   -2.7609   23.2854 H   0  0  0  0  0  0
  -22.4109  -11.9875   22.4831 H   0  0  0  0  0  0
  -21.1116  -13.1244   22.2640 H   0  0  0  0  0  0
  -24.6450  -15.8335   20.5092 H   0  0  0  0  0  0
  -26.2565  -15.6329   20.0414 H   0  0  0  0  0  0
  -26.7230  -32.5376   23.1041 H   0  0  0  0  0  0
  -25.0108  -33.9662   25.0383 H   0  0  0  0  0  0
  -22.7329  -31.2933   21.3862 H   0  0  0  0  0  0
  -23.3763  -35.9589   23.3314 H   0  0  0  0  0  0
  -24.3569  -36.8896   22.2054 H   0  0  0  0  0  0
  -23.7233  -37.6460   23.6688 H   0  0  0  0  0  0
  -26.1243  -31.5188   20.6069 H   0  0  0  0  0  0
  -26.8561  -30.8064   22.0126 H   0  0  0  0  0  0
  -28.1382  -28.9192   21.1726 H   0  0  0  0  0  0
  -25.9627  -25.8580   19.0517 H   0  0  0  0  0  0
  -23.9755  -27.2733   19.0276 H   0  0  0  0  0  0
  -23.7763  -30.5668   19.3955 H   0  0  0  0  0  0
  -22.7731  -29.2252   19.8590 H   0  0  0  0  0  0
  -25.1312  -36.1895   25.0804 H   0  0  0  0  0  0
  -20.9995  -28.3295   24.1400 H   0  0  0  0  0  0
  -20.5692  -26.2316   23.3627 H   0  0  0  0  0  0
  -21.6641  -26.7436   22.1211 H   0  0  0  0  0  0
  -19.6899  -25.6295   21.1261 H   0  0  0  0  0  0
  -19.6686  -27.3202   20.6768 H   0  0  0  0  0  0
  -17.4200  -26.6734   21.4021 H   0  0  0  0  0  0
  -18.0283  -26.0074   22.9018 H   0  0  0  0  0  0
  -19.7934  -30.7322   24.2218 H   0  0  0  0  0  0
  -17.5001  -31.6262   24.5188 H   0  0  0  0  0  0
  -15.5349  -30.2972   23.7669 H   0  0  0  0  0  0
  -15.8693  -28.0819   22.7071 H   0  0  0  0  0  0
  -24.5903  -30.7101   25.7762 H   0  0  0  0  0  0
  -24.8925  -32.2928   26.4851 H   0  0  0  0  0  0
  -25.8025  -30.8930   27.0234 H   0  0  0  0  0  0
  -26.2970  -29.6716   24.1291 H   0  0  0  0  0  0
  -27.4040  -29.7294   25.4801 H   0  0  0  0  0  0
  -27.8855  -30.4249   23.9520 H   0  0  0  0  0  0
  -27.2706  -33.3665   26.2003 H   0  0  0  0  0  0
  -28.3884  -32.6860   25.0272 H   0  0  0  0  0  0
  -28.0769  -31.8503   26.5397 H   0  0  0  0  0  0
  -28.2620  -38.0063   24.7484 H   0  0  0  0  0  0
  -28.1040  -36.2593   24.6345 H   0  0  0  0  0  0
  -27.2283  -37.1503   25.8868 H   0  0  0  0  0  0
  -20.9424  -29.8730   21.6825 H   0  0  0  0  0  0
  -26.0174  -38.2827   24.1405 H   0  0  0  0  0  0
  -31.0536  -20.2945   21.5151 H   0  0  0  0  0  0
  -31.3533  -17.8702   21.6784 H   0  0  0  0  0  0
  -27.6025  -19.7351   19.0508 H   0  0  0  0  0  0
  -27.3612  -24.2368   18.3911 H   0  0  0  0  0  0
  -29.0882  -24.1192   18.4745 H   0  0  0  0  0  0
  -30.2937  -24.4035   20.6453 H   0  0  0  0  0  0
  -29.4157  -24.6759   22.1129 H   0  0  0  0  0  0
  -28.0718  -21.8571   18.3420 H   0  0  0  0  0  0
  -27.0729  -22.1515   19.7376 H   0  0  0  0  0  0
  -28.4498  -22.3964   22.0752 H   0  0  0  0  0  0
  -30.1809  -22.3054   21.9111 H   0  0  0  0  0  0
  -27.2628  -24.6768   20.8717 H   0  0  0  0  0  0
  -25.9599  -18.0256   18.7402 H   0  0  0  0  0  0
  -26.3011  -16.6701   17.6689 H   0  0  0  0  0  0
  -27.1735  -18.1740   17.4474 H   0  0  0  0  0  0
  -28.7305  -15.4688   20.7479 H   0  0  0  0  0  0
  1 25  1  0  0  0
  1 30  2  0  0  0
  1 84  1  0  0  0
  2  3  1  0  0  0
  2 25  1  0  0  0
  2 86  1  0  0  0
  2 87  1  0  0  0
  3  4  1  0  0  0
  3 88  1  0  0  0
  3 89  1  0  0  0
  4  5  1  0  0  0
  4 90  1  0  0  0
  4 91  1  0  0  0
  5  6  1  0  0  0
  5 26  1  0  0  0
  5 92  1  0  0  0
  6 25  1  0  0  0
  6 93  1  0  0  0
  6 94  1  0  0  0
  7  8  2  0  0  0
  7 26  1  0  0  0
  7 29  1  0  0  0
  8  9  1  0  0  0
  8 22  1  0  0  0
  9 10  1  0  0  0
  9 27  2  0  0  0
 10 11  2  0  0  0
 10 15  1  0  0  0
 11 12  1  0  0  0
 11 95  1  0  0  0
 12 13  2  0  0  0
 12 96  1  0  0  0
 13 14  1  0  0  0
 13 31  1  0  0  0
 14 15  2  0  0  0
 14 97  1  0  0  0
 15 98  1  0  0  0
 16 17  2  0  0  0
 16 21  1  0  0  0
 16 31  1  0  0  0
 17 18  1  0  0  0
 17 99  1  0  0  0
 18 19  2  0  0  0
 18100  1  0  0  0
 19 20  1  0  0  0
 19 24  1  0  0  0
 20 21  2  0  0  0
 20101  1  0  0  0
 21 23  1  0  0  0
 22 28  1  0  0  0
 22 32  2  0  0  0
 26 27  1  0  0  0
 28102  1  0  0  0
 28103  1  0  0  0
 29104  1  0  0  0
 29105  1  0  0  0
 33 34  1  0  0  0
 33 66  1  0  0  0
 33 70  2  0  0  0
 34 36  1  0  0  0
 34 59  1  0  0  0
 34106  1  0  0  0
 35 44  2  0  0  0
 35 45  1  0  0  0
 35 68  1  0  0  0
 36 56  1  0  0  0
 36107  1  0  0  0
 37 39  1  0  0  0
 37 47  1  0  0  0
 37 66  1  0  0  0
 37108  1  0  0  0
 38 43  2  0  0  0
 38 46  1  0  0  0
 38 47  1  0  0  0
 39 64  1  0  0  0
 39 67  2  0  0  0
 40 52  1  0  0  0
 40 53  2  0  0  0
 40 58  1  0  0  0
 41109  1  0  0  0
 41110  1  0  0  0
 41111  1  0  0  0
 41 48  1  0  0  0
 42 43  1  0  0  0
 42 66  1  0  0  0
 42112  1  0  0  0
 42113  1  0  0  0
 43 44  1  0  0  0
 44114  1  0  0  0
 45 46  2  0  0  0
 45115  1  0  0  0
 46116  1  0  0  0
 47117  1  0  0  0
 47118  1  0  0  0
 48 56  1  0  0  0
 48 65  1  0  0  0
 48119  1  0  0  0
 49 50  1  0  0  0
 49 53  1  0  0  0
 49 64  1  0  0  0
 49120  1  0  0  0
 50 51  1  0  0  0
 50121  1  0  0  0
 50122  1  0  0  0
 51 52  1  0  0  0
 51123  1  0  0  0
 51124  1  0  0  0
 52125  1  0  0  0
 52126  1  0  0  0
 53 54  1  0  0  0
 54 55  2  0  0  0
 54127  1  0  0  0
 55 57  1  0  0  0
 55128  1  0  0  0
 56 69  2  0  0  0
 57 58  2  0  0  0
 57129  1  0  0  0
 58130  1  0  0  0
 59 60  1  0  0  0
 59 61  1  0  0  0
 59 62  1  0  0  0
 60131  1  0  0  0
 60132  1  0  0  0
 60133  1  0  0  0
 61134  1  0  0  0
 61135  1  0  0  0
 61136  1  0  0  0
 62137  1  0  0  0
 62138  1  0  0  0
 62139  1  0  0  0
 63 65  1  0  0  0
 63140  1  0  0  0
 63141  1  0  0  0
 63142  1  0  0  0
 64143  1  0  0  0
 65144  1  0  0  0
 68 81  1  0  0  0
 71 72  2  0  0  0
 71 74  1  0  0  0
 71145  1  0  0  0
 72 75  1  0  0  0
 72146  1  0  0  0
 73 74  2  0  0  0
 73 76  1  0  0  0
 73147  1  0  0  0
 74 83  1  0  0  0
 75 76  2  0  0  0
 75 84  1  0  0  0
 76 85  1  0  0  0
 77 79  1  0  0  0
 77 81  1  0  0  0
 77148  1  0  0  0
 77149  1  0  0  0
 78 80  1  0  0  0
 78 81  1  0  0  0
 78150  1  0  0  0
 78151  1  0  0  0
 79 83  1  0  0  0
 79152  1  0  0  0
 79153  1  0  0  0
 80 83  1  0  0  0
 80154  1  0  0  0
 80155  1  0  0  0
 81156  1  0  0  0
 82 85  1  0  0  0
 82157  1  0  0  0
 82158  1  0  0  0
 82159  1  0  0  0
 84160  1  0  0  0
M  ISO  4   1 100  68 101  81 101  84 100
M  END
> <chiral flag>
0

> <version>
0

> <s_m_source_file>
/data/baiqing/PycharmProjects/Reinvent-master-3.2/result/LINK_invent/BTK/process_docking_weight1_custom_sum_contain_oxygen_bond_distance_aromatic_linkinvent_7_9_3/rearranged_h_0007.sdf

> <i_m_source_file_index>
12

> <r_mmod_Potential_Energy-OPLS-2005>
175.913421630859

> <r_mmod_Stretch_Energy-OPLS-2005>
127.664909362793

> <r_mmod_Bend_Energy-OPLS-2005>
199.07389831543

> <r_mmod_Torsional_Energy-OPLS-2005>
260.581207275391

> <r_mmod_Improper_Torsional_Energy-OPLS-2005>
9.14426612854004

> <r_mmod_Van_der_Waal_Energy-OPLS-2005>
138.876892089844

> <r_mmod_Electrostatic_Energy-OPLS-2005>
-434.171417236328

> <r_mmod_Solvation_Energy-OPLS-2005>
-224.068344116211

> <b_mmod_Minimization_Converged-OPLS-2005>
0

> <r_mmod_RMS_Derivative-OPLS-2005>
1.41814601421356

$$$$
12
                    3D
 Structure written by MMmdl.
154162  0  0  1  0            999 V2000
  -30.6755  -14.4856   20.5768 C   0  0  0  0  0  0
  -30.4342  -12.3171   19.4176 C   0  0  0  0  0  0
  -29.4979  -12.5126   18.2056 C   0  0  0  0  0  0
  -28.0186  -12.3671   18.6170 C   0  0  0  0  0  0
  -27.6648  -13.1978   19.8787 C   0  0  2  0  0  0
  -28.7076  -12.9625   20.9954 C   0  0  0  0  0  0
  -25.2602  -13.8130   20.5673 C   0  0  0  0  0  0
  -24.1842  -13.0423   20.9167 C   0  0  0  0  0  0
  -24.6385  -11.6887   20.8730 C   0  0  0  0  0  0
  -23.9043  -10.4283   21.0398 C   0  0  0  0  0  0
  -24.3599   -9.4204   21.9179 C   0  0  0  0  0  0
  -23.6282   -8.2238   22.0750 C   0  0  0  0  0  0
  -22.4265   -8.0274   21.3540 C   0  0  0  0  0  0
  -21.9891   -9.0244   20.4642 C   0  0  0  0  0  0
  -22.7215  -10.2127   20.3049 C   0  0  0  0  0  0
  -21.6847   -6.0734   22.5281 C   0  0  0  0  0  0
  -21.4010   -6.5638   23.8215 C   0  0  0  0  0  0
  -21.3657   -5.6790   24.9177 C   0  0  0  0  0  0
  -21.6046   -4.3054   24.7227 C   0  0  0  0  0  0
  -21.8819   -3.8146   23.4348 C   0  0  0  0  0  0
  -21.9189   -4.6963   22.3404 C   0  0  0  0  0  0
  -22.7867  -13.5235   21.1838 C   0  0  0  0  0  0
  -22.1658   -4.2149   21.0981 F   0  0  0  0  0  0
  -21.5629   -3.4536   25.7739 F   0  0  0  0  0  0
  -30.0402  -13.2864   20.4518 N   0  0  0  0  0  0
  -26.3039  -12.9284   20.3378 N   0  0  0  0  0  0
  -25.9314  -11.6454   20.5768 N   0  0  0  0  0  0
  -22.0499  -12.8240   22.0398 N   0  0  0  0  0  0
  -25.4309  -15.1846   20.4077 N   0  0  0  0  0  0
  -31.7868  -14.7150   20.0889 O   0  0  0  0  0  0
  -21.6629   -6.8873   21.4241 O   0  0  0  0  0  0
  -22.3561  -14.5548   20.6692 O   0  0  0  0  0  0
  -24.6151  -31.8672   23.2098 C   0  0  0  0  0  0
  -25.9041  -32.4819   23.8398 C   0  0  1  0  0  0
  -27.2388  -27.4345   20.0997 C   0  0  0  0  0  0
  -25.5895  -33.8618   24.2330 N   0  0  0  0  0  0
  -23.4050  -30.4890   21.5488 C   0  0  2  0  0  0
  -24.8559  -28.9546   20.1136 C   0  0  0  0  0  0
  -22.7418  -29.4648   22.4978 C   0  0  0  0  0  0
  -18.0273  -28.1376   22.8491 C   0  0  0  0  0  0
  -24.1485  -36.7316   23.2637 C   0  0  0  0  0  0
  -25.9338  -30.8323   21.3646 C   0  0  0  0  0  0
  -26.0148  -29.4661   20.7128 C   0  0  0  0  0  0
  -27.2123  -28.7122   20.7056 C   0  0  0  0  0  0
  -26.0685  -26.9379   19.4924 C   0  0  0  0  0  0
  -24.8772  -27.6891   19.5001 C   0  0  0  0  0  0
  -23.6163  -29.8202   20.1638 C   0  0  0  0  0  0
  -25.4103  -36.3112   24.0340 C   0  0  1  0  0  0
  -20.5865  -28.3664   23.1313 C   0  0  2  0  0  0
  -20.6760  -26.9399   22.5417 C   0  0  0  0  0  0
  -19.5740  -26.6384   21.5212 C   0  0  0  0  0  0
  -18.1920  -26.7923   22.1622 C   0  0  0  0  0  0
  -19.1523  -28.8836   23.2899 C   0  0  0  0  0  0
  -18.9451  -30.1442   23.8910 C   0  0  0  0  0  0
  -17.6454  -30.6584   24.0563 C   0  0  0  0  0  0
  -25.9033  -34.9476   23.5134 C   0  0  0  0  0  0
  -16.5344  -29.9087   23.6323 C   0  0  0  0  0  0
  -16.7261  -28.6501   23.0347 C   0  0  0  0  0  0
  -26.4474  -31.6595   25.0723 C   0  0  0  0  0  0
  -25.3747  -31.3694   26.1476 C   0  0  0  0  0  0
  -27.0307  -30.3037   24.6097 C   0  0  0  0  0  0
  -27.6053  -32.4313   25.7484 C   0  0  0  0  0  0
  -27.5587  -37.1801   24.8456 C   0  0  0  0  0  0
  -21.4145  -29.3031   22.3720 N   0  0  0  0  0  0
  -26.4285  -37.3801   23.9423 N   0  0  0  0  0  0
  -24.6693  -31.0768   22.0998 N   0  0  0  0  0  0
  -23.4184  -28.8193   23.3028 O   0  0  0  0  0  0
  -28.3688  -26.6472   20.1027 O   0  0  0  0  0  0
  -26.5596  -34.8928   22.4695 O   0  0  0  0  0  0
  -23.5340  -32.1421   23.7489 O   0  0  0  0  0  0
  -28.8313  -17.2028   19.9449 C   0  0  0  0  0  0
  -30.6632  -17.8086   21.4193 C   0  0  0  0  0  0
  -28.6050  -18.5670   19.6701 C   0  0  0  0  0  0
  -30.4286  -19.1810   21.1450 C   0  0  0  0  0  0
  -29.8580  -16.8071   20.8280 C   0  0  0  0  0  0
  -29.3791  -19.5781   20.2763 C   0  0  0  0  0  0
  -28.8315  -23.2801   20.3855 C   0  0  0  0  0  0
  -29.3915  -24.5523   21.0758 C   0  0  0  0  0  0
  -29.6401  -21.9813   20.6659 C   0  0  0  0  0  0
  -28.4049  -25.7441   21.2175 C   0  0  0  0  0  0
  -29.9575  -15.4355   21.2065 N   0  0  0  0  0  0
  -29.0320  -20.8859   19.9737 O   0  0  0  0  0  0
  -31.4757  -12.4372   19.1133 H   0  0  0  0  0  0
  -30.3545  -11.3010   19.8065 H   0  0  0  0  0  0
  -29.7398  -11.7918   17.4231 H   0  0  0  0  0  0
  -29.6606  -13.5003   17.7710 H   0  0  0  0  0  0
  -27.8282  -11.3100   18.8058 H   0  0  0  0  0  0
  -27.3681  -12.6487   17.7880 H   0  0  0  0  0  0
  -27.7112  -14.2455   19.5883 H   0  0  0  0  0  0
  -28.6895  -11.9185   21.3125 H   0  0  0  0  0  0
  -28.4599  -13.5349   21.8901 H   0  0  0  0  0  0
  -25.2743   -9.5684   22.4755 H   0  0  0  0  0  0
  -23.9992   -7.4627   22.7466 H   0  0  0  0  0  0
  -21.0821   -8.8758   19.8950 H   0  0  0  0  0  0
  -22.3669  -10.9663   19.6158 H   0  0  0  0  0  0
  -21.2003   -7.6145   23.9723 H   0  0  0  0  0  0
  -21.1479   -6.0517   25.9082 H   0  0  0  0  0  0
  -22.0603   -2.7608   23.2846 H   0  0  0  0  0  0
  -22.4096  -11.9892   22.4784 H   0  0  0  0  0  0
  -21.1127  -13.1289   22.2612 H   0  0  0  0  0  0
  -24.6616  -15.8368   20.5163 H   0  0  0  0  0  0
  -26.2840  -15.6286   20.0960 H   0  0  0  0  0  0
  -26.7115  -32.5537   23.1169 H   0  0  0  0  0  0
  -25.0047  -33.9783   25.0475 H   0  0  0  0  0  0
  -22.6937  -31.3056   21.4079 H   0  0  0  0  0  0
  -23.3751  -35.9643   23.3285 H   0  0  0  0  0  0
  -24.3588  -36.8946   22.2055 H   0  0  0  0  0  0
  -23.7226  -37.6513   23.6658 H   0  0  0  0  0  0
  -26.0464  -31.5983   20.5961 H   0  0  0  0  0  0
  -26.8208  -30.8871   21.9834 H   0  0  0  0  0  0
  -28.1067  -29.0996   21.1735 H   0  0  0  0  0  0
  -26.0792  -25.9628   19.0255 H   0  0  0  0  0  0
  -23.9870  -27.2886   19.0350 H   0  0  0  0  0  0
  -23.7247  -30.5947   19.4035 H   0  0  0  0  0  0
  -22.7412  -29.2391   19.8674 H   0  0  0  0  0  0
  -25.1275  -36.1974   25.0832 H   0  0  0  0  0  0
  -20.9956  -28.3229   24.1433 H   0  0  0  0  0  0
  -20.5657  -26.2274   23.3606 H   0  0  0  0  0  0
  -21.6632  -26.7437   22.1211 H   0  0  0  0  0  0
  -19.6901  -25.6298   21.1232 H   0  0  0  0  0  0
  -19.6681  -27.3200   20.6748 H   0  0  0  0  0  0
  -17.4190  -26.6672   21.4024 H   0  0  0  0  0  0
  -18.0320  -26.0061   22.9015 H   0  0  0  0  0  0
  -19.7929  -30.7252   24.2285 H   0  0  0  0  0  0
  -17.5012  -31.6266   24.5161 H   0  0  0  0  0  0
  -15.5346  -30.2994   23.7641 H   0  0  0  0  0  0
  -15.8659  -28.0827   22.7054 H   0  0  0  0  0  0
  -24.5910  -30.7058   25.7810 H   0  0  0  0  0  0
  -24.8955  -32.2848   26.4957 H   0  0  0  0  0  0
  -25.8108  -30.8834   27.0214 H   0  0  0  0  0  0
  -26.2851  -29.6793   24.1161 H   0  0  0  0  0  0
  -27.4090  -29.7277   25.4554 H   0  0  0  0  0  0
  -27.8680  -30.4358   23.9241 H   0  0  0  0  0  0
  -27.2673  -33.3596   26.2100 H   0  0  0  0  0  0
  -28.3841  -32.6899   25.0298 H   0  0  0  0  0  0
  -28.0745  -31.8413   26.5367 H   0  0  0  0  0  0
  -28.2574  -38.0131   24.7559 H   0  0  0  0  0  0
  -28.1116  -36.2668   24.6205 H   0  0  0  0  0  0
  -27.2318  -37.1356   25.8860 H   0  0  0  0  0  0
  -20.9305  -29.8761   21.6948 H   0  0  0  0  0  0
  -26.0173  -38.2872   24.1458 H   0  0  0  0  0  0
  -28.1911  -16.4684   19.4806 H   0  0  0  0  0  0
  -31.4452  -17.5332   22.1133 H   0  0  0  0  0  0
  -27.8028  -18.8432   19.0003 H   0  0  0  0  0  0
  -31.0561  -19.9164   21.6268 H   0  0  0  0  0  0
  -28.7664  -23.4536   19.3107 H   0  0  0  0  0  0
  -27.8085  -23.1144   20.7249 H   0  0  0  0  0  0
  -30.3134  -24.8783   20.5932 H   0  0  0  0  0  0
  -29.6789  -24.2650   22.0882 H   0  0  0  0  0  0
  -29.6517  -21.7891   21.7399 H   0  0  0  0  0  0
  -30.6738  -22.0941   20.3368 H   0  0  0  0  0  0
  -28.7055  -26.3349   22.0844 H   0  0  0  0  0  0
  -27.4089  -25.3630   21.4531 H   0  0  0  0  0  0
  -29.1125  -15.0532   21.6036 H   0  0  0  0  0  0
  1 25  1  0  0  0
  1 30  2  0  0  0
  1 81  1  0  0  0
  2  3  1  0  0  0
  2 25  1  0  0  0
  2 83  1  0  0  0
  2 84  1  0  0  0
  3  4  1  0  0  0
  3 85  1  0  0  0
  3 86  1  0  0  0
  4  5  1  0  0  0
  4 87  1  0  0  0
  4 88  1  0  0  0
  5  6  1  0  0  0
  5 26  1  0  0  0
  5 89  1  0  0  0
  6 25  1  0  0  0
  6 90  1  0  0  0
  6 91  1  0  0  0
  7  8  2  0  0  0
  7 26  1  0  0  0
  7 29  1  0  0  0
  8  9  1  0  0  0
  8 22  1  0  0  0
  9 10  1  0  0  0
  9 27  2  0  0  0
 10 11  2  0  0  0
 10 15  1  0  0  0
 11 12  1  0  0  0
 11 92  1  0  0  0
 12 13  2  0  0  0
 12 93  1  0  0  0
 13 14  1  0  0  0
 13 31  1  0  0  0
 14 15  2  0  0  0
 14 94  1  0  0  0
 15 95  1  0  0  0
 16 17  2  0  0  0
 16 21  1  0  0  0
 16 31  1  0  0  0
 17 18  1  0  0  0
 17 96  1  0  0  0
 18 19  2  0  0  0
 18 97  1  0  0  0
 19 20  1  0  0  0
 19 24  1  0  0  0
 20 21  2  0  0  0
 20 98  1  0  0  0
 21 23  1  0  0  0
 22 28  1  0  0  0
 22 32  2  0  0  0
 26 27  1  0  0  0
 28 99  1  0  0  0
 28100  1  0  0  0
 29101  1  0  0  0
 29102  1  0  0  0
 33 34  1  0  0  0
 33 66  1  0  0  0
 33 70  2  0  0  0
 34 36  1  0  0  0
 34 59  1  0  0  0
 34103  1  0  0  0
 35 44  2  0  0  0
 35 45  1  0  0  0
 35 68  1  0  0  0
 36 56  1  0  0  0
 36104  1  0  0  0
 37 39  1  0  0  0
 37 47  1  0  0  0
 37 66  1  0  0  0
 37105  1  0  0  0
 38 43  2  0  0  0
 38 46  1  0  0  0
 38 47  1  0  0  0
 39 64  1  0  0  0
 39 67  2  0  0  0
 40 52  1  0  0  0
 40 53  2  0  0  0
 40 58  1  0  0  0
 41106  1  0  0  0
 41107  1  0  0  0
 41108  1  0  0  0
 41 48  1  0  0  0
 42 43  1  0  0  0
 42 66  1  0  0  0
 42109  1  0  0  0
 42110  1  0  0  0
 43 44  1  0  0  0
 44111  1  0  0  0
 45 46  2  0  0  0
 45112  1  0  0  0
 46113  1  0  0  0
 47114  1  0  0  0
 47115  1  0  0  0
 48 56  1  0  0  0
 48 65  1  0  0  0
 48116  1  0  0  0
 49 50  1  0  0  0
 49 53  1  0  0  0
 49 64  1  0  0  0
 49117  1  0  0  0
 50 51  1  0  0  0
 50118  1  0  0  0
 50119  1  0  0  0
 51 52  1  0  0  0
 51120  1  0  0  0
 51121  1  0  0  0
 52122  1  0  0  0
 52123  1  0  0  0
 53 54  1  0  0  0
 54 55  2  0  0  0
 54124  1  0  0  0
 55 57  1  0  0  0
 55125  1  0  0  0
 56 69  2  0  0  0
 57 58  2  0  0  0
 57126  1  0  0  0
 58127  1  0  0  0
 59 60  1  0  0  0
 59 61  1  0  0  0
 59 62  1  0  0  0
 60128  1  0  0  0
 60129  1  0  0  0
 60130  1  0  0  0
 61131  1  0  0  0
 61132  1  0  0  0
 61133  1  0  0  0
 62134  1  0  0  0
 62135  1  0  0  0
 62136  1  0  0  0
 63 65  1  0  0  0
 63137  1  0  0  0
 63138  1  0  0  0
 63139  1  0  0  0
 64140  1  0  0  0
 65141  1  0  0  0
 68 80  1  0  0  0
 71 73  2  0  0  0
 71 75  1  0  0  0
 71142  1  0  0  0
 72 74  1  0  0  0
 72 75  2  0  0  0
 72143  1  0  0  0
 73 76  1  0  0  0
 73144  1  0  0  0
 74 76  2  0  0  0
 74145  1  0  0  0
 75 81  1  0  0  0
 76 82  1  0  0  0
 77 78  1  0  0  0
 77 79  1  0  0  0
 77146  1  0  0  0
 77147  1  0  0  0
 78 80  1  0  0  0
 78148  1  0  0  0
 78149  1  0  0  0
 79 82  1  0  0  0
 79150  1  0  0  0
 79151  1  0  0  0
 80152  1  0  0  0
 80153  1  0  0  0
 81154  1  0  0  0
M  ISO  4   1 100  68 101  80 101  81 100
M  END
> <chiral flag>
0

> <version>
0

> <s_m_source_file>
/data/baiqing/PycharmProjects/Reinvent-master-3.2/result/LINK_invent/BTK/process_docking_weight1_custom_sum_contain_oxygen_bond_distance_aromatic_linkinvent_7_9_3/rearranged_h_0007.sdf

> <i_m_source_file_index>
13

> <r_mmod_Potential_Energy-OPLS-2005>
-26.1432418823242

> <r_mmod_Stretch_Energy-OPLS-2005>
38.0520858764648

> <r_mmod_Bend_Energy-OPLS-2005>
103.493583679199

> <r_mmod_Torsional_Energy-OPLS-2005>
269.066009521484

> <r_mmod_Improper_Torsional_Energy-OPLS-2005>
5.56116437911987

> <r_mmod_Van_der_Waal_Energy-OPLS-2005>
142.235061645508

> <r_mmod_Electrostatic_Energy-OPLS-2005>
-386.073486328125

> <r_mmod_Solvation_Energy-OPLS-2005>
-212.002868652344

> <b_mmod_Minimization_Converged-OPLS-2005>
0

> <r_mmod_RMS_Derivative-OPLS-2005>
0.609314560890198

$$$$
13
                    3D
 Structure written by MMmdl.
154162  0  0  1  0            999 V2000
  -30.6760  -14.4450   20.5964 C   0  0  0  0  0  0
  -30.4205  -12.3028   19.4144 C   0  0  0  0  0  0
  -29.4958  -12.5464   18.2049 C   0  0  0  0  0  0
  -28.0183  -12.3814   18.6156 C   0  0  0  0  0  0
  -27.6637  -13.2017   19.8852 C   0  0  2  0  0  0
  -28.6984  -12.9411   21.0003 C   0  0  0  0  0  0
  -25.2580  -13.8151   20.5674 C   0  0  0  0  0  0
  -24.1810  -13.0429   20.9116 C   0  0  0  0  0  0
  -24.6358  -11.6900   20.8683 C   0  0  0  0  0  0
  -23.9037  -10.4294   21.0372 C   0  0  0  0  0  0
  -24.3582   -9.4220   21.9158 C   0  0  0  0  0  0
  -23.6250   -8.2259   22.0763 C   0  0  0  0  0  0
  -22.4231   -8.0286   21.3567 C   0  0  0  0  0  0
  -21.9847   -9.0262   20.4678 C   0  0  0  0  0  0
  -22.7189  -10.2130   20.3047 C   0  0  0  0  0  0
  -21.6864   -6.0705   22.5272 C   0  0  0  0  0  0
  -21.4029   -6.5611   23.8201 C   0  0  0  0  0  0
  -21.3646   -5.6767   24.9161 C   0  0  0  0  0  0
  -21.6037   -4.3027   24.7221 C   0  0  0  0  0  0
  -21.8819   -3.8124   23.4346 C   0  0  0  0  0  0
  -21.9196   -4.6939   22.3397 C   0  0  0  0  0  0
  -22.7840  -13.5247   21.1763 C   0  0  0  0  0  0
  -22.1667   -4.2136   21.0970 F   0  0  0  0  0  0
  -21.5615   -3.4520   25.7736 F   0  0  0  0  0  0
  -30.0356  -13.2550   20.4661 N   0  0  0  0  0  0
  -26.3008  -12.9308   20.3377 N   0  0  0  0  0  0
  -25.9286  -11.6474   20.5715 N   0  0  0  0  0  0
  -22.0448  -12.8305   22.0341 N   0  0  0  0  0  0
  -25.4384  -15.1869   20.4173 N   0  0  0  0  0  0
  -31.7763  -14.6776   20.0859 O   0  0  0  0  0  0
  -21.6650   -6.8847   21.4235 O   0  0  0  0  0  0
  -22.3542  -14.5553   20.6584 O   0  0  0  0  0  0
  -24.6126  -31.8700   23.2133 C   0  0  0  0  0  0
  -25.9049  -32.4840   23.8393 C   0  0  1  0  0  0
  -27.2151  -27.4349   20.0916 C   0  0  0  0  0  0
  -25.5929  -33.8639   24.2336 N   0  0  0  0  0  0
  -23.3980  -30.4961   21.5517 C   0  0  2  0  0  0
  -24.8447  -28.9659   20.1075 C   0  0  0  0  0  0
  -22.7387  -29.4685   22.4996 C   0  0  0  0  0  0
  -18.0245  -28.1405   22.8462 C   0  0  0  0  0  0
  -24.1474  -36.7295   23.2609 C   0  0  0  0  0  0
  -25.9267  -30.8351   21.3667 C   0  0  0  0  0  0
  -26.0048  -29.4704   20.7104 C   0  0  0  0  0  0
  -27.1975  -28.7109   20.7025 C   0  0  0  0  0  0
  -26.0463  -26.9477   19.4776 C   0  0  0  0  0  0
  -24.8598  -27.7039   19.4900 C   0  0  0  0  0  0
  -23.6071  -29.8343   20.1620 C   0  0  0  0  0  0
  -25.4097  -36.3132   24.0339 C   0  0  1  0  0  0
  -20.5851  -28.3684   23.1346 C   0  0  2  0  0  0
  -20.6749  -26.9419   22.5469 C   0  0  0  0  0  0
  -19.5760  -26.6404   21.5209 C   0  0  0  0  0  0
  -18.1912  -26.7947   22.1578 C   0  0  0  0  0  0
  -19.1507  -28.8844   23.2902 C   0  0  0  0  0  0
  -18.9447  -30.1434   23.8944 C   0  0  0  0  0  0
  -17.6464  -30.6604   24.0573 C   0  0  0  0  0  0
  -25.9034  -34.9501   23.5131 C   0  0  0  0  0  0
  -16.5347  -29.9111   23.6332 C   0  0  0  0  0  0
  -16.7242  -28.6536   23.0334 C   0  0  0  0  0  0
  -26.4475  -31.6600   25.0710 C   0  0  0  0  0  0
  -25.3758  -31.3801   26.1495 C   0  0  0  0  0  0
  -27.0193  -30.2989   24.6095 C   0  0  0  0  0  0
  -27.6097  -32.4258   25.7445 C   0  0  0  0  0  0
  -27.5609  -37.1778   24.8421 C   0  0  0  0  0  0
  -21.4125  -29.3060   22.3761 N   0  0  0  0  0  0
  -26.4276  -37.3829   23.9440 N   0  0  0  0  0  0
  -24.6634  -31.0799   22.1034 N   0  0  0  0  0  0
  -23.4162  -28.8211   23.3017 O   0  0  0  0  0  0
  -28.3390  -26.6427   20.1077 O   0  0  0  0  0  0
  -26.5576  -34.8945   22.4680 O   0  0  0  0  0  0
  -23.5342  -32.1477   23.7550 O   0  0  0  0  0  0
  -29.2126  -17.6268   21.8849 C   0  0  0  0  0  0
  -29.0585  -19.0077   21.6214 C   0  0  0  0  0  0
  -30.3290  -17.3405   19.7484 C   0  0  0  0  0  0
  -29.8661  -16.7779   20.9618 C   0  0  0  0  0  0
  -29.5488  -19.5743   20.4170 C   0  0  0  0  0  0
  -30.1737  -18.7155   19.4826 C   0  0  0  0  0  0
  -27.8042  -24.2683   20.8512 C   0  0  0  0  0  0
  -28.8766  -23.2393   20.4212 C   0  0  0  0  0  0
  -28.3381  -25.6920   21.1850 C   0  0  0  0  0  0
  -28.4580  -21.7569   20.5955 C   0  0  0  0  0  0
  -29.9804  -15.3868   21.2679 N   0  0  0  0  0  0
  -29.5122  -20.9259   20.1057 O   0  0  0  0  0  0
  -30.7590  -19.3364   17.9768 Cl  0  0  0  0  0  0
  -31.4700  -12.3955   19.1245 H   0  0  0  0  0  0
  -30.3033  -11.2833   19.7800 H   0  0  0  0  0  0
  -29.7425  -11.8660   17.3898 H   0  0  0  0  0  0
  -29.6590  -13.5543   17.8207 H   0  0  0  0  0  0
  -27.8413  -11.3206   18.8012 H   0  0  0  0  0  0
  -27.3626  -12.6683   17.7936 H   0  0  0  0  0  0
  -27.7197  -14.2565   19.6100 H   0  0  0  0  0  0
  -28.6677  -11.8937   21.3041 H   0  0  0  0  0  0
  -28.4491  -13.5022   21.9007 H   0  0  0  0  0  0
  -25.2723   -9.5715   22.4726 H   0  0  0  0  0  0
  -23.9981   -7.4651   22.7466 H   0  0  0  0  0  0
  -21.0782   -8.8789   19.8974 H   0  0  0  0  0  0
  -22.3654  -10.9662   19.6157 H   0  0  0  0  0  0
  -21.2055   -7.6123   23.9688 H   0  0  0  0  0  0
  -21.1445   -6.0503   25.9055 H   0  0  0  0  0  0
  -22.0611   -2.7581   23.2862 H   0  0  0  0  0  0
  -22.3999  -11.9977   22.4817 H   0  0  0  0  0  0
  -21.1075  -13.1408   22.2478 H   0  0  0  0  0  0
  -24.6839  -15.8573   20.5212 H   0  0  0  0  0  0
  -26.3188  -15.6231   20.1760 H   0  0  0  0  0  0
  -26.7119  -32.5546   23.1147 H   0  0  0  0  0  0
  -25.0152  -33.9826   25.0534 H   0  0  0  0  0  0
  -22.6817  -31.3102   21.4191 H   0  0  0  0  0  0
  -23.3818  -35.9541   23.3193 H   0  0  0  0  0  0
  -24.3598  -36.9000   22.2050 H   0  0  0  0  0  0
  -23.7123  -37.6423   23.6679 H   0  0  0  0  0  0
  -26.0394  -31.6065   20.6037 H   0  0  0  0  0  0
  -26.8134  -30.8868   21.9857 H   0  0  0  0  0  0
  -28.0939  -29.0910   21.1741 H   0  0  0  0  0  0
  -26.0497  -25.9818   18.9953 H   0  0  0  0  0  0
  -23.9688  -27.3095   19.0235 H   0  0  0  0  0  0
  -23.7179  -30.6124   19.4041 H   0  0  0  0  0  0
  -22.7275  -29.2589   19.8657 H   0  0  0  0  0  0
  -25.1266  -36.1981   25.0824 H   0  0  0  0  0  0
  -20.9927  -28.3255   24.1473 H   0  0  0  0  0  0
  -20.5598  -26.2289   23.3646 H   0  0  0  0  0  0
  -21.6634  -26.7433   22.1318 H   0  0  0  0  0  0
  -19.6924  -25.6310   21.1253 H   0  0  0  0  0  0
  -19.6731  -27.3196   20.6726 H   0  0  0  0  0  0
  -17.4214  -26.6721   21.3926 H   0  0  0  0  0  0
  -18.0242  -26.0071   22.8939 H   0  0  0  0  0  0
  -19.7938  -30.7192   24.2351 H   0  0  0  0  0  0
  -17.5047  -31.6283   24.5176 H   0  0  0  0  0  0
  -15.5361  -30.3041   23.7638 H   0  0  0  0  0  0
  -15.8623  -28.0853   22.7061 H   0  0  0  0  0  0
  -24.5954  -30.7069   25.7944 H   0  0  0  0  0  0
  -24.8942  -32.2998   26.4827 H   0  0  0  0  0  0
  -25.8150  -30.9114   27.0315 H   0  0  0  0  0  0
  -26.2686  -29.6834   24.1130 H   0  0  0  0  0  0
  -27.3878  -29.7154   25.4548 H   0  0  0  0  0  0
  -27.8601  -30.4214   23.9261 H   0  0  0  0  0  0
  -27.2787  -33.3583   26.2023 H   0  0  0  0  0  0
  -28.3920  -32.6744   25.0259 H   0  0  0  0  0  0
  -28.0744  -31.8360   26.5361 H   0  0  0  0  0  0
  -28.2584  -38.0128   24.7633 H   0  0  0  0  0  0
  -28.1165  -36.2702   24.6009 H   0  0  0  0  0  0
  -27.2377  -37.1185   25.8828 H   0  0  0  0  0  0
  -20.9261  -29.8796   21.7019 H   0  0  0  0  0  0
  -26.0173  -38.2881   24.1586 H   0  0  0  0  0  0
  -28.8313  -17.2336   22.8187 H   0  0  0  0  0  0
  -28.5830  -19.6097   22.3822 H   0  0  0  0  0  0
  -30.8072  -16.7327   18.9962 H   0  0  0  0  0  0
  -27.3255  -23.8875   21.7558 H   0  0  0  0  0  0
  -27.0104  -24.3106   20.1094 H   0  0  0  0  0  0
  -29.7749  -23.3887   21.0182 H   0  0  0  0  0  0
  -29.1609  -23.4321   19.3847 H   0  0  0  0  0  0
  -29.3507  -25.6228   21.5778 H   0  0  0  0  0  0
  -27.7484  -26.0949   22.0125 H   0  0  0  0  0  0
  -27.5528  -21.5432   20.0254 H   0  0  0  0  0  0
  -28.2338  -21.5737   21.6446 H   0  0  0  0  0  0
  -29.2567  -15.0163   21.8645 H   0  0  0  0  0  0
  1 25  1  0  0  0
  1 30  2  0  0  0
  1 81  1  0  0  0
  2  3  1  0  0  0
  2 25  1  0  0  0
  2 84  1  0  0  0
  2 85  1  0  0  0
  3  4  1  0  0  0
  3 86  1  0  0  0
  3 87  1  0  0  0
  4  5  1  0  0  0
  4 88  1  0  0  0
  4 89  1  0  0  0
  5  6  1  0  0  0
  5 26  1  0  0  0
  5 90  1  0  0  0
  6 25  1  0  0  0
  6 91  1  0  0  0
  6 92  1  0  0  0
  7  8  2  0  0  0
  7 26  1  0  0  0
  7 29  1  0  0  0
  8  9  1  0  0  0
  8 22  1  0  0  0
  9 10  1  0  0  0
  9 27  2  0  0  0
 10 11  2  0  0  0
 10 15  1  0  0  0
 11 12  1  0  0  0
 11 93  1  0  0  0
 12 13  2  0  0  0
 12 94  1  0  0  0
 13 14  1  0  0  0
 13 31  1  0  0  0
 14 15  2  0  0  0
 14 95  1  0  0  0
 15 96  1  0  0  0
 16 17  2  0  0  0
 16 21  1  0  0  0
 16 31  1  0  0  0
 17 18  1  0  0  0
 17 97  1  0  0  0
 18 19  2  0  0  0
 18 98  1  0  0  0
 19 20  1  0  0  0
 19 24  1  0  0  0
 20 21  2  0  0  0
 20 99  1  0  0  0
 21 23  1  0  0  0
 22 28  1  0  0  0
 22 32  2  0  0  0
 26 27  1  0  0  0
 28100  1  0  0  0
 28101  1  0  0  0
 29102  1  0  0  0
 29103  1  0  0  0
 33 34  1  0  0  0
 33 66  1  0  0  0
 33 70  2  0  0  0
 34 36  1  0  0  0
 34 59  1  0  0  0
 34104  1  0  0  0
 35 44  2  0  0  0
 35 45  1  0  0  0
 35 68  1  0  0  0
 36 56  1  0  0  0
 36105  1  0  0  0
 37 39  1  0  0  0
 37 47  1  0  0  0
 37 66  1  0  0  0
 37106  1  0  0  0
 38 43  2  0  0  0
 38 46  1  0  0  0
 38 47  1  0  0  0
 39 64  1  0  0  0
 39 67  2  0  0  0
 40 52  1  0  0  0
 40 53  2  0  0  0
 40 58  1  0  0  0
 41107  1  0  0  0
 41108  1  0  0  0
 41109  1  0  0  0
 41 48  1  0  0  0
 42 43  1  0  0  0
 42 66  1  0  0  0
 42110  1  0  0  0
 42111  1  0  0  0
 43 44  1  0  0  0
 44112  1  0  0  0
 45 46  2  0  0  0
 45113  1  0  0  0
 46114  1  0  0  0
 47115  1  0  0  0
 47116  1  0  0  0
 48 56  1  0  0  0
 48 65  1  0  0  0
 48117  1  0  0  0
 49 50  1  0  0  0
 49 53  1  0  0  0
 49 64  1  0  0  0
 49118  1  0  0  0
 50 51  1  0  0  0
 50119  1  0  0  0
 50120  1  0  0  0
 51 52  1  0  0  0
 51121  1  0  0  0
 51122  1  0  0  0
 52123  1  0  0  0
 52124  1  0  0  0
 53 54  1  0  0  0
 54 55  2  0  0  0
 54125  1  0  0  0
 55 57  1  0  0  0
 55126  1  0  0  0
 56 69  2  0  0  0
 57 58  2  0  0  0
 57127  1  0  0  0
 58128  1  0  0  0
 59 60  1  0  0  0
 59 61  1  0  0  0
 59 62  1  0  0  0
 60129  1  0  0  0
 60130  1  0  0  0
 60131  1  0  0  0
 61132  1  0  0  0
 61133  1  0  0  0
 61134  1  0  0  0
 62135  1  0  0  0
 62136  1  0  0  0
 62137  1  0  0  0
 63 65  1  0  0  0
 63138  1  0  0  0
 63139  1  0  0  0
 63140  1  0  0  0
 64141  1  0  0  0
 65142  1  0  0  0
 68 79  1  0  0  0
 71 72  2  0  0  0
 71 74  1  0  0  0
 71143  1  0  0  0
 72 75  1  0  0  0
 72144  1  0  0  0
 73 74  2  0  0  0
 73 76  1  0  0  0
 73145  1  0  0  0
 74 81  1  0  0  0
 75 76  2  0  0  0
 75 82  1  0  0  0
 76 83  1  0  0  0
 77 78  1  0  0  0
 77 79  1  0  0  0
 77146  1  0  0  0
 77147  1  0  0  0
 78 80  1  0  0  0
 78148  1  0  0  0
 78149  1  0  0  0
 79150  1  0  0  0
 79151  1  0  0  0
 80 82  1  0  0  0
 80152  1  0  0  0
 80153  1  0  0  0
 81154  1  0  0  0
M  ISO  4   1 100  68 101  79 101  81 100
M  END
> <chiral flag>
0

> <version>
0

> <s_m_source_file>
/data/baiqing/PycharmProjects/Reinvent-master-3.2/result/LINK_invent/BTK/process_docking_weight1_custom_sum_contain_oxygen_bond_distance_aromatic_linkinvent_7_9_3/rearranged_h_0007.sdf

> <i_m_source_file_index>
14

> <r_mmod_Potential_Energy-OPLS-2005>
1.58047413825989

> <r_mmod_Stretch_Energy-OPLS-2005>
37.0162353515625

> <r_mmod_Bend_Energy-OPLS-2005>
103.89453125

> <r_mmod_Torsional_Energy-OPLS-2005>
257.165985107422

> <r_mmod_Improper_Torsional_Energy-OPLS-2005>
3.55432033538818

> <r_mmod_Van_der_Waal_Energy-OPLS-2005>
153.400390625

> <r_mmod_Electrostatic_Energy-OPLS-2005>
-354.548492431641

> <r_mmod_Solvation_Energy-OPLS-2005>
-211.634948730469

> <b_mmod_Minimization_Converged-OPLS-2005>
0

> <r_mmod_RMS_Derivative-OPLS-2005>
4.97159910202026

$$$$
14
                    3D
 Structure written by MMmdl.
151159  0  0  1  0            999 V2000
  -30.5668  -14.9484   20.4296 C   0  0  0  0  0  0
  -30.4526  -12.5880   19.4970 C   0  0  0  0  0  0
  -29.5243  -12.5417   18.2594 C   0  0  0  0  0  0
  -28.0570  -12.3254   18.6776 C   0  0  0  0  0  0
  -27.6308  -13.2481   19.8492 C   0  0  2  0  0  0
  -28.6876  -13.2696   20.9812 C   0  0  0  0  0  0
  -25.2149  -13.7842   20.5529 C   0  0  0  0  0  0
  -24.1617  -13.0115   20.9278 C   0  0  0  0  0  0
  -24.6399  -11.6704   20.8841 C   0  0  0  0  0  0
  -23.9101  -10.4122   21.0444 C   0  0  0  0  0  0
  -24.3630   -9.4057   21.9229 C   0  0  0  0  0  0
  -23.6267   -8.2127   22.0778 C   0  0  0  0  0  0
  -22.4252   -8.0213   21.3550 C   0  0  0  0  0  0
  -21.9910   -9.0190   20.4649 C   0  0  0  0  0  0
  -22.7280  -10.2032   20.3067 C   0  0  0  0  0  0
  -21.6820   -6.0705   22.5285 C   0  0  0  0  0  0
  -21.3991   -6.5619   23.8216 C   0  0  0  0  0  0
  -21.3652   -5.6779   24.9182 C   0  0  0  0  0  0
  -21.6045   -4.3042   24.7235 C   0  0  0  0  0  0
  -21.8820   -3.8129   23.4357 C   0  0  0  0  0  0
  -21.9182   -4.6940   22.3410 C   0  0  0  0  0  0
  -22.7647  -13.4942   21.1913 C   0  0  0  0  0  0
  -22.1657   -4.2130   21.0987 F   0  0  0  0  0  0
  -21.5634   -3.4530   25.7750 F   0  0  0  0  0  0
  -29.9764  -13.6810   20.3914 N   0  0  0  0  0  0
  -26.2852  -12.9329   20.3318 N   0  0  0  0  0  0
  -25.9376  -11.6447   20.5890 N   0  0  0  0  0  0
  -22.0319  -12.8002   22.0531 N   0  0  0  0  0  0
  -25.2998  -15.1399   20.3453 N   0  0  0  0  0  0
  -31.7559  -15.0431   20.1123 O   0  0  0  0  0  0
  -21.6590   -6.8838   21.4246 O   0  0  0  0  0  0
  -22.3336  -14.5261   20.6758 O   0  0  0  0  0  0
  -24.6401  -31.8463   23.1896 C   0  0  0  0  0  0
  -25.9182  -32.4710   23.8282 C   0  0  1  0  0  0
  -27.2481  -27.1804   20.1443 C   0  0  0  0  0  0
  -25.5940  -33.8514   24.2201 N   0  0  0  0  0  0
  -23.4440  -30.4632   21.5340 C   0  0  2  0  0  0
  -24.8996  -28.8931   20.1131 C   0  0  0  0  0  0
  -22.7556  -29.4552   22.4874 C   0  0  0  0  0  0
  -18.0302  -28.1394   22.8477 C   0  0  0  0  0  0
  -24.1491  -36.7265   23.2643 C   0  0  0  0  0  0
  -25.9964  -30.7338   21.3827 C   0  0  0  0  0  0
  -26.0739  -29.3476   20.7258 C   0  0  0  0  0  0
  -27.2464  -28.5080   20.7238 C   0  0  0  0  0  0
  -26.0416  -26.8134   19.5025 C   0  0  0  0  0  0
  -24.8939  -27.6367   19.4879 C   0  0  0  0  0  0
  -23.6708  -29.7880   20.1549 C   0  0  0  0  0  0
  -25.4122  -36.3042   24.0317 C   0  0  1  0  0  0
  -20.5912  -28.3716   23.1245 C   0  0  2  0  0  0
  -20.6787  -26.9423   22.5406 C   0  0  0  0  0  0
  -19.5762  -26.6382   21.5212 C   0  0  0  0  0  0
  -18.1943  -26.7933   22.1623 C   0  0  0  0  0  0
  -19.1558  -28.8874   23.2853 C   0  0  0  0  0  0
  -18.9475  -30.1470   23.8877 C   0  0  0  0  0  0
  -17.6472  -30.6591   24.0560 C   0  0  0  0  0  0
  -25.9068  -34.9415   23.5068 C   0  0  0  0  0  0
  -16.5364  -29.9084   23.6335 C   0  0  0  0  0  0
  -16.7287  -28.6504   23.0354 C   0  0  0  0  0  0
  -26.4518  -31.6569   25.0712 C   0  0  0  0  0  0
  -25.3712  -31.3745   26.1412 C   0  0  0  0  0  0
  -27.0385  -30.2972   24.6268 C   0  0  0  0  0  0
  -27.6050  -32.4332   25.7498 C   0  0  0  0  0  0
  -27.5576  -37.1789   24.8465 C   0  0  0  0  0  0
  -21.4251  -29.3044   22.3621 N   0  0  0  0  0  0
  -26.4288  -37.3751   23.9406 N   0  0  0  0  0  0
  -24.7127  -31.0346   22.0913 N   0  0  0  0  0  0
  -23.4207  -28.8105   23.3023 O   0  0  0  0  0  0
  -28.3380  -26.2425   20.2070 O   0  0  0  0  0  0
  -26.5655  -34.8908   22.4647 O   0  0  0  0  0  0
  -23.5526  -32.1321   23.7134 O   0  0  0  0  0  0
  -30.7151  -18.6328   20.4241 C   0  0  0  0  0  0
  -30.4588  -20.0840   20.3451 C   0  0  0  0  0  0
  -28.1575  -19.6689   20.4726 C   0  0  0  0  0  0
  -28.3937  -18.2540   20.5633 C   0  0  0  0  0  0
  -29.6854  -17.6192   20.5365 C   0  0  0  0  0  0
  -29.1408  -20.6779   20.3591 C   0  0  0  0  0  0
  -28.1100  -24.7226   20.0536 C   0  0  0  0  0  0
  -29.1676  -23.4436   20.3089 C   0  0  0  0  0  0
  -27.1676  -17.3841   20.6187 C   0  0  0  0  0  0
  -29.7455  -16.0763   20.6688 N   0  0  0  0  0  0
  -28.6057  -22.0314   20.2331 O   0  0  0  0  0  0
  -26.0185  -18.0545   20.7283 F   0  0  0  0  0  0
  -27.1661  -16.7161   19.4644 F   0  0  0  0  0  0
  -27.2669  -16.5436   21.6507 F   0  0  0  0  0  0
  -31.4848  -12.7456   19.1805 H   0  0  0  0  0  0
  -30.4461  -11.6321   20.0232 H   0  0  0  0  0  0
  -29.8394  -11.7500   17.5784 H   0  0  0  0  0  0
  -29.6113  -13.4764   17.7032 H   0  0  0  0  0  0
  -27.9523  -11.2820   18.9771 H   0  0  0  0  0  0
  -27.3936  -12.4650   17.8233 H   0  0  0  0  0  0
  -27.5870  -14.2519   19.4302 H   0  0  0  0  0  0
  -28.7721  -12.2893   21.4524 H   0  0  0  0  0  0
  -28.3877  -13.9601   21.7708 H   0  0  0  0  0  0
  -25.2765   -9.5519   22.4822 H   0  0  0  0  0  0
  -23.9942   -7.4506   22.7500 H   0  0  0  0  0  0
  -21.0840   -8.8735   19.8950 H   0  0  0  0  0  0
  -22.3776  -10.9591   19.6179 H   0  0  0  0  0  0
  -21.1978   -7.6127   23.9714 H   0  0  0  0  0  0
  -21.1477   -6.0511   25.9085 H   0  0  0  0  0  0
  -22.0610   -2.7592   23.2864 H   0  0  0  0  0  0
  -22.3943  -11.9681   22.4942 H   0  0  0  0  0  0
  -21.0954  -13.1061   22.2762 H   0  0  0  0  0  0
  -24.4933  -15.7446   20.4414 H   0  0  0  0  0  0
  -26.0950  -15.6055   19.9232 H   0  0  0  0  0  0
  -26.7251  -32.5337   23.1020 H   0  0  0  0  0  0
  -25.0064  -33.9634   25.0333 H   0  0  0  0  0  0
  -22.7448  -31.2873   21.3779 H   0  0  0  0  0  0
  -23.3754  -35.9596   23.3296 H   0  0  0  0  0  0
  -24.3576  -36.8905   22.2059 H   0  0  0  0  0  0
  -23.7246  -37.6459   23.6684 H   0  0  0  0  0  0
  -26.1454  -31.4898   20.6106 H   0  0  0  0  0  0
  -26.8685  -30.7862   22.0228 H   0  0  0  0  0  0
  -28.1422  -28.8560   21.2188 H   0  0  0  0  0  0
  -25.9540  -25.8532   19.0176 H   0  0  0  0  0  0
  -23.9969  -27.2811   18.9996 H   0  0  0  0  0  0
  -23.8020  -30.5603   19.3962 H   0  0  0  0  0  0
  -22.7885  -29.2237   19.8475 H   0  0  0  0  0  0
  -25.1310  -36.1873   25.0810 H   0  0  0  0  0  0
  -21.0001  -28.3303   24.1367 H   0  0  0  0  0  0
  -20.5682  -26.2329   23.3622 H   0  0  0  0  0  0
  -21.6654  -26.7432   22.1205 H   0  0  0  0  0  0
  -19.6924  -25.6287   21.1255 H   0  0  0  0  0  0
  -19.6700  -27.3181   20.6733 H   0  0  0  0  0  0
  -17.4212  -26.6675   21.4027 H   0  0  0  0  0  0
  -18.0344  -26.0081   22.9025 H   0  0  0  0  0  0
  -19.7951  -30.7291   24.2238 H   0  0  0  0  0  0
  -17.5026  -31.6270   24.5165 H   0  0  0  0  0  0
  -15.5363  -30.2980   23.7671 H   0  0  0  0  0  0
  -15.8687  -28.0816   22.7080 H   0  0  0  0  0  0
  -24.5893  -30.7092   25.7731 H   0  0  0  0  0  0
  -24.8899  -32.2924   26.4798 H   0  0  0  0  0  0
  -25.8002  -30.8942   27.0215 H   0  0  0  0  0  0
  -26.2997  -29.6696   24.1272 H   0  0  0  0  0  0
  -27.4011  -29.7267   25.4829 H   0  0  0  0  0  0
  -27.8896  -30.4222   23.9571 H   0  0  0  0  0  0
  -27.2641  -33.3646   26.2031 H   0  0  0  0  0  0
  -28.3884  -32.6871   25.0345 H   0  0  0  0  0  0
  -28.0691  -31.8488   26.5452 H   0  0  0  0  0  0
  -28.2588  -38.0090   24.7507 H   0  0  0  0  0  0
  -28.1076  -36.2619   24.6297 H   0  0  0  0  0  0
  -27.2292  -37.1443   25.8867 H   0  0  0  0  0  0
  -20.9462  -29.8751   21.6794 H   0  0  0  0  0  0
  -26.0157  -38.2820   24.1405 H   0  0  0  0  0  0
  -31.7443  -18.3039   20.4015 H   0  0  0  0  0  0
  -31.3105  -20.7434   20.2537 H   0  0  0  0  0  0
  -27.1358  -20.0164   20.4750 H   0  0  0  0  0  0
  -27.2479  -24.5071   20.6858 H   0  0  0  0  0  0
  -27.7537  -24.5843   19.0331 H   0  0  0  0  0  0
  -29.6124  -23.5576   21.2976 H   0  0  0  0  0  0
  -29.9916  -23.5173   19.5991 H   0  0  0  0  0  0
  -28.8336  -15.7212   20.9216 H   0  0  0  0  0  0
  1 25  1  0  0  0
  1 30  2  0  0  0
  1 80  1  0  0  0
  2  3  1  0  0  0
  2 25  1  0  0  0
  2 85  1  0  0  0
  2 86  1  0  0  0
  3  4  1  0  0  0
  3 87  1  0  0  0
  3 88  1  0  0  0
  4  5  1  0  0  0
  4 89  1  0  0  0
  4 90  1  0  0  0
  5  6  1  0  0  0
  5 26  1  0  0  0
  5 91  1  0  0  0
  6 25  1  0  0  0
  6 92  1  0  0  0
  6 93  1  0  0  0
  7  8  2  0  0  0
  7 26  1  0  0  0
  7 29  1  0  0  0
  8  9  1  0  0  0
  8 22  1  0  0  0
  9 10  1  0  0  0
  9 27  2  0  0  0
 10 11  2  0  0  0
 10 15  1  0  0  0
 11 12  1  0  0  0
 11 94  1  0  0  0
 12 13  2  0  0  0
 12 95  1  0  0  0
 13 14  1  0  0  0
 13 31  1  0  0  0
 14 15  2  0  0  0
 14 96  1  0  0  0
 15 97  1  0  0  0
 16 17  2  0  0  0
 16 21  1  0  0  0
 16 31  1  0  0  0
 17 18  1  0  0  0
 17 98  1  0  0  0
 18 19  2  0  0  0
 18 99  1  0  0  0
 19 20  1  0  0  0
 19 24  1  0  0  0
 20 21  2  0  0  0
 20100  1  0  0  0
 21 23  1  0  0  0
 22 28  1  0  0  0
 22 32  2  0  0  0
 26 27  1  0  0  0
 28101  1  0  0  0
 28102  1  0  0  0
 29103  1  0  0  0
 29104  1  0  0  0
 33 34  1  0  0  0
 33 66  1  0  0  0
 33 70  2  0  0  0
 34 36  1  0  0  0
 34 59  1  0  0  0
 34105  1  0  0  0
 35 44  2  0  0  0
 35 45  1  0  0  0
 35 68  1  0  0  0
 36 56  1  0  0  0
 36106  1  0  0  0
 37 39  1  0  0  0
 37 47  1  0  0  0
 37 66  1  0  0  0
 37107  1  0  0  0
 38 43  2  0  0  0
 38 46  1  0  0  0
 38 47  1  0  0  0
 39 64  1  0  0  0
 39 67  2  0  0  0
 40 52  1  0  0  0
 40 53  2  0  0  0
 40 58  1  0  0  0
 41108  1  0  0  0
 41109  1  0  0  0
 41110  1  0  0  0
 41 48  1  0  0  0
 42 43  1  0  0  0
 42 66  1  0  0  0
 42111  1  0  0  0
 42112  1  0  0  0
 43 44  1  0  0  0
 44113  1  0  0  0
 45 46  2  0  0  0
 45114  1  0  0  0
 46115  1  0  0  0
 47116  1  0  0  0
 47117  1  0  0  0
 48 56  1  0  0  0
 48 65  1  0  0  0
 48118  1  0  0  0
 49 50  1  0  0  0
 49 53  1  0  0  0
 49 64  1  0  0  0
 49119  1  0  0  0
 50 51  1  0  0  0
 50120  1  0  0  0
 50121  1  0  0  0
 51 52  1  0  0  0
 51122  1  0  0  0
 51123  1  0  0  0
 52124  1  0  0  0
 52125  1  0  0  0
 53 54  1  0  0  0
 54 55  2  0  0  0
 54126  1  0  0  0
 55 57  1  0  0  0
 55127  1  0  0  0
 56 69  2  0  0  0
 57 58  2  0  0  0
 57128  1  0  0  0
 58129  1  0  0  0
 59 60  1  0  0  0
 59 61  1  0  0  0
 59 62  1  0  0  0
 60130  1  0  0  0
 60131  1  0  0  0
 60132  1  0  0  0
 61133  1  0  0  0
 61134  1  0  0  0
 61135  1  0  0  0
 62136  1  0  0  0
 62137  1  0  0  0
 62138  1  0  0  0
 63 65  1  0  0  0
 63139  1  0  0  0
 63140  1  0  0  0
 63141  1  0  0  0
 64142  1  0  0  0
 65143  1  0  0  0
 68 77  1  0  0  0
 71 72  2  0  0  0
 71 75  1  0  0  0
 71144  1  0  0  0
 72 76  1  0  0  0
 72145  1  0  0  0
 73 74  1  0  0  0
 73 76  2  0  0  0
 73146  1  0  0  0
 74 75  2  0  0  0
 74 79  1  0  0  0
 75 80  1  0  0  0
 76 81  1  0  0  0
 77 78  1  0  0  0
 77147  1  0  0  0
 77148  1  0  0  0
 78 81  1  0  0  0
 78149  1  0  0  0
 78150  1  0  0  0
 79 82  1  0  0  0
 79 83  1  0  0  0
 79 84  1  0  0  0
 80151  1  0  0  0
M  ISO  4   1 100  68 101  77 101  80 100
M  END
> <chiral flag>
0

> <version>
0

> <s_m_source_file>
/data/baiqing/PycharmProjects/Reinvent-master-3.2/result/LINK_invent/BTK/process_docking_weight1_custom_sum_contain_oxygen_bond_distance_aromatic_linkinvent_7_9_3/rearranged_h_0007.sdf

> <i_m_source_file_index>
15

> <r_mmod_Potential_Energy-OPLS-2005>
538.246337890625

> <r_mmod_Stretch_Energy-OPLS-2005>
216.128479003906

> <r_mmod_Bend_Energy-OPLS-2005>
325.98876953125

> <r_mmod_Torsional_Energy-OPLS-2005>
211.893157958984

> <r_mmod_Improper_Torsional_Energy-OPLS-2005>
4.37540292739868

> <r_mmod_Van_der_Waal_Energy-OPLS-2005>
155.447189331055

> <r_mmod_Electrostatic_Energy-OPLS-2005>
-352.946258544922

> <r_mmod_Solvation_Energy-OPLS-2005>
-196.763809204102

> <b_mmod_Minimization_Converged-OPLS-2005>
0

> <r_mmod_RMS_Derivative-OPLS-2005>
0.219836577773094

$$$$
15
                    3D
 Structure written by MMmdl.
151159  0  0  1  0            999 V2000
  -30.4414  -15.3629   20.3723 C   0  0  0  0  0  0
  -30.4150  -12.8907   19.5312 C   0  0  0  0  0  0
  -29.5265  -12.5820   18.2990 C   0  0  0  0  0  0
  -28.0840  -12.2885   18.7328 C   0  0  0  0  0  0
  -27.5973  -13.2842   19.8151 C   0  0  2  0  0  0
  -28.6229  -13.5363   20.9398 C   0  0  0  0  0  0
  -25.2338  -13.8280   20.5800 C   0  0  0  0  0  0
  -24.1706  -13.0448   20.9259 C   0  0  0  0  0  0
  -24.6372  -11.6934   20.8759 C   0  0  0  0  0  0
  -23.9077  -10.4300   21.0402 C   0  0  0  0  0  0
  -24.3639   -9.4208   21.9167 C   0  0  0  0  0  0
  -23.6332   -8.2249   22.0721 C   0  0  0  0  0  0
  -22.4290   -8.0290   21.3537 C   0  0  0  0  0  0
  -21.9904   -9.0265   20.4659 C   0  0  0  0  0  0
  -22.7232  -10.2151   20.3076 C   0  0  0  0  0  0
  -21.6862   -6.0756   22.5279 C   0  0  0  0  0  0
  -21.4034   -6.5659   23.8213 C   0  0  0  0  0  0
  -21.3657   -5.6804   24.9164 C   0  0  0  0  0  0
  -21.6038   -4.3061   24.7208 C   0  0  0  0  0  0
  -21.8821   -3.8159   23.4324 C   0  0  0  0  0  0
  -21.9193   -4.6988   22.3388 C   0  0  0  0  0  0
  -22.7713  -13.5176   21.1902 C   0  0  0  0  0  0
  -22.1659   -4.2174   21.0966 F   0  0  0  0  0  0
  -21.5610   -3.4530   25.7714 F   0  0  0  0  0  0
  -29.8303  -14.0695   20.2866 N   0  0  0  0  0  0
  -26.2753  -12.9549   20.3241 N   0  0  0  0  0  0
  -25.9307  -11.6641   20.5731 N   0  0  0  0  0  0
  -22.0395  -12.8116   22.0433 N   0  0  0  0  0  0
  -25.4004  -15.2011   20.4325 N   0  0  0  0  0  0
  -31.6705  -15.2646   20.2390 O   0  0  0  0  0  0
  -21.6653   -6.8885   21.4239 O   0  0  0  0  0  0
  -22.3398  -14.5497   20.6765 O   0  0  0  0  0  0
  -24.6700  -31.8193   23.1642 C   0  0  0  0  0  0
  -25.9364  -32.4578   23.8126 C   0  0  1  0  0  0
  -27.2104  -26.8628   20.2006 C   0  0  0  0  0  0
  -25.6012  -33.8387   24.2050 N   0  0  0  0  0  0
  -23.4862  -30.4275   21.5173 C   0  0  2  0  0  0
  -24.9351  -28.7977   20.1128 C   0  0  0  0  0  0
  -22.7690  -29.4441   22.4800 C   0  0  0  0  0  0
  -18.0332  -28.1429   22.8484 C   0  0  0  0  0  0
  -24.1475  -36.7165   23.2648 C   0  0  0  0  0  0
  -26.0554  -30.6037   21.4017 C   0  0  0  0  0  0
  -26.1198  -29.1839   20.7538 C   0  0  0  0  0  0
  -27.2484  -28.2390   20.7721 C   0  0  0  0  0  0
  -26.0032  -26.6465   19.4974 C   0  0  0  0  0  0
  -24.9063  -27.5502   19.4659 C   0  0  0  0  0  0
  -23.7266  -29.7374   20.1445 C   0  0  0  0  0  0
  -25.4129  -36.2956   24.0303 C   0  0  1  0  0  0
  -20.5953  -28.3773   23.1197 C   0  0  2  0  0  0
  -20.6816  -26.9460   22.5411 C   0  0  0  0  0  0
  -19.5779  -26.6394   21.5234 C   0  0  0  0  0  0
  -18.1965  -26.7970   22.1635 C   0  0  0  0  0  0
  -19.1594  -28.8929   23.2820 C   0  0  0  0  0  0
  -18.9505  -30.1528   23.8842 C   0  0  0  0  0  0
  -17.6496  -30.6619   24.0575 C   0  0  0  0  0  0
  -25.9103  -34.9346   23.4994 C   0  0  0  0  0  0
  -16.5385  -29.9114   23.6356 C   0  0  0  0  0  0
  -16.7314  -28.6537   23.0365 C   0  0  0  0  0  0
  -26.4587  -31.6522   25.0670 C   0  0  0  0  0  0
  -25.3692  -31.3806   26.1308 C   0  0  0  0  0  0
  -27.0486  -30.2877   24.6433 C   0  0  0  0  0  0
  -27.6073  -32.4316   25.7499 C   0  0  0  0  0  0
  -27.5553  -37.1752   24.8484 C   0  0  0  0  0  0
  -21.4359  -29.3044   22.3530 N   0  0  0  0  0  0
  -26.4263  -37.3713   23.9426 N   0  0  0  0  0  0
  -24.7594  -30.9799   22.0810 N   0  0  0  0  0  0
  -23.4197  -28.8055   23.3103 O   0  0  0  0  0  0
  -28.1945  -25.7247   20.3109 O   0  0  0  0  0  0
  -26.5694  -34.8907   22.4579 O   0  0  0  0  0  0
  -23.5759  -32.1190   23.6707 O   0  0  0  0  0  0
  -28.1096  -17.8418   23.3017 C   0  0  0  0  0  0
  -28.8376  -17.2940   22.2467 C   0  0  0  0  0  0
  -27.9943  -19.9297   22.1056 C   0  0  0  0  0  0
  -27.6446  -19.1449   23.2122 C   0  0  0  0  0  0
  -29.1952  -17.9610   21.0397 C   0  0  0  0  0  0
  -28.8072  -19.5404   21.0037 C   0  0  0  0  0  0
  -26.7610  -19.7068   24.3113 C   0  0  0  0  0  0
  -28.0214  -24.0715   20.0248 C   0  0  0  0  0  0
  -28.7862  -22.4902   20.6074 C   0  0  0  0  0  0
  -29.8269  -16.7351   20.1833 N   0  0  0  0  0  0
  -28.9084  -20.8467   20.1762 O   0  0  0  0  0  0
  -31.4277  -13.0967   19.1844 H   0  0  0  0  0  0
  -30.5014  -12.0164   20.1783 H   0  0  0  0  0  0
  -29.9328  -11.7370   17.7398 H   0  0  0  0  0  0
  -29.5351  -13.4363   17.6207 H   0  0  0  0  0  0
  -28.0570  -11.2705   19.1250 H   0  0  0  0  0  0
  -27.4134  -12.3034   17.8741 H   0  0  0  0  0  0
  -27.4889  -14.2314   19.2823 H   0  0  0  0  0  0
  -28.8156  -12.6319   21.5191 H   0  0  0  0  0  0
  -28.2330  -14.2748   21.6390 H   0  0  0  0  0  0
  -25.2785   -9.5685   22.4720 H   0  0  0  0  0  0
  -24.0060   -7.4611   22.7394 H   0  0  0  0  0  0
  -21.0819   -8.8794   19.8975 H   0  0  0  0  0  0
  -22.3660  -10.9708   19.6210 H   0  0  0  0  0  0
  -21.2057   -7.6166   23.9719 H   0  0  0  0  0  0
  -21.1467   -6.0527   25.9067 H   0  0  0  0  0  0
  -22.0602   -2.7628   23.2813 H   0  0  0  0  0  0
  -22.4037  -11.9741   22.4729 H   0  0  0  0  0  0
  -21.1010  -13.1071   22.2686 H   0  0  0  0  0  0
  -24.6432  -15.8549   20.5888 H   0  0  0  0  0  0
  -26.2619  -15.6485   20.1456 H   0  0  0  0  0  0
  -26.7449  -32.5104   23.0852 H   0  0  0  0  0  0
  -25.0221  -33.9465   25.0243 H   0  0  0  0  0  0
  -22.8030  -31.2613   21.3444 H   0  0  0  0  0  0
  -23.3758  -35.9474   23.3313 H   0  0  0  0  0  0
  -24.3536  -36.8784   22.2057 H   0  0  0  0  0  0
  -23.7203  -37.6353   23.6678 H   0  0  0  0  0  0
  -26.2375  -31.3336   20.6115 H   0  0  0  0  0  0
  -26.9168  -30.6691   22.0545 H   0  0  0  0  0  0
  -28.1392  -28.5327   21.3115 H   0  0  0  0  0  0
  -25.8682  -25.6954   19.0030 H   0  0  0  0  0  0
  -24.0070  -27.2444   18.9468 H   0  0  0  0  0  0
  -23.8928  -30.5048   19.3867 H   0  0  0  0  0  0
  -22.8321  -29.2000   19.8269 H   0  0  0  0  0  0
  -25.1335  -36.1745   25.0795 H   0  0  0  0  0  0
  -21.0050  -28.3393   24.1309 H   0  0  0  0  0  0
  -20.5729  -26.2417   23.3660 H   0  0  0  0  0  0
  -21.6684  -26.7459   22.1210 H   0  0  0  0  0  0
  -19.6934  -25.6291   21.1301 H   0  0  0  0  0  0
  -19.6712  -27.3189   20.6747 H   0  0  0  0  0  0
  -17.4249  -26.6738   21.4019 H   0  0  0  0  0  0
  -18.0319  -26.0124   22.9031 H   0  0  0  0  0  0
  -19.7980  -30.7379   24.2158 H   0  0  0  0  0  0
  -17.5049  -31.6287   24.5194 H   0  0  0  0  0  0
  -15.5386  -30.3000   23.7718 H   0  0  0  0  0  0
  -15.8713  -28.0855   22.7078 H   0  0  0  0  0  0
  -24.5931  -30.7093   25.7631 H   0  0  0  0  0  0
  -24.8831  -32.3023   26.4494 H   0  0  0  0  0  0
  -25.7911  -30.9151   27.0215 H   0  0  0  0  0  0
  -26.3164  -29.6541   24.1419 H   0  0  0  0  0  0
  -27.3991  -29.7263   25.5103 H   0  0  0  0  0  0
  -27.9122  -30.4047   23.9876 H   0  0  0  0  0  0
  -27.2638  -33.3664   26.1926 H   0  0  0  0  0  0
  -28.3983  -32.6760   25.0400 H   0  0  0  0  0  0
  -28.0624  -31.8517   26.5535 H   0  0  0  0  0  0
  -28.2600  -38.0020   24.7511 H   0  0  0  0  0  0
  -28.1002  -36.2551   24.6332 H   0  0  0  0  0  0
  -27.2264  -37.1446   25.8884 H   0  0  0  0  0  0
  -20.9624  -29.8661   21.6587 H   0  0  0  0  0  0
  -26.0093  -38.2768   24.1404 H   0  0  0  0  0  0
  -27.8727  -17.2317   24.1622 H   0  0  0  0  0  0
  -29.0896  -16.2587   22.4119 H   0  0  0  0  0  0
  -27.5410  -20.9022   22.1175 H   0  0  0  0  0  0
  -26.1682  -18.9227   24.7857 H   0  0  0  0  0  0
  -26.0657  -20.4503   23.9196 H   0  0  0  0  0  0
  -27.3694  -20.1796   25.0823 H   0  0  0  0  0  0
  -26.9484  -23.9035   20.1221 H   0  0  0  0  0  0
  -28.1961  -24.0338   18.9491 H   0  0  0  0  0  0
  -28.6236  -22.5274   21.6814 H   0  0  0  0  0  0
  -29.8437  -22.7482   20.5508 H   0  0  0  0  0  0
  -30.3060  -17.1383   19.3908 H   0  0  0  0  0  0
  1 25  1  0  0  0
  1 30  2  0  0  0
  1 80  1  0  0  0
  2  3  1  0  0  0
  2 25  1  0  0  0
  2 82  1  0  0  0
  2 83  1  0  0  0
  3  4  1  0  0  0
  3 84  1  0  0  0
  3 85  1  0  0  0
  4  5  1  0  0  0
  4 86  1  0  0  0
  4 87  1  0  0  0
  5  6  1  0  0  0
  5 26  1  0  0  0
  5 88  1  0  0  0
  6 25  1  0  0  0
  6 89  1  0  0  0
  6 90  1  0  0  0
  7  8  2  0  0  0
  7 26  1  0  0  0
  7 29  1  0  0  0
  8  9  1  0  0  0
  8 22  1  0  0  0
  9 10  1  0  0  0
  9 27  2  0  0  0
 10 11  2  0  0  0
 10 15  1  0  0  0
 11 12  1  0  0  0
 11 91  1  0  0  0
 12 13  2  0  0  0
 12 92  1  0  0  0
 13 14  1  0  0  0
 13 31  1  0  0  0
 14 15  2  0  0  0
 14 93  1  0  0  0
 15 94  1  0  0  0
 16 17  2  0  0  0
 16 21  1  0  0  0
 16 31  1  0  0  0
 17 18  1  0  0  0
 17 95  1  0  0  0
 18 19  2  0  0  0
 18 96  1  0  0  0
 19 20  1  0  0  0
 19 24  1  0  0  0
 20 21  2  0  0  0
 20 97  1  0  0  0
 21 23  1  0  0  0
 22 28  1  0  0  0
 22 32  2  0  0  0
 26 27  1  0  0  0
 28 98  1  0  0  0
 28 99  1  0  0  0
 29100  1  0  0  0
 29101  1  0  0  0
 33 34  1  0  0  0
 33 66  1  0  0  0
 33 70  2  0  0  0
 34 36  1  0  0  0
 34 59  1  0  0  0
 34102  1  0  0  0
 35 44  2  0  0  0
 35 45  1  0  0  0
 35 68  1  0  0  0
 36 56  1  0  0  0
 36103  1  0  0  0
 37 39  1  0  0  0
 37 47  1  0  0  0
 37 66  1  0  0  0
 37104  1  0  0  0
 38 43  2  0  0  0
 38 46  1  0  0  0
 38 47  1  0  0  0
 39 64  1  0  0  0
 39 67  2  0  0  0
 40 52  1  0  0  0
 40 53  2  0  0  0
 40 58  1  0  0  0
 41105  1  0  0  0
 41106  1  0  0  0
 41107  1  0  0  0
 41 48  1  0  0  0
 42 43  1  0  0  0
 42 66  1  0  0  0
 42108  1  0  0  0
 42109  1  0  0  0
 43 44  1  0  0  0
 44110  1  0  0  0
 45 46  2  0  0  0
 45111  1  0  0  0
 46112  1  0  0  0
 47113  1  0  0  0
 47114  1  0  0  0
 48 56  1  0  0  0
 48 65  1  0  0  0
 48115  1  0  0  0
 49 50  1  0  0  0
 49 53  1  0  0  0
 49 64  1  0  0  0
 49116  1  0  0  0
 50 51  1  0  0  0
 50117  1  0  0  0
 50118  1  0  0  0
 51 52  1  0  0  0
 51119  1  0  0  0
 51120  1  0  0  0
 52121  1  0  0  0
 52122  1  0  0  0
 53 54  1  0  0  0
 54 55  2  0  0  0
 54123  1  0  0  0
 55 57  1  0  0  0
 55124  1  0  0  0
 56 69  2  0  0  0
 57 58  2  0  0  0
 57125  1  0  0  0
 58126  1  0  0  0
 59 60  1  0  0  0
 59 61  1  0  0  0
 59 62  1  0  0  0
 60127  1  0  0  0
 60128  1  0  0  0
 60129  1  0  0  0
 61130  1  0  0  0
 61131  1  0  0  0
 61132  1  0  0  0
 62133  1  0  0  0
 62134  1  0  0  0
 62135  1  0  0  0
 63 65  1  0  0  0
 63136  1  0  0  0
 63137  1  0  0  0
 63138  1  0  0  0
 64139  1  0  0  0
 65140  1  0  0  0
 68 78  1  0  0  0
 71 72  2  0  0  0
 71 74  1  0  0  0
 71141  1  0  0  0
 72 75  1  0  0  0
 72142  1  0  0  0
 73 74  2  0  0  0
 73 76  1  0  0  0
 73143  1  0  0  0
 74 77  1  0  0  0
 75 76  2  0  0  0
 75 80  1  0  0  0
 76 81  1  0  0  0
 77144  1  0  0  0
 77145  1  0  0  0
 77146  1  0  0  0
 78 79  1  0  0  0
 78147  1  0  0  0
 78148  1  0  0  0
 79 81  1  0  0  0
 79149  1  0  0  0
 79150  1  0  0  0
 80151  1  0  0  0
M  ISO  4   1 100  68 101  78 101  80 100
M  END
> <chiral flag>
0

> <version>
0

> <s_m_source_file>
/data/baiqing/PycharmProjects/Reinvent-master-3.2/result/LINK_invent/BTK/process_docking_weight1_custom_sum_contain_oxygen_bond_distance_aromatic_linkinvent_7_9_3/rearranged_h_0007.sdf

> <i_m_source_file_index>
16

> <r_mmod_Potential_Energy-OPLS-2005>
1799.03686523438

> <r_mmod_Stretch_Energy-OPLS-2005>
771.737487792969

> <r_mmod_Bend_Energy-OPLS-2005>
630.625183105469

> <r_mmod_Torsional_Energy-OPLS-2005>
271.070526123047

> <r_mmod_Improper_Torsional_Energy-OPLS-2005>
15.8946971893311

> <r_mmod_Van_der_Waal_Energy-OPLS-2005>
139.087783813477

> <r_mmod_Electrostatic_Energy-OPLS-2005>
-388.633575439453

> <r_mmod_Solvation_Energy-OPLS-2005>
-207.422546386719

> <b_mmod_Minimization_Converged-OPLS-2005>
0

> <r_mmod_RMS_Derivative-OPLS-2005>
3.19715309143066

$$$$
16
                    3D
 Structure written by MMmdl.
154162  0  0  1  0            999 V2000
  -30.5561  -14.9135   20.4958 C   0  0  0  0  0  0
  -30.4472  -12.5838   19.4734 C   0  0  0  0  0  0
  -29.5101  -12.5382   18.2407 C   0  0  0  0  0  0
  -28.0432  -12.3320   18.6580 C   0  0  0  0  0  0
  -27.6378  -13.2390   19.8450 C   0  0  2  0  0  0
  -28.6845  -13.1926   20.9748 C   0  0  0  0  0  0
  -25.2512  -13.8197   20.5715 C   0  0  0  0  0  0
  -24.1810  -13.0445   20.9217 C   0  0  0  0  0  0
  -24.6392  -11.6920   20.8743 C   0  0  0  0  0  0
  -23.9081  -10.4306   21.0399 C   0  0  0  0  0  0
  -24.3630   -9.4217   21.9180 C   0  0  0  0  0  0
  -23.6314   -8.2255   22.0747 C   0  0  0  0  0  0
  -22.4294   -8.0286   21.3545 C   0  0  0  0  0  0
  -21.9931   -9.0258   20.4639 C   0  0  0  0  0  0
  -22.7257  -10.2136   20.3047 C   0  0  0  0  0  0
  -21.6857   -6.0743   22.5273 C   0  0  0  0  0  0
  -21.4005   -6.5637   23.8208 C   0  0  0  0  0  0
  -21.3651   -5.6791   24.9169 C   0  0  0  0  0  0
  -21.6043   -4.3057   24.7214 C   0  0  0  0  0  0
  -21.8827   -3.8152   23.4339 C   0  0  0  0  0  0
  -21.9197   -4.6969   22.3399 C   0  0  0  0  0  0
  -22.7829  -13.5224   21.1891 C   0  0  0  0  0  0
  -22.1677   -4.2167   21.0970 F   0  0  0  0  0  0
  -21.5630   -3.4534   25.7728 F   0  0  0  0  0  0
  -29.9664  -13.6470   20.4086 N   0  0  0  0  0  0
  -26.2925  -12.9412   20.3285 N   0  0  0  0  0  0
  -25.9330  -11.6552   20.5749 N   0  0  0  0  0  0
  -22.0481  -12.8192   22.0417 N   0  0  0  0  0  0
  -25.4257  -15.1933   20.4138 N   0  0  0  0  0  0
  -31.6992  -15.0328   20.0388 O   0  0  0  0  0  0
  -21.6641   -6.8893   21.4239 O   0  0  0  0  0  0
  -22.3514  -14.5543   20.6765 O   0  0  0  0  0  0
  -24.6449  -31.8452   23.1893 C   0  0  0  0  0  0
  -25.9198  -32.4709   23.8318 C   0  0  1  0  0  0
  -27.2094  -27.1270   20.1690 C   0  0  0  0  0  0
  -25.5921  -33.8509   24.2189 N   0  0  0  0  0  0
  -23.4466  -30.4688   21.5334 C   0  0  2  0  0  0
  -24.8949  -28.8894   20.1176 C   0  0  0  0  0  0
  -22.7568  -29.4593   22.4865 C   0  0  0  0  0  0
  -18.0321  -28.1380   22.8512 C   0  0  0  0  0  0
  -24.1443  -36.7228   23.2652 C   0  0  0  0  0  0
  -26.0056  -30.7190   21.3845 C   0  0  0  0  0  0
  -26.0757  -29.3273   20.7314 C   0  0  0  0  0  0
  -27.2345  -28.4613   20.7401 C   0  0  0  0  0  0
  -25.9999  -26.7900   19.5206 C   0  0  0  0  0  0
  -24.8680  -27.6313   19.5003 C   0  0  0  0  0  0
  -23.6688  -29.7897   20.1574 C   0  0  0  0  0  0
  -25.4080  -36.3013   24.0321 C   0  0  1  0  0  0
  -20.5927  -28.3732   23.1202 C   0  0  2  0  0  0
  -20.6773  -26.9419   22.5376 C   0  0  0  0  0  0
  -19.5718  -26.6376   21.5212 C   0  0  0  0  0  0
  -18.1914  -26.7929   22.1648 C   0  0  0  0  0  0
  -19.1580  -28.8868   23.2853 C   0  0  0  0  0  0
  -18.9497  -30.1457   23.8876 C   0  0  0  0  0  0
  -17.6494  -30.6578   24.0553 C   0  0  0  0  0  0
  -25.9066  -34.9408   23.5076 C   0  0  0  0  0  0
  -16.5388  -29.9066   23.6331 C   0  0  0  0  0  0
  -16.7312  -28.6472   23.0399 C   0  0  0  0  0  0
  -26.4500  -31.6614   25.0790 C   0  0  0  0  0  0
  -25.3653  -31.3726   26.1461 C   0  0  0  0  0  0
  -27.0414  -30.3044   24.6373 C   0  0  0  0  0  0
  -27.6031  -32.4430   25.7570 C   0  0  0  0  0  0
  -27.5532  -37.1756   24.8456 C   0  0  0  0  0  0
  -21.4270  -29.3072   22.3587 N   0  0  0  0  0  0
  -26.4228  -37.3756   23.9429 N   0  0  0  0  0  0
  -24.7196  -31.0317   22.0906 N   0  0  0  0  0  0
  -23.4217  -28.8112   23.2988 O   0  0  0  0  0  0
  -28.2523  -26.1295   20.2446 O   0  0  0  0  0  0
  -26.5696  -34.8915   22.4675 O   0  0  0  0  0  0
  -23.5565  -32.1333   23.7107 O   0  0  0  0  0  0
  -30.4839  -18.5403   20.3566 C   0  0  0  0  0  0
  -30.1143  -19.9590   20.2928 C   0  0  0  0  0  0
  -28.2456  -17.9959   20.8678 C   0  0  0  0  0  0
  -27.8729  -19.3951   20.8142 C   0  0  0  0  0  0
  -29.5624  -17.4710   20.6647 C   0  0  0  0  0  0
  -28.7855  -20.4726   20.5258 C   0  0  0  0  0  0
  -26.4227  -19.7277   21.1544 C   0  0  0  0  0  0
  -29.6788  -15.8740   22.5268 C   0  0  0  0  0  0
  -27.9198  -24.6043   20.1940 C   0  0  0  0  0  0
  -28.9007  -23.2425   20.3930 C   0  0  0  0  0  0
  -29.8694  -16.0234   21.0765 N   0  0  0  0  0  0
  -28.2632  -21.8466   20.5029 O   0  0  0  0  0  0
  -31.4683  -12.7632   19.1370 H   0  0  0  0  0  0
  -30.4736  -11.6168   19.9767 H   0  0  0  0  0  0
  -29.8158  -11.7430   17.5596 H   0  0  0  0  0  0
  -29.5981  -13.4697   17.6799 H   0  0  0  0  0  0
  -27.9209  -11.2842   18.9357 H   0  0  0  0  0  0
  -27.3773  -12.5007   17.8101 H   0  0  0  0  0  0
  -27.6239  -14.2577   19.4565 H   0  0  0  0  0  0
  -28.7765  -12.1833   21.3790 H   0  0  0  0  0  0
  -28.3525  -13.8080   21.8040 H   0  0  0  0  0  0
  -25.2761   -9.5696   22.4762 H   0  0  0  0  0  0
  -24.0030   -7.4631   22.7472 H   0  0  0  0  0  0
  -21.0871   -8.8765   19.8942 H   0  0  0  0  0  0
  -22.3715  -10.9669   19.6169 H   0  0  0  0  0  0
  -21.1987   -7.6137   23.9722 H   0  0  0  0  0  0
  -21.1465   -6.0504   25.9075 H   0  0  0  0  0  0
  -22.0614   -2.7610   23.2817 H   0  0  0  0  0  0
  -22.4104  -11.9819   22.4728 H   0  0  0  0  0  0
  -21.1097  -13.1202   22.2648 H   0  0  0  0  0  0
  -24.6632  -15.8550   20.5115 H   0  0  0  0  0  0
  -26.2866  -15.6198   20.0952 H   0  0  0  0  0  0
  -26.7311  -32.5302   23.1095 H   0  0  0  0  0  0
  -24.9939  -33.9612   25.0252 H   0  0  0  0  0  0
  -22.7518  -31.2969   21.3724 H   0  0  0  0  0  0
  -23.3737  -35.9511   23.3280 H   0  0  0  0  0  0
  -24.3513  -36.8919   22.2059 H   0  0  0  0  0  0
  -23.7177  -37.6401   23.6748 H   0  0  0  0  0  0
  -26.1563  -31.4618   20.6004 H   0  0  0  0  0  0
  -26.8834  -30.7796   22.0190 H   0  0  0  0  0  0
  -28.1298  -28.7855   21.2504 H   0  0  0  0  0  0
  -25.8803  -25.8281   19.0499 H   0  0  0  0  0  0
  -23.9616  -27.2814   19.0293 H   0  0  0  0  0  0
  -23.7904  -30.5556   19.3893 H   0  0  0  0  0  0
  -22.7840  -29.2205   19.8661 H   0  0  0  0  0  0
  -25.1255  -36.1831   25.0794 H   0  0  0  0  0  0
  -21.0084  -28.3316   24.1307 H   0  0  0  0  0  0
  -20.5620  -26.2348   23.3599 H   0  0  0  0  0  0
  -21.6619  -26.7336   22.1181 H   0  0  0  0  0  0
  -19.6842  -25.6290   21.1214 H   0  0  0  0  0  0
  -19.6620  -27.3182   20.6725 H   0  0  0  0  0  0
  -17.4166  -26.6744   21.4051 H   0  0  0  0  0  0
  -18.0279  -26.0035   22.8992 H   0  0  0  0  0  0
  -19.7975  -30.7277   24.2251 H   0  0  0  0  0  0
  -17.5046  -31.6264   24.5153 H   0  0  0  0  0  0
  -15.5386  -30.2956   23.7667 H   0  0  0  0  0  0
  -15.8721  -28.0765   22.7168 H   0  0  0  0  0  0
  -24.5916  -30.6990   25.7752 H   0  0  0  0  0  0
  -24.8696  -32.2822   26.4870 H   0  0  0  0  0  0
  -25.7909  -30.8943   27.0286 H   0  0  0  0  0  0
  -26.3072  -29.6759   24.1322 H   0  0  0  0  0  0
  -27.4014  -29.7363   25.4963 H   0  0  0  0  0  0
  -27.8951  -30.4349   23.9714 H   0  0  0  0  0  0
  -27.2698  -33.3843   26.1975 H   0  0  0  0  0  0
  -28.3927  -32.6855   25.0431 H   0  0  0  0  0  0
  -28.0612  -31.8665   26.5627 H   0  0  0  0  0  0
  -28.2509  -38.0092   24.7600 H   0  0  0  0  0  0
  -28.1099  -36.2653   24.6201 H   0  0  0  0  0  0
  -27.2262  -37.1281   25.8858 H   0  0  0  0  0  0
  -20.9497  -29.8837   21.6793 H   0  0  0  0  0  0
  -26.0080  -38.2792   24.1547 H   0  0  0  0  0  0
  -31.5275  -18.2910   20.2191 H   0  0  0  0  0  0
  -30.9001  -20.6710   20.0770 H   0  0  0  0  0  0
  -27.4751  -17.2862   21.1435 H   0  0  0  0  0  0
  -25.8232  -18.8279   21.3149 H   0  0  0  0  0  0
  -25.9391  -20.3078   20.3666 H   0  0  0  0  0  0
  -26.3792  -20.3056   22.0780 H   0  0  0  0  0  0
  -29.9997  -16.7762   23.0507 H   0  0  0  0  0  0
  -30.2435  -15.0452   22.9610 H   0  0  0  0  0  0
  -28.6248  -15.7318   22.7615 H   0  0  0  0  0  0
  -27.1153  -24.4763   20.9206 H   0  0  0  0  0  0
  -27.4522  -24.4291   19.2259 H   0  0  0  0  0  0
  -29.4904  -23.3888   21.3004 H   0  0  0  0  0  0
  -29.6258  -23.2176   19.5759 H   0  0  0  0  0  0
  1 25  1  0  0  0
  1 30  2  0  0  0
  1 81  1  0  0  0
  2  3  1  0  0  0
  2 25  1  0  0  0
  2 83  1  0  0  0
  2 84  1  0  0  0
  3  4  1  0  0  0
  3 85  1  0  0  0
  3 86  1  0  0  0
  4  5  1  0  0  0
  4 87  1  0  0  0
  4 88  1  0  0  0
  5  6  1  0  0  0
  5 26  1  0  0  0
  5 89  1  0  0  0
  6 25  1  0  0  0
  6 90  1  0  0  0
  6 91  1  0  0  0
  7  8  2  0  0  0
  7 26  1  0  0  0
  7 29  1  0  0  0
  8  9  1  0  0  0
  8 22  1  0  0  0
  9 10  1  0  0  0
  9 27  2  0  0  0
 10 11  2  0  0  0
 10 15  1  0  0  0
 11 12  1  0  0  0
 11 92  1  0  0  0
 12 13  2  0  0  0
 12 93  1  0  0  0
 13 14  1  0  0  0
 13 31  1  0  0  0
 14 15  2  0  0  0
 14 94  1  0  0  0
 15 95  1  0  0  0
 16 17  2  0  0  0
 16 21  1  0  0  0
 16 31  1  0  0  0
 17 18  1  0  0  0
 17 96  1  0  0  0
 18 19  2  0  0  0
 18 97  1  0  0  0
 19 20  1  0  0  0
 19 24  1  0  0  0
 20 21  2  0  0  0
 20 98  1  0  0  0
 21 23  1  0  0  0
 22 28  1  0  0  0
 22 32  2  0  0  0
 26 27  1  0  0  0
 28 99  1  0  0  0
 28100  1  0  0  0
 29101  1  0  0  0
 29102  1  0  0  0
 33 34  1  0  0  0
 33 66  1  0  0  0
 33 70  2  0  0  0
 34 36  1  0  0  0
 34 59  1  0  0  0
 34103  1  0  0  0
 35 44  2  0  0  0
 35 45  1  0  0  0
 35 68  1  0  0  0
 36 56  1  0  0  0
 36104  1  0  0  0
 37 39  1  0  0  0
 37 47  1  0  0  0
 37 66  1  0  0  0
 37105  1  0  0  0
 38 43  2  0  0  0
 38 46  1  0  0  0
 38 47  1  0  0  0
 39 64  1  0  0  0
 39 67  2  0  0  0
 40 52  1  0  0  0
 40 53  2  0  0  0
 40 58  1  0  0  0
 41106  1  0  0  0
 41107  1  0  0  0
 41108  1  0  0  0
 41 48  1  0  0  0
 42 43  1  0  0  0
 42 66  1  0  0  0
 42109  1  0  0  0
 42110  1  0  0  0
 43 44  1  0  0  0
 44111  1  0  0  0
 45 46  2  0  0  0
 45112  1  0  0  0
 46113  1  0  0  0
 47114  1  0  0  0
 47115  1  0  0  0
 48 56  1  0  0  0
 48 65  1  0  0  0
 48116  1  0  0  0
 49 50  1  0  0  0
 49 53  1  0  0  0
 49 64  1  0  0  0
 49117  1  0  0  0
 50 51  1  0  0  0
 50118  1  0  0  0
 50119  1  0  0  0
 51 52  1  0  0  0
 51120  1  0  0  0
 51121  1  0  0  0
 52122  1  0  0  0
 52123  1  0  0  0
 53 54  1  0  0  0
 54 55  2  0  0  0
 54124  1  0  0  0
 55 57  1  0  0  0
 55125  1  0  0  0
 56 69  2  0  0  0
 57 58  2  0  0  0
 57126  1  0  0  0
 58127  1  0  0  0
 59 60  1  0  0  0
 59 61  1  0  0  0
 59 62  1  0  0  0
 60128  1  0  0  0
 60129  1  0  0  0
 60130  1  0  0  0
 61131  1  0  0  0
 61132  1  0  0  0
 61133  1  0  0  0
 62134  1  0  0  0
 62135  1  0  0  0
 62136  1  0  0  0
 63 65  1  0  0  0
 63137  1  0  0  0
 63138  1  0  0  0
 63139  1  0  0  0
 64140  1  0  0  0
 65141  1  0  0  0
 68 79  1  0  0  0
 71 72  2  0  0  0
 71 75  1  0  0  0
 71142  1  0  0  0
 72 76  1  0  0  0
 72143  1  0  0  0
 73 74  1  0  0  0
 73 75  2  0  0  0
 73144  1  0  0  0
 74 76  2  0  0  0
 74 77  1  0  0  0
 75 81  1  0  0  0
 76 82  1  0  0  0
 77145  1  0  0  0
 77146  1  0  0  0
 77147  1  0  0  0
 78 81  1  0  0  0
 78148  1  0  0  0
 78149  1  0  0  0
 78150  1  0  0  0
 79 80  1  0  0  0
 79151  1  0  0  0
 79152  1  0  0  0
 80 82  1  0  0  0
 80153  1  0  0  0
 80154  1  0  0  0
M  ISO  4   1 100  68 101  79 101  81 100
M  END
> <chiral flag>
0

> <version>
0

> <s_m_source_file>
/data/baiqing/PycharmProjects/Reinvent-master-3.2/result/LINK_invent/BTK/process_docking_weight1_custom_sum_contain_oxygen_bond_distance_aromatic_linkinvent_7_9_3/rearranged_h_0007.sdf

> <i_m_source_file_index>
17

> <r_mmod_Potential_Energy-OPLS-2005>
664.015014648438

> <r_mmod_Stretch_Energy-OPLS-2005>
239.614959716797

> <r_mmod_Bend_Energy-OPLS-2005>
296.358856201172

> <r_mmod_Torsional_Energy-OPLS-2005>
308.739685058594

> <r_mmod_Improper_Torsional_Energy-OPLS-2005>
5.13954448699951

> <r_mmod_Van_der_Waal_Energy-OPLS-2005>
136.14208984375

> <r_mmod_Electrostatic_Energy-OPLS-2005>
-308.585113525391

> <r_mmod_Solvation_Energy-OPLS-2005>
-194.371887207031

> <b_mmod_Minimization_Converged-OPLS-2005>
0

> <r_mmod_RMS_Derivative-OPLS-2005>
4.59260654449463

$$$$
17
                    3D
 Structure written by MMmdl.
182190  0  0  1  0            999 V2000
  -30.6274  -14.4391   20.5773 C   0  0  0  0  0  0
  -30.4347  -12.2845   19.4091 C   0  0  0  0  0  0
  -29.4965  -12.5019   18.2014 C   0  0  0  0  0  0
  -28.0122  -12.3620   18.6059 C   0  0  0  0  0  0
  -27.6583  -13.1749   19.8803 C   0  0  2  0  0  0
  -28.6921  -12.9004   20.9953 C   0  0  0  0  0  0
  -25.2611  -13.7949   20.5916 C   0  0  0  0  0  0
  -24.1772  -13.0311   20.9202 C   0  0  0  0  0  0
  -24.6268  -11.6774   20.8662 C   0  0  0  0  0  0
  -23.8929  -10.4219   21.0336 C   0  0  0  0  0  0
  -24.3533   -9.4190   21.9133 C   0  0  0  0  0  0
  -23.6254   -8.2210   22.0705 C   0  0  0  0  0  0
  -22.4225   -8.0235   21.3504 C   0  0  0  0  0  0
  -21.9828   -9.0179   20.4595 C   0  0  0  0  0  0
  -22.7112  -10.2069   20.2994 C   0  0  0  0  0  0
  -21.6843   -6.0693   22.5256 C   0  0  0  0  0  0
  -21.4012   -6.5600   23.8192 C   0  0  0  0  0  0
  -21.3671   -5.6754   24.9159 C   0  0  0  0  0  0
  -21.6062   -4.3015   24.7214 C   0  0  0  0  0  0
  -21.8840   -3.8099   23.4336 C   0  0  0  0  0  0
  -21.9197   -4.6922   22.3386 C   0  0  0  0  0  0
  -22.7830  -13.5203   21.1884 C   0  0  0  0  0  0
  -22.1674   -4.2110   21.0966 F   0  0  0  0  0  0
  -21.5642   -3.4505   25.7733 F   0  0  0  0  0  0
  -30.0263  -13.2292   20.4584 N   0  0  0  0  0  0
  -26.2957  -12.9096   20.3327 N   0  0  0  0  0  0
  -25.9164  -11.6284   20.5606 N   0  0  0  0  0  0
  -22.0371  -12.8231   22.0403 N   0  0  0  0  0  0
  -25.4532  -15.1627   20.4849 N   0  0  0  0  0  0
  -31.7567  -14.6947   20.1425 O   0  0  0  0  0  0
  -21.6614   -6.8819   21.4206 O   0  0  0  0  0  0
  -22.3599  -14.5529   20.6731 O   0  0  0  0  0  0
  -24.6178  -31.8686   23.2124 C   0  0  0  0  0  0
  -25.9081  -32.4841   23.8377 C   0  0  1  0  0  0
  -27.2413  -27.4695   20.0782 C   0  0  0  0  0  0
  -25.5938  -33.8624   24.2328 N   0  0  0  0  0  0
  -23.4012  -30.4904   21.5558 C   0  0  2  0  0  0
  -24.8487  -28.9523   20.1229 C   0  0  0  0  0  0
  -22.7436  -29.4680   22.5055 C   0  0  0  0  0  0
  -18.0269  -28.1371   22.8431 C   0  0  0  0  0  0
  -24.1476  -36.7310   23.2624 C   0  0  0  0  0  0
  -25.9290  -30.8380   21.3642 C   0  0  0  0  0  0
  -26.0075  -29.4721   20.7166 C   0  0  0  0  0  0
  -27.2090  -28.7308   20.7052 C   0  0  0  0  0  0
  -26.0776  -26.9635   19.4728 C   0  0  0  0  0  0
  -24.8730  -27.6900   19.5052 C   0  0  0  0  0  0
  -23.6086  -29.8149   20.1729 C   0  0  0  0  0  0
  -25.4103  -36.3129   24.0330 C   0  0  1  0  0  0
  -20.5852  -28.3657   23.1319 C   0  0  2  0  0  0
  -20.6786  -26.9414   22.5390 C   0  0  0  0  0  0
  -19.5794  -26.6431   21.5146 C   0  0  0  0  0  0
  -18.1935  -26.7971   22.1473 C   0  0  0  0  0  0
  -19.1507  -28.8828   23.2888 C   0  0  0  0  0  0
  -18.9433  -30.1390   23.8957 C   0  0  0  0  0  0
  -17.6440  -30.6570   24.0573 C   0  0  0  0  0  0
  -25.9025  -34.9481   23.5141 C   0  0  0  0  0  0
  -16.5331  -29.9060   23.6334 C   0  0  0  0  0  0
  -16.7247  -28.6492   23.0336 C   0  0  0  0  0  0
  -26.4471  -31.6650   25.0726 C   0  0  0  0  0  0
  -25.3693  -31.3795   26.1467 C   0  0  0  0  0  0
  -27.0322  -30.3120   24.6095 C   0  0  0  0  0  0
  -27.6072  -32.4330   25.7478 C   0  0  0  0  0  0
  -27.5586  -37.1807   24.8450 C   0  0  0  0  0  0
  -21.4147  -29.3064   22.3797 N   0  0  0  0  0  0
  -26.4301  -37.3812   23.9386 N   0  0  0  0  0  0
  -24.6666  -31.0776   22.1032 N   0  0  0  0  0  0
  -23.4217  -28.8211   23.3079 O   0  0  0  0  0  0
  -28.4012  -26.7468   19.9855 O   0  0  0  0  0  0
  -26.5576  -34.8935   22.4670 O   0  0  0  0  0  0
  -23.5378  -32.1438   23.7524 O   0  0  0  0  0  0
  -24.3215  -21.9435   21.4181 C   0  0  0  0  0  0
  -23.5317  -21.5422   20.3953 C   0  0  0  0  0  0
  -25.1464  -23.1077   21.1909 C   0  0  0  0  0  0
  -24.3038  -23.3479   18.9940 C   0  0  0  0  0  0
  -24.5583  -18.2591   15.6547 C   0  0  0  0  0  0
  -23.0444  -18.4563   15.7892 C   0  0  0  0  0  0
  -22.6427  -19.8884   16.2052 C   0  0  0  0  0  0
  -28.3620  -17.1030   18.7401 C   0  0  0  0  0  0
  -23.2182  -20.3226   17.5726 C   0  0  0  0  0  0
  -26.9254  -17.5067   18.3506 C   0  0  0  0  0  0
  -28.6580  -17.4684   20.2116 C   0  0  0  0  0  0
  -28.0187  -24.7108   21.2953 C   0  0  0  0  0  0
  -22.6601  -21.6584   18.0963 C   0  0  0  0  0  0
  -26.6095  -17.4557   16.8485 C   0  0  0  0  0  0
  -29.9229  -16.8418   20.8507 C   0  0  0  0  0  0
  -26.7197  -24.8145   22.1236 C   0  0  0  0  0  0
  -28.7882  -26.0418   21.1608 C   0  0  0  0  0  0
  -25.0986  -23.7351   20.0299 N   0  0  0  0  0  0
  -23.5040  -22.2006   19.1752 N   0  0  0  0  0  0
  -25.9630  -23.5649   22.1644 N   0  0  0  0  0  0
  -25.1722  -17.6557   16.6757 N   0  0  0  0  0  0
  -29.7942  -15.3949   21.0174 N   0  0  0  0  0  0
  -24.2978  -23.9837   17.9414 O   0  0  0  0  0  0
  -25.1546  -18.6562   14.6506 O   0  0  0  0  0  0
  -31.4733  -12.4262   19.1014 H   0  0  0  0  0  0
  -30.3701  -11.2580   19.7769 H   0  0  0  0  0  0
  -29.7382  -11.7905   17.4116 H   0  0  0  0  0  0
  -29.6596  -13.4960   17.7774 H   0  0  0  0  0  0
  -27.8091  -11.3018   18.7706 H   0  0  0  0  0  0
  -27.3675  -12.6664   17.7801 H   0  0  0  0  0  0
  -27.7149  -14.2293   19.6155 H   0  0  0  0  0  0
  -28.6615  -11.8501   21.2874 H   0  0  0  0  0  0
  -28.4424  -13.4526   21.9029 H   0  0  0  0  0  0
  -25.2686   -9.5689   22.4697 H   0  0  0  0  0  0
  -23.9966   -7.4613   22.7439 H   0  0  0  0  0  0
  -21.0752   -8.8710   19.8910 H   0  0  0  0  0  0
  -22.3595  -10.9618   19.6101 H   0  0  0  0  0  0
  -21.2002   -7.6119   23.9698 H   0  0  0  0  0  0
  -21.1473   -6.0466   25.9068 H   0  0  0  0  0  0
  -22.0618   -2.7565   23.2829 H   0  0  0  0  0  0
  -22.3960  -11.9904   22.4824 H   0  0  0  0  0  0
  -21.0993  -13.1299   22.2554 H   0  0  0  0  0  0
  -24.7138  -15.8359   20.6430 H   0  0  0  0  0  0
  -26.3404  -15.5818   20.2398 H   0  0  0  0  0  0
  -26.7148  -32.5522   23.1123 H   0  0  0  0  0  0
  -25.0111  -33.9712   25.0516 H   0  0  0  0  0  0
  -22.6894  -31.3074   21.4096 H   0  0  0  0  0  0
  -23.3750  -35.9642   23.3319 H   0  0  0  0  0  0
  -24.3567  -36.8898   22.2035 H   0  0  0  0  0  0
  -23.7227  -37.6509   23.6624 H   0  0  0  0  0  0
  -26.0338  -31.6024   20.5906 H   0  0  0  0  0  0
  -26.8157  -30.8918   21.9826 H   0  0  0  0  0  0
  -28.1125  -29.1309   21.1467 H   0  0  0  0  0  0
  -26.1057  -25.9998   18.9884 H   0  0  0  0  0  0
  -23.9866  -27.2735   19.0468 H   0  0  0  0  0  0
  -23.7085  -30.5792   19.4021 H   0  0  0  0  0  0
  -22.7328  -29.2285   19.8919 H   0  0  0  0  0  0
  -25.1299  -36.1990   25.0838 H   0  0  0  0  0  0
  -20.9889  -28.3180   24.1466 H   0  0  0  0  0  0
  -20.5736  -26.2221   23.3509 H   0  0  0  0  0  0
  -21.6673  -26.7517   22.1171 H   0  0  0  0  0  0
  -19.6988  -25.6392   21.1056 H   0  0  0  0  0  0
  -19.6816  -27.3309   20.6739 H   0  0  0  0  0  0
  -17.4293  -26.6839   21.3764 H   0  0  0  0  0  0
  -18.0221  -26.0033   22.8731 H   0  0  0  0  0  0
  -19.7909  -30.7140   24.2425 H   0  0  0  0  0  0
  -17.5006  -31.6243   24.5170 H   0  0  0  0  0  0
  -15.5346  -30.2970   23.7649 H   0  0  0  0  0  0
  -15.8649  -28.0805   22.7052 H   0  0  0  0  0  0
  -24.5830  -30.7200   25.7786 H   0  0  0  0  0  0
  -24.8904  -32.2969   26.4907 H   0  0  0  0  0  0
  -25.7985  -30.8946   27.0237 H   0  0  0  0  0  0
  -26.2918  -29.6864   24.1112 H   0  0  0  0  0  0
  -27.4105  -29.7392   25.4549 H   0  0  0  0  0  0
  -27.8714  -30.4478   23.9272 H   0  0  0  0  0  0
  -27.2764  -33.3614   26.2142 H   0  0  0  0  0  0
  -28.3867  -32.6917   25.0296 H   0  0  0  0  0  0
  -28.0767  -31.8380   26.5327 H   0  0  0  0  0  0
  -28.2634  -38.0076   24.7544 H   0  0  0  0  0  0
  -28.1058  -36.2621   24.6265 H   0  0  0  0  0  0
  -27.2274  -37.1465   25.8839 H   0  0  0  0  0  0
  -20.9334  -29.8842   21.7052 H   0  0  0  0  0  0
  -26.0211  -38.2893   24.1397 H   0  0  0  0  0  0
  -24.3082  -21.3918   22.3465 H   0  0  0  0  0  0
  -22.9136  -20.6692   20.5428 H   0  0  0  0  0  0
  -22.6191  -17.7366   16.4920 H   0  0  0  0  0  0
  -22.6021  -18.2180   14.8226 H   0  0  0  0  0  0
  -21.5534  -19.9521   16.2342 H   0  0  0  0  0  0
  -22.9640  -20.5907   15.4341 H   0  0  0  0  0  0
  -29.0757  -17.6041   18.0857 H   0  0  0  0  0  0
  -28.4976  -16.0375   18.5629 H   0  0  0  0  0  0
  -24.3066  -20.3932   17.4984 H   0  0  0  0  0  0
  -23.0086  -19.5487   18.3131 H   0  0  0  0  0  0
  -26.7024  -18.5053   18.7325 H   0  0  0  0  0  0
  -26.2340  -16.8436   18.8573 H   0  0  0  0  0  0
  -27.7871  -17.2390   20.8301 H   0  0  0  0  0  0
  -28.7612  -18.5515   20.2557 H   0  0  0  0  0  0
  -27.8266  -24.3189   20.2960 H   0  0  0  0  0  0
  -28.6752  -23.9870   21.7829 H   0  0  0  0  0  0
  -21.6407  -21.5315   18.4672 H   0  0  0  0  0  0
  -22.5784  -22.3643   17.2692 H   0  0  0  0  0  0
  -26.8893  -16.4901   16.4257 H   0  0  0  0  0  0
  -27.1835  -18.2186   16.3148 H   0  0  0  0  0  0
  -30.0569  -17.2713   21.8441 H   0  0  0  0  0  0
  -30.8116  -17.1079   20.2761 H   0  0  0  0  0  0
  -26.0648  -25.5969   21.7418 H   0  0  0  0  0  0
  -26.9656  -25.0990   23.1457 H   0  0  0  0  0  0
  -29.8488  -25.8179   21.0491 H   0  0  0  0  0  0
  -28.7091  -26.6581   22.0593 H   0  0  0  0  0  0
  -25.9668  -23.1235   23.0792 H   0  0  0  0  0  0
  -24.5834  -17.3636   17.4445 H   0  0  0  0  0  0
  -28.9035  -15.0565   21.3588 H   0  0  0  0  0  0
  1 25  1  0  0  0
  1 30  2  0  0  0
  1 92  1  0  0  0
  2  3  1  0  0  0
  2 25  1  0  0  0
  2 95  1  0  0  0
  2 96  1  0  0  0
  3  4  1  0  0  0
  3 97  1  0  0  0
  3 98  1  0  0  0
  4  5  1  0  0  0
  4 99  1  0  0  0
  4100  1  0  0  0
  5  6  1  0  0  0
  5 26  1  0  0  0
  5101  1  0  0  0
  6 25  1  0  0  0
  6102  1  0  0  0
  6103  1  0  0  0
  7  8  2  0  0  0
  7 26  1  0  0  0
  7 29  1  0  0  0
  8  9  1  0  0  0
  8 22  1  0  0  0
  9 10  1  0  0  0
  9 27  2  0  0  0
 10 11  2  0  0  0
 10 15  1  0  0  0
 11 12  1  0  0  0
 11104  1  0  0  0
 12 13  2  0  0  0
 12105  1  0  0  0
 13 14  1  0  0  0
 13 31  1  0  0  0
 14 15  2  0  0  0
 14106  1  0  0  0
 15107  1  0  0  0
 16 17  2  0  0  0
 16 21  1  0  0  0
 16 31  1  0  0  0
 17 18  1  0  0  0
 17108  1  0  0  0
 18 19  2  0  0  0
 18109  1  0  0  0
 19 20  1  0  0  0
 19 24  1  0  0  0
 20 21  2  0  0  0
 20110  1  0  0  0
 21 23  1  0  0  0
 22 28  1  0  0  0
 22 32  2  0  0  0
 26 27  1  0  0  0
 28111  1  0  0  0
 28112  1  0  0  0
 29113  1  0  0  0
 29114  1  0  0  0
 33 34  1  0  0  0
 33 66  1  0  0  0
 33 70  2  0  0  0
 34 36  1  0  0  0
 34 59  1  0  0  0
 34115  1  0  0  0
 35 44  2  0  0  0
 35 45  1  0  0  0
 35 68  1  0  0  0
 36 56  1  0  0  0
 36116  1  0  0  0
 37 39  1  0  0  0
 37 47  1  0  0  0
 37 66  1  0  0  0
 37117  1  0  0  0
 38 43  2  0  0  0
 38 46  1  0  0  0
 38 47  1  0  0  0
 39 64  1  0  0  0
 39 67  2  0  0  0
 40 52  1  0  0  0
 40 53  2  0  0  0
 40 58  1  0  0  0
 41118  1  0  0  0
 41119  1  0  0  0
 41120  1  0  0  0
 41 48  1  0  0  0
 42 43  1  0  0  0
 42 66  1  0  0  0
 42121  1  0  0  0
 42122  1  0  0  0
 43 44  1  0  0  0
 44123  1  0  0  0
 45 46  2  0  0  0
 45124  1  0  0  0
 46125  1  0  0  0
 47126  1  0  0  0
 47127  1  0  0  0
 48 56  1  0  0  0
 48 65  1  0  0  0
 48128  1  0  0  0
 49 50  1  0  0  0
 49 53  1  0  0  0
 49 64  1  0  0  0
 49129  1  0  0  0
 50 51  1  0  0  0
 50130  1  0  0  0
 50131  1  0  0  0
 51 52  1  0  0  0
 51132  1  0  0  0
 51133  1  0  0  0
 52134  1  0  0  0
 52135  1  0  0  0
 53 54  1  0  0  0
 54 55  2  0  0  0
 54136  1  0  0  0
 55 57  1  0  0  0
 55137  1  0  0  0
 56 69  2  0  0  0
 57 58  2  0  0  0
 57138  1  0  0  0
 58139  1  0  0  0
 59 60  1  0  0  0
 59 61  1  0  0  0
 59 62  1  0  0  0
 60140  1  0  0  0
 60141  1  0  0  0
 60142  1  0  0  0
 61143  1  0  0  0
 61144  1  0  0  0
 61145  1  0  0  0
 62146  1  0  0  0
 62147  1  0  0  0
 62148  1  0  0  0
 63 65  1  0  0  0
 63149  1  0  0  0
 63150  1  0  0  0
 63151  1  0  0  0
 64152  1  0  0  0
 65153  1  0  0  0
 68 87  1  0  0  0
 71 72  2  0  0  0
 71 73  1  0  0  0
 71154  1  0  0  0
 72 89  1  0  0  0
 72155  1  0  0  0
 73 88  2  0  0  0
 73 90  1  0  0  0
 74 88  1  0  0  0
 74 89  1  0  0  0
 74 93  2  0  0  0
 75 76  1  0  0  0
 75 91  1  0  0  0
 75 94  2  0  0  0
 76 77  1  0  0  0
 76156  1  0  0  0
 76157  1  0  0  0
 77 79  1  0  0  0
 77158  1  0  0  0
 77159  1  0  0  0
 78 80  1  0  0  0
 78 81  1  0  0  0
 78160  1  0  0  0
 78161  1  0  0  0
 79 83  1  0  0  0
 79162  1  0  0  0
 79163  1  0  0  0
 80 84  1  0  0  0
 80164  1  0  0  0
 80165  1  0  0  0
 81 85  1  0  0  0
 81166  1  0  0  0
 81167  1  0  0  0
 82 86  1  0  0  0
 82 87  1  0  0  0
 82168  1  0  0  0
 82169  1  0  0  0
 83 89  1  0  0  0
 83170  1  0  0  0
 83171  1  0  0  0
 84 91  1  0  0  0
 84172  1  0  0  0
 84173  1  0  0  0
 85 92  1  0  0  0
 85174  1  0  0  0
 85175  1  0  0  0
 86 90  1  0  0  0
 86176  1  0  0  0
 86177  1  0  0  0
 87178  1  0  0  0
 87179  1  0  0  0
 90180  1  0  0  0
 91181  1  0  0  0
 92182  1  0  0  0
M  ISO  4   1 100  68 101  87 101  92 100
M  END
> <chiral flag>
0

> <version>
0

> <s_m_source_file>
/data/baiqing/PycharmProjects/Reinvent-master-3.2/result/LINK_invent/BTK/process_docking_weight1_custom_sum_contain_oxygen_bond_distance_aromatic_linkinvent_7_9_3/rearranged_h_0007.sdf

> <i_m_source_file_index>
18

> <r_mmod_Potential_Energy-OPLS-2005>
-284.323791503906

> <r_mmod_Stretch_Energy-OPLS-2005>
35.1000556945801

> <r_mmod_Bend_Energy-OPLS-2005>
99.7779693603516

> <r_mmod_Torsional_Energy-OPLS-2005>
226.939193725586

> <r_mmod_Improper_Torsional_Energy-OPLS-2005>
5.60057306289673

> <r_mmod_Van_der_Waal_Energy-OPLS-2005>
142.348815917969

> <r_mmod_Electrostatic_Energy-OPLS-2005>
-500.103057861328

> <r_mmod_Solvation_Energy-OPLS-2005>
-306.738800048828

> <b_mmod_Minimization_Converged-OPLS-2005>
0

> <r_mmod_RMS_Derivative-OPLS-2005>
5.99078893661499

$$$$
18
                    3D
 Structure written by MMmdl.
169177  0  0  1  0            999 V2000
  -30.5799  -14.7202   20.5223 C   0  0  0  0  0  0
  -30.4530  -12.4549   19.4581 C   0  0  0  0  0  0
  -29.5123  -12.5261   18.2328 C   0  0  0  0  0  0
  -28.0365  -12.3484   18.6461 C   0  0  0  0  0  0
  -27.6508  -13.2195   19.8708 C   0  0  2  0  0  0
  -28.6976  -13.0924   21.0004 C   0  0  0  0  0  0
  -25.2494  -13.8094   20.5585 C   0  0  0  0  0  0
  -24.1792  -13.0390   20.9141 C   0  0  0  0  0  0
  -24.6384  -11.6866   20.8760 C   0  0  0  0  0  0
  -23.9048  -10.4264   21.0427 C   0  0  0  0  0  0
  -24.3606   -9.4186   21.9207 C   0  0  0  0  0  0
  -23.6280   -8.2228   22.0771 C   0  0  0  0  0  0
  -22.4273   -8.0266   21.3542 C   0  0  0  0  0  0
  -21.9902   -9.0236   20.4655 C   0  0  0  0  0  0
  -22.7225  -10.2114   20.3068 C   0  0  0  0  0  0
  -21.6838   -6.0729   22.5276 C   0  0  0  0  0  0
  -21.4007   -6.5635   23.8201 C   0  0  0  0  0  0
  -21.3656   -5.6794   24.9165 C   0  0  0  0  0  0
  -21.6050   -4.3062   24.7220 C   0  0  0  0  0  0
  -21.8813   -3.8143   23.4344 C   0  0  0  0  0  0
  -21.9192   -4.6955   22.3406 C   0  0  0  0  0  0
  -22.7818  -13.5198   21.1825 C   0  0  0  0  0  0
  -22.1659   -4.2150   21.0980 F   0  0  0  0  0  0
  -21.5634   -3.4550   25.7728 F   0  0  0  0  0  0
  -30.0039  -13.4726   20.4356 N   0  0  0  0  0  0
  -26.2976  -12.9318   20.3365 N   0  0  0  0  0  0
  -25.9331  -11.6473   20.5823 N   0  0  0  0  0  0
  -22.0457  -12.8220   22.0396 N   0  0  0  0  0  0
  -25.4095  -15.1782   20.3812 N   0  0  0  0  0  0
  -31.7406  -14.9059   20.1406 O   0  0  0  0  0  0
  -21.6636   -6.8872   21.4235 O   0  0  0  0  0  0
  -22.3509  -14.5526   20.6693 O   0  0  0  0  0  0
  -24.6287  -31.8606   23.1978 C   0  0  0  0  0  0
  -25.9097  -32.4769   23.8354 C   0  0  1  0  0  0
  -27.2300  -27.2901   20.1527 C   0  0  0  0  0  0
  -25.5922  -33.8571   24.2255 N   0  0  0  0  0  0
  -23.4275  -30.4792   21.5364 C   0  0  2  0  0  0
  -24.8826  -28.9217   20.1257 C   0  0  0  0  0  0
  -22.7517  -29.4619   22.4887 C   0  0  0  0  0  0
  -18.0318  -28.1409   22.8458 C   0  0  0  0  0  0
  -24.1501  -36.7284   23.2655 C   0  0  0  0  0  0
  -25.9717  -30.7746   21.3847 C   0  0  0  0  0  0
  -26.0477  -29.3918   20.7483 C   0  0  0  0  0  0
  -27.2269  -28.5824   20.7669 C   0  0  0  0  0  0
  -26.0494  -26.8762   19.5085 C   0  0  0  0  0  0
  -24.8847  -27.6667   19.5001 C   0  0  0  0  0  0
  -23.6534  -29.8095   20.1565 C   0  0  0  0  0  0
  -25.4110  -36.3065   24.0355 C   0  0  1  0  0  0
  -20.5912  -28.3699   23.1281 C   0  0  2  0  0  0
  -20.6798  -26.9424   22.5417 C   0  0  0  0  0  0
  -19.5784  -26.6379   21.5222 C   0  0  0  0  0  0
  -18.1951  -26.7937   22.1620 C   0  0  0  0  0  0
  -19.1573  -28.8867   23.2858 C   0  0  0  0  0  0
  -18.9505  -30.1458   23.8892 C   0  0  0  0  0  0
  -17.6514  -30.6589   24.0557 C   0  0  0  0  0  0
  -25.9056  -34.9447   23.5094 C   0  0  0  0  0  0
  -16.5393  -29.9093   23.6343 C   0  0  0  0  0  0
  -16.7307  -28.6532   23.0319 C   0  0  0  0  0  0
  -26.4473  -31.6574   25.0728 C   0  0  0  0  0  0
  -25.3712  -31.3746   26.1459 C   0  0  0  0  0  0
  -27.0321  -30.3017   24.6135 C   0  0  0  0  0  0
  -27.5999  -32.4358   25.7500 C   0  0  0  0  0  0
  -27.5562  -37.1782   24.8473 C   0  0  0  0  0  0
  -21.4226  -29.3057   22.3657 N   0  0  0  0  0  0
  -26.4268  -37.3761   23.9430 N   0  0  0  0  0  0
  -24.6923  -31.0583   22.0953 N   0  0  0  0  0  0
  -23.4220  -28.8140   23.2962 O   0  0  0  0  0  0
  -28.3165  -26.4150   20.0078 O   0  0  0  0  0  0
  -26.5615  -34.8918   22.4664 O   0  0  0  0  0  0
  -23.5433  -32.1443   23.7250 O   0  0  0  0  0  0
  -30.6846  -19.5320   20.7906 C   0  0  0  0  0  0
  -30.8069  -18.1043   20.6413 C   0  0  0  0  0  0
  -28.3694  -19.2831   21.3410 C   0  0  0  0  0  0
  -29.4610  -20.1708   21.1602 C   0  0  0  0  0  0
  -29.7205  -17.2195   20.9100 C   0  0  0  0  0  0
  -28.4968  -17.8542   21.2813 C   0  0  0  0  0  0
  -28.7906  -24.1162   25.6350 C   0  0  0  0  0  0
  -30.3128  -23.1997   19.9965 C   0  0  0  0  0  0
  -26.3130  -17.5571   22.2761 C   0  0  0  0  0  0
  -29.3505  -21.6660   21.7087 C   0  0  0  0  0  0
  -28.2398  -23.8019   24.2381 C   0  0  0  0  0  0
  -29.2373  -24.2313   23.1444 C   0  0  0  0  0  0
  -28.9792  -25.7417   21.1258 C   0  0  0  0  0  0
  -28.6924  -24.2304   21.6704 C   0  0  1  0  0  0
  -29.7272  -15.7396   20.8979 N   0  0  0  0  0  0
  -29.1580  -22.9580   20.8890 N   0  3  1  0  0  0
  -27.4646  -17.0064   21.6330 O   0  0  0  0  0  0
  -31.4843  -12.6227   19.1429 H   0  0  0  0  0  0
  -30.4335  -11.4594   19.9053 H   0  0  0  0  0  0
  -29.7853  -11.7650   17.5011 H   0  0  0  0  0  0
  -29.6358  -13.4881   17.7328 H   0  0  0  0  0  0
  -27.8845  -11.2941   18.8823 H   0  0  0  0  0  0
  -27.3767  -12.5681   17.8052 H   0  0  0  0  0  0
  -27.6598  -14.2532   19.5227 H   0  0  0  0  0  0
  -28.7335  -12.0712   21.3809 H   0  0  0  0  0  0
  -28.4247  -13.7140   21.8547 H   0  0  0  0  0  0
  -25.2735   -9.5673   22.4804 H   0  0  0  0  0  0
  -23.9978   -7.4623   22.7499 H   0  0  0  0  0  0
  -21.0832   -8.8746   19.8967 H   0  0  0  0  0  0
  -22.3667  -10.9659   19.6202 H   0  0  0  0  0  0
  -21.1989   -7.6137   23.9695 H   0  0  0  0  0  0
  -21.1490   -6.0532   25.9065 H   0  0  0  0  0  0
  -22.0600   -2.7608   23.2837 H   0  0  0  0  0  0
  -22.4035  -11.9845   22.4754 H   0  0  0  0  0  0
  -21.1102  -13.1309   22.2655 H   0  0  0  0  0  0
  -24.6410  -15.8280   20.4960 H   0  0  0  0  0  0
  -26.2872  -15.6378   20.1723 H   0  0  0  0  0  0
  -26.7166  -32.5438   23.1099 H   0  0  0  0  0  0
  -25.0094  -33.9719   25.0413 H   0  0  0  0  0  0
  -22.7248  -31.2998   21.3812 H   0  0  0  0  0  0
  -23.3756  -35.9621   23.3329 H   0  0  0  0  0  0
  -24.3623  -36.8887   22.2074 H   0  0  0  0  0  0
  -23.7274  -37.6497   23.6671 H   0  0  0  0  0  0
  -26.1091  -31.5235   20.6039 H   0  0  0  0  0  0
  -26.8503  -30.8325   22.0136 H   0  0  0  0  0  0
  -28.1249  -28.9421   21.2492 H   0  0  0  0  0  0
  -26.0291  -25.9186   19.0095 H   0  0  0  0  0  0
  -23.9974  -27.3022   19.0030 H   0  0  0  0  0  0
  -23.7915  -30.5818   19.4000 H   0  0  0  0  0  0
  -22.7761  -29.2427   19.8386 H   0  0  0  0  0  0
  -25.1291  -36.1909   25.0847 H   0  0  0  0  0  0
  -20.9987  -28.3260   24.1408 H   0  0  0  0  0  0
  -20.5742  -26.2300   23.3606 H   0  0  0  0  0  0
  -21.6660  -26.7469   22.1188 H   0  0  0  0  0  0
  -19.6964  -25.6288   21.1266 H   0  0  0  0  0  0
  -19.6725  -27.3171   20.6738 H   0  0  0  0  0  0
  -17.4222  -26.6703   21.4018 H   0  0  0  0  0  0
  -18.0331  -26.0085   22.9034 H   0  0  0  0  0  0
  -19.7995  -30.7247   24.2242 H   0  0  0  0  0  0
  -17.5094  -31.6275   24.5157 H   0  0  0  0  0  0
  -15.5399  -30.2998   23.7677 H   0  0  0  0  0  0
  -15.8713  -28.0858   22.7008 H   0  0  0  0  0  0
  -24.5868  -30.7111   25.7797 H   0  0  0  0  0  0
  -24.8933  -32.2944   26.4853 H   0  0  0  0  0  0
  -25.8049  -30.8951   27.0244 H   0  0  0  0  0  0
  -26.2870  -29.6785   24.1166 H   0  0  0  0  0  0
  -27.4085  -29.7242   25.4579 H   0  0  0  0  0  0
  -27.8726  -30.4363   23.9327 H   0  0  0  0  0  0
  -27.2546  -33.3658   26.2027 H   0  0  0  0  0  0
  -28.3803  -32.6928   25.0337 H   0  0  0  0  0  0
  -28.0656  -31.8550   26.5455 H   0  0  0  0  0  0
  -28.2536  -38.0094   24.7472 H   0  0  0  0  0  0
  -28.1082  -36.2620   24.6334 H   0  0  0  0  0  0
  -27.2297  -37.1469   25.8873 H   0  0  0  0  0  0
  -20.9403  -29.8816   21.6901 H   0  0  0  0  0  0
  -26.0162  -38.2840   24.1414 H   0  0  0  0  0  0
  -31.5774  -20.1348   20.6831 H   0  0  0  0  0  0
  -31.7712  -17.6896   20.3812 H   0  0  0  0  0  0
  -27.4292  -19.7313   21.6278 H   0  0  0  0  0  0
  -28.1201  -23.7546   26.4135 H   0  0  0  0  0  0
  -28.9199  -25.1924   25.7748 H   0  0  0  0  0  0
  -29.7621  -23.6432   25.7915 H   0  0  0  0  0  0
  -30.5256  -22.3150   19.3946 H   0  0  0  0  0  0
  -31.2098  -23.4366   20.5697 H   0  0  0  0  0  0
  -30.1224  -24.0196   19.3035 H   0  0  0  0  0  0
  -25.7732  -16.7649   22.7960 H   0  0  0  0  0  0
  -25.6280  -17.9837   21.5426 H   0  0  0  0  0  0
  -26.5423  -18.3124   23.0305 H   0  0  0  0  0  0
  -30.2344  -21.7826   22.3335 H   0  0  0  0  0  0
  -28.5124  -21.6265   22.4004 H   0  0  0  0  0  0
  -27.2881  -24.3200   24.1091 H   0  0  0  0  0  0
  -28.0163  -22.7383   24.1854 H   0  0  0  0  0  0
  -30.1754  -23.6879   23.2407 H   0  0  0  0  0  0
  -29.5484  -25.2343   23.4399 H   0  0  0  0  0  0
  -30.0514  -25.8365   20.9523 H   0  0  0  0  0  0
  -28.7791  -26.4337   21.9462 H   0  0  0  0  0  0
  -27.6058  -24.1534   21.7294 H   0  0  0  0  0  0
  -28.8258  -15.3711   21.1626 H   0  0  0  0  0  0
  -28.3925  -22.7545   20.2617 H   0  0  0  0  0  0
  1 25  1  0  0  0
  1 30  2  0  0  0
  1 85  1  0  0  0
  2  3  1  0  0  0
  2 25  1  0  0  0
  2 88  1  0  0  0
  2 89  1  0  0  0
  3  4  1  0  0  0
  3 90  1  0  0  0
  3 91  1  0  0  0
  4  5  1  0  0  0
  4 92  1  0  0  0
  4 93  1  0  0  0
  5  6  1  0  0  0
  5 26  1  0  0  0
  5 94  1  0  0  0
  6 25  1  0  0  0
  6 95  1  0  0  0
  6 96  1  0  0  0
  7  8  2  0  0  0
  7 26  1  0  0  0
  7 29  1  0  0  0
  8  9  1  0  0  0
  8 22  1  0  0  0
  9 10  1  0  0  0
  9 27  2  0  0  0
 10 11  2  0  0  0
 10 15  1  0  0  0
 11 12  1  0  0  0
 11 97  1  0  0  0
 12 13  2  0  0  0
 12 98  1  0  0  0
 13 14  1  0  0  0
 13 31  1  0  0  0
 14 15  2  0  0  0
 14 99  1  0  0  0
 15100  1  0  0  0
 16 17  2  0  0  0
 16 21  1  0  0  0
 16 31  1  0  0  0
 17 18  1  0  0  0
 17101  1  0  0  0
 18 19  2  0  0  0
 18102  1  0  0  0
 19 20  1  0  0  0
 19 24  1  0  0  0
 20 21  2  0  0  0
 20103  1  0  0  0
 21 23  1  0  0  0
 22 28  1  0  0  0
 22 32  2  0  0  0
 26 27  1  0  0  0
 28104  1  0  0  0
 28105  1  0  0  0
 29106  1  0  0  0
 29107  1  0  0  0
 33 34  1  0  0  0
 33 66  1  0  0  0
 33 70  2  0  0  0
 34 36  1  0  0  0
 34 59  1  0  0  0
 34108  1  0  0  0
 35 44  2  0  0  0
 35 45  1  0  0  0
 35 68  1  0  0  0
 36 56  1  0  0  0
 36109  1  0  0  0
 37 39  1  0  0  0
 37 47  1  0  0  0
 37 66  1  0  0  0
 37110  1  0  0  0
 38 43  2  0  0  0
 38 46  1  0  0  0
 38 47  1  0  0  0
 39 64  1  0  0  0
 39 67  2  0  0  0
 40 52  1  0  0  0
 40 53  2  0  0  0
 40 58  1  0  0  0
 41111  1  0  0  0
 41112  1  0  0  0
 41113  1  0  0  0
 41 48  1  0  0  0
 42 43  1  0  0  0
 42 66  1  0  0  0
 42114  1  0  0  0
 42115  1  0  0  0
 43 44  1  0  0  0
 44116  1  0  0  0
 45 46  2  0  0  0
 45117  1  0  0  0
 46118  1  0  0  0
 47119  1  0  0  0
 47120  1  0  0  0
 48 56  1  0  0  0
 48 65  1  0  0  0
 48121  1  0  0  0
 49 50  1  0  0  0
 49 53  1  0  0  0
 49 64  1  0  0  0
 49122  1  0  0  0
 50 51  1  0  0  0
 50123  1  0  0  0
 50124  1  0  0  0
 51 52  1  0  0  0
 51125  1  0  0  0
 51126  1  0  0  0
 52127  1  0  0  0
 52128  1  0  0  0
 53 54  1  0  0  0
 54 55  2  0  0  0
 54129  1  0  0  0
 55 57  1  0  0  0
 55130  1  0  0  0
 56 69  2  0  0  0
 57 58  2  0  0  0
 57131  1  0  0  0
 58132  1  0  0  0
 59 60  1  0  0  0
 59 61  1  0  0  0
 59 62  1  0  0  0
 60133  1  0  0  0
 60134  1  0  0  0
 60135  1  0  0  0
 61136  1  0  0  0
 61137  1  0  0  0
 61138  1  0  0  0
 62139  1  0  0  0
 62140  1  0  0  0
 62141  1  0  0  0
 63 65  1  0  0  0
 63142  1  0  0  0
 63143  1  0  0  0
 63144  1  0  0  0
 64145  1  0  0  0
 65146  1  0  0  0
 68 83  1  0  0  0
 71 72  2  0  0  0
 71 74  1  0  0  0
 71147  1  0  0  0
 72 75  1  0  0  0
 72148  1  0  0  0
 73 74  2  0  0  0
 73 76  1  0  0  0
 73149  1  0  0  0
 74 80  1  0  0  0
 75 76  2  0  0  0
 75 85  1  0  0  0
 76 87  1  0  0  0
 77 81  1  0  0  0
 77150  1  0  0  0
 77151  1  0  0  0
 77152  1  0  0  0
 78153  1  0  0  0
 78154  1  0  0  0
 78155  1  0  0  0
 78 86  1  0  0  0
 79 87  1  0  0  0
 79156  1  0  0  0
 79157  1  0  0  0
 79158  1  0  0  0
 80 86  1  0  0  0
 80159  1  0  0  0
 80160  1  0  0  0
 81 82  1  0  0  0
 81161  1  0  0  0
 81162  1  0  0  0
 82163  1  0  0  0
 82164  1  0  0  0
 82 84  1  0  0  0
 83 84  1  0  0  0
 83165  1  0  0  0
 83166  1  0  0  0
 84 86  1  0  0  0
 84167  1  0  0  0
 85168  1  0  0  0
 86169  1  0  0  0
M  CHG  1  86   1
M  ISO  4   1 100  68 101  83 101  85 100
M  END
> <chiral flag>
0

> <version>
0

> <s_m_source_file>
/data/baiqing/PycharmProjects/Reinvent-master-3.2/result/LINK_invent/BTK/process_docking_weight1_custom_sum_contain_oxygen_bond_distance_aromatic_linkinvent_7_9_3/rearranged_h_0007.sdf

> <i_m_source_file_index>
19

> <r_mmod_Potential_Energy-OPLS-2005>
141.30517578125

> <r_mmod_Stretch_Energy-OPLS-2005>
112.88744354248

> <r_mmod_Bend_Energy-OPLS-2005>
242.200790405273

> <r_mmod_Torsional_Energy-OPLS-2005>
267.441589355469

> <r_mmod_Improper_Torsional_Energy-OPLS-2005>
6.92641162872314

> <r_mmod_Van_der_Waal_Energy-OPLS-2005>
148.560256958008

> <r_mmod_Electrostatic_Energy-OPLS-2005>
-287.745941162109

> <r_mmod_Solvation_Energy-OPLS-2005>
-419.334503173828

> <b_mmod_Minimization_Converged-OPLS-2005>
0

> <r_mmod_RMS_Derivative-OPLS-2005>
3.72939848899841

$$$$
19
                    3D
 Structure written by MMmdl.
154162  0  0  1  0            999 V2000
  -30.7108  -14.6268   20.4661 C   0  0  0  0  0  0
  -30.4192  -12.3707   19.4872 C   0  0  0  0  0  0
  -29.5234  -12.5164   18.2410 C   0  0  0  0  0  0
  -28.0376  -12.3904   18.6298 C   0  0  0  0  0  0
  -27.6531  -13.2519   19.8619 C   0  0  2  0  0  0
  -28.7005  -13.1550   20.9979 C   0  0  0  0  0  0
  -25.2496  -13.8246   20.5676 C   0  0  0  0  0  0
  -24.1804  -13.0482   20.9207 C   0  0  0  0  0  0
  -24.6450  -11.6957   20.8755 C   0  0  0  0  0  0
  -23.9153  -10.4331   21.0423 C   0  0  0  0  0  0
  -24.3706   -9.4225   21.9188 C   0  0  0  0  0  0
  -23.6355   -8.2271   22.0761 C   0  0  0  0  0  0
  -22.4322   -8.0347   21.3568 C   0  0  0  0  0  0
  -21.9973   -9.0304   20.4677 C   0  0  0  0  0  0
  -22.7335  -10.2183   20.3052 C   0  0  0  0  0  0
  -21.6858   -6.0791   22.5275 C   0  0  0  0  0  0
  -21.4036   -6.5665   23.8220 C   0  0  0  0  0  0
  -21.3658   -5.6802   24.9155 C   0  0  0  0  0  0
  -21.6040   -4.3060   24.7199 C   0  0  0  0  0  0
  -21.8812   -3.8175   23.4303 C   0  0  0  0  0  0
  -21.9198   -4.7020   22.3371 C   0  0  0  0  0  0
  -22.7825  -13.5260   21.1856 C   0  0  0  0  0  0
  -22.1665   -4.2229   21.0940 F   0  0  0  0  0  0
  -21.5620   -3.4527   25.7690 F   0  0  0  0  0  0
  -30.0313  -13.4359   20.4296 N   0  0  0  0  0  0
  -26.2993  -12.9540   20.3339 N   0  0  0  0  0  0
  -25.9390  -11.6661   20.5770 N   0  0  0  0  0  0
  -22.0480  -12.8205   22.0431 N   0  0  0  0  0  0
  -25.4154  -15.2005   20.4022 N   0  0  0  0  0  0
  -31.8736  -14.7150   20.0715 O   0  0  0  0  0  0
  -21.6655   -6.8958   21.4251 O   0  0  0  0  0  0
  -22.3449  -14.5531   20.6733 O   0  0  0  0  0  0
  -24.6196  -31.8640   23.2021 C   0  0  0  0  0  0
  -25.9071  -32.4813   23.8347 C   0  0  1  0  0  0
  -27.2386  -27.4003   20.1077 C   0  0  0  0  0  0
  -25.5927  -33.8608   24.2299 N   0  0  0  0  0  0
  -23.4065  -30.4865   21.5427 C   0  0  2  0  0  0
  -24.8561  -28.9438   20.1140 C   0  0  0  0  0  0
  -22.7404  -29.4636   22.4923 C   0  0  0  0  0  0
  -18.0277  -28.1362   22.8461 C   0  0  0  0  0  0
  -24.1501  -36.7360   23.2618 C   0  0  0  0  0  0
  -25.9342  -30.8271   21.3454 C   0  0  0  0  0  0
  -26.0172  -29.4534   20.7055 C   0  0  0  0  0  0
  -27.2124  -28.6911   20.6949 C   0  0  0  0  0  0
  -26.0535  -26.9064   19.5192 C   0  0  0  0  0  0
  -24.8715  -27.6705   19.5174 C   0  0  0  0  0  0
  -23.6182  -29.8132   20.1587 C   0  0  0  0  0  0
  -25.4097  -36.3108   24.0334 C   0  0  1  0  0  0
  -20.5863  -28.3656   23.1281 C   0  0  2  0  0  0
  -20.6759  -26.9385   22.5388 C   0  0  0  0  0  0
  -19.5744  -26.6370   21.5172 C   0  0  0  0  0  0
  -18.1925  -26.7905   22.1596 C   0  0  0  0  0  0
  -19.1523  -28.8816   23.2891 C   0  0  0  0  0  0
  -18.9467  -30.1411   23.8933 C   0  0  0  0  0  0
  -17.6464  -30.6554   24.0560 C   0  0  0  0  0  0
  -25.9024  -34.9481   23.5108 C   0  0  0  0  0  0
  -16.5353  -29.9057   23.6307 C   0  0  0  0  0  0
  -16.7261  -28.6477   23.0315 C   0  0  0  0  0  0
  -26.4471  -31.6589   25.0691 C   0  0  0  0  0  0
  -25.3762  -31.3717   26.1473 C   0  0  0  0  0  0
  -27.0264  -30.3038   24.6016 C   0  0  0  0  0  0
  -27.6028  -32.4292   25.7504 C   0  0  0  0  0  0
  -27.5589  -37.1826   24.8427 C   0  0  0  0  0  0
  -21.4124  -29.3057   22.3696 N   0  0  0  0  0  0
  -26.4271  -37.3810   23.9410 N   0  0  0  0  0  0
  -24.6729  -31.0717   22.0919 N   0  0  0  0  0  0
  -23.4162  -28.8153   23.2953 O   0  0  0  0  0  0
  -28.4218  -26.6753   20.1424 O   0  0  0  0  0  0
  -26.5575  -34.8943   22.4663 O   0  0  0  0  0  0
  -23.5388  -32.1385   23.7425 O   0  0  0  0  0  0
  -31.5993  -19.1266   20.0204 C   0  0  0  0  0  0
  -31.4733  -17.7336   20.2361 C   0  0  0  0  0  0
  -30.4851  -19.9795   20.1277 C   0  0  0  0  0  0
  -29.1027  -18.0439   20.6408 C   0  0  0  0  0  0
  -30.2132  -17.1554   20.5486 C   0  0  0  0  0  0
  -29.2176  -19.4529   20.4527 C   0  0  0  0  0  0
  -28.1039  -24.1997   20.6508 C   0  0  0  0  0  0
  -28.0625  -22.7514   20.0525 C   0  0  0  0  0  0
  -28.4862  -25.3201   19.6377 C   0  0  0  0  0  0
  -28.2288  -21.5984   21.0890 C   0  0  0  0  0  0
  -29.9829  -15.7353   20.7930 N   0  0  0  0  0  0
  -28.0923  -20.2637   20.5520 O   0  0  0  0  0  0
  -31.4728  -12.4190   19.2138 H   0  0  0  0  0  0
  -30.2789  -11.3944   19.9547 H   0  0  0  0  0  0
  -29.7904  -11.7652   17.4988 H   0  0  0  0  0  0
  -29.7031  -13.4835   17.7639 H   0  0  0  0  0  0
  -27.8398  -11.3397   18.8463 H   0  0  0  0  0  0
  -27.4064  -12.6547   17.7808 H   0  0  0  0  0  0
  -27.6568  -14.2826   19.5104 H   0  0  0  0  0  0
  -28.6858  -12.1606   21.4404 H   0  0  0  0  0  0
  -28.4554  -13.8473   21.8063 H   0  0  0  0  0  0
  -25.2893   -9.5654   22.4706 H   0  0  0  0  0  0
  -24.0105   -7.4623   22.7406 H   0  0  0  0  0  0
  -21.0911   -8.8836   19.8935 H   0  0  0  0  0  0
  -22.3856  -10.9714   19.6087 H   0  0  0  0  0  0
  -21.2051   -7.6177   23.9746 H   0  0  0  0  0  0
  -21.1477   -6.0515   25.9063 H   0  0  0  0  0  0
  -22.0607   -2.7655   23.2744 H   0  0  0  0  0  0
  -22.4137  -11.9905   22.4848 H   0  0  0  0  0  0
  -21.1050  -13.1135   22.2587 H   0  0  0  0  0  0
  -24.6281  -15.8415   20.4170 H   0  0  0  0  0  0
  -26.2419  -15.6114   19.9897 H   0  0  0  0  0  0
  -26.7149  -32.5524   23.1123 H   0  0  0  0  0  0
  -25.0169  -33.9761   25.0508 H   0  0  0  0  0  0
  -22.6994  -31.3054   21.3968 H   0  0  0  0  0  0
  -23.3746  -35.9703   23.3197 H   0  0  0  0  0  0
  -24.3624  -36.9063   22.2048 H   0  0  0  0  0  0
  -23.7256  -37.6557   23.6668 H   0  0  0  0  0  0
  -26.0212  -31.5765   20.5588 H   0  0  0  0  0  0
  -26.8330  -30.9120   21.9428 H   0  0  0  0  0  0
  -28.1098  -29.0890   21.1483 H   0  0  0  0  0  0
  -26.0083  -25.9245   19.0690 H   0  0  0  0  0  0
  -23.9794  -27.2608   19.0642 H   0  0  0  0  0  0
  -23.7289  -30.5858   19.3970 H   0  0  0  0  0  0
  -22.7426  -29.2353   19.8586 H   0  0  0  0  0  0
  -25.1253  -36.1971   25.0824 H   0  0  0  0  0  0
  -20.9995  -28.3240   24.1390 H   0  0  0  0  0  0
  -20.5618  -26.2276   23.3578 H   0  0  0  0  0  0
  -21.6647  -26.7390   22.1206 H   0  0  0  0  0  0
  -19.6898  -25.6286   21.1194 H   0  0  0  0  0  0
  -19.6673  -27.3190   20.6706 H   0  0  0  0  0  0
  -17.4188  -26.6632   21.4011 H   0  0  0  0  0  0
  -18.0345  -26.0037   22.8981 H   0  0  0  0  0  0
  -19.7957  -30.7200   24.2341 H   0  0  0  0  0  0
  -17.5028  -31.6246   24.5133 H   0  0  0  0  0  0
  -15.5352  -30.2955   23.7622 H   0  0  0  0  0  0
  -15.8670  -28.0802   22.6994 H   0  0  0  0  0  0
  -24.5916  -30.7062   25.7868 H   0  0  0  0  0  0
  -24.9000  -32.2896   26.4932 H   0  0  0  0  0  0
  -25.8179  -30.8912   27.0217 H   0  0  0  0  0  0
  -26.2765  -29.6850   24.1087 H   0  0  0  0  0  0
  -27.4076  -29.7228   25.4420 H   0  0  0  0  0  0
  -27.8578  -30.4377   23.9094 H   0  0  0  0  0  0
  -27.2614  -33.3568   26.2114 H   0  0  0  0  0  0
  -28.3867  -32.6885   25.0377 H   0  0  0  0  0  0
  -28.0647  -31.8393   26.5440 H   0  0  0  0  0  0
  -28.2524  -38.0205   24.7571 H   0  0  0  0  0  0
  -28.1175  -36.2752   24.6087 H   0  0  0  0  0  0
  -27.2351  -37.1290   25.8839 H   0  0  0  0  0  0
  -20.9231  -29.8897   21.7058 H   0  0  0  0  0  0
  -26.0160  -38.2889   24.1431 H   0  0  0  0  0  0
  -32.5559  -19.5634   19.7691 H   0  0  0  0  0  0
  -32.3629  -17.1298   20.1575 H   0  0  0  0  0  0
  -30.6114  -21.0373   19.9408 H   0  0  0  0  0  0
  -28.1325  -17.6319   20.8764 H   0  0  0  0  0  0
  -28.8328  -24.2229   21.4612 H   0  0  0  0  0  0
  -27.1433  -24.4283   21.1122 H   0  0  0  0  0  0
  -28.8428  -22.6539   19.2980 H   0  0  0  0  0  0
  -27.1116  -22.6214   19.5272 H   0  0  0  0  0  0
  -27.9654  -25.2114   18.6896 H   0  0  0  0  0  0
  -29.5315  -25.1508   19.3834 H   0  0  0  0  0  0
  -27.4483  -21.7030   21.8432 H   0  0  0  0  0  0
  -29.1667  -21.6970   21.6376 H   0  0  0  0  0  0
  -29.0543  -15.5175   21.1144 H   0  0  0  0  0  0
  1 25  1  0  0  0
  1 30  2  0  0  0
  1 81  1  0  0  0
  2  3  1  0  0  0
  2 25  1  0  0  0
  2 83  1  0  0  0
  2 84  1  0  0  0
  3  4  1  0  0  0
  3 85  1  0  0  0
  3 86  1  0  0  0
  4  5  1  0  0  0
  4 87  1  0  0  0
  4 88  1  0  0  0
  5  6  1  0  0  0
  5 26  1  0  0  0
  5 89  1  0  0  0
  6 25  1  0  0  0
  6 90  1  0  0  0
  6 91  1  0  0  0
  7  8  2  0  0  0
  7 26  1  0  0  0
  7 29  1  0  0  0
  8  9  1  0  0  0
  8 22  1  0  0  0
  9 10  1  0  0  0
  9 27  2  0  0  0
 10 11  2  0  0  0
 10 15  1  0  0  0
 11 12  1  0  0  0
 11 92  1  0  0  0
 12 13  2  0  0  0
 12 93  1  0  0  0
 13 14  1  0  0  0
 13 31  1  0  0  0
 14 15  2  0  0  0
 14 94  1  0  0  0
 15 95  1  0  0  0
 16 17  2  0  0  0
 16 21  1  0  0  0
 16 31  1  0  0  0
 17 18  1  0  0  0
 17 96  1  0  0  0
 18 19  2  0  0  0
 18 97  1  0  0  0
 19 20  1  0  0  0
 19 24  1  0  0  0
 20 21  2  0  0  0
 20 98  1  0  0  0
 21 23  1  0  0  0
 22 28  1  0  0  0
 22 32  2  0  0  0
 26 27  1  0  0  0
 28 99  1  0  0  0
 28100  1  0  0  0
 29101  1  0  0  0
 29102  1  0  0  0
 33 34  1  0  0  0
 33 66  1  0  0  0
 33 70  2  0  0  0
 34 36  1  0  0  0
 34 59  1  0  0  0
 34103  1  0  0  0
 35 44  2  0  0  0
 35 45  1  0  0  0
 35 68  1  0  0  0
 36 56  1  0  0  0
 36104  1  0  0  0
 37 39  1  0  0  0
 37 47  1  0  0  0
 37 66  1  0  0  0
 37105  1  0  0  0
 38 43  2  0  0  0
 38 46  1  0  0  0
 38 47  1  0  0  0
 39 64  1  0  0  0
 39 67  2  0  0  0
 40 52  1  0  0  0
 40 53  2  0  0  0
 40 58  1  0  0  0
 41106  1  0  0  0
 41107  1  0  0  0
 41108  1  0  0  0
 41 48  1  0  0  0
 42 43  1  0  0  0
 42 66  1  0  0  0
 42109  1  0  0  0
 42110  1  0  0  0
 43 44  1  0  0  0
 44111  1  0  0  0
 45 46  2  0  0  0
 45112  1  0  0  0
 46113  1  0  0  0
 47114  1  0  0  0
 47115  1  0  0  0
 48 56  1  0  0  0
 48 65  1  0  0  0
 48116  1  0  0  0
 49 50  1  0  0  0
 49 53  1  0  0  0
 49 64  1  0  0  0
 49117  1  0  0  0
 50 51  1  0  0  0
 50118  1  0  0  0
 50119  1  0  0  0
 51 52  1  0  0  0
 51120  1  0  0  0
 51121  1  0  0  0
 52122  1  0  0  0
 52123  1  0  0  0
 53 54  1  0  0  0
 54 55  2  0  0  0
 54124  1  0  0  0
 55 57  1  0  0  0
 55125  1  0  0  0
 56 69  2  0  0  0
 57 58  2  0  0  0
 57126  1  0  0  0
 58127  1  0  0  0
 59 60  1  0  0  0
 59 61  1  0  0  0
 59 62  1  0  0  0
 60128  1  0  0  0
 60129  1  0  0  0
 60130  1  0  0  0
 61131  1  0  0  0
 61132  1  0  0  0
 61133  1  0  0  0
 62134  1  0  0  0
 62135  1  0  0  0
 62136  1  0  0  0
 63 65  1  0  0  0
 63137  1  0  0  0
 63138  1  0  0  0
 63139  1  0  0  0
 64140  1  0  0  0
 65141  1  0  0  0
 68 79  1  0  0  0
 71 72  2  0  0  0
 71 73  1  0  0  0
 71142  1  0  0  0
 72 75  1  0  0  0
 72143  1  0  0  0
 73 76  2  0  0  0
 73144  1  0  0  0
 74 75  2  0  0  0
 74 76  1  0  0  0
 74145  1  0  0  0
 75 81  1  0  0  0
 76 82  1  0  0  0
 77 78  1  0  0  0
 77 79  1  0  0  0
 77146  1  0  0  0
 77147  1  0  0  0
 78 80  1  0  0  0
 78148  1  0  0  0
 78149  1  0  0  0
 79150  1  0  0  0
 79151  1  0  0  0
 80 82  1  0  0  0
 80152  1  0  0  0
 80153  1  0  0  0
 81154  1  0  0  0
M  ISO  4   1 100  68 101  79 101  81 100
M  END
> <chiral flag>
0

> <version>
0

> <s_m_source_file>
/data/baiqing/PycharmProjects/Reinvent-master-3.2/result/LINK_invent/BTK/process_docking_weight1_custom_sum_contain_oxygen_bond_distance_aromatic_linkinvent_7_9_3/rearranged_h_0007.sdf

> <i_m_source_file_index>
20

> <r_mmod_Potential_Energy-OPLS-2005>
12.3938570022583

> <r_mmod_Stretch_Energy-OPLS-2005>
53.158374786377

> <r_mmod_Bend_Energy-OPLS-2005>
125.004516601562

> <r_mmod_Torsional_Energy-OPLS-2005>
215.281326293945

> <r_mmod_Improper_Torsional_Energy-OPLS-2005>
4.95515584945679

> <r_mmod_Van_der_Waal_Energy-OPLS-2005>
147.654434204102

> <r_mmod_Electrostatic_Energy-OPLS-2005>
-362.478637695312

> <r_mmod_Solvation_Energy-OPLS-2005>
-207.331604003906

> <b_mmod_Minimization_Converged-OPLS-2005>
0

> <r_mmod_RMS_Derivative-OPLS-2005>
6.90671491622925

$$$$
20
                    3D
 Structure written by MMmdl.
177185  0  0  1  0            999 V2000
  -30.6678  -14.4467   20.5262 C   0  0  0  0  0  0
  -30.4262  -12.2673   19.4322 C   0  0  0  0  0  0
  -29.4927  -12.4578   18.2152 C   0  0  0  0  0  0
  -28.0139  -12.3287   18.6311 C   0  0  0  0  0  0
  -27.6616  -13.1860   19.8757 C   0  0  2  0  0  0
  -28.7004  -12.9650   21.0027 C   0  0  0  0  0  0
  -25.2612  -13.8139   20.5676 C   0  0  0  0  0  0
  -24.1836  -13.0448   20.9158 C   0  0  0  0  0  0
  -24.6352  -11.6897   20.8746 C   0  0  0  0  0  0
  -23.9021  -10.4291   21.0423 C   0  0  0  0  0  0
  -24.3593   -9.4207   21.9190 C   0  0  0  0  0  0
  -23.6287   -8.2237   22.0752 C   0  0  0  0  0  0
  -22.4264   -8.0270   21.3542 C   0  0  0  0  0  0
  -21.9889   -9.0243   20.4650 C   0  0  0  0  0  0
  -22.7198  -10.2130   20.3067 C   0  0  0  0  0  0
  -21.6852   -6.0726   22.5277 C   0  0  0  0  0  0
  -21.4010   -6.5636   23.8206 C   0  0  0  0  0  0
  -21.3661   -5.6795   24.9172 C   0  0  0  0  0  0
  -21.6052   -4.3055   24.7226 C   0  0  0  0  0  0
  -21.8820   -3.8141   23.4350 C   0  0  0  0  0  0
  -21.9193   -4.6956   22.3402 C   0  0  0  0  0  0
  -22.7864  -13.5259   21.1836 C   0  0  0  0  0  0
  -22.1665   -4.2142   21.0979 F   0  0  0  0  0  0
  -21.5636   -3.4539   25.7740 F   0  0  0  0  0  0
  -30.0378  -13.2485   20.4536 N   0  0  0  0  0  0
  -26.3005  -12.9253   20.3361 N   0  0  0  0  0  0
  -25.9268  -11.6440   20.5796 N   0  0  0  0  0  0
  -22.0510  -12.8258   22.0409 N   0  0  0  0  0  0
  -25.4408  -15.1845   20.4104 N   0  0  0  0  0  0
  -31.8187  -14.6459   20.1195 O   0  0  0  0  0  0
  -21.6640   -6.8863   21.4234 O   0  0  0  0  0  0
  -22.3551  -14.5563   20.6684 O   0  0  0  0  0  0
  -24.6136  -31.8726   23.2142 C   0  0  0  0  0  0
  -25.9037  -32.4860   23.8437 C   0  0  1  0  0  0
  -27.2323  -27.4752   20.0719 C   0  0  0  0  0  0
  -25.5911  -33.8652   24.2371 N   0  0  0  0  0  0
  -23.3978  -30.5000   21.5553 C   0  0  2  0  0  0
  -24.8395  -28.9734   20.1177 C   0  0  0  0  0  0
  -22.7393  -29.4704   22.5006 C   0  0  0  0  0  0
  -18.0280  -28.1377   22.8510 C   0  0  0  0  0  0
  -24.1484  -36.7317   23.2633 C   0  0  0  0  0  0
  -25.9242  -30.8488   21.3614 C   0  0  0  0  0  0
  -25.9992  -29.4857   20.7117 C   0  0  0  0  0  0
  -27.1971  -28.7407   20.6959 C   0  0  0  0  0  0
  -26.0426  -26.9565   19.5163 C   0  0  0  0  0  0
  -24.8521  -27.7003   19.5247 C   0  0  0  0  0  0
  -23.6015  -29.8359   20.1682 C   0  0  0  0  0  0
  -25.4107  -36.3121   24.0337 C   0  0  1  0  0  0
  -20.5870  -28.3673   23.1321 C   0  0  2  0  0  0
  -20.6772  -26.9418   22.5411 C   0  0  0  0  0  0
  -19.5740  -26.6395   21.5221 C   0  0  0  0  0  0
  -18.1921  -26.7927   22.1638 C   0  0  0  0  0  0
  -19.1529  -28.8846   23.2914 C   0  0  0  0  0  0
  -18.9450  -30.1451   23.8929 C   0  0  0  0  0  0
  -17.6448  -30.6584   24.0579 C   0  0  0  0  0  0
  -25.9040  -34.9493   23.5139 C   0  0  0  0  0  0
  -16.5345  -29.9088   23.6327 C   0  0  0  0  0  0
  -16.7266  -28.6504   23.0353 C   0  0  0  0  0  0
  -26.4481  -31.6613   25.0741 C   0  0  0  0  0  0
  -25.3781  -31.3694   26.1516 C   0  0  0  0  0  0
  -27.0273  -30.3047   24.6063 C   0  0  0  0  0  0
  -27.6091  -32.4307   25.7467 C   0  0  0  0  0  0
  -27.5582  -37.1813   24.8468 C   0  0  0  0  0  0
  -21.4139  -29.3042   22.3729 N   0  0  0  0  0  0
  -26.4302  -37.3797   23.9406 N   0  0  0  0  0  0
  -24.6641  -31.0865   22.1030 N   0  0  0  0  0  0
  -23.4183  -28.8230   23.3030 O   0  0  0  0  0  0
  -28.4134  -26.7704   20.0454 O   0  0  0  0  0  0
  -26.5587  -34.8935   22.4693 O   0  0  0  0  0  0
  -23.5344  -32.1445   23.7587 O   0  0  0  0  0  0
  -28.0642  -18.4540   19.4640 C   0  0  0  0  0  0
  -29.1069  -17.2641   17.6166 C   0  0  0  0  0  0
  -28.6020  -17.5152   20.3741 C   0  0  0  0  0  0
  -29.6678  -16.3489   18.5201 C   0  0  0  0  0  0
  -28.3033  -18.3218   18.0792 C   0  0  0  0  0  0
  -29.4089  -16.4520   19.9118 C   0  0  0  0  0  0
  -26.9818  -22.4588   16.6442 C   0  0  0  0  0  0
  -26.8618  -19.1348   16.1425 C   0  0  0  0  0  0
  -27.2442  -20.3759   14.0081 C   0  0  0  0  0  0
  -26.4054  -23.8397   16.9517 C   0  0  0  0  0  0
  -26.0698  -21.4856   15.8871 C   0  0  0  0  0  0
  -27.4420  -24.9757   17.0796 C   0  0  0  0  0  0
  -28.2856  -24.9371   18.3735 C   0  0  0  0  0  0
  -25.2041  -18.0197   14.8669 C   0  0  0  0  0  0
  -24.4524  -16.6822   14.8756 C   0  0  0  0  0  0
  -28.8559  -26.3168   18.7635 C   0  0  0  0  0  0
  -26.1962  -18.0446   15.9340 N   0  0  0  0  0  0
  -27.7850  -19.2453   17.1651 N   0  0  0  0  0  0
  -29.8578  -15.4695   20.8434 N   0  0  0  0  0  0
  -26.7567  -20.2949   15.3833 N   0  0  0  0  0  0
  -25.3952  -15.5581   14.7911 N   0  3  0  0  0  0
  -28.1180  -22.1297   17.0063 O   0  0  0  0  0  0
  -31.4700  -12.3734   19.1306 H   0  0  0  0  0  0
  -30.3310  -11.2566   19.8338 H   0  0  0  0  0  0
  -29.7276  -11.7149   17.4508 H   0  0  0  0  0  0
  -29.6623  -13.4292   17.7526 H   0  0  0  0  0  0
  -27.8275  -11.2758   18.8483 H   0  0  0  0  0  0
  -27.3601  -12.5853   17.7973 H   0  0  0  0  0  0
  -27.7050  -14.2269   19.5603 H   0  0  0  0  0  0
  -28.6614  -11.9344   21.3610 H   0  0  0  0  0  0
  -28.4666  -13.5830   21.8730 H   0  0  0  0  0  0
  -25.2742   -9.5699   22.4754 H   0  0  0  0  0  0
  -24.0010   -7.4631   22.7465 H   0  0  0  0  0  0
  -21.0816   -8.8751   19.8961 H   0  0  0  0  0  0
  -22.3648  -10.9671   19.6181 H   0  0  0  0  0  0
  -21.1995   -7.6141   23.9708 H   0  0  0  0  0  0
  -21.1489   -6.0521   25.9076 H   0  0  0  0  0  0
  -22.0599   -2.7600   23.2848 H   0  0  0  0  0  0
  -22.4133  -11.9918   22.4791 H   0  0  0  0  0  0
  -21.1136  -13.1297   22.2638 H   0  0  0  0  0  0
  -24.6834  -15.8459   20.5354 H   0  0  0  0  0  0
  -26.3028  -15.6226   20.1137 H   0  0  0  0  0  0
  -26.7122  -32.5579   23.1226 H   0  0  0  0  0  0
  -25.0106  -33.9837   25.0544 H   0  0  0  0  0  0
  -22.6869  -31.3183   21.4225 H   0  0  0  0  0  0
  -23.3753  -35.9645   23.3314 H   0  0  0  0  0  0
  -24.3584  -36.8911   22.2044 H   0  0  0  0  0  0
  -23.7241  -37.6529   23.6644 H   0  0  0  0  0  0
  -26.0342  -31.6171   20.5955 H   0  0  0  0  0  0
  -26.8152  -30.9023   21.9735 H   0  0  0  0  0  0
  -28.0957  -29.1428   21.1422 H   0  0  0  0  0  0
  -26.0064  -25.9701   19.0876 H   0  0  0  0  0  0
  -23.9556  -27.2863   19.0840 H   0  0  0  0  0  0
  -23.7103  -30.6125   19.4107 H   0  0  0  0  0  0
  -22.7262  -29.2546   19.8721 H   0  0  0  0  0  0
  -25.1289  -36.1998   25.0835 H   0  0  0  0  0  0
  -20.9983  -28.3243   24.1431 H   0  0  0  0  0  0
  -20.5695  -26.2285   23.3588 H   0  0  0  0  0  0
  -21.6636  -26.7470   22.1188 H   0  0  0  0  0  0
  -19.6885  -25.6313   21.1221 H   0  0  0  0  0  0
  -19.6659  -27.3237   20.6771 H   0  0  0  0  0  0
  -17.4190  -26.6710   21.4030 H   0  0  0  0  0  0
  -18.0314  -26.0057   22.9022 H   0  0  0  0  0  0
  -19.7925  -30.7268   24.2297 H   0  0  0  0  0  0
  -17.5002  -31.6262   24.5181 H   0  0  0  0  0  0
  -15.5347  -30.2996   23.7617 H   0  0  0  0  0  0
  -15.8671  -28.0823   22.7041 H   0  0  0  0  0  0
  -24.5910  -30.7095   25.7846 H   0  0  0  0  0  0
  -24.9049  -32.2850   26.5064 H   0  0  0  0  0  0
  -25.8163  -30.8773   27.0206 H   0  0  0  0  0  0
  -26.2751  -29.6814   24.1193 H   0  0  0  0  0  0
  -27.4128  -29.7275   25.4483 H   0  0  0  0  0  0
  -27.8580  -30.4358   23.9115 H   0  0  0  0  0  0
  -27.2751  -33.3626   26.2029 H   0  0  0  0  0  0
  -28.3891  -32.6811   25.0266 H   0  0  0  0  0  0
  -28.0756  -31.8427   26.5379 H   0  0  0  0  0  0
  -28.2621  -38.0087   24.7513 H   0  0  0  0  0  0
  -28.1055  -36.2630   24.6309 H   0  0  0  0  0  0
  -27.2302  -37.1482   25.8869 H   0  0  0  0  0  0
  -20.9287  -29.8763   21.6957 H   0  0  0  0  0  0
  -26.0193  -38.2875   24.1412 H   0  0  0  0  0  0
  -27.4521  -19.2623   19.8334 H   0  0  0  0  0  0
  -29.2970  -17.1508   16.5603 H   0  0  0  0  0  0
  -28.3831  -17.6247   21.4288 H   0  0  0  0  0  0
  -30.2762  -15.5538   18.1157 H   0  0  0  0  0  0
  -27.7337  -19.4548   13.6882 H   0  0  0  0  0  0
  -27.9717  -21.1821   13.9113 H   0  0  0  0  0  0
  -26.4249  -20.5751   13.3163 H   0  0  0  0  0  0
  -25.8201  -23.7637   17.8664 H   0  0  0  0  0  0
  -25.6965  -24.0861   16.1607 H   0  0  0  0  0  0
  -25.6080  -22.0209   15.0572 H   0  0  0  0  0  0
  -25.2571  -21.1887   16.5504 H   0  0  0  0  0  0
  -26.8931  -25.9159   17.0345 H   0  0  0  0  0  0
  -28.0984  -24.9951   16.2085 H   0  0  0  0  0  0
  -29.1116  -24.2366   18.2467 H   0  0  0  0  0  0
  -27.7012  -24.5332   19.2010 H   0  0  0  0  0  0
  -24.4825  -18.8321   14.9789 H   0  0  0  0  0  0
  -25.6794  -18.1459   13.8935 H   0  0  0  0  0  0
  -23.7550  -16.6407   14.0380 H   0  0  0  0  0  0
  -23.8564  -16.5865   15.7845 H   0  0  0  0  0  0
  -29.9432  -26.2424   18.8047 H   0  0  0  0  0  0
  -28.6536  -27.0720   18.0001 H   0  0  0  0  0  0
  -28.1434  -20.1848   17.3388 H   0  0  0  0  0  0
  -29.1581  -15.2220   21.5280 H   0  0  0  0  0  0
  -25.9832  -15.6633   13.9845 H   0  0  0  0  0  0
  -24.9072  -14.6823   14.7373 H   0  0  0  0  0  0
  -25.9740  -15.5768   15.6124 H   0  0  0  0  0  0
  1 25  1  0  0  0
  1 30  2  0  0  0
  1 89  1  0  0  0
  2  3  1  0  0  0
  2 25  1  0  0  0
  2 93  1  0  0  0
  2 94  1  0  0  0
  3  4  1  0  0  0
  3 95  1  0  0  0
  3 96  1  0  0  0
  4  5  1  0  0  0
  4 97  1  0  0  0
  4 98  1  0  0  0
  5  6  1  0  0  0
  5 26  1  0  0  0
  5 99  1  0  0  0
  6 25  1  0  0  0
  6100  1  0  0  0
  6101  1  0  0  0
  7  8  2  0  0  0
  7 26  1  0  0  0
  7 29  1  0  0  0
  8  9  1  0  0  0
  8 22  1  0  0  0
  9 10  1  0  0  0
  9 27  2  0  0  0
 10 11  2  0  0  0
 10 15  1  0  0  0
 11 12  1  0  0  0
 11102  1  0  0  0
 12 13  2  0  0  0
 12103  1  0  0  0
 13 14  1  0  0  0
 13 31  1  0  0  0
 14 15  2  0  0  0
 14104  1  0  0  0
 15105  1  0  0  0
 16 17  2  0  0  0
 16 21  1  0  0  0
 16 31  1  0  0  0
 17 18  1  0  0  0
 17106  1  0  0  0
 18 19  2  0  0  0
 18107  1  0  0  0
 19 20  1  0  0  0
 19 24  1  0  0  0
 20 21  2  0  0  0
 20108  1  0  0  0
 21 23  1  0  0  0
 22 28  1  0  0  0
 22 32  2  0  0  0
 26 27  1  0  0  0
 28109  1  0  0  0
 28110  1  0  0  0
 29111  1  0  0  0
 29112  1  0  0  0
 33 34  1  0  0  0
 33 66  1  0  0  0
 33 70  2  0  0  0
 34 36  1  0  0  0
 34 59  1  0  0  0
 34113  1  0  0  0
 35 44  2  0  0  0
 35 45  1  0  0  0
 35 68  1  0  0  0
 36 56  1  0  0  0
 36114  1  0  0  0
 37 39  1  0  0  0
 37 47  1  0  0  0
 37 66  1  0  0  0
 37115  1  0  0  0
 38 43  2  0  0  0
 38 46  1  0  0  0
 38 47  1  0  0  0
 39 64  1  0  0  0
 39 67  2  0  0  0
 40 52  1  0  0  0
 40 53  2  0  0  0
 40 58  1  0  0  0
 41116  1  0  0  0
 41117  1  0  0  0
 41118  1  0  0  0
 41 48  1  0  0  0
 42 43  1  0  0  0
 42 66  1  0  0  0
 42119  1  0  0  0
 42120  1  0  0  0
 43 44  1  0  0  0
 44121  1  0  0  0
 45 46  2  0  0  0
 45122  1  0  0  0
 46123  1  0  0  0
 47124  1  0  0  0
 47125  1  0  0  0
 48 56  1  0  0  0
 48 65  1  0  0  0
 48126  1  0  0  0
 49 50  1  0  0  0
 49 53  1  0  0  0
 49 64  1  0  0  0
 49127  1  0  0  0
 50 51  1  0  0  0
 50128  1  0  0  0
 50129  1  0  0  0
 51 52  1  0  0  0
 51130  1  0  0  0
 51131  1  0  0  0
 52132  1  0  0  0
 52133  1  0  0  0
 53 54  1  0  0  0
 54 55  2  0  0  0
 54134  1  0  0  0
 55 57  1  0  0  0
 55135  1  0  0  0
 56 69  2  0  0  0
 57 58  2  0  0  0
 57136  1  0  0  0
 58137  1  0  0  0
 59 60  1  0  0  0
 59 61  1  0  0  0
 59 62  1  0  0  0
 60138  1  0  0  0
 60139  1  0  0  0
 60140  1  0  0  0
 61141  1  0  0  0
 61142  1  0  0  0
 61143  1  0  0  0
 62144  1  0  0  0
 62145  1  0  0  0
 62146  1  0  0  0
 63 65  1  0  0  0
 63147  1  0  0  0
 63148  1  0  0  0
 63149  1  0  0  0
 64150  1  0  0  0
 65151  1  0  0  0
 68 86  1  0  0  0
 71 73  2  0  0  0
 71 75  1  0  0  0
 71152  1  0  0  0
 72 74  1  0  0  0
 72 75  2  0  0  0
 72153  1  0  0  0
 73 76  1  0  0  0
 73154  1  0  0  0
 74 76  2  0  0  0
 74155  1  0  0  0
 75 88  1  0  0  0
 76 89  1  0  0  0
 77 80  1  0  0  0
 77 81  1  0  0  0
 77 92  2  0  0  0
 78 87  2  0  0  0
 78 88  1  0  0  0
 78 90  1  0  0  0
 79 90  1  0  0  0
 79156  1  0  0  0
 79157  1  0  0  0
 79158  1  0  0  0
 80 82  1  0  0  0
 80159  1  0  0  0
 80160  1  0  0  0
 81 90  1  0  0  0
 81161  1  0  0  0
 81162  1  0  0  0
 82 83  1  0  0  0
 82163  1  0  0  0
 82164  1  0  0  0
 83 86  1  0  0  0
 83165  1  0  0  0
 83166  1  0  0  0
 84 85  1  0  0  0
 84 87  1  0  0  0
 84167  1  0  0  0
 84168  1  0  0  0
 85 91  1  0  0  0
 85169  1  0  0  0
 85170  1  0  0  0
 86171  1  0  0  0
 86172  1  0  0  0
 88173  1  0  0  0
 89174  1  0  0  0
 91175  1  0  0  0
 91176  1  0  0  0
 91177  1  0  0  0
M  CHG  1  91   1
M  ISO  4   1 100  68 101  86 101  89 100
M  END
> <chiral flag>
0

> <version>
0

> <s_m_source_file>
/data/baiqing/PycharmProjects/Reinvent-master-3.2/result/LINK_invent/BTK/process_docking_weight1_custom_sum_contain_oxygen_bond_distance_aromatic_linkinvent_7_9_3/rearranged_h_0007.sdf

> <i_m_source_file_index>
21

> <r_mmod_Potential_Energy-OPLS-2005>
-420.900939941406

> <r_mmod_Stretch_Energy-OPLS-2005>
34.7043418884277

> <r_mmod_Bend_Energy-OPLS-2005>
100.279159545898

> <r_mmod_Torsional_Energy-OPLS-2005>
302.730529785156

> <r_mmod_Improper_Torsional_Energy-OPLS-2005>
9.14276313781738

> <r_mmod_Van_der_Waal_Energy-OPLS-2005>
160.705810546875

> <r_mmod_Electrostatic_Energy-OPLS-2005>
-563.60302734375

> <r_mmod_Solvation_Energy-OPLS-2005>
-477.255340576172

> <b_mmod_Minimization_Converged-OPLS-2005>
0

> <r_mmod_RMS_Derivative-OPLS-2005>
3.51461052894592

$$$$
21
                    3D
 Structure written by MMmdl.
176184  0  0  1  0            999 V2000
  -30.7829  -14.3263   20.7324 C   0  0  0  0  0  0
  -30.4195  -12.2946   19.3841 C   0  0  0  0  0  0
  -29.4830  -12.5436   18.1885 C   0  0  0  0  0  0
  -28.0091  -12.3901   18.6068 C   0  0  0  0  0  0
  -27.6684  -13.2021   19.8834 C   0  0  2  0  0  0
  -28.7036  -12.9269   20.9956 C   0  0  0  0  0  0
  -25.2610  -13.8160   20.5668 C   0  0  0  0  0  0
  -24.1841  -13.0436   20.9158 C   0  0  0  0  0  0
  -24.6392  -11.6908   20.8724 C   0  0  0  0  0  0
  -23.9058  -10.4293   21.0403 C   0  0  0  0  0  0
  -24.3615   -9.4212   21.9182 C   0  0  0  0  0  0
  -23.6292   -8.2246   22.0753 C   0  0  0  0  0  0
  -22.4270   -8.0286   21.3547 C   0  0  0  0  0  0
  -21.9904   -9.0261   20.4649 C   0  0  0  0  0  0
  -22.7235  -10.2137   20.3051 C   0  0  0  0  0  0
  -21.6853   -6.0737   22.5280 C   0  0  0  0  0  0
  -21.4014   -6.5639   23.8214 C   0  0  0  0  0  0
  -21.3660   -5.6791   24.9177 C   0  0  0  0  0  0
  -21.6046   -4.3055   24.7225 C   0  0  0  0  0  0
  -21.8818   -3.8147   23.4348 C   0  0  0  0  0  0
  -21.9194   -4.6963   22.3403 C   0  0  0  0  0  0
  -22.7872  -13.5250   21.1838 C   0  0  0  0  0  0
  -22.1664   -4.2147   21.0983 F   0  0  0  0  0  0
  -21.5628   -3.4535   25.7738 F   0  0  0  0  0  0
  -30.0513  -13.2159   20.4669 N   0  0  0  0  0  0
  -26.3049  -12.9318   20.3382 N   0  0  0  0  0  0
  -25.9317  -11.6479   20.5750 N   0  0  0  0  0  0
  -22.0506  -12.8237   22.0398 N   0  0  0  0  0  0
  -25.4351  -15.1871   20.4102 N   0  0  0  0  0  0
  -31.7731  -14.6671   20.0764 O   0  0  0  0  0  0
  -21.6638   -6.8880   21.4241 O   0  0  0  0  0  0
  -22.3557  -14.5557   20.6704 O   0  0  0  0  0  0
  -24.6074  -31.8714   23.2136 C   0  0  0  0  0  0
  -25.8987  -32.4849   23.8428 C   0  0  1  0  0  0
  -27.2711  -27.4914   20.0892 C   0  0  0  0  0  0
  -25.5854  -33.8647   24.2352 N   0  0  0  0  0  0
  -23.3974  -30.4940   21.5465 C   0  0  2  0  0  0
  -24.8538  -28.9625   20.1179 C   0  0  0  0  0  0
  -22.7369  -29.4676   22.4937 C   0  0  0  0  0  0
  -18.0278  -28.1368   22.8486 C   0  0  0  0  0  0
  -24.1479  -36.7333   23.2640 C   0  0  0  0  0  0
  -25.9214  -30.8516   21.3657 C   0  0  0  0  0  0
  -26.0064  -29.4907   20.7113 C   0  0  0  0  0  0
  -27.2163  -28.7690   20.6931 C   0  0  0  0  0  0
  -26.0965  -26.9608   19.5177 C   0  0  0  0  0  0
  -24.8914  -27.6917   19.5150 C   0  0  0  0  0  0
  -23.6120  -29.8237   20.1622 C   0  0  0  0  0  0
  -25.4099  -36.3127   24.0340 C   0  0  1  0  0  0
  -20.5869  -28.3668   23.1309 C   0  0  2  0  0  0
  -20.6753  -26.9402   22.5413 C   0  0  0  0  0  0
  -19.5734  -26.6385   21.5200 C   0  0  0  0  0  0
  -18.1920  -26.7914   22.1625 C   0  0  0  0  0  0
  -19.1525  -28.8825   23.2907 C   0  0  0  0  0  0
  -18.9459  -30.1435   23.8917 C   0  0  0  0  0  0
  -17.6462  -30.6583   24.0565 C   0  0  0  0  0  0
  -25.9014  -34.9493   23.5149 C   0  0  0  0  0  0
  -16.5350  -29.9089   23.6319 C   0  0  0  0  0  0
  -16.7270  -28.6500   23.0340 C   0  0  0  0  0  0
  -26.4462  -31.6601   25.0728 C   0  0  0  0  0  0
  -25.3765  -31.3679   26.1483 C   0  0  0  0  0  0
  -27.0250  -30.3027   24.6100 C   0  0  0  0  0  0
  -27.6058  -32.4278   25.7497 C   0  0  0  0  0  0
  -27.5590  -37.1818   24.8459 C   0  0  0  0  0  0
  -21.4095  -29.3044   22.3680 N   0  0  0  0  0  0
  -26.4292  -37.3805   23.9412 N   0  0  0  0  0  0
  -24.6585  -31.0857   22.1008 N   0  0  0  0  0  0
  -23.4160  -28.8218   23.2961 O   0  0  0  0  0  0
  -28.4036  -26.7085   20.0196 O   0  0  0  0  0  0
  -26.5593  -34.8954   22.4720 O   0  0  0  0  0  0
  -23.5273  -32.1458   23.7540 O   0  0  0  0  0  0
  -31.2787  -19.2461   18.9954 C   0  0  0  0  0  0
  -31.1651  -20.9358   20.7444 C   0  0  0  0  0  0
  -31.1186  -20.2413   18.0147 C   0  0  0  0  0  0
  -31.0229  -21.9325   19.7604 C   0  0  0  0  0  0
  -31.2811  -19.5783   20.3713 C   0  0  0  0  0  0
  -30.9869  -21.5971   18.3927 C   0  0  0  0  0  0
  -30.6603  -17.4273   21.3191 C   0  0  0  0  0  0
  -32.3579  -18.7861   22.4700 C   0  0  0  0  0  0
  -30.9692  -16.2650   22.2839 C   0  0  0  0  0  0
  -29.1539  -26.0298   15.6918 C   0  0  0  0  0  0
  -28.9688  -27.0315   16.8450 C   0  0  0  0  0  0
  -29.1428  -24.5707   16.1866 C   0  0  0  0  0  0
  -30.2743  -27.2499   17.6404 C   0  0  0  0  0  0
  -30.1530  -23.6615   15.4641 C   0  0  0  0  0  0
  -30.1246  -28.0980   18.9184 C   0  0  0  0  0  0
  -30.3578  -22.3282   16.1934 C   0  0  0  0  0  0
  -29.6920  -27.3028   20.1687 C   0  0  0  0  0  0
  -30.3967  -14.9973   21.8240 N   0  0  0  0  0  0
  -31.4156  -18.5577   21.3654 N   0  0  0  0  0  0
  -29.6977  -17.2964   20.5499 O   0  0  0  0  0  0
  -30.8446  -22.6282   17.4970 O   0  0  0  0  0  0
  -31.4608  -12.4092   19.0769 H   0  0  0  0  0  0
  -30.3267  -11.2659   19.7348 H   0  0  0  0  0  0
  -29.7166  -11.8529   17.3776 H   0  0  0  0  0  0
  -29.6492  -13.5471   17.7929 H   0  0  0  0  0  0
  -27.8201  -11.3301   18.7799 H   0  0  0  0  0  0
  -27.3527  -12.6863   17.7873 H   0  0  0  0  0  0
  -27.7324  -14.2595   19.6249 H   0  0  0  0  0  0
  -28.6610  -11.8797   21.2990 H   0  0  0  0  0  0
  -28.4430  -13.4930   21.8900 H   0  0  0  0  0  0
  -25.2762   -9.5690   22.4748 H   0  0  0  0  0  0
  -24.0008   -7.4638   22.7468 H   0  0  0  0  0  0
  -21.0834   -8.8783   19.8959 H   0  0  0  0  0  0
  -22.3700  -10.9675   19.6153 H   0  0  0  0  0  0
  -21.2003   -7.6145   23.9719 H   0  0  0  0  0  0
  -21.1483   -6.0520   25.9082 H   0  0  0  0  0  0
  -22.0595   -2.7609   23.2848 H   0  0  0  0  0  0
  -22.4122  -11.9897   22.4779 H   0  0  0  0  0  0
  -21.1134  -13.1276   22.2612 H   0  0  0  0  0  0
  -24.6758  -15.8500   20.5232 H   0  0  0  0  0  0
  -26.3037  -15.6242   20.1253 H   0  0  0  0  0  0
  -26.7050  -32.5610   23.1199 H   0  0  0  0  0  0
  -24.9932  -33.9812   25.0448 H   0  0  0  0  0  0
  -22.6830  -31.3074   21.4044 H   0  0  0  0  0  0
  -23.3734  -35.9673   23.3306 H   0  0  0  0  0  0
  -24.3565  -36.8952   22.2054 H   0  0  0  0  0  0
  -23.7253  -37.6557   23.6641 H   0  0  0  0  0  0
  -26.0390  -31.6244   20.6049 H   0  0  0  0  0  0
  -26.8035  -30.8993   21.9922 H   0  0  0  0  0  0
  -28.0881  -29.2136   21.1494 H   0  0  0  0  0  0
  -26.1290  -25.9845   19.0549 H   0  0  0  0  0  0
  -24.0081  -27.2758   19.0486 H   0  0  0  0  0  0
  -23.7248  -30.6012   19.4050 H   0  0  0  0  0  0
  -22.7388  -29.2420   19.8626 H   0  0  0  0  0  0
  -25.1280  -36.1990   25.0833 H   0  0  0  0  0  0
  -21.0013  -28.3268   24.1415 H   0  0  0  0  0  0
  -20.5624  -26.2298   23.3615 H   0  0  0  0  0  0
  -21.6631  -26.7411   22.1230 H   0  0  0  0  0  0
  -19.6901  -25.6303   21.1214 H   0  0  0  0  0  0
  -19.6676  -27.3208   20.6743 H   0  0  0  0  0  0
  -17.4186  -26.6677   21.4033 H   0  0  0  0  0  0
  -18.0335  -26.0057   22.9028 H   0  0  0  0  0  0
  -19.7937  -30.7241   24.2310 H   0  0  0  0  0  0
  -17.5021  -31.6270   24.5155 H   0  0  0  0  0  0
  -15.5352  -30.2997   23.7620 H   0  0  0  0  0  0
  -15.8676  -28.0825   22.7038 H   0  0  0  0  0  0
  -24.5948  -30.7007   25.7835 H   0  0  0  0  0  0
  -24.8939  -32.2811   26.4959 H   0  0  0  0  0  0
  -25.8173  -30.8851   27.0214 H   0  0  0  0  0  0
  -26.2782  -29.6832   24.1121 H   0  0  0  0  0  0
  -27.3937  -29.7229   25.4575 H   0  0  0  0  0  0
  -27.8667  -30.4291   23.9291 H   0  0  0  0  0  0
  -27.2700  -33.3550   26.2147 H   0  0  0  0  0  0
  -28.3872  -32.6866   25.0339 H   0  0  0  0  0  0
  -28.0716  -31.8334   26.5371 H   0  0  0  0  0  0
  -28.2598  -38.0125   24.7511 H   0  0  0  0  0  0
  -28.1097  -36.2657   24.6265 H   0  0  0  0  0  0
  -27.2305  -37.1467   25.8862 H   0  0  0  0  0  0
  -20.9223  -29.8809   21.6957 H   0  0  0  0  0  0
  -26.0185  -38.2887   24.1424 H   0  0  0  0  0  0
  -31.3929  -18.2182   18.6798 H   0  0  0  0  0  0
  -31.1703  -21.2259   21.7859 H   0  0  0  0  0  0
  -31.1143  -19.9377   16.9787 H   0  0  0  0  0  0
  -30.9221  -22.9657   20.0616 H   0  0  0  0  0  0
  -32.8200  -19.7722   22.4322 H   0  0  0  0  0  0
  -33.1774  -18.0679   22.4436 H   0  0  0  0  0  0
  -31.8563  -18.7012   23.4349 H   0  0  0  0  0  0
  -30.5569  -16.5041   23.2641 H   0  0  0  0  0  0
  -32.0443  -16.1312   22.4072 H   0  0  0  0  0  0
  -30.0875  -26.2581   15.1758 H   0  0  0  0  0  0
  -28.3640  -26.1597   14.9500 H   0  0  0  0  0  0
  -28.1643  -26.6836   17.4926 H   0  0  0  0  0  0
  -28.6361  -27.9888   16.4429 H   0  0  0  0  0  0
  -28.1370  -24.1550   16.1053 H   0  0  0  0  0  0
  -29.3642  -24.5564   17.2531 H   0  0  0  0  0  0
  -30.9878  -27.7465   16.9807 H   0  0  0  0  0  0
  -30.7332  -26.2941   17.8955 H   0  0  0  0  0  0
  -31.1188  -24.1624   15.3958 H   0  0  0  0  0  0
  -29.8308  -23.4836   14.4378 H   0  0  0  0  0  0
  -29.4667  -28.9487   18.7418 H   0  0  0  0  0  0
  -31.1020  -28.5289   19.1409 H   0  0  0  0  0  0
  -31.0725  -21.7169   15.6407 H   0  0  0  0  0  0
  -29.4168  -21.7775   16.2527 H   0  0  0  0  0  0
  -29.7623  -27.9161   21.0660 H   0  0  0  0  0  0
  -30.4040  -26.4922   20.3358 H   0  0  0  0  0  0
  -29.5860  -14.6497   22.3126 H   0  0  0  0  0  0
  1 25  1  0  0  0
  1 30  2  0  0  0
  1 88  1  0  0  0
  2  3  1  0  0  0
  2 25  1  0  0  0
  2 92  1  0  0  0
  2 93  1  0  0  0
  3  4  1  0  0  0
  3 94  1  0  0  0
  3 95  1  0  0  0
  4  5  1  0  0  0
  4 96  1  0  0  0
  4 97  1  0  0  0
  5  6  1  0  0  0
  5 26  1  0  0  0
  5 98  1  0  0  0
  6 25  1  0  0  0
  6 99  1  0  0  0
  6100  1  0  0  0
  7  8  2  0  0  0
  7 26  1  0  0  0
  7 29  1  0  0  0
  8  9  1  0  0  0
  8 22  1  0  0  0
  9 10  1  0  0  0
  9 27  2  0  0  0
 10 11  2  0  0  0
 10 15  1  0  0  0
 11 12  1  0  0  0
 11101  1  0  0  0
 12 13  2  0  0  0
 12102  1  0  0  0
 13 14  1  0  0  0
 13 31  1  0  0  0
 14 15  2  0  0  0
 14103  1  0  0  0
 15104  1  0  0  0
 16 17  2  0  0  0
 16 21  1  0  0  0
 16 31  1  0  0  0
 17 18  1  0  0  0
 17105  1  0  0  0
 18 19  2  0  0  0
 18106  1  0  0  0
 19 20  1  0  0  0
 19 24  1  0  0  0
 20 21  2  0  0  0
 20107  1  0  0  0
 21 23  1  0  0  0
 22 28  1  0  0  0
 22 32  2  0  0  0
 26 27  1  0  0  0
 28108  1  0  0  0
 28109  1  0  0  0
 29110  1  0  0  0
 29111  1  0  0  0
 33 34  1  0  0  0
 33 66  1  0  0  0
 33 70  2  0  0  0
 34 36  1  0  0  0
 34 59  1  0  0  0
 34112  1  0  0  0
 35 44  2  0  0  0
 35 45  1  0  0  0
 35 68  1  0  0  0
 36 56  1  0  0  0
 36113  1  0  0  0
 37 39  1  0  0  0
 37 47  1  0  0  0
 37 66  1  0  0  0
 37114  1  0  0  0
 38 43  2  0  0  0
 38 46  1  0  0  0
 38 47  1  0  0  0
 39 64  1  0  0  0
 39 67  2  0  0  0
 40 52  1  0  0  0
 40 53  2  0  0  0
 40 58  1  0  0  0
 41115  1  0  0  0
 41116  1  0  0  0
 41117  1  0  0  0
 41 48  1  0  0  0
 42 43  1  0  0  0
 42 66  1  0  0  0
 42118  1  0  0  0
 42119  1  0  0  0
 43 44  1  0  0  0
 44120  1  0  0  0
 45 46  2  0  0  0
 45121  1  0  0  0
 46122  1  0  0  0
 47123  1  0  0  0
 47124  1  0  0  0
 48 56  1  0  0  0
 48 65  1  0  0  0
 48125  1  0  0  0
 49 50  1  0  0  0
 49 53  1  0  0  0
 49 64  1  0  0  0
 49126  1  0  0  0
 50 51  1  0  0  0
 50127  1  0  0  0
 50128  1  0  0  0
 51 52  1  0  0  0
 51129  1  0  0  0
 51130  1  0  0  0
 52131  1  0  0  0
 52132  1  0  0  0
 53 54  1  0  0  0
 54 55  2  0  0  0
 54133  1  0  0  0
 55 57  1  0  0  0
 55134  1  0  0  0
 56 69  2  0  0  0
 57 58  2  0  0  0
 57135  1  0  0  0
 58136  1  0  0  0
 59 60  1  0  0  0
 59 61  1  0  0  0
 59 62  1  0  0  0
 60137  1  0  0  0
 60138  1  0  0  0
 60139  1  0  0  0
 61140  1  0  0  0
 61141  1  0  0  0
 61142  1  0  0  0
 62143  1  0  0  0
 62144  1  0  0  0
 62145  1  0  0  0
 63 65  1  0  0  0
 63146  1  0  0  0
 63147  1  0  0  0
 63148  1  0  0  0
 64149  1  0  0  0
 65150  1  0  0  0
 68 87  1  0  0  0
 71 73  2  0  0  0
 71 75  1  0  0  0
 71151  1  0  0  0
 72 74  1  0  0  0
 72 75  2  0  0  0
 72152  1  0  0  0
 73 76  1  0  0  0
 73153  1  0  0  0
 74 76  2  0  0  0
 74154  1  0  0  0
 75 89  1  0  0  0
 76 91  1  0  0  0
 77 79  1  0  0  0
 77 89  1  0  0  0
 77 90  2  0  0  0
 78 89  1  0  0  0
 78155  1  0  0  0
 78156  1  0  0  0
 78157  1  0  0  0
 79 88  1  0  0  0
 79158  1  0  0  0
 79159  1  0  0  0
 80 81  1  0  0  0
 80 82  1  0  0  0
 80160  1  0  0  0
 80161  1  0  0  0
 81 83  1  0  0  0
 81162  1  0  0  0
 81163  1  0  0  0
 82 84  1  0  0  0
 82164  1  0  0  0
 82165  1  0  0  0
 83 85  1  0  0  0
 83166  1  0  0  0
 83167  1  0  0  0
 84 86  1  0  0  0
 84168  1  0  0  0
 84169  1  0  0  0
 85 87  1  0  0  0
 85170  1  0  0  0
 85171  1  0  0  0
 86 91  1  0  0  0
 86172  1  0  0  0
 86173  1  0  0  0
 87174  1  0  0  0
 87175  1  0  0  0
 88176  1  0  0  0
M  ISO  4   1 100  68 101  87 101  88 100
M  END
> <chiral flag>
0

> <version>
0

> <s_m_source_file>
/data/baiqing/PycharmProjects/Reinvent-master-3.2/result/LINK_invent/BTK/process_docking_weight1_custom_sum_contain_oxygen_bond_distance_aromatic_linkinvent_7_9_3/rearranged_h_0007.sdf

> <i_m_source_file_index>
22

> <r_mmod_Potential_Energy-OPLS-2005>
-79.6945419311523

> <r_mmod_Stretch_Energy-OPLS-2005>
36.1067123413086

> <r_mmod_Bend_Energy-OPLS-2005>
106.568878173828

> <r_mmod_Torsional_Energy-OPLS-2005>
250.070159912109

> <r_mmod_Improper_Torsional_Energy-OPLS-2005>
2.16455316543579

> <r_mmod_Van_der_Waal_Energy-OPLS-2005>
177.008560180664

> <r_mmod_Electrostatic_Energy-OPLS-2005>
-436.015533447266

> <r_mmod_Solvation_Energy-OPLS-2005>
-222.005416870117

> <b_mmod_Minimization_Converged-OPLS-2005>
0

> <r_mmod_RMS_Derivative-OPLS-2005>
2.38032412528992

$$$$
22
                    3D
 Structure written by MMmdl.
167175  0  0  1  0            999 V2000
  -30.7215  -14.4783   20.4994 C   0  0  0  0  0  0
  -30.4134  -12.2922   19.4292 C   0  0  0  0  0  0
  -29.4899  -12.4708   18.2063 C   0  0  0  0  0  0
  -28.0070  -12.3667   18.6150 C   0  0  0  0  0  0
  -27.6574  -13.2109   19.8697 C   0  0  2  0  0  0
  -28.7064  -13.0416   20.9928 C   0  0  0  0  0  0
  -25.2575  -13.8170   20.5688 C   0  0  0  0  0  0
  -24.1834  -13.0451   20.9191 C   0  0  0  0  0  0
  -24.6399  -11.6927   20.8757 C   0  0  0  0  0  0
  -23.9065  -10.4308   21.0410 C   0  0  0  0  0  0
  -24.3619   -9.4225   21.9180 C   0  0  0  0  0  0
  -23.6307   -8.2253   22.0756 C   0  0  0  0  0  0
  -22.4292   -8.0281   21.3536 C   0  0  0  0  0  0
  -21.9920   -9.0259   20.4644 C   0  0  0  0  0  0
  -22.7246  -10.2142   20.3050 C   0  0  0  0  0  0
  -21.6854   -6.0740   22.5278 C   0  0  0  0  0  0
  -21.4011   -6.5646   23.8213 C   0  0  0  0  0  0
  -21.3652   -5.6784   24.9164 C   0  0  0  0  0  0
  -21.6052   -4.3051   24.7211 C   0  0  0  0  0  0
  -21.8829   -3.8155   23.4332 C   0  0  0  0  0  0
  -21.9206   -4.6973   22.3391 C   0  0  0  0  0  0
  -22.7852  -13.5255   21.1843 C   0  0  0  0  0  0
  -22.1667   -4.2162   21.0967 F   0  0  0  0  0  0
  -21.5636   -3.4534   25.7723 F   0  0  0  0  0  0
  -30.0311  -13.3120   20.4188 N   0  0  0  0  0  0
  -26.3014  -12.9361   20.3367 N   0  0  0  0  0  0
  -25.9332  -11.6513   20.5786 N   0  0  0  0  0  0
  -22.0467  -12.8257   22.0390 N   0  0  0  0  0  0
  -25.4290  -15.1895   20.4083 N   0  0  0  0  0  0
  -31.9000  -14.5754   20.1513 O   0  0  0  0  0  0
  -21.6645   -6.8892   21.4243 O   0  0  0  0  0  0
  -22.3550  -14.5557   20.6689 O   0  0  0  0  0  0
  -24.6095  -31.8725   23.2137 C   0  0  0  0  0  0
  -25.9017  -32.4842   23.8428 C   0  0  1  0  0  0
  -27.2461  -27.4764   20.1123 C   0  0  0  0  0  0
  -25.5910  -33.8641   24.2372 N   0  0  0  0  0  0
  -23.3955  -30.4962   21.5501 C   0  0  2  0  0  0
  -24.8468  -28.9644   20.1183 C   0  0  0  0  0  0
  -22.7382  -29.4692   22.4981 C   0  0  0  0  0  0
  -18.0282  -28.1393   22.8495 C   0  0  0  0  0  0
  -24.1484  -36.7311   23.2636 C   0  0  0  0  0  0
  -25.9185  -30.8531   21.3614 C   0  0  0  0  0  0
  -25.9986  -29.4870   20.7196 C   0  0  0  0  0  0
  -27.1994  -28.7499   20.7250 C   0  0  0  0  0  0
  -26.0841  -26.9667   19.4998 C   0  0  0  0  0  0
  -24.8809  -27.6993   19.5060 C   0  0  0  0  0  0
  -23.6068  -29.8273   20.1643 C   0  0  0  0  0  0
  -25.4101  -36.3123   24.0350 C   0  0  1  0  0  0
  -20.5869  -28.3672   23.1319 C   0  0  2  0  0  0
  -20.6781  -26.9418   22.5409 C   0  0  0  0  0  0
  -19.5759  -26.6396   21.5217 C   0  0  0  0  0  0
  -18.1928  -26.7949   22.1608 C   0  0  0  0  0  0
  -19.1530  -28.8844   23.2916 C   0  0  0  0  0  0
  -18.9456  -30.1450   23.8921 C   0  0  0  0  0  0
  -17.6466  -30.6600   24.0563 C   0  0  0  0  0  0
  -25.9029  -34.9483   23.5148 C   0  0  0  0  0  0
  -16.5357  -29.9106   23.6317 C   0  0  0  0  0  0
  -16.7273  -28.6524   23.0339 C   0  0  0  0  0  0
  -26.4476  -31.6585   25.0717 C   0  0  0  0  0  0
  -25.3761  -31.3680   26.1479 C   0  0  0  0  0  0
  -27.0284  -30.3029   24.6038 C   0  0  0  0  0  0
  -27.6082  -32.4274   25.7480 C   0  0  0  0  0  0
  -27.5584  -37.1807   24.8464 C   0  0  0  0  0  0
  -21.4122  -29.3036   22.3714 N   0  0  0  0  0  0
  -26.4283  -37.3808   23.9436 N   0  0  0  0  0  0
  -24.6590  -31.0875   22.1016 N   0  0  0  0  0  0
  -23.4171  -28.8240   23.3014 O   0  0  0  0  0  0
  -28.3736  -26.6938   20.0622 O   0  0  0  0  0  0
  -26.5558  -34.8926   22.4692 O   0  0  0  0  0  0
  -23.5301  -32.1447   23.7551 O   0  0  0  0  0  0
  -29.6392  -20.9526   22.4587 C   0  0  0  0  0  0
  -29.3268  -22.3248   22.5513 C   0  0  0  0  0  0
  -30.7223  -22.7849   20.6169 C   0  0  0  0  0  0
  -31.0455  -21.4167   20.5199 C   0  0  0  0  0  0
  -30.4900  -20.4880   21.4313 C   0  0  0  0  0  0
  -29.8565  -23.2556   21.6339 C   0  0  0  0  0  0
  -30.0128  -18.0561   21.2837 C   0  0  0  0  0  0
  -31.9733  -20.9620   19.4014 C   0  0  0  0  0  0
  -28.5044  -17.1797   18.5574 C   0  0  0  0  0  0
  -30.8411  -16.5543   17.7655 C   0  0  0  0  0  0
  -29.3536  -26.8732   21.0809 C   0  0  0  0  0  0
  -30.2093  -25.6023   21.1200 C   0  0  0  0  0  0
  -30.4200  -16.9442   20.3027 C   0  0  2  0  0  0
  -30.0163  -17.2923   18.8331 C   0  0  0  0  0  0
  -30.8322  -19.1215   21.2702 N   0  0  0  0  0  0
  -29.9891  -15.5883   20.6990 N   0  0  0  0  0  0
  -29.0078  -17.9446   21.9883 O   0  0  0  0  0  0
  -29.4727  -24.5725   21.7840 O   0  0  0  0  0  0
  -31.4607  -12.3684   19.1270 H   0  0  0  0  0  0
  -30.2986  -11.2942   19.8549 H   0  0  0  0  0  0
  -29.7194  -11.7184   17.4519 H   0  0  0  0  0  0
  -29.6720  -13.4362   17.7323 H   0  0  0  0  0  0
  -27.7896  -11.3158   18.8032 H   0  0  0  0  0  0
  -27.3693  -12.6609   17.7803 H   0  0  0  0  0  0
  -27.6830  -14.2490   19.5489 H   0  0  0  0  0  0
  -28.6834  -12.0276   21.3952 H   0  0  0  0  0  0
  -28.4898  -13.7074   21.8303 H   0  0  0  0  0  0
  -25.2759   -9.5721   22.4745 H   0  0  0  0  0  0
  -24.0040   -7.4648   22.7469 H   0  0  0  0  0  0
  -21.0847   -8.8775   19.8941 H   0  0  0  0  0  0
  -22.3698  -10.9677   19.6157 H   0  0  0  0  0  0
  -21.1971   -7.6145   23.9715 H   0  0  0  0  0  0
  -21.1470   -6.0502   25.9072 H   0  0  0  0  0  0
  -22.0607   -2.7617   23.2804 H   0  0  0  0  0  0
  -22.4071  -11.9929   22.4804 H   0  0  0  0  0  0
  -21.1084  -13.1307   22.2584 H   0  0  0  0  0  0
  -24.6587  -15.8417   20.5070 H   0  0  0  0  0  0
  -26.2814  -15.6293   20.0922 H   0  0  0  0  0  0
  -26.7100  -32.5595   23.1217 H   0  0  0  0  0  0
  -25.0129  -33.9817   25.0567 H   0  0  0  0  0  0
  -22.6828  -31.3121   21.4118 H   0  0  0  0  0  0
  -23.3767  -35.9623   23.3270 H   0  0  0  0  0  0
  -24.3590  -36.8939   22.2057 H   0  0  0  0  0  0
  -23.7191  -37.6499   23.6647 H   0  0  0  0  0  0
  -26.0186  -31.6151   20.5868 H   0  0  0  0  0  0
  -26.8106  -30.9155   21.9714 H   0  0  0  0  0  0
  -28.0793  -29.1715   21.1907 H   0  0  0  0  0  0
  -26.1152  -25.9948   19.0276 H   0  0  0  0  0  0
  -23.9978  -27.2883   19.0378 H   0  0  0  0  0  0
  -23.7169  -30.6032   19.4065 H   0  0  0  0  0  0
  -22.7328  -29.2461   19.8658 H   0  0  0  0  0  0
  -25.1269  -36.1986   25.0843 H   0  0  0  0  0  0
  -20.9983  -28.3248   24.1427 H   0  0  0  0  0  0
  -20.5720  -26.2287   23.3599 H   0  0  0  0  0  0
  -21.6646  -26.7490   22.1173 H   0  0  0  0  0  0
  -19.6921  -25.6297   21.1257 H   0  0  0  0  0  0
  -19.6712  -27.3198   20.6739 H   0  0  0  0  0  0
  -17.4215  -26.6714   21.3994 H   0  0  0  0  0  0
  -18.0322  -26.0084   22.8994 H   0  0  0  0  0  0
  -19.7940  -30.7258   24.2297 H   0  0  0  0  0  0
  -17.5032  -31.6275   24.5181 H   0  0  0  0  0  0
  -15.5359  -30.3017   23.7638 H   0  0  0  0  0  0
  -15.8674  -28.0866   22.7020 H   0  0  0  0  0  0
  -24.5896  -30.7084   25.7794 H   0  0  0  0  0  0
  -24.9005  -32.2842   26.4993 H   0  0  0  0  0  0
  -25.8130  -30.8773   27.0183 H   0  0  0  0  0  0
  -26.2785  -29.6796   24.1151 H   0  0  0  0  0  0
  -27.4128  -29.7256   25.4454 H   0  0  0  0  0  0
  -27.8602  -30.4342   23.9110 H   0  0  0  0  0  0
  -27.2752  -33.3597   26.2055 H   0  0  0  0  0  0
  -28.3917  -32.6776   25.0314 H   0  0  0  0  0  0
  -28.0718  -31.8373   26.5395 H   0  0  0  0  0  0
  -28.2577  -38.0129   24.7547 H   0  0  0  0  0  0
  -28.1097  -36.2657   24.6230 H   0  0  0  0  0  0
  -27.2321  -37.1384   25.8871 H   0  0  0  0  0  0
  -20.9269  -29.8744   21.6938 H   0  0  0  0  0  0
  -26.0171  -38.2886   24.1465 H   0  0  0  0  0  0
  -29.2158  -20.2664   23.1788 H   0  0  0  0  0  0
  -28.6710  -22.6656   23.3415 H   0  0  0  0  0  0
  -31.1454  -23.4454   19.8753 H   0  0  0  0  0  0
  -32.4076  -21.8100   18.8721 H   0  0  0  0  0  0
  -31.4263  -20.3628   18.6740 H   0  0  0  0  0  0
  -32.7972  -20.3676   19.7966 H   0  0  0  0  0  0
  -28.2574  -17.5585   17.5645 H   0  0  0  0  0  0
  -27.9232  -17.7616   19.2737 H   0  0  0  0  0  0
  -28.1577  -16.1510   18.6025 H   0  0  0  0  0  0
  -31.9094  -16.7069   17.9278 H   0  0  0  0  0  0
  -30.6121  -16.9255   16.7651 H   0  0  0  0  0  0
  -30.6527  -15.4817   17.7611 H   0  0  0  0  0  0
  -29.9751  -27.7348   20.8320 H   0  0  0  0  0  0
  -28.9134  -27.0535   22.0625 H   0  0  0  0  0  0
  -31.1259  -25.7881   21.6813 H   0  0  0  0  0  0
  -30.4878  -25.3709   20.0943 H   0  0  0  0  0  0
  -31.5127  -16.9654   20.3433 H   0  0  0  0  0  0
  -30.2541  -18.3467   18.6801 H   0  0  0  0  0  0
  -31.6645  -18.9694   20.7202 H   0  0  0  0  0  0
  -29.0275  -15.4842   20.9808 H   0  0  0  0  0  0
  1 25  1  0  0  0
  1 30  2  0  0  0
  1 86  1  0  0  0
  2  3  1  0  0  0
  2 25  1  0  0  0
  2 89  1  0  0  0
  2 90  1  0  0  0
  3  4  1  0  0  0
  3 91  1  0  0  0
  3 92  1  0  0  0
  4  5  1  0  0  0
  4 93  1  0  0  0
  4 94  1  0  0  0
  5  6  1  0  0  0
  5 26  1  0  0  0
  5 95  1  0  0  0
  6 25  1  0  0  0
  6 96  1  0  0  0
  6 97  1  0  0  0
  7  8  2  0  0  0
  7 26  1  0  0  0
  7 29  1  0  0  0
  8  9  1  0  0  0
  8 22  1  0  0  0
  9 10  1  0  0  0
  9 27  2  0  0  0
 10 11  2  0  0  0
 10 15  1  0  0  0
 11 12  1  0  0  0
 11 98  1  0  0  0
 12 13  2  0  0  0
 12 99  1  0  0  0
 13 14  1  0  0  0
 13 31  1  0  0  0
 14 15  2  0  0  0
 14100  1  0  0  0
 15101  1  0  0  0
 16 17  2  0  0  0
 16 21  1  0  0  0
 16 31  1  0  0  0
 17 18  1  0  0  0
 17102  1  0  0  0
 18 19  2  0  0  0
 18103  1  0  0  0
 19 20  1  0  0  0
 19 24  1  0  0  0
 20 21  2  0  0  0
 20104  1  0  0  0
 21 23  1  0  0  0
 22 28  1  0  0  0
 22 32  2  0  0  0
 26 27  1  0  0  0
 28105  1  0  0  0
 28106  1  0  0  0
 29107  1  0  0  0
 29108  1  0  0  0
 33 34  1  0  0  0
 33 66  1  0  0  0
 33 70  2  0  0  0
 34 36  1  0  0  0
 34 59  1  0  0  0
 34109  1  0  0  0
 35 44  2  0  0  0
 35 45  1  0  0  0
 35 68  1  0  0  0
 36 56  1  0  0  0
 36110  1  0  0  0
 37 39  1  0  0  0
 37 47  1  0  0  0
 37 66  1  0  0  0
 37111  1  0  0  0
 38 43  2  0  0  0
 38 46  1  0  0  0
 38 47  1  0  0  0
 39 64  1  0  0  0
 39 67  2  0  0  0
 40 52  1  0  0  0
 40 53  2  0  0  0
 40 58  1  0  0  0
 41112  1  0  0  0
 41113  1  0  0  0
 41114  1  0  0  0
 41 48  1  0  0  0
 42 43  1  0  0  0
 42 66  1  0  0  0
 42115  1  0  0  0
 42116  1  0  0  0
 43 44  1  0  0  0
 44117  1  0  0  0
 45 46  2  0  0  0
 45118  1  0  0  0
 46119  1  0  0  0
 47120  1  0  0  0
 47121  1  0  0  0
 48 56  1  0  0  0
 48 65  1  0  0  0
 48122  1  0  0  0
 49 50  1  0  0  0
 49 53  1  0  0  0
 49 64  1  0  0  0
 49123  1  0  0  0
 50 51  1  0  0  0
 50124  1  0  0  0
 50125  1  0  0  0
 51 52  1  0  0  0
 51126  1  0  0  0
 51127  1  0  0  0
 52128  1  0  0  0
 52129  1  0  0  0
 53 54  1  0  0  0
 54 55  2  0  0  0
 54130  1  0  0  0
 55 57  1  0  0  0
 55131  1  0  0  0
 56 69  2  0  0  0
 57 58  2  0  0  0
 57132  1  0  0  0
 58133  1  0  0  0
 59 60  1  0  0  0
 59 61  1  0  0  0
 59 62  1  0  0  0
 60134  1  0  0  0
 60135  1  0  0  0
 60136  1  0  0  0
 61137  1  0  0  0
 61138  1  0  0  0
 61139  1  0  0  0
 62140  1  0  0  0
 62141  1  0  0  0
 62142  1  0  0  0
 63 65  1  0  0  0
 63143  1  0  0  0
 63144  1  0  0  0
 63145  1  0  0  0
 64146  1  0  0  0
 65147  1  0  0  0
 68 81  1  0  0  0
 71 72  2  0  0  0
 71 75  1  0  0  0
 71148  1  0  0  0
 72 76  1  0  0  0
 72149  1  0  0  0
 73 74  1  0  0  0
 73 76  2  0  0  0
 73150  1  0  0  0
 74 75  2  0  0  0
 74 78  1  0  0  0
 75 85  1  0  0  0
 76 88  1  0  0  0
 77 83  1  0  0  0
 77 85  1  0  0  0
 77 87  2  0  0  0
 78151  1  0  0  0
 78152  1  0  0  0
 78153  1  0  0  0
 79154  1  0  0  0
 79155  1  0  0  0
 79156  1  0  0  0
 79 84  1  0  0  0
 80 84  1  0  0  0
 80157  1  0  0  0
 80158  1  0  0  0
 80159  1  0  0  0
 81 82  1  0  0  0
 81160  1  0  0  0
 81161  1  0  0  0
 82 88  1  0  0  0
 82162  1  0  0  0
 82163  1  0  0  0
 83 84  1  0  0  0
 83 86  1  0  0  0
 83164  1  0  0  0
 84165  1  0  0  0
 85166  1  0  0  0
 86167  1  0  0  0
M  ISO  4   1 100  68 101  81 101  86 100
M  END
> <chiral flag>
0

> <version>
0

> <s_m_source_file>
/data/baiqing/PycharmProjects/Reinvent-master-3.2/result/LINK_invent/BTK/process_docking_weight1_custom_sum_contain_oxygen_bond_distance_aromatic_linkinvent_7_9_3/rearranged_h_0007.sdf

> <i_m_source_file_index>
23

> <r_mmod_Potential_Energy-OPLS-2005>
-152.304977416992

> <r_mmod_Stretch_Energy-OPLS-2005>
35.1271095275879

> <r_mmod_Bend_Energy-OPLS-2005>
117.412956237793

> <r_mmod_Torsional_Energy-OPLS-2005>
246.440368652344

> <r_mmod_Improper_Torsional_Energy-OPLS-2005>
8.89396190643311

> <r_mmod_Van_der_Waal_Energy-OPLS-2005>
155.912353515625

> <r_mmod_Electrostatic_Energy-OPLS-2005>
-508.481414794922

> <r_mmod_Solvation_Energy-OPLS-2005>
-223.832244873047

> <b_mmod_Minimization_Converged-OPLS-2005>
0

> <r_mmod_RMS_Derivative-OPLS-2005>
3.06079435348511

$$$$
23
                    3D
 Structure written by MMmdl.
146153  0  0  1  0            999 V2000
  -30.3224  -15.5833   20.3418 C   0  0  0  0  0  0
  -30.4328  -13.0489   19.5272 C   0  0  0  0  0  0
  -29.5458  -12.6315   18.3203 C   0  0  0  0  0  0
  -28.1238  -12.2709   18.7778 C   0  0  0  0  0  0
  -27.6000  -13.2799   19.8214 C   0  0  2  0  0  0
  -28.6290  -13.5794   20.9376 C   0  0  0  0  0  0
  -25.2329  -13.8179   20.5822 C   0  0  0  0  0  0
  -24.1694  -13.0367   20.9288 C   0  0  0  0  0  0
  -24.6375  -11.6880   20.8781 C   0  0  0  0  0  0
  -23.9071  -10.4251   21.0409 C   0  0  0  0  0  0
  -24.3617   -9.4176   21.9187 C   0  0  0  0  0  0
  -23.6289   -8.2213   22.0748 C   0  0  0  0  0  0
  -22.4267   -8.0259   21.3535 C   0  0  0  0  0  0
  -21.9909   -9.0233   20.4634 C   0  0  0  0  0  0
  -22.7245  -10.2107   20.3049 C   0  0  0  0  0  0
  -21.6851   -6.0716   22.5276 C   0  0  0  0  0  0
  -21.4003   -6.5629   23.8212 C   0  0  0  0  0  0
  -21.3662   -5.6789   24.9173 C   0  0  0  0  0  0
  -21.6045   -4.3049   24.7233 C   0  0  0  0  0  0
  -21.8821   -3.8136   23.4355 C   0  0  0  0  0  0
  -21.9195   -4.6949   22.3407 C   0  0  0  0  0  0
  -22.7723  -13.5147   21.1917 C   0  0  0  0  0  0
  -22.1674   -4.2134   21.0983 F   0  0  0  0  0  0
  -21.5629   -3.4534   25.7745 F   0  0  0  0  0  0
  -29.7952  -14.2201   20.2771 N   0  0  0  0  0  0
  -26.2777  -12.9478   20.3304 N   0  0  0  0  0  0
  -25.9318  -11.6576   20.5758 N   0  0  0  0  0  0
  -22.0382  -12.8126   22.0470 N   0  0  0  0  0  0
  -25.3861  -15.1895   20.4280 N   0  0  0  0  0  0
  -31.5598  -15.5197   20.1983 O   0  0  0  0  0  0
  -21.6626   -6.8857   21.4239 O   0  0  0  0  0  0
  -22.3408  -14.5460   20.6772 O   0  0  0  0  0  0
  -24.6788  -31.8050   23.1546 C   0  0  0  0  0  0
  -25.9393  -32.4493   23.8082 C   0  0  1  0  0  0
  -27.2302  -26.7511   20.2115 C   0  0  0  0  0  0
  -25.6001  -33.8314   24.1987 N   0  0  0  0  0  0
  -23.5023  -30.4069   21.5093 C   0  0  2  0  0  0
  -24.9586  -28.7545   20.1207 C   0  0  0  0  0  0
  -22.7744  -29.4324   22.4730 C   0  0  0  0  0  0
  -18.0325  -28.1401   22.8428 C   0  0  0  0  0  0
  -24.1494  -36.7170   23.2647 C   0  0  0  0  0  0
  -26.0799  -30.5540   21.4092 C   0  0  0  0  0  0
  -26.1476  -29.1226   20.7613 C   0  0  0  0  0  0
  -27.2702  -28.1485   20.7734 C   0  0  0  0  0  0
  -26.0054  -26.5759   19.5196 C   0  0  0  0  0  0
  -24.9228  -27.5046   19.4782 C   0  0  0  0  0  0
  -23.7542  -29.7058   20.1442 C   0  0  0  0  0  0
  -25.4139  -36.2912   24.0287 C   0  0  1  0  0  0
  -20.5958  -28.3750   23.1141 C   0  0  2  0  0  0
  -20.6792  -26.9407   22.5395 C   0  0  0  0  0  0
  -19.5779  -26.6357   21.5192 C   0  0  0  0  0  0
  -18.1956  -26.7931   22.1595 C   0  0  0  0  0  0
  -19.1592  -28.8894   23.2764 C   0  0  0  0  0  0
  -18.9509  -30.1475   23.8807 C   0  0  0  0  0  0
  -17.6503  -30.6583   24.0532 C   0  0  0  0  0  0
  -25.9119  -34.9300   23.4971 C   0  0  0  0  0  0
  -16.5385  -29.9069   23.6338 C   0  0  0  0  0  0
  -16.7307  -28.6491   23.0354 C   0  0  0  0  0  0
  -26.4582  -31.6492   25.0677 C   0  0  0  0  0  0
  -25.3663  -31.3780   26.1300 C   0  0  0  0  0  0
  -27.0489  -30.2837   24.6508 C   0  0  0  0  0  0
  -27.6054  -32.4326   25.7487 C   0  0  0  0  0  0
  -27.5571  -37.1725   24.8466 C   0  0  0  0  0  0
  -21.4395  -29.3023   22.3487 N   0  0  0  0  0  0
  -26.4269  -37.3676   23.9422 N   0  0  0  0  0  0
  -24.7767  -30.9542   22.0773 N   0  0  0  0  0  0
  -23.4211  -28.7914   23.3046 O   0  0  0  0  0  0
  -28.2202  -25.5705   20.2665 O   0  0  0  0  0  0
  -26.5750  -34.8867   22.4582 O   0  0  0  0  0  0
  -23.5822  -32.1107   23.6537 O   0  0  0  0  0  0
  -28.1134  -16.8398   20.3960 C   0  0  0  0  0  0
  -28.8140  -20.3076   20.3286 C   0  0  0  0  0  0
  -29.0422  -22.2125   20.2550 C   0  0  0  0  0  0
  -29.8482  -18.6893   20.3077 C   0  0  0  0  0  0
  -28.0265  -23.8410   20.2496 C   0  0  0  0  0  0
  -29.5656  -16.9524   20.3664 N   0  0  0  0  0  0
  -31.4193  -13.3218   19.1511 H   0  0  0  0  0  0
  -30.6090  -12.2019   20.1923 H   0  0  0  0  0  0
  -29.9952  -11.7899   17.7912 H   0  0  0  0  0  0
  -29.4994  -13.4556   17.6069 H   0  0  0  0  0  0
  -28.1658  -11.2795   19.2325 H   0  0  0  0  0  0
  -27.4457  -12.1930   17.9278 H   0  0  0  0  0  0
  -27.4651  -14.1940   19.2478 H   0  0  0  0  0  0
  -28.8972  -12.6722   21.4810 H   0  0  0  0  0  0
  -28.2081  -14.2447   21.6893 H   0  0  0  0  0  0
  -25.2756   -9.5655   22.4775 H   0  0  0  0  0  0
  -23.9991   -7.4601   22.7470 H   0  0  0  0  0  0
  -21.0836   -8.8756   19.8941 H   0  0  0  0  0  0
  -22.3706  -10.9648   19.6163 H   0  0  0  0  0  0
  -21.1984   -7.6135   23.9711 H   0  0  0  0  0  0
  -21.1487   -6.0513   25.9079 H   0  0  0  0  0  0
  -22.0596   -2.7597   23.2863 H   0  0  0  0  0  0
  -22.4017  -11.9806   22.4871 H   0  0  0  0  0  0
  -21.0993  -13.1132   22.2670 H   0  0  0  0  0  0
  -24.6214  -15.8418   20.5626 H   0  0  0  0  0  0
  -26.2468  -15.6402   20.1517 H   0  0  0  0  0  0
  -26.7465  -32.4985   23.0784 H   0  0  0  0  0  0
  -25.0086  -33.9365   25.0099 H   0  0  0  0  0  0
  -22.8239  -31.2423   21.3234 H   0  0  0  0  0  0
  -23.3779  -35.9477   23.3261 H   0  0  0  0  0  0
  -24.3557  -36.8884   22.2070 H   0  0  0  0  0  0
  -23.7235  -37.6326   23.6756 H   0  0  0  0  0  0
  -26.2708  -31.2790   20.6172 H   0  0  0  0  0  0
  -26.9348  -30.6253   22.0690 H   0  0  0  0  0  0
  -28.1692  -28.4364   21.3010 H   0  0  0  0  0  0
  -25.8486  -25.6298   19.0208 H   0  0  0  0  0  0
  -24.0237  -27.2136   18.9535 H   0  0  0  0  0  0
  -23.9256  -30.4667   19.3822 H   0  0  0  0  0  0
  -22.8592  -29.1717   19.8209 H   0  0  0  0  0  0
  -25.1338  -36.1685   25.0778 H   0  0  0  0  0  0
  -21.0015  -28.3373   24.1277 H   0  0  0  0  0  0
  -20.5635  -26.2369   23.3655 H   0  0  0  0  0  0
  -21.6658  -26.7351   22.1218 H   0  0  0  0  0  0
  -19.6941  -25.6256   21.1250 H   0  0  0  0  0  0
  -19.6733  -27.3131   20.6692 H   0  0  0  0  0  0
  -17.4227  -26.6637   21.4000 H   0  0  0  0  0  0
  -18.0352  -26.0095   22.9014 H   0  0  0  0  0  0
  -19.7991  -30.7281   24.2162 H   0  0  0  0  0  0
  -17.5066  -31.6257   24.5142 H   0  0  0  0  0  0
  -15.5377  -30.2943   23.7723 H   0  0  0  0  0  0
  -15.8706  -28.0778   22.7134 H   0  0  0  0  0  0
  -24.5891  -30.7087   25.7596 H   0  0  0  0  0  0
  -24.8793  -32.2979   26.4541 H   0  0  0  0  0  0
  -25.7849  -30.9070   27.0206 H   0  0  0  0  0  0
  -26.3180  -29.6481   24.1495 H   0  0  0  0  0  0
  -27.3935  -29.7240   25.5214 H   0  0  0  0  0  0
  -27.9158  -30.3972   24.0000 H   0  0  0  0  0  0
  -27.2626  -33.3705   26.1870 H   0  0  0  0  0  0
  -28.3957  -32.6753   25.0370 H   0  0  0  0  0  0
  -28.0614  -31.8574   26.5555 H   0  0  0  0  0  0
  -28.2534  -38.0074   24.7553 H   0  0  0  0  0  0
  -28.1123  -36.2595   24.6246 H   0  0  0  0  0  0
  -27.2287  -37.1299   25.8868 H   0  0  0  0  0  0
  -20.9699  -29.8745   21.6608 H   0  0  0  0  0  0
  -26.0103  -38.2721   24.1478 H   0  0  0  0  0  0
  -27.7643  -16.3301   19.5004 H   0  0  0  0  0  0
  -27.6113  -17.8063   20.4105 H   0  0  0  0  0  0
  -27.7779  -16.3148   21.2878 H   0  0  0  0  0  0
  -28.0882  -20.1322   19.5354 H   0  0  0  0  0  0
  -28.2242  -20.1865   21.2382 H   0  0  0  0  0  0
  -29.6536  -22.3343   19.3603 H   0  0  0  0  0  0
  -29.7510  -22.3868   21.0651 H   0  0  0  0  0  0
  -30.5643  -18.8258   21.1192 H   0  0  0  0  0  0
  -30.4641  -18.7858   19.4129 H   0  0  0  0  0  0
  -27.3786  -23.7132   21.1168 H   0  0  0  0  0  0
  -27.3481  -23.7002   19.4085 H   0  0  0  0  0  0
  1 25  1  0  0  0
  1 30  2  0  0  0
  1 76  1  0  0  0
  2  3  1  0  0  0
  2 25  1  0  0  0
  2 77  1  0  0  0
  2 78  1  0  0  0
  3  4  1  0  0  0
  3 79  1  0  0  0
  3 80  1  0  0  0
  4  5  1  0  0  0
  4 81  1  0  0  0
  4 82  1  0  0  0
  5  6  1  0  0  0
  5 26  1  0  0  0
  5 83  1  0  0  0
  6 25  1  0  0  0
  6 84  1  0  0  0
  6 85  1  0  0  0
  7  8  2  0  0  0
  7 26  1  0  0  0
  7 29  1  0  0  0
  8  9  1  0  0  0
  8 22  1  0  0  0
  9 10  1  0  0  0
  9 27  2  0  0  0
 10 11  2  0  0  0
 10 15  1  0  0  0
 11 12  1  0  0  0
 11 86  1  0  0  0
 12 13  2  0  0  0
 12 87  1  0  0  0
 13 14  1  0  0  0
 13 31  1  0  0  0
 14 15  2  0  0  0
 14 88  1  0  0  0
 15 89  1  0  0  0
 16 17  2  0  0  0
 16 21  1  0  0  0
 16 31  1  0  0  0
 17 18  1  0  0  0
 17 90  1  0  0  0
 18 19  2  0  0  0
 18 91  1  0  0  0
 19 20  1  0  0  0
 19 24  1  0  0  0
 20 21  2  0  0  0
 20 92  1  0  0  0
 21 23  1  0  0  0
 22 28  1  0  0  0
 22 32  2  0  0  0
 26 27  1  0  0  0
 28 93  1  0  0  0
 28 94  1  0  0  0
 29 95  1  0  0  0
 29 96  1  0  0  0
 33 34  1  0  0  0
 33 66  1  0  0  0
 33 70  2  0  0  0
 34 36  1  0  0  0
 34 59  1  0  0  0
 34 97  1  0  0  0
 35 44  2  0  0  0
 35 45  1  0  0  0
 35 68  1  0  0  0
 36 56  1  0  0  0
 36 98  1  0  0  0
 37 39  1  0  0  0
 37 47  1  0  0  0
 37 66  1  0  0  0
 37 99  1  0  0  0
 38 43  2  0  0  0
 38 46  1  0  0  0
 38 47  1  0  0  0
 39 64  1  0  0  0
 39 67  2  0  0  0
 40 52  1  0  0  0
 40 53  2  0  0  0
 40 58  1  0  0  0
 41100  1  0  0  0
 41101  1  0  0  0
 41102  1  0  0  0
 41 48  1  0  0  0
 42 43  1  0  0  0
 42 66  1  0  0  0
 42103  1  0  0  0
 42104  1  0  0  0
 43 44  1  0  0  0
 44105  1  0  0  0
 45 46  2  0  0  0
 45106  1  0  0  0
 46107  1  0  0  0
 47108  1  0  0  0
 47109  1  0  0  0
 48 56  1  0  0  0
 48 65  1  0  0  0
 48110  1  0  0  0
 49 50  1  0  0  0
 49 53  1  0  0  0
 49 64  1  0  0  0
 49111  1  0  0  0
 50 51  1  0  0  0
 50112  1  0  0  0
 50113  1  0  0  0
 51 52  1  0  0  0
 51114  1  0  0  0
 51115  1  0  0  0
 52116  1  0  0  0
 52117  1  0  0  0
 53 54  1  0  0  0
 54 55  2  0  0  0
 54118  1  0  0  0
 55 57  1  0  0  0
 55119  1  0  0  0
 56 69  2  0  0  0
 57 58  2  0  0  0
 57120  1  0  0  0
 58121  1  0  0  0
 59 60  1  0  0  0
 59 61  1  0  0  0
 59 62  1  0  0  0
 60122  1  0  0  0
 60123  1  0  0  0
 60124  1  0  0  0
 61125  1  0  0  0
 61126  1  0  0  0
 61127  1  0  0  0
 62128  1  0  0  0
 62129  1  0  0  0
 62130  1  0  0  0
 63 65  1  0  0  0
 63131  1  0  0  0
 63132  1  0  0  0
 63133  1  0  0  0
 64134  1  0  0  0
 65135  1  0  0  0
 68 75  1  0  0  0
 71 76  1  0  0  0
 71136  1  0  0  0
 71137  1  0  0  0
 71138  1  0  0  0
 72 73  1  0  0  0
 72 74  1  0  0  0
 72139  1  0  0  0
 72140  1  0  0  0
 73 75  1  0  0  0
 73141  1  0  0  0
 73142  1  0  0  0
 74 76  1  0  0  0
 74143  1  0  0  0
 74144  1  0  0  0
 75145  1  0  0  0
 75146  1  0  0  0
M  ISO  4   1 100  68 101  75 101  76 100
M  END
> <chiral flag>
0

> <version>
0

> <s_m_source_file>
/data/baiqing/PycharmProjects/Reinvent-master-3.2/result/LINK_invent/BTK/process_docking_weight1_custom_sum_contain_oxygen_bond_distance_aromatic_linkinvent_7_9_3/rearranged_h_0007.sdf

> <i_m_source_file_index>
24

> <r_mmod_Potential_Energy-OPLS-2005>
2394.60620117188

> <r_mmod_Stretch_Energy-OPLS-2005>
1089.49169921875

> <r_mmod_Bend_Energy-OPLS-2005>
600.165954589844

> <r_mmod_Torsional_Energy-OPLS-2005>
262.956756591797

> <r_mmod_Improper_Torsional_Energy-OPLS-2005>
3.83639168739319

> <r_mmod_Van_der_Waal_Energy-OPLS-2005>
114.869972229004

> <r_mmod_Electrostatic_Energy-OPLS-2005>
-274.106903076172

> <r_mmod_Solvation_Energy-OPLS-2005>
-208.84977722168

> <b_mmod_Minimization_Converged-OPLS-2005>
0

> <r_mmod_RMS_Derivative-OPLS-2005>
1.83712780475616

$$$$
24
                    3D
 Structure written by MMmdl.
180189  0  0  1  0            999 V2000
  -30.6635  -14.4724   20.3536 C   0  0  0  0  0  0
  -30.4379  -12.2402   19.4113 C   0  0  0  0  0  0
  -29.4934  -12.3939   18.1945 C   0  0  0  0  0  0
  -28.0125  -12.3007   18.6230 C   0  0  0  0  0  0
  -27.6588  -13.1785   19.8567 C   0  0  2  0  0  0
  -28.7284  -13.0301   20.9706 C   0  0  0  0  0  0
  -25.2672  -13.8073   20.5704 C   0  0  0  0  0  0
  -24.1888  -13.0409   20.9183 C   0  0  0  0  0  0
  -24.6393  -11.6848   20.8779 C   0  0  0  0  0  0
  -23.9060  -10.4247   21.0462 C   0  0  0  0  0  0
  -24.3611   -9.4136   21.9218 C   0  0  0  0  0  0
  -23.6263   -8.2188   22.0790 C   0  0  0  0  0  0
  -22.4240   -8.0254   21.3574 C   0  0  0  0  0  0
  -21.9889   -9.0245   20.4687 C   0  0  0  0  0  0
  -22.7238  -10.2110   20.3099 C   0  0  0  0  0  0
  -21.6836   -6.0714   22.5279 C   0  0  0  0  0  0
  -21.4004   -6.5633   23.8212 C   0  0  0  0  0  0
  -21.3660   -5.6804   24.9183 C   0  0  0  0  0  0
  -21.6012   -4.3056   24.7241 C   0  0  0  0  0  0
  -21.8823   -3.8144   23.4371 C   0  0  0  0  0  0
  -21.9216   -4.6945   22.3420 C   0  0  0  0  0  0
  -22.7915  -13.5260   21.1817 C   0  0  0  0  0  0
  -22.1738   -4.2141   21.1010 F   0  0  0  0  0  0
  -21.5561   -3.4533   25.7753 F   0  0  0  0  0  0
  -30.0605  -13.2635   20.3851 N   0  0  0  0  0  0
  -26.3067  -12.9173   20.3379 N   0  0  0  0  0  0
  -25.9302  -11.6372   20.5821 N   0  0  0  0  0  0
  -22.0496  -12.8265   22.0327 N   0  0  0  0  0  0
  -25.4394  -15.1797   20.4132 N   0  0  0  0  0  0
  -31.8790  -14.6587   20.3747 O   0  0  0  0  0  0
  -21.6625   -6.8845   21.4240 O   0  0  0  0  0  0
  -22.3632  -14.5578   20.6644 O   0  0  0  0  0  0
  -24.6086  -31.8705   23.2134 C   0  0  0  0  0  0
  -25.8998  -32.4842   23.8414 C   0  0  1  0  0  0
  -27.2512  -27.4924   20.0814 C   0  0  0  0  0  0
  -25.5875  -33.8641   24.2349 N   0  0  0  0  0  0
  -23.3947  -30.4909   21.5527 C   0  0  2  0  0  0
  -24.8449  -28.9566   20.1222 C   0  0  0  0  0  0
  -22.7372  -29.4660   22.5034 C   0  0  0  0  0  0
  -18.0261  -28.1359   22.8496 C   0  0  0  0  0  0
  -24.1479  -36.7326   23.2633 C   0  0  0  0  0  0
  -25.9163  -30.8519   21.3580 C   0  0  0  0  0  0
  -25.9988  -29.4869   20.7131 C   0  0  0  0  0  0
  -27.2054  -28.7598   20.6961 C   0  0  0  0  0  0
  -26.0814  -26.9502   19.5137 C   0  0  0  0  0  0
  -24.8767  -27.6819   19.5257 C   0  0  0  0  0  0
  -23.6013  -29.8146   20.1696 C   0  0  0  0  0  0
  -25.4093  -36.3128   24.0346 C   0  0  1  0  0  0
  -20.5846  -28.3636   23.1343 C   0  0  2  0  0  0
  -20.6754  -26.9381   22.5422 C   0  0  0  0  0  0
  -19.5732  -26.6377   21.5212 C   0  0  0  0  0  0
  -18.1910  -26.7908   22.1627 C   0  0  0  0  0  0
  -19.1509  -28.8811   23.2918 C   0  0  0  0  0  0
  -18.9443  -30.1424   23.8915 C   0  0  0  0  0  0
  -17.6447  -30.6572   24.0559 C   0  0  0  0  0  0
  -25.9019  -34.9492   23.5148 C   0  0  0  0  0  0
  -16.5336  -29.9071   23.6327 C   0  0  0  0  0  0
  -16.7252  -28.6486   23.0351 C   0  0  0  0  0  0
  -26.4457  -31.6604   25.0717 C   0  0  0  0  0  0
  -25.3758  -31.3680   26.1489 C   0  0  0  0  0  0
  -27.0278  -30.3063   24.6041 C   0  0  0  0  0  0
  -27.6043  -32.4312   25.7469 C   0  0  0  0  0  0
  -27.5588  -37.1797   24.8451 C   0  0  0  0  0  0
  -21.4107  -29.3012   22.3760 N   0  0  0  0  0  0
  -26.4279  -37.3813   23.9430 N   0  0  0  0  0  0
  -24.6577  -31.0848   22.1008 N   0  0  0  0  0  0
  -23.4166  -28.8217   23.3070 O   0  0  0  0  0  0
  -28.4231  -26.7885   20.0030 O   0  0  0  0  0  0
  -26.5583  -34.8933   22.4711 O   0  0  0  0  0  0
  -23.5293  -32.1435   23.7561 O   0  0  0  0  0  0
  -27.4333  -17.8664   18.9807 C   0  0  0  0  0  0
  -28.4186  -18.2575   21.1713 C   0  0  0  0  0  0
  -28.3287  -16.8100   18.7693 C   0  0  0  0  0  0
  -29.3067  -17.1775   20.9750 C   0  0  0  0  0  0
  -27.4556  -18.5950   20.1868 C   0  0  0  0  0  0
  -29.2396  -16.4357   19.7769 C   0  0  0  0  0  0
  -29.1830  -22.3841   20.2955 C   0  0  0  0  0  0
  -30.0052  -25.0765   18.2455 C   0  0  0  0  0  0
  -26.3612  -20.6907   19.1922 C   0  0  0  0  0  0
  -26.4028  -20.4096   21.7442 C   0  0  0  0  0  0
  -26.7636  -22.1080   19.6175 C   0  0  0  0  0  0
  -27.5020  -21.4964   21.8633 C   0  0  0  0  0  0
  -26.3905  -19.6804   20.3752 C   0  0  0  0  0  0
  -30.8142  -21.7285   16.7803 C   0  0  0  0  0  0
  -32.0418  -21.5436   18.9611 C   0  0  0  0  0  0
  -30.5174  -26.3966   18.8186 C   0  0  0  0  0  0
  -29.3695  -27.3773   19.1085 C   0  0  0  0  0  0
  -29.6807  -22.6847   18.8591 C   0  0  2  0  0  0
  -30.6469  -21.5954   18.3014 C   0  0  0  0  0  0
  -27.8969  -22.0321   20.5474 N   0  0  0  0  0  0
  -29.9717  -15.2590   19.5251 N   0  0  0  0  0  0
  -30.3469  -23.9805   18.9258 N   0  0  0  0  0  0
  -30.0062  -22.4849   21.2130 O   0  0  0  0  0  0
  -29.2825  -25.0554   17.2466 O   0  0  0  0  0  0
  -31.4796  -12.3356   19.0975 H   0  0  0  0  0  0
  -30.3366  -11.2494   19.8580 H   0  0  0  0  0  0
  -29.7112  -11.6088   17.4677 H   0  0  0  0  0  0
  -29.6759  -13.3310   17.6693 H   0  0  0  0  0  0
  -27.8173  -11.2532   18.8574 H   0  0  0  0  0  0
  -27.3619  -12.5428   17.7831 H   0  0  0  0  0  0
  -27.6522  -14.2054   19.5091 H   0  0  0  0  0  0
  -28.6929  -12.0315   21.4092 H   0  0  0  0  0  0
  -28.5421  -13.7344   21.7823 H   0  0  0  0  0  0
  -25.2764   -9.5577   22.4792 H   0  0  0  0  0  0
  -23.9941   -7.4538   22.7479 H   0  0  0  0  0  0
  -21.0820   -8.8799   19.8985 H   0  0  0  0  0  0
  -22.3739  -10.9671   19.6207 H   0  0  0  0  0  0
  -21.2003   -7.6150   23.9714 H   0  0  0  0  0  0
  -21.1504   -6.0541   25.9091 H   0  0  0  0  0  0
  -22.0617   -2.7604   23.2871 H   0  0  0  0  0  0
  -22.4135  -11.9959   22.4756 H   0  0  0  0  0  0
  -21.1068  -13.1226   22.2434 H   0  0  0  0  0  0
  -24.6739  -15.8294   20.5492 H   0  0  0  0  0  0
  -26.3048  -15.6356   20.1490 H   0  0  0  0  0  0
  -26.7068  -32.5582   23.1186 H   0  0  0  0  0  0
  -25.0043  -33.9802   25.0507 H   0  0  0  0  0  0
  -22.6808  -31.3058   21.4122 H   0  0  0  0  0  0
  -23.3745  -35.9654   23.3282 H   0  0  0  0  0  0
  -24.3588  -36.8946   22.2051 H   0  0  0  0  0  0
  -23.7215  -37.6525   23.6644 H   0  0  0  0  0  0
  -26.0168  -31.6164   20.5862 H   0  0  0  0  0  0
  -26.8080  -30.9121   21.9700 H   0  0  0  0  0  0
  -28.0995  -29.1723   21.1429 H   0  0  0  0  0  0
  -26.1126  -25.9767   19.0444 H   0  0  0  0  0  0
  -23.9879  -27.2634   19.0732 H   0  0  0  0  0  0
  -23.6969  -30.5840   19.4025 H   0  0  0  0  0  0
  -22.7289  -29.2235   19.8845 H   0  0  0  0  0  0
  -25.1257  -36.1999   25.0838 H   0  0  0  0  0  0
  -20.9933  -28.3186   24.1464 H   0  0  0  0  0  0
  -20.5657  -26.2235   23.3595 H   0  0  0  0  0  0
  -21.6628  -26.7430   22.1212 H   0  0  0  0  0  0
  -19.6900  -25.6295   21.1214 H   0  0  0  0  0  0
  -19.6677  -27.3210   20.6758 H   0  0  0  0  0  0
  -17.4187  -26.6655   21.4026 H   0  0  0  0  0  0
  -18.0319  -26.0034   22.9008 H   0  0  0  0  0  0
  -19.7921  -30.7234   24.2292 H   0  0  0  0  0  0
  -17.5004  -31.6259   24.5151 H   0  0  0  0  0  0
  -15.5338  -30.2983   23.7637 H   0  0  0  0  0  0
  -15.8651  -28.0811   22.7063 H   0  0  0  0  0  0
  -24.5919  -30.7033   25.7838 H   0  0  0  0  0  0
  -24.8963  -32.2824   26.4995 H   0  0  0  0  0  0
  -25.8150  -30.8818   27.0209 H   0  0  0  0  0  0
  -26.2796  -29.6827   24.1130 H   0  0  0  0  0  0
  -27.4113  -29.7288   25.4462 H   0  0  0  0  0  0
  -27.8602  -30.4402   23.9127 H   0  0  0  0  0  0
  -27.2665  -33.3583   26.2111 H   0  0  0  0  0  0
  -28.3820  -32.6918   25.0277 H   0  0  0  0  0  0
  -28.0751  -31.8399   26.5333 H   0  0  0  0  0  0
  -28.2563  -38.0139   24.7586 H   0  0  0  0  0  0
  -28.1128  -36.2682   24.6158 H   0  0  0  0  0  0
  -27.2327  -37.1305   25.8854 H   0  0  0  0  0  0
  -20.9262  -29.8723   21.6978 H   0  0  0  0  0  0
  -26.0173  -38.2883   24.1486 H   0  0  0  0  0  0
  -26.7099  -18.1060   18.2127 H   0  0  0  0  0  0
  -28.4720  -18.7939   22.1056 H   0  0  0  0  0  0
  -28.2703  -16.2589   17.8393 H   0  0  0  0  0  0
  -30.0071  -16.9106   21.7539 H   0  0  0  0  0  0
  -27.0109  -20.3758   18.3746 H   0  0  0  0  0  0
  -25.3574  -20.7242   18.7638 H   0  0  0  0  0  0
  -25.4389  -20.9091   21.8549 H   0  0  0  0  0  0
  -26.4466  -19.7071   22.5776 H   0  0  0  0  0  0
  -25.9296  -22.5762   20.1426 H   0  0  0  0  0  0
  -26.9102  -22.7512   18.7542 H   0  0  0  0  0  0
  -28.3604  -21.0584   22.3740 H   0  0  0  0  0  0
  -27.1619  -22.3137   22.5018 H   0  0  0  0  0  0
  -25.4506  -19.1268   20.3357 H   0  0  0  0  0  0
  -31.4265  -20.9203   16.3782 H   0  0  0  0  0  0
  -31.2959  -22.6693   16.5147 H   0  0  0  0  0  0
  -29.8499  -21.6912   16.2735 H   0  0  0  0  0  0
  -32.6440  -20.7359   18.5413 H   0  0  0  0  0  0
  -31.9818  -21.3677   20.0340 H   0  0  0  0  0  0
  -32.5974  -22.4676   18.8026 H   0  0  0  0  0  0
  -31.2152  -26.8398   18.1072 H   0  0  0  0  0  0
  -31.0818  -26.2169   19.7347 H   0  0  0  0  0  0
  -28.8851  -27.6684   18.1737 H   0  0  0  0  0  0
  -29.7776  -28.2869   19.5520 H   0  0  0  0  0  0
  -28.8485  -22.7424   18.1658 H   0  0  0  0  0  0
  -30.1704  -20.6293   18.4804 H   0  0  0  0  0  0
  -29.5689  -14.7099   18.7818 H   0  0  0  0  0  0
  -30.9386  -24.1014   19.7366 H   0  0  0  0  0  0
  1 25  1  0  0  0
  1 30  2  0  0  0
  1 91  1  0  0  0
  2  3  1  0  0  0
  2 25  1  0  0  0
  2 95  1  0  0  0
  2 96  1  0  0  0
  3  4  1  0  0  0
  3 97  1  0  0  0
  3 98  1  0  0  0
  4  5  1  0  0  0
  4 99  1  0  0  0
  4100  1  0  0  0
  5  6  1  0  0  0
  5 26  1  0  0  0
  5101  1  0  0  0
  6 25  1  0  0  0
  6102  1  0  0  0
  6103  1  0  0  0
  7  8  2  0  0  0
  7 26  1  0  0  0
  7 29  1  0  0  0
  8  9  1  0  0  0
  8 22  1  0  0  0
  9 10  1  0  0  0
  9 27  2  0  0  0
 10 11  2  0  0  0
 10 15  1  0  0  0
 11 12  1  0  0  0
 11104  1  0  0  0
 12 13  2  0  0  0
 12105  1  0  0  0
 13 14  1  0  0  0
 13 31  1  0  0  0
 14 15  2  0  0  0
 14106  1  0  0  0
 15107  1  0  0  0
 16 17  2  0  0  0
 16 21  1  0  0  0
 16 31  1  0  0  0
 17 18  1  0  0  0
 17108  1  0  0  0
 18 19  2  0  0  0
 18109  1  0  0  0
 19 20  1  0  0  0
 19 24  1  0  0  0
 20 21  2  0  0  0
 20110  1  0  0  0
 21 23  1  0  0  0
 22 28  1  0  0  0
 22 32  2  0  0  0
 26 27  1  0  0  0
 28111  1  0  0  0
 28112  1  0  0  0
 29113  1  0  0  0
 29114  1  0  0  0
 33 34  1  0  0  0
 33 66  1  0  0  0
 33 70  2  0  0  0
 34 36  1  0  0  0
 34 59  1  0  0  0
 34115  1  0  0  0
 35 44  2  0  0  0
 35 45  1  0  0  0
 35 68  1  0  0  0
 36 56  1  0  0  0
 36116  1  0  0  0
 37 39  1  0  0  0
 37 47  1  0  0  0
 37 66  1  0  0  0
 37117  1  0  0  0
 38 43  2  0  0  0
 38 46  1  0  0  0
 38 47  1  0  0  0
 39 64  1  0  0  0
 39 67  2  0  0  0
 40 52  1  0  0  0
 40 53  2  0  0  0
 40 58  1  0  0  0
 41118  1  0  0  0
 41119  1  0  0  0
 41120  1  0  0  0
 41 48  1  0  0  0
 42 43  1  0  0  0
 42 66  1  0  0  0
 42121  1  0  0  0
 42122  1  0  0  0
 43 44  1  0  0  0
 44123  1  0  0  0
 45 46  2  0  0  0
 45124  1  0  0  0
 46125  1  0  0  0
 47126  1  0  0  0
 47127  1  0  0  0
 48 56  1  0  0  0
 48 65  1  0  0  0
 48128  1  0  0  0
 49 50  1  0  0  0
 49 53  1  0  0  0
 49 64  1  0  0  0
 49129  1  0  0  0
 50 51  1  0  0  0
 50130  1  0  0  0
 50131  1  0  0  0
 51 52  1  0  0  0
 51132  1  0  0  0
 51133  1  0  0  0
 52134  1  0  0  0
 52135  1  0  0  0
 53 54  1  0  0  0
 54 55  2  0  0  0
 54136  1  0  0  0
 55 57  1  0  0  0
 55137  1  0  0  0
 56 69  2  0  0  0
 57 58  2  0  0  0
 57138  1  0  0  0
 58139  1  0  0  0
 59 60  1  0  0  0
 59 61  1  0  0  0
 59 62  1  0  0  0
 60140  1  0  0  0
 60141  1  0  0  0
 60142  1  0  0  0
 61143  1  0  0  0
 61144  1  0  0  0
 61145  1  0  0  0
 62146  1  0  0  0
 62147  1  0  0  0
 62148  1  0  0  0
 63 65  1  0  0  0
 63149  1  0  0  0
 63150  1  0  0  0
 63151  1  0  0  0
 64152  1  0  0  0
 65153  1  0  0  0
 68 87  1  0  0  0
 71 73  2  0  0  0
 71 75  1  0  0  0
 71154  1  0  0  0
 72 74  1  0  0  0
 72 75  2  0  0  0
 72155  1  0  0  0
 73 76  1  0  0  0
 73156  1  0  0  0
 74 76  2  0  0  0
 74157  1  0  0  0
 75 83  1  0  0  0
 76 91  1  0  0  0
 77 88  1  0  0  0
 77 90  1  0  0  0
 77 93  2  0  0  0
 78 86  1  0  0  0
 78 92  1  0  0  0
 78 94  2  0  0  0
 79 81  1  0  0  0
 79 83  1  0  0  0
 79158  1  0  0  0
 79159  1  0  0  0
 80 82  1  0  0  0
 80 83  1  0  0  0
 80160  1  0  0  0
 80161  1  0  0  0
 81 90  1  0  0  0
 81162  1  0  0  0
 81163  1  0  0  0
 82 90  1  0  0  0
 82164  1  0  0  0
 82165  1  0  0  0
 83166  1  0  0  0
 84167  1  0  0  0
 84168  1  0  0  0
 84169  1  0  0  0
 84 89  1  0  0  0
 85 89  1  0  0  0
 85170  1  0  0  0
 85171  1  0  0  0
 85172  1  0  0  0
 86 87  1  0  0  0
 86173  1  0  0  0
 86174  1  0  0  0
 87175  1  0  0  0
 87176  1  0  0  0
 88 89  1  0  0  0
 88 92  1  0  0  0
 88177  1  0  0  0
 89178  1  0  0  0
 91179  1  0  0  0
 92180  1  0  0  0
M  ISO  4   1 100  68 101  87 101  91 100
M  END
> <chiral flag>
0

> <version>
0

> <s_m_source_file>
/data/baiqing/PycharmProjects/Reinvent-master-3.2/result/LINK_invent/BTK/process_docking_weight1_custom_sum_contain_oxygen_bond_distance_aromatic_linkinvent_7_9_3/rearranged_h_0007.sdf

> <i_m_source_file_index>
25

> <r_mmod_Potential_Energy-OPLS-2005>
114.254379272461

> <r_mmod_Stretch_Energy-OPLS-2005>
37.5561714172363

> <r_mmod_Bend_Energy-OPLS-2005>
127.722717285156

> <r_mmod_Torsional_Energy-OPLS-2005>
402.081512451172

> <r_mmod_Improper_Torsional_Energy-OPLS-2005>
33.5601005554199

> <r_mmod_Van_der_Waal_Energy-OPLS-2005>
161.4248046875

> <r_mmod_Electrostatic_Energy-OPLS-2005>
-453.796691894531

> <r_mmod_Solvation_Energy-OPLS-2005>
-228.168167114258

> <b_mmod_Minimization_Converged-OPLS-2005>
0

> <r_mmod_RMS_Derivative-OPLS-2005>
2.76481294631958

$$$$
25
                    3D
 Structure written by MMmdl.
170179  0  0  1  0            999 V2000
  -30.6950  -14.4757   20.6185 C   0  0  0  0  0  0
  -30.4417  -12.3409   19.3964 C   0  0  0  0  0  0
  -29.5098  -12.5724   18.1876 C   0  0  0  0  0  0
  -28.0219  -12.4420   18.5786 C   0  0  0  0  0  0
  -27.6759  -13.2141   19.8770 C   0  0  2  0  0  0
  -28.7210  -12.9404   20.9822 C   0  0  0  0  0  0
  -25.2653  -13.8132   20.5837 C   0  0  0  0  0  0
  -24.1881  -13.0395   20.9254 C   0  0  0  0  0  0
  -24.6449  -11.6863   20.8711 C   0  0  0  0  0  0
  -23.9094  -10.4238   21.0374 C   0  0  0  0  0  0
  -24.3617   -9.4167   21.9162 C   0  0  0  0  0  0
  -23.6273   -8.2219   22.0770 C   0  0  0  0  0  0
  -22.4245   -8.0279   21.3566 C   0  0  0  0  0  0
  -21.9894   -9.0256   20.4646 C   0  0  0  0  0  0
  -22.7262  -10.2106   20.3025 C   0  0  0  0  0  0
  -21.6816   -6.0740   22.5279 C   0  0  0  0  0  0
  -21.4002   -6.5625   23.8219 C   0  0  0  0  0  0
  -21.3694   -5.6779   24.9186 C   0  0  0  0  0  0
  -21.6069   -4.3036   24.7221 C   0  0  0  0  0  0
  -21.8805   -3.8141   23.4324 C   0  0  0  0  0  0
  -21.9161   -4.6969   22.3389 C   0  0  0  0  0  0
  -22.7858  -13.5216   21.1894 C   0  0  0  0  0  0
  -22.1624   -4.2151   21.0961 F   0  0  0  0  0  0
  -21.5700   -3.4523   25.7740 F   0  0  0  0  0  0
  -30.0637  -13.2765   20.4674 N   0  0  0  0  0  0
  -26.3122  -12.9335   20.3361 N   0  0  0  0  0  0
  -25.9374  -11.6467   20.5659 N   0  0  0  0  0  0
  -22.0403  -12.8251   22.0416 N   0  0  0  0  0  0
  -25.4373  -15.1871   20.4472 N   0  0  0  0  0  0
  -31.6990  -14.7971   19.9766 O   0  0  0  0  0  0
  -21.6599   -6.8894   21.4251 O   0  0  0  0  0  0
  -22.3556  -14.5497   20.6697 O   0  0  0  0  0  0
  -24.6182  -31.8664   23.2132 C   0  0  0  0  0  0
  -25.9089  -32.4790   23.8406 C   0  0  1  0  0  0
  -27.2416  -27.4010   20.1049 C   0  0  0  0  0  0
  -25.5959  -33.8592   24.2316 N   0  0  0  0  0  0
  -23.4082  -30.4953   21.5506 C   0  0  2  0  0  0
  -24.8610  -28.9645   20.1116 C   0  0  0  0  0  0
  -22.7425  -29.4673   22.4941 C   0  0  0  0  0  0
  -18.0297  -28.1414   22.8512 C   0  0  0  0  0  0
  -24.1499  -36.7282   23.2644 C   0  0  0  0  0  0
  -25.9471  -30.8136   21.3905 C   0  0  0  0  0  0
  -26.0234  -29.4530   20.7224 C   0  0  0  0  0  0
  -27.2120  -28.6828   20.7168 C   0  0  0  0  0  0
  -26.0636  -26.9508   19.4645 C   0  0  0  0  0  0
  -24.8790  -27.7126   19.4779 C   0  0  0  0  0  0
  -23.6258  -29.8390   20.1614 C   0  0  0  0  0  0
  -25.4119  -36.3076   24.0331 C   0  0  1  0  0  0
  -20.5899  -28.3693   23.1327 C   0  0  2  0  0  0
  -20.6822  -26.9426   22.5445 C   0  0  0  0  0  0
  -19.5775  -26.6410   21.5273 C   0  0  0  0  0  0
  -18.1939  -26.7962   22.1650 C   0  0  0  0  0  0
  -19.1550  -28.8873   23.2922 C   0  0  0  0  0  0
  -18.9464  -30.1489   23.8914 C   0  0  0  0  0  0
  -17.6460  -30.6605   24.0597 C   0  0  0  0  0  0
  -25.9058  -34.9441   23.5102 C   0  0  0  0  0  0
  -16.5348  -29.9107   23.6352 C   0  0  0  0  0  0
  -16.7290  -28.6549   23.0327 C   0  0  0  0  0  0
  -26.4524  -31.6587   25.0751 C   0  0  0  0  0  0
  -25.3793  -31.3741   26.1501 C   0  0  0  0  0  0
  -27.0430  -30.3003   24.6276 C   0  0  0  0  0  0
  -27.6052  -32.4378   25.7520 C   0  0  0  0  0  0
  -27.5578  -37.1800   24.8447 C   0  0  0  0  0  0
  -21.4152  -29.3033   22.3674 N   0  0  0  0  0  0
  -26.4287  -37.3766   23.9405 N   0  0  0  0  0  0
  -24.6735  -31.0747   22.1056 N   0  0  0  0  0  0
  -23.4180  -28.8213   23.2997 O   0  0  0  0  0  0
  -28.3982  -26.6282   20.1134 O   0  0  0  0  0  0
  -26.5572  -34.8903   22.4646 O   0  0  0  0  0  0
  -23.5363  -32.1451   23.7489 O   0  0  0  0  0  0
  -26.1184  -19.4791   22.2378 C   0  0  0  0  0  0
  -26.8099  -18.2535   22.1656 C   0  0  0  0  0  0
  -28.9532  -18.4829   19.9426 C   0  0  0  0  0  0
  -31.0007  -18.4101   21.2344 C   0  0  0  0  0  0
  -29.1222  -19.8713   19.7269 C   0  0  0  0  0  0
  -31.1913  -19.7949   20.9801 C   0  0  0  0  0  0
  -26.5557  -20.4866   23.1167 C   0  0  0  0  0  0
  -28.4025  -19.0644   23.8285 C   0  0  0  0  0  0
  -29.8294  -17.7548   20.7881 C   0  0  0  0  0  0
  -27.9675  -18.0469   22.9522 C   0  0  0  0  0  0
  -30.2170  -20.5648   20.3001 C   0  0  0  0  0  0
  -27.6985  -20.2789   23.9106 C   0  0  0  0  0  0
  -27.9584  -15.6195   23.5374 C   0  0  0  0  0  0
  -29.5040  -24.3157   20.1990 C   0  0  0  0  0  0
  -29.2123  -22.7865   20.3539 C   0  0  0  0  0  0
  -28.2368  -25.2113   20.3997 C   0  0  0  0  0  0
  -28.7629  -16.7485   22.8671 C   0  0  1  0  0  0
  -29.3273  -16.4359   21.4410 C   0  0  2  0  0  0
  -30.2147  -15.2636   21.5918 N   0  0  0  0  0  0
  -30.3791  -21.9470   20.2082 O   0  0  0  0  0  0
  -28.1337  -21.2484   24.7511 F   0  0  0  0  0  0
  -31.4831  -12.4683   19.0982 H   0  0  0  0  0  0
  -30.3587  -11.3163   19.7508 H   0  0  0  0  0  0
  -29.7508  -11.8797   17.3798 H   0  0  0  0  0  0
  -29.6919  -13.5711   17.7860 H   0  0  0  0  0  0
  -27.7683  -11.3874   18.6791 H   0  0  0  0  0  0
  -27.4093  -12.8273   17.7607 H   0  0  0  0  0  0
  -27.7332  -14.2727   19.6220 H   0  0  0  0  0  0
  -28.6965  -11.8880   21.2749 H   0  0  0  0  0  0
  -28.4494  -13.4957   21.8733 H   0  0  0  0  0  0
  -25.2749   -9.5633   22.4764 H   0  0  0  0  0  0
  -23.9943   -7.4594   22.7497 H   0  0  0  0  0  0
  -21.0835   -8.8785   19.8942 H   0  0  0  0  0  0
  -22.3737  -10.9651   19.6121 H   0  0  0  0  0  0
  -21.1975   -7.6120   23.9741 H   0  0  0  0  0  0
  -21.1549   -6.0483   25.9100 H   0  0  0  0  0  0
  -22.0546   -2.7598   23.2797 H   0  0  0  0  0  0
  -22.3861  -11.9889   22.4877 H   0  0  0  0  0  0
  -21.1013  -13.1335   22.2521 H   0  0  0  0  0  0
  -24.6854  -15.8452   20.6195 H   0  0  0  0  0  0
  -26.2939  -15.6237   20.1393 H   0  0  0  0  0  0
  -26.7144  -32.5488   23.1138 H   0  0  0  0  0  0
  -25.0190  -33.9745   25.0517 H   0  0  0  0  0  0
  -22.6995  -31.3147   21.4151 H   0  0  0  0  0  0
  -23.3753  -35.9621   23.3291 H   0  0  0  0  0  0
  -24.3606  -36.8909   22.2063 H   0  0  0  0  0  0
  -23.7250  -37.6482   23.6677 H   0  0  0  0  0  0
  -26.1031  -31.5950   20.6456 H   0  0  0  0  0  0
  -26.8149  -30.8290   22.0381 H   0  0  0  0  0  0
  -28.1016  -29.0527   21.2102 H   0  0  0  0  0  0
  -26.0406  -26.0192   18.9234 H   0  0  0  0  0  0
  -23.9949  -27.3377   18.9829 H   0  0  0  0  0  0
  -23.7467  -30.6255   19.4165 H   0  0  0  0  0  0
  -22.7455  -29.2744   19.8509 H   0  0  0  0  0  0
  -25.1300  -36.1924   25.0819 H   0  0  0  0  0  0
  -21.0028  -28.3315   24.1441 H   0  0  0  0  0  0
  -20.5883  -26.2265   23.3627 H   0  0  0  0  0  0
  -21.6662  -26.7572   22.1133 H   0  0  0  0  0  0
  -19.6931  -25.6349   21.1252 H   0  0  0  0  0  0
  -19.6717  -27.3280   20.6858 H   0  0  0  0  0  0
  -17.4242  -26.6781   21.4016 H   0  0  0  0  0  0
  -18.0264  -26.0112   22.9042 H   0  0  0  0  0  0
  -19.7935  -30.7330   24.2245 H   0  0  0  0  0  0
  -17.5010  -31.6277   24.5213 H   0  0  0  0  0  0
  -15.5352  -30.2990   23.7696 H   0  0  0  0  0  0
  -15.8697  -28.0911   22.6940 H   0  0  0  0  0  0
  -24.5848  -30.7238   25.7820 H   0  0  0  0  0  0
  -24.9162  -32.2950   26.5064 H   0  0  0  0  0  0
  -25.8135  -30.8770   27.0183 H   0  0  0  0  0  0
  -26.3060  -29.6653   24.1349 H   0  0  0  0  0  0
  -27.4141  -29.7358   25.4840 H   0  0  0  0  0  0
  -27.8913  -30.4236   23.9535 H   0  0  0  0  0  0
  -27.2586  -33.3628   26.2138 H   0  0  0  0  0  0
  -28.3839  -32.7035   25.0359 H   0  0  0  0  0  0
  -28.0764  -31.8518   26.5414 H   0  0  0  0  0  0
  -28.2560  -38.0130   24.7521 H   0  0  0  0  0  0
  -28.1107  -36.2655   24.6240 H   0  0  0  0  0  0
  -27.2300  -37.1407   25.8849 H   0  0  0  0  0  0
  -20.9306  -29.8671   21.6830 H   0  0  0  0  0  0
  -26.0151  -38.2837   24.1415 H   0  0  0  0  0  0
  -25.2523  -19.6481   21.6129 H   0  0  0  0  0  0
  -26.4755  -17.4937   21.4743 H   0  0  0  0  0  0
  -28.0521  -18.0192   19.5607 H   0  0  0  0  0  0
  -31.6994  -17.8843   21.8691 H   0  0  0  0  0  0
  -28.3740  -20.3898   19.1456 H   0  0  0  0  0  0
  -32.0616  -20.2852   21.3945 H   0  0  0  0  0  0
  -26.0148  -21.4201   23.1792 H   0  0  0  0  0  0
  -29.2850  -18.9147   24.4316 H   0  0  0  0  0  0
  -27.6733  -15.9022   24.5516 H   0  0  0  0  0  0
  -28.5261  -14.6979   23.6417 H   0  0  0  0  0  0
  -27.0403  -15.4122   22.9929 H   0  0  0  0  0  0
  -29.9244  -24.4989   19.2091 H   0  0  0  0  0  0
  -30.2790  -24.6119   20.9055 H   0  0  0  0  0  0
  -28.4477  -22.5048   19.6325 H   0  0  0  0  0  0
  -28.7933  -22.6093   21.3451 H   0  0  0  0  0  0
  -27.9055  -25.1162   21.4350 H   0  0  0  0  0  0
  -27.4505  -24.7680   19.7923 H   0  0  0  0  0  0
  -29.6459  -16.8941   23.4916 H   0  0  0  0  0  0
  -28.4908  -16.0959   20.8285 H   0  0  0  0  0  0
  -29.8713  -14.6921   22.3495 H   0  0  0  0  0  0
  1 25  1  0  0  0
  1 30  2  0  0  0
  1 89  1  0  0  0
  2  3  1  0  0  0
  2 25  1  0  0  0
  2 92  1  0  0  0
  2 93  1  0  0  0
  3  4  1  0  0  0
  3 94  1  0  0  0
  3 95  1  0  0  0
  4  5  1  0  0  0
  4 96  1  0  0  0
  4 97  1  0  0  0
  5  6  1  0  0  0
  5 26  1  0  0  0
  5 98  1  0  0  0
  6 25  1  0  0  0
  6 99  1  0  0  0
  6100  1  0  0  0
  7  8  2  0  0  0
  7 26  1  0  0  0
  7 29  1  0  0  0
  8  9  1  0  0  0
  8 22  1  0  0  0
  9 10  1  0  0  0
  9 27  2  0  0  0
 10 11  2  0  0  0
 10 15  1  0  0  0
 11 12  1  0  0  0
 11101  1  0  0  0
 12 13  2  0  0  0
 12102  1  0  0  0
 13 14  1  0  0  0
 13 31  1  0  0  0
 14 15  2  0  0  0
 14103  1  0  0  0
 15104  1  0  0  0
 16 17  2  0  0  0
 16 21  1  0  0  0
 16 31  1  0  0  0
 17 18  1  0  0  0
 17105  1  0  0  0
 18 19  2  0  0  0
 18106  1  0  0  0
 19 20  1  0  0  0
 19 24  1  0  0  0
 20 21  2  0  0  0
 20107  1  0  0  0
 21 23  1  0  0  0
 22 28  1  0  0  0
 22 32  2  0  0  0
 26 27  1  0  0  0
 28108  1  0  0  0
 28109  1  0  0  0
 29110  1  0  0  0
 29111  1  0  0  0
 33 34  1  0  0  0
 33 66  1  0  0  0
 33 70  2  0  0  0
 34 36  1  0  0  0
 34 59  1  0  0  0
 34112  1  0  0  0
 35 44  2  0  0  0
 35 45  1  0  0  0
 35 68  1  0  0  0
 36 56  1  0  0  0
 36113  1  0  0  0
 37 39  1  0  0  0
 37 47  1  0  0  0
 37 66  1  0  0  0
 37114  1  0  0  0
 38 43  2  0  0  0
 38 46  1  0  0  0
 38 47  1  0  0  0
 39 64  1  0  0  0
 39 67  2  0  0  0
 40 52  1  0  0  0
 40 53  2  0  0  0
 40 58  1  0  0  0
 41115  1  0  0  0
 41116  1  0  0  0
 41117  1  0  0  0
 41 48  1  0  0  0
 42 43  1  0  0  0
 42 66  1  0  0  0
 42118  1  0  0  0
 42119  1  0  0  0
 43 44  1  0  0  0
 44120  1  0  0  0
 45 46  2  0  0  0
 45121  1  0  0  0
 46122  1  0  0  0
 47123  1  0  0  0
 47124  1  0  0  0
 48 56  1  0  0  0
 48 65  1  0  0  0
 48125  1  0  0  0
 49 50  1  0  0  0
 49 53  1  0  0  0
 49 64  1  0  0  0
 49126  1  0  0  0
 50 51  1  0  0  0
 50127  1  0  0  0
 50128  1  0  0  0
 51 52  1  0  0  0
 51129  1  0  0  0
 51130  1  0  0  0
 52131  1  0  0  0
 52132  1  0  0  0
 53 54  1  0  0  0
 54 55  2  0  0  0
 54133  1  0  0  0
 55 57  1  0  0  0
 55134  1  0  0  0
 56 69  2  0  0  0
 57 58  2  0  0  0
 57135  1  0  0  0
 58136  1  0  0  0
 59 60  1  0  0  0
 59 61  1  0  0  0
 59 62  1  0  0  0
 60137  1  0  0  0
 60138  1  0  0  0
 60139  1  0  0  0
 61140  1  0  0  0
 61141  1  0  0  0
 61142  1  0  0  0
 62143  1  0  0  0
 62144  1  0  0  0
 62145  1  0  0  0
 63 65  1  0  0  0
 63146  1  0  0  0
 63147  1  0  0  0
 63148  1  0  0  0
 64149  1  0  0  0
 65150  1  0  0  0
 68 86  1  0  0  0
 71 72  2  0  0  0
 71 77  1  0  0  0
 71151  1  0  0  0
 72 80  1  0  0  0
 72152  1  0  0  0
 73 75  2  0  0  0
 73 79  1  0  0  0
 73153  1  0  0  0
 74 76  1  0  0  0
 74 79  2  0  0  0
 74154  1  0  0  0
 75 81  1  0  0  0
 75155  1  0  0  0
 76 81  2  0  0  0
 76156  1  0  0  0
 77 82  2  0  0  0
 77157  1  0  0  0
 78 80  2  0  0  0
 78 82  1  0  0  0
 78158  1  0  0  0
 79 88  1  0  0  0
 80 87  1  0  0  0
 81 90  1  0  0  0
 82 91  1  0  0  0
 83159  1  0  0  0
 83160  1  0  0  0
 83161  1  0  0  0
 83 87  1  0  0  0
 84 85  1  0  0  0
 84 86  1  0  0  0
 84162  1  0  0  0
 84163  1  0  0  0
 85 90  1  0  0  0
 85164  1  0  0  0
 85165  1  0  0  0
 86166  1  0  0  0
 86167  1  0  0  0
 87 88  1  0  0  0
 87168  1  0  0  0
 88 89  1  0  0  0
 88169  1  0  0  0
 89170  1  0  0  0
M  ISO  4   1 100  68 101  86 101  89 100
M  END
> <chiral flag>
0

> <version>
0

> <s_m_source_file>
/data/baiqing/PycharmProjects/Reinvent-master-3.2/result/LINK_invent/BTK/process_docking_weight1_custom_sum_contain_oxygen_bond_distance_aromatic_linkinvent_7_9_3/rearranged_h_0007.sdf

> <i_m_source_file_index>
26

> <r_mmod_Potential_Energy-OPLS-2005>
19.4181232452393

> <r_mmod_Stretch_Energy-OPLS-2005>
51.9118041992188

> <r_mmod_Bend_Energy-OPLS-2005>
126.714508056641

> <r_mmod_Torsional_Energy-OPLS-2005>
291.712249755859

> <r_mmod_Improper_Torsional_Energy-OPLS-2005>
9.63538074493408

> <r_mmod_Van_der_Waal_Energy-OPLS-2005>
154.30989074707

> <r_mmod_Electrostatic_Energy-OPLS-2005>
-412.373229980469

> <r_mmod_Solvation_Energy-OPLS-2005>
-221.681427001953

> <b_mmod_Minimization_Converged-OPLS-2005>
0

> <r_mmod_RMS_Derivative-OPLS-2005>
5.76829767227173

$$$$
26
                    3D
 Structure written by MMmdl.
148156  0  0  1  0            999 V2000
  -30.5066  -14.9122   20.4364 C   0  0  0  0  0  0
  -30.4572  -12.5594   19.4935 C   0  0  0  0  0  0
  -29.5282  -12.5199   18.2554 C   0  0  0  0  0  0
  -28.0576  -12.3117   18.6710 C   0  0  0  0  0  0
  -27.6394  -13.2328   19.8459 C   0  0  2  0  0  0
  -28.6827  -13.2097   20.9842 C   0  0  0  0  0  0
  -25.2503  -13.8179   20.5680 C   0  0  0  0  0  0
  -24.1804  -13.0432   20.9234 C   0  0  0  0  0  0
  -24.6391  -11.6909   20.8755 C   0  0  0  0  0  0
  -23.9061  -10.4290   21.0411 C   0  0  0  0  0  0
  -24.3611   -9.4205   21.9186 C   0  0  0  0  0  0
  -23.6288   -8.2238   22.0750 C   0  0  0  0  0  0
  -22.4271   -8.0275   21.3541 C   0  0  0  0  0  0
  -21.9904   -9.0252   20.4648 C   0  0  0  0  0  0
  -22.7230  -10.2135   20.3062 C   0  0  0  0  0  0
  -21.6854   -6.0729   22.5277 C   0  0  0  0  0  0
  -21.4013   -6.5632   23.8208 C   0  0  0  0  0  0
  -21.3661   -5.6786   24.9171 C   0  0  0  0  0  0
  -21.6045   -4.3047   24.7224 C   0  0  0  0  0  0
  -21.8820   -3.8140   23.4344 C   0  0  0  0  0  0
  -21.9192   -4.6957   22.3400 C   0  0  0  0  0  0
  -22.7825  -13.5222   21.1889 C   0  0  0  0  0  0
  -22.1662   -4.2144   21.0978 F   0  0  0  0  0  0
  -21.5632   -3.4531   25.7736 F   0  0  0  0  0  0
  -29.9671  -13.6300   20.4031 N   0  0  0  0  0  0
  -26.2923  -12.9383   20.3242 N   0  0  0  0  0  0
  -25.9319  -11.6532   20.5738 N   0  0  0  0  0  0
  -22.0468  -12.8219   22.0447 N   0  0  0  0  0  0
  -25.4177  -15.1897   20.4031 N   0  0  0  0  0  0
  -31.6939  -15.0568   20.1209 O   0  0  0  0  0  0
  -21.6638   -6.8871   21.4237 O   0  0  0  0  0  0
  -22.3514  -14.5527   20.6726 O   0  0  0  0  0  0
  -24.6416  -31.8453   23.1901 C   0  0  0  0  0  0
  -25.9200  -32.4701   23.8277 C   0  0  1  0  0  0
  -27.2194  -27.1518   20.1453 C   0  0  0  0  0  0
  -25.5965  -33.8506   24.2202 N   0  0  0  0  0  0
  -23.4439  -30.4666   21.5351 C   0  0  2  0  0  0
  -24.8937  -28.8974   20.1099 C   0  0  0  0  0  0
  -22.7560  -29.4552   22.4860 C   0  0  0  0  0  0
  -18.0312  -28.1393   22.8469 C   0  0  0  0  0  0
  -24.1494  -36.7247   23.2641 C   0  0  0  0  0  0
  -25.9996  -30.7244   21.3866 C   0  0  0  0  0  0
  -26.0718  -29.3381   20.7263 C   0  0  0  0  0  0
  -27.2360  -28.4820   20.7257 C   0  0  0  0  0  0
  -26.0120  -26.8101   19.4939 C   0  0  0  0  0  0
  -24.8768  -27.6464   19.4781 C   0  0  0  0  0  0
  -23.6696  -29.7981   20.1537 C   0  0  0  0  0  0
  -25.4127  -36.3034   24.0317 C   0  0  1  0  0  0
  -20.5919  -28.3710   23.1237 C   0  0  2  0  0  0
  -20.6792  -26.9413   22.5410 C   0  0  0  0  0  0
  -19.5774  -26.6379   21.5205 C   0  0  0  0  0  0
  -18.1953  -26.7936   22.1610 C   0  0  0  0  0  0
  -19.1566  -28.8871   23.2846 C   0  0  0  0  0  0
  -18.9483  -30.1470   23.8866 C   0  0  0  0  0  0
  -17.6479  -30.6586   24.0558 C   0  0  0  0  0  0
  -25.9073  -34.9409   23.5067 C   0  0  0  0  0  0
  -16.5370  -29.9077   23.6341 C   0  0  0  0  0  0
  -16.7296  -28.6502   23.0351 C   0  0  0  0  0  0
  -26.4529  -31.6562   25.0707 C   0  0  0  0  0  0
  -25.3724  -31.3768   26.1419 C   0  0  0  0  0  0
  -27.0377  -30.2956   24.6276 C   0  0  0  0  0  0
  -27.6086  -32.4308   25.7471 C   0  0  0  0  0  0
  -27.5583  -37.1776   24.8464 C   0  0  0  0  0  0
  -21.4255  -29.3039   22.3609 N   0  0  0  0  0  0
  -26.4289  -37.3749   23.9414 N   0  0  0  0  0  0
  -24.7147  -31.0329   22.0924 N   0  0  0  0  0  0
  -23.4217  -28.8100   23.2999 O   0  0  0  0  0  0
  -28.2775  -26.1735   20.2098 O   0  0  0  0  0  0
  -26.5645  -34.8903   22.4634 O   0  0  0  0  0  0
  -23.5543  -32.1324   23.7138 O   0  0  0  0  0  0
  -28.2153  -18.0953   20.7491 C   0  0  0  0  0  0
  -30.4833  -18.5413   20.2926 C   0  0  0  0  0  0
  -27.9193  -19.5039   20.6778 C   0  0  0  0  0  0
  -30.1796  -19.9799   20.2323 C   0  0  0  0  0  0
  -29.5053  -17.5105   20.5545 C   0  0  0  0  0  0
  -28.8633  -20.5436   20.4177 C   0  0  0  0  0  0
  -28.9684  -23.3056   20.2949 C   0  0  0  0  0  0
  -27.9754  -24.6526   20.0919 C   0  0  0  0  0  0
  -29.6169  -15.9865   20.6674 N   0  0  0  0  0  0
  -28.3409  -21.9105   20.3531 O   0  0  0  0  0  0
  -31.4885  -12.7346   19.1825 H   0  0  0  0  0  0
  -30.4604  -11.5956   20.0058 H   0  0  0  0  0  0
  -29.8405  -11.7242   17.5774 H   0  0  0  0  0  0
  -29.6216  -13.4520   17.6963 H   0  0  0  0  0  0
  -27.9473  -11.2684   18.9696 H   0  0  0  0  0  0
  -27.3947  -12.4547   17.8166 H   0  0  0  0  0  0
  -27.6179  -14.2430   19.4364 H   0  0  0  0  0  0
  -28.7602  -12.2129   21.4208 H   0  0  0  0  0  0
  -28.3848  -13.8728   21.7977 H   0  0  0  0  0  0
  -25.2756   -9.5682   22.4757 H   0  0  0  0  0  0
  -24.0001   -7.4627   22.7461 H   0  0  0  0  0  0
  -21.0838   -8.8770   19.8954 H   0  0  0  0  0  0
  -22.3684  -10.9672   19.6174 H   0  0  0  0  0  0
  -21.2003   -7.6140   23.9709 H   0  0  0  0  0  0
  -21.1487   -6.0516   25.9075 H   0  0  0  0  0  0
  -22.0599   -2.7601   23.2843 H   0  0  0  0  0  0
  -22.4081  -11.9886   22.4849 H   0  0  0  0  0  0
  -21.1085  -13.1247   22.2656 H   0  0  0  0  0  0
  -24.6341  -15.8285   20.4849 H   0  0  0  0  0  0
  -26.2245  -15.6094   19.9608 H   0  0  0  0  0  0
  -26.7255  -32.5312   23.0996 H   0  0  0  0  0  0
  -25.0126  -33.9625   25.0360 H   0  0  0  0  0  0
  -22.7454  -31.2921   21.3833 H   0  0  0  0  0  0
  -23.3765  -35.9568   23.3292 H   0  0  0  0  0  0
  -24.3585  -36.8891   22.2059 H   0  0  0  0  0  0
  -23.7234  -37.6436   23.6677 H   0  0  0  0  0  0
  -26.1556  -31.4817   20.6172 H   0  0  0  0  0  0
  -26.8696  -30.7724   22.0293 H   0  0  0  0  0  0
  -28.1328  -28.8166   21.2280 H   0  0  0  0  0  0
  -25.9048  -25.8561   19.0019 H   0  0  0  0  0  0
  -23.9779  -27.3044   18.9838 H   0  0  0  0  0  0
  -23.8045  -30.5736   19.3988 H   0  0  0  0  0  0
  -22.7847  -29.2399   19.8437 H   0  0  0  0  0  0
  -25.1317  -36.1861   25.0809 H   0  0  0  0  0  0
  -21.0016  -28.3300   24.1354 H   0  0  0  0  0  0
  -20.5666  -26.2323   23.3628 H   0  0  0  0  0  0
  -21.6663  -26.7413   22.1221 H   0  0  0  0  0  0
  -19.6932  -25.6284   21.1253 H   0  0  0  0  0  0
  -19.6722  -27.3173   20.6721 H   0  0  0  0  0  0
  -17.4228  -26.6678   21.4008 H   0  0  0  0  0  0
  -18.0350  -26.0083   22.9011 H   0  0  0  0  0  0
  -19.7958  -30.7296   24.2215 H   0  0  0  0  0  0
  -17.5033  -31.6263   24.5169 H   0  0  0  0  0  0
  -15.5368  -30.2966   23.7685 H   0  0  0  0  0  0
  -15.8700  -28.0816   22.7066 H   0  0  0  0  0  0
  -24.5925  -30.7071   25.7773 H   0  0  0  0  0  0
  -24.8874  -32.2948   26.4746 H   0  0  0  0  0  0
  -25.8030  -30.9039   27.0255 H   0  0  0  0  0  0
  -26.2979  -29.6681   24.1289 H   0  0  0  0  0  0
  -27.4002  -29.7261   25.4844 H   0  0  0  0  0  0
  -27.8892  -30.4194   23.9579 H   0  0  0  0  0  0
  -27.2718  -33.3642   26.1990 H   0  0  0  0  0  0
  -28.3920  -32.6807   25.0300 H   0  0  0  0  0  0
  -28.0715  -31.8451   26.5425 H   0  0  0  0  0  0
  -28.2603  -38.0072   24.7518 H   0  0  0  0  0  0
  -28.1082  -36.2608   24.6283 H   0  0  0  0  0  0
  -27.2305  -37.1418   25.8868 H   0  0  0  0  0  0
  -20.9454  -29.8756   21.6799 H   0  0  0  0  0  0
  -26.0160  -38.2816   24.1435 H   0  0  0  0  0  0
  -27.3841  -17.4389   20.9640 H   0  0  0  0  0  0
  -31.5080  -18.2375   20.1325 H   0  0  0  0  0  0
  -26.8912  -19.7983   20.8356 H   0  0  0  0  0  0
  -30.9941  -20.6580   20.0223 H   0  0  0  0  0  0
  -29.5285  -23.4334   21.2214 H   0  0  0  0  0  0
  -29.7148  -23.2995   19.5002 H   0  0  0  0  0  0
  -27.1411  -24.4904   20.7758 H   0  0  0  0  0  0
  -27.5573  -24.5134   19.0959 H   0  0  0  0  0  0
  -28.7281  -15.5826   20.9203 H   0  0  0  0  0  0
  1 25  1  0  0  0
  1 30  2  0  0  0
  1 79  1  0  0  0
  2  3  1  0  0  0
  2 25  1  0  0  0
  2 81  1  0  0  0
  2 82  1  0  0  0
  3  4  1  0  0  0
  3 83  1  0  0  0
  3 84  1  0  0  0
  4  5  1  0  0  0
  4 85  1  0  0  0
  4 86  1  0  0  0
  5  6  1  0  0  0
  5 26  1  0  0  0
  5 87  1  0  0  0
  6 25  1  0  0  0
  6 88  1  0  0  0
  6 89  1  0  0  0
  7  8  2  0  0  0
  7 26  1  0  0  0
  7 29  1  0  0  0
  8  9  1  0  0  0
  8 22  1  0  0  0
  9 10  1  0  0  0
  9 27  2  0  0  0
 10 11  2  0  0  0
 10 15  1  0  0  0
 11 12  1  0  0  0
 11 90  1  0  0  0
 12 13  2  0  0  0
 12 91  1  0  0  0
 13 14  1  0  0  0
 13 31  1  0  0  0
 14 15  2  0  0  0
 14 92  1  0  0  0
 15 93  1  0  0  0
 16 17  2  0  0  0
 16 21  1  0  0  0
 16 31  1  0  0  0
 17 18  1  0  0  0
 17 94  1  0  0  0
 18 19  2  0  0  0
 18 95  1  0  0  0
 19 20  1  0  0  0
 19 24  1  0  0  0
 20 21  2  0  0  0
 20 96  1  0  0  0
 21 23  1  0  0  0
 22 28  1  0  0  0
 22 32  2  0  0  0
 26 27  1  0  0  0
 28 97  1  0  0  0
 28 98  1  0  0  0
 29 99  1  0  0  0
 29100  1  0  0  0
 33 34  1  0  0  0
 33 66  1  0  0  0
 33 70  2  0  0  0
 34 36  1  0  0  0
 34 59  1  0  0  0
 34101  1  0  0  0
 35 44  2  0  0  0
 35 45  1  0  0  0
 35 68  1  0  0  0
 36 56  1  0  0  0
 36102  1  0  0  0
 37 39  1  0  0  0
 37 47  1  0  0  0
 37 66  1  0  0  0
 37103  1  0  0  0
 38 43  2  0  0  0
 38 46  1  0  0  0
 38 47  1  0  0  0
 39 64  1  0  0  0
 39 67  2  0  0  0
 40 52  1  0  0  0
 40 53  2  0  0  0
 40 58  1  0  0  0
 41104  1  0  0  0
 41105  1  0  0  0
 41106  1  0  0  0
 41 48  1  0  0  0
 42 43  1  0  0  0
 42 66  1  0  0  0
 42107  1  0  0  0
 42108  1  0  0  0
 43 44  1  0  0  0
 44109  1  0  0  0
 45 46  2  0  0  0
 45110  1  0  0  0
 46111  1  0  0  0
 47112  1  0  0  0
 47113  1  0  0  0
 48 56  1  0  0  0
 48 65  1  0  0  0
 48114  1  0  0  0
 49 50  1  0  0  0
 49 53  1  0  0  0
 49 64  1  0  0  0
 49115  1  0  0  0
 50 51  1  0  0  0
 50116  1  0  0  0
 50117  1  0  0  0
 51 52  1  0  0  0
 51118  1  0  0  0
 51119  1  0  0  0
 52120  1  0  0  0
 52121  1  0  0  0
 53 54  1  0  0  0
 54 55  2  0  0  0
 54122  1  0  0  0
 55 57  1  0  0  0
 55123  1  0  0  0
 56 69  2  0  0  0
 57 58  2  0  0  0
 57124  1  0  0  0
 58125  1  0  0  0
 59 60  1  0  0  0
 59 61  1  0  0  0
 59 62  1  0  0  0
 60126  1  0  0  0
 60127  1  0  0  0
 60128  1  0  0  0
 61129  1  0  0  0
 61130  1  0  0  0
 61131  1  0  0  0
 62132  1  0  0  0
 62133  1  0  0  0
 62134  1  0  0  0
 63 65  1  0  0  0
 63135  1  0  0  0
 63136  1  0  0  0
 63137  1  0  0  0
 64138  1  0  0  0
 65139  1  0  0  0
 68 78  1  0  0  0
 71 73  2  0  0  0
 71 75  1  0  0  0
 71140  1  0  0  0
 72 74  1  0  0  0
 72 75  2  0  0  0
 72141  1  0  0  0
 73 76  1  0  0  0
 73142  1  0  0  0
 74 76  2  0  0  0
 74143  1  0  0  0
 75 79  1  0  0  0
 76 80  1  0  0  0
 77 78  1  0  0  0
 77 80  1  0  0  0
 77144  1  0  0  0
 77145  1  0  0  0
 78146  1  0  0  0
 78147  1  0  0  0
 79148  1  0  0  0
M  ISO  4   1 100  68 101  78 101  79 100
M  END
> <chiral flag>
0

> <version>
0

> <s_m_source_file>
/data/baiqing/PycharmProjects/Reinvent-master-3.2/result/LINK_invent/BTK/process_docking_weight1_custom_sum_contain_oxygen_bond_distance_aromatic_linkinvent_7_9_3/rearranged_h_0007.sdf

> <i_m_source_file_index>
27

> <r_mmod_Potential_Energy-OPLS-2005>
453.292022705078

> <r_mmod_Stretch_Energy-OPLS-2005>
216.148208618164

> <r_mmod_Bend_Energy-OPLS-2005>
303.559814453125

> <r_mmod_Torsional_Energy-OPLS-2005>
210.8935546875

> <r_mmod_Improper_Torsional_Energy-OPLS-2005>
4.47378873825073

> <r_mmod_Van_der_Waal_Energy-OPLS-2005>
131.151794433594

> <r_mmod_Electrostatic_Energy-OPLS-2005>
-373.256744384766

> <r_mmod_Solvation_Energy-OPLS-2005>
-214.08235168457

> <b_mmod_Minimization_Converged-OPLS-2005>
0

> <r_mmod_RMS_Derivative-OPLS-2005>
0.848834156990051

$$$$
27
                    3D
 Structure written by MMmdl.
189197  0  0  1  0            999 V2000
  -30.7156  -14.4300   20.4844 C   0  0  0  0  0  0
  -30.4164  -12.2657   19.4241 C   0  0  0  0  0  0
  -29.4898  -12.4627   18.2049 C   0  0  0  0  0  0
  -28.0121  -12.3302   18.6193 C   0  0  0  0  0  0
  -27.6548  -13.1994   19.8536 C   0  0  2  0  0  0
  -28.6950  -13.0189   20.9835 C   0  0  0  0  0  0
  -25.2568  -13.8169   20.5590 C   0  0  0  0  0  0
  -24.1819  -13.0468   20.9168 C   0  0  0  0  0  0
  -24.6349  -11.6932   20.8755 C   0  0  0  0  0  0
  -23.9014  -10.4317   21.0429 C   0  0  0  0  0  0
  -24.3597   -9.4232   21.9185 C   0  0  0  0  0  0
  -23.6289   -8.2260   22.0743 C   0  0  0  0  0  0
  -22.4267   -8.0276   21.3547 C   0  0  0  0  0  0
  -21.9896   -9.0247   20.4645 C   0  0  0  0  0  0
  -22.7210  -10.2132   20.3062 C   0  0  0  0  0  0
  -21.6845   -6.0736   22.5280 C   0  0  0  0  0  0
  -21.4000   -6.5633   23.8207 C   0  0  0  0  0  0
  -21.3663   -5.6779   24.9173 C   0  0  0  0  0  0
  -21.6041   -4.3043   24.7229 C   0  0  0  0  0  0
  -21.8822   -3.8146   23.4351 C   0  0  0  0  0  0
  -21.9178   -4.6968   22.3401 C   0  0  0  0  0  0
  -22.7844  -13.5277   21.1829 C   0  0  0  0  0  0
  -22.1651   -4.2152   21.0985 F   0  0  0  0  0  0
  -21.5645   -3.4535   25.7757 F   0  0  0  0  0  0
  -30.0348  -13.2623   20.4287 N   0  0  0  0  0  0
  -26.2973  -12.9312   20.3260 N   0  0  0  0  0  0
  -25.9267  -11.6487   20.5778 N   0  0  0  0  0  0
  -22.0439  -12.8300   22.0388 N   0  0  0  0  0  0
  -25.4354  -15.1876   20.3959 N   0  0  0  0  0  0
  -31.9233  -14.5240   20.2649 O   0  0  0  0  0  0
  -21.6640   -6.8882   21.4238 O   0  0  0  0  0  0
  -22.3552  -14.5581   20.6642 O   0  0  0  0  0  0
  -24.6085  -31.8696   23.2128 C   0  0  0  0  0  0
  -25.9004  -32.4797   23.8414 C   0  0  1  0  0  0
  -27.2404  -27.4913   20.0551 C   0  0  0  0  0  0
  -25.5863  -33.8606   24.2316 N   0  0  0  0  0  0
  -23.3945  -30.4921   21.5541 C   0  0  2  0  0  0
  -24.8419  -28.9564   20.1262 C   0  0  0  0  0  0
  -22.7388  -29.4635   22.5042 C   0  0  0  0  0  0
  -18.0275  -28.1330   22.8499 C   0  0  0  0  0  0
  -24.1499  -36.7301   23.2646 C   0  0  0  0  0  0
  -25.9201  -30.8505   21.3588 C   0  0  0  0  0  0
  -26.0032  -29.4880   20.7043 C   0  0  0  0  0  0
  -27.2106  -28.7616   20.6678 C   0  0  0  0  0  0
  -26.0556  -26.9380   19.5295 C   0  0  0  0  0  0
  -24.8577  -27.6762   19.5437 C   0  0  0  0  0  0
  -23.6019  -29.8185   20.1718 C   0  0  0  0  0  0
  -25.4113  -36.3073   24.0338 C   0  0  1  0  0  0
  -20.5852  -28.3597   23.1369 C   0  0  2  0  0  0
  -20.6748  -26.9346   22.5413 C   0  0  0  0  0  0
  -19.5742  -26.6366   21.5188 C   0  0  0  0  0  0
  -18.1924  -26.7891   22.1614 C   0  0  0  0  0  0
  -19.1512  -28.8792   23.2932 C   0  0  0  0  0  0
  -18.9427  -30.1406   23.8926 C   0  0  0  0  0  0
  -17.6418  -30.6544   24.0548 C   0  0  0  0  0  0
  -25.9020  -34.9438   23.5130 C   0  0  0  0  0  0
  -16.5327  -29.9028   23.6290 C   0  0  0  0  0  0
  -16.7256  -28.6445   23.0332 C   0  0  0  0  0  0
  -26.4430  -31.6585   25.0751 C   0  0  0  0  0  0
  -25.3701  -31.3738   26.1528 C   0  0  0  0  0  0
  -27.0270  -30.3040   24.6096 C   0  0  0  0  0  0
  -27.5998  -32.4334   25.7482 C   0  0  0  0  0  0
  -27.5566  -37.1798   24.8450 C   0  0  0  0  0  0
  -21.4119  -29.3016   22.3811 N   0  0  0  0  0  0
  -26.4284  -37.3767   23.9401 N   0  0  0  0  0  0
  -24.6590  -31.0845   22.0998 N   0  0  0  0  0  0
  -23.4193  -28.8172   23.3035 O   0  0  0  0  0  0
  -28.4061  -26.7898   19.9087 O   0  0  0  0  0  0
  -26.5582  -34.8902   22.4683 O   0  0  0  0  0  0
  -23.5285  -32.1419   23.7557 O   0  0  0  0  0  0
  -30.0405  -19.0661   18.1350 C   0  0  0  0  0  0
  -30.7071  -17.9253   17.6602 C   0  0  0  0  0  0
  -29.3785  -17.8349   20.1320 C   0  0  0  0  0  0
  -29.3626  -19.0267   19.3720 C   0  0  0  0  0  0
  -30.7107  -16.7345   18.4049 C   0  0  0  0  0  0
  -30.0508  -16.6807   19.6725 C   0  0  0  0  0  0
  -28.6944  -20.2603   19.9079 C   0  0  0  0  0  0
  -29.3237  -29.2940   16.0219 C   0  0  0  0  0  0
  -26.6631  -23.9327   15.7523 C   0  0  0  0  0  0
  -25.4039  -24.5674   15.1477 C   0  0  0  0  0  0
  -26.4456  -23.2977   17.1347 C   0  0  0  0  0  0
  -25.7239  -25.2917   13.8227 C   0  0  0  0  0  0
  -27.7530  -23.2508   17.9402 C   0  0  0  0  0  0
  -25.0006  -26.6388   13.6093 C   0  0  0  0  0  0
  -28.6105  -27.2831   17.4515 C   0  0  0  0  0  0
  -27.6615  -22.4190   19.2314 C   0  0  0  0  0  0
  -25.2157  -27.6927   14.7216 C   0  0  0  0  0  0
  -26.8239  -28.7621   16.2737 C   0  0  0  0  0  0
  -29.2575  -27.2822   18.8652 C   0  0  0  0  0  0
  -28.2280  -28.6916   16.9208 C   0  0  2  0  0  0
  -31.3541  -15.6435   17.8235 N   0  0  0  0  0  0
  -29.9292  -15.5147   20.4909 N   0  0  0  0  0  0
  -28.1394  -21.0623   18.9926 N   0  0  0  0  0  0
  -26.6351  -27.8427   15.1288 N   0  3  0  0  0  0
  -28.6662  -20.4907   21.1190 O   0  0  0  0  0  0
  -31.4629  -12.3455   19.1262 H   0  0  0  0  0  0
  -30.2996  -11.2649   19.8368 H   0  0  0  0  0  0
  -29.7298  -11.7235   17.4391 H   0  0  0  0  0  0
  -29.6593  -13.4398   17.7485 H   0  0  0  0  0  0
  -27.8330  -11.2779   18.8433 H   0  0  0  0  0  0
  -27.3575  -12.5761   17.7816 H   0  0  0  0  0  0
  -27.6889  -14.2364   19.5192 H   0  0  0  0  0  0
  -28.6461  -12.0051   21.3830 H   0  0  0  0  0  0
  -28.4808  -13.6898   21.8179 H   0  0  0  0  0  0
  -25.2745   -9.5740   22.4760 H   0  0  0  0  0  0
  -24.0004   -7.4656   22.7460 H   0  0  0  0  0  0
  -21.0817   -8.8757   19.8962 H   0  0  0  0  0  0
  -22.3649  -10.9661   19.6174 H   0  0  0  0  0  0
  -21.1984   -7.6142   23.9722 H   0  0  0  0  0  0
  -21.1476   -6.0511   25.9073 H   0  0  0  0  0  0
  -22.0600   -2.7618   23.2848 H   0  0  0  0  0  0
  -22.3997  -12.0002   22.4894 H   0  0  0  0  0  0
  -21.1040  -13.1356   22.2502 H   0  0  0  0  0  0
  -24.6788  -15.8559   20.4980 H   0  0  0  0  0  0
  -26.2905  -15.6122   20.0600 H   0  0  0  0  0  0
  -26.7075  -32.5525   23.1179 H   0  0  0  0  0  0
  -24.9977  -33.9765   25.0433 H   0  0  0  0  0  0
  -22.6768  -31.3030   21.4127 H   0  0  0  0  0  0
  -23.3728  -35.9663   23.3309 H   0  0  0  0  0  0
  -24.3570  -36.8923   22.2048 H   0  0  0  0  0  0
  -23.7295  -37.6532   23.6654 H   0  0  0  0  0  0
  -26.0303  -31.6268   20.6004 H   0  0  0  0  0  0
  -26.8078  -30.8995   21.9774 H   0  0  0  0  0  0
  -28.1164  -29.1855   21.0813 H   0  0  0  0  0  0
  -26.0782  -25.9603   19.0713 H   0  0  0  0  0  0
  -23.9602  -27.2580   19.1115 H   0  0  0  0  0  0
  -23.7044  -30.5886   19.4064 H   0  0  0  0  0  0
  -22.7296  -29.2309   19.8808 H   0  0  0  0  0  0
  -25.1288  -36.1908   25.0827 H   0  0  0  0  0  0
  -20.9940  -28.3132   24.1497 H   0  0  0  0  0  0
  -20.5596  -26.2188   23.3569 H   0  0  0  0  0  0
  -21.6624  -26.7362   22.1247 H   0  0  0  0  0  0
  -19.6887  -25.6281   21.1196 H   0  0  0  0  0  0
  -19.6689  -27.3187   20.6735 H   0  0  0  0  0  0
  -17.4174  -26.6621   21.4032 H   0  0  0  0  0  0
  -18.0369  -26.0020   22.9007 H   0  0  0  0  0  0
  -19.7899  -30.7224   24.2327 H   0  0  0  0  0  0
  -17.4959  -31.6245   24.5099 H   0  0  0  0  0  0
  -15.5317  -30.2919   23.7596 H   0  0  0  0  0  0
  -15.8683  -28.0758   22.7037 H   0  0  0  0  0  0
  -24.5816  -30.7126   25.7907 H   0  0  0  0  0  0
  -24.8942  -32.2929   26.4966 H   0  0  0  0  0  0
  -25.8077  -30.8908   27.0280 H   0  0  0  0  0  0
  -26.2836  -29.6825   24.1086 H   0  0  0  0  0  0
  -27.4007  -29.7248   25.4544 H   0  0  0  0  0  0
  -27.8671  -30.4383   23.9286 H   0  0  0  0  0  0
  -27.2570  -33.3614   26.2080 H   0  0  0  0  0  0
  -28.3769  -32.6956   25.0285 H   0  0  0  0  0  0
  -28.0695  -31.8455   26.5372 H   0  0  0  0  0  0
  -28.2588  -38.0092   24.7486 H   0  0  0  0  0  0
  -28.1068  -36.2620   24.6279 H   0  0  0  0  0  0
  -27.2275  -37.1455   25.8858 H   0  0  0  0  0  0
  -20.9234  -29.8746   21.7080 H   0  0  0  0  0  0
  -26.0158  -38.2847   24.1408 H   0  0  0  0  0  0
  -30.0683  -19.9660   17.5376 H   0  0  0  0  0  0
  -31.2081  -17.9695   16.7034 H   0  0  0  0  0  0
  -28.8693  -17.8002   21.0857 H   0  0  0  0  0  0
  -30.2798  -29.3393   16.5454 H   0  0  0  0  0  0
  -29.0735  -30.3107   15.7153 H   0  0  0  0  0  0
  -29.4805  -28.7098   15.1144 H   0  0  0  0  0  0
  -27.4281  -24.7041   15.8386 H   0  0  0  0  0  0
  -27.0664  -23.1859   15.0666 H   0  0  0  0  0  0
  -24.9805  -25.2524   15.8787 H   0  0  0  0  0  0
  -24.6352  -23.8110   14.9834 H   0  0  0  0  0  0
  -26.0269  -22.2967   17.0228 H   0  0  0  0  0  0
  -25.7128  -23.8733   17.7011 H   0  0  0  0  0  0
  -25.4818  -24.6214   12.9969 H   0  0  0  0  0  0
  -26.7986  -25.4534   13.7224 H   0  0  0  0  0  0
  -28.0292  -24.2724   18.2027 H   0  0  0  0  0  0
  -28.5658  -22.8844   17.3120 H   0  0  0  0  0  0
  -23.9296  -26.4548   13.4992 H   0  0  0  0  0  0
  -25.3263  -27.0595   12.6567 H   0  0  0  0  0  0
  -27.7498  -26.6147   17.4518 H   0  0  0  0  0  0
  -29.3042  -26.8178   16.7487 H   0  0  0  0  0  0
  -26.6429  -22.4026   19.6225 H   0  0  0  0  0  0
  -28.2829  -22.8926   19.9956 H   0  0  0  0  0  0
  -24.6184  -27.4198   15.5921 H   0  0  0  0  0  0
  -24.8301  -28.6588   14.3936 H   0  0  0  0  0  0
  -26.6083  -29.7784   15.9415 H   0  0  0  0  0  0
  -26.0843  -28.5339   17.0412 H   0  0  0  0  0  0
  -29.6406  -28.2700   19.1262 H   0  0  0  0  0  0
  -30.1244  -26.6223   18.8442 H   0  0  0  0  0  0
  -28.1520  -29.3544   17.7844 H   0  0  0  0  0  0
  -32.0407  -15.8422   17.1057 H   0  0  0  0  0  0
  -31.7409  -15.0058   18.5212 H   0  0  0  0  0  0
  -29.0176  -15.3745   20.8931 H   0  0  0  0  0  0
  -28.1504  -20.7372   18.0361 H   0  0  0  0  0  0
  -27.1795  -28.1622   14.3427 H   0  0  0  0  0  0
  -26.9762  -26.9355   15.3943 H   0  0  0  0  0  0
  1 25  1  0  0  0
  1 30  2  0  0  0
  1 92  1  0  0  0
  2  3  1  0  0  0
  2 25  1  0  0  0
  2 96  1  0  0  0
  2 97  1  0  0  0
  3  4  1  0  0  0
  3 98  1  0  0  0
  3 99  1  0  0  0
  4  5  1  0  0  0
  4100  1  0  0  0
  4101  1  0  0  0
  5  6  1  0  0  0
  5 26  1  0  0  0
  5102  1  0  0  0
  6 25  1  0  0  0
  6103  1  0  0  0
  6104  1  0  0  0
  7  8  2  0  0  0
  7 26  1  0  0  0
  7 29  1  0  0  0
  8  9  1  0  0  0
  8 22  1  0  0  0
  9 10  1  0  0  0
  9 27  2  0  0  0
 10 11  2  0  0  0
 10 15  1  0  0  0
 11 12  1  0  0  0
 11105  1  0  0  0
 12 13  2  0  0  0
 12106  1  0  0  0
 13 14  1  0  0  0
 13 31  1  0  0  0
 14 15  2  0  0  0
 14107  1  0  0  0
 15108  1  0  0  0
 16 17  2  0  0  0
 16 21  1  0  0  0
 16 31  1  0  0  0
 17 18  1  0  0  0
 17109  1  0  0  0
 18 19  2  0  0  0
 18110  1  0  0  0
 19 20  1  0  0  0
 19 24  1  0  0  0
 20 21  2  0  0  0
 20111  1  0  0  0
 21 23  1  0  0  0
 22 28  1  0  0  0
 22 32  2  0  0  0
 26 27  1  0  0  0
 28112  1  0  0  0
 28113  1  0  0  0
 29114  1  0  0  0
 29115  1  0  0  0
 33 34  1  0  0  0
 33 66  1  0  0  0
 33 70  2  0  0  0
 34 36  1  0  0  0
 34 59  1  0  0  0
 34116  1  0  0  0
 35 44  2  0  0  0
 35 45  1  0  0  0
 35 68  1  0  0  0
 36 56  1  0  0  0
 36117  1  0  0  0
 37 39  1  0  0  0
 37 47  1  0  0  0
 37 66  1  0  0  0
 37118  1  0  0  0
 38 43  2  0  0  0
 38 46  1  0  0  0
 38 47  1  0  0  0
 39 64  1  0  0  0
 39 67  2  0  0  0
 40 52  1  0  0  0
 40 53  2  0  0  0
 40 58  1  0  0  0
 41119  1  0  0  0
 41120  1  0  0  0
 41121  1  0  0  0
 41 48  1  0  0  0
 42 43  1  0  0  0
 42 66  1  0  0  0
 42122  1  0  0  0
 42123  1  0  0  0
 43 44  1  0  0  0
 44124  1  0  0  0
 45 46  2  0  0  0
 45125  1  0  0  0
 46126  1  0  0  0
 47127  1  0  0  0
 47128  1  0  0  0
 48 56  1  0  0  0
 48 65  1  0  0  0
 48129  1  0  0  0
 49 50  1  0  0  0
 49 53  1  0  0  0
 49 64  1  0  0  0
 49130  1  0  0  0
 50 51  1  0  0  0
 50131  1  0  0  0
 50132  1  0  0  0
 51 52  1  0  0  0
 51133  1  0  0  0
 51134  1  0  0  0
 52135  1  0  0  0
 52136  1  0  0  0
 53 54  1  0  0  0
 54 55  2  0  0  0
 54137  1  0  0  0
 55 57  1  0  0  0
 55138  1  0  0  0
 56 69  2  0  0  0
 57 58  2  0  0  0
 57139  1  0  0  0
 58140  1  0  0  0
 59 60  1  0  0  0
 59 61  1  0  0  0
 59 62  1  0  0  0
 60141  1  0  0  0
 60142  1  0  0  0
 60143  1  0  0  0
 61144  1  0  0  0
 61145  1  0  0  0
 61146  1  0  0  0
 62147  1  0  0  0
 62148  1  0  0  0
 62149  1  0  0  0
 63 65  1  0  0  0
 63150  1  0  0  0
 63151  1  0  0  0
 63152  1  0  0  0
 64153  1  0  0  0
 65154  1  0  0  0
 68 89  1  0  0  0
 71 72  2  0  0  0
 71 74  1  0  0  0
 71155  1  0  0  0
 72 75  1  0  0  0
 72156  1  0  0  0
 73 74  2  0  0  0
 73 76  1  0  0  0
 73157  1  0  0  0
 74 77  1  0  0  0
 75 76  2  0  0  0
 75 91  1  0  0  0
 76 92  1  0  0  0
 77 93  1  0  0  0
 77 95  2  0  0  0
 78158  1  0  0  0
 78159  1  0  0  0
 78160  1  0  0  0
 78 90  1  0  0  0
 79 80  1  0  0  0
 79 81  1  0  0  0
 79161  1  0  0  0
 79162  1  0  0  0
 80 82  1  0  0  0
 80163  1  0  0  0
 80164  1  0  0  0
 81 83  1  0  0  0
 81165  1  0  0  0
 81166  1  0  0  0
 82 84  1  0  0  0
 82167  1  0  0  0
 82168  1  0  0  0
 83 86  1  0  0  0
 83169  1  0  0  0
 83170  1  0  0  0
 84 87  1  0  0  0
 84171  1  0  0  0
 84172  1  0  0  0
 85 89  1  0  0  0
 85 90  1  0  0  0
 85173  1  0  0  0
 85174  1  0  0  0
 86 93  1  0  0  0
 86175  1  0  0  0
 86176  1  0  0  0
 87 94  1  0  0  0
 87177  1  0  0  0
 87178  1  0  0  0
 88 90  1  0  0  0
 88 94  1  0  0  0
 88179  1  0  0  0
 88180  1  0  0  0
 89181  1  0  0  0
 89182  1  0  0  0
 90183  1  0  0  0
 91184  1  0  0  0
 91185  1  0  0  0
 92186  1  0  0  0
 93187  1  0  0  0
 94188  1  0  0  0
 94189  1  0  0  0
M  CHG  1  94   1
M  ISO  4   1 100  68 101  89 101  92 100
M  END
> <chiral flag>
0

> <version>
0

> <s_m_source_file>
/data/baiqing/PycharmProjects/Reinvent-master-3.2/result/LINK_invent/BTK/process_docking_weight1_custom_sum_contain_oxygen_bond_distance_aromatic_linkinvent_7_9_3/rearranged_h_0007.sdf

> <i_m_source_file_index>
28

> <r_mmod_Potential_Energy-OPLS-2005>
-250.765853881836

> <r_mmod_Stretch_Energy-OPLS-2005>
36.052734375

> <r_mmod_Bend_Energy-OPLS-2005>
107.181182861328

> <r_mmod_Torsional_Energy-OPLS-2005>
359.032745361328

> <r_mmod_Improper_Torsional_Energy-OPLS-2005>
14.1682100296021

> <r_mmod_Van_der_Waal_Energy-OPLS-2005>
149.044219970703

> <r_mmod_Electrostatic_Energy-OPLS-2005>
-462.470458984375

> <r_mmod_Solvation_Energy-OPLS-2005>
-476.334411621094

> <b_mmod_Minimization_Converged-OPLS-2005>
0

> <r_mmod_RMS_Derivative-OPLS-2005>
4.03091096878052

$$$$
28
                    3D
 Structure written by MMmdl.
176184  0  0  1  0            999 V2000
  -29.7368  -12.7906   20.0726 C   0  0  0  0  0  0
  -30.7038  -12.0460   19.0870 C   0  0  0  0  0  0
  -29.5299  -12.7638   17.7507 C   0  0  0  0  0  0
  -28.0246  -13.5791   18.3584 C   0  0  0  0  0  0
  -27.6588  -13.7925   20.1451 C   0  0  2  0  0  0
  -28.9005  -13.1433   21.3861 C   0  0  0  0  0  0
  -25.3644  -14.1199   20.5404 C   0  0  0  0  0  0
  -24.2968  -13.4601   20.9619 C   0  0  0  0  0  0
  -24.7893  -11.9734   21.2173 C   0  0  0  0  0  0
  -24.2460  -10.4207   21.2514 C   0  0  0  0  0  0
  -24.3382   -9.5521   22.3628 C   0  0  0  0  0  0
  -23.5851   -8.3359   22.4750 C   0  0  0  0  0  0
  -22.5781   -7.9903   21.5290 C   0  0  0  0  0  0
  -22.5394   -8.7289   20.3779 C   0  0  0  0  0  0
  -23.5628   -9.6648   20.2109 C   0  0  0  0  0  0
  -21.6838   -6.0742   22.5985 C   0  0  0  0  0  0
  -21.3684   -6.5423   23.8877 C   0  0  0  0  0  0
  -21.3402   -5.6445   24.9643 C   0  0  0  0  0  0
  -21.5984   -4.2804   24.7447 C   0  0  0  0  0  0
  -21.8793   -3.8079   23.4493 C   0  0  0  0  0  0
  -21.9212   -4.7055   22.3713 C   0  0  0  0  0  0
  -22.9507  -14.3539   20.7149 C   0  0  0  0  0  0
  -22.1735   -4.2479   21.1187 F   0  0  0  0  0  0
  -21.5619   -3.4186   25.7846 F   0  0  0  0  0  0
  -30.2895  -12.3102   20.7731 N   0  0  0  0  0  0
  -26.3877  -13.2938   20.5874 N   0  0  0  0  0  0
  -26.1023  -12.0420   21.0908 N   0  0  0  0  0  0
  -21.7695  -14.3875   21.3479 N   0  0  0  0  0  0
  -25.5303  -15.3776   19.9928 N   0  0  0  0  0  0
  -30.2641  -14.0847   19.8395 O   0  0  0  0  0  0
  -21.7022   -6.9329   21.5468 O   0  0  0  0  0  0
  -22.8176  -15.0922   19.7855 O   0  0  0  0  0  0
  -24.6523  -31.8360   23.1872 C   0  0  0  0  0  0
  -25.9285  -32.4618   23.8232 C   0  0  1  0  0  0
  -26.8885  -26.8625   20.3558 C   0  0  0  0  0  0
  -25.6025  -33.8437   24.2133 N   0  0  0  0  0  0
  -23.4506  -30.4747   21.5306 C   0  0  2  0  0  0
  -24.8661  -28.9024   20.0745 C   0  0  0  0  0  0
  -22.7567  -29.4545   22.4717 C   0  0  0  0  0  0
  -18.0310  -28.1410   22.8453 C   0  0  0  0  0  0
  -24.1504  -36.7228   23.2640 C   0  0  0  0  0  0
  -26.0157  -30.6303   21.4248 C   0  0  0  0  0  0
  -26.0326  -29.2265   20.7787 C   0  0  0  0  0  0
  -27.0674  -28.2114   20.9116 C   0  0  0  0  0  0
  -25.8300  -26.7532   19.4463 C   0  0  0  0  0  0
  -24.8072  -27.7069   19.3532 C   0  0  0  0  0  0
  -23.6756  -29.8433   20.1303 C   0  0  0  0  0  0
  -25.4142  -36.2981   24.0288 C   0  0  1  0  0  0
  -20.5920  -28.3756   23.1168 C   0  0  2  0  0  0
  -20.6789  -26.9444   22.5386 C   0  0  0  0  0  0
  -19.5775  -26.6376   21.5190 C   0  0  0  0  0  0
  -18.1955  -26.7941   22.1600 C   0  0  0  0  0  0
  -19.1567  -28.8896   23.2807 C   0  0  0  0  0  0
  -18.9488  -30.1477   23.8859 C   0  0  0  0  0  0
  -17.6489  -30.6598   24.0553 C   0  0  0  0  0  0
  -25.9105  -34.9361   23.5011 C   0  0  0  0  0  0
  -16.5374  -29.9095   23.6339 C   0  0  0  0  0  0
  -16.7293  -28.6511   23.0356 C   0  0  0  0  0  0
  -26.4571  -31.6542   25.0733 C   0  0  0  0  0  0
  -25.3718  -31.3769   26.1399 C   0  0  0  0  0  0
  -27.0470  -30.2915   24.6443 C   0  0  0  0  0  0
  -27.6052  -32.4356   25.7549 C   0  0  0  0  0  0
  -27.5566  -37.1789   24.8465 C   0  0  0  0  0  0
  -21.4255  -29.3072   22.3498 N   0  0  0  0  0  0
  -26.4291  -37.3710   23.9390 N   0  0  0  0  0  0
  -24.7282  -31.0094   22.0996 N   0  0  0  0  0  0
  -23.4191  -28.8036   23.2843 O   0  0  0  0  0  0
  -27.4797  -25.5719   20.7143 O   0  0  0  0  0  0
  -26.5678  -34.8879   22.4590 O   0  0  0  0  0  0
  -23.5623  -32.1346   23.7042 O   0  0  0  0  0  0
  -26.1410   -9.3028   16.7648 C   0  0  0  0  0  0
  -25.3518  -10.2406   17.4300 C   0  0  0  0  0  0
  -28.0380   -9.9789   18.0769 C   0  0  0  0  0  0
  -27.4948   -9.1807   17.0599 C   0  0  0  0  0  0
  -25.7986  -11.1332   18.4402 C   0  0  0  0  0  0
  -27.3608  -11.0013   18.8076 C   0  0  0  0  0  0
  -23.0257  -12.0211   19.0216 C   0  0  0  0  0  0
  -26.7313  -22.6519   21.5392 C   0  0  0  0  0  0
  -22.1327  -11.8647   20.6398 C   0  0  0  0  0  0
  -26.5018  -24.2290   20.8186 C   0  0  0  0  0  0
  -22.4558  -12.3344   22.4953 C   0  0  0  0  0  0
  -23.3246  -13.7769   23.3926 C   0  0  0  0  0  0
  -23.4430  -15.6281   23.3164 C   0  0  0  0  0  0
  -24.6002  -16.9030   22.7523 C   0  0  0  0  0  0
  -24.6059  -18.7005   22.6056 C   0  0  0  0  0  0
  -25.8524  -19.9010   22.0973 C   0  0  0  0  0  0
  -28.3841   -8.2417   16.2487 C   0  0  0  0  0  0
  -24.4838  -12.0557   18.6268 N   0  0  0  0  0  0
  -28.5754  -11.5466   19.7769 N   0  0  0  0  0  0
  -25.7888  -21.5128   21.6680 N   0  0  0  0  0  0
  -22.2603  -12.1652   18.0685 O   0  0  0  0  0  0
  -27.8650  -22.4494   21.9830 O   0  0  0  0  0  0
  -27.6672   -7.3570   15.5568 F   0  0  0  0  0  0
  -29.1149   -8.9507   15.3894 F   0  0  0  0  0  0
  -29.2067   -7.5669   17.0496 F   0  0  0  0  0  0
  -31.7310  -12.4042   18.8838 H   0  0  0  0  0  0
  -30.8589  -10.9738   18.8953 H   0  0  0  0  0  0
  -29.2889  -12.0297   16.9817 H   0  0  0  0  0  0
  -30.0904  -13.5247   17.2057 H   0  0  0  0  0  0
  -27.1467  -13.2580   17.8015 H   0  0  0  0  0  0
  -28.1019  -14.6026   17.9909 H   0  0  0  0  0  0
  -27.7585  -14.8567   20.3480 H   0  0  0  0  0  0
  -28.4034  -12.5008   22.1283 H   0  0  0  0  0  0
  -29.1788  -13.9699   22.0651 H   0  0  0  0  0  0
  -24.9204   -9.8717   23.2183 H   0  0  0  0  0  0
  -23.7088   -7.7537   23.3761 H   0  0  0  0  0  0
  -21.9194   -8.4059   19.5545 H   0  0  0  0  0  0
  -23.6750   -9.8071   19.1630 H   0  0  0  0  0  0
  -21.1468   -7.5868   24.0561 H   0  0  0  0  0  0
  -21.1097   -5.9978   25.9592 H   0  0  0  0  0  0
  -22.0610   -2.7566   23.2865 H   0  0  0  0  0  0
  -21.6302  -13.8077   22.1628 H   0  0  0  0  0  0
  -21.0296  -14.9687   20.9836 H   0  0  0  0  0  0
  -24.7086  -15.8805   19.6740 H   0  0  0  0  0  0
  -26.3685  -15.6132   19.4753 H   0  0  0  0  0  0
  -26.7314  -32.5120   23.0890 H   0  0  0  0  0  0
  -25.0173  -33.9554   25.0279 H   0  0  0  0  0  0
  -22.7595  -31.3101   21.3961 H   0  0  0  0  0  0
  -23.3751  -35.9580   23.3313 H   0  0  0  0  0  0
  -24.3561  -36.8866   22.2049 H   0  0  0  0  0  0
  -23.7296  -37.6435   23.6692 H   0  0  0  0  0  0
  -26.2034  -31.3597   20.6359 H   0  0  0  0  0  0
  -26.8804  -30.6723   22.0739 H   0  0  0  0  0  0
  -27.8923  -28.3908   21.5876 H   0  0  0  0  0  0
  -25.6656  -25.8298   18.9123 H   0  0  0  0  0  0
  -23.9444  -27.4883   18.7408 H   0  0  0  0  0  0
  -23.8435  -30.6348   19.3993 H   0  0  0  0  0  0
  -22.7752  -29.3231   19.7974 H   0  0  0  0  0  0
  -25.1348  -36.1781   25.0778 H   0  0  0  0  0  0
  -21.0037  -28.3386   24.1273 H   0  0  0  0  0  0
  -20.5661  -26.2382   23.3624 H   0  0  0  0  0  0
  -21.6661  -26.7427   22.1199 H   0  0  0  0  0  0
  -19.6939  -25.6269   21.1265 H   0  0  0  0  0  0
  -19.6718  -27.3141   20.6682 H   0  0  0  0  0  0
  -17.4211  -26.6648   21.4012 H   0  0  0  0  0  0
  -18.0377  -26.0104   22.9024 H   0  0  0  0  0  0
  -19.7968  -30.7290   24.2216 H   0  0  0  0  0  0
  -17.5053  -31.6280   24.5167 H   0  0  0  0  0  0
  -15.5377  -30.2994   23.7704 H   0  0  0  0  0  0
  -15.8679  -28.0828   22.7106 H   0  0  0  0  0  0
  -24.5939  -30.7063   25.7723 H   0  0  0  0  0  0
  -24.8864  -32.2960   26.4688 H   0  0  0  0  0  0
  -25.7979  -30.9046   27.0260 H   0  0  0  0  0  0
  -26.3126  -29.6591   24.1439 H   0  0  0  0  0  0
  -27.3998  -29.7266   25.5081 H   0  0  0  0  0  0
  -27.9077  -30.4104   23.9858 H   0  0  0  0  0  0
  -27.2582  -33.3656   26.2068 H   0  0  0  0  0  0
  -28.3909  -32.6927   25.0431 H   0  0  0  0  0  0
  -28.0682  -31.8541   26.5535 H   0  0  0  0  0  0
  -28.2587  -38.0080   24.7467 H   0  0  0  0  0  0
  -28.1064  -36.2599   24.6361 H   0  0  0  0  0  0
  -27.2269  -37.1508   25.8868 H   0  0  0  0  0  0
  -20.9443  -29.8841   21.6741 H   0  0  0  0  0  0
  -26.0135  -38.2773   24.1377 H   0  0  0  0  0  0
  -25.6988   -8.6961   15.9889 H   0  0  0  0  0  0
  -24.3235  -10.2707   17.0944 H   0  0  0  0  0  0
  -29.0873   -9.8014   18.2565 H   0  0  0  0  0  0
  -21.5946  -10.9268   20.6790 H   0  0  0  0  0  0
  -21.2043  -12.3564   20.3519 H   0  0  0  0  0  0
  -25.5534  -24.5766   21.2293 H   0  0  0  0  0  0
  -26.2779  -23.9598   19.7851 H   0  0  0  0  0  0
  -22.7528  -11.4516   23.0515 H   0  0  0  0  0  0
  -21.4295  -12.4003   22.8702 H   0  0  0  0  0  0
  -24.3636  -13.4634   23.5244 H   0  0  0  0  0  0
  -22.9304  -13.6406   24.3986 H   0  0  0  0  0  0
  -23.4685  -15.8475   24.3826 H   0  0  0  0  0  0
  -22.4526  -16.0125   23.0725 H   0  0  0  0  0  0
  -24.7632  -16.6640   21.7272 H   0  0  0  0  0  0
  -25.5395  -16.6617   23.2480 H   0  0  0  0  0  0
  -24.2744  -19.0475   23.5839 H   0  0  0  0  0  0
  -23.7657  -18.9080   21.9461 H   0  0  0  0  0  0
  -26.3146  -19.4412   21.2249 H   0  0  0  0  0  0
  -26.6476  -19.8487   22.8431 H   0  0  0  0  0  0
  -24.4945  -12.7158   17.8607 H   0  0  0  0  0  0
  -28.8199  -10.8093   20.4185 H   0  0  0  0  0  0
  -24.8839  -21.7536   21.2838 H   0  0  0  0  0  0
  1 25  1  0  0  0
  1 30  2  0  0  0
  1 89  1  0  0  0
  2  3  1  0  0  0
  2 25  1  0  0  0
  2 96  1  0  0  0
  2 97  1  0  0  0
  3  4  1  0  0  0
  3 98  1  0  0  0
  3 99  1  0  0  0
  4  5  1  0  0  0
  4100  1  0  0  0
  4101  1  0  0  0
  5  6  1  0  0  0
  5 26  1  0  0  0
  5102  1  0  0  0
  6 25  1  0  0  0
  6103  1  0  0  0
  6104  1  0  0  0
  7  8  2  0  0  0
  7 26  1  0  0  0
  7 29  1  0  0  0
  8  9  1  0  0  0
  8 22  1  0  0  0
  9 10  1  0  0  0
  9 27  2  0  0  0
 10 11  2  0  0  0
 10 15  1  0  0  0
 11 12  1  0  0  0
 11105  1  0  0  0
 12 13  2  0  0  0
 12106  1  0  0  0
 13 14  1  0  0  0
 13 31  1  0  0  0
 14 15  2  0  0  0
 14107  1  0  0  0
 15108  1  0  0  0
 16 17  2  0  0  0
 16 21  1  0  0  0
 16 31  1  0  0  0
 17 18  1  0  0  0
 17109  1  0  0  0
 18 19  2  0  0  0
 18110  1  0  0  0
 19 20  1  0  0  0
 19 24  1  0  0  0
 20 21  2  0  0  0
 20111  1  0  0  0
 21 23  1  0  0  0
 22 28  1  0  0  0
 22 32  2  0  0  0
 26 27  1  0  0  0
 28112  1  0  0  0
 28113  1  0  0  0
 29114  1  0  0  0
 29115  1  0  0  0
 33 34  1  0  0  0
 33 66  1  0  0  0
 33 70  2  0  0  0
 34 36  1  0  0  0
 34 59  1  0  0  0
 34116  1  0  0  0
 35 44  2  0  0  0
 35 45  1  0  0  0
 35 68  1  0  0  0
 36 56  1  0  0  0
 36117  1  0  0  0
 37 39  1  0  0  0
 37 47  1  0  0  0
 37 66  1  0  0  0
 37118  1  0  0  0
 38 43  2  0  0  0
 38 46  1  0  0  0
 38 47  1  0  0  0
 39 64  1  0  0  0
 39 67  2  0  0  0
 40 52  1  0  0  0
 40 53  2  0  0  0
 40 58  1  0  0  0
 41119  1  0  0  0
 41120  1  0  0  0
 41121  1  0  0  0
 41 48  1  0  0  0
 42 43  1  0  0  0
 42 66  1  0  0  0
 42122  1  0  0  0
 42123  1  0  0  0
 43 44  1  0  0  0
 44124  1  0  0  0
 45 46  2  0  0  0
 45125  1  0  0  0
 46126  1  0  0  0
 47127  1  0  0  0
 47128  1  0  0  0
 48 56  1  0  0  0
 48 65  1  0  0  0
 48129  1  0  0  0
 49 50  1  0  0  0
 49 53  1  0  0  0
 49 64  1  0  0  0
 49130  1  0  0  0
 50 51  1  0  0  0
 50131  1  0  0  0
 50132  1  0  0  0
 51 52  1  0  0  0
 51133  1  0  0  0
 51134  1  0  0  0
 52135  1  0  0  0
 52136  1  0  0  0
 53 54  1  0  0  0
 54 55  2  0  0  0
 54137  1  0  0  0
 55 57  1  0  0  0
 55138  1  0  0  0
 56 69  2  0  0  0
 57 58  2  0  0  0
 57139  1  0  0  0
 58140  1  0  0  0
 59 60  1  0  0  0
 59 61  1  0  0  0
 59 62  1  0  0  0
 60141  1  0  0  0
 60142  1  0  0  0
 60143  1  0  0  0
 61144  1  0  0  0
 61145  1  0  0  0
 61146  1  0  0  0
 62147  1  0  0  0
 62148  1  0  0  0
 62149  1  0  0  0
 63 65  1  0  0  0
 63150  1  0  0  0
 63151  1  0  0  0
 63152  1  0  0  0
 64153  1  0  0  0
 65154  1  0  0  0
 68 80  1  0  0  0
 71 72  2  0  0  0
 71 74  1  0  0  0
 71155  1  0  0  0
 72 75  1  0  0  0
 72156  1  0  0  0
 73 74  2  0  0  0
 73 76  1  0  0  0
 73157  1  0  0  0
 74 87  1  0  0  0
 75 76  2  0  0  0
 75 88  1  0  0  0
 76 89  1  0  0  0
 77 79  1  0  0  0
 77 88  1  0  0  0
 77 91  2  0  0  0
 78 80  1  0  0  0
 78 90  1  0  0  0
 78 92  2  0  0  0
 79 81  1  0  0  0
 79158  1  0  0  0
 79159  1  0  0  0
 80160  1  0  0  0
 80161  1  0  0  0
 81 82  1  0  0  0
 81162  1  0  0  0
 81163  1  0  0  0
 82 83  1  0  0  0
 82164  1  0  0  0
 82165  1  0  0  0
 83 84  1  0  0  0
 83166  1  0  0  0
 83167  1  0  0  0
 84 85  1  0  0  0
 84168  1  0  0  0
 84169  1  0  0  0
 85 86  1  0  0  0
 85170  1  0  0  0
 85171  1  0  0  0
 86 90  1  0  0  0
 86172  1  0  0  0
 86173  1  0  0  0
 87 93  1  0  0  0
 87 94  1  0  0  0
 87 95  1  0  0  0
 88174  1  0  0  0
 89175  1  0  0  0
 90176  1  0  0  0
M  ISO  4   1 100  68 101  80 101  89 100
M  END
> <chiral flag>
0

> <version>
0

> <s_m_source_file>
/data/baiqing/PycharmProjects/Reinvent-master-3.2/result/LINK_invent/BTK/process_docking_weight1_custom_sum_contain_oxygen_bond_distance_aromatic_linkinvent_7_9_3/rearranged_h_0007.sdf

> <i_m_source_file_index>
29

> <r_mmod_Potential_Energy-OPLS-2005>
8805.9208984375

> <r_mmod_Stretch_Energy-OPLS-2005>
3045.44970703125

> <r_mmod_Bend_Energy-OPLS-2005>
1807.49133300781

> <r_mmod_Torsional_Energy-OPLS-2005>
566.200561523438

> <r_mmod_Improper_Torsional_Energy-OPLS-2005>
18.4835910797119

> <r_mmod_Van_der_Waal_Energy-OPLS-2005>
1845.73278808594

> <r_mmod_Electrostatic_Energy-OPLS-2005>
-476.837371826172

> <r_mmod_Solvation_Energy-OPLS-2005>
-266.963348388672

> <b_mmod_Minimization_Converged-OPLS-2005>
0

> <r_mmod_RMS_Derivative-OPLS-2005>
7.14842367172241

$$$$
29
                    3D
 Structure written by MMmdl.
151159  0  0  1  0            999 V2000
  -30.6305  -14.6455   20.5040 C   0  0  0  0  0  0
  -30.4376  -12.3963   19.4575 C   0  0  0  0  0  0
  -29.5085  -12.5103   18.2282 C   0  0  0  0  0  0
  -28.0315  -12.3480   18.6393 C   0  0  0  0  0  0
  -27.6534  -13.2200   19.8663 C   0  0  2  0  0  0
  -28.6987  -13.0800   20.9967 C   0  0  0  0  0  0
  -25.2518  -13.8143   20.5628 C   0  0  0  0  0  0
  -24.1805  -13.0410   20.9163 C   0  0  0  0  0  0
  -24.6398  -11.6892   20.8740 C   0  0  0  0  0  0
  -23.9069  -10.4279   21.0406 C   0  0  0  0  0  0
  -24.3617   -9.4197   21.9186 C   0  0  0  0  0  0
  -23.6289   -8.2235   22.0756 C   0  0  0  0  0  0
  -22.4272   -8.0276   21.3544 C   0  0  0  0  0  0
  -21.9908   -9.0249   20.4646 C   0  0  0  0  0  0
  -22.7240  -10.2126   20.3055 C   0  0  0  0  0  0
  -21.6850   -6.0733   22.5279 C   0  0  0  0  0  0
  -21.4013   -6.5637   23.8212 C   0  0  0  0  0  0
  -21.3658   -5.6791   24.9174 C   0  0  0  0  0  0
  -21.6044   -4.3054   24.7225 C   0  0  0  0  0  0
  -21.8820   -3.8145   23.4347 C   0  0  0  0  0  0
  -21.9192   -4.6961   22.3403 C   0  0  0  0  0  0
  -22.7830  -13.5206   21.1839 C   0  0  0  0  0  0
  -22.1661   -4.2147   21.0980 F   0  0  0  0  0  0
  -21.5629   -3.4538   25.7739 F   0  0  0  0  0  0
  -30.0157  -13.4209   20.4346 N   0  0  0  0  0  0
  -26.2989  -12.9357   20.3341 N   0  0  0  0  0  0
  -25.9339  -11.6507   20.5789 N   0  0  0  0  0  0
  -22.0486  -12.8204   22.0413 N   0  0  0  0  0  0
  -25.4142  -15.1845   20.3962 N   0  0  0  0  0  0
  -31.7888  -14.7987   20.1064 O   0  0  0  0  0  0
  -21.6635   -6.8875   21.4240 O   0  0  0  0  0  0
  -22.3505  -14.5512   20.6697 O   0  0  0  0  0  0
  -24.6267  -31.8602   23.2032 C   0  0  0  0  0  0
  -25.9113  -32.4781   23.8360 C   0  0  1  0  0  0
  -27.2239  -27.3177   20.1129 C   0  0  0  0  0  0
  -25.5928  -33.8582   24.2284 N   0  0  0  0  0  0
  -23.4201  -30.4852   21.5465 C   0  0  2  0  0  0
  -24.8657  -28.9425   20.1123 C   0  0  0  0  0  0
  -22.7477  -29.4628   22.4938 C   0  0  0  0  0  0
  -18.0288  -28.1383   22.8486 C   0  0  0  0  0  0
  -24.1490  -36.7296   23.2639 C   0  0  0  0  0  0
  -25.9626  -30.7910   21.3746 C   0  0  0  0  0  0
  -26.0368  -29.4193   20.7147 C   0  0  0  0  0  0
  -27.2194  -28.6200   20.7033 C   0  0  0  0  0  0
  -26.0247  -26.8959   19.4902 C   0  0  0  0  0  0
  -24.8619  -27.6860   19.4917 C   0  0  0  0  0  0
  -23.6345  -29.8228   20.1613 C   0  0  0  0  0  0
  -25.4115  -36.3086   24.0329 C   0  0  1  0  0  0
  -20.5888  -28.3688   23.1281 C   0  0  2  0  0  0
  -20.6777  -26.9412   22.5408 C   0  0  0  0  0  0
  -19.5752  -26.6384   21.5211 C   0  0  0  0  0  0
  -18.1933  -26.7926   22.1625 C   0  0  0  0  0  0
  -19.1540  -28.8853   23.2879 C   0  0  0  0  0  0
  -18.9463  -30.1454   23.8896 C   0  0  0  0  0  0
  -17.6462  -30.6585   24.0564 C   0  0  0  0  0  0
  -25.9050  -34.9453   23.5106 C   0  0  0  0  0  0
  -16.5354  -29.9084   23.6329 C   0  0  0  0  0  0
  -16.7274  -28.6502   23.0350 C   0  0  0  0  0  0
  -26.4495  -31.6590   25.0729 C   0  0  0  0  0  0
  -25.3729  -31.3727   26.1456 C   0  0  0  0  0  0
  -27.0338  -30.3014   24.6182 C   0  0  0  0  0  0
  -27.6053  -32.4325   25.7501 C   0  0  0  0  0  0
  -27.5577  -37.1809   24.8468 C   0  0  0  0  0  0
  -21.4190  -29.3044   22.3678 N   0  0  0  0  0  0
  -26.4295  -37.3777   23.9402 N   0  0  0  0  0  0
  -24.6888  -31.0616   22.0984 N   0  0  0  0  0  0
  -23.4200  -28.8163   23.3014 O   0  0  0  0  0  0
  -28.3420  -26.4649   20.1562 O   0  0  0  0  0  0
  -26.5617  -34.8919   22.4672 O   0  0  0  0  0  0
  -23.5430  -32.1399   23.7360 O   0  0  0  0  0  0
  -31.0217  -17.8487   20.1396 C   0  0  0  0  0  0
  -31.0135  -19.2700   20.0058 C   0  0  0  0  0  0
  -28.8384  -19.3873   21.0097 C   0  0  0  0  0  0
  -29.9338  -17.1508   20.7274 C   0  0  0  0  0  0
  -29.9272  -20.0853   20.4258 C   0  0  0  0  0  0
  -28.8503  -17.9669   21.1677 C   0  0  0  0  0  0
  -29.2752  -23.9615   20.3115 C   0  0  0  0  0  0
  -28.0945  -25.0027   20.0898 C   0  0  0  0  0  0
  -28.8995  -22.4082   20.3875 C   0  0  0  0  0  0
  -29.8409  -15.6947   20.8944 N   0  0  0  0  0  0
  -30.0311  -21.4855   20.2682 O   0  0  0  0  0  0
  -27.4972  -17.2215   21.9397 Cl  0  0  0  0  0  0
  -31.4794  -12.5174   19.1554 H   0  0  0  0  0  0
  -30.3699  -11.4017   19.9010 H   0  0  0  0  0  0
  -29.7734  -11.7581   17.4839 H   0  0  0  0  0  0
  -29.6509  -13.4795   17.7474 H   0  0  0  0  0  0
  -27.8688  -11.2949   18.8718 H   0  0  0  0  0  0
  -27.3772  -12.5768   17.7972 H   0  0  0  0  0  0
  -27.6693  -14.2553   19.5249 H   0  0  0  0  0  0
  -28.7100  -12.0600   21.3837 H   0  0  0  0  0  0
  -28.4420  -13.7154   21.8456 H   0  0  0  0  0  0
  -25.2763   -9.5672   22.4760 H   0  0  0  0  0  0
  -23.9996   -7.4626   22.7476 H   0  0  0  0  0  0
  -21.0839   -8.8771   19.8952 H   0  0  0  0  0  0
  -22.3702  -10.9665   19.6163 H   0  0  0  0  0  0
  -21.2005   -7.6146   23.9715 H   0  0  0  0  0  0
  -21.1479   -6.0521   25.9077 H   0  0  0  0  0  0
  -22.0600   -2.7607   23.2849 H   0  0  0  0  0  0
  -22.4109  -11.9866   22.4796 H   0  0  0  0  0  0
  -21.1110  -13.1235   22.2635 H   0  0  0  0  0  0
  -24.6534  -15.8378   20.5429 H   0  0  0  0  0  0
  -26.2839  -15.6419   20.1572 H   0  0  0  0  0  0
  -26.7181  -32.5450   23.1108 H   0  0  0  0  0  0
  -25.0074  -33.9728   25.0428 H   0  0  0  0  0  0
  -22.7140  -31.3060   21.4049 H   0  0  0  0  0  0
  -23.3745  -35.9637   23.3318 H   0  0  0  0  0  0
  -24.3576  -36.8900   22.2050 H   0  0  0  0  0  0
  -23.7253  -37.6508   23.6650 H   0  0  0  0  0  0
  -26.0952  -31.5557   20.6080 H   0  0  0  0  0  0
  -26.8426  -30.8378   22.0045 H   0  0  0  0  0  0
  -28.1179  -28.9827   21.1827 H   0  0  0  0  0  0
  -25.9473  -25.9394   18.9978 H   0  0  0  0  0  0
  -23.9645  -27.3145   19.0162 H   0  0  0  0  0  0
  -23.7549  -30.6006   19.4063 H   0  0  0  0  0  0
  -22.7541  -29.2537   19.8575 H   0  0  0  0  0  0
  -25.1297  -36.1943   25.0823 H   0  0  0  0  0  0
  -20.9980  -28.3262   24.1402 H   0  0  0  0  0  0
  -20.5679  -26.2298   23.3607 H   0  0  0  0  0  0
  -21.6646  -26.7442   22.1201 H   0  0  0  0  0  0
  -19.6914  -25.6295   21.1239 H   0  0  0  0  0  0
  -19.6687  -27.3195   20.6741 H   0  0  0  0  0  0
  -17.4200  -26.6668   21.4031 H   0  0  0  0  0  0
  -18.0338  -26.0069   22.9024 H   0  0  0  0  0  0
  -19.7939  -30.7270   24.2266 H   0  0  0  0  0  0
  -17.5017  -31.6265   24.5166 H   0  0  0  0  0  0
  -15.5354  -30.2986   23.7653 H   0  0  0  0  0  0
  -15.8675  -28.0822   22.7064 H   0  0  0  0  0  0
  -24.5904  -30.7075   25.7786 H   0  0  0  0  0  0
  -24.8920  -32.2893   26.4882 H   0  0  0  0  0  0
  -25.8055  -30.8905   27.0231 H   0  0  0  0  0  0
  -26.2913  -29.6767   24.1203 H   0  0  0  0  0  0
  -27.4033  -29.7267   25.4686 H   0  0  0  0  0  0
  -27.8784  -30.4301   23.9410 H   0  0  0  0  0  0
  -27.2659  -33.3622   26.2082 H   0  0  0  0  0  0
  -28.3862  -32.6893   25.0331 H   0  0  0  0  0  0
  -28.0722  -31.8450   26.5416 H   0  0  0  0  0  0
  -28.2611  -38.0089   24.7491 H   0  0  0  0  0  0
  -28.1057  -36.2620   24.6327 H   0  0  0  0  0  0
  -27.2290  -37.1499   25.8871 H   0  0  0  0  0  0
  -20.9366  -29.8774   21.6896 H   0  0  0  0  0  0
  -26.0179  -38.2857   24.1386 H   0  0  0  0  0  0
  -31.8850  -17.3072   19.7823 H   0  0  0  0  0  0
  -31.8744  -19.7472   19.5589 H   0  0  0  0  0  0
  -27.9801  -19.9342   21.3692 H   0  0  0  0  0  0
  -29.8093  -24.2268   21.2238 H   0  0  0  0  0  0
  -29.9919  -24.0999   19.5021 H   0  0  0  0  0  0
  -27.3103  -24.7672   20.8112 H   0  0  0  0  0  0
  -27.6903  -24.7693   19.1051 H   0  0  0  0  0  0
  -28.1978  -22.1721   19.5866 H   0  0  0  0  0  0
  -28.3739  -22.2212   21.3243 H   0  0  0  0  0  0
  -28.9506  -15.3964   21.2641 H   0  0  0  0  0  0
  1 25  1  0  0  0
  1 30  2  0  0  0
  1 80  1  0  0  0
  2  3  1  0  0  0
  2 25  1  0  0  0
  2 83  1  0  0  0
  2 84  1  0  0  0
  3  4  1  0  0  0
  3 85  1  0  0  0
  3 86  1  0  0  0
  4  5  1  0  0  0
  4 87  1  0  0  0
  4 88  1  0  0  0
  5  6  1  0  0  0
  5 26  1  0  0  0
  5 89  1  0  0  0
  6 25  1  0  0  0
  6 90  1  0  0  0
  6 91  1  0  0  0
  7  8  2  0  0  0
  7 26  1  0  0  0
  7 29  1  0  0  0
  8  9  1  0  0  0
  8 22  1  0  0  0
  9 10  1  0  0  0
  9 27  2  0  0  0
 10 11  2  0  0  0
 10 15  1  0  0  0
 11 12  1  0  0  0
 11 92  1  0  0  0
 12 13  2  0  0  0
 12 93  1  0  0  0
 13 14  1  0  0  0
 13 31  1  0  0  0
 14 15  2  0  0  0
 14 94  1  0  0  0
 15 95  1  0  0  0
 16 17  2  0  0  0
 16 21  1  0  0  0
 16 31  1  0  0  0
 17 18  1  0  0  0
 17 96  1  0  0  0
 18 19  2  0  0  0
 18 97  1  0  0  0
 19 20  1  0  0  0
 19 24  1  0  0  0
 20 21  2  0  0  0
 20 98  1  0  0  0
 21 23  1  0  0  0
 22 28  1  0  0  0
 22 32  2  0  0  0
 26 27  1  0  0  0
 28 99  1  0  0  0
 28100  1  0  0  0
 29101  1  0  0  0
 29102  1  0  0  0
 33 34  1  0  0  0
 33 66  1  0  0  0
 33 70  2  0  0  0
 34 36  1  0  0  0
 34 59  1  0  0  0
 34103  1  0  0  0
 35 44  2  0  0  0
 35 45  1  0  0  0
 35 68  1  0  0  0
 36 56  1  0  0  0
 36104  1  0  0  0
 37 39  1  0  0  0
 37 47  1  0  0  0
 37 66  1  0  0  0
 37105  1  0  0  0
 38 43  2  0  0  0
 38 46  1  0  0  0
 38 47  1  0  0  0
 39 64  1  0  0  0
 39 67  2  0  0  0
 40 52  1  0  0  0
 40 53  2  0  0  0
 40 58  1  0  0  0
 41106  1  0  0  0
 41107  1  0  0  0
 41108  1  0  0  0
 41 48  1  0  0  0
 42 43  1  0  0  0
 42 66  1  0  0  0
 42109  1  0  0  0
 42110  1  0  0  0
 43 44  1  0  0  0
 44111  1  0  0  0
 45 46  2  0  0  0
 45112  1  0  0  0
 46113  1  0  0  0
 47114  1  0  0  0
 47115  1  0  0  0
 48 56  1  0  0  0
 48 65  1  0  0  0
 48116  1  0  0  0
 49 50  1  0  0  0
 49 53  1  0  0  0
 49 64  1  0  0  0
 49117  1  0  0  0
 50 51  1  0  0  0
 50118  1  0  0  0
 50119  1  0  0  0
 51 52  1  0  0  0
 51120  1  0  0  0
 51121  1  0  0  0
 52122  1  0  0  0
 52123  1  0  0  0
 53 54  1  0  0  0
 54 55  2  0  0  0
 54124  1  0  0  0
 55 57  1  0  0  0
 55125  1  0  0  0
 56 69  2  0  0  0
 57 58  2  0  0  0
 57126  1  0  0  0
 58127  1  0  0  0
 59 60  1  0  0  0
 59 61  1  0  0  0
 59 62  1  0  0  0
 60128  1  0  0  0
 60129  1  0  0  0
 60130  1  0  0  0
 61131  1  0  0  0
 61132  1  0  0  0
 61133  1  0  0  0
 62134  1  0  0  0
 62135  1  0  0  0
 62136  1  0  0  0
 63 65  1  0  0  0
 63137  1  0  0  0
 63138  1  0  0  0
 63139  1  0  0  0
 64140  1  0  0  0
 65141  1  0  0  0
 68 78  1  0  0  0
 71 72  2  0  0  0
 71 74  1  0  0  0
 71142  1  0  0  0
 72 75  1  0  0  0
 72143  1  0  0  0
 73 75  2  0  0  0
 73 76  1  0  0  0
 73144  1  0  0  0
 74 76  2  0  0  0
 74 80  1  0  0  0
 75 81  1  0  0  0
 76 82  1  0  0  0
 77 78  1  0  0  0
 77 79  1  0  0  0
 77145  1  0  0  0
 77146  1  0  0  0
 78147  1  0  0  0
 78148  1  0  0  0
 79 81  1  0  0  0
 79149  1  0  0  0
 79150  1  0  0  0
 80151  1  0  0  0
M  ISO  4   1 100  68 101  78 101  80 100
M  END
> <chiral flag>
0

> <version>
0

> <s_m_source_file>
/data/baiqing/PycharmProjects/Reinvent-master-3.2/result/LINK_invent/BTK/process_docking_weight1_custom_sum_contain_oxygen_bond_distance_aromatic_linkinvent_7_9_3/rearranged_h_0007.sdf

> <i_m_source_file_index>
30

> <r_mmod_Potential_Energy-OPLS-2005>
15.4443645477295

> <r_mmod_Stretch_Energy-OPLS-2005>
79.6489486694336

> <r_mmod_Bend_Energy-OPLS-2005>
146.260269165039

> <r_mmod_Torsional_Energy-OPLS-2005>
210.600006103516

> <r_mmod_Improper_Torsional_Energy-OPLS-2005>
3.52094030380249

> <r_mmod_Van_der_Waal_Energy-OPLS-2005>
144.31852722168

> <r_mmod_Electrostatic_Energy-OPLS-2005>
-413.311950683594

> <r_mmod_Solvation_Energy-OPLS-2005>
-204.80029296875

> <b_mmod_Minimization_Converged-OPLS-2005>
0

> <r_mmod_RMS_Derivative-OPLS-2005>
0.137855604290962

$$$$
30
                    3D
 Structure written by MMmdl.
151159  0  0  1  0            999 V2000
  -30.5239  -14.9240   20.4254 C   0  0  0  0  0  0
  -30.4500  -12.5690   19.4926 C   0  0  0  0  0  0
  -29.5239  -12.5344   18.2531 C   0  0  0  0  0  0
  -28.0548  -12.3235   18.6686 C   0  0  0  0  0  0
  -27.6365  -13.2418   19.8461 C   0  0  2  0  0  0
  -28.6820  -13.2341   20.9828 C   0  0  0  0  0  0
  -25.2484  -13.8188   20.5731 C   0  0  0  0  0  0
  -24.1788  -13.0419   20.9219 C   0  0  0  0  0  0
  -24.6401  -11.6906   20.8744 C   0  0  0  0  0  0
  -23.9080  -10.4281   21.0402 C   0  0  0  0  0  0
  -24.3626   -9.4198   21.9183 C   0  0  0  0  0  0
  -23.6296   -8.2237   22.0755 C   0  0  0  0  0  0
  -22.4277   -8.0278   21.3546 C   0  0  0  0  0  0
  -21.9916   -9.0250   20.4645 C   0  0  0  0  0  0
  -22.7250  -10.2126   20.3053 C   0  0  0  0  0  0
  -21.6852   -6.0734   22.5281 C   0  0  0  0  0  0
  -21.4013   -6.5639   23.8214 C   0  0  0  0  0  0
  -21.3660   -5.6793   24.9177 C   0  0  0  0  0  0
  -21.6045   -4.3055   24.7228 C   0  0  0  0  0  0
  -21.8819   -3.8146   23.4349 C   0  0  0  0  0  0
  -21.9192   -4.6962   22.3404 C   0  0  0  0  0  0
  -22.7808  -13.5196   21.1878 C   0  0  0  0  0  0
  -22.1659   -4.2148   21.0982 F   0  0  0  0  0  0
  -21.5632   -3.4539   25.7741 F   0  0  0  0  0  0
  -29.9649  -13.6486   20.3958 N   0  0  0  0  0  0
  -26.2920  -12.9420   20.3275 N   0  0  0  0  0  0
  -25.9336  -11.6552   20.5738 N   0  0  0  0  0  0
  -22.0458  -12.8185   22.0435 N   0  0  0  0  0  0
  -25.4129  -15.1920   20.4212 N   0  0  0  0  0  0
  -31.7160  -15.0405   20.1197 O   0  0  0  0  0  0
  -21.6639   -6.8877   21.4242 O   0  0  0  0  0  0
  -22.3491  -14.5502   20.6726 O   0  0  0  0  0  0
  -24.6433  -31.8445   23.1894 C   0  0  0  0  0  0
  -25.9206  -32.4698   23.8280 C   0  0  1  0  0  0
  -27.2189  -27.1398   20.1449 C   0  0  0  0  0  0
  -25.5956  -33.8505   24.2195 N   0  0  0  0  0  0
  -23.4470  -30.4647   21.5349 C   0  0  2  0  0  0
  -24.8977  -28.8958   20.1084 C   0  0  0  0  0  0
  -22.7568  -29.4548   22.4859 C   0  0  0  0  0  0
  -18.0305  -28.1396   22.8478 C   0  0  0  0  0  0
  -24.1492  -36.7254   23.2642 C   0  0  0  0  0  0
  -26.0039  -30.7178   21.3906 C   0  0  0  0  0  0
  -26.0750  -29.3303   20.7305 C   0  0  0  0  0  0
  -27.2352  -28.4673   20.7356 C   0  0  0  0  0  0
  -26.0175  -26.8151   19.4729 C   0  0  0  0  0  0
  -24.8819  -27.6511   19.4646 C   0  0  0  0  0  0
  -23.6737  -29.7965   20.1535 C   0  0  0  0  0  0
  -25.4125  -36.3034   24.0315 C   0  0  1  0  0  0
  -20.5917  -28.3723   23.1234 C   0  0  2  0  0  0
  -20.6788  -26.9425   22.5404 C   0  0  0  0  0  0
  -19.5761  -26.6382   21.5213 C   0  0  0  0  0  0
  -18.1943  -26.7936   22.1624 C   0  0  0  0  0  0
  -19.1562  -28.8878   23.2848 C   0  0  0  0  0  0
  -18.9478  -30.1474   23.8874 C   0  0  0  0  0  0
  -17.6474  -30.6593   24.0560 C   0  0  0  0  0  0
  -25.9074  -34.9409   23.5062 C   0  0  0  0  0  0
  -16.5365  -29.9085   23.6338 C   0  0  0  0  0  0
  -16.7289  -28.6504   23.0359 C   0  0  0  0  0  0
  -26.4528  -31.6567   25.0722 C   0  0  0  0  0  0
  -25.3709  -31.3758   26.1413 C   0  0  0  0  0  0
  -27.0397  -30.2962   24.6309 C   0  0  0  0  0  0
  -27.6055  -32.4336   25.7508 C   0  0  0  0  0  0
  -27.5577  -37.1785   24.8465 C   0  0  0  0  0  0
  -21.4260  -29.3048   22.3606 N   0  0  0  0  0  0
  -26.4289  -37.3746   23.9407 N   0  0  0  0  0  0
  -24.7177  -31.0299   22.0933 N   0  0  0  0  0  0
  -23.4210  -28.8092   23.3007 O   0  0  0  0  0  0
  -28.2592  -26.1404   20.2313 O   0  0  0  0  0  0
  -26.5657  -34.8904   22.4639 O   0  0  0  0  0  0
  -23.5551  -32.1325   23.7111 O   0  0  0  0  0  0
  -29.9461  -20.0075   21.1177 C   0  0  0  0  0  0
  -30.2205  -18.5730   21.2343 C   0  0  0  0  0  0
  -28.5185  -19.5560   19.3024 C   0  0  0  0  0  0
  -28.7894  -18.1335   19.4050 C   0  0  0  0  0  0
  -29.0512  -20.5847   20.1490 C   0  0  0  0  0  0
  -29.6528  -17.5467   20.3921 C   0  0  0  0  0  0
  -28.8685  -23.3502   20.3991 C   0  0  0  0  0  0
  -28.0804  -17.2196   18.4200 C   0  0  0  0  0  0
  -27.9449  -24.6452   19.9272 C   0  0  0  0  0  0
  -28.5777  -22.0342   19.9577 N   0  0  0  0  0  0
  -29.6718  -16.0339   20.6462 N   0  0  0  0  0  0
  -29.8199  -23.5531   21.1581 O   0  0  0  0  0  0
  -31.4826  -12.7355   19.1813 H   0  0  0  0  0  0
  -30.4452  -11.6071   20.0078 H   0  0  0  0  0  0
  -29.8363  -11.7449   17.5682 H   0  0  0  0  0  0
  -29.6162  -13.4719   17.7024 H   0  0  0  0  0  0
  -27.9429  -11.2786   18.9602 H   0  0  0  0  0  0
  -27.3930  -12.4739   17.8148 H   0  0  0  0  0  0
  -27.6079  -14.2509   19.4353 H   0  0  0  0  0  0
  -28.7611  -12.2442   21.4345 H   0  0  0  0  0  0
  -28.3859  -13.9119   21.7849 H   0  0  0  0  0  0
  -25.2770   -9.5673   22.4759 H   0  0  0  0  0  0
  -24.0001   -7.4628   22.7476 H   0  0  0  0  0  0
  -21.0848   -8.8771   19.8950 H   0  0  0  0  0  0
  -22.3711  -10.9665   19.6161 H   0  0  0  0  0  0
  -21.2004   -7.6147   23.9716 H   0  0  0  0  0  0
  -21.1484   -6.0525   25.9080 H   0  0  0  0  0  0
  -22.0597   -2.7609   23.2852 H   0  0  0  0  0  0
  -22.4078  -11.9847   22.4821 H   0  0  0  0  0  0
  -21.1074  -13.1207   22.2642 H   0  0  0  0  0  0
  -24.6411  -15.8387   20.5438 H   0  0  0  0  0  0
  -26.2586  -15.6432   20.1028 H   0  0  0  0  0  0
  -26.7271  -32.5304   23.1007 H   0  0  0  0  0  0
  -25.0089  -33.9625   25.0332 H   0  0  0  0  0  0
  -22.7495  -31.2907   21.3814 H   0  0  0  0  0  0
  -23.3760  -35.9579   23.3294 H   0  0  0  0  0  0
  -24.3576  -36.8897   22.2059 H   0  0  0  0  0  0
  -23.7241  -37.6445   23.6685 H   0  0  0  0  0  0
  -26.1615  -31.4731   20.6195 H   0  0  0  0  0  0
  -26.8734  -30.7659   22.0342 H   0  0  0  0  0  0
  -28.1284  -28.7923   21.2506 H   0  0  0  0  0  0
  -25.9128  -25.8705   18.9617 H   0  0  0  0  0  0
  -23.9855  -27.3155   18.9614 H   0  0  0  0  0  0
  -23.8094  -30.5722   19.3991 H   0  0  0  0  0  0
  -22.7888  -29.2384   19.8422 H   0  0  0  0  0  0
  -25.1313  -36.1863   25.0807 H   0  0  0  0  0  0
  -21.0011  -28.3315   24.1354 H   0  0  0  0  0  0
  -20.5682  -26.2336   23.3624 H   0  0  0  0  0  0
  -21.6653  -26.7429   22.1202 H   0  0  0  0  0  0
  -19.6921  -25.6287   21.1257 H   0  0  0  0  0  0
  -19.6698  -27.3180   20.6732 H   0  0  0  0  0  0
  -17.4211  -26.6682   21.4028 H   0  0  0  0  0  0
  -18.0340  -26.0083   22.9025 H   0  0  0  0  0  0
  -19.7953  -30.7298   24.2232 H   0  0  0  0  0  0
  -17.5025  -31.6270   24.5166 H   0  0  0  0  0  0
  -15.5364  -30.2978   23.7675 H   0  0  0  0  0  0
  -15.8690  -28.0813   22.7088 H   0  0  0  0  0  0
  -24.5902  -30.7089   25.7735 H   0  0  0  0  0  0
  -24.8882  -32.2939   26.4769 H   0  0  0  0  0  0
  -25.7991  -30.8982   27.0235 H   0  0  0  0  0  0
  -26.3020  -29.6682   24.1303 H   0  0  0  0  0  0
  -27.3992  -29.7265   25.4888 H   0  0  0  0  0  0
  -27.8934  -30.4197   23.9643 H   0  0  0  0  0  0
  -27.2647  -33.3659   26.2023 H   0  0  0  0  0  0
  -28.3899  -32.6862   25.0360 H   0  0  0  0  0  0
  -28.0686  -31.8503   26.5476 H   0  0  0  0  0  0
  -28.2586  -38.0089   24.7512 H   0  0  0  0  0  0
  -28.1082  -36.2617   24.6295 H   0  0  0  0  0  0
  -27.2291  -37.1434   25.8868 H   0  0  0  0  0  0
  -20.9470  -29.8766   21.6789 H   0  0  0  0  0  0
  -26.0155  -38.2813   24.1413 H   0  0  0  0  0  0
  -30.4144  -20.6699   21.8321 H   0  0  0  0  0  0
  -30.8590  -18.2571   22.0472 H   0  0  0  0  0  0
  -27.8285  -19.8678   18.5307 H   0  0  0  0  0  0
  -27.8383  -17.7482   17.4975 H   0  0  0  0  0  0
  -27.1501  -16.8492   18.8476 H   0  0  0  0  0  0
  -28.7019  -16.3660   18.1479 H   0  0  0  0  0  0
  -26.9625  -24.4317   20.3489 H   0  0  0  0  0  0
  -27.8333  -24.5591   18.8460 H   0  0  0  0  0  0
  -27.8063  -22.0811   19.3056 H   0  0  0  0  0  0
  -28.7508  -15.6868   20.8644 H   0  0  0  0  0  0
  1 25  1  0  0  0
  1 30  2  0  0  0
  1 81  1  0  0  0
  2  3  1  0  0  0
  2 25  1  0  0  0
  2 83  1  0  0  0
  2 84  1  0  0  0
  3  4  1  0  0  0
  3 85  1  0  0  0
  3 86  1  0  0  0
  4  5  1  0  0  0
  4 87  1  0  0  0
  4 88  1  0  0  0
  5  6  1  0  0  0
  5 26  1  0  0  0
  5 89  1  0  0  0
  6 25  1  0  0  0
  6 90  1  0  0  0
  6 91  1  0  0  0
  7  8  2  0  0  0
  7 26  1  0  0  0
  7 29  1  0  0  0
  8  9  1  0  0  0
  8 22  1  0  0  0
  9 10  1  0  0  0
  9 27  2  0  0  0
 10 11  2  0  0  0
 10 15  1  0  0  0
 11 12  1  0  0  0
 11 92  1  0  0  0
 12 13  2  0  0  0
 12 93  1  0  0  0
 13 14  1  0  0  0
 13 31  1  0  0  0
 14 15  2  0  0  0
 14 94  1  0  0  0
 15 95  1  0  0  0
 16 17  2  0  0  0
 16 21  1  0  0  0
 16 31  1  0  0  0
 17 18  1  0  0  0
 17 96  1  0  0  0
 18 19  2  0  0  0
 18 97  1  0  0  0
 19 20  1  0  0  0
 19 24  1  0  0  0
 20 21  2  0  0  0
 20 98  1  0  0  0
 21 23  1  0  0  0
 22 28  1  0  0  0
 22 32  2  0  0  0
 26 27  1  0  0  0
 28 99  1  0  0  0
 28100  1  0  0  0
 29101  1  0  0  0
 29102  1  0  0  0
 33 34  1  0  0  0
 33 66  1  0  0  0
 33 70  2  0  0  0
 34 36  1  0  0  0
 34 59  1  0  0  0
 34103  1  0  0  0
 35 44  2  0  0  0
 35 45  1  0  0  0
 35 68  1  0  0  0
 36 56  1  0  0  0
 36104  1  0  0  0
 37 39  1  0  0  0
 37 47  1  0  0  0
 37 66  1  0  0  0
 37105  1  0  0  0
 38 43  2  0  0  0
 38 46  1  0  0  0
 38 47  1  0  0  0
 39 64  1  0  0  0
 39 67  2  0  0  0
 40 52  1  0  0  0
 40 53  2  0  0  0
 40 58  1  0  0  0
 41106  1  0  0  0
 41107  1  0  0  0
 41108  1  0  0  0
 41 48  1  0  0  0
 42 43  1  0  0  0
 42 66  1  0  0  0
 42109  1  0  0  0
 42110  1  0  0  0
 43 44  1  0  0  0
 44111  1  0  0  0
 45 46  2  0  0  0
 45112  1  0  0  0
 46113  1  0  0  0
 47114  1  0  0  0
 47115  1  0  0  0
 48 56  1  0  0  0
 48 65  1  0  0  0
 48116  1  0  0  0
 49 50  1  0  0  0
 49 53  1  0  0  0
 49 64  1  0  0  0
 49117  1  0  0  0
 50 51  1  0  0  0
 50118  1  0  0  0
 50119  1  0  0  0
 51 52  1  0  0  0
 51120  1  0  0  0
 51121  1  0  0  0
 52122  1  0  0  0
 52123  1  0  0  0
 53 54  1  0  0  0
 54 55  2  0  0  0
 54124  1  0  0  0
 55 57  1  0  0  0
 55125  1  0  0  0
 56 69  2  0  0  0
 57 58  2  0  0  0
 57126  1  0  0  0
 58127  1  0  0  0
 59 60  1  0  0  0
 59 61  1  0  0  0
 59 62  1  0  0  0
 60128  1  0  0  0
 60129  1  0  0  0
 60130  1  0  0  0
 61131  1  0  0  0
 61132  1  0  0  0
 61133  1  0  0  0
 62134  1  0  0  0
 62135  1  0  0  0
 62136  1  0  0  0
 63 65  1  0  0  0
 63137  1  0  0  0
 63138  1  0  0  0
 63139  1  0  0  0
 64140  1  0  0  0
 65141  1  0  0  0
 68 79  1  0  0  0
 71 72  2  0  0  0
 71 75  1  0  0  0
 71142  1  0  0  0
 72 76  1  0  0  0
 72143  1  0  0  0
 73 74  1  0  0  0
 73 75  2  0  0  0
 73144  1  0  0  0
 74 76  2  0  0  0
 74 78  1  0  0  0
 75 80  1  0  0  0
 76 81  1  0  0  0
 77 79  1  0  0  0
 77 80  1  0  0  0
 77 82  2  0  0  0
 78145  1  0  0  0
 78146  1  0  0  0
 78147  1  0  0  0
 79148  1  0  0  0
 79149  1  0  0  0
 80150  1  0  0  0
 81151  1  0  0  0
M  ISO  4   1 100  68 101  79 101  81 100
M  END
> <chiral flag>
0

> <version>
0

> <s_m_source_file>
/data/baiqing/PycharmProjects/Reinvent-master-3.2/result/LINK_invent/BTK/process_docking_weight1_custom_sum_contain_oxygen_bond_distance_aromatic_linkinvent_7_9_3/rearranged_h_0007.sdf

> <i_m_source_file_index>
31

> <r_mmod_Potential_Energy-OPLS-2005>
408.473846435547

> <r_mmod_Stretch_Energy-OPLS-2005>
221.40803527832

> <r_mmod_Bend_Energy-OPLS-2005>
260.003326416016

> <r_mmod_Torsional_Energy-OPLS-2005>
248.484390258789

> <r_mmod_Improper_Torsional_Energy-OPLS-2005>
6.22255659103394

> <r_mmod_Van_der_Waal_Energy-OPLS-2005>
127.763702392578

> <r_mmod_Electrostatic_Energy-OPLS-2005>
-387.741668701172

> <r_mmod_Solvation_Energy-OPLS-2005>
-252.530776977539

> <b_mmod_Minimization_Converged-OPLS-2005>
0

> <r_mmod_RMS_Derivative-OPLS-2005>
0.222149834036827

$$$$
31
                    3D
 Structure written by MMmdl.
173182  0  0  1  0            999 V2000
  -29.3198  -14.6073   21.1508 C   0  0  0  0  0  0
  -30.4102  -12.6772   19.7070 C   0  0  0  0  0  0
  -29.6845  -12.5605   18.3157 C   0  0  0  0  0  0
  -28.2191  -12.1105   18.4496 C   0  0  0  0  0  0
  -27.6884  -12.8645   19.6282 C   0  0  2  0  0  0
  -28.4000  -12.4971   20.9269 C   0  0  0  0  0  0
  -25.5228  -13.8270   19.7405 C   0  0  0  0  0  0
  -24.5105  -13.4452   20.4467 C   0  0  0  0  0  0
  -24.6033  -11.9894   20.7125 C   0  0  0  0  0  0
  -23.7485  -10.8380   21.2598 C   0  0  0  0  0  0
  -24.7460   -9.4392   21.4516 C   0  0  0  0  0  0
  -24.0394   -7.9088   21.4565 C   0  0  0  0  0  0
  -22.3968   -7.6433   21.2778 C   0  0  0  0  0  0
  -21.2651   -8.7727   21.0620 C   0  0  0  0  0  0
  -21.6699  -10.3371   21.0892 C   0  0  0  0  0  0
  -21.6869   -5.8667   22.5143 C   0  0  0  0  0  0
  -21.3003   -6.4286   23.7557 C   0  0  0  0  0  0
  -21.2945   -5.6119   24.8982 C   0  0  0  0  0  0
  -21.6056   -4.2452   24.7721 C   0  0  0  0  0  0
  -21.9244   -3.6927   23.5202 C   0  0  0  0  0  0
  -21.9616   -4.5154   22.3935 C   0  0  0  0  0  0
  -23.9685  -14.6841   21.1486 C   0  0  0  0  0  0
  -22.2350   -4.0237   21.1611 F   0  0  0  0  0  0
  -21.5633   -3.4404   25.8539 F   0  0  0  0  0  0
  -29.5214  -13.2972   20.7754 N   0  0  0  0  0  0
  -26.3379  -12.7717   19.8319 N   0  0  0  0  0  0
  -25.8067  -11.6361   20.3089 N   0  0  0  0  0  0
  -24.2856  -15.3061   23.1493 N   0  0  0  0  0  0
  -25.8712  -15.1134   19.3195 N   0  0  0  0  0  0
  -30.3888  -15.2304   20.8227 O   0  0  0  0  0  0
  -21.7629   -6.4861   21.3213 O   0  0  0  0  0  0
  -23.1092  -15.0860   20.3150 O   0  0  0  0  0  0
  -24.6556  -31.8360   23.1880 C   0  0  0  0  0  0
  -25.9304  -32.4637   23.8270 C   0  0  1  0  0  0
  -26.9810  -26.9203   20.2741 C   0  0  0  0  0  0
  -25.6028  -33.8460   24.2177 N   0  0  0  0  0  0
  -23.4529  -30.4725   21.5341 C   0  0  2  0  0  0
  -24.8666  -28.8859   20.0949 C   0  0  0  0  0  0
  -22.7594  -29.4558   22.4777 C   0  0  0  0  0  0
  -18.0318  -28.1404   22.8467 C   0  0  0  0  0  0
  -24.1482  -36.7220   23.2644 C   0  0  0  0  0  0
  -26.0211  -30.6500   21.4098 C   0  0  0  0  0  0
  -26.0507  -29.2472   20.7534 C   0  0  0  0  0  0
  -27.1338  -28.2762   20.8163 C   0  0  0  0  0  0
  -25.8357  -26.7242   19.5014 C   0  0  0  0  0  0
  -24.7899  -27.6560   19.4308 C   0  0  0  0  0  0
  -23.6770  -29.8288   20.1420 C   0  0  0  0  0  0
  -25.4124  -36.3003   24.0307 C   0  0  1  0  0  0
  -20.5933  -28.3751   23.1184 C   0  0  2  0  0  0
  -20.6796  -26.9443   22.5378 C   0  0  0  0  0  0
  -19.5770  -26.6375   21.5190 C   0  0  0  0  0  0
  -18.1956  -26.7940   22.1611 C   0  0  0  0  0  0
  -19.1576  -28.8893   23.2820 C   0  0  0  0  0  0
  -18.9496  -30.1482   23.8857 C   0  0  0  0  0  0
  -17.6493  -30.6595   24.0559 C   0  0  0  0  0  0
  -25.9101  -34.9378   23.5048 C   0  0  0  0  0  0
  -16.5382  -29.9084   23.6342 C   0  0  0  0  0  0
  -16.7301  -28.6500   23.0365 C   0  0  0  0  0  0
  -26.4575  -31.6570   25.0777 C   0  0  0  0  0  0
  -25.3739  -31.3828   26.1468 C   0  0  0  0  0  0
  -27.0458  -30.2938   24.6481 C   0  0  0  0  0  0
  -27.6049  -32.4397   25.7602 C   0  0  0  0  0  0
  -27.5563  -37.1776   24.8461 C   0  0  0  0  0  0
  -21.4280  -29.3080   22.3545 N   0  0  0  0  0  0
  -26.4268  -37.3734   23.9413 N   0  0  0  0  0  0
  -24.7324  -31.0125   22.0969 N   0  0  0  0  0  0
  -23.4214  -28.8082   23.2927 O   0  0  0  0  0  0
  -27.7659  -25.7087   20.4325 O   0  0  0  0  0  0
  -26.5672  -34.8881   22.4620 O   0  0  0  0  0  0
  -23.5662  -32.1320   23.7040 O   0  0  0  0  0  0
  -22.1488  -15.2688   22.6298 C   0  0  0  0  0  0
  -23.2381  -16.8709   22.0069 C   0  0  0  0  0  0
  -25.2001  -13.3698   22.8294 C   0  0  0  0  0  0
  -23.0744  -13.4807   22.9595 C   0  0  0  0  0  0
  -26.2614  -15.0222   22.1092 C   0  0  0  0  0  0
  -25.2287  -16.7647   21.7467 C   0  0  0  0  0  0
  -22.0789  -12.4371   20.1315 C   0  0  0  0  0  0
  -22.3376  -11.0969   23.3090 C   0  0  0  0  0  0
  -22.6875  -10.9254   19.0224 C   0  0  0  0  0  0
  -22.8181   -9.4479   22.7252 C   0  0  0  0  0  0
  -22.1408  -12.4945   22.1722 C   0  0  1  0  0  0
  -22.9806   -8.2542   18.7345 C   0  0  0  0  0  0
  -26.7894  -22.6519   20.5019 C   0  0  0  0  0  0
  -26.6002  -21.1083   21.3824 C   0  0  0  0  0  0
  -27.1725  -24.3058   21.0420 C   0  0  0  0  0  0
  -25.7302  -19.5744   21.0847 C   0  0  0  0  0  0
  -27.9551  -15.1382   21.7329 N   0  0  0  0  0  0
  -23.1310   -9.3516   19.7689 N   0  3  1  0  0  0
  -26.0310  -18.0424   21.5211 O   0  0  0  0  0  0
  -31.3339  -13.2477   19.5950 H   0  0  0  0  0  0
  -30.7211  -11.6874   20.0414 H   0  0  0  0  0  0
  -30.2321  -11.8932   17.6494 H   0  0  0  0  0  0
  -29.7043  -13.5407   17.8346 H   0  0  0  0  0  0
  -28.1532  -11.0347   18.6189 H   0  0  0  0  0  0
  -27.6578  -12.3356   17.5410 H   0  0  0  0  0  0
  -27.8678  -13.8822   19.2875 H   0  0  0  0  0  0
  -28.6442  -11.4350   20.9685 H   0  0  0  0  0  0
  -27.8370  -12.6879   21.8420 H   0  0  0  0  0  0
  -25.8243   -9.5130   21.5088 H   0  0  0  0  0  0
  -24.6842   -7.0503   21.5769 H   0  0  0  0  0  0
  -20.2257   -8.4885   20.9703 H   0  0  0  0  0  0
  -20.7420  -10.8944   21.0281 H   0  0  0  0  0  0
  -20.9192   -7.4275   23.8503 H   0  0  0  0  0  0
  -20.9947   -6.0145   25.8550 H   0  0  0  0  0  0
  -22.1385   -2.6383   23.4284 H   0  0  0  0  0  0
  -24.8585  -14.7428   23.7597 H   0  0  0  0  0  0
  -23.7169  -16.0572   23.5110 H   0  0  0  0  0  0
  -25.1841  -15.8502   19.2137 H   0  0  0  0  0  0
  -26.7384  -15.3261   18.8442 H   0  0  0  0  0  0
  -26.7371  -32.5128   23.0975 H   0  0  0  0  0  0
  -25.0208  -33.9584   25.0350 H   0  0  0  0  0  0
  -22.7628  -31.3075   21.3916 H   0  0  0  0  0  0
  -23.3760  -35.9533   23.3288 H   0  0  0  0  0  0
  -24.3570  -36.8880   22.2065 H   0  0  0  0  0  0
  -23.7212  -37.6394   23.6707 H   0  0  0  0  0  0
  -26.2042  -31.3892   20.6292 H   0  0  0  0  0  0
  -26.8888  -30.6931   22.0574 H   0  0  0  0  0  0
  -28.0226  -28.5165   21.3826 H   0  0  0  0  0  0
  -25.6910  -25.7661   19.0223 H   0  0  0  0  0  0
  -23.8915  -27.3844   18.8942 H   0  0  0  0  0  0
  -23.8592  -30.6165   19.4111 H   0  0  0  0  0  0
  -22.7742  -29.3179   19.8019 H   0  0  0  0  0  0
  -25.1312  -36.1826   25.0797 H   0  0  0  0  0  0
  -21.0049  -28.3355   24.1294 H   0  0  0  0  0  0
  -20.5670  -26.2385   23.3618 H   0  0  0  0  0  0
  -21.6665  -26.7426   22.1192 H   0  0  0  0  0  0
  -19.6933  -25.6263   21.1271 H   0  0  0  0  0  0
  -19.6695  -27.3146   20.6684 H   0  0  0  0  0  0
  -17.4217  -26.6675   21.4023 H   0  0  0  0  0  0
  -18.0368  -26.0084   22.9016 H   0  0  0  0  0  0
  -19.7975  -30.7301   24.2215 H   0  0  0  0  0  0
  -17.5050  -31.6273   24.5172 H   0  0  0  0  0  0
  -15.5385  -30.2986   23.7678 H   0  0  0  0  0  0
  -15.8696  -28.0801   22.7119 H   0  0  0  0  0  0
  -24.5903  -30.7178   25.7833 H   0  0  0  0  0  0
  -24.8949  -32.3035   26.4809 H   0  0  0  0  0  0
  -25.8006  -30.9081   27.0314 H   0  0  0  0  0  0
  -26.3100  -29.6615   24.1498 H   0  0  0  0  0  0
  -27.4004  -29.7310   25.5130 H   0  0  0  0  0  0
  -27.9048  -30.4126   23.9873 H   0  0  0  0  0  0
  -27.2574  -33.3710   26.2096 H   0  0  0  0  0  0
  -28.3924  -32.6961   25.0506 H   0  0  0  0  0  0
  -28.0660  -31.8609   26.5619 H   0  0  0  0  0  0
  -28.2556  -38.0096   24.7530 H   0  0  0  0  0  0
  -28.1083  -36.2626   24.6263 H   0  0  0  0  0  0
  -27.2288  -37.1386   25.8864 H   0  0  0  0  0  0
  -20.9494  -29.8827   21.6748 H   0  0  0  0  0  0
  -26.0119  -38.2787   24.1447 H   0  0  0  0  0  0
  -21.0703  -15.3241   22.6047 H   0  0  0  0  0  0
  -22.7278  -17.8033   21.8115 H   0  0  0  0  0  0
  -25.7133  -12.4285   22.9683 H   0  0  0  0  0  0
  -21.0079  -12.4908   19.9233 H   0  0  0  0  0  0
  -22.2032  -13.3059   19.5152 H   0  0  0  0  0  0
  -23.0405  -11.3572   24.1023 H   0  0  0  0  0  0
  -21.3927  -10.9879   23.8440 H   0  0  0  0  0  0
  -23.5170  -11.2427   18.3916 H   0  0  0  0  0  0
  -21.8895  -10.7190   18.3071 H   0  0  0  0  0  0
  -22.0436   -8.8966   23.2445 H   0  0  0  0  0  0
  -23.6190   -9.1600   23.4270 H   0  0  0  0  0  0
  -21.1477  -12.8771   22.4121 H   0  0  0  0  0  0
  -23.3620   -8.6067   17.7754 H   0  0  0  0  0  0
  -21.9375   -7.9839   18.5776 H   0  0  0  0  0  0
  -23.5496   -7.3522   18.9595 H   0  0  0  0  0  0
  -25.8871  -22.7584   19.9000 H   0  0  0  0  0  0
  -27.5635  -22.4266   19.7668 H   0  0  0  0  0  0
  -26.2533  -21.4104   22.3711 H   0  0  0  0  0  0
  -27.6293  -20.7939   21.5671 H   0  0  0  0  0  0
  -27.8940  -24.1170   21.8369 H   0  0  0  0  0  0
  -26.2820  -24.6178   21.5867 H   0  0  0  0  0  0
  -25.6381  -19.5112   20.0003 H   0  0  0  0  0  0
  -24.7122  -19.7576   21.4262 H   0  0  0  0  0  0
  -28.1605  -16.1249   21.8128 H   0  0  0  0  0  0
  -24.1398   -9.4297   19.7820 H   0  0  0  0  0  0
  1 25  1  0  0  0
  1 30  2  0  0  0
  1 87  1  0  0  0
  2  3  1  0  0  0
  2 25  1  0  0  0
  2 90  1  0  0  0
  2 91  1  0  0  0
  3  4  1  0  0  0
  3 92  1  0  0  0
  3 93  1  0  0  0
  4  5  1  0  0  0
  4 94  1  0  0  0
  4 95  1  0  0  0
  5  6  1  0  0  0
  5 26  1  0  0  0
  5 96  1  0  0  0
  6 25  1  0  0  0
  6 97  1  0  0  0
  6 98  1  0  0  0
  7  8  2  0  0  0
  7 26  1  0  0  0
  7 29  1  0  0  0
  8  9  1  0  0  0
  8 22  1  0  0  0
  9 10  1  0  0  0
  9 27  2  0  0  0
 10 11  2  0  0  0
 10 15  1  0  0  0
 11 12  1  0  0  0
 11 99  1  0  0  0
 12 13  2  0  0  0
 12100  1  0  0  0
 13 14  1  0  0  0
 13 31  1  0  0  0
 14 15  2  0  0  0
 14101  1  0  0  0
 15102  1  0  0  0
 16 17  2  0  0  0
 16 21  1  0  0  0
 16 31  1  0  0  0
 17 18  1  0  0  0
 17103  1  0  0  0
 18 19  2  0  0  0
 18104  1  0  0  0
 19 20  1  0  0  0
 19 24  1  0  0  0
 20 21  2  0  0  0
 20105  1  0  0  0
 21 23  1  0  0  0
 22 28  1  0  0  0
 22 32  2  0  0  0
 26 27  1  0  0  0
 28106  1  0  0  0
 28107  1  0  0  0
 29108  1  0  0  0
 29109  1  0  0  0
 33 34  1  0  0  0
 33 66  1  0  0  0
 33 70  2  0  0  0
 34 36  1  0  0  0
 34 59  1  0  0  0
 34110  1  0  0  0
 35 44  2  0  0  0
 35 45  1  0  0  0
 35 68  1  0  0  0
 36 56  1  0  0  0
 36111  1  0  0  0
 37 39  1  0  0  0
 37 47  1  0  0  0
 37 66  1  0  0  0
 37112  1  0  0  0
 38 43  2  0  0  0
 38 46  1  0  0  0
 38 47  1  0  0  0
 39 64  1  0  0  0
 39 67  2  0  0  0
 40 52  1  0  0  0
 40 53  2  0  0  0
 40 58  1  0  0  0
 41113  1  0  0  0
 41114  1  0  0  0
 41115  1  0  0  0
 41 48  1  0  0  0
 42 43  1  0  0  0
 42 66  1  0  0  0
 42116  1  0  0  0
 42117  1  0  0  0
 43 44  1  0  0  0
 44118  1  0  0  0
 45 46  2  0  0  0
 45119  1  0  0  0
 46120  1  0  0  0
 47121  1  0  0  0
 47122  1  0  0  0
 48 56  1  0  0  0
 48 65  1  0  0  0
 48123  1  0  0  0
 49 50  1  0  0  0
 49 53  1  0  0  0
 49 64  1  0  0  0
 49124  1  0  0  0
 50 51  1  0  0  0
 50125  1  0  0  0
 50126  1  0  0  0
 51 52  1  0  0  0
 51127  1  0  0  0
 51128  1  0  0  0
 52129  1  0  0  0
 52130  1  0  0  0
 53 54  1  0  0  0
 54 55  2  0  0  0
 54131  1  0  0  0
 55 57  1  0  0  0
 55132  1  0  0  0
 56 69  2  0  0  0
 57 58  2  0  0  0
 57133  1  0  0  0
 58134  1  0  0  0
 59 60  1  0  0  0
 59 61  1  0  0  0
 59 62  1  0  0  0
 60135  1  0  0  0
 60136  1  0  0  0
 60137  1  0  0  0
 61138  1  0  0  0
 61139  1  0  0  0
 61140  1  0  0  0
 62141  1  0  0  0
 62142  1  0  0  0
 62143  1  0  0  0
 63 65  1  0  0  0
 63144  1  0  0  0
 63145  1  0  0  0
 63146  1  0  0  0
 64147  1  0  0  0
 65148  1  0  0  0
 68 85  1  0  0  0
 71 72  2  0  0  0
 71 74  1  0  0  0
 71149  1  0  0  0
 72 76  1  0  0  0
 72150  1  0  0  0
 73 74  2  0  0  0
 73 75  1  0  0  0
 73151  1  0  0  0
 74 81  1  0  0  0
 75 76  2  0  0  0
 75 87  1  0  0  0
 76 89  1  0  0  0
 77 79  1  0  0  0
 77 81  1  0  0  0
 77152  1  0  0  0
 77153  1  0  0  0
 78 80  1  0  0  0
 78 81  1  0  0  0
 78154  1  0  0  0
 78155  1  0  0  0
 79 88  1  0  0  0
 79156  1  0  0  0
 79157  1  0  0  0
 80 88  1  0  0  0
 80158  1  0  0  0
 80159  1  0  0  0
 81160  1  0  0  0
 82161  1  0  0  0
 82162  1  0  0  0
 82163  1  0  0  0
 82 88  1  0  0  0
 83 84  1  0  0  0
 83 85  1  0  0  0
 83164  1  0  0  0
 83165  1  0  0  0
 84 86  1  0  0  0
 84166  1  0  0  0
 84167  1  0  0  0
 85168  1  0  0  0
 85169  1  0  0  0
 86 89  1  0  0  0
 86170  1  0  0  0
 86171  1  0  0  0
 87172  1  0  0  0
 88173  1  0  0  0
M  CHG  1  88   1
M  ISO  4   1 100  68 101  85 101  87 100
M  END
> <chiral flag>
0

> <version>
0

> <s_m_source_file>
/data/baiqing/PycharmProjects/Reinvent-master-3.2/result/LINK_invent/BTK/process_docking_weight1_custom_sum_contain_oxygen_bond_distance_aromatic_linkinvent_7_9_3/rearranged_h_0007.sdf

> <i_m_source_file_index>
32

> <r_mmod_Potential_Energy-OPLS-2005>
23973.291015625

> <r_mmod_Stretch_Energy-OPLS-2005>
13378.8828125

> <r_mmod_Bend_Energy-OPLS-2005>
1050.16223144531

> <r_mmod_Torsional_Energy-OPLS-2005>
544.084289550781

> <r_mmod_Improper_Torsional_Energy-OPLS-2005>
52.0919342041016

> <r_mmod_Van_der_Waal_Energy-OPLS-2005>
6360.302734375

> <r_mmod_Electrostatic_Energy-OPLS-2005>
-377.637847900391

> <r_mmod_Solvation_Energy-OPLS-2005>
-354.807525634766

> <b_mmod_Minimization_Converged-OPLS-2005>
0

> <r_mmod_RMS_Derivative-OPLS-2005>
5.91465091705322

$$$$
32
                    3D
 Structure written by MMmdl.
150158  0  0  1  0            999 V2000
  -30.6263  -14.7501   20.4652 C   0  0  0  0  0  0
  -30.4310  -12.4600   19.4675 C   0  0  0  0  0  0
  -29.5071  -12.5044   18.2316 C   0  0  0  0  0  0
  -28.0340  -12.3321   18.6501 C   0  0  0  0  0  0
  -27.6406  -13.2346   19.8504 C   0  0  2  0  0  0
  -28.6894  -13.1786   20.9823 C   0  0  0  0  0  0
  -25.2508  -13.8196   20.5712 C   0  0  0  0  0  0
  -24.1809  -13.0438   20.9229 C   0  0  0  0  0  0
  -24.6404  -11.6919   20.8764 C   0  0  0  0  0  0
  -23.9084  -10.4294   21.0412 C   0  0  0  0  0  0
  -24.3625   -9.4208   21.9193 C   0  0  0  0  0  0
  -23.6298   -8.2245   22.0762 C   0  0  0  0  0  0
  -22.4281   -8.0286   21.3550 C   0  0  0  0  0  0
  -21.9918   -9.0265   20.4653 C   0  0  0  0  0  0
  -22.7254  -10.2141   20.3064 C   0  0  0  0  0  0
  -21.6852   -6.0739   22.5284 C   0  0  0  0  0  0
  -21.4010   -6.5642   23.8218 C   0  0  0  0  0  0
  -21.3660   -5.6792   24.9177 C   0  0  0  0  0  0
  -21.6039   -4.3057   24.7223 C   0  0  0  0  0  0
  -21.8820   -3.8152   23.4347 C   0  0  0  0  0  0
  -21.9194   -4.6967   22.3403 C   0  0  0  0  0  0
  -22.7828  -13.5218   21.1882 C   0  0  0  0  0  0
  -22.1666   -4.2154   21.0981 F   0  0  0  0  0  0
  -21.5625   -3.4540   25.7737 F   0  0  0  0  0  0
  -29.9852  -13.5312   20.3897 N   0  0  0  0  0  0
  -26.2942  -12.9418   20.3301 N   0  0  0  0  0  0
  -25.9338  -11.6556   20.5774 N   0  0  0  0  0  0
  -22.0474  -12.8207   22.0434 N   0  0  0  0  0  0
  -25.4150  -15.1923   20.4114 N   0  0  0  0  0  0
  -31.8261  -14.8075   20.1757 O   0  0  0  0  0  0
  -21.6641   -6.8886   21.4248 O   0  0  0  0  0  0
  -22.3516  -14.5529   20.6734 O   0  0  0  0  0  0
  -24.6293  -31.8520   23.1966 C   0  0  0  0  0  0
  -25.9110  -32.4742   23.8312 C   0  0  1  0  0  0
  -27.2276  -27.2656   20.1389 C   0  0  0  0  0  0
  -25.5885  -33.8546   24.2203 N   0  0  0  0  0  0
  -23.4266  -30.4721   21.5392 C   0  0  2  0  0  0
  -24.8771  -28.9127   20.1146 C   0  0  0  0  0  0
  -22.7478  -29.4576   22.4922 C   0  0  0  0  0  0
  -18.0261  -28.1366   22.8469 C   0  0  0  0  0  0
  -24.1492  -36.7276   23.2647 C   0  0  0  0  0  0
  -25.9700  -30.7688   21.3728 C   0  0  0  0  0  0
  -26.0477  -29.3895   20.7191 C   0  0  0  0  0  0
  -27.2293  -28.5810   20.7132 C   0  0  0  0  0  0
  -26.0343  -26.8460   19.5159 C   0  0  0  0  0  0
  -24.8744  -27.6487   19.5014 C   0  0  0  0  0  0
  -23.6468  -29.7988   20.1584 C   0  0  0  0  0  0
  -25.4123  -36.3057   24.0311 C   0  0  1  0  0  0
  -20.5871  -28.3670   23.1253 C   0  0  2  0  0  0
  -20.6764  -26.9396   22.5395 C   0  0  0  0  0  0
  -19.5751  -26.6362   21.5191 C   0  0  0  0  0  0
  -18.1917  -26.7905   22.1600 C   0  0  0  0  0  0
  -19.1522  -28.8835   23.2850 C   0  0  0  0  0  0
  -18.9472  -30.1436   23.8875 C   0  0  0  0  0  0
  -17.6482  -30.6594   24.0540 C   0  0  0  0  0  0
  -25.9054  -34.9432   23.5066 C   0  0  0  0  0  0
  -16.5358  -29.9088   23.6339 C   0  0  0  0  0  0
  -16.7251  -28.6493   23.0367 C   0  0  0  0  0  0
  -26.4494  -31.6583   25.0706 C   0  0  0  0  0  0
  -25.3707  -31.3747   26.1419 C   0  0  0  0  0  0
  -27.0344  -30.2987   24.6213 C   0  0  0  0  0  0
  -27.6017  -32.4373   25.7484 C   0  0  0  0  0  0
  -27.5581  -37.1788   24.8462 C   0  0  0  0  0  0
  -21.4181  -29.3022   22.3652 N   0  0  0  0  0  0
  -26.4293  -37.3759   23.9410 N   0  0  0  0  0  0
  -24.6940  -31.0505   22.0932 N   0  0  0  0  0  0
  -23.4174  -28.8124   23.3034 O   0  0  0  0  0  0
  -28.3339  -26.3894   20.1348 O   0  0  0  0  0  0
  -26.5664  -34.8919   22.4660 O   0  0  0  0  0  0
  -23.5431  -32.1326   23.7260 O   0  0  0  0  0  0
  -29.3740  -18.4450   20.3763 C   0  0  0  0  0  0
  -31.8168  -18.9269   21.4240 C   0  0  0  0  0  0
  -29.7489  -19.8469   20.5264 C   0  0  0  0  0  0
  -31.0497  -20.0481   21.0505 C   0  0  0  0  0  0
  -30.2382  -17.3301   20.7461 C   0  0  0  0  0  0
  -28.7166  -23.6546   19.9621 C   0  0  0  0  0  0
  -28.1823  -25.0022   20.6961 C   0  0  0  0  0  0
  -28.7276  -22.2362   20.7633 C   0  0  0  0  0  0
  -31.4370  -17.6363   21.2867 N   0  0  0  0  0  0
  -29.8526  -15.9024   20.5998 N   0  0  0  0  0  0
  -28.9428  -20.9323   20.0524 O   0  0  0  0  0  0
  -31.8020  -21.6036   21.1520 Cl  0  0  0  0  0  0
  -31.4725  -12.5777   19.1631 H   0  0  0  0  0  0
  -30.3722  -11.4868   19.9571 H   0  0  0  0  0  0
  -29.7854  -11.7235   17.5228 H   0  0  0  0  0  0
  -29.6347  -13.4529   17.7077 H   0  0  0  0  0  0
  -27.8913  -11.2840   18.9149 H   0  0  0  0  0  0
  -27.3739  -12.5225   17.8028 H   0  0  0  0  0  0
  -27.6307  -14.2537   19.4648 H   0  0  0  0  0  0
  -28.7305  -12.1834   21.4270 H   0  0  0  0  0  0
  -28.4289  -13.8643   21.7913 H   0  0  0  0  0  0
  -25.2757   -9.5681   22.4781 H   0  0  0  0  0  0
  -23.9999   -7.4630   22.7479 H   0  0  0  0  0  0
  -21.0848   -8.8785   19.8954 H   0  0  0  0  0  0
  -22.3708  -10.9684   19.6179 H   0  0  0  0  0  0
  -21.2005   -7.6148   23.9721 H   0  0  0  0  0  0
  -21.1478   -6.0521   25.9076 H   0  0  0  0  0  0
  -22.0598   -2.7617   23.2843 H   0  0  0  0  0  0
  -22.4089  -11.9854   22.4797 H   0  0  0  0  0  0
  -21.1100  -13.1244   22.2666 H   0  0  0  0  0  0
  -24.6330  -15.8321   20.5037 H   0  0  0  0  0  0
  -26.2457  -15.6383   20.0457 H   0  0  0  0  0  0
  -26.7164  -32.5409   23.1049 H   0  0  0  0  0  0
  -24.9991  -33.9683   25.0318 H   0  0  0  0  0  0
  -22.7212  -31.2922   21.3896 H   0  0  0  0  0  0
  -23.3755  -35.9611   23.3301 H   0  0  0  0  0  0
  -24.3556  -36.8916   22.2065 H   0  0  0  0  0  0
  -23.7261  -37.6471   23.6692 H   0  0  0  0  0  0
  -26.1041  -31.5312   20.6036 H   0  0  0  0  0  0
  -26.8463  -30.8188   22.0073 H   0  0  0  0  0  0
  -28.1324  -28.9467   21.1831 H   0  0  0  0  0  0
  -25.9966  -25.8733   19.0457 H   0  0  0  0  0  0
  -23.9753  -27.2777   19.0283 H   0  0  0  0  0  0
  -23.7695  -30.5700   19.3974 H   0  0  0  0  0  0
  -22.7679  -29.2268   19.8588 H   0  0  0  0  0  0
  -25.1319  -36.1883   25.0801 H   0  0  0  0  0  0
  -20.9927  -28.3259   24.1387 H   0  0  0  0  0  0
  -20.5646  -26.2296   23.3601 H   0  0  0  0  0  0
  -21.6637  -26.7426   22.1212 H   0  0  0  0  0  0
  -19.6925  -25.6264   21.1243 H   0  0  0  0  0  0
  -19.6695  -27.3155   20.6708 H   0  0  0  0  0  0
  -17.4184  -26.6606   21.4008 H   0  0  0  0  0  0
  -18.0341  -26.0047   22.9009 H   0  0  0  0  0  0
  -19.7970  -30.7218   24.2247 H   0  0  0  0  0  0
  -17.5068  -31.6289   24.5133 H   0  0  0  0  0  0
  -15.5372  -30.3006   23.7702 H   0  0  0  0  0  0
  -15.8629  -28.0822   22.7127 H   0  0  0  0  0  0
  -24.5900  -30.7069   25.7752 H   0  0  0  0  0  0
  -24.8898  -32.2936   26.4796 H   0  0  0  0  0  0
  -25.8027  -30.8974   27.0218 H   0  0  0  0  0  0
  -26.2915  -29.6709   24.1278 H   0  0  0  0  0  0
  -27.4034  -29.7291   25.4752 H   0  0  0  0  0  0
  -27.8791  -30.4225   23.9425 H   0  0  0  0  0  0
  -27.2560  -33.3679   26.2001 H   0  0  0  0  0  0
  -28.3850  -32.6925   25.0333 H   0  0  0  0  0  0
  -28.0644  -31.8547   26.5461 H   0  0  0  0  0  0
  -28.2582  -38.0103   24.7516 H   0  0  0  0  0  0
  -28.1081  -36.2624   24.6271 H   0  0  0  0  0  0
  -27.2276  -37.1411   25.8857 H   0  0  0  0  0  0
  -20.9360  -29.8733   21.6852 H   0  0  0  0  0  0
  -26.0150  -38.2809   24.1470 H   0  0  0  0  0  0
  -28.4086  -18.2298   19.9430 H   0  0  0  0  0  0
  -32.8112  -19.0720   21.8188 H   0  0  0  0  0  0
  -29.7321  -23.8360   19.6105 H   0  0  0  0  0  0
  -28.1241  -23.5231   19.0569 H   0  0  0  0  0  0
  -28.7095  -25.0469   21.6497 H   0  0  0  0  0  0
  -27.1411  -24.8381   20.9744 H   0  0  0  0  0  0
  -27.7374  -22.1337   21.2075 H   0  0  0  0  0  0
  -29.3734  -22.3205   21.6337 H   0  0  0  0  0  0
  -28.8615  -15.7324   20.6114 H   0  0  0  0  0  0
  1 25  1  0  0  0
  1 30  2  0  0  0
  1 80  1  0  0  0
  2  3  1  0  0  0
  2 25  1  0  0  0
  2 83  1  0  0  0
  2 84  1  0  0  0
  3  4  1  0  0  0
  3 85  1  0  0  0
  3 86  1  0  0  0
  4  5  1  0  0  0
  4 87  1  0  0  0
  4 88  1  0  0  0
  5  6  1  0  0  0
  5 26  1  0  0  0
  5 89  1  0  0  0
  6 25  1  0  0  0
  6 90  1  0  0  0
  6 91  1  0  0  0
  7  8  2  0  0  0
  7 26  1  0  0  0
  7 29  1  0  0  0
  8  9  1  0  0  0
  8 22  1  0  0  0
  9 10  1  0  0  0
  9 27  2  0  0  0
 10 11  2  0  0  0
 10 15  1  0  0  0
 11 12  1  0  0  0
 11 92  1  0  0  0
 12 13  2  0  0  0
 12 93  1  0  0  0
 13 14  1  0  0  0
 13 31  1  0  0  0
 14 15  2  0  0  0
 14 94  1  0  0  0
 15 95  1  0  0  0
 16 17  2  0  0  0
 16 21  1  0  0  0
 16 31  1  0  0  0
 17 18  1  0  0  0
 17 96  1  0  0  0
 18 19  2  0  0  0
 18 97  1  0  0  0
 19 20  1  0  0  0
 19 24  1  0  0  0
 20 21  2  0  0  0
 20 98  1  0  0  0
 21 23  1  0  0  0
 22 28  1  0  0  0
 22 32  2  0  0  0
 26 27  1  0  0  0
 28 99  1  0  0  0
 28100  1  0  0  0
 29101  1  0  0  0
 29102  1  0  0  0
 33 34  1  0  0  0
 33 66  1  0  0  0
 33 70  2  0  0  0
 34 36  1  0  0  0
 34 59  1  0  0  0
 34103  1  0  0  0
 35 44  2  0  0  0
 35 45  1  0  0  0
 35 68  1  0  0  0
 36 56  1  0  0  0
 36104  1  0  0  0
 37 39  1  0  0  0
 37 47  1  0  0  0
 37 66  1  0  0  0
 37105  1  0  0  0
 38 43  2  0  0  0
 38 46  1  0  0  0
 38 47  1  0  0  0
 39 64  1  0  0  0
 39 67  2  0  0  0
 40 52  1  0  0  0
 40 53  2  0  0  0
 40 58  1  0  0  0
 41106  1  0  0  0
 41107  1  0  0  0
 41108  1  0  0  0
 41 48  1  0  0  0
 42 43  1  0  0  0
 42 66  1  0  0  0
 42109  1  0  0  0
 42110  1  0  0  0
 43 44  1  0  0  0
 44111  1  0  0  0
 45 46  2  0  0  0
 45112  1  0  0  0
 46113  1  0  0  0
 47114  1  0  0  0
 47115  1  0  0  0
 48 56  1  0  0  0
 48 65  1  0  0  0
 48116  1  0  0  0
 49 50  1  0  0  0
 49 53  1  0  0  0
 49 64  1  0  0  0
 49117  1  0  0  0
 50 51  1  0  0  0
 50118  1  0  0  0
 50119  1  0  0  0
 51 52  1  0  0  0
 51120  1  0  0  0
 51121  1  0  0  0
 52122  1  0  0  0
 52123  1  0  0  0
 53 54  1  0  0  0
 54 55  2  0  0  0
 54124  1  0  0  0
 55 57  1  0  0  0
 55125  1  0  0  0
 56 69  2  0  0  0
 57 58  2  0  0  0
 57126  1  0  0  0
 58127  1  0  0  0
 59 60  1  0  0  0
 59 61  1  0  0  0
 59 62  1  0  0  0
 60128  1  0  0  0
 60129  1  0  0  0
 60130  1  0  0  0
 61131  1  0  0  0
 61132  1  0  0  0
 61133  1  0  0  0
 62134  1  0  0  0
 62135  1  0  0  0
 62136  1  0  0  0
 63 65  1  0  0  0
 63137  1  0  0  0
 63138  1  0  0  0
 63139  1  0  0  0
 64140  1  0  0  0
 65141  1  0  0  0
 68 77  1  0  0  0
 71 73  2  0  0  0
 71 75  1  0  0  0
 71142  1  0  0  0
 72 74  2  0  0  0
 72 79  1  0  0  0
 72143  1  0  0  0
 73 74  1  0  0  0
 73 81  1  0  0  0
 74 82  1  0  0  0
 75 79  2  0  0  0
 75 80  1  0  0  0
 76 77  1  0  0  0
 76 78  1  0  0  0
 76144  1  0  0  0
 76145  1  0  0  0
 77146  1  0  0  0
 77147  1  0  0  0
 78 81  1  0  0  0
 78148  1  0  0  0
 78149  1  0  0  0
 80150  1  0  0  0
M  ISO  4   1 100  68 101  77 101  80 100
M  END
> <chiral flag>
0

> <version>
0

> <s_m_source_file>
/data/baiqing/PycharmProjects/Reinvent-master-3.2/result/LINK_invent/BTK/process_docking_weight1_custom_sum_contain_oxygen_bond_distance_aromatic_linkinvent_7_9_3/rearranged_h_0007.sdf

> <i_m_source_file_index>
33

> <r_mmod_Potential_Energy-OPLS-2005>
100.604515075684

> <r_mmod_Stretch_Energy-OPLS-2005>
127.89958190918

> <r_mmod_Bend_Energy-OPLS-2005>
177.103866577148

> <r_mmod_Torsional_Energy-OPLS-2005>
243.421569824219

> <r_mmod_Improper_Torsional_Energy-OPLS-2005>
7.07955026626587

> <r_mmod_Van_der_Waal_Energy-OPLS-2005>
140.937805175781

> <r_mmod_Electrostatic_Energy-OPLS-2005>
-446.061737060547

> <r_mmod_Solvation_Energy-OPLS-2005>
-232.801376342773

> <b_mmod_Minimization_Converged-OPLS-2005>
0

> <r_mmod_RMS_Derivative-OPLS-2005>
1.92856204509735

$$$$
33
                    3D
 Structure written by MMmdl.
149156  0  0  1  0            999 V2000
  -30.5385  -14.9606   20.4235 C   0  0  0  0  0  0
  -30.4415  -12.5966   19.5068 C   0  0  0  0  0  0
  -29.5259  -12.5279   18.2622 C   0  0  0  0  0  0
  -28.0582  -12.3139   18.6773 C   0  0  0  0  0  0
  -27.6294  -13.2509   19.8373 C   0  0  2  0  0  0
  -28.6691  -13.2823   20.9771 C   0  0  0  0  0  0
  -25.2448  -13.8234   20.5695 C   0  0  0  0  0  0
  -24.1770  -13.0451   20.9241 C   0  0  0  0  0  0
  -24.6394  -11.6937   20.8764 C   0  0  0  0  0  0
  -23.9079  -10.4302   21.0403 C   0  0  0  0  0  0
  -24.3625   -9.4212   21.9175 C   0  0  0  0  0  0
  -23.6297   -8.2248   22.0742 C   0  0  0  0  0  0
  -22.4280   -8.0284   21.3533 C   0  0  0  0  0  0
  -21.9923   -9.0266   20.4641 C   0  0  0  0  0  0
  -22.7257  -10.2141   20.3048 C   0  0  0  0  0  0
  -21.6864   -6.0733   22.5279 C   0  0  0  0  0  0
  -21.4024   -6.5633   23.8213 C   0  0  0  0  0  0
  -21.3668   -5.6780   24.9174 C   0  0  0  0  0  0
  -21.6048   -4.3044   24.7226 C   0  0  0  0  0  0
  -21.8818   -3.8139   23.4347 C   0  0  0  0  0  0
  -21.9188   -4.6959   22.3403 C   0  0  0  0  0  0
  -22.7786  -13.5207   21.1887 C   0  0  0  0  0  0
  -22.1657   -4.2143   21.0982 F   0  0  0  0  0  0
  -21.5628   -3.4527   25.7738 F   0  0  0  0  0  0
  -29.9439  -13.7000   20.3801 N   0  0  0  0  0  0
  -26.2872  -12.9469   20.3219 N   0  0  0  0  0  0
  -25.9325  -11.6596   20.5737 N   0  0  0  0  0  0
  -22.0435  -12.8199   22.0450 N   0  0  0  0  0  0
  -25.4105  -15.1968   20.4119 N   0  0  0  0  0  0
  -31.7416  -15.0193   20.1483 O   0  0  0  0  0  0
  -21.6641   -6.8883   21.4240 O   0  0  0  0  0  0
  -22.3457  -14.5499   20.6717 O   0  0  0  0  0  0
  -24.6421  -31.8439   23.1854 C   0  0  0  0  0  0
  -25.9192  -32.4696   23.8252 C   0  0  1  0  0  0
  -27.2205  -27.1261   20.1624 C   0  0  0  0  0  0
  -25.5937  -33.8506   24.2159 N   0  0  0  0  0  0
  -23.4474  -30.4613   21.5303 C   0  0  2  0  0  0
  -24.8992  -28.8815   20.1113 C   0  0  0  0  0  0
  -22.7564  -29.4548   22.4842 C   0  0  0  0  0  0
  -18.0306  -28.1393   22.8468 C   0  0  0  0  0  0
  -24.1489  -36.7274   23.2638 C   0  0  0  0  0  0
  -26.0020  -30.7129   21.3875 C   0  0  0  0  0  0
  -26.0725  -29.3186   20.7394 C   0  0  0  0  0  0
  -27.2313  -28.4536   20.7552 C   0  0  0  0  0  0
  -26.0271  -26.7957   19.4862 C   0  0  0  0  0  0
  -24.8883  -27.6323   19.4714 C   0  0  0  0  0  0
  -23.6748  -29.7839   20.1516 C   0  0  0  0  0  0
  -25.4124  -36.3035   24.0298 C   0  0  1  0  0  0
  -20.5917  -28.3719   23.1236 C   0  0  2  0  0  0
  -20.6790  -26.9430   22.5397 C   0  0  0  0  0  0
  -19.5763  -26.6382   21.5205 C   0  0  0  0  0  0
  -18.1946  -26.7929   22.1619 C   0  0  0  0  0  0
  -19.1563  -28.8878   23.2839 C   0  0  0  0  0  0
  -18.9485  -30.1474   23.8865 C   0  0  0  0  0  0
  -17.6483  -30.6588   24.0566 C   0  0  0  0  0  0
  -25.9073  -34.9409   23.5040 C   0  0  0  0  0  0
  -16.5373  -29.9084   23.6337 C   0  0  0  0  0  0
  -16.7293  -28.6506   23.0347 C   0  0  0  0  0  0
  -26.4488  -31.6567   25.0704 C   0  0  0  0  0  0
  -25.3655  -31.3805   26.1391 C   0  0  0  0  0  0
  -27.0339  -30.2950   24.6300 C   0  0  0  0  0  0
  -27.6002  -32.4334   25.7511 C   0  0  0  0  0  0
  -27.5575  -37.1789   24.8449 C   0  0  0  0  0  0
  -21.4256  -29.3045   22.3602 N   0  0  0  0  0  0
  -26.4281  -37.3757   23.9408 N   0  0  0  0  0  0
  -24.7171  -31.0288   22.0891 N   0  0  0  0  0  0
  -23.4206  -28.8112   23.3008 O   0  0  0  0  0  0
  -28.2807  -26.1460   20.1860 O   0  0  0  0  0  0
  -26.5680  -34.8912   22.4631 O   0  0  0  0  0  0
  -23.5536  -32.1330   23.7062 O   0  0  0  0  0  0
  -28.7651  -23.6325   20.2949 C   0  0  0  0  0  0
  -28.4190  -21.9887   20.4380 C   0  0  0  0  0  0
  -30.2481  -23.9041   20.1371 C   0  0  0  0  0  0
  -29.4864  -20.6675   20.3658 C   0  0  0  0  0  0
  -29.0845  -19.0188   20.5136 C   0  0  0  0  0  0
  -30.1463  -17.6937   20.4263 C   0  0  0  0  0  0
  -27.8827  -24.6619   20.3214 N   0  0  0  0  0  0
  -29.7698  -16.1551   20.5676 N   0  0  0  0  0  0
  -31.0036  -24.0259   21.7504 Cl  0  0  0  0  0  0
  -31.4747  -12.7570   19.1969 H   0  0  0  0  0  0
  -30.4381  -11.6480   20.0460 H   0  0  0  0  0  0
  -29.8493  -11.7252   17.5974 H   0  0  0  0  0  0
  -29.6161  -13.4550   17.6936 H   0  0  0  0  0  0
  -27.9554  -11.2737   18.9885 H   0  0  0  0  0  0
  -27.3983  -12.4414   17.8190 H   0  0  0  0  0  0
  -27.5916  -14.2517   19.4055 H   0  0  0  0  0  0
  -28.7603  -12.3048   21.4526 H   0  0  0  0  0  0
  -28.3668  -13.9808   21.7584 H   0  0  0  0  0  0
  -25.2774   -9.5682   22.4743 H   0  0  0  0  0  0
  -24.0015   -7.4629   22.7452 H   0  0  0  0  0  0
  -21.0856   -8.8789   19.8938 H   0  0  0  0  0  0
  -22.3722  -10.9676   19.6152 H   0  0  0  0  0  0
  -21.2024   -7.6141   23.9722 H   0  0  0  0  0  0
  -21.1494   -6.0506   25.9074 H   0  0  0  0  0  0
  -22.0588   -2.7601   23.2849 H   0  0  0  0  0  0
  -22.4061  -11.9897   22.4899 H   0  0  0  0  0  0
  -21.1028  -13.1185   22.2596 H   0  0  0  0  0  0
  -24.6412  -15.8485   20.5260 H   0  0  0  0  0  0
  -26.2476  -15.6387   20.0539 H   0  0  0  0  0  0
  -26.7263  -32.5298   23.0988 H   0  0  0  0  0  0
  -25.0020  -33.9619   25.0256 H   0  0  0  0  0  0
  -22.7493  -31.2863   21.3711 H   0  0  0  0  0  0
  -23.3742  -35.9611   23.3278 H   0  0  0  0  0  0
  -24.3572  -36.8941   22.2059 H   0  0  0  0  0  0
  -23.7254  -37.6464   23.6702 H   0  0  0  0  0  0
  -26.1543  -31.4622   20.6087 H   0  0  0  0  0  0
  -26.8743  -30.7715   22.0263 H   0  0  0  0  0  0
  -28.1255  -28.7834   21.2652 H   0  0  0  0  0  0
  -25.9561  -25.8404   18.9860 H   0  0  0  0  0  0
  -23.9944  -27.2939   18.9656 H   0  0  0  0  0  0
  -23.8076  -30.5541   19.3913 H   0  0  0  0  0  0
  -22.7904  -29.2220   19.8452 H   0  0  0  0  0  0
  -25.1314  -36.1845   25.0790 H   0  0  0  0  0  0
  -21.0006  -28.3309   24.1355 H   0  0  0  0  0  0
  -20.5680  -26.2345   23.3621 H   0  0  0  0  0  0
  -21.6662  -26.7425   22.1209 H   0  0  0  0  0  0
  -19.6936  -25.6286   21.1260 H   0  0  0  0  0  0
  -19.6699  -27.3173   20.6726 H   0  0  0  0  0  0
  -17.4215  -26.6659   21.4028 H   0  0  0  0  0  0
  -18.0349  -26.0078   22.9028 H   0  0  0  0  0  0
  -19.7966  -30.7294   24.2210 H   0  0  0  0  0  0
  -17.5042  -31.6262   24.5181 H   0  0  0  0  0  0
  -15.5376  -30.2981   23.7681 H   0  0  0  0  0  0
  -15.8688  -28.0828   22.7063 H   0  0  0  0  0  0
  -24.5789  -30.7207   25.7710 H   0  0  0  0  0  0
  -24.8891  -32.3018   26.4758 H   0  0  0  0  0  0
  -25.7894  -30.8996   27.0209 H   0  0  0  0  0  0
  -26.2929  -29.6669   24.1339 H   0  0  0  0  0  0
  -27.3963  -29.7271   25.4878 H   0  0  0  0  0  0
  -27.8840  -30.4169   23.9590 H   0  0  0  0  0  0
  -27.2548  -33.3623   26.2068 H   0  0  0  0  0  0
  -28.3837  -32.6922   25.0377 H   0  0  0  0  0  0
  -28.0638  -31.8485   26.5466 H   0  0  0  0  0  0
  -28.2559  -38.0116   24.7521 H   0  0  0  0  0  0
  -28.1098  -36.2644   24.6227 H   0  0  0  0  0  0
  -27.2299  -37.1382   25.8852 H   0  0  0  0  0  0
  -20.9467  -29.8747   21.6767 H   0  0  0  0  0  0
  -26.0132  -38.2814   24.1429 H   0  0  0  0  0  0
  -27.6477  -21.7940   19.6927 H   0  0  0  0  0  0
  -27.8980  -21.8918   21.3899 H   0  0  0  0  0  0
  -30.4255  -24.8328   19.5970 H   0  0  0  0  0  0
  -30.7349  -23.1009   19.5868 H   0  0  0  0  0  0
  -30.2460  -20.8604   21.1245 H   0  0  0  0  0  0
  -30.0218  -20.7610   19.4212 H   0  0  0  0  0  0
  -28.3157  -18.8349   19.7630 H   0  0  0  0  0  0
  -28.5611  -18.9264   21.4661 H   0  0  0  0  0  0
  -30.9244  -17.8684   21.1705 H   0  0  0  0  0  0
  -30.6656  -17.7743   19.4707 H   0  0  0  0  0  0
  -28.7953  -15.9815   20.7637 H   0  0  0  0  0  0
  1 25  1  0  0  0
  1 30  2  0  0  0
  1 78  1  0  0  0
  2  3  1  0  0  0
  2 25  1  0  0  0
  2 80  1  0  0  0
  2 81  1  0  0  0
  3  4  1  0  0  0
  3 82  1  0  0  0
  3 83  1  0  0  0
  4  5  1  0  0  0
  4 84  1  0  0  0
  4 85  1  0  0  0
  5  6  1  0  0  0
  5 26  1  0  0  0
  5 86  1  0  0  0
  6 25  1  0  0  0
  6 87  1  0  0  0
  6 88  1  0  0  0
  7  8  2  0  0  0
  7 26  1  0  0  0
  7 29  1  0  0  0
  8  9  1  0  0  0
  8 22  1  0  0  0
  9 10  1  0  0  0
  9 27  2  0  0  0
 10 11  2  0  0  0
 10 15  1  0  0  0
 11 12  1  0  0  0
 11 89  1  0  0  0
 12 13  2  0  0  0
 12 90  1  0  0  0
 13 14  1  0  0  0
 13 31  1  0  0  0
 14 15  2  0  0  0
 14 91  1  0  0  0
 15 92  1  0  0  0
 16 17  2  0  0  0
 16 21  1  0  0  0
 16 31  1  0  0  0
 17 18  1  0  0  0
 17 93  1  0  0  0
 18 19  2  0  0  0
 18 94  1  0  0  0
 19 20  1  0  0  0
 19 24  1  0  0  0
 20 21  2  0  0  0
 20 95  1  0  0  0
 21 23  1  0  0  0
 22 28  1  0  0  0
 22 32  2  0  0  0
 26 27  1  0  0  0
 28 96  1  0  0  0
 28 97  1  0  0  0
 29 98  1  0  0  0
 29 99  1  0  0  0
 33 34  1  0  0  0
 33 66  1  0  0  0
 33 70  2  0  0  0
 34 36  1  0  0  0
 34 59  1  0  0  0
 34100  1  0  0  0
 35 44  2  0  0  0
 35 45  1  0  0  0
 35 68  1  0  0  0
 36 56  1  0  0  0
 36101  1  0  0  0
 37 39  1  0  0  0
 37 47  1  0  0  0
 37 66  1  0  0  0
 37102  1  0  0  0
 38 43  2  0  0  0
 38 46  1  0  0  0
 38 47  1  0  0  0
 39 64  1  0  0  0
 39 67  2  0  0  0
 40 52  1  0  0  0
 40 53  2  0  0  0
 40 58  1  0  0  0
 41103  1  0  0  0
 41104  1  0  0  0
 41105  1  0  0  0
 41 48  1  0  0  0
 42 43  1  0  0  0
 42 66  1  0  0  0
 42106  1  0  0  0
 42107  1  0  0  0
 43 44  1  0  0  0
 44108  1  0  0  0
 45 46  2  0  0  0
 45109  1  0  0  0
 46110  1  0  0  0
 47111  1  0  0  0
 47112  1  0  0  0
 48 56  1  0  0  0
 48 65  1  0  0  0
 48113  1  0  0  0
 49 50  1  0  0  0
 49 53  1  0  0  0
 49 64  1  0  0  0
 49114  1  0  0  0
 50 51  1  0  0  0
 50115  1  0  0  0
 50116  1  0  0  0
 51 52  1  0  0  0
 51117  1  0  0  0
 51118  1  0  0  0
 52119  1  0  0  0
 52120  1  0  0  0
 53 54  1  0  0  0
 54 55  2  0  0  0
 54121  1  0  0  0
 55 57  1  0  0  0
 55122  1  0  0  0
 56 69  2  0  0  0
 57 58  2  0  0  0
 57123  1  0  0  0
 58124  1  0  0  0
 59 60  1  0  0  0
 59 61  1  0  0  0
 59 62  1  0  0  0
 60125  1  0  0  0
 60126  1  0  0  0
 60127  1  0  0  0
 61128  1  0  0  0
 61129  1  0  0  0
 61130  1  0  0  0
 62131  1  0  0  0
 62132  1  0  0  0
 62133  1  0  0  0
 63 65  1  0  0  0
 63134  1  0  0  0
 63135  1  0  0  0
 63136  1  0  0  0
 64137  1  0  0  0
 65138  1  0  0  0
 68 77  1  0  0  0
 71 72  1  0  0  0
 71 73  1  0  0  0
 71 77  2  0  0  0
 72 74  1  0  0  0
 72139  1  0  0  0
 72140  1  0  0  0
 73 79  1  0  0  0
 73141  1  0  0  0
 73142  1  0  0  0
 74 75  1  0  0  0
 74143  1  0  0  0
 74144  1  0  0  0
 75 76  1  0  0  0
 75145  1  0  0  0
 75146  1  0  0  0
 76 78  1  0  0  0
 76147  1  0  0  0
 76148  1  0  0  0
 78149  1  0  0  0
M  ISO  4   1 100  68 101  77 101  78 100
M  END
> <chiral flag>
0

> <version>
0

> <s_m_source_file>
/data/baiqing/PycharmProjects/Reinvent-master-3.2/result/LINK_invent/BTK/process_docking_weight1_custom_sum_contain_oxygen_bond_distance_aromatic_linkinvent_7_9_3/rearranged_h_0007.sdf

> <i_m_source_file_index>
34

> <r_mmod_Potential_Energy-OPLS-2005>
474.797393798828

> <r_mmod_Stretch_Energy-OPLS-2005>
292.200103759766

> <r_mmod_Bend_Energy-OPLS-2005>
254.777862548828

> <r_mmod_Torsional_Energy-OPLS-2005>
198.286331176758

> <r_mmod_Improper_Torsional_Energy-OPLS-2005>
4.30527114868164

> <r_mmod_Van_der_Waal_Energy-OPLS-2005>
109.702110290527

> <r_mmod_Electrostatic_Energy-OPLS-2005>
-359.756652832031

> <r_mmod_Solvation_Energy-OPLS-2005>
-223.678146362305

> <b_mmod_Minimization_Converged-OPLS-2005>
0

> <r_mmod_RMS_Derivative-OPLS-2005>
1.90629208087921

$$$$
34
                    3D
 Structure written by MMmdl.
157165  0  0  1  0            999 V2000
  -30.7302  -14.4841   20.6287 C   0  0  0  0  0  0
  -30.4194  -12.3364   19.4275 C   0  0  0  0  0  0
  -29.4947  -12.5205   18.2075 C   0  0  0  0  0  0
  -28.0176  -12.3674   18.6172 C   0  0  0  0  0  0
  -27.6577  -13.2124   19.8665 C   0  0  2  0  0  0
  -28.6931  -13.0074   20.9902 C   0  0  0  0  0  0
  -25.2576  -13.8175   20.5669 C   0  0  0  0  0  0
  -24.1832  -13.0444   20.9165 C   0  0  0  0  0  0
  -24.6393  -11.6912   20.8723 C   0  0  0  0  0  0
  -23.9061  -10.4296   21.0401 C   0  0  0  0  0  0
  -24.3613   -9.4214   21.9182 C   0  0  0  0  0  0
  -23.6289   -8.2251   22.0754 C   0  0  0  0  0  0
  -22.4271   -8.0286   21.3543 C   0  0  0  0  0  0
  -21.9904   -9.0260   20.4647 C   0  0  0  0  0  0
  -22.7233  -10.2139   20.3054 C   0  0  0  0  0  0
  -21.6854   -6.0736   22.5279 C   0  0  0  0  0  0
  -21.4018   -6.5640   23.8212 C   0  0  0  0  0  0
  -21.3659   -5.6792   24.9175 C   0  0  0  0  0  0
  -21.6042   -4.3055   24.7225 C   0  0  0  0  0  0
  -21.8818   -3.8146   23.4346 C   0  0  0  0  0  0
  -21.9191   -4.6963   22.3402 C   0  0  0  0  0  0
  -22.7857  -13.5242   21.1836 C   0  0  0  0  0  0
  -22.1659   -4.2149   21.0979 F   0  0  0  0  0  0
  -21.5627   -3.4536   25.7738 F   0  0  0  0  0  0
  -30.0280  -13.3233   20.4514 N   0  0  0  0  0  0
  -26.3001  -12.9351   20.3305 N   0  0  0  0  0  0
  -25.9315  -11.6506   20.5724 N   0  0  0  0  0  0
  -22.0496  -12.8243   22.0401 N   0  0  0  0  0  0
  -25.4314  -15.1894   20.4118 N   0  0  0  0  0  0
  -31.8132  -14.6799   20.0662 O   0  0  0  0  0  0
  -21.6639   -6.8881   21.4241 O   0  0  0  0  0  0
  -22.3543  -14.5547   20.6685 O   0  0  0  0  0  0
  -24.6187  -31.8670   23.2099 C   0  0  0  0  0  0
  -25.9071  -32.4815   23.8399 C   0  0  1  0  0  0
  -27.2256  -27.3991   20.0979 C   0  0  0  0  0  0
  -25.5920  -33.8614   24.2333 N   0  0  0  0  0  0
  -23.4070  -30.4933   21.5517 C   0  0  2  0  0  0
  -24.8508  -28.9582   20.1158 C   0  0  0  0  0  0
  -22.7427  -29.4670   22.4983 C   0  0  0  0  0  0
  -18.0279  -28.1376   22.8494 C   0  0  0  0  0  0
  -24.1487  -36.7307   23.2637 C   0  0  0  0  0  0
  -25.9412  -30.8229   21.3677 C   0  0  0  0  0  0
  -26.0167  -29.4563   20.7106 C   0  0  0  0  0  0
  -27.2085  -28.6875   20.6933 C   0  0  0  0  0  0
  -26.0369  -26.9318   19.4901 C   0  0  0  0  0  0
  -24.8580  -27.6970   19.5016 C   0  0  0  0  0  0
  -23.6161  -29.8301   20.1657 C   0  0  0  0  0  0
  -25.4108  -36.3108   24.0339 C   0  0  1  0  0  0
  -20.5873  -28.3677   23.1308 C   0  0  2  0  0  0
  -20.6778  -26.9412   22.5409 C   0  0  0  0  0  0
  -19.5753  -26.6386   21.5212 C   0  0  0  0  0  0
  -18.1931  -26.7923   22.1625 C   0  0  0  0  0  0
  -19.1529  -28.8841   23.2899 C   0  0  0  0  0  0
  -18.9454  -30.1445   23.8912 C   0  0  0  0  0  0
  -17.6456  -30.6584   24.0566 C   0  0  0  0  0  0
  -25.9038  -34.9473   23.5131 C   0  0  0  0  0  0
  -16.5347  -29.9086   23.6326 C   0  0  0  0  0  0
  -16.7267  -28.6500   23.0353 C   0  0  0  0  0  0
  -26.4484  -31.6591   25.0730 C   0  0  0  0  0  0
  -25.3745  -31.3695   26.1472 C   0  0  0  0  0  0
  -27.0317  -30.3032   24.6117 C   0  0  0  0  0  0
  -27.6062  -32.4305   25.7491 C   0  0  0  0  0  0
  -27.5581  -37.1811   24.8468 C   0  0  0  0  0  0
  -21.4151  -29.3056   22.3725 N   0  0  0  0  0  0
  -26.4294  -37.3793   23.9409 N   0  0  0  0  0  0
  -24.6743  -31.0753   22.1011 N   0  0  0  0  0  0
  -23.4189  -28.8197   23.3022 O   0  0  0  0  0  0
  -28.3776  -26.6241   20.1078 O   0  0  0  0  0  0
  -26.5592  -34.8924   22.4689 O   0  0  0  0  0  0
  -23.5374  -32.1435   23.7476 O   0  0  0  0  0  0
  -30.0457  -17.2122   19.5920 C   0  0  0  0  0  0
  -29.6517  -17.8690   21.8815 C   0  0  0  0  0  0
  -29.8839  -18.5603   19.1893 C   0  0  0  0  0  0
  -29.4751  -19.2150   21.4749 C   0  0  0  0  0  0
  -29.9573  -16.8293   20.9572 C   0  0  0  0  0  0
  -29.5939  -19.5863   20.1158 C   0  0  0  0  0  0
  -30.1889  -15.2000   22.8572 C   0  0  0  0  0  0
  -29.4450  -22.9812   21.0350 C   0  0  0  0  0  0
  -29.5172  -24.3870   20.3528 C   0  0  0  0  0  0
  -28.6520  -21.8507   20.3201 C   0  0  0  0  0  0
  -28.1948  -25.2002   20.3233 C   0  0  0  0  0  0
  -30.1707  -15.4564   21.4076 N   0  0  0  0  0  0
  -29.4786  -20.8876   19.6376 O   0  0  0  0  0  0
  -31.4643  -12.4331   19.1271 H   0  0  0  0  0  0
  -30.3228  -11.3267   19.8302 H   0  0  0  0  0  0
  -29.7440  -11.7939   17.4333 H   0  0  0  0  0  0
  -29.6553  -13.5060   17.7672 H   0  0  0  0  0  0
  -27.8381  -11.3110   18.8208 H   0  0  0  0  0  0
  -27.3652  -12.6309   17.7838 H   0  0  0  0  0  0
  -27.6992  -14.2596   19.5652 H   0  0  0  0  0  0
  -28.6761  -11.9754   21.3426 H   0  0  0  0  0  0
  -28.4160  -13.6126   21.8511 H   0  0  0  0  0  0
  -25.2760   -9.5690   22.4751 H   0  0  0  0  0  0
  -23.9996   -7.4645   22.7475 H   0  0  0  0  0  0
  -21.0833   -8.8780   19.8957 H   0  0  0  0  0  0
  -22.3693  -10.9675   19.6159 H   0  0  0  0  0  0
  -21.2016   -7.6148   23.9717 H   0  0  0  0  0  0
  -21.1481   -6.0521   25.9076 H   0  0  0  0  0  0
  -22.0596   -2.7607   23.2846 H   0  0  0  0  0  0
  -22.4100  -11.9905   22.4800 H   0  0  0  0  0  0
  -21.1117  -13.1283   22.2603 H   0  0  0  0  0  0
  -24.6724  -15.8506   20.5356 H   0  0  0  0  0  0
  -26.2980  -15.6299   20.1279 H   0  0  0  0  0  0
  -26.7143  -32.5518   23.1160 H   0  0  0  0  0  0
  -25.0097  -33.9776   25.0497 H   0  0  0  0  0  0
  -22.6972  -31.3115   21.4137 H   0  0  0  0  0  0
  -23.3750  -35.9639   23.3313 H   0  0  0  0  0  0
  -24.3580  -36.8906   22.2049 H   0  0  0  0  0  0
  -23.7234  -37.6516   23.6641 H   0  0  0  0  0  0
  -26.0604  -31.5904   20.6015 H   0  0  0  0  0  0
  -26.8271  -30.8722   21.9895 H   0  0  0  0  0  0
  -28.1080  -29.0696   21.1561 H   0  0  0  0  0  0
  -25.9937  -25.9781   18.9882 H   0  0  0  0  0  0
  -23.9634  -27.3104   19.0328 H   0  0  0  0  0  0
  -23.7295  -30.6075   19.4090 H   0  0  0  0  0  0
  -22.7379  -29.2549   19.8666 H   0  0  0  0  0  0
  -25.1285  -36.1978   25.0833 H   0  0  0  0  0  0
  -20.9964  -28.3240   24.1428 H   0  0  0  0  0  0
  -20.5694  -26.2283   23.3595 H   0  0  0  0  0  0
  -21.6648  -26.7465   22.1193 H   0  0  0  0  0  0
  -19.6918  -25.6300   21.1234 H   0  0  0  0  0  0
  -19.6686  -27.3203   20.6745 H   0  0  0  0  0  0
  -17.4200  -26.6672   21.4027 H   0  0  0  0  0  0
  -18.0335  -26.0061   22.9017 H   0  0  0  0  0  0
  -19.7929  -30.7257   24.2289 H   0  0  0  0  0  0
  -17.5012  -31.6267   24.5163 H   0  0  0  0  0  0
  -15.5351  -30.2994   23.7640 H   0  0  0  0  0  0
  -15.8667  -28.0821   22.7066 H   0  0  0  0  0  0
  -24.5918  -30.7044   25.7803 H   0  0  0  0  0  0
  -24.8932  -32.2850   26.4927 H   0  0  0  0  0  0
  -25.8090  -30.8857   27.0228 H   0  0  0  0  0  0
  -26.2872  -29.6794   24.1158 H   0  0  0  0  0  0
  -27.4073  -29.7266   25.4582 H   0  0  0  0  0  0
  -27.8715  -30.4352   23.9289 H   0  0  0  0  0  0
  -27.2693  -33.3597   26.2098 H   0  0  0  0  0  0
  -28.3859  -32.6875   25.0306 H   0  0  0  0  0  0
  -28.0750  -31.8409   26.5381 H   0  0  0  0  0  0
  -28.2610  -38.0098   24.7510 H   0  0  0  0  0  0
  -28.1064  -36.2631   24.6302 H   0  0  0  0  0  0
  -27.2298  -37.1474   25.8871 H   0  0  0  0  0  0
  -20.9310  -29.8791   21.6957 H   0  0  0  0  0  0
  -26.0186  -38.2874   24.1407 H   0  0  0  0  0  0
  -30.2622  -16.4834   18.8242 H   0  0  0  0  0  0
  -29.5595  -17.6667   22.9379 H   0  0  0  0  0  0
  -29.9821  -18.8087   18.1421 H   0  0  0  0  0  0
  -29.2736  -19.9596   22.2314 H   0  0  0  0  0  0
  -30.9580  -15.8029   23.3419 H   0  0  0  0  0  0
  -30.4023  -14.1588   23.1103 H   0  0  0  0  0  0
  -29.2238  -15.4416   23.3036 H   0  0  0  0  0  0
  -29.0175  -23.1178   22.0291 H   0  0  0  0  0  0
  -30.4587  -22.6231   21.2167 H   0  0  0  0  0  0
  -29.9161  -24.2924   19.3421 H   0  0  0  0  0  0
  -30.2516  -24.9756   20.9037 H   0  0  0  0  0  0
  -27.9897  -22.2948   19.5766 H   0  0  0  0  0  0
  -27.9793  -21.3632   21.0265 H   0  0  0  0  0  0
  -27.6689  -25.0686   21.2704 H   0  0  0  0  0  0
  -27.5733  -24.7524   19.5505 H   0  0  0  0  0  0
  1 25  1  0  0  0
  1 30  2  0  0  0
  1 82  1  0  0  0
  2  3  1  0  0  0
  2 25  1  0  0  0
  2 84  1  0  0  0
  2 85  1  0  0  0
  3  4  1  0  0  0
  3 86  1  0  0  0
  3 87  1  0  0  0
  4  5  1  0  0  0
  4 88  1  0  0  0
  4 89  1  0  0  0
  5  6  1  0  0  0
  5 26  1  0  0  0
  5 90  1  0  0  0
  6 25  1  0  0  0
  6 91  1  0  0  0
  6 92  1  0  0  0
  7  8  2  0  0  0
  7 26  1  0  0  0
  7 29  1  0  0  0
  8  9  1  0  0  0
  8 22  1  0  0  0
  9 10  1  0  0  0
  9 27  2  0  0  0
 10 11  2  0  0  0
 10 15  1  0  0  0
 11 12  1  0  0  0
 11 93  1  0  0  0
 12 13  2  0  0  0
 12 94  1  0  0  0
 13 14  1  0  0  0
 13 31  1  0  0  0
 14 15  2  0  0  0
 14 95  1  0  0  0
 15 96  1  0  0  0
 16 17  2  0  0  0
 16 21  1  0  0  0
 16 31  1  0  0  0
 17 18  1  0  0  0
 17 97  1  0  0  0
 18 19  2  0  0  0
 18 98  1  0  0  0
 19 20  1  0  0  0
 19 24  1  0  0  0
 20 21  2  0  0  0
 20 99  1  0  0  0
 21 23  1  0  0  0
 22 28  1  0  0  0
 22 32  2  0  0  0
 26 27  1  0  0  0
 28100  1  0  0  0
 28101  1  0  0  0
 29102  1  0  0  0
 29103  1  0  0  0
 33 34  1  0  0  0
 33 66  1  0  0  0
 33 70  2  0  0  0
 34 36  1  0  0  0
 34 59  1  0  0  0
 34104  1  0  0  0
 35 44  2  0  0  0
 35 45  1  0  0  0
 35 68  1  0  0  0
 36 56  1  0  0  0
 36105  1  0  0  0
 37 39  1  0  0  0
 37 47  1  0  0  0
 37 66  1  0  0  0
 37106  1  0  0  0
 38 43  2  0  0  0
 38 46  1  0  0  0
 38 47  1  0  0  0
 39 64  1  0  0  0
 39 67  2  0  0  0
 40 52  1  0  0  0
 40 53  2  0  0  0
 40 58  1  0  0  0
 41107  1  0  0  0
 41108  1  0  0  0
 41109  1  0  0  0
 41 48  1  0  0  0
 42 43  1  0  0  0
 42 66  1  0  0  0
 42110  1  0  0  0
 42111  1  0  0  0
 43 44  1  0  0  0
 44112  1  0  0  0
 45 46  2  0  0  0
 45113  1  0  0  0
 46114  1  0  0  0
 47115  1  0  0  0
 47116  1  0  0  0
 48 56  1  0  0  0
 48 65  1  0  0  0
 48117  1  0  0  0
 49 50  1  0  0  0
 49 53  1  0  0  0
 49 64  1  0  0  0
 49118  1  0  0  0
 50 51  1  0  0  0
 50119  1  0  0  0
 50120  1  0  0  0
 51 52  1  0  0  0
 51121  1  0  0  0
 51122  1  0  0  0
 52123  1  0  0  0
 52124  1  0  0  0
 53 54  1  0  0  0
 54 55  2  0  0  0
 54125  1  0  0  0
 55 57  1  0  0  0
 55126  1  0  0  0
 56 69  2  0  0  0
 57 58  2  0  0  0
 57127  1  0  0  0
 58128  1  0  0  0
 59 60  1  0  0  0
 59 61  1  0  0  0
 59 62  1  0  0  0
 60129  1  0  0  0
 60130  1  0  0  0
 60131  1  0  0  0
 61132  1  0  0  0
 61133  1  0  0  0
 61134  1  0  0  0
 62135  1  0  0  0
 62136  1  0  0  0
 62137  1  0  0  0
 63 65  1  0  0  0
 63138  1  0  0  0
 63139  1  0  0  0
 63140  1  0  0  0
 64141  1  0  0  0
 65142  1  0  0  0
 68 81  1  0  0  0
 71 73  2  0  0  0
 71 75  1  0  0  0
 71143  1  0  0  0
 72 74  1  0  0  0
 72 75  2  0  0  0
 72144  1  0  0  0
 73 76  1  0  0  0
 73145  1  0  0  0
 74 76  2  0  0  0
 74146  1  0  0  0
 75 82  1  0  0  0
 76 83  1  0  0  0
 77 82  1  0  0  0
 77147  1  0  0  0
 77148  1  0  0  0
 77149  1  0  0  0
 78 79  1  0  0  0
 78 80  1  0  0  0
 78150  1  0  0  0
 78151  1  0  0  0
 79 81  1  0  0  0
 79152  1  0  0  0
 79153  1  0  0  0
 80 83  1  0  0  0
 80154  1  0  0  0
 80155  1  0  0  0
 81156  1  0  0  0
 81157  1  0  0  0
M  ISO  4   1 100  68 101  81 101  82 100
M  END
> <chiral flag>
0

> <version>
0

> <s_m_source_file>
/data/baiqing/PycharmProjects/Reinvent-master-3.2/result/LINK_invent/BTK/process_docking_weight1_custom_sum_contain_oxygen_bond_distance_aromatic_linkinvent_7_9_3/rearranged_h_0007.sdf

> <i_m_source_file_index>
35

> <r_mmod_Potential_Energy-OPLS-2005>
143.219436645508

> <r_mmod_Stretch_Energy-OPLS-2005>
51.2692184448242

> <r_mmod_Bend_Energy-OPLS-2005>
116.474800109863

> <r_mmod_Torsional_Energy-OPLS-2005>
296.698486328125

> <r_mmod_Improper_Torsional_Energy-OPLS-2005>
2.72839665412903

> <r_mmod_Van_der_Waal_Energy-OPLS-2005>
163.067306518555

> <r_mmod_Electrostatic_Energy-OPLS-2005>
-309.69091796875

> <r_mmod_Solvation_Energy-OPLS-2005>
-193.107345581055

> <b_mmod_Minimization_Converged-OPLS-2005>
0

> <r_mmod_RMS_Derivative-OPLS-2005>
0.626895487308502

$$$$
35
                    3D
 Structure written by MMmdl.
166174  0  0  1  0            999 V2000
  -30.7762  -14.3049   20.7744 C   0  0  0  0  0  0
  -30.4305  -12.3056   19.3510 C   0  0  0  0  0  0
  -29.4725  -12.5459   18.1717 C   0  0  0  0  0  0
  -27.9977  -12.4025   18.5958 C   0  0  0  0  0  0
  -27.6664  -13.2002   19.8812 C   0  0  2  0  0  0
  -28.7029  -12.8845   20.9752 C   0  0  0  0  0  0
  -25.2583  -13.8169   20.5665 C   0  0  0  0  0  0
  -24.1835  -13.0449   20.9146 C   0  0  0  0  0  0
  -24.6395  -11.6914   20.8743 C   0  0  0  0  0  0
  -23.9080  -10.4294   21.0423 C   0  0  0  0  0  0
  -24.3635   -9.4198   21.9193 C   0  0  0  0  0  0
  -23.6305   -8.2240   22.0760 C   0  0  0  0  0  0
  -22.4283   -8.0287   21.3561 C   0  0  0  0  0  0
  -21.9927   -9.0263   20.4655 C   0  0  0  0  0  0
  -22.7260  -10.2134   20.3061 C   0  0  0  0  0  0
  -21.6848   -6.0742   22.5288 C   0  0  0  0  0  0
  -21.4009   -6.5647   23.8220 C   0  0  0  0  0  0
  -21.3662   -5.6801   24.9183 C   0  0  0  0  0  0
  -21.6048   -4.3067   24.7229 C   0  0  0  0  0  0
  -21.8815   -3.8157   23.4350 C   0  0  0  0  0  0
  -21.9186   -4.6973   22.3403 C   0  0  0  0  0  0
  -22.7854  -13.5224   21.1853 C   0  0  0  0  0  0
  -22.1656   -4.2167   21.0977 F   0  0  0  0  0  0
  -21.5635   -3.4539   25.7737 F   0  0  0  0  0  0
  -30.0530  -13.2002   20.4540 N   0  0  0  0  0  0
  -26.3037  -12.9340   20.3392 N   0  0  0  0  0  0
  -25.9313  -11.6509   20.5757 N   0  0  0  0  0  0
  -22.0506  -12.8208   22.0402 N   0  0  0  0  0  0
  -25.4296  -15.1884   20.4067 N   0  0  0  0  0  0
  -31.7384  -14.7104   20.1148 O   0  0  0  0  0  0
  -21.6644   -6.8889   21.4253 O   0  0  0  0  0  0
  -22.3519  -14.5532   20.6704 O   0  0  0  0  0  0
  -24.6094  -31.8712   23.2166 C   0  0  0  0  0  0
  -25.9014  -32.4839   23.8428 C   0  0  1  0  0  0
  -27.2246  -27.4618   20.0894 C   0  0  0  0  0  0
  -25.5911  -33.8639   24.2372 N   0  0  0  0  0  0
  -23.3931  -30.4990   21.5546 C   0  0  2  0  0  0
  -24.8395  -28.9772   20.1086 C   0  0  0  0  0  0
  -22.7368  -29.4655   22.4993 C   0  0  0  0  0  0
  -18.0243  -28.1373   22.8514 C   0  0  0  0  0  0
  -24.1463  -36.7272   23.2635 C   0  0  0  0  0  0
  -25.9225  -30.8406   21.3712 C   0  0  0  0  0  0
  -25.9964  -29.4809   20.7158 C   0  0  0  0  0  0
  -27.1900  -28.7285   20.7084 C   0  0  0  0  0  0
  -26.0566  -26.9804   19.4523 C   0  0  0  0  0  0
  -24.8646  -27.7267   19.4707 C   0  0  0  0  0  0
  -23.5980  -29.8371   20.1653 C   0  0  0  0  0  0
  -25.4087  -36.3112   24.0352 C   0  0  1  0  0  0
  -20.5840  -28.3613   23.1324 C   0  0  2  0  0  0
  -20.6714  -26.9348   22.5410 C   0  0  0  0  0  0
  -19.5675  -26.6373   21.5214 C   0  0  0  0  0  0
  -18.1863  -26.7922   22.1652 C   0  0  0  0  0  0
  -19.1513  -28.8804   23.2941 C   0  0  0  0  0  0
  -18.9461  -30.1413   23.8954 C   0  0  0  0  0  0
  -17.6474  -30.6599   24.0568 C   0  0  0  0  0  0
  -25.9022  -34.9492   23.5149 C   0  0  0  0  0  0
  -16.5348  -29.9127   23.6315 C   0  0  0  0  0  0
  -16.7244  -28.6525   23.0369 C   0  0  0  0  0  0
  -26.4471  -31.6599   25.0734 C   0  0  0  0  0  0
  -25.3770  -31.3706   26.1507 C   0  0  0  0  0  0
  -27.0287  -30.3044   24.6089 C   0  0  0  0  0  0
  -27.6057  -32.4292   25.7509 C   0  0  0  0  0  0
  -27.5564  -37.1786   24.8495 C   0  0  0  0  0  0
  -21.4098  -29.3012   22.3759 N   0  0  0  0  0  0
  -26.4276  -37.3807   23.9446 N   0  0  0  0  0  0
  -24.6590  -31.0850   22.1048 N   0  0  0  0  0  0
  -23.4169  -28.8123   23.2948 O   0  0  0  0  0  0
  -28.4023  -26.7483   20.1151 O   0  0  0  0  0  0
  -26.5599  -34.8961   22.4711 O   0  0  0  0  0  0
  -23.5307  -32.1426   23.7605 O   0  0  0  0  0  0
  -30.0904  -16.0835   23.9397 C   0  0  0  0  0  0
  -30.4086  -17.1175   24.8293 C   0  0  0  0  0  0
  -31.8961  -16.7791   22.4568 C   0  0  0  0  0  0
  -30.8201  -15.9052   22.7490 C   0  0  0  0  0  0
  -32.2083  -17.8308   23.3484 C   0  0  0  0  0  0
  -31.4579  -18.0162   24.5353 C   0  0  0  0  0  0
  -29.2243  -21.7454   23.2632 C   0  0  0  0  0  0
  -30.2085  -21.3092   24.3392 C   0  0  0  0  0  0
  -29.6377  -20.2667   25.3177 C   0  0  0  0  0  0
  -29.1567  -24.7172   21.1917 C   0  0  0  0  0  0
  -28.9277  -23.2033   21.2853 C   0  0  0  0  0  0
  -30.7478  -19.6391   26.1786 C   0  0  0  0  0  0
  -28.3127  -25.3244   20.0693 C   0  0  0  0  0  0
  -33.2581  -18.7032   23.0547 N   0  0  0  0  0  0
  -30.3819  -14.8243   21.9478 N   0  0  0  0  0  0
  -29.6954  -22.6283   22.3786 N   0  0  0  0  0  0
  -28.0775  -21.2960   23.2256 O   0  0  0  0  0  0
  -31.7805  -19.0714   25.3639 O   0  0  0  0  0  0
  -31.4608  -12.4629   19.0251 H   0  0  0  0  0  0
  -30.3837  -11.2669   19.6832 H   0  0  0  0  0  0
  -29.6936  -11.8532   17.3579 H   0  0  0  0  0  0
  -29.6403  -13.5481   17.7774 H   0  0  0  0  0  0
  -27.7872  -11.3427   18.7521 H   0  0  0  0  0  0
  -27.3462  -12.7254   17.7829 H   0  0  0  0  0  0
  -27.7431  -14.2619   19.6441 H   0  0  0  0  0  0
  -28.6612  -11.8249   21.2330 H   0  0  0  0  0  0
  -28.4250  -13.4060   21.8913 H   0  0  0  0  0  0
  -25.2782   -9.5664   22.4758 H   0  0  0  0  0  0
  -24.0015   -7.4625   22.7468 H   0  0  0  0  0  0
  -21.0868   -8.8800   19.8945 H   0  0  0  0  0  0
  -22.3753  -10.9686   19.6165 H   0  0  0  0  0  0
  -21.1998   -7.6152   23.9733 H   0  0  0  0  0  0
  -21.1494   -6.0526   25.9091 H   0  0  0  0  0  0
  -22.0589   -2.7618   23.2844 H   0  0  0  0  0  0
  -22.4126  -11.9856   22.4767 H   0  0  0  0  0  0
  -21.1133  -13.1250   22.2650 H   0  0  0  0  0  0
  -24.6676  -15.8474   20.5187 H   0  0  0  0  0  0
  -26.2948  -15.6333   20.1275 H   0  0  0  0  0  0
  -26.7077  -32.5569   23.1190 H   0  0  0  0  0  0
  -25.0107  -33.9804   25.0555 H   0  0  0  0  0  0
  -22.6803  -31.3151   21.4233 H   0  0  0  0  0  0
  -23.3772  -35.9564   23.3328 H   0  0  0  0  0  0
  -24.3531  -36.8837   22.2038 H   0  0  0  0  0  0
  -23.7185  -37.6473   23.6605 H   0  0  0  0  0  0
  -26.0449  -31.6042   20.6017 H   0  0  0  0  0  0
  -26.8061  -30.8855   21.9945 H   0  0  0  0  0  0
  -28.0791  -29.1110   21.1903 H   0  0  0  0  0  0
  -26.0501  -26.0399   18.9201 H   0  0  0  0  0  0
  -23.9824  -27.3466   18.9739 H   0  0  0  0  0  0
  -23.6984  -30.6123   19.4056 H   0  0  0  0  0  0
  -22.7255  -29.2481   19.8724 H   0  0  0  0  0  0
  -25.1258  -36.1964   25.0847 H   0  0  0  0  0  0
  -20.9975  -28.3171   24.1428 H   0  0  0  0  0  0
  -20.5586  -26.2209   23.3587 H   0  0  0  0  0  0
  -21.6576  -26.7360   22.1206 H   0  0  0  0  0  0
  -19.6806  -25.6303   21.1183 H   0  0  0  0  0  0
  -19.6622  -27.3253   20.6803 H   0  0  0  0  0  0
  -17.4119  -26.6680   21.4072 H   0  0  0  0  0  0
  -18.0266  -26.0064   22.9049 H   0  0  0  0  0  0
  -19.7944  -30.7180   24.2378 H   0  0  0  0  0  0
  -17.5058  -31.6292   24.5143 H   0  0  0  0  0  0
  -15.5366  -30.3083   23.7597 H   0  0  0  0  0  0
  -15.8625  -28.0868   22.7090 H   0  0  0  0  0  0
  -24.5962  -30.7014   25.7894 H   0  0  0  0  0  0
  -24.8946  -32.2854   26.4935 H   0  0  0  0  0  0
  -25.8150  -30.8916   27.0274 H   0  0  0  0  0  0
  -26.2812  -29.6842   24.1122 H   0  0  0  0  0  0
  -27.4050  -29.7230   25.4516 H   0  0  0  0  0  0
  -27.8656  -30.4363   23.9234 H   0  0  0  0  0  0
  -27.2676  -33.3580   26.2115 H   0  0  0  0  0  0
  -28.3859  -32.6853   25.0337 H   0  0  0  0  0  0
  -28.0721  -31.8385   26.5406 H   0  0  0  0  0  0
  -28.2625  -38.0049   24.7540 H   0  0  0  0  0  0
  -28.1008  -36.2584   24.6302 H   0  0  0  0  0  0
  -27.2276  -37.1428   25.8903 H   0  0  0  0  0  0
  -20.9218  -29.8825   21.7086 H   0  0  0  0  0  0
  -26.0165  -38.2880   24.1488 H   0  0  0  0  0  0
  -29.2674  -15.4267   24.1853 H   0  0  0  0  0  0
  -29.8217  -17.2043   25.7310 H   0  0  0  0  0  0
  -32.4793  -16.6578   21.5555 H   0  0  0  0  0  0
  -31.0706  -20.8979   23.8126 H   0  0  0  0  0  0
  -30.5593  -22.1807   24.8945 H   0  0  0  0  0  0
  -29.1021  -19.4934   24.7630 H   0  0  0  0  0  0
  -28.8909  -20.7376   25.9594 H   0  0  0  0  0  0
  -30.2089  -24.9482   21.0284 H   0  0  0  0  0  0
  -28.8721  -25.1776   22.1393 H   0  0  0  0  0  0
  -29.2064  -22.7050   20.3579 H   0  0  0  0  0  0
  -27.8585  -23.0253   21.4236 H   0  0  0  0  0  0
  -30.3403  -18.9148   26.8829 H   0  0  0  0  0  0
  -31.1924  -20.4194   26.7990 H   0  0  0  0  0  0
  -28.6558  -24.9700   19.0983 H   0  0  0  0  0  0
  -27.3009  -24.9460   20.2127 H   0  0  0  0  0  0
  -33.6065  -19.2711   23.8210 H   0  0  0  0  0  0
  -33.9917  -18.3836   22.4308 H   0  0  0  0  0  0
  -29.5893  -14.3291   22.3229 H   0  0  0  0  0  0
  -30.6587  -22.9235   22.4755 H   0  0  0  0  0  0
  1 25  1  0  0  0
  1 30  2  0  0  0
  1 85  1  0  0  0
  2  3  1  0  0  0
  2 25  1  0  0  0
  2 89  1  0  0  0
  2 90  1  0  0  0
  3  4  1  0  0  0
  3 91  1  0  0  0
  3 92  1  0  0  0
  4  5  1  0  0  0
  4 93  1  0  0  0
  4 94  1  0  0  0
  5  6  1  0  0  0
  5 26  1  0  0  0
  5 95  1  0  0  0
  6 25  1  0  0  0
  6 96  1  0  0  0
  6 97  1  0  0  0
  7  8  2  0  0  0
  7 26  1  0  0  0
  7 29  1  0  0  0
  8  9  1  0  0  0
  8 22  1  0  0  0
  9 10  1  0  0  0
  9 27  2  0  0  0
 10 11  2  0  0  0
 10 15  1  0  0  0
 11 12  1  0  0  0
 11 98  1  0  0  0
 12 13  2  0  0  0
 12 99  1  0  0  0
 13 14  1  0  0  0
 13 31  1  0  0  0
 14 15  2  0  0  0
 14100  1  0  0  0
 15101  1  0  0  0
 16 17  2  0  0  0
 16 21  1  0  0  0
 16 31  1  0  0  0
 17 18  1  0  0  0
 17102  1  0  0  0
 18 19  2  0  0  0
 18103  1  0  0  0
 19 20  1  0  0  0
 19 24  1  0  0  0
 20 21  2  0  0  0
 20104  1  0  0  0
 21 23  1  0  0  0
 22 28  1  0  0  0
 22 32  2  0  0  0
 26 27  1  0  0  0
 28105  1  0  0  0
 28106  1  0  0  0
 29107  1  0  0  0
 29108  1  0  0  0
 33 34  1  0  0  0
 33 66  1  0  0  0
 33 70  2  0  0  0
 34 36  1  0  0  0
 34 59  1  0  0  0
 34109  1  0  0  0
 35 44  2  0  0  0
 35 45  1  0  0  0
 35 68  1  0  0  0
 36 56  1  0  0  0
 36110  1  0  0  0
 37 39  1  0  0  0
 37 47  1  0  0  0
 37 66  1  0  0  0
 37111  1  0  0  0
 38 43  2  0  0  0
 38 46  1  0  0  0
 38 47  1  0  0  0
 39 64  1  0  0  0
 39 67  2  0  0  0
 40 52  1  0  0  0
 40 53  2  0  0  0
 40 58  1  0  0  0
 41112  1  0  0  0
 41113  1  0  0  0
 41114  1  0  0  0
 41 48  1  0  0  0
 42 43  1  0  0  0
 42 66  1  0  0  0
 42115  1  0  0  0
 42116  1  0  0  0
 43 44  1  0  0  0
 44117  1  0  0  0
 45 46  2  0  0  0
 45118  1  0  0  0
 46119  1  0  0  0
 47120  1  0  0  0
 47121  1  0  0  0
 48 56  1  0  0  0
 48 65  1  0  0  0
 48122  1  0  0  0
 49 50  1  0  0  0
 49 53  1  0  0  0
 49 64  1  0  0  0
 49123  1  0  0  0
 50 51  1  0  0  0
 50124  1  0  0  0
 50125  1  0  0  0
 51 52  1  0  0  0
 51126  1  0  0  0
 51127  1  0  0  0
 52128  1  0  0  0
 52129  1  0  0  0
 53 54  1  0  0  0
 54 55  2  0  0  0
 54130  1  0  0  0
 55 57  1  0  0  0
 55131  1  0  0  0
 56 69  2  0  0  0
 57 58  2  0  0  0
 57132  1  0  0  0
 58133  1  0  0  0
 59 60  1  0  0  0
 59 61  1  0  0  0
 59 62  1  0  0  0
 60134  1  0  0  0
 60135  1  0  0  0
 60136  1  0  0  0
 61137  1  0  0  0
 61138  1  0  0  0
 61139  1  0  0  0
 62140  1  0  0  0
 62141  1  0  0  0
 62142  1  0  0  0
 63 65  1  0  0  0
 63143  1  0  0  0
 63144  1  0  0  0
 63145  1  0  0  0
 64146  1  0  0  0
 65147  1  0  0  0
 68 83  1  0  0  0
 71 72  2  0  0  0
 71 74  1  0  0  0
 71148  1  0  0  0
 72 76  1  0  0  0
 72149  1  0  0  0
 73 74  2  0  0  0
 73 75  1  0  0  0
 73150  1  0  0  0
 74 85  1  0  0  0
 75 76  2  0  0  0
 75 84  1  0  0  0
 76 88  1  0  0  0
 77 78  1  0  0  0
 77 86  1  0  0  0
 77 87  2  0  0  0
 78 79  1  0  0  0
 78151  1  0  0  0
 78152  1  0  0  0
 79 82  1  0  0  0
 79153  1  0  0  0
 79154  1  0  0  0
 80 81  1  0  0  0
 80 83  1  0  0  0
 80155  1  0  0  0
 80156  1  0  0  0
 81 86  1  0  0  0
 81157  1  0  0  0
 81158  1  0  0  0
 82 88  1  0  0  0
 82159  1  0  0  0
 82160  1  0  0  0
 83161  1  0  0  0
 83162  1  0  0  0
 84163  1  0  0  0
 84164  1  0  0  0
 85165  1  0  0  0
 86166  1  0  0  0
M  ISO  4   1 100  68 101  83 101  85 100
M  END
> <chiral flag>
0

> <version>
0

> <s_m_source_file>
/data/baiqing/PycharmProjects/Reinvent-master-3.2/result/LINK_invent/BTK/process_docking_weight1_custom_sum_contain_oxygen_bond_distance_aromatic_linkinvent_7_9_3/rearranged_h_0007.sdf

> <i_m_source_file_index>
36

> <r_mmod_Potential_Energy-OPLS-2005>
-164.680068969727

> <r_mmod_Stretch_Energy-OPLS-2005>
33.233024597168

> <r_mmod_Bend_Energy-OPLS-2005>
118.188613891602

> <r_mmod_Torsional_Energy-OPLS-2005>
210.585037231445

> <r_mmod_Improper_Torsional_Energy-OPLS-2005>
5.54648447036743

> <r_mmod_Van_der_Waal_Energy-OPLS-2005>
174.608932495117

> <r_mmod_Electrostatic_Energy-OPLS-2005>
-469.765747070312

> <r_mmod_Solvation_Energy-OPLS-2005>
-248.413818359375

> <b_mmod_Minimization_Converged-OPLS-2005>
0

> <r_mmod_RMS_Derivative-OPLS-2005>
4.2241849899292

$$$$
36
                    3D
 Structure written by MMmdl.
179187  0  0  1  0            999 V2000
  -30.6977  -14.4660   20.5416 C   0  0  0  0  0  0
  -30.4228  -12.2858   19.4515 C   0  0  0  0  0  0
  -29.5088  -12.4869   18.2230 C   0  0  0  0  0  0
  -28.0258  -12.3540   18.6238 C   0  0  0  0  0  0
  -27.6592  -13.2050   19.8719 C   0  0  2  0  0  0
  -28.6949  -13.0050   21.0032 C   0  0  0  0  0  0
  -25.2551  -13.8136   20.5643 C   0  0  0  0  0  0
  -24.1807  -13.0449   20.9180 C   0  0  0  0  0  0
  -24.6357  -11.6898   20.8716 C   0  0  0  0  0  0
  -23.9033  -10.4304   21.0408 C   0  0  0  0  0  0
  -24.3600   -9.4212   21.9178 C   0  0  0  0  0  0
  -23.6284   -8.2246   22.0744 C   0  0  0  0  0  0
  -22.4256   -8.0274   21.3554 C   0  0  0  0  0  0
  -21.9911   -9.0249   20.4643 C   0  0  0  0  0  0
  -22.7222  -10.2133   20.3055 C   0  0  0  0  0  0
  -21.6847   -6.0720   22.5273 C   0  0  0  0  0  0
  -21.4016   -6.5620   23.8210 C   0  0  0  0  0  0
  -21.3674   -5.6759   24.9177 C   0  0  0  0  0  0
  -21.6051   -4.3027   24.7215 C   0  0  0  0  0  0
  -21.8814   -3.8128   23.4332 C   0  0  0  0  0  0
  -21.9193   -4.6952   22.3394 C   0  0  0  0  0  0
  -22.7823  -13.5237   21.1849 C   0  0  0  0  0  0
  -22.1652   -4.2146   21.0973 F   0  0  0  0  0  0
  -21.5650   -3.4503   25.7733 F   0  0  0  0  0  0
  -30.0333  -13.2836   20.4561 N   0  0  0  0  0  0
  -26.2988  -12.9317   20.3307 N   0  0  0  0  0  0
  -25.9286  -11.6484   20.5724 N   0  0  0  0  0  0
  -22.0446  -12.8272   22.0405 N   0  0  0  0  0  0
  -25.4264  -15.1854   20.3969 N   0  0  0  0  0  0
  -31.8619  -14.6197   20.1654 O   0  0  0  0  0  0
  -21.6621   -6.8870   21.4242 O   0  0  0  0  0  0
  -22.3530  -14.5559   20.6680 O   0  0  0  0  0  0
  -24.6138  -31.8634   23.2133 C   0  0  0  0  0  0
  -25.9035  -32.4829   23.8419 C   0  0  1  0  0  0
  -27.2489  -27.4737   20.0780 C   0  0  0  0  0  0
  -25.5879  -33.8612   24.2366 N   0  0  0  0  0  0
  -23.4027  -30.4893   21.5458 C   0  0  2  0  0  0
  -24.8550  -28.9584   20.1249 C   0  0  0  0  0  0
  -22.7396  -29.4606   22.4924 C   0  0  0  0  0  0
  -18.0294  -28.1435   22.8414 C   0  0  0  0  0  0
  -24.1481  -36.7317   23.2628 C   0  0  0  0  0  0
  -25.9271  -30.8523   21.3543 C   0  0  0  0  0  0
  -26.0134  -29.4857   20.7056 C   0  0  0  0  0  0
  -27.2155  -28.7478   20.6823 C   0  0  0  0  0  0
  -26.0712  -26.9469   19.5060 C   0  0  0  0  0  0
  -24.8716  -27.6815   19.5378 C   0  0  0  0  0  0
  -23.6213  -29.8235   20.1620 C   0  0  0  0  0  0
  -25.4093  -36.3109   24.0355 C   0  0  1  0  0  0
  -20.5876  -28.3640   23.1386 C   0  0  2  0  0  0
  -20.6643  -26.9276   22.5758 C   0  0  0  0  0  0
  -19.5875  -26.6357   21.5264 C   0  0  0  0  0  0
  -18.1902  -26.8086   22.1279 C   0  0  0  0  0  0
  -19.1544  -28.8821   23.2960 C   0  0  0  0  0  0
  -18.9464  -30.1356   23.9089 C   0  0  0  0  0  0
  -17.6475  -30.6523   24.0716 C   0  0  0  0  0  0
  -25.9005  -34.9467   23.5149 C   0  0  0  0  0  0
  -16.5368  -29.9081   23.6407 C   0  0  0  0  0  0
  -16.7286  -28.6564   23.0316 C   0  0  0  0  0  0
  -26.4526  -31.6593   25.0722 C   0  0  0  0  0  0
  -25.3890  -31.3618   26.1538 C   0  0  0  0  0  0
  -27.0314  -30.3038   24.6016 C   0  0  0  0  0  0
  -27.6073  -32.4325   25.7504 C   0  0  0  0  0  0
  -27.5578  -37.1804   24.8459 C   0  0  0  0  0  0
  -21.4123  -29.2931   22.3665 N   0  0  0  0  0  0
  -26.4278  -37.3803   23.9418 N   0  0  0  0  0  0
  -24.6652  -31.0809   22.0983 N   0  0  0  0  0  0
  -23.4144  -28.8172   23.3013 O   0  0  0  0  0  0
  -28.4390  -26.7882   20.0407 O   0  0  0  0  0  0
  -26.5528  -34.8912   22.4682 O   0  0  0  0  0  0
  -23.5326  -32.1319   23.7564 O   0  0  0  0  0  0
  -30.0927  -16.2000   23.0275 C   0  0  0  0  0  0
  -29.6338  -17.0223   24.0816 C   0  0  0  0  0  0
  -28.2631  -17.0054   21.6303 C   0  0  0  0  0  0
  -29.4166  -16.2068   21.7857 C   0  0  0  0  0  0
  -28.4871  -17.8376   23.9156 C   0  0  0  0  0  0
  -27.7932  -17.8012   22.6890 C   0  0  0  0  0  0
  -26.8122  -25.0122   22.3702 C   0  0  0  0  0  0
  -26.9597  -22.6320   21.5974 C   0  0  0  0  0  0
  -28.2645  -25.2650   21.9382 C   0  0  0  0  0  0
  -25.2796  -22.9924   26.2644 C   0  0  0  0  0  0
  -26.7876  -22.6748   26.1840 C   0  0  0  0  0  0
  -24.7443  -23.6990   25.0098 C   0  0  0  0  0  0
  -27.0978  -21.1678   26.1240 C   0  0  0  0  0  0
  -24.6171  -22.7850   23.7775 C   0  0  0  0  0  0
  -28.5468  -20.8796   25.6962 C   0  0  0  0  0  0
  -24.8346  -23.5189   22.4407 C   0  0  0  0  0  0
  -28.4192  -25.4112   20.4106 C   0  0  0  0  0  0
  -28.9231  -19.3865   25.7032 C   0  0  0  0  0  0
  -29.9096  -15.5478   20.6294 N   0  0  0  0  0  0
  -26.2597  -23.7860   22.1805 N   0  0  0  0  0  0
  -26.1909  -25.9501   22.8756 O   0  0  0  0  0  0
  -27.9929  -18.6679   24.8980 O   0  0  0  0  0  0
  -26.6885  -18.5669   22.5154 F   0  0  0  0  0  0
  -31.4750  -12.3649   19.1695 H   0  0  0  0  0  0
  -30.3054  -11.2839   19.8705 H   0  0  0  0  0  0
  -29.7619  -11.7579   17.4518 H   0  0  0  0  0  0
  -29.6836  -13.4690   17.7839 H   0  0  0  0  0  0
  -27.8368  -11.3011   18.8352 H   0  0  0  0  0  0
  -27.3852  -12.6164   17.7796 H   0  0  0  0  0  0
  -27.7002  -14.2498   19.5614 H   0  0  0  0  0  0
  -28.6592  -11.9821   21.3828 H   0  0  0  0  0  0
  -28.4618  -13.6448   21.8554 H   0  0  0  0  0  0
  -25.2760   -9.5670   22.4735 H   0  0  0  0  0  0
  -23.9991   -7.4629   22.7460 H   0  0  0  0  0  0
  -21.0843   -8.8761   19.8941 H   0  0  0  0  0  0
  -22.3691  -10.9661   19.6147 H   0  0  0  0  0  0
  -21.1995   -7.6122   23.9724 H   0  0  0  0  0  0
  -21.1516   -6.0486   25.9084 H   0  0  0  0  0  0
  -22.0590   -2.7593   23.2823 H   0  0  0  0  0  0
  -22.4024  -11.9933   22.4831 H   0  0  0  0  0  0
  -21.1063  -13.1328   22.2560 H   0  0  0  0  0  0
  -24.6619  -15.8444   20.5025 H   0  0  0  0  0  0
  -26.2706  -15.6068   20.0349 H   0  0  0  0  0  0
  -26.7110  -32.5614   23.1187 H   0  0  0  0  0  0
  -25.0202  -33.9792   25.0636 H   0  0  0  0  0  0
  -22.6918  -31.3052   21.4026 H   0  0  0  0  0  0
  -23.3746  -35.9649   23.3286 H   0  0  0  0  0  0
  -24.3581  -36.8930   22.2043 H   0  0  0  0  0  0
  -23.7243  -37.6530   23.6641 H   0  0  0  0  0  0
  -26.0215  -31.6217   20.5877 H   0  0  0  0  0  0
  -26.8187  -30.9190   21.9658 H   0  0  0  0  0  0
  -28.1130  -29.1459   21.1349 H   0  0  0  0  0  0
  -26.0667  -25.9805   19.0268 H   0  0  0  0  0  0
  -23.9757  -27.2574   19.1088 H   0  0  0  0  0  0
  -23.7494  -30.6004   19.4054 H   0  0  0  0  0  0
  -22.7542  -29.2434   19.8443 H   0  0  0  0  0  0
  -25.1269  -36.1956   25.0858 H   0  0  0  0  0  0
  -21.0045  -28.3307   24.1481 H   0  0  0  0  0  0
  -20.4969  -26.2412   23.4073 H   0  0  0  0  0  0
  -21.6641  -26.6978   22.2067 H   0  0  0  0  0  0
  -19.6988  -25.6257   21.1332 H   0  0  0  0  0  0
  -19.7195  -27.3144   20.6833 H   0  0  0  0  0  0
  -17.4418  -26.7206   21.3381 H   0  0  0  0  0  0
  -17.9864  -26.0073   22.8376 H   0  0  0  0  0  0
  -19.7898  -30.7119   24.2656 H   0  0  0  0  0  0
  -17.5036  -31.6126   24.5480 H   0  0  0  0  0  0
  -15.5379  -30.3013   23.7757 H   0  0  0  0  0  0
  -15.8702  -28.0923   22.6921 H   0  0  0  0  0  0
  -24.6081  -30.6922   25.7917 H   0  0  0  0  0  0
  -24.9099  -32.2743   26.5081 H   0  0  0  0  0  0
  -25.8382  -30.8769   27.0217 H   0  0  0  0  0  0
  -26.2765  -29.6812   24.1198 H   0  0  0  0  0  0
  -27.4227  -29.7258   25.4395 H   0  0  0  0  0  0
  -27.8558  -30.4338   23.9009 H   0  0  0  0  0  0
  -27.2637  -33.3572   26.2141 H   0  0  0  0  0  0
  -28.3878  -32.6963   25.0363 H   0  0  0  0  0  0
  -28.0758  -31.8436   26.5406 H   0  0  0  0  0  0
  -28.2581  -38.0116   24.7512 H   0  0  0  0  0  0
  -28.1087  -36.2640   24.6262 H   0  0  0  0  0  0
  -27.2297  -37.1439   25.8866 H   0  0  0  0  0  0
  -20.9259  -29.8631   21.6895 H   0  0  0  0  0  0
  -26.0161  -38.2864   24.1489 H   0  0  0  0  0  0
  -30.9877  -15.6101   23.1742 H   0  0  0  0  0  0
  -30.1808  -17.0233   25.0126 H   0  0  0  0  0  0
  -27.7373  -17.0356   20.6882 H   0  0  0  0  0  0
  -27.9844  -22.8076   21.2731 H   0  0  0  0  0  0
  -26.4213  -22.2681   20.7232 H   0  0  0  0  0  0
  -27.0063  -21.8186   22.3190 H   0  0  0  0  0  0
  -28.9048  -24.4752   22.3285 H   0  0  0  0  0  0
  -28.6297  -26.1761   22.4104 H   0  0  0  0  0  0
  -25.1182  -23.6508   27.1201 H   0  0  0  0  0  0
  -24.6975  -22.0924   26.4648 H   0  0  0  0  0  0
  -27.2896  -23.1044   27.0543 H   0  0  0  0  0  0
  -27.2284  -23.1820   25.3227 H   0  0  0  0  0  0
  -25.3867  -24.5543   24.8120 H   0  0  0  0  0  0
  -23.7597  -24.1242   25.2086 H   0  0  0  0  0  0
  -26.4226  -20.6839   25.4173 H   0  0  0  0  0  0
  -26.9035  -20.7160   27.0969 H   0  0  0  0  0  0
  -23.6202  -22.3392   23.7838 H   0  0  0  0  0  0
  -25.3067  -21.9436   23.8341 H   0  0  0  0  0  0
  -29.2365  -21.4215   26.3445 H   0  0  0  0  0  0
  -28.7017  -21.2694   24.6885 H   0  0  0  0  0  0
  -24.2383  -24.4337   22.4240 H   0  0  0  0  0  0
  -24.4299  -22.9135   21.6250 H   0  0  0  0  0  0
  -27.6735  -24.8321   19.8653 H   0  0  0  0  0  0
  -29.3697  -24.9734   20.1070 H   0  0  0  0  0  0
  -28.9083  -18.9858   26.7172 H   0  0  0  0  0  0
  -29.9466  -19.2987   25.3390 H   0  0  0  0  0  0
  -30.1685  -16.2234   19.9258 H   0  0  0  0  0  0
  1 25  1  0  0  0
  1 30  2  0  0  0
  1 89  1  0  0  0
  2  3  1  0  0  0
  2 25  1  0  0  0
  2 94  1  0  0  0
  2 95  1  0  0  0
  3  4  1  0  0  0
  3 96  1  0  0  0
  3 97  1  0  0  0
  4  5  1  0  0  0
  4 98  1  0  0  0
  4 99  1  0  0  0
  5  6  1  0  0  0
  5 26  1  0  0  0
  5100  1  0  0  0
  6 25  1  0  0  0
  6101  1  0  0  0
  6102  1  0  0  0
  7  8  2  0  0  0
  7 26  1  0  0  0
  7 29  1  0  0  0
  8  9  1  0  0  0
  8 22  1  0  0  0
  9 10  1  0  0  0
  9 27  2  0  0  0
 10 11  2  0  0  0
 10 15  1  0  0  0
 11 12  1  0  0  0
 11103  1  0  0  0
 12 13  2  0  0  0
 12104  1  0  0  0
 13 14  1  0  0  0
 13 31  1  0  0  0
 14 15  2  0  0  0
 14105  1  0  0  0
 15106  1  0  0  0
 16 17  2  0  0  0
 16 21  1  0  0  0
 16 31  1  0  0  0
 17 18  1  0  0  0
 17107  1  0  0  0
 18 19  2  0  0  0
 18108  1  0  0  0
 19 20  1  0  0  0
 19 24  1  0  0  0
 20 21  2  0  0  0
 20109  1  0  0  0
 21 23  1  0  0  0
 22 28  1  0  0  0
 22 32  2  0  0  0
 26 27  1  0  0  0
 28110  1  0  0  0
 28111  1  0  0  0
 29112  1  0  0  0
 29113  1  0  0  0
 33 34  1  0  0  0
 33 66  1  0  0  0
 33 70  2  0  0  0
 34 36  1  0  0  0
 34 59  1  0  0  0
 34114  1  0  0  0
 35 44  2  0  0  0
 35 45  1  0  0  0
 35 68  1  0  0  0
 36 56  1  0  0  0
 36115  1  0  0  0
 37 39  1  0  0  0
 37 47  1  0  0  0
 37 66  1  0  0  0
 37116  1  0  0  0
 38 43  2  0  0  0
 38 46  1  0  0  0
 38 47  1  0  0  0
 39 64  1  0  0  0
 39 67  2  0  0  0
 40 52  1  0  0  0
 40 53  2  0  0  0
 40 58  1  0  0  0
 41117  1  0  0  0
 41118  1  0  0  0
 41119  1  0  0  0
 41 48  1  0  0  0
 42 43  1  0  0  0
 42 66  1  0  0  0
 42120  1  0  0  0
 42121  1  0  0  0
 43 44  1  0  0  0
 44122  1  0  0  0
 45 46  2  0  0  0
 45123  1  0  0  0
 46124  1  0  0  0
 47125  1  0  0  0
 47126  1  0  0  0
 48 56  1  0  0  0
 48 65  1  0  0  0
 48127  1  0  0  0
 49 50  1  0  0  0
 49 53  1  0  0  0
 49 64  1  0  0  0
 49128  1  0  0  0
 50 51  1  0  0  0
 50129  1  0  0  0
 50130  1  0  0  0
 51 52  1  0  0  0
 51131  1  0  0  0
 51132  1  0  0  0
 52133  1  0  0  0
 52134  1  0  0  0
 53 54  1  0  0  0
 54 55  2  0  0  0
 54135  1  0  0  0
 55 57  1  0  0  0
 55136  1  0  0  0
 56 69  2  0  0  0
 57 58  2  0  0  0
 57137  1  0  0  0
 58138  1  0  0  0
 59 60  1  0  0  0
 59 61  1  0  0  0
 59 62  1  0  0  0
 60139  1  0  0  0
 60140  1  0  0  0
 60141  1  0  0  0
 61142  1  0  0  0
 61143  1  0  0  0
 61144  1  0  0  0
 62145  1  0  0  0
 62146  1  0  0  0
 62147  1  0  0  0
 63 65  1  0  0  0
 63148  1  0  0  0
 63149  1  0  0  0
 63150  1  0  0  0
 64151  1  0  0  0
 65152  1  0  0  0
 68 87  1  0  0  0
 71 72  2  0  0  0
 71 74  1  0  0  0
 71153  1  0  0  0
 72 75  1  0  0  0
 72154  1  0  0  0
 73 74  2  0  0  0
 73 76  1  0  0  0
 73155  1  0  0  0
 74 89  1  0  0  0
 75 76  2  0  0  0
 75 92  1  0  0  0
 76 93  1  0  0  0
 77 79  1  0  0  0
 77 90  1  0  0  0
 77 91  2  0  0  0
 78 90  1  0  0  0
 78156  1  0  0  0
 78157  1  0  0  0
 78158  1  0  0  0
 79 87  1  0  0  0
 79159  1  0  0  0
 79160  1  0  0  0
 80 81  1  0  0  0
 80 82  1  0  0  0
 80161  1  0  0  0
 80162  1  0  0  0
 81 83  1  0  0  0
 81163  1  0  0  0
 81164  1  0  0  0
 82 84  1  0  0  0
 82165  1  0  0  0
 82166  1  0  0  0
 83 85  1  0  0  0
 83167  1  0  0  0
 83168  1  0  0  0
 84 86  1  0  0  0
 84169  1  0  0  0
 84170  1  0  0  0
 85 88  1  0  0  0
 85171  1  0  0  0
 85172  1  0  0  0
 86 90  1  0  0  0
 86173  1  0  0  0
 86174  1  0  0  0
 87175  1  0  0  0
 87176  1  0  0  0
 88 92  1  0  0  0
 88177  1  0  0  0
 88178  1  0  0  0
 89179  1  0  0  0
M  ISO  4   1 100  68 101  87 101  89 100
M  END
> <chiral flag>
0

> <version>
0

> <s_m_source_file>
/data/baiqing/PycharmProjects/Reinvent-master-3.2/result/LINK_invent/BTK/process_docking_weight1_custom_sum_contain_oxygen_bond_distance_aromatic_linkinvent_7_9_3/rearranged_h_0007.sdf

> <i_m_source_file_index>
37

> <r_mmod_Potential_Energy-OPLS-2005>
100.532760620117

> <r_mmod_Stretch_Energy-OPLS-2005>
36.603157043457

> <r_mmod_Bend_Energy-OPLS-2005>
119.018226623535

> <r_mmod_Torsional_Energy-OPLS-2005>
344.936492919922

> <r_mmod_Improper_Torsional_Energy-OPLS-2005>
16.8050212860107

> <r_mmod_Van_der_Waal_Energy-OPLS-2005>
141.431549072266

> <r_mmod_Electrostatic_Energy-OPLS-2005>
-349.699859619141

> <r_mmod_Solvation_Energy-OPLS-2005>
-223.113464355469

> <b_mmod_Minimization_Converged-OPLS-2005>
0

> <r_mmod_RMS_Derivative-OPLS-2005>
4.97699785232544

$$$$
37
                    3D
 Structure written by MMmdl.
166174  0  0  1  0            999 V2000
  -30.8539  -14.2516   20.7015 C   0  0  0  0  0  0
  -30.4173  -12.2646   19.3403 C   0  0  0  0  0  0
  -29.4705  -12.5862   18.1740 C   0  0  0  0  0  0
  -27.9919  -12.4565   18.5889 C   0  0  0  0  0  0
  -27.6899  -13.1928   19.9172 C   0  0  2  0  0  0
  -28.7505  -12.8565   20.9949 C   0  0  0  0  0  0
  -25.2762  -13.8153   20.5672 C   0  0  0  0  0  0
  -24.1912  -13.0404   20.9147 C   0  0  0  0  0  0
  -24.6515  -11.6932   20.8747 C   0  0  0  0  0  0
  -23.9130  -10.4307   21.0404 C   0  0  0  0  0  0
  -24.3650   -9.4233   21.9200 C   0  0  0  0  0  0
  -23.6302   -8.2270   22.0788 C   0  0  0  0  0  0
  -22.4287   -8.0329   21.3561 C   0  0  0  0  0  0
  -21.9939   -9.0302   20.4682 C   0  0  0  0  0  0
  -22.7297  -10.2175   20.3085 C   0  0  0  0  0  0
  -21.6862   -6.0758   22.5294 C   0  0  0  0  0  0
  -21.4017   -6.5654   23.8233 C   0  0  0  0  0  0
  -21.3651   -5.6795   24.9161 C   0  0  0  0  0  0
  -21.6030   -4.3064   24.7194 C   0  0  0  0  0  0
  -21.8834   -3.8188   23.4321 C   0  0  0  0  0  0
  -21.9188   -4.6993   22.3390 C   0  0  0  0  0  0
  -22.7974  -13.5321   21.1747 C   0  0  0  0  0  0
  -22.1665   -4.2185   21.0971 F   0  0  0  0  0  0
  -21.5612   -3.4566   25.7711 F   0  0  0  0  0  0
  -30.0786  -13.1662   20.4347 N   0  0  0  0  0  0
  -26.3247  -12.9264   20.3719 N   0  0  0  0  0  0
  -25.9459  -11.6420   20.5862 N   0  0  0  0  0  0
  -22.0549  -12.8317   22.0326 N   0  0  0  0  0  0
  -25.4413  -15.1776   20.4066 N   0  0  0  0  0  0
  -31.8727  -14.5572   20.0826 O   0  0  0  0  0  0
  -21.6649   -6.8915   21.4253 O   0  0  0  0  0  0
  -22.3679  -14.5599   20.6651 O   0  0  0  0  0  0
  -24.6110  -31.8759   23.2221 C   0  0  0  0  0  0
  -25.8950  -32.4890   23.8579 C   0  0  1  0  0  0
  -27.2140  -27.4270   20.1076 C   0  0  0  0  0  0
  -25.5782  -33.8660   24.2506 N   0  0  0  0  0  0
  -23.3985  -30.5066   21.5560 C   0  0  2  0  0  0
  -24.8417  -28.9914   20.1384 C   0  0  0  0  0  0
  -22.7429  -29.4942   22.5193 C   0  0  0  0  0  0
  -18.0411  -28.1482   22.8933 C   0  0  0  0  0  0
  -24.1424  -36.7291   23.2657 C   0  0  0  0  0  0
  -25.9501  -30.8625   21.3629 C   0  0  0  0  0  0
  -26.0247  -29.5062   20.6810 C   0  0  0  0  0  0
  -27.2230  -28.7442   20.6212 C   0  0  0  0  0  0
  -25.9599  -26.9556   19.5971 C   0  0  0  0  0  0
  -24.8062  -27.7259   19.5749 C   0  0  0  0  0  0
  -23.6071  -29.8473   20.1732 C   0  0  0  0  0  0
  -25.4045  -36.3154   24.0411 C   0  0  1  0  0  0
  -20.6015  -28.3831   23.1860 C   0  0  2  0  0  0
  -20.6990  -26.9797   22.5510 C   0  0  0  0  0  0
  -19.6021  -26.8373   21.4775 C   0  0  0  0  0  0
  -18.2450  -26.8146   22.1887 C   0  0  0  0  0  0
  -19.1565  -28.9152   23.3406 C   0  0  0  0  0  0
  -18.9141  -30.1914   23.9060 C   0  0  0  0  0  0
  -17.5928  -30.6781   24.0534 C   0  0  0  0  0  0
  -25.8979  -34.9513   23.5299 C   0  0  0  0  0  0
  -16.5052  -29.8977   23.6352 C   0  0  0  0  0  0
  -16.7326  -28.6432   23.0373 C   0  0  0  0  0  0
  -26.4405  -31.6650   25.0893 C   0  0  0  0  0  0
  -25.3819  -31.3646   26.1782 C   0  0  0  0  0  0
  -27.0246  -30.3087   24.6308 C   0  0  0  0  0  0
  -27.6000  -32.4343   25.7610 C   0  0  0  0  0  0
  -27.5577  -37.1800   24.8524 C   0  0  0  0  0  0
  -21.4197  -29.2941   22.3824 N   0  0  0  0  0  0
  -26.4279  -37.3783   23.9481 N   0  0  0  0  0  0
  -24.6725  -31.0974   22.0999 N   0  0  0  0  0  0
  -23.4209  -28.8856   23.3497 O   0  0  0  0  0  0
  -28.3612  -26.6234   20.1476 O   0  0  0  0  0  0
  -26.5527  -34.8951   22.4820 O   0  0  0  0  0  0
  -23.5275  -32.1478   23.7563 O   0  0  0  0  0  0
  -27.6706  -16.9087   23.0697 C   0  0  0  0  0  0
  -27.8732  -17.4181   20.6814 C   0  0  0  0  0  0
  -28.7544  -16.0289   22.9707 C   0  0  0  0  0  0
  -28.9611  -16.5278   20.5952 C   0  0  0  0  0  0
  -27.2089  -17.5965   21.9240 C   0  0  0  0  0  0
  -29.4018  -15.8407   21.7485 C   0  0  0  0  0  0
  -26.3952  -19.9699   22.2714 C   0  0  0  0  0  0
  -25.9876  -18.5016   22.0577 C   0  0  0  0  0  0
  -27.7315  -21.5141   19.1739 C   0  0  0  0  0  0
  -27.6152  -23.0398   19.1524 C   0  0  0  0  0  0
  -26.3008  -20.8915   18.9078 C   0  0  0  0  0  0
  -28.7339  -23.9431   19.7963 C   0  0  0  0  0  0
  -25.3078  -20.9751   20.1519 C   0  0  0  0  0  0
  -27.9714  -25.2471   20.0822 C   0  0  0  0  0  0
  -30.5027  -14.9674   21.7585 N   0  0  0  0  0  0
  -26.0072  -20.9664   21.4502 N   0  0  0  0  0  0
  -27.0798  -20.2554   23.2523 O   0  0  0  0  0  0
  -31.4550  -12.3889   19.0365 H   0  0  0  0  0  0
  -30.3188  -11.2205   19.6494 H   0  0  0  0  0  0
  -29.6864  -11.9148   17.3486 H   0  0  0  0  0  0
  -29.6572  -13.6040   17.8221 H   0  0  0  0  0  0
  -27.7602  -11.3980   18.6735 H   0  0  0  0  0  0
  -27.3492  -12.8622   17.8088 H   0  0  0  0  0  0
  -27.7723  -14.2557   19.7024 H   0  0  0  0  0  0
  -28.7131  -11.7959   21.2542 H   0  0  0  0  0  0
  -28.5394  -13.3662   21.9332 H   0  0  0  0  0  0
  -25.2812   -9.5643   22.4748 H   0  0  0  0  0  0
  -24.0013   -7.4653   22.7544 H   0  0  0  0  0  0
  -21.0859   -8.8873   19.8975 H   0  0  0  0  0  0
  -22.3837  -10.9700   19.6185 H   0  0  0  0  0  0
  -21.2021   -7.6185   23.9710 H   0  0  0  0  0  0
  -21.1454   -6.0547   25.9047 H   0  0  0  0  0  0
  -22.0602   -2.7665   23.2818 H   0  0  0  0  0  0
  -22.4112  -11.9999   22.4736 H   0  0  0  0  0  0
  -21.1176  -13.1385   22.2424 H   0  0  0  0  0  0
  -24.6755  -15.8205   20.5608 H   0  0  0  0  0  0
  -26.3325  -15.6443   20.2802 H   0  0  0  0  0  0
  -26.7012  -32.5649   23.1352 H   0  0  0  0  0  0
  -24.9875  -33.9695   25.0648 H   0  0  0  0  0  0
  -22.6752  -31.3120   21.4042 H   0  0  0  0  0  0
  -23.3715  -35.9583   23.3365 H   0  0  0  0  0  0
  -24.3584  -36.8810   22.2077 H   0  0  0  0  0  0
  -23.7113  -37.6503   23.6588 H   0  0  0  0  0  0
  -26.0882  -31.6534   20.6230 H   0  0  0  0  0  0
  -26.8260  -30.8792   22.0000 H   0  0  0  0  0  0
  -28.1497  -29.1472   20.9894 H   0  0  0  0  0  0
  -25.7453  -25.9630   19.2320 H   0  0  0  0  0  0
  -23.8723  -27.3426   19.1771 H   0  0  0  0  0  0
  -23.7156  -30.6163   19.4080 H   0  0  0  0  0  0
  -22.7435  -29.2525   19.8707 H   0  0  0  0  0  0
  -25.1181  -36.2052   25.0889 H   0  0  0  0  0  0
  -21.0077  -28.3208   24.2006 H   0  0  0  0  0  0
  -20.5801  -26.2124   23.3227 H   0  0  0  0  0  0
  -21.7069  -26.8418   22.1349 H   0  0  0  0  0  0
  -19.7620  -26.0261   20.7702 H   0  0  0  0  0  0
  -19.6154  -27.7325   20.8469 H   0  0  0  0  0  0
  -17.4329  -26.6568   21.4758 H   0  0  0  0  0  0
  -18.2204  -26.0064   22.9298 H   0  0  0  0  0  0
  -19.7324  -30.8217   24.2302 H   0  0  0  0  0  0
  -17.3967  -31.6503   24.4733 H   0  0  0  0  0  0
  -15.4944  -30.2773   23.7396 H   0  0  0  0  0  0
  -15.8956  -28.0735   22.6613 H   0  0  0  0  0  0
  -24.6007  -30.6843   25.8374 H   0  0  0  0  0  0
  -24.8985  -32.2693   26.5489 H   0  0  0  0  0  0
  -25.8428  -30.8888   27.0462 H   0  0  0  0  0  0
  -26.2814  -29.6883   24.1284 H   0  0  0  0  0  0
  -27.3890  -29.7290   25.4839 H   0  0  0  0  0  0
  -27.8733  -30.4460   23.9573 H   0  0  0  0  0  0
  -27.2642  -33.3606   26.2285 H   0  0  0  0  0  0
  -28.3772  -32.6937   25.0399 H   0  0  0  0  0  0
  -28.0711  -31.8436   26.5497 H   0  0  0  0  0  0
  -28.2670  -38.0027   24.7550 H   0  0  0  0  0  0
  -28.0976  -36.2597   24.6335 H   0  0  0  0  0  0
  -27.2349  -37.1452   25.8932 H   0  0  0  0  0  0
  -20.9752  -29.6596   21.5567 H   0  0  0  0  0  0
  -26.0230  -38.2887   24.1364 H   0  0  0  0  0  0
  -27.2052  -17.0543   24.0355 H   0  0  0  0  0  0
  -27.5596  -17.9445   19.7869 H   0  0  0  0  0  0
  -29.0667  -15.4764   23.8362 H   0  0  0  0  0  0
  -29.4361  -16.3607   19.6370 H   0  0  0  0  0  0
  -25.4836  -18.1886   22.9784 H   0  0  0  0  0  0
  -25.2763  -18.3335   21.2478 H   0  0  0  0  0  0
  -28.1496  -21.2507   20.1447 H   0  0  0  0  0  0
  -28.5125  -21.1817   18.4659 H   0  0  0  0  0  0
  -27.4066  -23.3588   18.1234 H   0  0  0  0  0  0
  -26.6802  -23.2730   19.6675 H   0  0  0  0  0  0
  -25.8275  -21.4365   18.0775 H   0  0  0  0  0  0
  -26.4083  -19.8829   18.4752 H   0  0  0  0  0  0
  -29.5789  -24.0756   19.1189 H   0  0  0  0  0  0
  -29.1229  -23.5117   20.7188 H   0  0  0  0  0  0
  -24.4899  -20.2395   20.1815 H   0  0  0  0  0  0
  -24.7847  -21.9460   20.1206 H   0  0  0  0  0  0
  -27.2187  -25.0288   20.8575 H   0  0  0  0  0  0
  -27.5590  -25.2921   19.0873 H   0  0  0  0  0  0
  -31.2776  -15.2958   22.3244 H   0  0  0  0  0  0
  -26.3694  -21.8624   21.7546 H   0  0  0  0  0  0
  1 25  1  0  0  0
  1 30  2  0  0  0
  1 85  1  0  0  0
  2  3  1  0  0  0
  2 25  1  0  0  0
  2 88  1  0  0  0
  2 89  1  0  0  0
  3  4  1  0  0  0
  3 90  1  0  0  0
  3 91  1  0  0  0
  4  5  1  0  0  0
  4 92  1  0  0  0
  4 93  1  0  0  0
  5  6  1  0  0  0
  5 26  1  0  0  0
  5 94  1  0  0  0
  6 25  1  0  0  0
  6 95  1  0  0  0
  6 96  1  0  0  0
  7  8  2  0  0  0
  7 26  1  0  0  0
  7 29  1  0  0  0
  8  9  1  0  0  0
  8 22  1  0  0  0
  9 10  1  0  0  0
  9 27  2  0  0  0
 10 11  2  0  0  0
 10 15  1  0  0  0
 11 12  1  0  0  0
 11 97  1  0  0  0
 12 13  2  0  0  0
 12 98  1  0  0  0
 13 14  1  0  0  0
 13 31  1  0  0  0
 14 15  2  0  0  0
 14 99  1  0  0  0
 15100  1  0  0  0
 16 17  2  0  0  0
 16 21  1  0  0  0
 16 31  1  0  0  0
 17 18  1  0  0  0
 17101  1  0  0  0
 18 19  2  0  0  0
 18102  1  0  0  0
 19 20  1  0  0  0
 19 24  1  0  0  0
 20 21  2  0  0  0
 20103  1  0  0  0
 21 23  1  0  0  0
 22 28  1  0  0  0
 22 32  2  0  0  0
 26 27  1  0  0  0
 28104  1  0  0  0
 28105  1  0  0  0
 29106  1  0  0  0
 29107  1  0  0  0
 33 34  1  0  0  0
 33 66  1  0  0  0
 33 70  2  0  0  0
 34 36  1  0  0  0
 34 59  1  0  0  0
 34108  1  0  0  0
 35 44  2  0  0  0
 35 45  1  0  0  0
 35 68  1  0  0  0
 36 56  1  0  0  0
 36109  1  0  0  0
 37 39  1  0  0  0
 37 47  1  0  0  0
 37 66  1  0  0  0
 37110  1  0  0  0
 38 43  2  0  0  0
 38 46  1  0  0  0
 38 47  1  0  0  0
 39 64  1  0  0  0
 39 67  2  0  0  0
 40 52  1  0  0  0
 40 53  2  0  0  0
 40 58  1  0  0  0
 41111  1  0  0  0
 41112  1  0  0  0
 41113  1  0  0  0
 41 48  1  0  0  0
 42 43  1  0  0  0
 42 66  1  0  0  0
 42114  1  0  0  0
 42115  1  0  0  0
 43 44  1  0  0  0
 44116  1  0  0  0
 45 46  2  0  0  0
 45117  1  0  0  0
 46118  1  0  0  0
 47119  1  0  0  0
 47120  1  0  0  0
 48 56  1  0  0  0
 48 65  1  0  0  0
 48121  1  0  0  0
 49 50  1  0  0  0
 49 53  1  0  0  0
 49 64  1  0  0  0
 49122  1  0  0  0
 50 51  1  0  0  0
 50123  1  0  0  0
 50124  1  0  0  0
 51 52  1  0  0  0
 51125  1  0  0  0
 51126  1  0  0  0
 52127  1  0  0  0
 52128  1  0  0  0
 53 54  1  0  0  0
 54 55  2  0  0  0
 54129  1  0  0  0
 55 57  1  0  0  0
 55130  1  0  0  0
 56 69  2  0  0  0
 57 58  2  0  0  0
 57131  1  0  0  0
 58132  1  0  0  0
 59 60  1  0  0  0
 59 61  1  0  0  0
 59 62  1  0  0  0
 60133  1  0  0  0
 60134  1  0  0  0
 60135  1  0  0  0
 61136  1  0  0  0
 61137  1  0  0  0
 61138  1  0  0  0
 62139  1  0  0  0
 62140  1  0  0  0
 62141  1  0  0  0
 63 65  1  0  0  0
 63142  1  0  0  0
 63143  1  0  0  0
 63144  1  0  0  0
 64145  1  0  0  0
 65146  1  0  0  0
 68 84  1  0  0  0
 71 73  2  0  0  0
 71 75  1  0  0  0
 71147  1  0  0  0
 72 74  1  0  0  0
 72 75  2  0  0  0
 72148  1  0  0  0
 73 76  1  0  0  0
 73149  1  0  0  0
 74 76  2  0  0  0
 74150  1  0  0  0
 75 78  1  0  0  0
 76 85  1  0  0  0
 77 78  1  0  0  0
 77 86  1  0  0  0
 77 87  2  0  0  0
 78151  1  0  0  0
 78152  1  0  0  0
 79 80  1  0  0  0
 79 81  1  0  0  0
 79153  1  0  0  0
 79154  1  0  0  0
 80 82  1  0  0  0
 80155  1  0  0  0
 80156  1  0  0  0
 81 83  1  0  0  0
 81157  1  0  0  0
 81158  1  0  0  0
 82 84  1  0  0  0
 82159  1  0  0  0
 82160  1  0  0  0
 83 86  1  0  0  0
 83161  1  0  0  0
 83162  1  0  0  0
 84163  1  0  0  0
 84164  1  0  0  0
 85165  1  0  0  0
 86166  1  0  0  0
M  ISO  4   1 100  68 101  84 101  85 100
M  END
> <chiral flag>
0

> <version>
0

> <s_m_source_file>
/data/baiqing/PycharmProjects/Reinvent-master-3.2/result/LINK_invent/BTK/process_docking_weight1_custom_sum_contain_oxygen_bond_distance_aromatic_linkinvent_7_9_3/rearranged_h_0007.sdf

> <i_m_source_file_index>
38

> <r_mmod_Potential_Energy-OPLS-2005>
180.860961914062

> <r_mmod_Stretch_Energy-OPLS-2005>
56.2793426513672

> <r_mmod_Bend_Energy-OPLS-2005>
212.140029907227

> <r_mmod_Torsional_Energy-OPLS-2005>
292.284271240234

> <r_mmod_Improper_Torsional_Energy-OPLS-2005>
5.8783597946167

> <r_mmod_Van_der_Waal_Energy-OPLS-2005>
195.464859008789

> <r_mmod_Electrostatic_Energy-OPLS-2005>
-392.745941162109

> <r_mmod_Solvation_Energy-OPLS-2005>
-219.020614624023

> <b_mmod_Minimization_Converged-OPLS-2005>
0

> <r_mmod_RMS_Derivative-OPLS-2005>
21.7166862487793

$$$$
38
                    3D
 Structure written by MMmdl.
178186  0  0  1  0            999 V2000
  -30.6705  -14.4633   20.5157 C   0  0  0  0  0  0
  -30.4372  -12.2618   19.4416 C   0  0  0  0  0  0
  -29.5061  -12.3847   18.2151 C   0  0  0  0  0  0
  -28.0137  -12.3382   18.6195 C   0  0  0  0  0  0
  -27.6616  -13.1794   19.8790 C   0  0  2  0  0  0
  -28.7062  -12.9636   20.9961 C   0  0  0  0  0  0
  -25.2616  -13.8094   20.5689 C   0  0  0  0  0  0
  -24.1835  -13.0415   20.9182 C   0  0  0  0  0  0
  -24.6350  -11.6871   20.8756 C   0  0  0  0  0  0
  -23.9009  -10.4276   21.0417 C   0  0  0  0  0  0
  -24.3577   -9.4198   21.9194 C   0  0  0  0  0  0
  -23.6269   -8.2227   22.0753 C   0  0  0  0  0  0
  -22.4254   -8.0264   21.3542 C   0  0  0  0  0  0
  -21.9881   -9.0230   20.4644 C   0  0  0  0  0  0
  -22.7189  -10.2119   20.3060 C   0  0  0  0  0  0
  -21.6848   -6.0725   22.5276 C   0  0  0  0  0  0
  -21.4003   -6.5633   23.8207 C   0  0  0  0  0  0
  -21.3662   -5.6787   24.9175 C   0  0  0  0  0  0
  -21.6046   -4.3049   24.7224 C   0  0  0  0  0  0
  -21.8823   -3.8141   23.4344 C   0  0  0  0  0  0
  -21.9189   -4.6955   22.3402 C   0  0  0  0  0  0
  -22.7867  -13.5245   21.1836 C   0  0  0  0  0  0
  -22.1661   -4.2142   21.0980 F   0  0  0  0  0  0
  -21.5636   -3.4537   25.7739 F   0  0  0  0  0  0
  -30.0349  -13.2659   20.4352 N   0  0  0  0  0  0
  -26.3018  -12.9192   20.3410 N   0  0  0  0  0  0
  -25.9269  -11.6391   20.5823 N   0  0  0  0  0  0
  -22.0491  -12.8258   22.0393 N   0  0  0  0  0  0
  -25.4382  -15.1812   20.4093 N   0  0  0  0  0  0
  -31.8266  -14.6507   20.1239 O   0  0  0  0  0  0
  -21.6628   -6.8859   21.4234 O   0  0  0  0  0  0
  -22.3579  -14.5562   20.6686 O   0  0  0  0  0  0
  -24.6089  -31.8730   23.2131 C   0  0  0  0  0  0
  -25.9008  -32.4847   23.8407 C   0  0  1  0  0  0
  -27.2426  -27.4773   20.0835 C   0  0  0  0  0  0
  -25.5891  -33.8637   24.2349 N   0  0  0  0  0  0
  -23.3946  -30.4969   21.5507 C   0  0  2  0  0  0
  -24.8383  -28.9635   20.1199 C   0  0  0  0  0  0
  -22.7375  -29.4696   22.4998 C   0  0  0  0  0  0
  -18.0275  -28.1350   22.8494 C   0  0  0  0  0  0
  -24.1490  -36.7324   23.2645 C   0  0  0  0  0  0
  -25.9192  -30.8495   21.3597 C   0  0  0  0  0  0
  -25.9952  -29.4851   20.7108 C   0  0  0  0  0  0
  -27.1937  -28.7448   20.6956 C   0  0  0  0  0  0
  -26.0576  -26.9475   19.5187 C   0  0  0  0  0  0
  -24.8618  -27.6899   19.5267 C   0  0  0  0  0  0
  -23.6010  -29.8283   20.1650 C   0  0  0  0  0  0
  -25.4106  -36.3125   24.0349 C   0  0  1  0  0  0
  -20.5861  -28.3643   23.1320 C   0  0  2  0  0  0
  -20.6769  -26.9385   22.5414 C   0  0  0  0  0  0
  -19.5760  -26.6374   21.5201 C   0  0  0  0  0  0
  -18.1933  -26.7908   22.1605 C   0  0  0  0  0  0
  -19.1516  -28.8810   23.2913 C   0  0  0  0  0  0
  -18.9448  -30.1415   23.8921 C   0  0  0  0  0  0
  -17.6446  -30.6572   24.0547 C   0  0  0  0  0  0
  -25.9030  -34.9492   23.5145 C   0  0  0  0  0  0
  -16.5339  -29.9067   23.6314 C   0  0  0  0  0  0
  -16.7265  -28.6477   23.0357 C   0  0  0  0  0  0
  -26.4455  -31.6606   25.0715 C   0  0  0  0  0  0
  -25.3750  -31.3668   26.1484 C   0  0  0  0  0  0
  -27.0285  -30.3070   24.6032 C   0  0  0  0  0  0
  -27.6042  -32.4310   25.7471 C   0  0  0  0  0  0
  -27.5586  -37.1820   24.8470 C   0  0  0  0  0  0
  -21.4107  -29.3033   22.3729 N   0  0  0  0  0  0
  -26.4301  -37.3801   23.9411 N   0  0  0  0  0  0
  -24.6590  -31.0879   22.0993 N   0  0  0  0  0  0
  -23.4164  -28.8252   23.3041 O   0  0  0  0  0  0
  -28.4588  -26.8314   20.0945 O   0  0  0  0  0  0
  -26.5585  -34.8943   22.4696 O   0  0  0  0  0  0
  -23.5297  -32.1445   23.7567 O   0  0  0  0  0  0
  -30.5266  -19.1490   20.7585 C   0  0  0  0  0  0
  -30.4931  -17.8080   21.1852 C   0  0  0  0  0  0
  -30.0006  -19.5082   19.5036 C   0  0  0  0  0  0
  -29.4208  -17.1680   19.0787 C   0  0  0  0  0  0
  -29.9491  -16.8088   20.3537 C   0  0  0  0  0  0
  -29.4453  -18.5248   18.6561 C   0  0  0  0  0  0
  -29.7829  -19.1341   16.3552 C   0  0  0  0  0  0
  -28.8481  -16.1196   18.1384 C   0  0  0  0  0  0
  -29.2838  -19.1918   14.9109 C   0  0  0  0  0  0
  -27.2500  -23.7889   17.0246 C   0  0  0  0  0  0
  -26.8599  -22.4879   16.3213 C   0  0  0  0  0  0
  -27.6244  -24.9338   16.0718 C   0  0  0  0  0  0
  -26.9754  -21.2976   17.2862 C   0  0  0  0  0  0
  -28.0293  -26.2429   16.7806 C   0  0  0  0  0  0
  -26.6924  -19.9548   16.6011 C   0  0  0  0  0  0
  -29.1400  -26.0950   17.8452 C   0  0  0  0  0  0
  -27.4492  -18.7486   17.2050 C   0  0  0  0  0  0
  -28.6946  -25.6961   19.2733 C   0  0  0  0  0  0
  -29.8652  -15.4822   20.8624 N   0  0  0  0  0  0
  -28.9143  -18.9013   17.3792 N   0  0  0  0  0  0
  -30.9929  -19.3127   16.5331 O   0  0  0  0  0  0
  -31.4803  -12.3719   19.1388 H   0  0  0  0  0  0
  -30.3604  -11.2642   19.8770 H   0  0  0  0  0  0
  -29.7120  -11.5610   17.5301 H   0  0  0  0  0  0
  -29.7405  -13.2756   17.6401 H   0  0  0  0  0  0
  -27.7757  -11.2911   18.8113 H   0  0  0  0  0  0
  -27.3864  -12.6353   17.7784 H   0  0  0  0  0  0
  -27.6914  -14.2239   19.5936 H   0  0  0  0  0  0
  -28.6808  -11.9296   21.3429 H   0  0  0  0  0  0
  -28.4776  -13.5701   21.8738 H   0  0  0  0  0  0
  -25.2722   -9.5689   22.4767 H   0  0  0  0  0  0
  -23.9986   -7.4622   22.7471 H   0  0  0  0  0  0
  -21.0815   -8.8736   19.8949 H   0  0  0  0  0  0
  -22.3640  -10.9657   19.6171 H   0  0  0  0  0  0
  -21.1987   -7.6139   23.9711 H   0  0  0  0  0  0
  -21.1487   -6.0519   25.9079 H   0  0  0  0  0  0
  -22.0601   -2.7602   23.2846 H   0  0  0  0  0  0
  -22.4072  -11.9908   22.4786 H   0  0  0  0  0  0
  -21.1114  -13.1311   22.2582 H   0  0  0  0  0  0
  -24.6750  -15.8387   20.5252 H   0  0  0  0  0  0
  -26.2966  -15.6236   20.1094 H   0  0  0  0  0  0
  -26.7080  -32.5575   23.1181 H   0  0  0  0  0  0
  -25.0066  -33.9805   25.0512 H   0  0  0  0  0  0
  -22.6827  -31.3130   21.4128 H   0  0  0  0  0  0
  -23.3750  -35.9660   23.3312 H   0  0  0  0  0  0
  -24.3607  -36.8928   22.2064 H   0  0  0  0  0  0
  -23.7237  -37.6535   23.6640 H   0  0  0  0  0  0
  -26.0280  -31.6148   20.5895 H   0  0  0  0  0  0
  -26.8082  -30.9036   21.9759 H   0  0  0  0  0  0
  -28.0896  -29.1519   21.1435 H   0  0  0  0  0  0
  -26.0288  -25.9723   19.0612 H   0  0  0  0  0  0
  -23.9689  -27.2752   19.0785 H   0  0  0  0  0  0
  -23.7126  -30.6004   19.4030 H   0  0  0  0  0  0
  -22.7251  -29.2496   19.8668 H   0  0  0  0  0  0
  -25.1279  -36.2008   25.0846 H   0  0  0  0  0  0
  -20.9958  -28.3183   24.1437 H   0  0  0  0  0  0
  -20.5665  -26.2241   23.3589 H   0  0  0  0  0  0
  -21.6643  -26.7447   22.1208 H   0  0  0  0  0  0
  -19.6920  -25.6293   21.1211 H   0  0  0  0  0  0
  -19.6696  -27.3196   20.6742 H   0  0  0  0  0  0
  -17.4211  -26.6675   21.3996 H   0  0  0  0  0  0
  -18.0334  -26.0030   22.8978 H   0  0  0  0  0  0
  -19.7921  -30.7222   24.2311 H   0  0  0  0  0  0
  -17.5006  -31.6270   24.5110 H   0  0  0  0  0  0
  -15.5336  -30.2973   23.7634 H   0  0  0  0  0  0
  -15.8665  -28.0795   22.7071 H   0  0  0  0  0  0
  -24.5929  -30.7015   25.7822 H   0  0  0  0  0  0
  -24.8943  -32.2805   26.4981 H   0  0  0  0  0  0
  -25.8145  -30.8808   27.0206 H   0  0  0  0  0  0
  -26.2801  -29.6830   24.1143 H   0  0  0  0  0  0
  -27.4162  -29.7303   25.4438 H   0  0  0  0  0  0
  -27.8580  -30.4434   23.9092 H   0  0  0  0  0  0
  -27.2671  -33.3594   26.2085 H   0  0  0  0  0  0
  -28.3824  -32.6889   25.0279 H   0  0  0  0  0  0
  -28.0732  -31.8412   26.5357 H   0  0  0  0  0  0
  -28.2609  -38.0117   24.7520 H   0  0  0  0  0  0
  -28.1079  -36.2647   24.6279 H   0  0  0  0  0  0
  -27.2316  -37.1460   25.8882 H   0  0  0  0  0  0
  -20.9245  -29.8764   21.6974 H   0  0  0  0  0  0
  -26.0192  -38.2885   24.1400 H   0  0  0  0  0  0
  -30.9525  -19.9063   21.4014 H   0  0  0  0  0  0
  -30.8835  -17.5508   22.1608 H   0  0  0  0  0  0
  -30.0292  -20.5424   19.1892 H   0  0  0  0  0  0
  -29.2652  -15.1494   18.3420 H   0  0  0  0  0  0
  -29.0969  -16.3225   17.0977 H   0  0  0  0  0  0
  -27.7641  -16.0642   18.2314 H   0  0  0  0  0  0
  -28.4908  -18.4703   14.7193 H   0  0  0  0  0  0
  -30.0980  -18.9594   14.2244 H   0  0  0  0  0  0
  -28.9323  -20.1941   14.6704 H   0  0  0  0  0  0
  -28.1157  -23.5705   17.6478 H   0  0  0  0  0  0
  -26.4432  -24.0939   17.6910 H   0  0  0  0  0  0
  -27.5264  -22.3207   15.4738 H   0  0  0  0  0  0
  -25.8504  -22.5635   15.9145 H   0  0  0  0  0  0
  -26.7904  -25.1356   15.3980 H   0  0  0  0  0  0
  -28.4495  -24.6108   15.4356 H   0  0  0  0  0  0
  -26.3049  -21.4252   18.1376 H   0  0  0  0  0  0
  -27.9824  -21.2996   17.7016 H   0  0  0  0  0  0
  -27.1558  -26.7444   17.1893 H   0  0  0  0  0  0
  -28.3943  -26.9222   16.0084 H   0  0  0  0  0  0
  -26.8912  -20.0300   15.5346 H   0  0  0  0  0  0
  -25.6206  -19.7574   16.6534 H   0  0  0  0  0  0
  -29.6993  -27.0286   17.9125 H   0  0  0  0  0  0
  -29.8638  -25.3639   17.4837 H   0  0  0  0  0  0
  -27.2435  -17.8650   16.6004 H   0  0  0  0  0  0
  -27.0047  -18.5383   18.1789 H   0  0  0  0  0  0
  -29.5311  -25.1749   19.7403 H   0  0  0  0  0  0
  -27.8780  -24.9810   19.3143 H   0  0  0  0  0  0
  -28.9551  -15.1967   21.1903 H   0  0  0  0  0  0
  1 25  1  0  0  0
  1 30  2  0  0  0
  1 89  1  0  0  0
  2  3  1  0  0  0
  2 25  1  0  0  0
  2 92  1  0  0  0
  2 93  1  0  0  0
  3  4  1  0  0  0
  3 94  1  0  0  0
  3 95  1  0  0  0
  4  5  1  0  0  0
  4 96  1  0  0  0
  4 97  1  0  0  0
  5  6  1  0  0  0
  5 26  1  0  0  0
  5 98  1  0  0  0
  6 25  1  0  0  0
  6 99  1  0  0  0
  6100  1  0  0  0
  7  8  2  0  0  0
  7 26  1  0  0  0
  7 29  1  0  0  0
  8  9  1  0  0  0
  8 22  1  0  0  0
  9 10  1  0  0  0
  9 27  2  0  0  0
 10 11  2  0  0  0
 10 15  1  0  0  0
 11 12  1  0  0  0
 11101  1  0  0  0
 12 13  2  0  0  0
 12102  1  0  0  0
 13 14  1  0  0  0
 13 31  1  0  0  0
 14 15  2  0  0  0
 14103  1  0  0  0
 15104  1  0  0  0
 16 17  2  0  0  0
 16 21  1  0  0  0
 16 31  1  0  0  0
 17 18  1  0  0  0
 17105  1  0  0  0
 18 19  2  0  0  0
 18106  1  0  0  0
 19 20  1  0  0  0
 19 24  1  0  0  0
 20 21  2  0  0  0
 20107  1  0  0  0
 21 23  1  0  0  0
 22 28  1  0  0  0
 22 32  2  0  0  0
 26 27  1  0  0  0
 28108  1  0  0  0
 28109  1  0  0  0
 29110  1  0  0  0
 29111  1  0  0  0
 33 34  1  0  0  0
 33 66  1  0  0  0
 33 70  2  0  0  0
 34 36  1  0  0  0
 34 59  1  0  0  0
 34112  1  0  0  0
 35 44  2  0  0  0
 35 45  1  0  0  0
 35 68  1  0  0  0
 36 56  1  0  0  0
 36113  1  0  0  0
 37 39  1  0  0  0
 37 47  1  0  0  0
 37 66  1  0  0  0
 37114  1  0  0  0
 38 43  2  0  0  0
 38 46  1  0  0  0
 38 47  1  0  0  0
 39 64  1  0  0  0
 39 67  2  0  0  0
 40 52  1  0  0  0
 40 53  2  0  0  0
 40 58  1  0  0  0
 41115  1  0  0  0
 41116  1  0  0  0
 41117  1  0  0  0
 41 48  1  0  0  0
 42 43  1  0  0  0
 42 66  1  0  0  0
 42118  1  0  0  0
 42119  1  0  0  0
 43 44  1  0  0  0
 44120  1  0  0  0
 45 46  2  0  0  0
 45121  1  0  0  0
 46122  1  0  0  0
 47123  1  0  0  0
 47124  1  0  0  0
 48 56  1  0  0  0
 48 65  1  0  0  0
 48125  1  0  0  0
 49 50  1  0  0  0
 49 53  1  0  0  0
 49 64  1  0  0  0
 49126  1  0  0  0
 50 51  1  0  0  0
 50127  1  0  0  0
 50128  1  0  0  0
 51 52  1  0  0  0
 51129  1  0  0  0
 51130  1  0  0  0
 52131  1  0  0  0
 52132  1  0  0  0
 53 54  1  0  0  0
 54 55  2  0  0  0
 54133  1  0  0  0
 55 57  1  0  0  0
 55134  1  0  0  0
 56 69  2  0  0  0
 57 58  2  0  0  0
 57135  1  0  0  0
 58136  1  0  0  0
 59 60  1  0  0  0
 59 61  1  0  0  0
 59 62  1  0  0  0
 60137  1  0  0  0
 60138  1  0  0  0
 60139  1  0  0  0
 61140  1  0  0  0
 61141  1  0  0  0
 61142  1  0  0  0
 62143  1  0  0  0
 62144  1  0  0  0
 62145  1  0  0  0
 63 65  1  0  0  0
 63146  1  0  0  0
 63147  1  0  0  0
 63148  1  0  0  0
 64149  1  0  0  0
 65150  1  0  0  0
 68 88  1  0  0  0
 71 72  2  0  0  0
 71 73  1  0  0  0
 71151  1  0  0  0
 72 75  1  0  0  0
 72152  1  0  0  0
 73 76  2  0  0  0
 73153  1  0  0  0
 74 75  2  0  0  0
 74 76  1  0  0  0
 74 78  1  0  0  0
 75 89  1  0  0  0
 76 90  1  0  0  0
 77 79  1  0  0  0
 77 90  1  0  0  0
 77 91  2  0  0  0
 78154  1  0  0  0
 78155  1  0  0  0
 78156  1  0  0  0
 79157  1  0  0  0
 79158  1  0  0  0
 79159  1  0  0  0
 80 81  1  0  0  0
 80 82  1  0  0  0
 80160  1  0  0  0
 80161  1  0  0  0
 81 83  1  0  0  0
 81162  1  0  0  0
 81163  1  0  0  0
 82 84  1  0  0  0
 82164  1  0  0  0
 82165  1  0  0  0
 83 85  1  0  0  0
 83166  1  0  0  0
 83167  1  0  0  0
 84 86  1  0  0  0
 84168  1  0  0  0
 84169  1  0  0  0
 85 87  1  0  0  0
 85170  1  0  0  0
 85171  1  0  0  0
 86 88  1  0  0  0
 86172  1  0  0  0
 86173  1  0  0  0
 87 90  1  0  0  0
 87174  1  0  0  0
 87175  1  0  0  0
 88176  1  0  0  0
 88177  1  0  0  0
 89178  1  0  0  0
M  ISO  4   1 100  68 101  88 101  89 100
M  END
> <chiral flag>
0

> <version>
0

> <s_m_source_file>
/data/baiqing/PycharmProjects/Reinvent-master-3.2/result/LINK_invent/BTK/process_docking_weight1_custom_sum_contain_oxygen_bond_distance_aromatic_linkinvent_7_9_3/rearranged_h_0007.sdf

> <i_m_source_file_index>
39

> <r_mmod_Potential_Energy-OPLS-2005>
100.719848632812

> <r_mmod_Stretch_Energy-OPLS-2005>
39.2664604187012

> <r_mmod_Bend_Energy-OPLS-2005>
117.335006713867

> <r_mmod_Torsional_Energy-OPLS-2005>
328.944793701172

> <r_mmod_Improper_Torsional_Energy-OPLS-2005>
6.70667219161987

> <r_mmod_Van_der_Waal_Energy-OPLS-2005>
169.147689819336

> <r_mmod_Electrostatic_Energy-OPLS-2005>
-354.078796386719

> <r_mmod_Solvation_Energy-OPLS-2005>
-222.870697021484

> <b_mmod_Minimization_Converged-OPLS-2005>
0

> <r_mmod_RMS_Derivative-OPLS-2005>
1.50494706630707

$$$$
39
                    3D
 Structure written by MMmdl.
158166  0  0  1  0            999 V2000
  -30.6427  -14.6871   20.5300 C   0  0  0  0  0  0
  -30.4165  -12.4288   19.4740 C   0  0  0  0  0  0
  -29.4997  -12.4910   18.2341 C   0  0  0  0  0  0
  -28.0183  -12.3488   18.6354 C   0  0  0  0  0  0
  -27.6336  -13.2221   19.8637 C   0  0  2  0  0  0
  -28.6772  -13.1418   20.9966 C   0  0  0  0  0  0
  -25.2469  -13.8209   20.5795 C   0  0  0  0  0  0
  -24.1743  -13.0459   20.9198 C   0  0  0  0  0  0
  -24.6310  -11.6918   20.8699 C   0  0  0  0  0  0
  -23.9006  -10.4283   21.0378 C   0  0  0  0  0  0
  -24.3606   -9.4216   21.9163 C   0  0  0  0  0  0
  -23.6315   -8.2234   22.0778 C   0  0  0  0  0  0
  -22.4308   -8.0240   21.3547 C   0  0  0  0  0  0
  -21.9911   -9.0189   20.4676 C   0  0  0  0  0  0
  -22.7187  -10.2088   20.3048 C   0  0  0  0  0  0
  -21.6876   -6.0738   22.5254 C   0  0  0  0  0  0
  -21.4037   -6.5644   23.8178 C   0  0  0  0  0  0
  -21.3662   -5.6784   24.9129 C   0  0  0  0  0  0
  -21.6054   -4.3044   24.7188 C   0  0  0  0  0  0
  -21.8809   -3.8140   23.4299 C   0  0  0  0  0  0
  -21.9187   -4.6957   22.3369 C   0  0  0  0  0  0
  -22.7753  -13.5228   21.1864 C   0  0  0  0  0  0
  -22.1656   -4.2156   21.0947 F   0  0  0  0  0  0
  -21.5633   -3.4541   25.7685 F   0  0  0  0  0  0
  -29.9830  -13.4862   20.4207 N   0  0  0  0  0  0
  -26.2873  -12.9362   20.3385 N   0  0  0  0  0  0
  -25.9231  -11.6513   20.5748 N   0  0  0  0  0  0
  -22.0401  -12.8267   22.0446 N   0  0  0  0  0  0
  -25.4267  -15.1965   20.4427 N   0  0  0  0  0  0
  -31.7980  -14.7928   20.1064 O   0  0  0  0  0  0
  -21.6700   -6.8844   21.4204 O   0  0  0  0  0  0
  -22.3390  -14.5484   20.6621 O   0  0  0  0  0  0
  -24.6334  -31.8566   23.2029 C   0  0  0  0  0  0
  -25.9177  -32.4758   23.8358 C   0  0  1  0  0  0
  -27.1877  -27.2443   20.1268 C   0  0  0  0  0  0
  -25.5984  -33.8562   24.2306 N   0  0  0  0  0  0
  -23.4282  -30.4917   21.5444 C   0  0  2  0  0  0
  -24.8689  -28.9511   20.0937 C   0  0  0  0  0  0
  -22.7521  -29.4646   22.4856 C   0  0  0  0  0  0
  -18.0311  -28.1420   22.8460 C   0  0  0  0  0  0
  -24.1494  -36.7302   23.2639 C   0  0  0  0  0  0
  -25.9781  -30.7664   21.3861 C   0  0  0  0  0  0
  -26.0405  -29.3918   20.7223 C   0  0  0  0  0  0
  -27.2029  -28.5516   20.7299 C   0  0  0  0  0  0
  -25.9997  -26.8969   19.4398 C   0  0  0  0  0  0
  -24.8572  -27.7143   19.4352 C   0  0  0  0  0  0
  -23.6451  -29.8475   20.1506 C   0  0  0  0  0  0
  -25.4122  -36.3086   24.0331 C   0  0  1  0  0  0
  -20.5929  -28.3742   23.1236 C   0  0  2  0  0  0
  -20.6823  -26.9461   22.5395 C   0  0  0  0  0  0
  -19.5796  -26.6409   21.5212 C   0  0  0  0  0  0
  -18.1955  -26.7965   22.1603 C   0  0  0  0  0  0
  -19.1558  -28.8898   23.2847 C   0  0  0  0  0  0
  -18.9478  -30.1490   23.8887 C   0  0  0  0  0  0
  -17.6469  -30.6602   24.0576 C   0  0  0  0  0  0
  -25.9071  -34.9436   23.5119 C   0  0  0  0  0  0
  -16.5373  -29.9098   23.6333 C   0  0  0  0  0  0
  -16.7279  -28.6541   23.0329 C   0  0  0  0  0  0
  -26.4547  -31.6562   25.0741 C   0  0  0  0  0  0
  -25.3759  -31.3664   26.1443 C   0  0  0  0  0  0
  -27.0415  -30.2983   24.6235 C   0  0  0  0  0  0
  -27.6120  -32.4272   25.7485 C   0  0  0  0  0  0
  -27.5575  -37.1795   24.8466 C   0  0  0  0  0  0
  -21.4232  -29.3075   22.3587 N   0  0  0  0  0  0
  -26.4305  -37.3770   23.9398 N   0  0  0  0  0  0
  -24.7007  -31.0541   22.1002 N   0  0  0  0  0  0
  -23.4232  -28.8140   23.2921 O   0  0  0  0  0  0
  -28.2419  -26.3007   20.2118 O   0  0  0  0  0  0
  -26.5612  -34.8902   22.4668 O   0  0  0  0  0  0
  -23.5490  -32.1414   23.7318 O   0  0  0  0  0  0
  -28.7776  -16.8567   19.2273 C   0  0  0  0  0  0
  -28.1834  -19.2367   19.1637 C   0  0  0  0  0  0
  -28.1158  -17.9397   18.6093 C   0  0  0  0  0  0
  -29.5553  -18.3668   20.9803 C   0  0  0  0  0  0
  -29.4781  -17.0090   20.4398 C   0  0  0  0  0  0
  -28.9427  -19.5195   20.3216 C   0  0  0  0  0  0
  -30.2931  -18.6040   22.2887 C   0  0  0  0  0  0
  -28.8087  -23.5991   20.5327 C   0  0  0  0  0  0
  -28.3432  -22.0922   20.1662 C   0  0  0  0  0  0
  -27.9182  -24.8396   19.9952 C   0  0  0  0  0  0
  -27.3395  -17.7282   17.3165 C   0  0  0  0  0  0
  -30.0195  -15.7883   21.0884 N   0  0  0  0  0  0
  -29.0870  -20.9033   20.7473 N   0  0  0  0  0  0
  -27.2030  -16.4347   17.0227 F   0  0  0  0  0  0
  -26.1243  -18.2666   17.4206 F   0  0  0  0  0  0
  -27.9875  -18.3187   16.3145 F   0  0  0  0  0  0
  -31.4589  -12.5334   19.1699 H   0  0  0  0  0  0
  -30.3509  -11.4500   19.9521 H   0  0  0  0  0  0
  -29.7664  -11.6963   17.5337 H   0  0  0  0  0  0
  -29.6467  -13.4325   17.7036 H   0  0  0  0  0  0
  -27.8240  -11.2943   18.8337 H   0  0  0  0  0  0
  -27.3808  -12.6190   17.7927 H   0  0  0  0  0  0
  -27.6263  -14.2446   19.4990 H   0  0  0  0  0  0
  -28.7040  -12.1418   21.4250 H   0  0  0  0  0  0
  -28.4050  -13.8144   21.8076 H   0  0  0  0  0  0
  -25.2742   -9.5743   22.4738 H   0  0  0  0  0  0
  -24.0007   -7.4658   22.7554 H   0  0  0  0  0  0
  -21.0836   -8.8624   19.9047 H   0  0  0  0  0  0
  -22.3570  -10.9576   19.6127 H   0  0  0  0  0  0
  -21.2074   -7.6158   23.9646 H   0  0  0  0  0  0
  -21.1528   -6.0569   25.9025 H   0  0  0  0  0  0
  -22.0623   -2.7626   23.2766 H   0  0  0  0  0  0
  -22.4060  -11.9968   22.4904 H   0  0  0  0  0  0
  -21.0977  -13.1207   22.2606 H   0  0  0  0  0  0
  -24.6638  -15.8589   20.5509 H   0  0  0  0  0  0
  -26.3306  -15.6393   20.3604 H   0  0  0  0  0  0
  -26.7243  -32.5381   23.1092 H   0  0  0  0  0  0
  -25.0193  -33.9690   25.0491 H   0  0  0  0  0  0
  -22.7272  -31.3185   21.4126 H   0  0  0  0  0  0
  -23.3753  -35.9631   23.3310 H   0  0  0  0  0  0
  -24.3624  -36.8913   22.2056 H   0  0  0  0  0  0
  -23.7238  -37.6511   23.6660 H   0  0  0  0  0  0
  -26.1314  -31.5286   20.6190 H   0  0  0  0  0  0
  -26.8509  -30.8036   22.0260 H   0  0  0  0  0  0
  -28.0915  -28.8752   21.2534 H   0  0  0  0  0  0
  -25.9108  -25.9629   18.9088 H   0  0  0  0  0  0
  -23.9712  -27.3899   18.9060 H   0  0  0  0  0  0
  -23.7738  -30.6429   19.4158 H   0  0  0  0  0  0
  -22.7548  -29.3013   19.8343 H   0  0  0  0  0  0
  -25.1275  -36.1964   25.0820 H   0  0  0  0  0  0
  -21.0030  -28.3369   24.1356 H   0  0  0  0  0  0
  -20.5798  -26.2342   23.3614 H   0  0  0  0  0  0
  -21.6663  -26.7518   22.1132 H   0  0  0  0  0  0
  -19.6961  -25.6322   21.1237 H   0  0  0  0  0  0
  -19.6735  -27.3216   20.6758 H   0  0  0  0  0  0
  -17.4232  -26.6716   21.3996 H   0  0  0  0  0  0
  -18.0328  -26.0134   22.9034 H   0  0  0  0  0  0
  -19.7954  -30.7289   24.2262 H   0  0  0  0  0  0
  -17.5033  -31.6262   24.5191 H   0  0  0  0  0  0
  -15.5371  -30.2980   23.7687 H   0  0  0  0  0  0
  -15.8706  -28.0860   22.7022 H   0  0  0  0  0  0
  -24.5947  -30.7033   25.7734 H   0  0  0  0  0  0
  -24.8941  -32.2795   26.4934 H   0  0  0  0  0  0
  -25.8051  -30.8775   27.0201 H   0  0  0  0  0  0
  -26.3007  -29.6656   24.1368 H   0  0  0  0  0  0
  -27.4228  -29.7319   25.4750 H   0  0  0  0  0  0
  -27.8818  -30.4276   23.9420 H   0  0  0  0  0  0
  -27.2820  -33.3587   26.2104 H   0  0  0  0  0  0
  -28.3923  -32.6807   25.0287 H   0  0  0  0  0  0
  -28.0852  -31.8378   26.5363 H   0  0  0  0  0  0
  -28.2584  -38.0098   24.7523 H   0  0  0  0  0  0
  -28.1080  -36.2625   24.6289 H   0  0  0  0  0  0
  -27.2309  -37.1444   25.8877 H   0  0  0  0  0  0
  -20.9421  -29.8853   21.6828 H   0  0  0  0  0  0
  -26.0200  -38.2843   24.1407 H   0  0  0  0  0  0
  -28.7133  -15.8898   18.7576 H   0  0  0  0  0  0
  -27.6667  -20.0220   18.6355 H   0  0  0  0  0  0
  -30.9475  -19.4736   22.2222 H   0  0  0  0  0  0
  -29.5750  -18.7884   23.0857 H   0  0  0  0  0  0
  -30.9068  -17.7504   22.5800 H   0  0  0  0  0  0
  -29.8279  -23.7293   20.1713 H   0  0  0  0  0  0
  -28.8550  -23.6723   21.6176 H   0  0  0  0  0  0
  -28.3639  -22.0119   19.0768 H   0  0  0  0  0  0
  -27.2952  -21.9820   20.4566 H   0  0  0  0  0  0
  -27.8109  -24.7013   18.9171 H   0  0  0  0  0  0
  -26.9280  -24.6567   20.4152 H   0  0  0  0  0  0
  -30.4579  -15.9992   21.9717 H   0  0  0  0  0  0
  -29.7604  -21.1085   21.4802 H   0  0  0  0  0  0
  1 25  1  0  0  0
  1 30  2  0  0  0
  1 82  1  0  0  0
  2  3  1  0  0  0
  2 25  1  0  0  0
  2 87  1  0  0  0
  2 88  1  0  0  0
  3  4  1  0  0  0
  3 89  1  0  0  0
  3 90  1  0  0  0
  4  5  1  0  0  0
  4 91  1  0  0  0
  4 92  1  0  0  0
  5  6  1  0  0  0
  5 26  1  0  0  0
  5 93  1  0  0  0
  6 25  1  0  0  0
  6 94  1  0  0  0
  6 95  1  0  0  0
  7  8  2  0  0  0
  7 26  1  0  0  0
  7 29  1  0  0  0
  8  9  1  0  0  0
  8 22  1  0  0  0
  9 10  1  0  0  0
  9 27  2  0  0  0
 10 11  2  0  0  0
 10 15  1  0  0  0
 11 12  1  0  0  0
 11 96  1  0  0  0
 12 13  2  0  0  0
 12 97  1  0  0  0
 13 14  1  0  0  0
 13 31  1  0  0  0
 14 15  2  0  0  0
 14 98  1  0  0  0
 15 99  1  0  0  0
 16 17  2  0  0  0
 16 21  1  0  0  0
 16 31  1  0  0  0
 17 18  1  0  0  0
 17100  1  0  0  0
 18 19  2  0  0  0
 18101  1  0  0  0
 19 20  1  0  0  0
 19 24  1  0  0  0
 20 21  2  0  0  0
 20102  1  0  0  0
 21 23  1  0  0  0
 22 28  1  0  0  0
 22 32  2  0  0  0
 26 27  1  0  0  0
 28103  1  0  0  0
 28104  1  0  0  0
 29105  1  0  0  0
 29106  1  0  0  0
 33 34  1  0  0  0
 33 66  1  0  0  0
 33 70  2  0  0  0
 34 36  1  0  0  0
 34 59  1  0  0  0
 34107  1  0  0  0
 35 44  2  0  0  0
 35 45  1  0  0  0
 35 68  1  0  0  0
 36 56  1  0  0  0
 36108  1  0  0  0
 37 39  1  0  0  0
 37 47  1  0  0  0
 37 66  1  0  0  0
 37109  1  0  0  0
 38 43  2  0  0  0
 38 46  1  0  0  0
 38 47  1  0  0  0
 39 64  1  0  0  0
 39 67  2  0  0  0
 40 52  1  0  0  0
 40 53  2  0  0  0
 40 58  1  0  0  0
 41110  1  0  0  0
 41111  1  0  0  0
 41112  1  0  0  0
 41 48  1  0  0  0
 42 43  1  0  0  0
 42 66  1  0  0  0
 42113  1  0  0  0
 42114  1  0  0  0
 43 44  1  0  0  0
 44115  1  0  0  0
 45 46  2  0  0  0
 45116  1  0  0  0
 46117  1  0  0  0
 47118  1  0  0  0
 47119  1  0  0  0
 48 56  1  0  0  0
 48 65  1  0  0  0
 48120  1  0  0  0
 49 50  1  0  0  0
 49 53  1  0  0  0
 49 64  1  0  0  0
 49121  1  0  0  0
 50 51  1  0  0  0
 50122  1  0  0  0
 50123  1  0  0  0
 51 52  1  0  0  0
 51124  1  0  0  0
 51125  1  0  0  0
 52126  1  0  0  0
 52127  1  0  0  0
 53 54  1  0  0  0
 54 55  2  0  0  0
 54128  1  0  0  0
 55 57  1  0  0  0
 55129  1  0  0  0
 56 69  2  0  0  0
 57 58  2  0  0  0
 57130  1  0  0  0
 58131  1  0  0  0
 59 60  1  0  0  0
 59 61  1  0  0  0
 59 62  1  0  0  0
 60132  1  0  0  0
 60133  1  0  0  0
 60134  1  0  0  0
 61135  1  0  0  0
 61136  1  0  0  0
 61137  1  0  0  0
 62138  1  0  0  0
 62139  1  0  0  0
 62140  1  0  0  0
 63 65  1  0  0  0
 63141  1  0  0  0
 63142  1  0  0  0
 63143  1  0  0  0
 64144  1  0  0  0
 65145  1  0  0  0
 68 80  1  0  0  0
 71 73  2  0  0  0
 71 75  1  0  0  0
 71146  1  0  0  0
 72 73  1  0  0  0
 72 76  2  0  0  0
 72147  1  0  0  0
 73 81  1  0  0  0
 74 75  2  0  0  0
 74 76  1  0  0  0
 74 77  1  0  0  0
 75 82  1  0  0  0
 76 83  1  0  0  0
 77148  1  0  0  0
 77149  1  0  0  0
 77150  1  0  0  0
 78 79  1  0  0  0
 78 80  1  0  0  0
 78151  1  0  0  0
 78152  1  0  0  0
 79 83  1  0  0  0
 79153  1  0  0  0
 79154  1  0  0  0
 80155  1  0  0  0
 80156  1  0  0  0
 81 84  1  0  0  0
 81 85  1  0  0  0
 81 86  1  0  0  0
 82157  1  0  0  0
 83158  1  0  0  0
M  ISO  4   1 100  68 101  80 101  82 100
M  END
> <chiral flag>
0

> <version>
0

> <s_m_source_file>
/data/baiqing/PycharmProjects/Reinvent-master-3.2/result/LINK_invent/BTK/process_docking_weight1_custom_sum_contain_oxygen_bond_distance_aromatic_linkinvent_7_9_3/rearranged_h_0007.sdf

> <i_m_source_file_index>
40

> <r_mmod_Potential_Energy-OPLS-2005>
193.115295410156

> <r_mmod_Stretch_Energy-OPLS-2005>
123.161972045898

> <r_mmod_Bend_Energy-OPLS-2005>
173.472183227539

> <r_mmod_Torsional_Energy-OPLS-2005>
258.188598632812

> <r_mmod_Improper_Torsional_Energy-OPLS-2005>
4.83536815643311

> <r_mmod_Van_der_Waal_Energy-OPLS-2005>
142.011093139648

> <r_mmod_Electrostatic_Energy-OPLS-2005>
-380.848876953125

> <r_mmod_Solvation_Energy-OPLS-2005>
-211.056793212891

> <b_mmod_Minimization_Converged-OPLS-2005>
0

> <r_mmod_RMS_Derivative-OPLS-2005>
5.94366598129272

$$$$
40
                    3D
 Structure written by MMmdl.
155163  0  0  1  0            999 V2000
  -30.4364  -15.3675   20.3925 C   0  0  0  0  0  0
  -30.4211  -12.8893   19.5548 C   0  0  0  0  0  0
  -29.5409  -12.5809   18.3149 C   0  0  0  0  0  0
  -28.0927  -12.2885   18.7397 C   0  0  0  0  0  0
  -27.5971  -13.2879   19.8163 C   0  0  2  0  0  0
  -28.6154  -13.5388   20.9492 C   0  0  0  0  0  0
  -25.2319  -13.8263   20.5788 C   0  0  0  0  0  0
  -24.1696  -13.0444   20.9310 C   0  0  0  0  0  0
  -24.6373  -11.6941   20.8797 C   0  0  0  0  0  0
  -23.9080  -10.4296   21.0388 C   0  0  0  0  0  0
  -24.3655   -9.4174   21.9115 C   0  0  0  0  0  0
  -23.6322   -8.2217   22.0718 C   0  0  0  0  0  0
  -22.4285   -8.0265   21.3539 C   0  0  0  0  0  0
  -21.9893   -9.0241   20.4648 C   0  0  0  0  0  0
  -22.7222  -10.2124   20.3070 C   0  0  0  0  0  0
  -21.6876   -6.0728   22.5283 C   0  0  0  0  0  0
  -21.4034   -6.5627   23.8224 C   0  0  0  0  0  0
  -21.3685   -5.6778   24.9194 C   0  0  0  0  0  0
  -21.6069   -4.3040   24.7237 C   0  0  0  0  0  0
  -21.8822   -3.8131   23.4348 C   0  0  0  0  0  0
  -21.9190   -4.6952   22.3407 C   0  0  0  0  0  0
  -22.7697  -13.5170   21.1927 C   0  0  0  0  0  0
  -22.1640   -4.2154   21.0978 F   0  0  0  0  0  0
  -21.5629   -3.4500   25.7726 F   0  0  0  0  0  0
  -29.8306  -14.0701   20.3065 N   0  0  0  0  0  0
  -26.2748  -12.9563   20.3214 N   0  0  0  0  0  0
  -25.9310  -11.6665   20.5734 N   0  0  0  0  0  0
  -22.0379  -12.8137   22.0480 N   0  0  0  0  0  0
  -25.3920  -15.2010   20.4221 N   0  0  0  0  0  0
  -31.6648  -15.2738   20.2406 O   0  0  0  0  0  0
  -21.6635   -6.8870   21.4246 O   0  0  0  0  0  0
  -22.3346  -14.5461   20.6753 O   0  0  0  0  0  0
  -24.6704  -31.8180   23.1603 C   0  0  0  0  0  0
  -25.9382  -32.4530   23.8088 C   0  0  1  0  0  0
  -27.2100  -26.8575   20.1995 C   0  0  0  0  0  0
  -25.6028  -33.8339   24.2023 N   0  0  0  0  0  0
  -23.4835  -30.4265   21.5092 C   0  0  2  0  0  0
  -24.9343  -28.7951   20.1109 C   0  0  0  0  0  0
  -22.7690  -29.4406   22.4692 C   0  0  0  0  0  0
  -18.0340  -28.1433   22.8490 C   0  0  0  0  0  0
  -24.1489  -36.7187   23.2650 C   0  0  0  0  0  0
  -26.0543  -30.6006   21.3973 C   0  0  0  0  0  0
  -26.1198  -29.1809   20.7499 C   0  0  0  0  0  0
  -27.2497  -28.2363   20.7647 C   0  0  0  0  0  0
  -25.9988  -26.6387   19.5042 C   0  0  0  0  0  0
  -24.9041  -27.5468   19.4664 C   0  0  0  0  0  0
  -23.7263  -29.7378   20.1380 C   0  0  0  0  0  0
  -25.4129  -36.2932   24.0298 C   0  0  1  0  0  0
  -20.5965  -28.3789   23.1158 C   0  0  2  0  0  0
  -20.6822  -26.9460   22.5396 C   0  0  0  0  0  0
  -19.5794  -26.6408   21.5198 C   0  0  0  0  0  0
  -18.1977  -26.7962   22.1621 C   0  0  0  0  0  0
  -19.1606  -28.8930   23.2812 C   0  0  0  0  0  0
  -18.9506  -30.1506   23.8851 C   0  0  0  0  0  0
  -17.6508  -30.6619   24.0580 C   0  0  0  0  0  0
  -25.9111  -34.9311   23.4981 C   0  0  0  0  0  0
  -16.5388  -29.9114   23.6364 C   0  0  0  0  0  0
  -16.7319  -28.6537   23.0370 C   0  0  0  0  0  0
  -26.4581  -31.6485   25.0642 C   0  0  0  0  0  0
  -25.3726  -31.3752   26.1327 C   0  0  0  0  0  0
  -27.0483  -30.2845   24.6416 C   0  0  0  0  0  0
  -27.6046  -32.4282   25.7482 C   0  0  0  0  0  0
  -27.5547  -37.1758   24.8467 C   0  0  0  0  0  0
  -21.4354  -29.3030   22.3463 N   0  0  0  0  0  0
  -26.4253  -37.3687   23.9425 N   0  0  0  0  0  0
  -24.7577  -30.9770   22.0763 N   0  0  0  0  0  0
  -23.4212  -28.8004   23.2977 O   0  0  0  0  0  0
  -28.2012  -25.7231   20.2993 O   0  0  0  0  0  0
  -26.5683  -34.8878   22.4555 O   0  0  0  0  0  0
  -23.5767  -32.1168   23.6687 O   0  0  0  0  0  0
  -27.8062  -19.2818   23.2783 C   0  0  0  0  0  0
  -28.1896  -20.0419   22.1745 C   0  0  0  0  0  0
  -28.8102  -17.3330   22.2867 C   0  0  0  0  0  0
  -29.2159  -17.9809   21.0779 C   0  0  0  0  0  0
  -28.1224  -17.9341   23.3526 C   0  0  0  0  0  0
  -28.8873  -19.5743   21.0284 C   0  0  0  0  0  0
  -28.3108  -15.0391   25.2298 C   0  0  0  0  0  0
  -28.6236  -16.5432   25.2306 C   0  0  0  0  0  0
  -27.9895  -24.0605   20.1104 C   0  0  0  0  0  0
  -28.9069  -22.5101   20.5295 C   0  0  0  0  0  0
  -29.8118  -16.7375   20.2127 N   0  0  0  0  0  0
  -27.6584  -17.2302   24.4403 O   0  0  0  0  0  0
  -28.9577  -20.8500   20.1605 O   0  0  0  0  0  0
  -31.4446  -13.0889   19.2281 H   0  0  0  0  0  0
  -30.4902  -12.0116   20.2012 H   0  0  0  0  0  0
  -29.9455  -11.7293   17.7666 H   0  0  0  0  0  0
  -29.5629  -13.4316   17.6319 H   0  0  0  0  0  0
  -28.0654  -11.2735   19.1374 H   0  0  0  0  0  0
  -27.4242  -12.2905   17.8791 H   0  0  0  0  0  0
  -27.4910  -14.2331   19.2833 H   0  0  0  0  0  0
  -28.8055  -12.6378   21.5340 H   0  0  0  0  0  0
  -28.2149  -14.2767   21.6449 H   0  0  0  0  0  0
  -25.2835   -9.5602   22.4641 H   0  0  0  0  0  0
  -24.0054   -7.4611   22.7437 H   0  0  0  0  0  0
  -21.0789   -8.8759   19.9006 H   0  0  0  0  0  0
  -22.3609  -10.9678   19.6231 H   0  0  0  0  0  0
  -21.2017   -7.6139   23.9718 H   0  0  0  0  0  0
  -21.1495   -6.0512   25.9097 H   0  0  0  0  0  0
  -22.0561   -2.7582   23.2834 H   0  0  0  0  0  0
  -22.3997  -11.9782   22.4851 H   0  0  0  0  0  0
  -21.0999  -13.1147   22.2673 H   0  0  0  0  0  0
  -24.6208  -15.8507   20.5429 H   0  0  0  0  0  0
  -26.2425  -15.6425   20.0970 H   0  0  0  0  0  0
  -26.7462  -32.5078   23.0800 H   0  0  0  0  0  0
  -25.0187  -33.9375   25.0175 H   0  0  0  0  0  0
  -22.7981  -31.2611   21.3364 H   0  0  0  0  0  0
  -23.3747  -35.9523   23.3270 H   0  0  0  0  0  0
  -24.3580  -36.8876   22.2079 H   0  0  0  0  0  0
  -23.7249  -37.6373   23.6714 H   0  0  0  0  0  0
  -26.2373  -31.3257   20.6026 H   0  0  0  0  0  0
  -26.9137  -30.6733   22.0532 H   0  0  0  0  0  0
  -28.1476  -28.5304   21.2873 H   0  0  0  0  0  0
  -25.8608  -25.6873   19.0112 H   0  0  0  0  0  0
  -24.0072  -27.2486   18.9421 H   0  0  0  0  0  0
  -23.8971  -30.5049   19.3781 H   0  0  0  0  0  0
  -22.8347  -29.2023   19.8126 H   0  0  0  0  0  0
  -25.1319  -36.1701   25.0784 H   0  0  0  0  0  0
  -21.0065  -28.3417   24.1280 H   0  0  0  0  0  0
  -20.5688  -26.2396   23.3647 H   0  0  0  0  0  0
  -21.6688  -26.7408   22.1220 H   0  0  0  0  0  0
  -19.6931  -25.6297   21.1299 H   0  0  0  0  0  0
  -19.6756  -27.3152   20.6677 H   0  0  0  0  0  0
  -17.4253  -26.6698   21.4027 H   0  0  0  0  0  0
  -18.0388  -26.0059   22.8988 H   0  0  0  0  0  0
  -19.7952  -30.7368   24.2165 H   0  0  0  0  0  0
  -17.5040  -31.6292   24.5212 H   0  0  0  0  0  0
  -15.5378  -30.3046   23.7692 H   0  0  0  0  0  0
  -15.8695  -28.0878   22.7091 H   0  0  0  0  0  0
  -24.5946  -30.7020   25.7687 H   0  0  0  0  0  0
  -24.8889  -32.2971   26.4582 H   0  0  0  0  0  0
  -25.8028  -30.9095   27.0212 H   0  0  0  0  0  0
  -26.3150  -29.6509   24.1413 H   0  0  0  0  0  0
  -27.3964  -29.7210   25.5075 H   0  0  0  0  0  0
  -27.9122  -30.3979   23.9858 H   0  0  0  0  0  0
  -27.2581  -33.3638   26.1883 H   0  0  0  0  0  0
  -28.3977  -32.6734   25.0398 H   0  0  0  0  0  0
  -28.0571  -31.8523   26.5570 H   0  0  0  0  0  0
  -28.2542  -38.0067   24.7497 H   0  0  0  0  0  0
  -28.1060  -36.2588   24.6299 H   0  0  0  0  0  0
  -27.2281  -37.1426   25.8876 H   0  0  0  0  0  0
  -20.9578  -29.8746   21.6639 H   0  0  0  0  0  0
  -26.0088  -38.2751   24.1426 H   0  0  0  0  0  0
  -27.2470  -19.7440   24.0807 H   0  0  0  0  0  0
  -27.8452  -21.0583   22.2332 H   0  0  0  0  0  0
  -28.9696  -16.2749   22.4196 H   0  0  0  0  0  0
  -28.9852  -14.5078   25.9014 H   0  0  0  0  0  0
  -28.4121  -14.5994   24.2363 H   0  0  0  0  0  0
  -27.2936  -14.8493   25.5810 H   0  0  0  0  0  0
  -29.6525  -16.7380   24.9153 H   0  0  0  0  0  0
  -28.5374  -16.9287   26.2501 H   0  0  0  0  0  0
  -26.9947  -23.8982   20.5265 H   0  0  0  0  0  0
  -27.8298  -23.9776   19.0363 H   0  0  0  0  0  0
  -29.0957  -22.5929   21.5983 H   0  0  0  0  0  0
  -29.8846  -22.7657   20.1212 H   0  0  0  0  0  0
  -30.2683  -17.1305   19.4016 H   0  0  0  0  0  0
  1 25  1  0  0  0
  1 30  2  0  0  0
  1 81  1  0  0  0
  2  3  1  0  0  0
  2 25  1  0  0  0
  2 84  1  0  0  0
  2 85  1  0  0  0
  3  4  1  0  0  0
  3 86  1  0  0  0
  3 87  1  0  0  0
  4  5  1  0  0  0
  4 88  1  0  0  0
  4 89  1  0  0  0
  5  6  1  0  0  0
  5 26  1  0  0  0
  5 90  1  0  0  0
  6 25  1  0  0  0
  6 91  1  0  0  0
  6 92  1  0  0  0
  7  8  2  0  0  0
  7 26  1  0  0  0
  7 29  1  0  0  0
  8  9  1  0  0  0
  8 22  1  0  0  0
  9 10  1  0  0  0
  9 27  2  0  0  0
 10 11  2  0  0  0
 10 15  1  0  0  0
 11 12  1  0  0  0
 11 93  1  0  0  0
 12 13  2  0  0  0
 12 94  1  0  0  0
 13 14  1  0  0  0
 13 31  1  0  0  0
 14 15  2  0  0  0
 14 95  1  0  0  0
 15 96  1  0  0  0
 16 17  2  0  0  0
 16 21  1  0  0  0
 16 31  1  0  0  0
 17 18  1  0  0  0
 17 97  1  0  0  0
 18 19  2  0  0  0
 18 98  1  0  0  0
 19 20  1  0  0  0
 19 24  1  0  0  0
 20 21  2  0  0  0
 20 99  1  0  0  0
 21 23  1  0  0  0
 22 28  1  0  0  0
 22 32  2  0  0  0
 26 27  1  0  0  0
 28100  1  0  0  0
 28101  1  0  0  0
 29102  1  0  0  0
 29103  1  0  0  0
 33 34  1  0  0  0
 33 66  1  0  0  0
 33 70  2  0  0  0
 34 36  1  0  0  0
 34 59  1  0  0  0
 34104  1  0  0  0
 35 44  2  0  0  0
 35 45  1  0  0  0
 35 68  1  0  0  0
 36 56  1  0  0  0
 36105  1  0  0  0
 37 39  1  0  0  0
 37 47  1  0  0  0
 37 66  1  0  0  0
 37106  1  0  0  0
 38 43  2  0  0  0
 38 46  1  0  0  0
 38 47  1  0  0  0
 39 64  1  0  0  0
 39 67  2  0  0  0
 40 52  1  0  0  0
 40 53  2  0  0  0
 40 58  1  0  0  0
 41107  1  0  0  0
 41108  1  0  0  0
 41109  1  0  0  0
 41 48  1  0  0  0
 42 43  1  0  0  0
 42 66  1  0  0  0
 42110  1  0  0  0
 42111  1  0  0  0
 43 44  1  0  0  0
 44112  1  0  0  0
 45 46  2  0  0  0
 45113  1  0  0  0
 46114  1  0  0  0
 47115  1  0  0  0
 47116  1  0  0  0
 48 56  1  0  0  0
 48 65  1  0  0  0
 48117  1  0  0  0
 49 50  1  0  0  0
 49 53  1  0  0  0
 49 64  1  0  0  0
 49118  1  0  0  0
 50 51  1  0  0  0
 50119  1  0  0  0
 50120  1  0  0  0
 51 52  1  0  0  0
 51121  1  0  0  0
 51122  1  0  0  0
 52123  1  0  0  0
 52124  1  0  0  0
 53 54  1  0  0  0
 54 55  2  0  0  0
 54125  1  0  0  0
 55 57  1  0  0  0
 55126  1  0  0  0
 56 69  2  0  0  0
 57 58  2  0  0  0
 57127  1  0  0  0
 58128  1  0  0  0
 59 60  1  0  0  0
 59 61  1  0  0  0
 59 62  1  0  0  0
 60129  1  0  0  0
 60130  1  0  0  0
 60131  1  0  0  0
 61132  1  0  0  0
 61133  1  0  0  0
 61134  1  0  0  0
 62135  1  0  0  0
 62136  1  0  0  0
 62137  1  0  0  0
 63 65  1  0  0  0
 63138  1  0  0  0
 63139  1  0  0  0
 63140  1  0  0  0
 64141  1  0  0  0
 65142  1  0  0  0
 68 79  1  0  0  0
 71 72  2  0  0  0
 71 75  1  0  0  0
 71143  1  0  0  0
 72 76  1  0  0  0
 72144  1  0  0  0
 73 74  1  0  0  0
 73 75  2  0  0  0
 73145  1  0  0  0
 74 76  2  0  0  0
 74 81  1  0  0  0
 75 82  1  0  0  0
 76 83  1  0  0  0
 77 78  1  0  0  0
 77146  1  0  0  0
 77147  1  0  0  0
 77148  1  0  0  0
 78 82  1  0  0  0
 78149  1  0  0  0
 78150  1  0  0  0
 79 80  1  0  0  0
 79151  1  0  0  0
 79152  1  0  0  0
 80 83  1  0  0  0
 80153  1  0  0  0
 80154  1  0  0  0
 81155  1  0  0  0
M  ISO  4   1 100  68 101  79 101  81 100
M  END
> <chiral flag>
0

> <version>
0

> <s_m_source_file>
/data/baiqing/PycharmProjects/Reinvent-master-3.2/result/LINK_invent/BTK/process_docking_weight1_custom_sum_contain_oxygen_bond_distance_aromatic_linkinvent_7_9_3/rearranged_h_0007.sdf

> <i_m_source_file_index>
41

> <r_mmod_Potential_Energy-OPLS-2005>
1810.47216796875

> <r_mmod_Stretch_Energy-OPLS-2005>
773.992797851562

> <r_mmod_Bend_Energy-OPLS-2005>
637.254089355469

> <r_mmod_Torsional_Energy-OPLS-2005>
291.145568847656

> <r_mmod_Improper_Torsional_Energy-OPLS-2005>
16.961181640625

> <r_mmod_Van_der_Waal_Energy-OPLS-2005>
130.802703857422

> <r_mmod_Electrostatic_Energy-OPLS-2005>
-400.641204833984

> <r_mmod_Solvation_Energy-OPLS-2005>
-210.15771484375

> <b_mmod_Minimization_Converged-OPLS-2005>
0

> <r_mmod_RMS_Derivative-OPLS-2005>
4.84457349777222

$$$$
41
                    3D
 Structure written by MMmdl.
155163  0  0  1  0            999 V2000
  -30.5950  -14.6315   20.4925 C   0  0  0  0  0  0
  -30.4374  -12.3855   19.4466 C   0  0  0  0  0  0
  -29.5010  -12.5049   18.2211 C   0  0  0  0  0  0
  -28.0252  -12.3423   18.6373 C   0  0  0  0  0  0
  -27.6533  -13.2092   19.8713 C   0  0  2  0  0  0
  -28.6985  -13.0408   20.9968 C   0  0  0  0  0  0
  -25.2530  -13.8127   20.5671 C   0  0  0  0  0  0
  -24.1800  -13.0391   20.9175 C   0  0  0  0  0  0
  -24.6375  -11.6872   20.8736 C   0  0  0  0  0  0
  -23.9055  -10.4254   21.0409 C   0  0  0  0  0  0
  -24.3621   -9.4187   21.9196 C   0  0  0  0  0  0
  -23.6296   -8.2227   22.0765 C   0  0  0  0  0  0
  -22.4268   -8.0287   21.3567 C   0  0  0  0  0  0
  -21.9902   -9.0251   20.4659 C   0  0  0  0  0  0
  -22.7226  -10.2124   20.3054 C   0  0  0  0  0  0
  -21.6846   -6.0739   22.5289 C   0  0  0  0  0  0
  -21.4007   -6.5647   23.8224 C   0  0  0  0  0  0
  -21.3654   -5.6809   24.9195 C   0  0  0  0  0  0
  -21.6050   -4.3072   24.7236 C   0  0  0  0  0  0
  -21.8814   -3.8157   23.4351 C   0  0  0  0  0  0
  -21.9199   -4.6973   22.3412 C   0  0  0  0  0  0
  -22.7840  -13.5214   21.1890 C   0  0  0  0  0  0
  -22.1668   -4.2164   21.0992 F   0  0  0  0  0  0
  -21.5632   -3.4550   25.7745 F   0  0  0  0  0  0
  -30.0128  -13.3935   20.4340 N   0  0  0  0  0  0
  -26.2985  -12.9312   20.3398 N   0  0  0  0  0  0
  -25.9308  -11.6467   20.5790 N   0  0  0  0  0  0
  -22.0506  -12.8182   22.0455 N   0  0  0  0  0  0
  -25.4163  -15.1833   20.4085 N   0  0  0  0  0  0
  -31.7482  -14.8236   20.0949 O   0  0  0  0  0  0
  -21.6641   -6.8881   21.4248 O   0  0  0  0  0  0
  -22.3530  -14.5558   20.6814 O   0  0  0  0  0  0
  -24.6242  -31.8595   23.2020 C   0  0  0  0  0  0
  -25.9075  -32.4783   23.8368 C   0  0  1  0  0  0
  -27.2278  -27.3358   20.1058 C   0  0  0  0  0  0
  -25.5920  -33.8580   24.2313 N   0  0  0  0  0  0
  -23.4167  -30.4807   21.5456 C   0  0  2  0  0  0
  -24.8650  -28.9334   20.1175 C   0  0  0  0  0  0
  -22.7478  -29.4589   22.4926 C   0  0  0  0  0  0
  -18.0295  -28.1373   22.8464 C   0  0  0  0  0  0
  -24.1492  -36.7272   23.2647 C   0  0  0  0  0  0
  -25.9588  -30.7974   21.3698 C   0  0  0  0  0  0
  -26.0350  -29.4241   20.7124 C   0  0  0  0  0  0
  -27.2222  -28.6341   20.6949 C   0  0  0  0  0  0
  -26.0384  -26.8887   19.4940 C   0  0  0  0  0  0
  -24.8644  -27.6707   19.5010 C   0  0  0  0  0  0
  -23.6340  -29.8129   20.1653 C   0  0  0  0  0  0
  -25.4122  -36.3073   24.0359 C   0  0  1  0  0  0
  -20.5903  -28.3638   23.1288 C   0  0  2  0  0  0
  -20.6782  -26.9355   22.5420 C   0  0  0  0  0  0
  -19.5765  -26.6361   21.5205 C   0  0  0  0  0  0
  -18.1931  -26.7906   22.1616 C   0  0  0  0  0  0
  -19.1559  -28.8814   23.2854 C   0  0  0  0  0  0
  -18.9477  -30.1422   23.8855 C   0  0  0  0  0  0
  -17.6472  -30.6544   24.0540 C   0  0  0  0  0  0
  -25.9050  -34.9449   23.5125 C   0  0  0  0  0  0
  -16.5347  -29.9040   23.6330 C   0  0  0  0  0  0
  -16.7289  -28.6483   23.0309 C   0  0  0  0  0  0
  -26.4477  -31.6587   25.0711 C   0  0  0  0  0  0
  -25.3719  -31.3715   26.1453 C   0  0  0  0  0  0
  -27.0357  -30.3039   24.6116 C   0  0  0  0  0  0
  -27.6056  -32.4317   25.7471 C   0  0  0  0  0  0
  -27.5586  -37.1786   24.8465 C   0  0  0  0  0  0
  -21.4190  -29.3004   22.3692 N   0  0  0  0  0  0
  -26.4301  -37.3767   23.9411 N   0  0  0  0  0  0
  -24.6849  -31.0613   22.0968 N   0  0  0  0  0  0
  -23.4216  -28.8137   23.2985 O   0  0  0  0  0  0
  -28.3416  -26.4915   20.1152 O   0  0  0  0  0  0
  -26.5603  -34.8889   22.4670 O   0  0  0  0  0  0
  -23.5408  -32.1419   23.7350 O   0  0  0  0  0  0
  -30.4086  -19.2875   19.7746 C   0  0  0  0  0  0
  -30.6499  -17.8942   20.0054 C   0  0  0  0  0  0
  -28.1985  -19.0702   20.7085 C   0  0  0  0  0  0
  -29.1759  -19.9115   20.1197 C   0  0  0  0  0  0
  -29.6637  -17.0629   20.6068 C   0  0  0  0  0  0
  -28.4453  -17.6926   20.9642 C   0  0  0  0  0  0
  -29.0862  -22.4638   20.3991 C   0  0  0  0  0  0
  -27.3249  -17.1037   22.9281 C   0  0  0  0  0  0
  -28.4048  -23.8088   19.8831 C   0  0  0  0  0  0
  -28.1612  -25.1543   20.7223 C   0  0  0  0  0  0
  -28.8291  -21.2825   19.7494 N   0  0  0  0  0  0
  -29.7592  -15.6352   20.8895 N   0  0  0  0  0  0
  -29.8346  -22.4910   21.3851 O   0  0  0  0  0  0
  -27.4607  -16.9239   21.5240 O   0  0  0  0  0  0
  -31.4788  -12.5168   19.1485 H   0  0  0  0  0  0
  -30.3806  -11.3844   19.8751 H   0  0  0  0  0  0
  -29.7570  -11.7483   17.4806 H   0  0  0  0  0  0
  -29.6429  -13.4724   17.7328 H   0  0  0  0  0  0
  -27.8628  -11.2880   18.8655 H   0  0  0  0  0  0
  -27.3676  -12.5812   17.8002 H   0  0  0  0  0  0
  -27.6770  -14.2475   19.5449 H   0  0  0  0  0  0
  -28.7106  -12.0066   21.3504 H   0  0  0  0  0  0
  -28.4407  -13.6457   21.8670 H   0  0  0  0  0  0
  -25.2754   -9.5689   22.4789 H   0  0  0  0  0  0
  -24.0037   -7.4598   22.7447 H   0  0  0  0  0  0
  -21.0864   -8.8741   19.8929 H   0  0  0  0  0  0
  -22.3689  -10.9674   19.6169 H   0  0  0  0  0  0
  -21.1975   -7.6139   23.9738 H   0  0  0  0  0  0
  -21.1492   -6.0534   25.9112 H   0  0  0  0  0  0
  -22.0591   -2.7612   23.2851 H   0  0  0  0  0  0
  -22.4129  -11.9809   22.4763 H   0  0  0  0  0  0
  -21.1138  -13.1207   22.2745 H   0  0  0  0  0  0
  -24.6526  -15.8302   20.5662 H   0  0  0  0  0  0
  -26.3106  -15.6509   20.3018 H   0  0  0  0  0  0
  -26.7143  -32.5455   23.1131 H   0  0  0  0  0  0
  -25.0036  -33.9729   25.0432 H   0  0  0  0  0  0
  -22.7079  -31.2997   21.4003 H   0  0  0  0  0  0
  -23.3733  -35.9615   23.3301 H   0  0  0  0  0  0
  -24.3577  -36.8884   22.2047 H   0  0  0  0  0  0
  -23.7273  -37.6488   23.6666 H   0  0  0  0  0  0
  -26.0874  -31.5625   20.6025 H   0  0  0  0  0  0
  -26.8393  -30.8450   21.9967 H   0  0  0  0  0  0
  -28.1268  -29.0014   21.1573 H   0  0  0  0  0  0
  -26.0152  -25.9201   19.0144 H   0  0  0  0  0  0
  -23.9655  -27.2870   19.0361 H   0  0  0  0  0  0
  -23.7586  -30.5912   19.4117 H   0  0  0  0  0  0
  -22.7522  -29.2471   19.8635 H   0  0  0  0  0  0
  -25.1285  -36.1934   25.0848 H   0  0  0  0  0  0
  -20.9989  -28.3219   24.1405 H   0  0  0  0  0  0
  -20.5666  -26.2224   23.3598 H   0  0  0  0  0  0
  -21.6638  -26.7381   22.1186 H   0  0  0  0  0  0
  -19.6890  -25.6272   21.1215 H   0  0  0  0  0  0
  -19.6718  -27.3187   20.6735 H   0  0  0  0  0  0
  -17.4198  -26.6652   21.4006 H   0  0  0  0  0  0
  -18.0297  -26.0056   22.9035 H   0  0  0  0  0  0
  -19.7961  -30.7243   24.2208 H   0  0  0  0  0  0
  -17.5037  -31.6252   24.5122 H   0  0  0  0  0  0
  -15.5349  -30.2910   23.7704 H   0  0  0  0  0  0
  -15.8695  -28.0816   22.6991 H   0  0  0  0  0  0
  -24.5891  -30.7065   25.7771 H   0  0  0  0  0  0
  -24.8868  -32.2863   26.4872 H   0  0  0  0  0  0
  -25.8024  -30.8896   27.0242 H   0  0  0  0  0  0
  -26.2946  -29.6760   24.1171 H   0  0  0  0  0  0
  -27.4122  -29.7333   25.4609 H   0  0  0  0  0  0
  -27.8765  -30.4306   23.9298 H   0  0  0  0  0  0
  -27.2715  -33.3642   26.2032 H   0  0  0  0  0  0
  -28.3876  -32.6872   25.0286 H   0  0  0  0  0  0
  -28.0731  -31.8454   26.5376 H   0  0  0  0  0  0
  -28.2584  -38.0098   24.7501 H   0  0  0  0  0  0
  -28.1115  -36.2629   24.6317 H   0  0  0  0  0  0
  -27.2289  -37.1435   25.8866 H   0  0  0  0  0  0
  -20.9352  -29.8753   21.6947 H   0  0  0  0  0  0
  -26.0176  -38.2832   24.1433 H   0  0  0  0  0  0
  -31.1803  -19.8725   19.2946 H   0  0  0  0  0  0
  -31.5975  -17.4717   19.7035 H   0  0  0  0  0  0
  -27.2266  -19.4776   20.9485 H   0  0  0  0  0  0
  -27.0364  -18.1283   23.1946 H   0  0  0  0  0  0
  -28.2601  -16.8597   23.4439 H   0  0  0  0  0  0
  -26.5511  -16.4242   23.2920 H   0  0  0  0  0  0
  -29.4606  -24.0592   19.7742 H   0  0  0  0  0  0
  -27.7391  -23.3153   20.5961 H   0  0  0  0  0  0
  -28.8193  -25.1308   21.5931 H   0  0  0  0  0  0
  -27.1609  -25.1238   21.1653 H   0  0  0  0  0  0
  -28.1803  -21.3626   18.9762 H   0  0  0  0  0  0
  -28.9012  -15.2710   21.2778 H   0  0  0  0  0  0
  1 25  1  0  0  0
  1 30  2  0  0  0
  1 82  1  0  0  0
  2  3  1  0  0  0
  2 25  1  0  0  0
  2 85  1  0  0  0
  2 86  1  0  0  0
  3  4  1  0  0  0
  3 87  1  0  0  0
  3 88  1  0  0  0
  4  5  1  0  0  0
  4 89  1  0  0  0
  4 90  1  0  0  0
  5  6  1  0  0  0
  5 26  1  0  0  0
  5 91  1  0  0  0
  6 25  1  0  0  0
  6 92  1  0  0  0
  6 93  1  0  0  0
  7  8  2  0  0  0
  7 26  1  0  0  0
  7 29  1  0  0  0
  8  9  1  0  0  0
  8 22  1  0  0  0
  9 10  1  0  0  0
  9 27  2  0  0  0
 10 11  2  0  0  0
 10 15  1  0  0  0
 11 12  1  0  0  0
 11 94  1  0  0  0
 12 13  2  0  0  0
 12 95  1  0  0  0
 13 14  1  0  0  0
 13 31  1  0  0  0
 14 15  2  0  0  0
 14 96  1  0  0  0
 15 97  1  0  0  0
 16 17  2  0  0  0
 16 21  1  0  0  0
 16 31  1  0  0  0
 17 18  1  0  0  0
 17 98  1  0  0  0
 18 19  2  0  0  0
 18 99  1  0  0  0
 19 20  1  0  0  0
 19 24  1  0  0  0
 20 21  2  0  0  0
 20100  1  0  0  0
 21 23  1  0  0  0
 22 28  1  0  0  0
 22 32  2  0  0  0
 26 27  1  0  0  0
 28101  1  0  0  0
 28102  1  0  0  0
 29103  1  0  0  0
 29104  1  0  0  0
 33 34  1  0  0  0
 33 66  1  0  0  0
 33 70  2  0  0  0
 34 36  1  0  0  0
 34 59  1  0  0  0
 34105  1  0  0  0
 35 44  2  0  0  0
 35 45  1  0  0  0
 35 68  1  0  0  0
 36 56  1  0  0  0
 36106  1  0  0  0
 37 39  1  0  0  0
 37 47  1  0  0  0
 37 66  1  0  0  0
 37107  1  0  0  0
 38 43  2  0  0  0
 38 46  1  0  0  0
 38 47  1  0  0  0
 39 64  1  0  0  0
 39 67  2  0  0  0
 40 52  1  0  0  0
 40 53  2  0  0  0
 40 58  1  0  0  0
 41108  1  0  0  0
 41109  1  0  0  0
 41110  1  0  0  0
 41 48  1  0  0  0
 42 43  1  0  0  0
 42 66  1  0  0  0
 42111  1  0  0  0
 42112  1  0  0  0
 43 44  1  0  0  0
 44113  1  0  0  0
 45 46  2  0  0  0
 45114  1  0  0  0
 46115  1  0  0  0
 47116  1  0  0  0
 47117  1  0  0  0
 48 56  1  0  0  0
 48 65  1  0  0  0
 48118  1  0  0  0
 49 50  1  0  0  0
 49 53  1  0  0  0
 49 64  1  0  0  0
 49119  1  0  0  0
 50 51  1  0  0  0
 50120  1  0  0  0
 50121  1  0  0  0
 51 52  1  0  0  0
 51122  1  0  0  0
 51123  1  0  0  0
 52124  1  0  0  0
 52125  1  0  0  0
 53 54  1  0  0  0
 54 55  2  0  0  0
 54126  1  0  0  0
 55 57  1  0  0  0
 55127  1  0  0  0
 56 69  2  0  0  0
 57 58  2  0  0  0
 57128  1  0  0  0
 58129  1  0  0  0
 59 60  1  0  0  0
 59 61  1  0  0  0
 59 62  1  0  0  0
 60130  1  0  0  0
 60131  1  0  0  0
 60132  1  0  0  0
 61133  1  0  0  0
 61134  1  0  0  0
 61135  1  0  0  0
 62136  1  0  0  0
 62137  1  0  0  0
 62138  1  0  0  0
 63 65  1  0  0  0
 63139  1  0  0  0
 63140  1  0  0  0
 63141  1  0  0  0
 64142  1  0  0  0
 65143  1  0  0  0
 68 80  1  0  0  0
 71 72  2  0  0  0
 71 74  1  0  0  0
 71144  1  0  0  0
 72 75  1  0  0  0
 72145  1  0  0  0
 73 74  2  0  0  0
 73 76  1  0  0  0
 73146  1  0  0  0
 74 81  1  0  0  0
 75 76  2  0  0  0
 75 82  1  0  0  0
 76 84  1  0  0  0
 77 79  1  0  0  0
 77 81  1  0  0  0
 77 83  2  0  0  0
 78 84  1  0  0  0
 78147  1  0  0  0
 78148  1  0  0  0
 78149  1  0  0  0
 79 80  1  0  0  0
 79150  1  0  0  0
 79151  1  0  0  0
 80152  1  0  0  0
 80153  1  0  0  0
 81154  1  0  0  0
 82155  1  0  0  0
M  ISO  4   1 100  68 101  80 101  82 100
M  END
> <chiral flag>
0

> <version>
0

> <s_m_source_file>
/data/baiqing/PycharmProjects/Reinvent-master-3.2/result/LINK_invent/BTK/process_docking_weight1_custom_sum_contain_oxygen_bond_distance_aromatic_linkinvent_7_9_3/rearranged_h_0007.sdf

> <i_m_source_file_index>
42

> <r_mmod_Potential_Energy-OPLS-2005>
236.195724487305

> <r_mmod_Stretch_Energy-OPLS-2005>
76.6696929931641

> <r_mmod_Bend_Energy-OPLS-2005>
352.335357666016

> <r_mmod_Torsional_Energy-OPLS-2005>
298.878570556641

> <r_mmod_Improper_Torsional_Energy-OPLS-2005>
5.35673141479492

> <r_mmod_Van_der_Waal_Energy-OPLS-2005>
145.920150756836

> <r_mmod_Electrostatic_Energy-OPLS-2005>
-461.739379882812

> <r_mmod_Solvation_Energy-OPLS-2005>
-225.668060302734

> <b_mmod_Minimization_Converged-OPLS-2005>
0

> <r_mmod_RMS_Derivative-OPLS-2005>
4.69838666915894

$$$$
42
                    3D
 Structure written by MMmdl.
170178  0  0  1  0            999 V2000
  -30.7426  -14.3812   20.6445 C   0  0  0  0  0  0
  -30.4166  -12.2798   19.3959 C   0  0  0  0  0  0
  -29.4842  -12.5213   18.1917 C   0  0  0  0  0  0
  -28.0062  -12.3858   18.6047 C   0  0  0  0  0  0
  -27.6663  -13.2018   19.8800 C   0  0  2  0  0  0
  -28.7046  -12.9313   20.9917 C   0  0  0  0  0  0
  -25.2599  -13.8156   20.5670 C   0  0  0  0  0  0
  -24.1836  -13.0440   20.9161 C   0  0  0  0  0  0
  -24.6385  -11.6906   20.8719 C   0  0  0  0  0  0
  -23.9052  -10.4297   21.0397 C   0  0  0  0  0  0
  -24.3610   -9.4212   21.9176 C   0  0  0  0  0  0
  -23.6289   -8.2244   22.0747 C   0  0  0  0  0  0
  -22.4268   -8.0277   21.3540 C   0  0  0  0  0  0
  -21.9901   -9.0250   20.4643 C   0  0  0  0  0  0
  -22.7225  -10.2134   20.3047 C   0  0  0  0  0  0
  -21.6850   -6.0732   22.5278 C   0  0  0  0  0  0
  -21.4017   -6.5640   23.8212 C   0  0  0  0  0  0
  -21.3663   -5.6792   24.9176 C   0  0  0  0  0  0
  -21.6040   -4.3052   24.7228 C   0  0  0  0  0  0
  -21.8820   -3.8145   23.4350 C   0  0  0  0  0  0
  -21.9195   -4.6962   22.3403 C   0  0  0  0  0  0
  -22.7862  -13.5240   21.1840 C   0  0  0  0  0  0
  -22.1658   -4.2147   21.0981 F   0  0  0  0  0  0
  -21.5633   -3.4535   25.7743 F   0  0  0  0  0  0
  -30.0494  -13.2275   20.4580 N   0  0  0  0  0  0
  -26.3040  -12.9322   20.3376 N   0  0  0  0  0  0
  -25.9308  -11.6485   20.5744 N   0  0  0  0  0  0
  -22.0510  -12.8228   22.0404 N   0  0  0  0  0  0
  -25.4339  -15.1874   20.4084 N   0  0  0  0  0  0
  -31.7932  -14.6374   20.0491 O   0  0  0  0  0  0
  -21.6630   -6.8873   21.4237 O   0  0  0  0  0  0
  -22.3540  -14.5545   20.6694 O   0  0  0  0  0  0
  -24.6130  -31.8698   23.2090 C   0  0  0  0  0  0
  -25.9050  -32.4835   23.8367 C   0  0  1  0  0  0
  -27.2417  -27.4781   20.0848 C   0  0  0  0  0  0
  -25.5924  -33.8629   24.2316 N   0  0  0  0  0  0
  -23.3979  -30.4935   21.5493 C   0  0  2  0  0  0
  -24.8440  -28.9562   20.1203 C   0  0  0  0  0  0
  -22.7400  -29.4671   22.4991 C   0  0  0  0  0  0
  -18.0265  -28.1373   22.8501 C   0  0  0  0  0  0
  -24.1520  -36.7303   23.2641 C   0  0  0  0  0  0
  -25.9207  -30.8476   21.3549 C   0  0  0  0  0  0
  -26.0011  -29.4825   20.7086 C   0  0  0  0  0  0
  -27.2063  -28.7529   20.6855 C   0  0  0  0  0  0
  -26.0721  -26.9477   19.5052 C   0  0  0  0  0  0
  -24.8704  -27.6826   19.5219 C   0  0  0  0  0  0
  -23.6049  -29.8211   20.1648 C   0  0  0  0  0  0
  -25.4134  -36.3123   24.0351 C   0  0  1  0  0  0
  -20.5855  -28.3662   23.1320 C   0  0  2  0  0  0
  -20.6762  -26.9401   22.5423 C   0  0  0  0  0  0
  -19.5738  -26.6380   21.5221 C   0  0  0  0  0  0
  -18.1915  -26.7916   22.1628 C   0  0  0  0  0  0
  -19.1517  -28.8835   23.2914 C   0  0  0  0  0  0
  -18.9447  -30.1437   23.8937 C   0  0  0  0  0  0
  -17.6455  -30.6594   24.0571 C   0  0  0  0  0  0
  -25.9055  -34.9492   23.5125 C   0  0  0  0  0  0
  -16.5350  -29.9103   23.6307 C   0  0  0  0  0  0
  -16.7261  -28.6514   23.0341 C   0  0  0  0  0  0
  -26.4479  -31.6596   25.0680 C   0  0  0  0  0  0
  -25.3729  -31.3716   26.1422 C   0  0  0  0  0  0
  -27.0295  -30.3039   24.6019 C   0  0  0  0  0  0
  -27.6062  -32.4316   25.7454 C   0  0  0  0  0  0
  -27.5610  -37.1807   24.8473 C   0  0  0  0  0  0
  -21.4131  -29.3038   22.3736 N   0  0  0  0  0  0
  -26.4328  -37.3802   23.9412 N   0  0  0  0  0  0
  -24.6619  -31.0831   22.0976 N   0  0  0  0  0  0
  -23.4192  -28.8212   23.3011 O   0  0  0  0  0  0
  -28.4125  -26.7715   19.9915 O   0  0  0  0  0  0
  -26.5616  -34.8957   22.4681 O   0  0  0  0  0  0
  -23.5332  -32.1426   23.7520 O   0  0  0  0  0  0
  -31.3233  -17.4143   21.0521 C   0  0  0  0  0  0
  -29.2528  -18.6745   22.4690 C   0  0  0  0  0  0
  -30.2970  -16.6301   21.6298 C   0  0  0  0  0  0
  -30.2524  -19.4731   21.8667 C   0  0  0  0  0  0
  -29.2740  -17.2730   22.3485 C   0  0  0  0  0  0
  -31.2996  -18.8190   21.1632 C   0  0  0  0  0  0
  -30.9953  -25.1918   23.2566 C   0  0  0  0  0  0
  -30.5986  -21.7017   20.8315 C   0  0  0  0  0  0
  -32.2829  -22.2389   23.9433 C   0  0  0  0  0  0
  -31.0376  -21.3876   24.2694 C   0  0  0  0  0  0
  -32.3331  -23.6173   24.6322 C   0  0  0  0  0  0
  -29.8782  -21.5078   23.2585 C   0  0  0  0  0  0
  -29.4029  -26.7740   22.2236 C   0  0  0  0  0  0
  -28.7224  -25.9551   21.1116 C   0  0  0  0  0  0
  -30.1982  -15.2142   21.5414 N   0  0  0  0  0  0
  -31.1697  -24.4548   24.3525 N   0  0  0  0  0  0
  -29.8776  -25.9144   23.2998 N   0  0  0  0  0  0
  -30.1827  -20.8839   21.9684 N   0  0  0  0  0  0
  -31.7774  -25.2075   22.3062 O   0  0  0  0  0  0
  -28.2897  -16.5304   22.9119 F   0  0  0  0  0  0
  -32.3102  -19.5244   20.5973 F   0  0  0  0  0  0
  -31.4606  -12.3747   19.0921 H   0  0  0  0  0  0
  -30.3076  -11.2576   19.7610 H   0  0  0  0  0  0
  -29.7131  -11.8166   17.3913 H   0  0  0  0  0  0
  -29.6602  -13.5169   17.7812 H   0  0  0  0  0  0
  -27.8045  -11.3280   18.7761 H   0  0  0  0  0  0
  -27.3571  -12.6872   17.7818 H   0  0  0  0  0  0
  -27.7272  -14.2573   19.6146 H   0  0  0  0  0  0
  -28.6635  -11.8825   21.2887 H   0  0  0  0  0  0
  -28.4519  -13.4896   21.8934 H   0  0  0  0  0  0
  -25.2764   -9.5686   22.4743 H   0  0  0  0  0  0
  -24.0004   -7.4635   22.7461 H   0  0  0  0  0  0
  -21.0837   -8.8767   19.8948 H   0  0  0  0  0  0
  -22.3687  -10.9669   19.6150 H   0  0  0  0  0  0
  -21.2003   -7.6149   23.9718 H   0  0  0  0  0  0
  -21.1484   -6.0521   25.9080 H   0  0  0  0  0  0
  -22.0596   -2.7606   23.2850 H   0  0  0  0  0  0
  -22.4134  -11.9892   22.4795 H   0  0  0  0  0  0
  -21.1125  -13.1236   22.2612 H   0  0  0  0  0  0
  -24.6767  -15.8504   20.5300 H   0  0  0  0  0  0
  -26.3039  -15.6255   20.1342 H   0  0  0  0  0  0
  -26.7119  -32.5572   23.1132 H   0  0  0  0  0  0
  -25.0105  -33.9781   25.0488 H   0  0  0  0  0  0
  -22.6861  -31.3090   21.4083 H   0  0  0  0  0  0
  -23.3815  -35.9603   23.3319 H   0  0  0  0  0  0
  -24.3619  -36.8885   22.2050 H   0  0  0  0  0  0
  -23.7238  -37.6500   23.6639 H   0  0  0  0  0  0
  -26.0219  -31.6117   20.5817 H   0  0  0  0  0  0
  -26.8110  -30.9044   21.9684 H   0  0  0  0  0  0
  -28.1080  -29.1741   21.1095 H   0  0  0  0  0  0
  -26.0975  -25.9753   19.0346 H   0  0  0  0  0  0
  -23.9800  -27.2684   19.0696 H   0  0  0  0  0  0
  -23.7131  -30.5944   19.4027 H   0  0  0  0  0  0
  -22.7299  -29.2396   19.8681 H   0  0  0  0  0  0
  -25.1297  -36.2002   25.0843 H   0  0  0  0  0  0
  -20.9940  -28.3235   24.1439 H   0  0  0  0  0  0
  -20.5672  -26.2274   23.3612 H   0  0  0  0  0  0
  -21.6627  -26.7448   22.1206 H   0  0  0  0  0  0
  -19.6920  -25.6294   21.1240 H   0  0  0  0  0  0
  -19.6685  -27.3200   20.6765 H   0  0  0  0  0  0
  -17.4180  -26.6683   21.4031 H   0  0  0  0  0  0
  -18.0315  -26.0047   22.9009 H   0  0  0  0  0  0
  -19.7931  -30.7227   24.2345 H   0  0  0  0  0  0
  -17.5018  -31.6276   24.5161 H   0  0  0  0  0  0
  -15.5351  -30.3027   23.7602 H   0  0  0  0  0  0
  -15.8658  -28.0857   22.7020 H   0  0  0  0  0  0
  -24.5877  -30.7109   25.7733 H   0  0  0  0  0  0
  -24.8964  -32.2893   26.4886 H   0  0  0  0  0  0
  -25.8035  -30.8840   27.0173 H   0  0  0  0  0  0
  -26.2802  -29.6826   24.1093 H   0  0  0  0  0  0
  -27.4100  -29.7250   25.4448 H   0  0  0  0  0  0
  -27.8635  -30.4370   23.9119 H   0  0  0  0  0  0
  -27.2668  -33.3598   26.2077 H   0  0  0  0  0  0
  -28.3847  -32.6911   25.0263 H   0  0  0  0  0  0
  -28.0772  -31.8421   26.5332 H   0  0  0  0  0  0
  -28.2621  -38.0114   24.7536 H   0  0  0  0  0  0
  -28.1115  -36.2640   24.6287 H   0  0  0  0  0  0
  -27.2326  -37.1429   25.8878 H   0  0  0  0  0  0
  -20.9312  -29.8796   21.6978 H   0  0  0  0  0  0
  -26.0244  -38.2896   24.1390 H   0  0  0  0  0  0
  -32.1439  -16.9702   20.5122 H   0  0  0  0  0  0
  -28.4323  -19.1217   23.0053 H   0  0  0  0  0  0
  -31.6810  -21.8292   20.8019 H   0  0  0  0  0  0
  -30.1509  -22.6948   20.8795 H   0  0  0  0  0  0
  -30.2854  -21.2478   19.8901 H   0  0  0  0  0  0
  -32.4022  -22.3502   22.8665 H   0  0  0  0  0  0
  -33.1661  -21.6865   24.2668 H   0  0  0  0  0  0
  -30.6756  -21.6489   25.2647 H   0  0  0  0  0  0
  -31.3321  -20.3398   24.3445 H   0  0  0  0  0  0
  -33.2445  -24.1434   24.3424 H   0  0  0  0  0  0
  -32.3954  -23.4841   25.7127 H   0  0  0  0  0  0
  -29.6224  -22.5562   23.1049 H   0  0  0  0  0  0
  -28.9815  -21.0617   23.6873 H   0  0  0  0  0  0
  -28.7025  -27.4911   22.6506 H   0  0  0  0  0  0
  -30.2326  -27.3544   21.8142 H   0  0  0  0  0  0
  -27.8348  -25.4403   21.4858 H   0  0  0  0  0  0
  -29.4024  -25.1797   20.7561 H   0  0  0  0  0  0
  -29.4065  -14.8299   22.0353 H   0  0  0  0  0  0
  -30.4749  -24.5145   25.0829 H   0  0  0  0  0  0
  -29.2979  -25.8654   24.1259 H   0  0  0  0  0  0
  1 25  1  0  0  0
  1 30  2  0  0  0
  1 85  1  0  0  0
  2  3  1  0  0  0
  2 25  1  0  0  0
  2 92  1  0  0  0
  2 93  1  0  0  0
  3  4  1  0  0  0
  3 94  1  0  0  0
  3 95  1  0  0  0
  4  5  1  0  0  0
  4 96  1  0  0  0
  4 97  1  0  0  0
  5  6  1  0  0  0
  5 26  1  0  0  0
  5 98  1  0  0  0
  6 25  1  0  0  0
  6 99  1  0  0  0
  6100  1  0  0  0
  7  8  2  0  0  0
  7 26  1  0  0  0
  7 29  1  0  0  0
  8  9  1  0  0  0
  8 22  1  0  0  0
  9 10  1  0  0  0
  9 27  2  0  0  0
 10 11  2  0  0  0
 10 15  1  0  0  0
 11 12  1  0  0  0
 11101  1  0  0  0
 12 13  2  0  0  0
 12102  1  0  0  0
 13 14  1  0  0  0
 13 31  1  0  0  0
 14 15  2  0  0  0
 14103  1  0  0  0
 15104  1  0  0  0
 16 17  2  0  0  0
 16 21  1  0  0  0
 16 31  1  0  0  0
 17 18  1  0  0  0
 17105  1  0  0  0
 18 19  2  0  0  0
 18106  1  0  0  0
 19 20  1  0  0  0
 19 24  1  0  0  0
 20 21  2  0  0  0
 20107  1  0  0  0
 21 23  1  0  0  0
 22 28  1  0  0  0
 22 32  2  0  0  0
 26 27  1  0  0  0
 28108  1  0  0  0
 28109  1  0  0  0
 29110  1  0  0  0
 29111  1  0  0  0
 33 34  1  0  0  0
 33 66  1  0  0  0
 33 70  2  0  0  0
 34 36  1  0  0  0
 34 59  1  0  0  0
 34112  1  0  0  0
 35 44  2  0  0  0
 35 45  1  0  0  0
 35 68  1  0  0  0
 36 56  1  0  0  0
 36113  1  0  0  0
 37 39  1  0  0  0
 37 47  1  0  0  0
 37 66  1  0  0  0
 37114  1  0  0  0
 38 43  2  0  0  0
 38 46  1  0  0  0
 38 47  1  0  0  0
 39 64  1  0  0  0
 39 67  2  0  0  0
 40 52  1  0  0  0
 40 53  2  0  0  0
 40 58  1  0  0  0
 41115  1  0  0  0
 41116  1  0  0  0
 41117  1  0  0  0
 41 48  1  0  0  0
 42 43  1  0  0  0
 42 66  1  0  0  0
 42118  1  0  0  0
 42119  1  0  0  0
 43 44  1  0  0  0
 44120  1  0  0  0
 45 46  2  0  0  0
 45121  1  0  0  0
 46122  1  0  0  0
 47123  1  0  0  0
 47124  1  0  0  0
 48 56  1  0  0  0
 48 65  1  0  0  0
 48125  1  0  0  0
 49 50  1  0  0  0
 49 53  1  0  0  0
 49 64  1  0  0  0
 49126  1  0  0  0
 50 51  1  0  0  0
 50127  1  0  0  0
 50128  1  0  0  0
 51 52  1  0  0  0
 51129  1  0  0  0
 51130  1  0  0  0
 52131  1  0  0  0
 52132  1  0  0  0
 53 54  1  0  0  0
 54 55  2  0  0  0
 54133  1  0  0  0
 55 57  1  0  0  0
 55134  1  0  0  0
 56 69  2  0  0  0
 57 58  2  0  0  0
 57135  1  0  0  0
 58136  1  0  0  0
 59 60  1  0  0  0
 59 61  1  0  0  0
 59 62  1  0  0  0
 60137  1  0  0  0
 60138  1  0  0  0
 60139  1  0  0  0
 61140  1  0  0  0
 61141  1  0  0  0
 61142  1  0  0  0
 62143  1  0  0  0
 62144  1  0  0  0
 62145  1  0  0  0
 63 65  1  0  0  0
 63146  1  0  0  0
 63147  1  0  0  0
 63148  1  0  0  0
 64149  1  0  0  0
 65150  1  0  0  0
 68 84  1  0  0  0
 71 73  2  0  0  0
 71 76  1  0  0  0
 71151  1  0  0  0
 72 74  1  0  0  0
 72 75  2  0  0  0
 72152  1  0  0  0
 73 75  1  0  0  0
 73 85  1  0  0  0
 74 76  2  0  0  0
 74 88  1  0  0  0
 75 90  1  0  0  0
 76 91  1  0  0  0
 77 86  1  0  0  0
 77 87  1  0  0  0
 77 89  2  0  0  0
 78 88  1  0  0  0
 78153  1  0  0  0
 78154  1  0  0  0
 78155  1  0  0  0
 79 80  1  0  0  0
 79 81  1  0  0  0
 79156  1  0  0  0
 79157  1  0  0  0
 80 82  1  0  0  0
 80158  1  0  0  0
 80159  1  0  0  0
 81 86  1  0  0  0
 81160  1  0  0  0
 81161  1  0  0  0
 82 88  1  0  0  0
 82162  1  0  0  0
 82163  1  0  0  0
 83 84  1  0  0  0
 83 87  1  0  0  0
 83164  1  0  0  0
 83165  1  0  0  0
 84166  1  0  0  0
 84167  1  0  0  0
 85168  1  0  0  0
 86169  1  0  0  0
 87170  1  0  0  0
M  ISO  4   1 100  68 101  84 101  85 100
M  END
> <chiral flag>
0

> <version>
0

> <s_m_source_file>
/data/baiqing/PycharmProjects/Reinvent-master-3.2/result/LINK_invent/BTK/process_docking_weight1_custom_sum_contain_oxygen_bond_distance_aromatic_linkinvent_7_9_3/rearranged_h_0007.sdf

> <i_m_source_file_index>
43

> <r_mmod_Potential_Energy-OPLS-2005>
-247.677825927734

> <r_mmod_Stretch_Energy-OPLS-2005>
34.2123985290527

> <r_mmod_Bend_Energy-OPLS-2005>
111.883209228516

> <r_mmod_Torsional_Energy-OPLS-2005>
250.182556152344

> <r_mmod_Improper_Torsional_Energy-OPLS-2005>
3.19115829467773

> <r_mmod_Van_der_Waal_Energy-OPLS-2005>
154.449737548828

> <r_mmod_Electrostatic_Energy-OPLS-2005>
-549.14453125

> <r_mmod_Solvation_Energy-OPLS-2005>
-258.884490966797

> <b_mmod_Minimization_Converged-OPLS-2005>
0

> <r_mmod_RMS_Derivative-OPLS-2005>
1.76329374313354

$$$$
43
                    3D
 Structure written by MMmdl.
155163  0  0  1  0            999 V2000
  -30.5243  -14.9266   20.4412 C   0  0  0  0  0  0
  -30.4558  -12.5708   19.4936 C   0  0  0  0  0  0
  -29.5316  -12.5431   18.2544 C   0  0  0  0  0  0
  -28.0625  -12.3262   18.6677 C   0  0  0  0  0  0
  -27.6398  -13.2421   19.8460 C   0  0  2  0  0  0
  -28.6849  -13.2317   20.9835 C   0  0  0  0  0  0
  -25.2497  -13.8210   20.5684 C   0  0  0  0  0  0
  -24.1811  -13.0440   20.9246 C   0  0  0  0  0  0
  -24.6407  -11.6914   20.8731 C   0  0  0  0  0  0
  -23.9078  -10.4300   21.0376 C   0  0  0  0  0  0
  -24.3618   -9.4200   21.9146 C   0  0  0  0  0  0
  -23.6289   -8.2242   22.0738 C   0  0  0  0  0  0
  -22.4256   -8.0294   21.3549 C   0  0  0  0  0  0
  -21.9886   -9.0272   20.4663 C   0  0  0  0  0  0
  -22.7231  -10.2144   20.3059 C   0  0  0  0  0  0
  -21.6859   -6.0721   22.5262 C   0  0  0  0  0  0
  -21.4029   -6.5616   23.8200 C   0  0  0  0  0  0
  -21.3666   -5.6769   24.9160 C   0  0  0  0  0  0
  -21.6042   -4.3034   24.7207 C   0  0  0  0  0  0
  -21.8827   -3.8141   23.4329 C   0  0  0  0  0  0
  -21.9204   -4.6955   22.3381 C   0  0  0  0  0  0
  -22.7831  -13.5222   21.1916 C   0  0  0  0  0  0
  -22.1662   -4.2140   21.0954 F   0  0  0  0  0  0
  -21.5624   -3.4523   25.7723 F   0  0  0  0  0  0
  -29.9717  -13.6486   20.4004 N   0  0  0  0  0  0
  -26.2922  -12.9425   20.3243 N   0  0  0  0  0  0
  -25.9336  -11.6555   20.5691 N   0  0  0  0  0  0
  -22.0488  -12.8221   22.0488 N   0  0  0  0  0  0
  -25.4128  -15.1935   20.3999 N   0  0  0  0  0  0
  -31.7190  -15.0534   20.1439 O   0  0  0  0  0  0
  -21.6643   -6.8873   21.4231 O   0  0  0  0  0  0
  -22.3504  -14.5523   20.6768 O   0  0  0  0  0  0
  -24.6418  -31.8441   23.1875 C   0  0  0  0  0  0
  -25.9192  -32.4703   23.8269 C   0  0  1  0  0  0
  -27.2329  -27.1452   20.1680 C   0  0  0  0  0  0
  -25.5947  -33.8507   24.2196 N   0  0  0  0  0  0
  -23.4466  -30.4615   21.5296 C   0  0  2  0  0  0
  -24.9034  -28.8858   20.1169 C   0  0  0  0  0  0
  -22.7561  -29.4535   22.4826 C   0  0  0  0  0  0
  -18.0316  -28.1395   22.8451 C   0  0  0  0  0  0
  -24.1480  -36.7260   23.2631 C   0  0  0  0  0  0
  -26.0022  -30.7250   21.3851 C   0  0  0  0  0  0
  -26.0800  -29.3346   20.7307 C   0  0  0  0  0  0
  -27.2500  -28.4835   20.7313 C   0  0  0  0  0  0
  -26.0284  -26.7890   19.5245 C   0  0  0  0  0  0
  -24.8889  -27.6242   19.5006 C   0  0  0  0  0  0
  -23.6801  -29.7902   20.1496 C   0  0  0  0  0  0
  -25.4105  -36.3031   24.0313 C   0  0  1  0  0  0
  -20.5924  -28.3726   23.1223 C   0  0  2  0  0  0
  -20.6801  -26.9420   22.5412 C   0  0  0  0  0  0
  -19.5783  -26.6373   21.5203 C   0  0  0  0  0  0
  -18.1963  -26.7923   22.1618 C   0  0  0  0  0  0
  -19.1567  -28.8871   23.2847 C   0  0  0  0  0  0
  -18.9490  -30.1451   23.8904 C   0  0  0  0  0  0
  -17.6486  -30.6575   24.0566 C   0  0  0  0  0  0
  -25.9057  -34.9412   23.5061 C   0  0  0  0  0  0
  -16.5382  -29.9075   23.6318 C   0  0  0  0  0  0
  -16.7301  -28.6501   23.0330 C   0  0  0  0  0  0
  -26.4513  -31.6564   25.0711 C   0  0  0  0  0  0
  -25.3724  -31.3874   26.1458 C   0  0  0  0  0  0
  -27.0282  -30.2904   24.6319 C   0  0  0  0  0  0
  -27.6076  -32.4310   25.7480 C   0  0  0  0  0  0
  -27.5590  -37.1759   24.8441 C   0  0  0  0  0  0
  -21.4259  -29.3044   22.3578 N   0  0  0  0  0  0
  -26.4269  -37.3746   23.9428 N   0  0  0  0  0  0
  -24.7153  -31.0311   22.0900 N   0  0  0  0  0  0
  -23.4207  -28.8094   23.2987 O   0  0  0  0  0  0
  -28.2937  -26.1692   20.1833 O   0  0  0  0  0  0
  -26.5636  -34.8900   22.4631 O   0  0  0  0  0  0
  -23.5540  -32.1324   23.7086 O   0  0  0  0  0  0
  -30.5831  -18.5732   20.4844 C   0  0  0  0  0  0
  -30.3100  -20.0146   20.5170 C   0  0  0  0  0  0
  -28.2726  -18.1643   20.6616 C   0  0  0  0  0  0
  -29.5674  -17.5554   20.5798 C   0  0  0  0  0  0
  -29.0011  -20.6123   20.6593 C   0  0  0  0  0  0
  -27.9845  -19.5939   20.7104 C   0  0  0  0  0  0
  -28.7590  -23.3282   20.2652 C   0  0  0  0  0  0
  -28.0712  -22.2393   22.3200 C   0  0  0  0  0  0
  -25.5960  -19.1541   20.8184 C   0  0  0  0  0  0
  -28.0616  -24.7569   20.7903 C   0  0  0  0  0  0
  -29.6450  -16.0190   20.6387 N   0  0  0  0  0  0
  -28.6678  -22.0897   20.9849 N   0  0  0  0  0  0
  -29.3696  -23.3625   19.1933 O   0  0  0  0  0  0
  -26.6925  -20.0664   20.8484 O   0  0  0  0  0  0
  -31.4880  -12.7388   19.1833 H   0  0  0  0  0  0
  -30.4477  -11.6083   20.0053 H   0  0  0  0  0  0
  -29.8442  -11.7596   17.5624 H   0  0  0  0  0  0
  -29.6294  -13.4868   17.7157 H   0  0  0  0  0  0
  -27.9519  -11.2806   18.9593 H   0  0  0  0  0  0
  -27.4077  -12.4823   17.8099 H   0  0  0  0  0  0
  -27.6121  -14.2527   19.4375 H   0  0  0  0  0  0
  -28.7622  -12.2422   21.4360 H   0  0  0  0  0  0
  -28.3859  -13.9092   21.7870 H   0  0  0  0  0  0
  -25.2765   -9.5679   22.4702 H   0  0  0  0  0  0
  -24.0015   -7.4625   22.7439 H   0  0  0  0  0  0
  -21.0811   -8.8813   19.8956 H   0  0  0  0  0  0
  -22.3684  -10.9688   19.6184 H   0  0  0  0  0  0
  -21.2020   -7.6121   23.9698 H   0  0  0  0  0  0
  -21.1468   -6.0491   25.9063 H   0  0  0  0  0  0
  -22.0598   -2.7599   23.2832 H   0  0  0  0  0  0
  -22.4105  -11.9893   22.4888 H   0  0  0  0  0  0
  -21.1126  -13.1272   22.2721 H   0  0  0  0  0  0
  -24.6152  -15.8168   20.4660 H   0  0  0  0  0  0
  -26.1870  -15.5946   19.8902 H   0  0  0  0  0  0
  -26.7273  -32.5325   23.1008 H   0  0  0  0  0  0
  -25.0072  -33.9616   25.0336 H   0  0  0  0  0  0
  -22.7476  -31.2852   21.3716 H   0  0  0  0  0  0
  -23.3752  -35.9573   23.3229 H   0  0  0  0  0  0
  -24.3582  -36.8958   22.2056 H   0  0  0  0  0  0
  -23.7217  -37.6427   23.6713 H   0  0  0  0  0  0
  -26.1522  -31.4835   20.6146 H   0  0  0  0  0  0
  -26.8738  -30.7802   22.0265 H   0  0  0  0  0  0
  -28.1556  -28.8306   21.2075 H   0  0  0  0  0  0
  -25.9557  -25.8212   19.0483 H   0  0  0  0  0  0
  -23.9893  -27.2731   19.0148 H   0  0  0  0  0  0
  -23.8285  -30.5655   19.3966 H   0  0  0  0  0  0
  -22.7954  -29.2374   19.8310 H   0  0  0  0  0  0
  -25.1273  -36.1840   25.0803 H   0  0  0  0  0  0
  -21.0023  -28.3337   24.1337 H   0  0  0  0  0  0
  -20.5659  -26.2333   23.3630 H   0  0  0  0  0  0
  -21.6679  -26.7397   22.1247 H   0  0  0  0  0  0
  -19.6945  -25.6269   21.1268 H   0  0  0  0  0  0
  -19.6725  -27.3149   20.6703 H   0  0  0  0  0  0
  -17.4212  -26.6609   21.4051 H   0  0  0  0  0  0
  -18.0414  -26.0096   22.9059 H   0  0  0  0  0  0
  -19.7969  -30.7253   24.2298 H   0  0  0  0  0  0
  -17.5042  -31.6251   24.5182 H   0  0  0  0  0  0
  -15.5383  -30.2985   23.7628 H   0  0  0  0  0  0
  -15.8707  -28.0809   22.7058 H   0  0  0  0  0  0
  -24.5660  -30.7515   25.7784 H   0  0  0  0  0  0
  -24.9231  -32.3154   26.5018 H   0  0  0  0  0  0
  -25.7959  -30.8844   27.0162 H   0  0  0  0  0  0
  -26.2846  -29.6681   24.1322 H   0  0  0  0  0  0
  -27.3804  -29.7175   25.4910 H   0  0  0  0  0  0
  -27.8832  -30.4026   23.9647 H   0  0  0  0  0  0
  -27.2659  -33.3595   26.2070 H   0  0  0  0  0  0
  -28.3878  -32.6908   25.0312 H   0  0  0  0  0  0
  -28.0753  -31.8436   26.5392 H   0  0  0  0  0  0
  -28.2557  -38.0102   24.7532 H   0  0  0  0  0  0
  -28.1130  -36.2638   24.6175 H   0  0  0  0  0  0
  -27.2341  -37.1326   25.8851 H   0  0  0  0  0  0
  -20.9454  -29.8714   21.6730 H   0  0  0  0  0  0
  -26.0129  -38.2786   24.1514 H   0  0  0  0  0  0
  -31.6156  -18.2621   20.4115 H   0  0  0  0  0  0
  -31.1596  -20.6813   20.4842 H   0  0  0  0  0  0
  -27.4540  -17.4667   20.7134 H   0  0  0  0  0  0
  -28.0139  -21.2962   22.8641 H   0  0  0  0  0  0
  -27.0527  -22.6244   22.2597 H   0  0  0  0  0  0
  -28.6708  -22.9067   22.9416 H   0  0  0  0  0  0
  -24.6757  -19.6885   21.0588 H   0  0  0  0  0  0
  -25.6826  -18.3578   21.5562 H   0  0  0  0  0  0
  -25.4754  -18.7189   19.8263 H   0  0  0  0  0  0
  -28.3612  -24.8777   21.8311 H   0  0  0  0  0  0
  -26.9884  -24.5721   20.8235 H   0  0  0  0  0  0
  -28.7363  -15.6271   20.8236 H   0  0  0  0  0  0
  1 25  1  0  0  0
  1 30  2  0  0  0
  1 81  1  0  0  0
  2  3  1  0  0  0
  2 25  1  0  0  0
  2 85  1  0  0  0
  2 86  1  0  0  0
  3  4  1  0  0  0
  3 87  1  0  0  0
  3 88  1  0  0  0
  4  5  1  0  0  0
  4 89  1  0  0  0
  4 90  1  0  0  0
  5  6  1  0  0  0
  5 26  1  0  0  0
  5 91  1  0  0  0
  6 25  1  0  0  0
  6 92  1  0  0  0
  6 93  1  0  0  0
  7  8  2  0  0  0
  7 26  1  0  0  0
  7 29  1  0  0  0
  8  9  1  0  0  0
  8 22  1  0  0  0
  9 10  1  0  0  0
  9 27  2  0  0  0
 10 11  2  0  0  0
 10 15  1  0  0  0
 11 12  1  0  0  0
 11 94  1  0  0  0
 12 13  2  0  0  0
 12 95  1  0  0  0
 13 14  1  0  0  0
 13 31  1  0  0  0
 14 15  2  0  0  0
 14 96  1  0  0  0
 15 97  1  0  0  0
 16 17  2  0  0  0
 16 21  1  0  0  0
 16 31  1  0  0  0
 17 18  1  0  0  0
 17 98  1  0  0  0
 18 19  2  0  0  0
 18 99  1  0  0  0
 19 20  1  0  0  0
 19 24  1  0  0  0
 20 21  2  0  0  0
 20100  1  0  0  0
 21 23  1  0  0  0
 22 28  1  0  0  0
 22 32  2  0  0  0
 26 27  1  0  0  0
 28101  1  0  0  0
 28102  1  0  0  0
 29103  1  0  0  0
 29104  1  0  0  0
 33 34  1  0  0  0
 33 66  1  0  0  0
 33 70  2  0  0  0
 34 36  1  0  0  0
 34 59  1  0  0  0
 34105  1  0  0  0
 35 44  2  0  0  0
 35 45  1  0  0  0
 35 68  1  0  0  0
 36 56  1  0  0  0
 36106  1  0  0  0
 37 39  1  0  0  0
 37 47  1  0  0  0
 37 66  1  0  0  0
 37107  1  0  0  0
 38 43  2  0  0  0
 38 46  1  0  0  0
 38 47  1  0  0  0
 39 64  1  0  0  0
 39 67  2  0  0  0
 40 52  1  0  0  0
 40 53  2  0  0  0
 40 58  1  0  0  0
 41108  1  0  0  0
 41109  1  0  0  0
 41110  1  0  0  0
 41 48  1  0  0  0
 42 43  1  0  0  0
 42 66  1  0  0  0
 42111  1  0  0  0
 42112  1  0  0  0
 43 44  1  0  0  0
 44113  1  0  0  0
 45 46  2  0  0  0
 45114  1  0  0  0
 46115  1  0  0  0
 47116  1  0  0  0
 47117  1  0  0  0
 48 56  1  0  0  0
 48 65  1  0  0  0
 48118  1  0  0  0
 49 50  1  0  0  0
 49 53  1  0  0  0
 49 64  1  0  0  0
 49119  1  0  0  0
 50 51  1  0  0  0
 50120  1  0  0  0
 50121  1  0  0  0
 51 52  1  0  0  0
 51122  1  0  0  0
 51123  1  0  0  0
 52124  1  0  0  0
 52125  1  0  0  0
 53 54  1  0  0  0
 54 55  2  0  0  0
 54126  1  0  0  0
 55 57  1  0  0  0
 55127  1  0  0  0
 56 69  2  0  0  0
 57 58  2  0  0  0
 57128  1  0  0  0
 58129  1  0  0  0
 59 60  1  0  0  0
 59 61  1  0  0  0
 59 62  1  0  0  0
 60130  1  0  0  0
 60131  1  0  0  0
 60132  1  0  0  0
 61133  1  0  0  0
 61134  1  0  0  0
 61135  1  0  0  0
 62136  1  0  0  0
 62137  1  0  0  0
 62138  1  0  0  0
 63 65  1  0  0  0
 63139  1  0  0  0
 63140  1  0  0  0
 63141  1  0  0  0
 64142  1  0  0  0
 65143  1  0  0  0
 68 80  1  0  0  0
 71 72  2  0  0  0
 71 74  1  0  0  0
 71144  1  0  0  0
 72 75  1  0  0  0
 72145  1  0  0  0
 73 74  2  0  0  0
 73 76  1  0  0  0
 73146  1  0  0  0
 74 81  1  0  0  0
 75 76  2  0  0  0
 75 82  1  0  0  0
 76 84  1  0  0  0
 77 80  1  0  0  0
 77 82  1  0  0  0
 77 83  2  0  0  0
 78 82  1  0  0  0
 78147  1  0  0  0
 78148  1  0  0  0
 78149  1  0  0  0
 79 84  1  0  0  0
 79150  1  0  0  0
 79151  1  0  0  0
 79152  1  0  0  0
 80153  1  0  0  0
 80154  1  0  0  0
 81155  1  0  0  0
M  ISO  4   1 100  68 101  80 101  81 100
M  END
> <chiral flag>
0

> <version>
0

> <s_m_source_file>
/data/baiqing/PycharmProjects/Reinvent-master-3.2/result/LINK_invent/BTK/process_docking_weight1_custom_sum_contain_oxygen_bond_distance_aromatic_linkinvent_7_9_3/rearranged_h_0007.sdf

> <i_m_source_file_index>
44

> <r_mmod_Potential_Energy-OPLS-2005>
577.796813964844

> <r_mmod_Stretch_Energy-OPLS-2005>
243.891036987305

> <r_mmod_Bend_Energy-OPLS-2005>
281.229522705078

> <r_mmod_Torsional_Energy-OPLS-2005>
295.280303955078

> <r_mmod_Improper_Torsional_Energy-OPLS-2005>
6.89506340026855

> <r_mmod_Van_der_Waal_Energy-OPLS-2005>
136.005767822266

> <r_mmod_Electrostatic_Energy-OPLS-2005>
-328.470703125

> <r_mmod_Solvation_Energy-OPLS-2005>
-236.589462280273

> <b_mmod_Minimization_Converged-OPLS-2005>
0

> <r_mmod_RMS_Derivative-OPLS-2005>
3.83383774757385

$$$$
44
                    3D
 Structure written by MMmdl.
165173  0  0  1  0            999 V2000
  -30.8068  -14.3449   20.6981 C   0  0  0  0  0  0
  -30.4092  -12.2817   19.4128 C   0  0  0  0  0  0
  -29.4900  -12.5227   18.2010 C   0  0  0  0  0  0
  -28.0133  -12.3673   18.6065 C   0  0  0  0  0  0
  -27.6626  -13.2021   19.8626 C   0  0  2  0  0  0
  -28.6902  -12.9690   20.9861 C   0  0  0  0  0  0
  -25.2598  -13.8150   20.5639 C   0  0  0  0  0  0
  -24.1843  -13.0431   20.9160 C   0  0  0  0  0  0
  -24.6383  -11.6896   20.8694 C   0  0  0  0  0  0
  -23.9032  -10.4287   21.0384 C   0  0  0  0  0  0
  -24.3586   -9.4196   21.9156 C   0  0  0  0  0  0
  -23.6268   -8.2232   22.0738 C   0  0  0  0  0  0
  -22.4247   -8.0267   21.3547 C   0  0  0  0  0  0
  -21.9868   -9.0252   20.4662 C   0  0  0  0  0  0
  -22.7201  -10.2129   20.3045 C   0  0  0  0  0  0
  -21.6825   -6.0728   22.5280 C   0  0  0  0  0  0
  -21.3999   -6.5647   23.8212 C   0  0  0  0  0  0
  -21.3659   -5.6813   24.9185 C   0  0  0  0  0  0
  -21.6049   -4.3071   24.7241 C   0  0  0  0  0  0
  -21.8811   -3.8152   23.4358 C   0  0  0  0  0  0
  -21.9180   -4.6962   22.3407 C   0  0  0  0  0  0
  -22.7868  -13.5238   21.1858 C   0  0  0  0  0  0
  -22.1644   -4.2146   21.0984 F   0  0  0  0  0  0
  -21.5637   -3.4554   25.7752 F   0  0  0  0  0  0
  -30.0501  -13.2347   20.4763 N   0  0  0  0  0  0
  -26.3016  -12.9308   20.3257 N   0  0  0  0  0  0
  -25.9300  -11.6469   20.5669 N   0  0  0  0  0  0
  -22.0530  -12.8224   22.0438 N   0  0  0  0  0  0
  -25.4323  -15.1850   20.4029 N   0  0  0  0  0  0
  -31.7868  -14.6392   20.0117 O   0  0  0  0  0  0
  -21.6608   -6.8865   21.4245 O   0  0  0  0  0  0
  -22.3534  -14.5527   20.6691 O   0  0  0  0  0  0
  -24.6133  -31.8715   23.2133 C   0  0  0  0  0  0
  -25.9045  -32.4837   23.8406 C   0  0  1  0  0  0
  -27.2292  -27.4621   20.0786 C   0  0  0  0  0  0
  -25.5915  -33.8630   24.2346 N   0  0  0  0  0  0
  -23.3977  -30.4975   21.5534 C   0  0  2  0  0  0
  -24.8409  -28.9712   20.1135 C   0  0  0  0  0  0
  -22.7394  -29.4687   22.4996 C   0  0  0  0  0  0
  -18.0277  -28.1384   22.8485 C   0  0  0  0  0  0
  -24.1491  -36.7318   23.2634 C   0  0  0  0  0  0
  -25.9249  -30.8453   21.3635 C   0  0  0  0  0  0
  -26.0017  -29.4838   20.7060 C   0  0  0  0  0  0
  -27.1998  -28.7373   20.6822 C   0  0  0  0  0  0
  -26.0490  -26.9617   19.4799 C   0  0  0  0  0  0
  -24.8582  -27.7083   19.4989 C   0  0  0  0  0  0
  -23.6035  -29.8354   20.1661 C   0  0  0  0  0  0
  -25.4111  -36.3112   24.0335 C   0  0  1  0  0  0
  -20.5859  -28.3681   23.1320 C   0  0  2  0  0  0
  -20.6767  -26.9419   22.5419 C   0  0  0  0  0  0
  -19.5749  -26.6394   21.5210 C   0  0  0  0  0  0
  -18.1923  -26.7931   22.1614 C   0  0  0  0  0  0
  -19.1518  -28.8844   23.2904 C   0  0  0  0  0  0
  -18.9449  -30.1443   23.8920 C   0  0  0  0  0  0
  -17.6453  -30.6587   24.0572 C   0  0  0  0  0  0
  -25.9035  -34.9479   23.5130 C   0  0  0  0  0  0
  -16.5345  -29.9087   23.6322 C   0  0  0  0  0  0
  -16.7267  -28.6503   23.0341 C   0  0  0  0  0  0
  -26.4484  -31.6598   25.0714 C   0  0  0  0  0  0
  -25.3763  -31.3692   26.1470 C   0  0  0  0  0  0
  -27.0309  -30.3038   24.6074 C   0  0  0  0  0  0
  -27.6077  -32.4302   25.7471 C   0  0  0  0  0  0
  -27.5583  -37.1810   24.8461 C   0  0  0  0  0  0
  -21.4130  -29.3045   22.3723 N   0  0  0  0  0  0
  -26.4303  -37.3787   23.9396 N   0  0  0  0  0  0
  -24.6627  -31.0838   22.1022 N   0  0  0  0  0  0
  -23.4176  -28.8225   23.3025 O   0  0  0  0  0  0
  -28.4061  -26.7447   20.0936 O   0  0  0  0  0  0
  -26.5584  -34.8931   22.4683 O   0  0  0  0  0  0
  -23.5337  -32.1456   23.7554 O   0  0  0  0  0  0
  -28.6128  -19.0204   22.3522 C   0  0  0  0  0  0
  -28.8296  -20.3395   21.9109 C   0  0  0  0  0  0
  -26.5639  -20.9204   22.5438 C   0  0  0  0  0  0
  -27.3858  -18.6372   22.9457 C   0  0  0  0  0  0
  -27.8209  -21.3128   22.0222 C   0  0  0  0  0  0
  -26.3507  -19.6076   23.0082 C   0  0  0  0  0  0
  -26.4432  -17.1573   24.6968 C   0  0  0  0  0  0
  -29.2877  -15.9477   23.7233 C   0  0  0  0  0  0
  -27.8307  -25.0117   21.7290 C   0  0  0  0  0  0
  -30.2346  -14.9201   23.0699 C   0  0  0  0  0  0
  -27.9802  -16.2067   22.9412 C   0  0  0  0  0  0
  -28.3022  -25.3303   20.2945 C   0  0  0  0  0  0
  -27.1918  -23.6263   21.8924 C   0  0  0  0  0  0
  -30.4170  -15.2057   21.6448 N   0  0  0  0  0  0
  -27.2079  -17.3308   23.4655 N   0  0  0  0  0  0
  -28.1351  -22.5950   21.6215 O   0  0  0  0  0  0
  -25.1286  -19.2923   23.5061 F   0  0  0  0  0  0
  -31.4566  -12.3588   19.1141 H   0  0  0  0  0  0
  -30.2854  -11.2624   19.7828 H   0  0  0  0  0  0
  -29.7344  -11.8247   17.3999 H   0  0  0  0  0  0
  -29.6605  -13.5232   17.7997 H   0  0  0  0  0  0
  -27.8295  -11.3099   18.8007 H   0  0  0  0  0  0
  -27.3613  -12.6398   17.7749 H   0  0  0  0  0  0
  -27.7155  -14.2535   19.5770 H   0  0  0  0  0  0
  -28.6402  -11.9419   21.3489 H   0  0  0  0  0  0
  -28.3943  -13.5937   21.8216 H   0  0  0  0  0  0
  -25.2736   -9.5672   22.4717 H   0  0  0  0  0  0
  -23.9982   -7.4616   22.7442 H   0  0  0  0  0  0
  -21.0785   -8.8763   19.8997 H   0  0  0  0  0  0
  -22.3635  -10.9655   19.6150 H   0  0  0  0  0  0
  -21.1969   -7.6158   23.9704 H   0  0  0  0  0  0
  -21.1495   -6.0556   25.9083 H   0  0  0  0  0  0
  -22.0585   -2.7607   23.2872 H   0  0  0  0  0  0
  -22.4175  -11.9901   22.4833 H   0  0  0  0  0  0
  -21.1166  -13.1271   22.2713 H   0  0  0  0  0  0
  -24.6787  -15.8473   20.5455 H   0  0  0  0  0  0
  -26.2990  -15.6254   20.1214 H   0  0  0  0  0  0
  -26.7106  -32.5564   23.1167 H   0  0  0  0  0  0
  -25.0096  -33.9790   25.0514 H   0  0  0  0  0  0
  -22.6865  -31.3148   21.4175 H   0  0  0  0  0  0
  -23.3744  -35.9659   23.3313 H   0  0  0  0  0  0
  -24.3583  -36.8923   22.2045 H   0  0  0  0  0  0
  -23.7265  -37.6534   23.6639 H   0  0  0  0  0  0
  -26.0356  -31.6168   20.5996 H   0  0  0  0  0  0
  -26.8145  -30.8946   21.9797 H   0  0  0  0  0  0
  -28.0982  -29.1281   21.1392 H   0  0  0  0  0  0
  -26.0261  -26.0071   18.9780 H   0  0  0  0  0  0
  -23.9667  -27.3103   19.0344 H   0  0  0  0  0  0
  -23.7134  -30.6138   19.4104 H   0  0  0  0  0  0
  -22.7274  -29.2569   19.8679 H   0  0  0  0  0  0
  -25.1287  -36.1975   25.0827 H   0  0  0  0  0  0
  -20.9954  -28.3257   24.1440 H   0  0  0  0  0  0
  -20.5681  -26.2284   23.3603 H   0  0  0  0  0  0
  -21.6642  -26.7478   22.1204 H   0  0  0  0  0  0
  -19.6924  -25.6305   21.1231 H   0  0  0  0  0  0
  -19.6692  -27.3218   20.6748 H   0  0  0  0  0  0
  -17.4193  -26.6684   21.4015 H   0  0  0  0  0  0
  -18.0332  -26.0076   22.9014 H   0  0  0  0  0  0
  -19.7931  -30.7253   24.2305 H   0  0  0  0  0  0
  -17.5012  -31.6274   24.5171 H   0  0  0  0  0  0
  -15.5348  -30.3003   23.7627 H   0  0  0  0  0  0
  -15.8667  -28.0839   22.7038 H   0  0  0  0  0  0
  -24.5931  -30.7046   25.7801 H   0  0  0  0  0  0
  -24.8959  -32.2845   26.4934 H   0  0  0  0  0  0
  -25.8128  -30.8842   27.0214 H   0  0  0  0  0  0
  -26.2841  -29.6782   24.1162 H   0  0  0  0  0  0
  -27.4125  -29.7279   25.4518 H   0  0  0  0  0  0
  -27.8655  -30.4341   23.9177 H   0  0  0  0  0  0
  -27.2708  -33.3579   26.2098 H   0  0  0  0  0  0
  -28.3858  -32.6898   25.0282 H   0  0  0  0  0  0
  -28.0774  -31.8395   26.5343 H   0  0  0  0  0  0
  -28.2601  -38.0103   24.7499 H   0  0  0  0  0  0
  -28.1078  -36.2636   24.6297 H   0  0  0  0  0  0
  -27.2301  -37.1480   25.8866 H   0  0  0  0  0  0
  -20.9279  -29.8749   21.6942 H   0  0  0  0  0  0
  -26.0195  -38.2862   24.1405 H   0  0  0  0  0  0
  -29.4276  -18.3230   22.2530 H   0  0  0  0  0  0
  -29.7919  -20.6085   21.4989 H   0  0  0  0  0  0
  -25.7388  -21.6120   22.6142 H   0  0  0  0  0  0
  -26.5268  -18.0278   25.3500 H   0  0  0  0  0  0
  -26.7962  -16.2941   25.2615 H   0  0  0  0  0  0
  -25.3879  -16.9979   24.4728 H   0  0  0  0  0  0
  -29.8339  -16.8812   23.8459 H   0  0  0  0  0  0
  -29.0539  -15.6199   24.7366 H   0  0  0  0  0  0
  -27.0829  -25.7396   22.0453 H   0  0  0  0  0  0
  -28.6647  -25.1244   22.4226 H   0  0  0  0  0  0
  -29.8983  -13.9015   23.2578 H   0  0  0  0  0  0
  -31.2109  -14.9842   23.5524 H   0  0  0  0  0  0
  -27.3554  -15.3132   22.9725 H   0  0  0  0  0  0
  -28.1794  -16.3810   21.8832 H   0  0  0  0  0  0
  -27.6722  -24.8517   19.5471 H   0  0  0  0  0  0
  -29.2898  -24.8952   20.1404 H   0  0  0  0  0  0
  -26.3265  -23.5264   21.2354 H   0  0  0  0  0  0
  -26.8315  -23.5505   22.9191 H   0  0  0  0  0  0
  -30.8424  -16.1081   21.4909 H   0  0  0  0  0  0
  1 25  1  0  0  0
  1 30  2  0  0  0
  1 84  1  0  0  0
  2  3  1  0  0  0
  2 25  1  0  0  0
  2 88  1  0  0  0
  2 89  1  0  0  0
  3  4  1  0  0  0
  3 90  1  0  0  0
  3 91  1  0  0  0
  4  5  1  0  0  0
  4 92  1  0  0  0
  4 93  1  0  0  0
  5  6  1  0  0  0
  5 26  1  0  0  0
  5 94  1  0  0  0
  6 25  1  0  0  0
  6 95  1  0  0  0
  6 96  1  0  0  0
  7  8  2  0  0  0
  7 26  1  0  0  0
  7 29  1  0  0  0
  8  9  1  0  0  0
  8 22  1  0  0  0
  9 10  1  0  0  0
  9 27  2  0  0  0
 10 11  2  0  0  0
 10 15  1  0  0  0
 11 12  1  0  0  0
 11 97  1  0  0  0
 12 13  2  0  0  0
 12 98  1  0  0  0
 13 14  1  0  0  0
 13 31  1  0  0  0
 14 15  2  0  0  0
 14 99  1  0  0  0
 15100  1  0  0  0
 16 17  2  0  0  0
 16 21  1  0  0  0
 16 31  1  0  0  0
 17 18  1  0  0  0
 17101  1  0  0  0
 18 19  2  0  0  0
 18102  1  0  0  0
 19 20  1  0  0  0
 19 24  1  0  0  0
 20 21  2  0  0  0
 20103  1  0  0  0
 21 23  1  0  0  0
 22 28  1  0  0  0
 22 32  2  0  0  0
 26 27  1  0  0  0
 28104  1  0  0  0
 28105  1  0  0  0
 29106  1  0  0  0
 29107  1  0  0  0
 33 34  1  0  0  0
 33 66  1  0  0  0
 33 70  2  0  0  0
 34 36  1  0  0  0
 34 59  1  0  0  0
 34108  1  0  0  0
 35 44  2  0  0  0
 35 45  1  0  0  0
 35 68  1  0  0  0
 36 56  1  0  0  0
 36109  1  0  0  0
 37 39  1  0  0  0
 37 47  1  0  0  0
 37 66  1  0  0  0
 37110  1  0  0  0
 38 43  2  0  0  0
 38 46  1  0  0  0
 38 47  1  0  0  0
 39 64  1  0  0  0
 39 67  2  0  0  0
 40 52  1  0  0  0
 40 53  2  0  0  0
 40 58  1  0  0  0
 41111  1  0  0  0
 41112  1  0  0  0
 41113  1  0  0  0
 41 48  1  0  0  0
 42 43  1  0  0  0
 42 66  1  0  0  0
 42114  1  0  0  0
 42115  1  0  0  0
 43 44  1  0  0  0
 44116  1  0  0  0
 45 46  2  0  0  0
 45117  1  0  0  0
 46118  1  0  0  0
 47119  1  0  0  0
 47120  1  0  0  0
 48 56  1  0  0  0
 48 65  1  0  0  0
 48121  1  0  0  0
 49 50  1  0  0  0
 49 53  1  0  0  0
 49 64  1  0  0  0
 49122  1  0  0  0
 50 51  1  0  0  0
 50123  1  0  0  0
 50124  1  0  0  0
 51 52  1  0  0  0
 51125  1  0  0  0
 51126  1  0  0  0
 52127  1  0  0  0
 52128  1  0  0  0
 53 54  1  0  0  0
 54 55  2  0  0  0
 54129  1  0  0  0
 55 57  1  0  0  0
 55130  1  0  0  0
 56 69  2  0  0  0
 57 58  2  0  0  0
 57131  1  0  0  0
 58132  1  0  0  0
 59 60  1  0  0  0
 59 61  1  0  0  0
 59 62  1  0  0  0
 60133  1  0  0  0
 60134  1  0  0  0
 60135  1  0  0  0
 61136  1  0  0  0
 61137  1  0  0  0
 61138  1  0  0  0
 62139  1  0  0  0
 62140  1  0  0  0
 62141  1  0  0  0
 63 65  1  0  0  0
 63142  1  0  0  0
 63143  1  0  0  0
 63144  1  0  0  0
 64145  1  0  0  0
 65146  1  0  0  0
 68 82  1  0  0  0
 71 72  2  0  0  0
 71 74  1  0  0  0
 71147  1  0  0  0
 72 75  1  0  0  0
 72148  1  0  0  0
 73 75  2  0  0  0
 73 76  1  0  0  0
 73149  1  0  0  0
 74 76  2  0  0  0
 74 85  1  0  0  0
 75 86  1  0  0  0
 76 87  1  0  0  0
 77 85  1  0  0  0
 77150  1  0  0  0
 77151  1  0  0  0
 77152  1  0  0  0
 78 80  1  0  0  0
 78 81  1  0  0  0
 78153  1  0  0  0
 78154  1  0  0  0
 79 82  1  0  0  0
 79 83  1  0  0  0
 79155  1  0  0  0
 79156  1  0  0  0
 80 84  1  0  0  0
 80157  1  0  0  0
 80158  1  0  0  0
 81 85  1  0  0  0
 81159  1  0  0  0
 81160  1  0  0  0
 82161  1  0  0  0
 82162  1  0  0  0
 83 86  1  0  0  0
 83163  1  0  0  0
 83164  1  0  0  0
 84165  1  0  0  0
M  ISO  4   1 100  68 101  82 101  84 100
M  END
> <chiral flag>
0

> <version>
0

> <s_m_source_file>
/data/baiqing/PycharmProjects/Reinvent-master-3.2/result/LINK_invent/BTK/process_docking_weight1_custom_sum_contain_oxygen_bond_distance_aromatic_linkinvent_7_9_3/rearranged_h_0007.sdf

> <i_m_source_file_index>
45

> <r_mmod_Potential_Energy-OPLS-2005>
35.9172515869141

> <r_mmod_Stretch_Energy-OPLS-2005>
35.2269859313965

> <r_mmod_Bend_Energy-OPLS-2005>
124.147270202637

> <r_mmod_Torsional_Energy-OPLS-2005>
258.243377685547

> <r_mmod_Improper_Torsional_Energy-OPLS-2005>
5.86704111099243

> <r_mmod_Van_der_Waal_Energy-OPLS-2005>
164.647399902344

> <r_mmod_Electrostatic_Energy-OPLS-2005>
-354.671478271484

> <r_mmod_Solvation_Energy-OPLS-2005>
-206.155471801758

> <b_mmod_Minimization_Converged-OPLS-2005>
0

> <r_mmod_RMS_Derivative-OPLS-2005>
1.86230218410492

$$$$
45
                    3D
 Structure written by MMmdl.
174183  0  0  1  0            999 V2000
  -30.7920  -14.3119   20.7466 C   0  0  0  0  0  0
  -30.4149  -12.2870   19.3814 C   0  0  0  0  0  0
  -29.4768  -12.5396   18.1884 C   0  0  0  0  0  0
  -28.0043  -12.3879   18.6109 C   0  0  0  0  0  0
  -27.6681  -13.2014   19.8867 C   0  0  2  0  0  0
  -28.7040  -12.9204   20.9961 C   0  0  0  0  0  0
  -25.2602  -13.8178   20.5673 C   0  0  0  0  0  0
  -24.1835  -13.0440   20.9148 C   0  0  0  0  0  0
  -24.6390  -11.6907   20.8729 C   0  0  0  0  0  0
  -23.9052  -10.4288   21.0406 C   0  0  0  0  0  0
  -24.3608   -9.4211   21.9189 C   0  0  0  0  0  0
  -23.6282   -8.2251   22.0767 C   0  0  0  0  0  0
  -22.4271   -8.0278   21.3550 C   0  0  0  0  0  0
  -21.9911   -9.0243   20.4645 C   0  0  0  0  0  0
  -22.7233  -10.2123   20.3046 C   0  0  0  0  0  0
  -21.6842   -6.0729   22.5282 C   0  0  0  0  0  0
  -21.4005   -6.5635   23.8214 C   0  0  0  0  0  0
  -21.3656   -5.6793   24.9179 C   0  0  0  0  0  0
  -21.6049   -4.3056   24.7234 C   0  0  0  0  0  0
  -21.8818   -3.8143   23.4356 C   0  0  0  0  0  0
  -21.9187   -4.6956   22.3411 C   0  0  0  0  0  0
  -22.7862  -13.5243   21.1825 C   0  0  0  0  0  0
  -22.1651   -4.2137   21.0989 F   0  0  0  0  0  0
  -21.5640   -3.4544   25.7756 F   0  0  0  0  0  0
  -30.0502  -13.2094   20.4653 N   0  0  0  0  0  0
  -26.3048  -12.9335   20.3417 N   0  0  0  0  0  0
  -25.9321  -11.6489   20.5778 N   0  0  0  0  0  0
  -22.0500  -12.8210   22.0369 N   0  0  0  0  0  0
  -25.4341  -15.1890   20.4090 N   0  0  0  0  0  0
  -31.7787  -14.6540   20.0823 O   0  0  0  0  0  0
  -21.6633   -6.8873   21.4244 O   0  0  0  0  0  0
  -22.3546  -14.5544   20.6681 O   0  0  0  0  0  0
  -24.6102  -31.8719   23.2148 C   0  0  0  0  0  0
  -25.9010  -32.4851   23.8411 C   0  0  1  0  0  0
  -27.2187  -27.4567   20.0857 C   0  0  0  0  0  0
  -25.5864  -33.8655   24.2317 N   0  0  0  0  0  0
  -23.3926  -30.4992   21.5580 C   0  0  2  0  0  0
  -24.8337  -28.9745   20.1123 C   0  0  0  0  0  0
  -22.7378  -29.4675   22.5037 C   0  0  0  0  0  0
  -18.0228  -28.1389   22.8521 C   0  0  0  0  0  0
  -24.1463  -36.7322   23.2646 C   0  0  0  0  0  0
  -25.9188  -30.8479   21.3586 C   0  0  0  0  0  0
  -25.9943  -29.4834   20.7062 C   0  0  0  0  0  0
  -27.1887  -28.7322   20.6896 C   0  0  0  0  0  0
  -26.0366  -26.9609   19.4829 C   0  0  0  0  0  0
  -24.8495  -27.7131   19.4963 C   0  0  0  0  0  0
  -23.5958  -29.8391   20.1684 C   0  0  0  0  0  0
  -25.4091  -36.3125   24.0326 C   0  0  1  0  0  0
  -20.5821  -28.3672   23.1367 C   0  0  2  0  0  0
  -20.6751  -26.9434   22.5425 C   0  0  0  0  0  0
  -19.5697  -26.6409   21.5255 C   0  0  0  0  0  0
  -18.1868  -26.7934   22.1663 C   0  0  0  0  0  0
  -19.1484  -28.8846   23.2925 C   0  0  0  0  0  0
  -18.9419  -30.1452   23.8933 C   0  0  0  0  0  0
  -17.6433  -30.6610   24.0585 C   0  0  0  0  0  0
  -25.9021  -34.9498   23.5120 C   0  0  0  0  0  0
  -16.5321  -29.9127   23.6339 C   0  0  0  0  0  0
  -16.7221  -28.6534   23.0375 C   0  0  0  0  0  0
  -26.4436  -31.6639   25.0739 C   0  0  0  0  0  0
  -25.3676  -31.3710   26.1452 C   0  0  0  0  0  0
  -27.0333  -30.3114   24.6098 C   0  0  0  0  0  0
  -27.5947  -32.4408   25.7549 C   0  0  0  0  0  0
  -27.5553  -37.1818   24.8462 C   0  0  0  0  0  0
  -21.4104  -29.3051   22.3802 N   0  0  0  0  0  0
  -26.4263  -37.3815   23.9403 N   0  0  0  0  0  0
  -24.6598  -31.0844   22.1047 N   0  0  0  0  0  0
  -23.4185  -28.8171   23.3014 O   0  0  0  0  0  0
  -28.4036  -26.7494   20.1158 O   0  0  0  0  0  0
  -26.5612  -34.8944   22.4705 O   0  0  0  0  0  0
  -23.5309  -32.1466   23.7568 O   0  0  0  0  0  0
  -29.4227  -16.8870   20.6180 C   0  0  0  0  0  0
  -28.7636  -18.1287   20.6101 C   0  0  0  0  0  0
  -29.3124  -16.8450   23.0431 C   0  0  0  0  0  0
  -28.6476  -18.0887   23.0430 C   0  0  0  0  0  0
  -29.7256  -16.2276   21.8360 C   0  0  0  0  0  0
  -28.3753  -18.7468   21.8213 C   0  0  0  0  0  0
  -27.7082  -24.5030   20.8643 C   0  0  0  0  0  0
  -27.3563  -20.8720   20.9385 C   0  0  0  0  0  0
  -23.2014  -22.9336   20.5808 C   0  0  0  0  0  0
  -24.4352  -22.0582   20.3796 C   0  0  0  0  0  0
  -23.7648  -24.1430   21.3277 C   0  0  0  0  0  0
  -25.2876  -22.3105   21.6407 C   0  0  1  0  0  0
  -28.2434  -18.7167   24.3706 C   0  0  0  0  0  0
  -30.9724  -14.4753   23.1410 C   0  0  0  0  0  0
  -28.4013  -25.3554   19.7813 C   0  0  0  0  0  0
  -26.8252  -22.2302   21.4216 C   0  0  2  0  0  0
  -27.7478  -20.0203   21.8996 N   0  0  0  0  0  0
  -27.3257  -23.2704   20.5195 N   0  0  0  0  0  0
  -30.4346  -14.9765   21.8672 N   0  0  0  0  0  0
  -24.8561  -23.6228   22.1738 N   0  3  0  0  0  0
  -27.4826  -24.9423   21.9952 O   0  0  0  0  0  0
  -27.4116  -20.6463   19.7262 O   0  0  0  0  0  0
  -31.4566  -12.3961   19.0744 H   0  0  0  0  0  0
  -30.3196  -11.2563   19.7280 H   0  0  0  0  0  0
  -29.7057  -11.8498   17.3754 H   0  0  0  0  0  0
  -29.6447  -13.5432   17.7952 H   0  0  0  0  0  0
  -27.8141  -11.3283   18.7860 H   0  0  0  0  0  0
  -27.3449  -12.6834   17.7946 H   0  0  0  0  0  0
  -27.7342  -14.2581   19.6281 H   0  0  0  0  0  0
  -28.6596  -11.8725   21.2982 H   0  0  0  0  0  0
  -28.4520  -13.4876   21.8923 H   0  0  0  0  0  0
  -25.2746   -9.5682   22.4766 H   0  0  0  0  0  0
  -23.9976   -7.4654   22.7504 H   0  0  0  0  0  0
  -21.0847   -8.8754   19.8950 H   0  0  0  0  0  0
  -22.3697  -10.9655   19.6145 H   0  0  0  0  0  0
  -21.1986   -7.6140   23.9709 H   0  0  0  0  0  0
  -21.1485   -6.0529   25.9083 H   0  0  0  0  0  0
  -22.0602   -2.7601   23.2872 H   0  0  0  0  0  0
  -22.4099  -11.9829   22.4686 H   0  0  0  0  0  0
  -21.1133  -13.1248   22.2607 H   0  0  0  0  0  0
  -24.6762  -15.8502   20.5338 H   0  0  0  0  0  0
  -26.3025  -15.6303   20.1339 H   0  0  0  0  0  0
  -26.7092  -32.5551   23.1186 H   0  0  0  0  0  0
  -24.9937  -33.9836   25.0408 H   0  0  0  0  0  0
  -22.6757  -31.3125   21.4279 H   0  0  0  0  0  0
  -23.3740  -35.9640   23.3307 H   0  0  0  0  0  0
  -24.3538  -36.8970   22.2060 H   0  0  0  0  0  0
  -23.7208  -37.6511   23.6695 H   0  0  0  0  0  0
  -26.0132  -31.6129   20.5868 H   0  0  0  0  0  0
  -26.8158  -30.9105   21.9643 H   0  0  0  0  0  0
  -28.0850  -29.1261   21.1487 H   0  0  0  0  0  0
  -25.9990  -25.9984   18.9977 H   0  0  0  0  0  0
  -23.9573  -27.3206   19.0263 H   0  0  0  0  0  0
  -23.6975  -30.6205   19.4149 H   0  0  0  0  0  0
  -22.7193  -29.2598   19.8739 H   0  0  0  0  0  0
  -25.1272  -36.1984   25.0817 H   0  0  0  0  0  0
  -20.9854  -28.3235   24.1514 H   0  0  0  0  0  0
  -20.5778  -26.2262   23.3583 H   0  0  0  0  0  0
  -21.6595  -26.7602   22.1125 H   0  0  0  0  0  0
  -19.6871  -25.6336   21.1242 H   0  0  0  0  0  0
  -19.6612  -27.3264   20.6815 H   0  0  0  0  0  0
  -17.4149  -26.6711   21.4054 H   0  0  0  0  0  0
  -18.0222  -26.0059   22.9032 H   0  0  0  0  0  0
  -19.7897  -30.7245   24.2334 H   0  0  0  0  0  0
  -17.4998  -31.6283   24.5197 H   0  0  0  0  0  0
  -15.5324  -30.3062   23.7643 H   0  0  0  0  0  0
  -15.8597  -28.0877   22.7110 H   0  0  0  0  0  0
  -24.5843  -30.7083   25.7746 H   0  0  0  0  0  0
  -24.8864  -32.2865   26.4903 H   0  0  0  0  0  0
  -25.7984  -30.8846   27.0209 H   0  0  0  0  0  0
  -26.2940  -29.6855   24.1086 H   0  0  0  0  0  0
  -27.4100  -29.7336   25.4547 H   0  0  0  0  0  0
  -27.8730  -30.4504   23.9283 H   0  0  0  0  0  0
  -27.2497  -33.3697   26.2109 H   0  0  0  0  0  0
  -28.3776  -32.7014   25.0418 H   0  0  0  0  0  0
  -28.0588  -31.8562   26.5503 H   0  0  0  0  0  0
  -28.2543  -38.0144   24.7548 H   0  0  0  0  0  0
  -28.1071  -36.2667   24.6253 H   0  0  0  0  0  0
  -27.2243  -37.1420   25.8857 H   0  0  0  0  0  0
  -20.9261  -29.8816   21.7067 H   0  0  0  0  0  0
  -26.0146  -38.2878   24.1463 H   0  0  0  0  0  0
  -29.7088  -16.4746   19.6612 H   0  0  0  0  0  0
  -28.5901  -18.5894   19.6498 H   0  0  0  0  0  0
  -29.5045  -16.3768   23.9985 H   0  0  0  0  0  0
  -22.4684  -22.4158   21.2014 H   0  0  0  0  0  0
  -22.7134  -23.2071   19.6440 H   0  0  0  0  0  0
  -24.9670  -22.3853   19.4861 H   0  0  0  0  0  0
  -24.1843  -21.0055   20.2440 H   0  0  0  0  0  0
  -23.0070  -24.6728   21.9056 H   0  0  0  0  0  0
  -24.1890  -24.8500   20.6136 H   0  0  0  0  0  0
  -25.0021  -21.5737   22.3944 H   0  0  0  0  0  0
  -28.4398  -18.0530   25.2126 H   0  0  0  0  0  0
  -27.1776  -18.9504   24.3828 H   0  0  0  0  0  0
  -28.8012  -19.6384   24.5426 H   0  0  0  0  0  0
  -31.5446  -15.2521   23.6506 H   0  0  0  0  0  0
  -31.6371  -13.6171   23.0196 H   0  0  0  0  0  0
  -30.1602  -14.1577   23.7964 H   0  0  0  0  0  0
  -27.9749  -25.1724   18.7946 H   0  0  0  0  0  0
  -29.4395  -25.0310   19.7181 H   0  0  0  0  0  0
  -27.2920  -22.3962   22.3952 H   0  0  0  0  0  0
  -27.6265  -20.3605   22.8423 H   0  0  0  0  0  0
  -27.5119  -22.9518   19.5766 H   0  0  0  0  0  0
  -24.5222  -23.4952   23.1171 H   0  0  0  0  0  0
  -25.6392  -24.2659   22.2002 H   0  0  0  0  0  0
  1 25  1  0  0  0
  1 30  2  0  0  0
  1 89  1  0  0  0
  2  3  1  0  0  0
  2 25  1  0  0  0
  2 93  1  0  0  0
  2 94  1  0  0  0
  3  4  1  0  0  0
  3 95  1  0  0  0
  3 96  1  0  0  0
  4  5  1  0  0  0
  4 97  1  0  0  0
  4 98  1  0  0  0
  5  6  1  0  0  0
  5 26  1  0  0  0
  5 99  1  0  0  0
  6 25  1  0  0  0
  6100  1  0  0  0
  6101  1  0  0  0
  7  8  2  0  0  0
  7 26  1  0  0  0
  7 29  1  0  0  0
  8  9  1  0  0  0
  8 22  1  0  0  0
  9 10  1  0  0  0
  9 27  2  0  0  0
 10 11  2  0  0  0
 10 15  1  0  0  0
 11 12  1  0  0  0
 11102  1  0  0  0
 12 13  2  0  0  0
 12103  1  0  0  0
 13 14  1  0  0  0
 13 31  1  0  0  0
 14 15  2  0  0  0
 14104  1  0  0  0
 15105  1  0  0  0
 16 17  2  0  0  0
 16 21  1  0  0  0
 16 31  1  0  0  0
 17 18  1  0  0  0
 17106  1  0  0  0
 18 19  2  0  0  0
 18107  1  0  0  0
 19 20  1  0  0  0
 19 24  1  0  0  0
 20 21  2  0  0  0
 20108  1  0  0  0
 21 23  1  0  0  0
 22 28  1  0  0  0
 22 32  2  0  0  0
 26 27  1  0  0  0
 28109  1  0  0  0
 28110  1  0  0  0
 29111  1  0  0  0
 29112  1  0  0  0
 33 34  1  0  0  0
 33 66  1  0  0  0
 33 70  2  0  0  0
 34 36  1  0  0  0
 34 59  1  0  0  0
 34113  1  0  0  0
 35 44  2  0  0  0
 35 45  1  0  0  0
 35 68  1  0  0  0
 36 56  1  0  0  0
 36114  1  0  0  0
 37 39  1  0  0  0
 37 47  1  0  0  0
 37 66  1  0  0  0
 37115  1  0  0  0
 38 43  2  0  0  0
 38 46  1  0  0  0
 38 47  1  0  0  0
 39 64  1  0  0  0
 39 67  2  0  0  0
 40 52  1  0  0  0
 40 53  2  0  0  0
 40 58  1  0  0  0
 41116  1  0  0  0
 41117  1  0  0  0
 41118  1  0  0  0
 41 48  1  0  0  0
 42 43  1  0  0  0
 42 66  1  0  0  0
 42119  1  0  0  0
 42120  1  0  0  0
 43 44  1  0  0  0
 44121  1  0  0  0
 45 46  2  0  0  0
 45122  1  0  0  0
 46123  1  0  0  0
 47124  1  0  0  0
 47125  1  0  0  0
 48 56  1  0  0  0
 48 65  1  0  0  0
 48126  1  0  0  0
 49 50  1  0  0  0
 49 53  1  0  0  0
 49 64  1  0  0  0
 49127  1  0  0  0
 50 51  1  0  0  0
 50128  1  0  0  0
 50129  1  0  0  0
 51 52  1  0  0  0
 51130  1  0  0  0
 51131  1  0  0  0
 52132  1  0  0  0
 52133  1  0  0  0
 53 54  1  0  0  0
 54 55  2  0  0  0
 54134  1  0  0  0
 55 57  1  0  0  0
 55135  1  0  0  0
 56 69  2  0  0  0
 57 58  2  0  0  0
 57136  1  0  0  0
 58137  1  0  0  0
 59 60  1  0  0  0
 59 61  1  0  0  0
 59 62  1  0  0  0
 60138  1  0  0  0
 60139  1  0  0  0
 60140  1  0  0  0
 61141  1  0  0  0
 61142  1  0  0  0
 61143  1  0  0  0
 62144  1  0  0  0
 62145  1  0  0  0
 62146  1  0  0  0
 63 65  1  0  0  0
 63147  1  0  0  0
 63148  1  0  0  0
 63149  1  0  0  0
 64150  1  0  0  0
 65151  1  0  0  0
 68 85  1  0  0  0
 71 72  2  0  0  0
 71 75  1  0  0  0
 71152  1  0  0  0
 72 76  1  0  0  0
 72153  1  0  0  0
 73 74  1  0  0  0
 73 75  2  0  0  0
 73154  1  0  0  0
 74 76  2  0  0  0
 74 83  1  0  0  0
 75 89  1  0  0  0
 76 87  1  0  0  0
 77 85  1  0  0  0
 77 88  1  0  0  0
 77 91  2  0  0  0
 78 86  1  0  0  0
 78 87  1  0  0  0
 78 92  2  0  0  0
 79 80  1  0  0  0
 79 81  1  0  0  0
 79155  1  0  0  0
 79156  1  0  0  0
 80157  1  0  0  0
 80158  1  0  0  0
 80 82  1  0  0  0
 81 90  1  0  0  0
 81159  1  0  0  0
 81160  1  0  0  0
 82 86  1  0  0  0
 82 90  1  0  0  0
 82161  1  0  0  0
 83162  1  0  0  0
 83163  1  0  0  0
 83164  1  0  0  0
 84 89  1  0  0  0
 84165  1  0  0  0
 84166  1  0  0  0
 84167  1  0  0  0
 85168  1  0  0  0
 85169  1  0  0  0
 86 88  1  0  0  0
 86170  1  0  0  0
 87171  1  0  0  0
 88172  1  0  0  0
 90173  1  0  0  0
 90174  1  0  0  0
M  CHG  1  90   1
M  ISO  4   1 100  68 101  85 101  89 100
M  END
> <chiral flag>
0

> <version>
0

> <s_m_source_file>
/data/baiqing/PycharmProjects/Reinvent-master-3.2/result/LINK_invent/BTK/process_docking_weight1_custom_sum_contain_oxygen_bond_distance_aromatic_linkinvent_7_9_3/rearranged_h_0007.sdf

> <i_m_source_file_index>
46

> <r_mmod_Potential_Energy-OPLS-2005>
-150.766296386719

> <r_mmod_Stretch_Energy-OPLS-2005>
37.992073059082

> <r_mmod_Bend_Energy-OPLS-2005>
135.137939453125

> <r_mmod_Torsional_Energy-OPLS-2005>
372.762054443359

> <r_mmod_Improper_Torsional_Energy-OPLS-2005>
2.47522950172424

> <r_mmod_Van_der_Waal_Energy-OPLS-2005>
163.348983764648

> <r_mmod_Electrostatic_Energy-OPLS-2005>
-407.786437988281

> <r_mmod_Solvation_Energy-OPLS-2005>
-463.959777832031

> <b_mmod_Minimization_Converged-OPLS-2005>
0

> <r_mmod_RMS_Derivative-OPLS-2005>
2.33634328842163

$$$$
46
                    3D
 Structure written by MMmdl.
151159  0  0  1  0            999 V2000
  -30.6183  -14.6884   20.5139 C   0  0  0  0  0  0
  -30.4359  -12.4337   19.4638 C   0  0  0  0  0  0
  -29.5135  -12.5566   18.2311 C   0  0  0  0  0  0
  -28.0372  -12.3840   18.6297 C   0  0  0  0  0  0
  -27.6555  -13.2329   19.8715 C   0  0  2  0  0  0
  -28.6981  -13.0967   21.0054 C   0  0  0  0  0  0
  -25.2556  -13.8210   20.5713 C   0  0  0  0  0  0
  -24.1819  -13.0449   20.9188 C   0  0  0  0  0  0
  -24.6435  -11.6934   20.8744 C   0  0  0  0  0  0
  -23.9092  -10.4291   21.0363 C   0  0  0  0  0  0
  -24.3651   -9.4206   21.9131 C   0  0  0  0  0  0
  -23.6309   -8.2257   22.0720 C   0  0  0  0  0  0
  -22.4288   -8.0293   21.3541 C   0  0  0  0  0  0
  -21.9934   -9.0258   20.4628 C   0  0  0  0  0  0
  -22.7273  -10.2129   20.3016 C   0  0  0  0  0  0
  -21.6874   -6.0737   22.5277 C   0  0  0  0  0  0
  -21.4030   -6.5634   23.8203 C   0  0  0  0  0  0
  -21.3679   -5.6772   24.9165 C   0  0  0  0  0  0
  -21.6040   -4.3054   24.7207 C   0  0  0  0  0  0
  -21.8837   -3.8139   23.4323 C   0  0  0  0  0  0
  -21.9204   -4.6962   22.3389 C   0  0  0  0  0  0
  -22.7831  -13.5241   21.1808 C   0  0  0  0  0  0
  -22.1651   -4.2152   21.0969 F   0  0  0  0  0  0
  -21.5636   -3.4527   25.7714 F   0  0  0  0  0  0
  -30.0159  -13.4528   20.4529 N   0  0  0  0  0  0
  -26.3007  -12.9411   20.3353 N   0  0  0  0  0  0
  -25.9377  -11.6563   20.5761 N   0  0  0  0  0  0
  -22.0454  -12.8264   22.0419 N   0  0  0  0  0  0
  -25.4261  -15.1926   20.4188 N   0  0  0  0  0  0
  -31.7466  -14.8581   20.0396 O   0  0  0  0  0  0
  -21.6664   -6.8882   21.4224 O   0  0  0  0  0  0
  -22.3495  -14.5516   20.6631 O   0  0  0  0  0  0
  -24.6263  -31.8598   23.1996 C   0  0  0  0  0  0
  -25.9118  -32.4779   23.8327 C   0  0  1  0  0  0
  -27.2440  -27.3066   20.1323 C   0  0  0  0  0  0
  -25.5949  -33.8587   24.2276 N   0  0  0  0  0  0
  -23.4204  -30.4782   21.5458 C   0  0  2  0  0  0
  -24.8716  -28.9196   20.1219 C   0  0  0  0  0  0
  -22.7472  -29.4642   22.4998 C   0  0  0  0  0  0
  -18.0303  -28.1373   22.8479 C   0  0  0  0  0  0
  -24.1504  -36.7279   23.2632 C   0  0  0  0  0  0
  -25.9629  -30.7810   21.3774 C   0  0  0  0  0  0
  -26.0393  -29.4068   20.7226 C   0  0  0  0  0  0
  -27.2260  -28.6130   20.7158 C   0  0  0  0  0  0
  -26.0486  -26.8692   19.5151 C   0  0  0  0  0  0
  -24.8787  -27.6550   19.5111 C   0  0  0  0  0  0
  -23.6351  -29.7970   20.1681 C   0  0  0  0  0  0
  -25.4137  -36.3092   24.0332 C   0  0  1  0  0  0
  -20.5892  -28.3685   23.1288 C   0  0  2  0  0  0
  -20.6825  -26.9422   22.5401 C   0  0  0  0  0  0
  -19.5800  -26.6366   21.5226 C   0  0  0  0  0  0
  -18.1971  -26.7919   22.1604 C   0  0  0  0  0  0
  -19.1543  -28.8850   23.2867 C   0  0  0  0  0  0
  -18.9471  -30.1464   23.8859 C   0  0  0  0  0  0
  -17.6464  -30.6574   24.0553 C   0  0  0  0  0  0
  -25.9078  -34.9468   23.5103 C   0  0  0  0  0  0
  -16.5364  -29.9063   23.6332 C   0  0  0  0  0  0
  -16.7285  -28.6480   23.0351 C   0  0  0  0  0  0
  -26.4481  -31.6589   25.0709 C   0  0  0  0  0  0
  -25.3699  -31.3732   26.1424 C   0  0  0  0  0  0
  -27.0354  -30.3025   24.6179 C   0  0  0  0  0  0
  -27.6045  -32.4320   25.7470 C   0  0  0  0  0  0
  -27.5609  -37.1794   24.8455 C   0  0  0  0  0  0
  -21.4202  -29.3019   22.3689 N   0  0  0  0  0  0
  -26.4304  -37.3797   23.9413 N   0  0  0  0  0  0
  -24.6886  -31.0584   22.0967 N   0  0  0  0  0  0
  -23.4166  -28.8224   23.3136 O   0  0  0  0  0  0
  -28.3839  -26.4785   20.1614 O   0  0  0  0  0  0
  -26.5641  -34.8918   22.4668 O   0  0  0  0  0  0
  -23.5438  -32.1430   23.7307 O   0  0  0  0  0  0
  -30.3063  -17.7857   19.5591 C   0  0  0  0  0  0
  -29.3834  -18.0960   21.7608 C   0  0  0  0  0  0
  -30.1503  -19.1846   19.3131 C   0  0  0  0  0  0
  -29.2632  -19.5058   21.5264 C   0  0  0  0  0  0
  -29.9033  -17.1873   20.7885 C   0  0  0  0  0  0
  -29.6223  -20.0930   20.2781 C   0  0  0  0  0  0
  -29.4960  -24.0739   20.3620 C   0  0  0  0  0  0
  -29.4037  -22.5508   20.8796 C   0  0  0  0  0  0
  -28.2090  -25.0020   20.2058 C   0  0  0  0  0  0
  -29.8978  -15.7332   21.0433 N   0  0  0  0  0  0
  -29.4531  -21.4503   19.9079 O   0  0  0  0  0  0
  -31.4753  -12.5568   19.1615 H   0  0  0  0  0  0
  -30.3658  -11.4324   19.8887 H   0  0  0  0  0  0
  -29.7913  -11.8247   17.4695 H   0  0  0  0  0  0
  -29.6525  -13.5380   17.7753 H   0  0  0  0  0  0
  -27.8735  -11.3263   18.8296 H   0  0  0  0  0  0
  -27.3910  -12.6356   17.7882 H   0  0  0  0  0  0
  -27.6693  -14.2727   19.5484 H   0  0  0  0  0  0
  -28.7155  -12.0734   21.3863 H   0  0  0  0  0  0
  -28.4291  -13.7289   21.8511 H   0  0  0  0  0  0
  -25.2775   -9.5720   22.4711 H   0  0  0  0  0  0
  -24.0047   -7.4666   22.7467 H   0  0  0  0  0  0
  -21.0850   -8.8770   19.8950 H   0  0  0  0  0  0
  -22.3685  -10.9673   19.6153 H   0  0  0  0  0  0
  -21.2008   -7.6126   23.9721 H   0  0  0  0  0  0
  -21.1483   -6.0488   25.9079 H   0  0  0  0  0  0
  -22.0594   -2.7597   23.2816 H   0  0  0  0  0  0
  -22.4062  -11.9965   22.4895 H   0  0  0  0  0  0
  -21.1051  -13.1241   22.2523 H   0  0  0  0  0  0
  -24.6665  -15.8532   20.5436 H   0  0  0  0  0  0
  -26.2856  -15.6363   20.1247 H   0  0  0  0  0  0
  -26.7180  -32.5417   23.1067 H   0  0  0  0  0  0
  -25.0177  -33.9724   25.0473 H   0  0  0  0  0  0
  -22.7144  -31.2989   21.3978 H   0  0  0  0  0  0
  -23.3803  -35.9568   23.3274 H   0  0  0  0  0  0
  -24.3602  -36.8921   22.2046 H   0  0  0  0  0  0
  -23.7201  -37.6453   23.6661 H   0  0  0  0  0  0
  -26.1067  -31.5404   20.6075 H   0  0  0  0  0  0
  -26.8363  -30.8237   22.0166 H   0  0  0  0  0  0
  -28.1177  -28.9868   21.2001 H   0  0  0  0  0  0
  -25.9934  -25.9038   19.0360 H   0  0  0  0  0  0
  -23.9843  -27.2690   19.0415 H   0  0  0  0  0  0
  -23.7403  -30.5632   19.4004 H   0  0  0  0  0  0
  -22.7556  -29.2188   19.8770 H   0  0  0  0  0  0
  -25.1316  -36.1953   25.0827 H   0  0  0  0  0  0
  -20.9965  -28.3272   24.1415 H   0  0  0  0  0  0
  -20.5799  -26.2308   23.3595 H   0  0  0  0  0  0
  -21.6692  -26.7520   22.1159 H   0  0  0  0  0  0
  -19.6998  -25.6281   21.1261 H   0  0  0  0  0  0
  -19.6737  -27.3157   20.6745 H   0  0  0  0  0  0
  -17.4273  -26.6667   21.3983 H   0  0  0  0  0  0
  -18.0346  -26.0029   22.8950 H   0  0  0  0  0  0
  -19.7957  -30.7303   24.2150 H   0  0  0  0  0  0
  -17.5032  -31.6249   24.5162 H   0  0  0  0  0  0
  -15.5365  -30.2946   23.7697 H   0  0  0  0  0  0
  -15.8687  -28.0785   22.7088 H   0  0  0  0  0  0
  -24.5841  -30.7139   25.7725 H   0  0  0  0  0  0
  -24.8923  -32.2906   26.4872 H   0  0  0  0  0  0
  -25.7975  -30.8855   27.0188 H   0  0  0  0  0  0
  -26.2957  -29.6747   24.1210 H   0  0  0  0  0  0
  -27.4094  -29.7292   25.4666 H   0  0  0  0  0  0
  -27.8785  -30.4337   23.9399 H   0  0  0  0  0  0
  -27.2672  -33.3616   26.2050 H   0  0  0  0  0  0
  -28.3834  -32.6889   25.0286 H   0  0  0  0  0  0
  -28.0734  -31.8453   26.5370 H   0  0  0  0  0  0
  -28.2593  -38.0129   24.7612 H   0  0  0  0  0  0
  -28.1151  -36.2687   24.6170 H   0  0  0  0  0  0
  -27.2338  -37.1292   25.8850 H   0  0  0  0  0  0
  -20.9436  -29.8639   21.6781 H   0  0  0  0  0  0
  -26.0207  -38.2871   24.1430 H   0  0  0  0  0  0
  -30.7036  -17.1789   18.7545 H   0  0  0  0  0  0
  -29.0400  -17.7192   22.7203 H   0  0  0  0  0  0
  -30.4406  -19.5683   18.3432 H   0  0  0  0  0  0
  -28.8440  -20.1135   22.3196 H   0  0  0  0  0  0
  -30.0759  -24.0950   19.4386 H   0  0  0  0  0  0
  -30.1279  -24.5954   21.0820 H   0  0  0  0  0  0
  -28.5720  -22.4378   21.5775 H   0  0  0  0  0  0
  -30.3014  -22.3971   21.4825 H   0  0  0  0  0  0
  -27.5390  -24.7864   21.0384 H   0  0  0  0  0  0
  -27.7049  -24.6696   19.3012 H   0  0  0  0  0  0
  -29.1493  -15.4223   21.6469 H   0  0  0  0  0  0
  1 25  1  0  0  0
  1 30  2  0  0  0
  1 80  1  0  0  0
  2  3  1  0  0  0
  2 25  1  0  0  0
  2 82  1  0  0  0
  2 83  1  0  0  0
  3  4  1  0  0  0
  3 84  1  0  0  0
  3 85  1  0  0  0
  4  5  1  0  0  0
  4 86  1  0  0  0
  4 87  1  0  0  0
  5  6  1  0  0  0
  5 26  1  0  0  0
  5 88  1  0  0  0
  6 25  1  0  0  0
  6 89  1  0  0  0
  6 90  1  0  0  0
  7  8  2  0  0  0
  7 26  1  0  0  0
  7 29  1  0  0  0
  8  9  1  0  0  0
  8 22  1  0  0  0
  9 10  1  0  0  0
  9 27  2  0  0  0
 10 11  2  0  0  0
 10 15  1  0  0  0
 11 12  1  0  0  0
 11 91  1  0  0  0
 12 13  2  0  0  0
 12 92  1  0  0  0
 13 14  1  0  0  0
 13 31  1  0  0  0
 14 15  2  0  0  0
 14 93  1  0  0  0
 15 94  1  0  0  0
 16 17  2  0  0  0
 16 21  1  0  0  0
 16 31  1  0  0  0
 17 18  1  0  0  0
 17 95  1  0  0  0
 18 19  2  0  0  0
 18 96  1  0  0  0
 19 20  1  0  0  0
 19 24  1  0  0  0
 20 21  2  0  0  0
 20 97  1  0  0  0
 21 23  1  0  0  0
 22 28  1  0  0  0
 22 32  2  0  0  0
 26 27  1  0  0  0
 28 98  1  0  0  0
 28 99  1  0  0  0
 29100  1  0  0  0
 29101  1  0  0  0
 33 34  1  0  0  0
 33 66  1  0  0  0
 33 70  2  0  0  0
 34 36  1  0  0  0
 34 59  1  0  0  0
 34102  1  0  0  0
 35 44  2  0  0  0
 35 45  1  0  0  0
 35 68  1  0  0  0
 36 56  1  0  0  0
 36103  1  0  0  0
 37 39  1  0  0  0
 37 47  1  0  0  0
 37 66  1  0  0  0
 37104  1  0  0  0
 38 43  2  0  0  0
 38 46  1  0  0  0
 38 47  1  0  0  0
 39 64  1  0  0  0
 39 67  2  0  0  0
 40 52  1  0  0  0
 40 53  2  0  0  0
 40 58  1  0  0  0
 41105  1  0  0  0
 41106  1  0  0  0
 41107  1  0  0  0
 41 48  1  0  0  0
 42 43  1  0  0  0
 42 66  1  0  0  0
 42108  1  0  0  0
 42109  1  0  0  0
 43 44  1  0  0  0
 44110  1  0  0  0
 45 46  2  0  0  0
 45111  1  0  0  0
 46112  1  0  0  0
 47113  1  0  0  0
 47114  1  0  0  0
 48 56  1  0  0  0
 48 65  1  0  0  0
 48115  1  0  0  0
 49 50  1  0  0  0
 49 53  1  0  0  0
 49 64  1  0  0  0
 49116  1  0  0  0
 50 51  1  0  0  0
 50117  1  0  0  0
 50118  1  0  0  0
 51 52  1  0  0  0
 51119  1  0  0  0
 51120  1  0  0  0
 52121  1  0  0  0
 52122  1  0  0  0
 53 54  1  0  0  0
 54 55  2  0  0  0
 54123  1  0  0  0
 55 57  1  0  0  0
 55124  1  0  0  0
 56 69  2  0  0  0
 57 58  2  0  0  0
 57125  1  0  0  0
 58126  1  0  0  0
 59 60  1  0  0  0
 59 61  1  0  0  0
 59 62  1  0  0  0
 60127  1  0  0  0
 60128  1  0  0  0
 60129  1  0  0  0
 61130  1  0  0  0
 61131  1  0  0  0
 61132  1  0  0  0
 62133  1  0  0  0
 62134  1  0  0  0
 62135  1  0  0  0
 63 65  1  0  0  0
 63136  1  0  0  0
 63137  1  0  0  0
 63138  1  0  0  0
 64139  1  0  0  0
 65140  1  0  0  0
 68 79  1  0  0  0
 71 73  2  0  0  0
 71 75  1  0  0  0
 71141  1  0  0  0
 72 74  1  0  0  0
 72 75  2  0  0  0
 72142  1  0  0  0
 73 76  1  0  0  0
 73143  1  0  0  0
 74 76  2  0  0  0
 74144  1  0  0  0
 75 80  1  0  0  0
 76 81  1  0  0  0
 77 78  1  0  0  0
 77 79  1  0  0  0
 77145  1  0  0  0
 77146  1  0  0  0
 78 81  1  0  0  0
 78147  1  0  0  0
 78148  1  0  0  0
 79149  1  0  0  0
 79150  1  0  0  0
 80151  1  0  0  0
M  ISO  4   1 100  68 101  79 101  80 100
M  END
> <chiral flag>
0

> <version>
0

> <s_m_source_file>
/data/baiqing/PycharmProjects/Reinvent-master-3.2/result/LINK_invent/BTK/process_docking_weight1_custom_sum_contain_oxygen_bond_distance_aromatic_linkinvent_7_9_3/rearranged_h_0007.sdf

> <i_m_source_file_index>
47

> <r_mmod_Potential_Energy-OPLS-2005>
87.3086853027344

> <r_mmod_Stretch_Energy-OPLS-2005>
91.08984375

> <r_mmod_Bend_Energy-OPLS-2005>
159.319290161133

> <r_mmod_Torsional_Energy-OPLS-2005>
236.013916015625

> <r_mmod_Improper_Torsional_Energy-OPLS-2005>
3.05807876586914

> <r_mmod_Van_der_Waal_Energy-OPLS-2005>
138.714782714844

> <r_mmod_Electrostatic_Energy-OPLS-2005>
-383.976654052734

> <r_mmod_Solvation_Energy-OPLS-2005>
-214.270523071289

> <b_mmod_Minimization_Converged-OPLS-2005>
0

> <r_mmod_RMS_Derivative-OPLS-2005>
5.72391843795776

$$$$
47
                    3D
 Structure written by MMmdl.
180188  0  0  1  0            999 V2000
  -30.6150  -14.5200   20.4567 C   0  0  0  0  0  0
  -30.4416  -12.3060   19.4101 C   0  0  0  0  0  0
  -29.4899  -12.4682   18.2034 C   0  0  0  0  0  0
  -28.0171  -12.2963   18.6352 C   0  0  0  0  0  0
  -27.6513  -13.1703   19.8624 C   0  0  2  0  0  0
  -28.7086  -12.9882   20.9812 C   0  0  0  0  0  0
  -25.2603  -13.8062   20.5684 C   0  0  0  0  0  0
  -24.1838  -13.0399   20.9217 C   0  0  0  0  0  0
  -24.6354  -11.6852   20.8785 C   0  0  0  0  0  0
  -23.9022  -10.4251   21.0421 C   0  0  0  0  0  0
  -24.3588   -9.4164   21.9177 C   0  0  0  0  0  0
  -23.6256   -8.2216   22.0740 C   0  0  0  0  0  0
  -22.4244   -8.0262   21.3520 C   0  0  0  0  0  0
  -21.9883   -9.0235   20.4628 C   0  0  0  0  0  0
  -22.7210  -10.2111   20.3034 C   0  0  0  0  0  0
  -21.6838   -6.0719   22.5276 C   0  0  0  0  0  0
  -21.4025   -6.5637   23.8211 C   0  0  0  0  0  0
  -21.3644   -5.6791   24.9172 C   0  0  0  0  0  0
  -21.6027   -4.3051   24.7228 C   0  0  0  0  0  0
  -21.8830   -3.8139   23.4360 C   0  0  0  0  0  0
  -21.9197   -4.6954   22.3409 C   0  0  0  0  0  0
  -22.7862  -13.5203   21.1884 C   0  0  0  0  0  0
  -22.1661   -4.2134   21.0986 F   0  0  0  0  0  0
  -21.5601   -3.4543   25.7745 F   0  0  0  0  0  0
  -30.0357  -13.2931   20.4132 N   0  0  0  0  0  0
  -26.2970  -12.9140   20.3336 N   0  0  0  0  0  0
  -25.9249  -11.6355   20.5798 N   0  0  0  0  0  0
  -22.0543  -12.8168   22.0462 N   0  0  0  0  0  0
  -25.4344  -15.1776   20.4075 N   0  0  0  0  0  0
  -31.8086  -14.7393   20.2362 O   0  0  0  0  0  0
  -21.6615   -6.8857   21.4229 O   0  0  0  0  0  0
  -22.3531  -14.5475   20.6697 O   0  0  0  0  0  0
  -24.6130  -31.8676   23.2097 C   0  0  0  0  0  0
  -25.9024  -32.4822   23.8385 C   0  0  1  0  0  0
  -27.2420  -27.4327   20.0864 C   0  0  0  0  0  0
  -25.5892  -33.8629   24.2330 N   0  0  0  0  0  0
  -23.3996  -30.4913   21.5501 C   0  0  2  0  0  0
  -24.8440  -28.9532   20.1202 C   0  0  0  0  0  0
  -22.7379  -29.4658   22.4982 C   0  0  0  0  0  0
  -18.0261  -28.1378   22.8497 C   0  0  0  0  0  0
  -24.1492  -36.7318   23.2638 C   0  0  0  0  0  0
  -25.9284  -30.8300   21.3637 C   0  0  0  0  0  0
  -26.0034  -29.4637   20.7133 C   0  0  0  0  0  0
  -27.1988  -28.7109   20.6931 C   0  0  0  0  0  0
  -26.0506  -26.9296   19.5087 C   0  0  0  0  0  0
  -24.8611  -27.6827   19.5223 C   0  0  0  0  0  0
  -23.6085  -29.8216   20.1662 C   0  0  0  0  0  0
  -25.4114  -36.3132   24.0338 C   0  0  1  0  0  0
  -20.5850  -28.3663   23.1323 C   0  0  2  0  0  0
  -20.6768  -26.9402   22.5430 C   0  0  0  0  0  0
  -19.5748  -26.6381   21.5231 C   0  0  0  0  0  0
  -18.1919  -26.7917   22.1629 C   0  0  0  0  0  0
  -19.1513  -28.8833   23.2911 C   0  0  0  0  0  0
  -18.9459  -30.1433   23.8931 C   0  0  0  0  0  0
  -17.6469  -30.6600   24.0577 C   0  0  0  0  0  0
  -25.9030  -34.9488   23.5132 C   0  0  0  0  0  0
  -16.5361  -29.9114   23.6345 C   0  0  0  0  0  0
  -16.7250  -28.6518   23.0366 C   0  0  0  0  0  0
  -26.4466  -31.6597   25.0708 C   0  0  0  0  0  0
  -25.3746  -31.3686   26.1458 C   0  0  0  0  0  0
  -27.0293  -30.3044   24.6079 C   0  0  0  0  0  0
  -27.6057  -32.4305   25.7466 C   0  0  0  0  0  0
  -27.5584  -37.1814   24.8460 C   0  0  0  0  0  0
  -21.4109  -29.3031   22.3720 N   0  0  0  0  0  0
  -26.4309  -37.3809   23.9392 N   0  0  0  0  0  0
  -24.6651  -31.0780   22.0998 N   0  0  0  0  0  0
  -23.4156  -28.8204   23.3032 O   0  0  0  0  0  0
  -28.4573  -26.7688   20.0770 O   0  0  0  0  0  0
  -26.5584  -34.8934   22.4697 O   0  0  0  0  0  0
  -23.5332  -32.1435   23.7494 O   0  0  0  0  0  0
  -29.9613  -18.9208   21.7663 C   0  0  0  0  0  0
  -30.3239  -17.5876   21.4610 C   0  0  0  0  0  0
  -28.2986  -18.8759   19.9968 C   0  0  0  0  0  0
  -28.8980  -19.5513   21.0808 C   0  0  0  0  0  0
  -29.6250  -16.8802   20.4565 C   0  0  0  0  0  0
  -28.6455  -17.5416   19.6724 C   0  0  0  0  0  0
  -23.9641  -18.6866   23.0160 C   0  0  0  0  0  0
  -26.2569  -15.2543   16.9008 C   0  0  0  0  0  0
  -25.5926  -17.4180   15.7912 C   0  0  0  0  0  0
  -24.6645  -19.8811   22.3544 C   0  0  0  0  0  0
  -26.1954  -19.7530   22.3785 C   0  0  0  0  0  0
  -28.8607  -22.9469   20.3588 C   0  0  0  0  0  0
  -28.6996  -24.4274   20.7868 C   0  0  0  0  0  0
  -26.8898  -20.9010   21.6176 C   0  0  0  0  0  0
  -29.1659  -21.9875   21.5433 C   0  0  0  0  0  0
  -28.5937  -25.4184   19.6081 C   0  0  0  0  0  0
  -27.0449  -17.4893   17.8606 C   0  0  0  0  0  0
  -26.6854  -16.6925   16.5933 C   0  0  0  0  0  0
  -29.6712  -15.4687   20.3304 N   0  0  0  0  0  0
  -28.3514  -20.7700   21.5462 N   0  0  0  0  0  0
  -28.0316  -16.8250   18.6556 O   0  0  0  0  0  0
  -31.4782  -12.4440   19.1004 H   0  0  0  0  0  0
  -30.3763  -11.2988   19.8245 H   0  0  0  0  0  0
  -29.7386  -11.7360   17.4351 H   0  0  0  0  0  0
  -29.6268  -13.4510   17.7482 H   0  0  0  0  0  0
  -27.8693  -11.2439   18.8827 H   0  0  0  0  0  0
  -27.3427  -12.4985   17.8025 H   0  0  0  0  0  0
  -27.6592  -14.1986   19.5168 H   0  0  0  0  0  0
  -28.6963  -11.9649   21.3603 H   0  0  0  0  0  0
  -28.4868  -13.6265   21.8386 H   0  0  0  0  0  0
  -25.2747   -9.5620   22.4740 H   0  0  0  0  0  0
  -23.9967   -7.4583   22.7440 H   0  0  0  0  0  0
  -21.0819   -8.8731   19.8916 H   0  0  0  0  0  0
  -22.3668  -10.9644   19.6126 H   0  0  0  0  0  0
  -21.2046   -7.6147   23.9703 H   0  0  0  0  0  0
  -21.1435   -6.0527   25.9064 H   0  0  0  0  0  0
  -22.0631   -2.7611   23.2860 H   0  0  0  0  0  0
  -22.4219  -11.9855   22.4857 H   0  0  0  0  0  0
  -21.1140  -13.1106   22.2674 H   0  0  0  0  0  0
  -24.6609  -15.8226   20.5185 H   0  0  0  0  0  0
  -26.2587  -15.6134   20.0167 H   0  0  0  0  0  0
  -26.7076  -32.5537   23.1138 H   0  0  0  0  0  0
  -25.0078  -33.9811   25.0499 H   0  0  0  0  0  0
  -22.6903  -31.3089   21.4093 H   0  0  0  0  0  0
  -23.3765  -35.9636   23.3321 H   0  0  0  0  0  0
  -24.3590  -36.8914   22.2049 H   0  0  0  0  0  0
  -23.7218  -37.6519   23.6641 H   0  0  0  0  0  0
  -26.0413  -31.5950   20.5934 H   0  0  0  0  0  0
  -26.8153  -30.8832   21.9821 H   0  0  0  0  0  0
  -28.0954  -29.1095   21.1470 H   0  0  0  0  0  0
  -26.0046  -25.9634   19.0333 H   0  0  0  0  0  0
  -23.9631  -27.2794   19.0736 H   0  0  0  0  0  0
  -23.7190  -30.5947   19.4053 H   0  0  0  0  0  0
  -22.7318  -29.2417   19.8713 H   0  0  0  0  0  0
  -25.1299  -36.2015   25.0832 H   0  0  0  0  0  0
  -20.9943  -28.3220   24.1436 H   0  0  0  0  0  0
  -20.5714  -26.2253   23.3610 H   0  0  0  0  0  0
  -21.6634  -26.7486   22.1193 H   0  0  0  0  0  0
  -19.6927  -25.6292   21.1251 H   0  0  0  0  0  0
  -19.6682  -27.3182   20.6770 H   0  0  0  0  0  0
  -17.4187  -26.6649   21.4035 H   0  0  0  0  0  0
  -18.0329  -26.0071   22.9033 H   0  0  0  0  0  0
  -19.7948  -30.7234   24.2310 H   0  0  0  0  0  0
  -17.5051  -31.6286   24.5164 H   0  0  0  0  0  0
  -15.5367  -30.3047   23.7658 H   0  0  0  0  0  0
  -15.8635  -28.0866   22.7089 H   0  0  0  0  0  0
  -24.5929  -30.7022   25.7788 H   0  0  0  0  0  0
  -24.8935  -32.2847   26.4914 H   0  0  0  0  0  0
  -25.8123  -30.8847   27.0204 H   0  0  0  0  0  0
  -26.2837  -29.6791   24.1156 H   0  0  0  0  0  0
  -27.4090  -29.7277   25.4521 H   0  0  0  0  0  0
  -27.8668  -30.4352   23.9214 H   0  0  0  0  0  0
  -27.2690  -33.3596   26.2078 H   0  0  0  0  0  0
  -28.3866  -32.6870   25.0294 H   0  0  0  0  0  0
  -28.0729  -31.8397   26.5354 H   0  0  0  0  0  0
  -28.2620  -38.0097   24.7531 H   0  0  0  0  0  0
  -28.1066  -36.2639   24.6293 H   0  0  0  0  0  0
  -27.2293  -37.1471   25.8858 H   0  0  0  0  0  0
  -20.9244  -29.8738   21.6952 H   0  0  0  0  0  0
  -26.0206  -38.2890   24.1406 H   0  0  0  0  0  0
  -30.4372  -19.4176   22.6008 H   0  0  0  0  0  0
  -31.0649  -17.0869   22.0674 H   0  0  0  0  0  0
  -27.5047  -19.3793   19.4684 H   0  0  0  0  0  0
  -22.8829  -18.8213   23.0175 H   0  0  0  0  0  0
  -24.2780  -18.5597   24.0525 H   0  0  0  0  0  0
  -24.1782  -17.7567   22.4870 H   0  0  0  0  0  0
  -26.0160  -14.7098   15.9871 H   0  0  0  0  0  0
  -25.3829  -15.2215   17.5522 H   0  0  0  0  0  0
  -27.0678  -14.7185   17.3860 H   0  0  0  0  0  0
  -25.3477  -16.8760   14.8770 H   0  0  0  0  0  0
  -25.9079  -18.4210   15.5033 H   0  0  0  0  0  0
  -24.6745  -17.5186   16.3709 H   0  0  0  0  0  0
  -24.3682  -20.8033   22.8570 H   0  0  0  0  0  0
  -24.3144  -19.9690   21.3237 H   0  0  0  0  0  0
  -26.4628  -18.7845   21.9584 H   0  0  0  0  0  0
  -26.5439  -19.7422   23.4122 H   0  0  0  0  0  0
  -29.6648  -22.8646   19.6264 H   0  0  0  0  0  0
  -27.9587  -22.6453   19.8261 H   0  0  0  0  0  0
  -29.5455  -24.7205   21.4098 H   0  0  0  0  0  0
  -27.8118  -24.5227   21.4126 H   0  0  0  0  0  0
  -26.6421  -21.8418   22.1113 H   0  0  0  0  0  0
  -26.4814  -20.9774   20.6094 H   0  0  0  0  0  0
  -28.9855  -22.4962   22.4930 H   0  0  0  0  0  0
  -30.2278  -21.7326   21.5459 H   0  0  0  0  0  0
  -27.8400  -25.1048   18.8912 H   0  0  0  0  0  0
  -29.5264  -25.3823   19.0450 H   0  0  0  0  0  0
  -26.1522  -17.6612   18.4637 H   0  0  0  0  0  0
  -27.4148  -18.4601   17.5276 H   0  0  0  0  0  0
  -27.5785  -16.6415   15.9688 H   0  0  0  0  0  0
  -28.7722  -15.0657   20.1250 H   0  0  0  0  0  0
  1 25  1  0  0  0
  1 30  2  0  0  0
  1 89  1  0  0  0
  2  3  1  0  0  0
  2 25  1  0  0  0
  2 92  1  0  0  0
  2 93  1  0  0  0
  3  4  1  0  0  0
  3 94  1  0  0  0
  3 95  1  0  0  0
  4  5  1  0  0  0
  4 96  1  0  0  0
  4 97  1  0  0  0
  5  6  1  0  0  0
  5 26  1  0  0  0
  5 98  1  0  0  0
  6 25  1  0  0  0
  6 99  1  0  0  0
  6100  1  0  0  0
  7  8  2  0  0  0
  7 26  1  0  0  0
  7 29  1  0  0  0
  8  9  1  0  0  0
  8 22  1  0  0  0
  9 10  1  0  0  0
  9 27  2  0  0  0
 10 11  2  0  0  0
 10 15  1  0  0  0
 11 12  1  0  0  0
 11101  1  0  0  0
 12 13  2  0  0  0
 12102  1  0  0  0
 13 14  1  0  0  0
 13 31  1  0  0  0
 14 15  2  0  0  0
 14103  1  0  0  0
 15104  1  0  0  0
 16 17  2  0  0  0
 16 21  1  0  0  0
 16 31  1  0  0  0
 17 18  1  0  0  0
 17105  1  0  0  0
 18 19  2  0  0  0
 18106  1  0  0  0
 19 20  1  0  0  0
 19 24  1  0  0  0
 20 21  2  0  0  0
 20107  1  0  0  0
 21 23  1  0  0  0
 22 28  1  0  0  0
 22 32  2  0  0  0
 26 27  1  0  0  0
 28108  1  0  0  0
 28109  1  0  0  0
 29110  1  0  0  0
 29111  1  0  0  0
 33 34  1  0  0  0
 33 66  1  0  0  0
 33 70  2  0  0  0
 34 36  1  0  0  0
 34 59  1  0  0  0
 34112  1  0  0  0
 35 44  2  0  0  0
 35 45  1  0  0  0
 35 68  1  0  0  0
 36 56  1  0  0  0
 36113  1  0  0  0
 37 39  1  0  0  0
 37 47  1  0  0  0
 37 66  1  0  0  0
 37114  1  0  0  0
 38 43  2  0  0  0
 38 46  1  0  0  0
 38 47  1  0  0  0
 39 64  1  0  0  0
 39 67  2  0  0  0
 40 52  1  0  0  0
 40 53  2  0  0  0
 40 58  1  0  0  0
 41115  1  0  0  0
 41116  1  0  0  0
 41117  1  0  0  0
 41 48  1  0  0  0
 42 43  1  0  0  0
 42 66  1  0  0  0
 42118  1  0  0  0
 42119  1  0  0  0
 43 44  1  0  0  0
 44120  1  0  0  0
 45 46  2  0  0  0
 45121  1  0  0  0
 46122  1  0  0  0
 47123  1  0  0  0
 47124  1  0  0  0
 48 56  1  0  0  0
 48 65  1  0  0  0
 48125  1  0  0  0
 49 50  1  0  0  0
 49 53  1  0  0  0
 49 64  1  0  0  0
 49126  1  0  0  0
 50 51  1  0  0  0
 50127  1  0  0  0
 50128  1  0  0  0
 51 52  1  0  0  0
 51129  1  0  0  0
 51130  1  0  0  0
 52131  1  0  0  0
 52132  1  0  0  0
 53 54  1  0  0  0
 54 55  2  0  0  0
 54133  1  0  0  0
 55 57  1  0  0  0
 55134  1  0  0  0
 56 69  2  0  0  0
 57 58  2  0  0  0
 57135  1  0  0  0
 58136  1  0  0  0
 59 60  1  0  0  0
 59 61  1  0  0  0
 59 62  1  0  0  0
 60137  1  0  0  0
 60138  1  0  0  0
 60139  1  0  0  0
 61140  1  0  0  0
 61141  1  0  0  0
 61142  1  0  0  0
 62143  1  0  0  0
 62144  1  0  0  0
 62145  1  0  0  0
 63 65  1  0  0  0
 63146  1  0  0  0
 63147  1  0  0  0
 63148  1  0  0  0
 64149  1  0  0  0
 65150  1  0  0  0
 68 86  1  0  0  0
 71 72  2  0  0  0
 71 74  1  0  0  0
 71151  1  0  0  0
 72 75  1  0  0  0
 72152  1  0  0  0
 73 74  2  0  0  0
 73 76  1  0  0  0
 73153  1  0  0  0
 74 90  1  0  0  0
 75 76  2  0  0  0
 75 89  1  0  0  0
 76 91  1  0  0  0
 77 80  1  0  0  0
 77154  1  0  0  0
 77155  1  0  0  0
 77156  1  0  0  0
 78157  1  0  0  0
 78158  1  0  0  0
 78159  1  0  0  0
 78 88  1  0  0  0
 79 88  1  0  0  0
 79160  1  0  0  0
 79161  1  0  0  0
 79162  1  0  0  0
 80 81  1  0  0  0
 80163  1  0  0  0
 80164  1  0  0  0
 81 84  1  0  0  0
 81165  1  0  0  0
 81166  1  0  0  0
 82 83  1  0  0  0
 82 85  1  0  0  0
 82167  1  0  0  0
 82168  1  0  0  0
 83 86  1  0  0  0
 83169  1  0  0  0
 83170  1  0  0  0
 84 90  1  0  0  0
 84171  1  0  0  0
 84172  1  0  0  0
 85 90  1  0  0  0
 85173  1  0  0  0
 85174  1  0  0  0
 86175  1  0  0  0
 86176  1  0  0  0
 87 88  1  0  0  0
 87 91  1  0  0  0
 87177  1  0  0  0
 87178  1  0  0  0
 88179  1  0  0  0
 89180  1  0  0  0
M  ISO  4   1 100  68 101  86 101  89 100
M  END
> <chiral flag>
0

> <version>
0

> <s_m_source_file>
/data/baiqing/PycharmProjects/Reinvent-master-3.2/result/LINK_invent/BTK/process_docking_weight1_custom_sum_contain_oxygen_bond_distance_aromatic_linkinvent_7_9_3/rearranged_h_0007.sdf

> <i_m_source_file_index>
48

> <r_mmod_Potential_Energy-OPLS-2005>
3.41745543479919

> <r_mmod_Stretch_Energy-OPLS-2005>
39.2135925292969

> <r_mmod_Bend_Energy-OPLS-2005>
142.67951965332

> <r_mmod_Torsional_Energy-OPLS-2005>
270.693725585938

> <r_mmod_Improper_Torsional_Energy-OPLS-2005>
15.5577421188354

> <r_mmod_Van_der_Waal_Energy-OPLS-2005>
144.850830078125

> <r_mmod_Electrostatic_Energy-OPLS-2005>
-435.240692138672

> <r_mmod_Solvation_Energy-OPLS-2005>
-198.837417602539

> <b_mmod_Minimization_Converged-OPLS-2005>
0

> <r_mmod_RMS_Derivative-OPLS-2005>
2.65669822692871

$$$$
48
                    3D
 Structure written by MMmdl.
161169  0  0  1  0            999 V2000
  -30.7151  -14.4676   20.6043 C   0  0  0  0  0  0
  -30.4268  -12.3155   19.4219 C   0  0  0  0  0  0
  -29.4993  -12.5119   18.2061 C   0  0  0  0  0  0
  -28.0200  -12.3683   18.6169 C   0  0  0  0  0  0
  -27.6637  -13.2083   19.8727 C   0  0  2  0  0  0
  -28.7032  -12.9876   20.9944 C   0  0  0  0  0  0
  -25.2611  -13.8161   20.5698 C   0  0  0  0  0  0
  -24.1860  -13.0451   20.9195 C   0  0  0  0  0  0
  -24.6402  -11.6910   20.8741 C   0  0  0  0  0  0
  -23.9058  -10.4301   21.0418 C   0  0  0  0  0  0
  -24.3623   -9.4207   21.9186 C   0  0  0  0  0  0
  -23.6296   -8.2237   22.0749 C   0  0  0  0  0  0
  -22.4270   -8.0278   21.3545 C   0  0  0  0  0  0
  -21.9910   -9.0255   20.4648 C   0  0  0  0  0  0
  -22.7238  -10.2136   20.3060 C   0  0  0  0  0  0
  -21.6849   -6.0739   22.5286 C   0  0  0  0  0  0
  -21.4017   -6.5637   23.8229 C   0  0  0  0  0  0
  -21.3659   -5.6779   24.9176 C   0  0  0  0  0  0
  -21.6043   -4.3042   24.7214 C   0  0  0  0  0  0
  -21.8817   -3.8144   23.4335 C   0  0  0  0  0  0
  -21.9197   -4.6971   22.3400 C   0  0  0  0  0  0
  -22.7877  -13.5247   21.1848 C   0  0  0  0  0  0
  -22.1660   -4.2163   21.0978 F   0  0  0  0  0  0
  -21.5634   -3.4520   25.7725 F   0  0  0  0  0  0
  -30.0362  -13.2968   20.4474 N   0  0  0  0  0  0
  -26.3048  -12.9339   20.3339 N   0  0  0  0  0  0
  -25.9326  -11.6491   20.5702 N   0  0  0  0  0  0
  -22.0505  -12.8269   22.0415 N   0  0  0  0  0  0
  -25.4325  -15.1883   20.4128 N   0  0  0  0  0  0
  -31.8256  -14.6572   20.1017 O   0  0  0  0  0  0
  -21.6623   -6.8889   21.4251 O   0  0  0  0  0  0
  -22.3568  -14.5538   20.6655 O   0  0  0  0  0  0
  -24.6085  -31.8722   23.2135 C   0  0  0  0  0  0
  -25.8990  -32.4848   23.8433 C   0  0  1  0  0  0
  -27.2425  -27.4705   20.0943 C   0  0  0  0  0  0
  -25.5885  -33.8649   24.2372 N   0  0  0  0  0  0
  -23.3991  -30.4930   21.5520 C   0  0  2  0  0  0
  -24.8488  -28.9640   20.1155 C   0  0  0  0  0  0
  -22.7388  -29.4698   22.5029 C   0  0  0  0  0  0
  -18.0282  -28.1334   22.8585 C   0  0  0  0  0  0
  -24.1488  -36.7293   23.2636 C   0  0  0  0  0  0
  -25.9220  -30.8444   21.3672 C   0  0  0  0  0  0
  -26.0021  -29.4811   20.7188 C   0  0  0  0  0  0
  -27.2020  -28.7388   20.7162 C   0  0  0  0  0  0
  -26.0824  -26.9656   19.4779 C   0  0  0  0  0  0
  -24.8819  -27.7029   19.4910 C   0  0  0  0  0  0
  -23.6062  -29.8230   20.1665 C   0  0  0  0  0  0
  -25.4107  -36.3121   24.0348 C   0  0  1  0  0  0
  -20.5869  -28.3668   23.1295 C   0  0  2  0  0  0
  -20.6817  -26.9424   22.5312 C   0  0  0  0  0  0
  -19.5674  -26.6336   21.5275 C   0  0  0  0  0  0
  -18.1941  -26.7815   22.1864 C   0  0  0  0  0  0
  -19.1519  -28.8837   23.2918 C   0  0  0  0  0  0
  -18.9444  -30.1484   23.8854 C   0  0  0  0  0  0
  -17.6439  -30.6608   24.0497 C   0  0  0  0  0  0
  -25.9035  -34.9486   23.5156 C   0  0  0  0  0  0
  -16.5347  -29.9064   23.6320 C   0  0  0  0  0  0
  -16.7267  -28.6455   23.0410 C   0  0  0  0  0  0
  -26.4449  -31.6609   25.0737 C   0  0  0  0  0  0
  -25.3734  -31.3668   26.1495 C   0  0  0  0  0  0
  -27.0278  -30.3066   24.6071 C   0  0  0  0  0  0
  -27.6056  -32.4316   25.7467 C   0  0  0  0  0  0
  -27.5584  -37.1808   24.8476 C   0  0  0  0  0  0
  -21.4115  -29.3101   22.3764 N   0  0  0  0  0  0
  -26.4298  -37.3804   23.9413 N   0  0  0  0  0  0
  -24.6606  -31.0839   22.1032 N   0  0  0  0  0  0
  -23.4168  -28.8234   23.3065 O   0  0  0  0  0  0
  -28.3815  -26.7014   20.0732 O   0  0  0  0  0  0
  -26.5596  -34.8909   22.4720 O   0  0  0  0  0  0
  -23.5267  -32.1494   23.7515 O   0  0  0  0  0  0
  -31.7295  -17.2363   21.6748 C   0  0  0  0  0  0
  -32.0240  -18.5943   21.9105 C   0  0  0  0  0  0
  -29.3797  -17.8022   21.4307 C   0  0  0  0  0  0
  -29.6652  -19.1749   21.6516 C   0  0  0  0  0  0
  -30.4009  -16.8214   21.4270 C   0  0  0  0  0  0
  -31.0002  -19.5720   21.9117 C   0  0  0  0  0  0
  -28.6421  -21.4873   20.9351 C   0  0  0  0  0  0
  -32.1096  -21.2349   23.2248 C   0  0  0  0  0  0
  -28.4985  -20.1730   21.7337 C   0  0  0  0  0  0
  -29.2029  -24.8767   21.4910 C   0  0  0  0  0  0
  -28.0728  -23.9542   20.9847 C   0  0  0  0  0  0
  -28.8919  -26.3822   21.3656 C   0  0  0  0  0  0
  -30.0367  -15.4489   21.2402 N   0  0  0  0  0  0
  -28.1760  -22.5978   21.5344 N   0  0  0  0  0  0
  -29.1224  -21.4928   19.7988 O   0  0  0  0  0  0
  -31.2682  -20.9049   22.1261 O   0  0  0  0  0  0
  -31.4702  -12.4151   19.1214 H   0  0  0  0  0  0
  -30.3292  -11.3030   19.8152 H   0  0  0  0  0  0
  -29.7410  -11.7854   17.4300 H   0  0  0  0  0  0
  -29.6677  -13.4959   17.7654 H   0  0  0  0  0  0
  -27.8379  -11.3118   18.8134 H   0  0  0  0  0  0
  -27.3668  -12.6353   17.7847 H   0  0  0  0  0  0
  -27.7047  -14.2566   19.5762 H   0  0  0  0  0  0
  -28.6839  -11.9488   21.3269 H   0  0  0  0  0  0
  -28.4531  -13.5763   21.8785 H   0  0  0  0  0  0
  -25.2780   -9.5658   22.4742 H   0  0  0  0  0  0
  -23.9998   -7.4621   22.7457 H   0  0  0  0  0  0
  -21.0842   -8.8784   19.8950 H   0  0  0  0  0  0
  -22.3723  -10.9671   19.6147 H   0  0  0  0  0  0
  -21.2004   -7.6143   23.9738 H   0  0  0  0  0  0
  -21.1490   -6.0501   25.9088 H   0  0  0  0  0  0
  -22.0605   -2.7605   23.2811 H   0  0  0  0  0  0
  -22.4072  -11.9924   22.4835 H   0  0  0  0  0  0
  -21.1109  -13.1307   22.2576 H   0  0  0  0  0  0
  -24.6633  -15.8397   20.5255 H   0  0  0  0  0  0
  -26.2739  -15.6296   20.0678 H   0  0  0  0  0  0
  -26.7062  -32.5579   23.1197 H   0  0  0  0  0  0
  -25.0080  -33.9856   25.0544 H   0  0  0  0  0  0
  -22.6882  -31.3089   21.4162 H   0  0  0  0  0  0
  -23.3757  -35.9626   23.3323 H   0  0  0  0  0  0
  -24.3583  -36.8875   22.2052 H   0  0  0  0  0  0
  -23.7237  -37.6494   23.6633 H   0  0  0  0  0  0
  -26.0396  -31.6129   20.6021 H   0  0  0  0  0  0
  -26.8073  -30.8977   21.9868 H   0  0  0  0  0  0
  -28.0876  -29.1395   21.1898 H   0  0  0  0  0  0
  -26.1064  -25.9961   19.0032 H   0  0  0  0  0  0
  -24.0007  -27.2995   19.0109 H   0  0  0  0  0  0
  -23.7081  -30.5982   19.4060 H   0  0  0  0  0  0
  -22.7327  -29.2376   19.8692 H   0  0  0  0  0  0
  -25.1293  -36.2004   25.0848 H   0  0  0  0  0  0
  -20.9927  -28.3195   24.1435 H   0  0  0  0  0  0
  -21.6593  -26.7618   22.0827 H   0  0  0  0  0  0
  -20.6006  -26.2181   23.3448 H   0  0  0  0  0  0
  -19.6791  -25.6249   21.1292 H   0  0  0  0  0  0
  -19.6493  -27.3130   20.6785 H   0  0  0  0  0  0
  -17.4074  -26.6399   21.4449 H   0  0  0  0  0  0
  -18.0550  -26.0003   22.9361 H   0  0  0  0  0  0
  -19.7900  -30.7358   24.2162 H   0  0  0  0  0  0
  -17.4945  -31.6328   24.5011 H   0  0  0  0  0  0
  -15.5333  -30.2953   23.7572 H   0  0  0  0  0  0
  -15.8656  -28.0737   22.7173 H   0  0  0  0  0  0
  -24.5930  -30.7001   25.7811 H   0  0  0  0  0  0
  -24.8888  -32.2798   26.4957 H   0  0  0  0  0  0
  -25.8101  -30.8826   27.0240 H   0  0  0  0  0  0
  -26.2800  -29.6844   24.1139 H   0  0  0  0  0  0
  -27.4091  -29.7288   25.4499 H   0  0  0  0  0  0
  -27.8625  -30.4408   23.9188 H   0  0  0  0  0  0
  -27.2712  -33.3616   26.2056 H   0  0  0  0  0  0
  -28.3819  -32.6870   25.0252 H   0  0  0  0  0  0
  -28.0765  -31.8440   26.5349 H   0  0  0  0  0  0
  -28.2634  -38.0074   24.7521 H   0  0  0  0  0  0
  -28.1063  -36.2623   24.6334 H   0  0  0  0  0  0
  -27.2309  -37.1482   25.8879 H   0  0  0  0  0  0
  -20.9254  -29.8828   21.6998 H   0  0  0  0  0  0
  -26.0189  -38.2889   24.1410 H   0  0  0  0  0  0
  -32.5390  -16.5192   21.7056 H   0  0  0  0  0  0
  -33.0563  -18.8686   22.0751 H   0  0  0  0  0  0
  -28.3547  -17.4968   21.2694 H   0  0  0  0  0  0
  -31.6008  -21.0212   24.1666 H   0  0  0  0  0  0
  -32.3193  -22.3040   23.2033 H   0  0  0  0  0  0
  -33.0699  -20.7220   23.2173 H   0  0  0  0  0  0
  -28.3430  -20.4090   22.7876 H   0  0  0  0  0  0
  -27.5809  -19.6891   21.3956 H   0  0  0  0  0  0
  -30.1239  -24.6508   20.9553 H   0  0  0  0  0  0
  -29.4076  -24.6699   22.5435 H   0  0  0  0  0  0
  -28.0685  -23.9386   19.8923 H   0  0  0  0  0  0
  -27.1056  -24.3646   21.2790 H   0  0  0  0  0  0
  -29.7996  -26.9634   21.5426 H   0  0  0  0  0  0
  -28.1877  -26.6520   22.1561 H   0  0  0  0  0  0
  -29.0946  -15.2013   21.4982 H   0  0  0  0  0  0
  -27.7900  -22.4751   22.4622 H   0  0  0  0  0  0
  1 25  1  0  0  0
  1 30  2  0  0  0
  1 83  1  0  0  0
  2  3  1  0  0  0
  2 25  1  0  0  0
  2 87  1  0  0  0
  2 88  1  0  0  0
  3  4  1  0  0  0
  3 89  1  0  0  0
  3 90  1  0  0  0
  4  5  1  0  0  0
  4 91  1  0  0  0
  4 92  1  0  0  0
  5  6  1  0  0  0
  5 26  1  0  0  0
  5 93  1  0  0  0
  6 25  1  0  0  0
  6 94  1  0  0  0
  6 95  1  0  0  0
  7  8  2  0  0  0
  7 26  1  0  0  0
  7 29  1  0  0  0
  8  9  1  0  0  0
  8 22  1  0  0  0
  9 10  1  0  0  0
  9 27  2  0  0  0
 10 11  2  0  0  0
 10 15  1  0  0  0
 11 12  1  0  0  0
 11 96  1  0  0  0
 12 13  2  0  0  0
 12 97  1  0  0  0
 13 14  1  0  0  0
 13 31  1  0  0  0
 14 15  2  0  0  0
 14 98  1  0  0  0
 15 99  1  0  0  0
 16 17  2  0  0  0
 16 21  1  0  0  0
 16 31  1  0  0  0
 17 18  1  0  0  0
 17100  1  0  0  0
 18 19  2  0  0  0
 18101  1  0  0  0
 19 20  1  0  0  0
 19 24  1  0  0  0
 20 21  2  0  0  0
 20102  1  0  0  0
 21 23  1  0  0  0
 22 28  1  0  0  0
 22 32  2  0  0  0
 26 27  1  0  0  0
 28103  1  0  0  0
 28104  1  0  0  0
 29105  1  0  0  0
 29106  1  0  0  0
 33 34  1  0  0  0
 33 66  1  0  0  0
 33 70  2  0  0  0
 34 36  1  0  0  0
 34 59  1  0  0  0
 34107  1  0  0  0
 35 44  2  0  0  0
 35 45  1  0  0  0
 35 68  1  0  0  0
 36 56  1  0  0  0
 36108  1  0  0  0
 37 39  1  0  0  0
 37 47  1  0  0  0
 37 66  1  0  0  0
 37109  1  0  0  0
 38 43  2  0  0  0
 38 46  1  0  0  0
 38 47  1  0  0  0
 39 64  1  0  0  0
 39 67  2  0  0  0
 40 52  1  0  0  0
 40 53  2  0  0  0
 40 58  1  0  0  0
 41110  1  0  0  0
 41111  1  0  0  0
 41112  1  0  0  0
 41 48  1  0  0  0
 42 43  1  0  0  0
 42 66  1  0  0  0
 42113  1  0  0  0
 42114  1  0  0  0
 43 44  1  0  0  0
 44115  1  0  0  0
 45 46  2  0  0  0
 45116  1  0  0  0
 46117  1  0  0  0
 47118  1  0  0  0
 47119  1  0  0  0
 48 56  1  0  0  0
 48 65  1  0  0  0
 48120  1  0  0  0
 49 50  1  0  0  0
 49 53  1  0  0  0
 49 64  1  0  0  0
 49121  1  0  0  0
 50 51  1  0  0  0
 50122  1  0  0  0
 50123  1  0  0  0
 51 52  1  0  0  0
 51124  1  0  0  0
 51125  1  0  0  0
 52126  1  0  0  0
 52127  1  0  0  0
 53 54  1  0  0  0
 54 55  2  0  0  0
 54128  1  0  0  0
 55 57  1  0  0  0
 55129  1  0  0  0
 56 69  2  0  0  0
 57 58  2  0  0  0
 57130  1  0  0  0
 58131  1  0  0  0
 59 60  1  0  0  0
 59 61  1  0  0  0
 59 62  1  0  0  0
 60132  1  0  0  0
 60133  1  0  0  0
 60134  1  0  0  0
 61135  1  0  0  0
 61136  1  0  0  0
 61137  1  0  0  0
 62138  1  0  0  0
 62139  1  0  0  0
 62140  1  0  0  0
 63 65  1  0  0  0
 63141  1  0  0  0
 63142  1  0  0  0
 63143  1  0  0  0
 64144  1  0  0  0
 65145  1  0  0  0
 68 82  1  0  0  0
 71 72  2  0  0  0
 71 75  1  0  0  0
 71146  1  0  0  0
 72 76  1  0  0  0
 72147  1  0  0  0
 73 74  1  0  0  0
 73 75  2  0  0  0
 73148  1  0  0  0
 74 76  2  0  0  0
 74 79  1  0  0  0
 75 83  1  0  0  0
 76 86  1  0  0  0
 77 79  1  0  0  0
 77 84  1  0  0  0
 77 85  2  0  0  0
 78 86  1  0  0  0
 78149  1  0  0  0
 78150  1  0  0  0
 78151  1  0  0  0
 79152  1  0  0  0
 79153  1  0  0  0
 80 81  1  0  0  0
 80 82  1  0  0  0
 80154  1  0  0  0
 80155  1  0  0  0
 81 84  1  0  0  0
 81156  1  0  0  0
 81157  1  0  0  0
 82158  1  0  0  0
 82159  1  0  0  0
 83160  1  0  0  0
 84161  1  0  0  0
M  ISO  4   1 100  68 101  82 101  83 100
M  END
> <chiral flag>
0

> <version>
0

> <s_m_source_file>
/data/baiqing/PycharmProjects/Reinvent-master-3.2/result/LINK_invent/BTK/process_docking_weight1_custom_sum_contain_oxygen_bond_distance_aromatic_linkinvent_7_9_3/rearranged_h_0007.sdf

> <i_m_source_file_index>
49

> <r_mmod_Potential_Energy-OPLS-2005>
-103.740440368652

> <r_mmod_Stretch_Energy-OPLS-2005>
37.4398803710938

> <r_mmod_Bend_Energy-OPLS-2005>
102.921379089355

> <r_mmod_Torsional_Energy-OPLS-2005>
252.313766479492

> <r_mmod_Improper_Torsional_Energy-OPLS-2005>
3.69896459579468

> <r_mmod_Van_der_Waal_Energy-OPLS-2005>
153.740982055664

> <r_mmod_Electrostatic_Energy-OPLS-2005>
-411.138214111328

> <r_mmod_Solvation_Energy-OPLS-2005>
-252.90055847168

> <b_mmod_Minimization_Converged-OPLS-2005>
0

> <r_mmod_RMS_Derivative-OPLS-2005>
3.78925347328186

$$$$
49
                    3D
 Structure written by MMmdl.
165173  0  0  1  0            999 V2000
  -30.7736  -14.3951   20.6414 C   0  0  0  0  0  0
  -30.4146  -12.2865   19.4109 C   0  0  0  0  0  0
  -29.4890  -12.5135   18.1998 C   0  0  0  0  0  0
  -28.0108  -12.3833   18.6121 C   0  0  0  0  0  0
  -27.6675  -13.2104   19.8798 C   0  0  2  0  0  0
  -28.7088  -12.9730   20.9995 C   0  0  0  0  0  0
  -25.2594  -13.8172   20.5662 C   0  0  0  0  0  0
  -24.1852  -13.0446   20.9187 C   0  0  0  0  0  0
  -24.6408  -11.6914   20.8736 C   0  0  0  0  0  0
  -23.9068  -10.4299   21.0397 C   0  0  0  0  0  0
  -24.3621   -9.4216   21.9170 C   0  0  0  0  0  0
  -23.6296   -8.2248   22.0743 C   0  0  0  0  0  0
  -22.4277   -8.0282   21.3538 C   0  0  0  0  0  0
  -21.9910   -9.0259   20.4638 C   0  0  0  0  0  0
  -22.7241  -10.2138   20.3044 C   0  0  0  0  0  0
  -21.6855   -6.0734   22.5277 C   0  0  0  0  0  0
  -21.4011   -6.5639   23.8208 C   0  0  0  0  0  0
  -21.3657   -5.6791   24.9173 C   0  0  0  0  0  0
  -21.6044   -4.3053   24.7223 C   0  0  0  0  0  0
  -21.8823   -3.8145   23.4345 C   0  0  0  0  0  0
  -21.9200   -4.6962   22.3406 C   0  0  0  0  0  0
  -22.7871  -13.5239   21.1857 C   0  0  0  0  0  0
  -22.1663   -4.2147   21.0984 F   0  0  0  0  0  0
  -21.5634   -3.4537   25.7738 F   0  0  0  0  0  0
  -30.0523  -13.2548   20.4605 N   0  0  0  0  0  0
  -26.3057  -12.9355   20.3382 N   0  0  0  0  0  0
  -25.9338  -11.6507   20.5771 N   0  0  0  0  0  0
  -22.0515  -12.8219   22.0409 N   0  0  0  0  0  0
  -25.4271  -15.1875   20.3984 N   0  0  0  0  0  0
  -31.8213  -14.6092   20.0267 O   0  0  0  0  0  0
  -21.6644   -6.8875   21.4238 O   0  0  0  0  0  0
  -22.3550  -14.5557   20.6730 O   0  0  0  0  0  0
  -24.6087  -31.8706   23.2130 C   0  0  0  0  0  0
  -25.8999  -32.4840   23.8415 C   0  0  1  0  0  0
  -27.2544  -27.4797   20.0992 C   0  0  0  0  0  0
  -25.5869  -33.8627   24.2353 N   0  0  0  0  0  0
  -23.3959  -30.4925   21.5504 C   0  0  2  0  0  0
  -24.8482  -28.9602   20.1178 C   0  0  0  0  0  0
  -22.7375  -29.4679   22.5006 C   0  0  0  0  0  0
  -18.0275  -28.1379   22.8498 C   0  0  0  0  0  0
  -24.1474  -36.7310   23.2633 C   0  0  0  0  0  0
  -25.9169  -30.8517   21.3587 C   0  0  0  0  0  0
  -25.9995  -29.4850   20.7172 C   0  0  0  0  0  0
  -27.2029  -28.7523   20.7146 C   0  0  0  0  0  0
  -26.0923  -26.9676   19.4903 C   0  0  0  0  0  0
  -24.8867  -27.6960   19.5029 C   0  0  0  0  0  0
  -23.6044  -29.8180   20.1670 C   0  0  0  0  0  0
  -25.4080  -36.3105   24.0358 C   0  0  1  0  0  0
  -20.5860  -28.3652   23.1338 C   0  0  2  0  0  0
  -20.6766  -26.9397   22.5416 C   0  0  0  0  0  0
  -19.5748  -26.6389   21.5215 C   0  0  0  0  0  0
  -18.1927  -26.7931   22.1628 C   0  0  0  0  0  0
  -19.1521  -28.8831   23.2918 C   0  0  0  0  0  0
  -18.9463  -30.1442   23.8921 C   0  0  0  0  0  0
  -17.6463  -30.6583   24.0576 C   0  0  0  0  0  0
  -25.9009  -34.9472   23.5146 C   0  0  0  0  0  0
  -16.5352  -29.9097   23.6323 C   0  0  0  0  0  0
  -16.7262  -28.6514   23.0340 C   0  0  0  0  0  0
  -26.4453  -31.6598   25.0707 C   0  0  0  0  0  0
  -25.3752  -31.3707   26.1485 C   0  0  0  0  0  0
  -27.0259  -30.3047   24.6027 C   0  0  0  0  0  0
  -27.6046  -32.4287   25.7462 C   0  0  0  0  0  0
  -27.5594  -37.1763   24.8443 C   0  0  0  0  0  0
  -21.4112  -29.3023   22.3743 N   0  0  0  0  0  0
  -26.4251  -37.3802   23.9464 N   0  0  0  0  0  0
  -24.6582  -31.0857   22.1001 N   0  0  0  0  0  0
  -23.4168  -28.8242   23.3047 O   0  0  0  0  0  0
  -28.3886  -26.7020   20.0428 O   0  0  0  0  0  0
  -26.5578  -34.8918   22.4709 O   0  0  0  0  0  0
  -23.5295  -32.1429   23.7566 O   0  0  0  0  0  0
  -29.7193  -18.9555   21.9814 C   0  0  0  0  0  0
  -31.8301  -17.2240   21.3348 C   0  0  0  0  0  0
  -29.5055  -17.5596   21.9824 C   0  0  0  0  0  0
  -30.9803  -19.4896   21.6402 C   0  0  0  0  0  0
  -30.5496  -16.6795   21.6084 C   0  0  0  0  0  0
  -32.0505  -18.6232   21.3318 C   0  0  0  0  0  0
  -28.1402  -17.0237   22.3750 C   0  0  0  0  0  0
  -34.4053  -18.3838   20.8987 C   0  0  0  0  0  0
  -29.7526  -24.3855   21.2997 C   0  0  0  0  0  0
  -30.8007  -23.2641   21.3658 C   0  0  0  0  0  0
  -30.3872  -25.7604   21.0154 C   0  0  0  0  0  0
  -30.1953  -21.8684   21.5846 C   0  0  0  0  0  0
  -29.3820  -26.9210   21.0381 C   0  0  0  0  0  0
  -30.2722  -15.2758   21.5273 N   0  0  0  0  0  0
  -31.2495  -20.8650   21.6112 N   0  0  0  0  0  0
  -33.2629  -19.2158   21.0305 O   0  0  0  0  0  0
  -31.4597  -12.3656   19.1050 H   0  0  0  0  0  0
  -30.3007  -11.2706   19.7920 H   0  0  0  0  0  0
  -29.7188  -11.7945   17.4121 H   0  0  0  0  0  0
  -29.6688  -13.5011   17.7739 H   0  0  0  0  0  0
  -27.8064  -11.3269   18.7892 H   0  0  0  0  0  0
  -27.3643  -12.6803   17.7852 H   0  0  0  0  0  0
  -27.7191  -14.2626   19.5978 H   0  0  0  0  0  0
  -28.6707  -11.9348   21.3325 H   0  0  0  0  0  0
  -28.4640  -13.5666   21.8806 H   0  0  0  0  0  0
  -25.2766   -9.5699   22.4735 H   0  0  0  0  0  0
  -24.0018   -7.4641   22.7452 H   0  0  0  0  0  0
  -21.0844   -8.8773   19.8936 H   0  0  0  0  0  0
  -22.3696  -10.9674   19.6149 H   0  0  0  0  0  0
  -21.1985   -7.6142   23.9714 H   0  0  0  0  0  0
  -21.1472   -6.0516   25.9078 H   0  0  0  0  0  0
  -22.0603   -2.7604   23.2851 H   0  0  0  0  0  0
  -22.4132  -11.9883   22.4806 H   0  0  0  0  0  0
  -21.1120  -13.1216   22.2596 H   0  0  0  0  0  0
  -24.6546  -15.8382   20.4900 H   0  0  0  0  0  0
  -26.2650  -15.6181   20.0299 H   0  0  0  0  0  0
  -26.7071  -32.5581   23.1188 H   0  0  0  0  0  0
  -25.0006  -33.9781   25.0503 H   0  0  0  0  0  0
  -22.6824  -31.3070   21.4101 H   0  0  0  0  0  0
  -23.3743  -35.9626   23.3211 H   0  0  0  0  0  0
  -24.3616  -36.8991   22.2065 H   0  0  0  0  0  0
  -23.7181  -37.6479   23.6681 H   0  0  0  0  0  0
  -26.0144  -31.6143   20.5850 H   0  0  0  0  0  0
  -26.8103  -30.9182   21.9672 H   0  0  0  0  0  0
  -28.0799  -29.1850   21.1735 H   0  0  0  0  0  0
  -26.1251  -25.9997   19.0106 H   0  0  0  0  0  0
  -24.0047  -27.2837   19.0319 H   0  0  0  0  0  0
  -23.7059  -30.5890   19.4028 H   0  0  0  0  0  0
  -22.7323  -29.2298   19.8750 H   0  0  0  0  0  0
  -25.1237  -36.1947   25.0848 H   0  0  0  0  0  0
  -20.9956  -28.3201   24.1457 H   0  0  0  0  0  0
  -20.5684  -26.2251   23.3588 H   0  0  0  0  0  0
  -21.6642  -26.7458   22.1195 H   0  0  0  0  0  0
  -19.6905  -25.6307   21.1222 H   0  0  0  0  0  0
  -19.6691  -27.3218   20.6765 H   0  0  0  0  0  0
  -17.4196  -26.6677   21.4030 H   0  0  0  0  0  0
  -18.0334  -26.0071   22.9023 H   0  0  0  0  0  0
  -19.7941  -30.7258   24.2279 H   0  0  0  0  0  0
  -17.5029  -31.6268   24.5173 H   0  0  0  0  0  0
  -15.5356  -30.3013   23.7647 H   0  0  0  0  0  0
  -15.8664  -28.0855   22.7031 H   0  0  0  0  0  0
  -24.5877  -30.7105   25.7834 H   0  0  0  0  0  0
  -24.9014  -32.2877   26.4985 H   0  0  0  0  0  0
  -25.8128  -30.8823   27.0203 H   0  0  0  0  0  0
  -26.2771  -29.6811   24.1121 H   0  0  0  0  0  0
  -27.4101  -29.7265   25.4443 H   0  0  0  0  0  0
  -27.8574  -30.4379   23.9102 H   0  0  0  0  0  0
  -27.2684  -33.3592   26.2044 H   0  0  0  0  0  0
  -28.3853  -32.6819   25.0279 H   0  0  0  0  0  0
  -28.0695  -31.8391   26.5373 H   0  0  0  0  0  0
  -28.2485  -38.0182   24.7655 H   0  0  0  0  0  0
  -28.1214  -36.2724   24.6030 H   0  0  0  0  0  0
  -27.2369  -37.1116   25.8851 H   0  0  0  0  0  0
  -20.9255  -29.8706   21.6948 H   0  0  0  0  0  0
  -26.0131  -38.2848   24.1589 H   0  0  0  0  0  0
  -28.9041  -19.6132   22.2455 H   0  0  0  0  0  0
  -32.6508  -16.5612   21.1146 H   0  0  0  0  0  0
  -27.4950  -17.8185   22.7508 H   0  0  0  0  0  0
  -28.2324  -16.2758   23.1641 H   0  0  0  0  0  0
  -27.6509  -16.5671   21.5153 H   0  0  0  0  0  0
  -35.2800  -19.0045   20.7052 H   0  0  0  0  0  0
  -34.3067  -17.6895   20.0635 H   0  0  0  0  0  0
  -34.5916  -17.8266   21.8180 H   0  0  0  0  0  0
  -29.1977  -24.4226   22.2374 H   0  0  0  0  0  0
  -29.0243  -24.1542   20.5207 H   0  0  0  0  0  0
  -31.5060  -23.4840   22.1694 H   0  0  0  0  0  0
  -31.3800  -23.2685   20.4411 H   0  0  0  0  0  0
  -30.8924  -25.7406   20.0491 H   0  0  0  0  0  0
  -31.1594  -25.9616   21.7584 H   0  0  0  0  0  0
  -29.4862  -21.6400   20.7870 H   0  0  0  0  0  0
  -29.6420  -21.8451   22.5249 H   0  0  0  0  0  0
  -29.9068  -27.8576   20.8413 H   0  0  0  0  0  0
  -28.9297  -26.9936   22.0290 H   0  0  0  0  0  0
  -29.4295  -14.9642   21.9837 H   0  0  0  0  0  0
  -32.1566  -21.1137   21.2217 H   0  0  0  0  0  0
  1 25  1  0  0  0
  1 30  2  0  0  0
  1 84  1  0  0  0
  2  3  1  0  0  0
  2 25  1  0  0  0
  2 87  1  0  0  0
  2 88  1  0  0  0
  3  4  1  0  0  0
  3 89  1  0  0  0
  3 90  1  0  0  0
  4  5  1  0  0  0
  4 91  1  0  0  0
  4 92  1  0  0  0
  5  6  1  0  0  0
  5 26  1  0  0  0
  5 93  1  0  0  0
  6 25  1  0  0  0
  6 94  1  0  0  0
  6 95  1  0  0  0
  7  8  2  0  0  0
  7 26  1  0  0  0
  7 29  1  0  0  0
  8  9  1  0  0  0
  8 22  1  0  0  0
  9 10  1  0  0  0
  9 27  2  0  0  0
 10 11  2  0  0  0
 10 15  1  0  0  0
 11 12  1  0  0  0
 11 96  1  0  0  0
 12 13  2  0  0  0
 12 97  1  0  0  0
 13 14  1  0  0  0
 13 31  1  0  0  0
 14 15  2  0  0  0
 14 98  1  0  0  0
 15 99  1  0  0  0
 16 17  2  0  0  0
 16 21  1  0  0  0
 16 31  1  0  0  0
 17 18  1  0  0  0
 17100  1  0  0  0
 18 19  2  0  0  0
 18101  1  0  0  0
 19 20  1  0  0  0
 19 24  1  0  0  0
 20 21  2  0  0  0
 20102  1  0  0  0
 21 23  1  0  0  0
 22 28  1  0  0  0
 22 32  2  0  0  0
 26 27  1  0  0  0
 28103  1  0  0  0
 28104  1  0  0  0
 29105  1  0  0  0
 29106  1  0  0  0
 33 34  1  0  0  0
 33 66  1  0  0  0
 33 70  2  0  0  0
 34 36  1  0  0  0
 34 59  1  0  0  0
 34107  1  0  0  0
 35 44  2  0  0  0
 35 45  1  0  0  0
 35 68  1  0  0  0
 36 56  1  0  0  0
 36108  1  0  0  0
 37 39  1  0  0  0
 37 47  1  0  0  0
 37 66  1  0  0  0
 37109  1  0  0  0
 38 43  2  0  0  0
 38 46  1  0  0  0
 38 47  1  0  0  0
 39 64  1  0  0  0
 39 67  2  0  0  0
 40 52  1  0  0  0
 40 53  2  0  0  0
 40 58  1  0  0  0
 41110  1  0  0  0
 41111  1  0  0  0
 41112  1  0  0  0
 41 48  1  0  0  0
 42 43  1  0  0  0
 42 66  1  0  0  0
 42113  1  0  0  0
 42114  1  0  0  0
 43 44  1  0  0  0
 44115  1  0  0  0
 45 46  2  0  0  0
 45116  1  0  0  0
 46117  1  0  0  0
 47118  1  0  0  0
 47119  1  0  0  0
 48 56  1  0  0  0
 48 65  1  0  0  0
 48120  1  0  0  0
 49 50  1  0  0  0
 49 53  1  0  0  0
 49 64  1  0  0  0
 49121  1  0  0  0
 50 51  1  0  0  0
 50122  1  0  0  0
 50123  1  0  0  0
 51 52  1  0  0  0
 51124  1  0  0  0
 51125  1  0  0  0
 52126  1  0  0  0
 52127  1  0  0  0
 53 54  1  0  0  0
 54 55  2  0  0  0
 54128  1  0  0  0
 55 57  1  0  0  0
 55129  1  0  0  0
 56 69  2  0  0  0
 57 58  2  0  0  0
 57130  1  0  0  0
 58131  1  0  0  0
 59 60  1  0  0  0
 59 61  1  0  0  0
 59 62  1  0  0  0
 60132  1  0  0  0
 60133  1  0  0  0
 60134  1  0  0  0
 61135  1  0  0  0
 61136  1  0  0  0
 61137  1  0  0  0
 62138  1  0  0  0
 62139  1  0  0  0
 62140  1  0  0  0
 63 65  1  0  0  0
 63141  1  0  0  0
 63142  1  0  0  0
 63143  1  0  0  0
 64144  1  0  0  0
 65145  1  0  0  0
 68 83  1  0  0  0
 71 73  2  0  0  0
 71 74  1  0  0  0
 71146  1  0  0  0
 72 75  2  0  0  0
 72 76  1  0  0  0
 72147  1  0  0  0
 73 75  1  0  0  0
 73 77  1  0  0  0
 74 76  2  0  0  0
 74 85  1  0  0  0
 75 84  1  0  0  0
 76 86  1  0  0  0
 77148  1  0  0  0
 77149  1  0  0  0
 77150  1  0  0  0
 78 86  1  0  0  0
 78151  1  0  0  0
 78152  1  0  0  0
 78153  1  0  0  0
 79 80  1  0  0  0
 79 81  1  0  0  0
 79154  1  0  0  0
 79155  1  0  0  0
 80 82  1  0  0  0
 80156  1  0  0  0
 80157  1  0  0  0
 81 83  1  0  0  0
 81158  1  0  0  0
 81159  1  0  0  0
 82 85  1  0  0  0
 82160  1  0  0  0
 82161  1  0  0  0
 83162  1  0  0  0
 83163  1  0  0  0
 84164  1  0  0  0
 85165  1  0  0  0
M  ISO  4   1 100  68 101  83 101  84 100
M  END
> <chiral flag>
0

> <version>
0

> <s_m_source_file>
/data/baiqing/PycharmProjects/Reinvent-master-3.2/result/LINK_invent/BTK/process_docking_weight1_custom_sum_contain_oxygen_bond_distance_aromatic_linkinvent_7_9_3/rearranged_h_0007.sdf

> <i_m_source_file_index>
50

> <r_mmod_Potential_Energy-OPLS-2005>
-95.1045532226562

> <r_mmod_Stretch_Energy-OPLS-2005>
34.764217376709

> <r_mmod_Bend_Energy-OPLS-2005>
112.109535217285

> <r_mmod_Torsional_Energy-OPLS-2005>
202.646942138672

> <r_mmod_Improper_Torsional_Energy-OPLS-2005>
4.41550827026367

> <r_mmod_Van_der_Waal_Energy-OPLS-2005>
167.316146850586

> <r_mmod_Electrostatic_Energy-OPLS-2005>
-410.287048339844

> <r_mmod_Solvation_Energy-OPLS-2005>
-213.011703491211

> <b_mmod_Minimization_Converged-OPLS-2005>
0

> <r_mmod_RMS_Derivative-OPLS-2005>
1.92917132377625

$$$$
50
                    3D
 Structure written by MMmdl.
155162  0  0  1  0            999 V2000
  -30.5449  -14.9436   20.4135 C   0  0  0  0  0  0
  -30.4375  -12.5843   19.5041 C   0  0  0  0  0  0
  -29.5209  -12.5321   18.2604 C   0  0  0  0  0  0
  -28.0548  -12.3153   18.6780 C   0  0  0  0  0  0
  -27.6295  -13.2487   19.8414 C   0  0  2  0  0  0
  -28.6703  -13.2785   20.9809 C   0  0  0  0  0  0
  -25.2459  -13.8221   20.5721 C   0  0  0  0  0  0
  -24.1773  -13.0445   20.9229 C   0  0  0  0  0  0
  -24.6389  -11.6925   20.8754 C   0  0  0  0  0  0
  -23.9076  -10.4291   21.0407 C   0  0  0  0  0  0
  -24.3626   -9.4208   21.9185 C   0  0  0  0  0  0
  -23.6300   -8.2244   22.0749 C   0  0  0  0  0  0
  -22.4280   -8.0286   21.3546 C   0  0  0  0  0  0
  -21.9920   -9.0259   20.4645 C   0  0  0  0  0  0
  -22.7248  -10.2136   20.3060 C   0  0  0  0  0  0
  -21.6860   -6.0737   22.5273 C   0  0  0  0  0  0
  -21.4016   -6.5636   23.8208 C   0  0  0  0  0  0
  -21.3662   -5.6789   24.9173 C   0  0  0  0  0  0
  -21.6048   -4.3052   24.7221 C   0  0  0  0  0  0
  -21.8820   -3.8146   23.4341 C   0  0  0  0  0  0
  -21.9193   -4.6964   22.3400 C   0  0  0  0  0  0
  -22.7793  -13.5214   21.1882 C   0  0  0  0  0  0
  -22.1664   -4.2151   21.0975 F   0  0  0  0  0  0
  -21.5630   -3.4534   25.7735 F   0  0  0  0  0  0
  -29.9482  -13.6845   20.3834 N   0  0  0  0  0  0
  -26.2882  -12.9450   20.3258 N   0  0  0  0  0  0
  -25.9322  -11.6580   20.5749 N   0  0  0  0  0  0
  -22.0453  -12.8195   22.0441 N   0  0  0  0  0  0
  -25.4138  -15.1945   20.4149 N   0  0  0  0  0  0
  -31.7515  -14.9946   20.1563 O   0  0  0  0  0  0
  -21.6648   -6.8881   21.4238 O   0  0  0  0  0  0
  -22.3472  -14.5517   20.6726 O   0  0  0  0  0  0
  -24.6448  -31.8429   23.1883 C   0  0  0  0  0  0
  -25.9214  -32.4689   23.8276 C   0  0  1  0  0  0
  -27.2122  -27.1213   20.1562 C   0  0  0  0  0  0
  -25.5950  -33.8494   24.2190 N   0  0  0  0  0  0
  -23.4496  -30.4621   21.5349 C   0  0  2  0  0  0
  -24.8983  -28.8886   20.1134 C   0  0  0  0  0  0
  -22.7578  -29.4529   22.4862 C   0  0  0  0  0  0
  -18.0305  -28.1387   22.8472 C   0  0  0  0  0  0
  -24.1497  -36.7253   23.2644 C   0  0  0  0  0  0
  -26.0074  -30.7116   21.3912 C   0  0  0  0  0  0
  -26.0775  -29.3219   20.7329 C   0  0  0  0  0  0
  -27.2362  -28.4559   20.7347 C   0  0  0  0  0  0
  -26.0082  -26.7980   19.4917 C   0  0  0  0  0  0
  -24.8777  -27.6407   19.4765 C   0  0  0  0  0  0
  -23.6770  -29.7925   20.1545 C   0  0  0  0  0  0
  -25.4129  -36.3031   24.0320 C   0  0  1  0  0  0
  -20.5919  -28.3709   23.1235 C   0  0  2  0  0  0
  -20.6790  -26.9409   22.5407 C   0  0  0  0  0  0
  -19.5767  -26.6374   21.5212 C   0  0  0  0  0  0
  -18.1944  -26.7926   22.1615 C   0  0  0  0  0  0
  -19.1562  -28.8867   23.2847 C   0  0  0  0  0  0
  -18.9475  -30.1462   23.8877 C   0  0  0  0  0  0
  -17.6470  -30.6585   24.0551 C   0  0  0  0  0  0
  -25.9077  -34.9401   23.5066 C   0  0  0  0  0  0
  -16.5362  -29.9074   23.6334 C   0  0  0  0  0  0
  -16.7288  -28.6491   23.0359 C   0  0  0  0  0  0
  -26.4527  -31.6562   25.0724 C   0  0  0  0  0  0
  -25.3704  -31.3755   26.1415 C   0  0  0  0  0  0
  -27.0399  -30.2955   24.6323 C   0  0  0  0  0  0
  -27.6062  -32.4325   25.7500 C   0  0  0  0  0  0
  -27.5581  -37.1781   24.8464 C   0  0  0  0  0  0
  -21.4268  -29.3032   22.3612 N   0  0  0  0  0  0
  -26.4292  -37.3742   23.9406 N   0  0  0  0  0  0
  -24.7207  -31.0268   22.0927 N   0  0  0  0  0  0
  -23.4209  -28.8079   23.3022 O   0  0  0  0  0  0
  -28.2629  -26.1290   20.2028 O   0  0  0  0  0  0
  -26.5660  -34.8888   22.4645 O   0  0  0  0  0  0
  -23.5561  -32.1315   23.7083 O   0  0  0  0  0  0
  -29.1508  -18.9406   20.7037 C   0  0  0  0  0  0
  -28.6440  -17.2430   17.9176 C   0  0  0  0  0  0
  -31.1669  -17.0673   17.7946 C   0  0  0  0  0  0
  -28.9937  -23.2656   20.1999 C   0  0  0  0  0  0
  -27.9583  -24.5976   20.3426 C   0  0  0  0  0  0
  -28.6047  -21.6501   20.5450 C   0  0  0  0  0  0
  -30.0223  -17.6389   20.0608 C   0  0  2  0  0  0
  -29.9796  -17.7381   18.5063 C   0  0  0  0  0  0
  -29.7635  -16.1302   20.4885 N   0  0  0  0  0  0
  -28.2751  -18.7293   21.5427 O   0  0  0  0  0  0
  -29.4222  -20.3724   20.2147 O   0  0  0  0  0  0
  -31.4720  -12.7366   19.1928 H   0  0  0  0  0  0
  -30.4261  -11.6323   20.0371 H   0  0  0  0  0  0
  -29.8396  -11.7370   17.5856 H   0  0  0  0  0  0
  -29.6092  -13.4663   17.7035 H   0  0  0  0  0  0
  -27.9526  -11.2744   18.9872 H   0  0  0  0  0  0
  -27.3919  -12.4463   17.8224 H   0  0  0  0  0  0
  -27.5928  -14.2504   19.4137 H   0  0  0  0  0  0
  -28.7538  -12.3037   21.4643 H   0  0  0  0  0  0
  -28.3696  -13.9853   21.7566 H   0  0  0  0  0  0
  -25.2770   -9.5682   22.4769 H   0  0  0  0  0  0
  -24.0011   -7.4631   22.7465 H   0  0  0  0  0  0
  -21.0856   -8.8775   19.8947 H   0  0  0  0  0  0
  -22.3705  -10.9680   19.6176 H   0  0  0  0  0  0
  -21.2005   -7.6144   23.9710 H   0  0  0  0  0  0
  -21.1488   -6.0520   25.9074 H   0  0  0  0  0  0
  -22.0596   -2.7609   23.2840 H   0  0  0  0  0  0
  -22.4091  -11.9863   22.4822 H   0  0  0  0  0  0
  -21.1069  -13.1206   22.2651 H   0  0  0  0  0  0
  -24.6468  -15.8478   20.5328 H   0  0  0  0  0  0
  -26.2541  -15.6352   20.0653 H   0  0  0  0  0  0
  -26.7275  -32.5291   23.0999 H   0  0  0  0  0  0
  -25.0082  -33.9615   25.0326 H   0  0  0  0  0  0
  -22.7525  -31.2881   21.3795 H   0  0  0  0  0  0
  -23.3765  -35.9580   23.3301 H   0  0  0  0  0  0
  -24.3586  -36.8889   22.2061 H   0  0  0  0  0  0
  -23.7241  -37.6442   23.6683 H   0  0  0  0  0  0
  -26.1681  -31.4656   20.6197 H   0  0  0  0  0  0
  -26.8756  -30.7599   22.0373 H   0  0  0  0  0  0
  -28.1352  -28.7841   21.2370 H   0  0  0  0  0  0
  -25.9028  -25.8570   18.9761 H   0  0  0  0  0  0
  -23.9797  -27.3070   18.9747 H   0  0  0  0  0  0
  -23.8148  -30.5664   19.3983 H   0  0  0  0  0  0
  -22.7923  -29.2339   19.8443 H   0  0  0  0  0  0
  -25.1318  -36.1873   25.0813 H   0  0  0  0  0  0
  -20.9999  -28.3296   24.1361 H   0  0  0  0  0  0
  -20.5678  -26.2320   23.3629 H   0  0  0  0  0  0
  -21.6657  -26.7415   22.1206 H   0  0  0  0  0  0
  -19.6931  -25.6282   21.1253 H   0  0  0  0  0  0
  -19.6714  -27.3176   20.6736 H   0  0  0  0  0  0
  -17.4220  -26.6673   21.4010 H   0  0  0  0  0  0
  -18.0331  -26.0070   22.9010 H   0  0  0  0  0  0
  -19.7951  -30.7279   24.2236 H   0  0  0  0  0  0
  -17.5024  -31.6264   24.5151 H   0  0  0  0  0  0
  -15.5359  -30.2964   23.7678 H   0  0  0  0  0  0
  -15.8687  -28.0799   22.7094 H   0  0  0  0  0  0
  -24.5899  -30.7088   25.7729 H   0  0  0  0  0  0
  -24.8873  -32.2936   26.4765 H   0  0  0  0  0  0
  -25.7976  -30.8977   27.0240 H   0  0  0  0  0  0
  -26.3025  -29.6665   24.1323 H   0  0  0  0  0  0
  -27.3998  -29.7270   25.4909 H   0  0  0  0  0  0
  -27.8938  -30.4189   23.9661 H   0  0  0  0  0  0
  -27.2668  -33.3645   26.2028 H   0  0  0  0  0  0
  -28.3890  -32.6849   25.0336 H   0  0  0  0  0  0
  -28.0714  -31.8485   26.5452 H   0  0  0  0  0  0
  -28.2593  -38.0082   24.7504 H   0  0  0  0  0  0
  -28.1082  -36.2608   24.6303 H   0  0  0  0  0  0
  -27.2296  -37.1441   25.8866 H   0  0  0  0  0  0
  -20.9489  -29.8748   21.6790 H   0  0  0  0  0  0
  -26.0170  -38.2817   24.1395 H   0  0  0  0  0  0
  -28.5994  -17.4178   16.8422 H   0  0  0  0  0  0
  -27.7935  -17.7602   18.3627 H   0  0  0  0  0  0
  -28.5002  -16.1743   18.0754 H   0  0  0  0  0  0
  -31.2036  -17.3638   16.7454 H   0  0  0  0  0  0
  -31.0984  -15.9806   17.8107 H   0  0  0  0  0  0
  -32.1161  -17.3556   18.2484 H   0  0  0  0  0  0
  -29.8791  -23.4947   20.7922 H   0  0  0  0  0  0
  -29.3449  -23.2760   19.1685 H   0  0  0  0  0  0
  -27.4935  -24.5098   21.3251 H   0  0  0  0  0  0
  -27.1583  -24.3615   19.6461 H   0  0  0  0  0  0
  -27.6286  -21.4718   20.0944 H   0  0  0  0  0  0
  -28.4201  -21.6041   21.6182 H   0  0  0  0  0  0
  -31.0552  -17.8254   20.3570 H   0  0  0  0  0  0
  -30.0621  -18.7957   18.2500 H   0  0  0  0  0  0
  -28.8034  -15.9619   20.7462 H   0  0  0  0  0  0
  1 25  1  0  0  0
  1 30  2  0  0  0
  1 79  1  0  0  0
  2  3  1  0  0  0
  2 25  1  0  0  0
  2 82  1  0  0  0
  2 83  1  0  0  0
  3  4  1  0  0  0
  3 84  1  0  0  0
  3 85  1  0  0  0
  4  5  1  0  0  0
  4 86  1  0  0  0
  4 87  1  0  0  0
  5  6  1  0  0  0
  5 26  1  0  0  0
  5 88  1  0  0  0
  6 25  1  0  0  0
  6 89  1  0  0  0
  6 90  1  0  0  0
  7  8  2  0  0  0
  7 26  1  0  0  0
  7 29  1  0  0  0
  8  9  1  0  0  0
  8 22  1  0  0  0
  9 10  1  0  0  0
  9 27  2  0  0  0
 10 11  2  0  0  0
 10 15  1  0  0  0
 11 12  1  0  0  0
 11 91  1  0  0  0
 12 13  2  0  0  0
 12 92  1  0  0  0
 13 14  1  0  0  0
 13 31  1  0  0  0
 14 15  2  0  0  0
 14 93  1  0  0  0
 15 94  1  0  0  0
 16 17  2  0  0  0
 16 21  1  0  0  0
 16 31  1  0  0  0
 17 18  1  0  0  0
 17 95  1  0  0  0
 18 19  2  0  0  0
 18 96  1  0  0  0
 19 20  1  0  0  0
 19 24  1  0  0  0
 20 21  2  0  0  0
 20 97  1  0  0  0
 21 23  1  0  0  0
 22 28  1  0  0  0
 22 32  2  0  0  0
 26 27  1  0  0  0
 28 98  1  0  0  0
 28 99  1  0  0  0
 29100  1  0  0  0
 29101  1  0  0  0
 33 34  1  0  0  0
 33 66  1  0  0  0
 33 70  2  0  0  0
 34 36  1  0  0  0
 34 59  1  0  0  0
 34102  1  0  0  0
 35 44  2  0  0  0
 35 45  1  0  0  0
 35 68  1  0  0  0
 36 56  1  0  0  0
 36103  1  0  0  0
 37 39  1  0  0  0
 37 47  1  0  0  0
 37 66  1  0  0  0
 37104  1  0  0  0
 38 43  2  0  0  0
 38 46  1  0  0  0
 38 47  1  0  0  0
 39 64  1  0  0  0
 39 67  2  0  0  0
 40 52  1  0  0  0
 40 53  2  0  0  0
 40 58  1  0  0  0
 41105  1  0  0  0
 41106  1  0  0  0
 41107  1  0  0  0
 41 48  1  0  0  0
 42 43  1  0  0  0
 42 66  1  0  0  0
 42108  1  0  0  0
 42109  1  0  0  0
 43 44  1  0  0  0
 44110  1  0  0  0
 45 46  2  0  0  0
 45111  1  0  0  0
 46112  1  0  0  0
 47113  1  0  0  0
 47114  1  0  0  0
 48 56  1  0  0  0
 48 65  1  0  0  0
 48115  1  0  0  0
 49 50  1  0  0  0
 49 53  1  0  0  0
 49 64  1  0  0  0
 49116  1  0  0  0
 50 51  1  0  0  0
 50117  1  0  0  0
 50118  1  0  0  0
 51 52  1  0  0  0
 51119  1  0  0  0
 51120  1  0  0  0
 52121  1  0  0  0
 52122  1  0  0  0
 53 54  1  0  0  0
 54 55  2  0  0  0
 54123  1  0  0  0
 55 57  1  0  0  0
 55124  1  0  0  0
 56 69  2  0  0  0
 57 58  2  0  0  0
 57125  1  0  0  0
 58126  1  0  0  0
 59 60  1  0  0  0
 59 61  1  0  0  0
 59 62  1  0  0  0
 60127  1  0  0  0
 60128  1  0  0  0
 60129  1  0  0  0
 61130  1  0  0  0
 61131  1  0  0  0
 61132  1  0  0  0
 62133  1  0  0  0
 62134  1  0  0  0
 62135  1  0  0  0
 63 65  1  0  0  0
 63136  1  0  0  0
 63137  1  0  0  0
 63138  1  0  0  0
 64139  1  0  0  0
 65140  1  0  0  0
 68 75  1  0  0  0
 71 77  1  0  0  0
 71 80  2  0  0  0
 71 81  1  0  0  0
 72141  1  0  0  0
 72142  1  0  0  0
 72143  1  0  0  0
 72 78  1  0  0  0
 73 78  1  0  0  0
 73144  1  0  0  0
 73145  1  0  0  0
 73146  1  0  0  0
 74 75  1  0  0  0
 74 76  1  0  0  0
 74147  1  0  0  0
 74148  1  0  0  0
 75149  1  0  0  0
 75150  1  0  0  0
 76 81  1  0  0  0
 76151  1  0  0  0
 76152  1  0  0  0
 77 78  1  0  0  0
 77 79  1  0  0  0
 77153  1  0  0  0
 78154  1  0  0  0
 79155  1  0  0  0
M  ISO  4   1 100  68 101  75 101  79 100
M  END
> <chiral flag>
0

> <version>
0

> <s_m_source_file>
/data/baiqing/PycharmProjects/Reinvent-master-3.2/result/LINK_invent/BTK/process_docking_weight1_custom_sum_contain_oxygen_bond_distance_aromatic_linkinvent_7_9_3/rearranged_h_0007.sdf

> <i_m_source_file_index>
51

> <r_mmod_Potential_Energy-OPLS-2005>
439.409484863281

> <r_mmod_Stretch_Energy-OPLS-2005>
300.645233154297

> <r_mmod_Bend_Energy-OPLS-2005>
258.300170898438

> <r_mmod_Torsional_Energy-OPLS-2005>
221.287063598633

> <r_mmod_Improper_Torsional_Energy-OPLS-2005>
5.63724184036255

> <r_mmod_Van_der_Waal_Energy-OPLS-2005>
110.396873474121

> <r_mmod_Electrostatic_Energy-OPLS-2005>
-440.834777832031

> <r_mmod_Solvation_Energy-OPLS-2005>
-211.89143371582

> <b_mmod_Minimization_Converged-OPLS-2005>
0

> <r_mmod_RMS_Derivative-OPLS-2005>
1.1446977853775

$$$$
51
                    3D
 Structure written by MMmdl.
162170  0  0  1  0            999 V2000
  -30.7561  -14.5834   20.4808 C   0  0  0  0  0  0
  -30.4088  -12.3720   19.4310 C   0  0  0  0  0  0
  -29.4795  -12.4698   18.2070 C   0  0  0  0  0  0
  -28.0123  -12.2732   18.6347 C   0  0  0  0  0  0
  -27.6287  -13.1656   19.8386 C   0  0  2  0  0  0
  -28.6978  -13.1157   20.9640 C   0  0  0  0  0  0
  -25.2519  -13.8015   20.5693 C   0  0  0  0  0  0
  -24.1764  -13.0362   20.9236 C   0  0  0  0  0  0
  -24.6284  -11.6816   20.8796 C   0  0  0  0  0  0
  -23.8955  -10.4245   21.0445 C   0  0  0  0  0  0
  -24.3540   -9.4171   21.9209 C   0  0  0  0  0  0
  -23.6252   -8.2192   22.0760 C   0  0  0  0  0  0
  -22.4239   -8.0232   21.3541 C   0  0  0  0  0  0
  -21.9849   -9.0197   20.4644 C   0  0  0  0  0  0
  -22.7144  -10.2093   20.3075 C   0  0  0  0  0  0
  -21.6836   -6.0700   22.5273 C   0  0  0  0  0  0
  -21.4001   -6.5616   23.8203 C   0  0  0  0  0  0
  -21.3663   -5.6779   24.9170 C   0  0  0  0  0  0
  -21.6054   -4.3040   24.7227 C   0  0  0  0  0  0
  -21.8826   -3.8122   23.4350 C   0  0  0  0  0  0
  -21.9191   -4.6933   22.3400 C   0  0  0  0  0  0
  -22.7804  -13.5204   21.1877 C   0  0  0  0  0  0
  -22.1661   -4.2116   21.0979 F   0  0  0  0  0  0
  -21.5643   -3.4533   25.7746 F   0  0  0  0  0  0
  -29.9998  -13.4428   20.3618 N   0  0  0  0  0  0
  -26.2866  -12.9071   20.3310 N   0  0  0  0  0  0
  -25.9186  -11.6297   20.5824 N   0  0  0  0  0  0
  -22.0423  -12.8226   22.0434 N   0  0  0  0  0  0
  -25.4236  -15.1733   20.4043 N   0  0  0  0  0  0
  -31.9662  -14.5151   20.2687 O   0  0  0  0  0  0
  -21.6621   -6.8822   21.4226 O   0  0  0  0  0  0
  -22.3514  -14.5508   20.6702 O   0  0  0  0  0  0
  -24.6141  -31.8676   23.2098 C   0  0  0  0  0  0
  -25.9036  -32.4816   23.8396 C   0  0  1  0  0  0
  -27.2401  -27.4435   20.1096 C   0  0  0  0  0  0
  -25.5896  -33.8615   24.2331 N   0  0  0  0  0  0
  -23.4031  -30.4897   21.5483 C   0  0  2  0  0  0
  -24.8545  -28.9562   20.1137 C   0  0  0  0  0  0
  -22.7403  -29.4652   22.4973 C   0  0  0  0  0  0
  -18.0269  -28.1385   22.8495 C   0  0  0  0  0  0
  -24.1485  -36.7322   23.2637 C   0  0  0  0  0  0
  -25.9299  -30.8385   21.3595 C   0  0  0  0  0  0
  -26.0123  -29.4721   20.7117 C   0  0  0  0  0  0
  -27.2108  -28.7231   20.7067 C   0  0  0  0  0  0
  -26.0718  -26.9389   19.5034 C   0  0  0  0  0  0
  -24.8792  -27.6885   19.5053 C   0  0  0  0  0  0
  -23.6131  -29.8196   20.1631 C   0  0  0  0  0  0
  -25.4102  -36.3107   24.0338 C   0  0  1  0  0  0
  -20.5858  -28.3668   23.1319 C   0  0  2  0  0  0
  -20.6762  -26.9404   22.5420 C   0  0  0  0  0  0
  -19.5741  -26.6393   21.5213 C   0  0  0  0  0  0
  -18.1917  -26.7932   22.1623 C   0  0  0  0  0  0
  -19.1519  -28.8842   23.2907 C   0  0  0  0  0  0
  -18.9450  -30.1448   23.8915 C   0  0  0  0  0  0
  -17.6452  -30.6592   24.0569 C   0  0  0  0  0  0
  -25.9030  -34.9470   23.5130 C   0  0  0  0  0  0
  -16.5343  -29.9098   23.6326 C   0  0  0  0  0  0
  -16.7256  -28.6516   23.0341 C   0  0  0  0  0  0
  -26.4476  -31.6591   25.0720 C   0  0  0  0  0  0
  -25.3748  -31.3698   26.1471 C   0  0  0  0  0  0
  -27.0306  -30.3035   24.6082 C   0  0  0  0  0  0
  -27.6054  -32.4307   25.7481 C   0  0  0  0  0  0
  -27.5576  -37.1809   24.8460 C   0  0  0  0  0  0
  -21.4127  -29.3035   22.3721 N   0  0  0  0  0  0
  -26.4289  -37.3793   23.9410 N   0  0  0  0  0  0
  -24.6672  -31.0790   22.0985 N   0  0  0  0  0  0
  -23.4177  -28.8183   23.3005 O   0  0  0  0  0  0
  -28.3836  -26.6796   20.1122 O   0  0  0  0  0  0
  -26.5590  -34.8919   22.4687 O   0  0  0  0  0  0
  -23.5336  -32.1404   23.7507 O   0  0  0  0  0  0
  -31.9877  -19.6942   20.9462 C   0  0  0  0  0  0
  -32.4323  -18.8157   19.9437 C   0  0  0  0  0  0
  -30.5189  -17.9490   21.7997 C   0  0  0  0  0  0
  -31.0060  -19.2762   21.8616 C   0  0  0  0  0  0
  -31.8878  -17.5198   19.8267 C   0  0  0  0  0  0
  -30.9313  -17.0522   20.7776 C   0  0  0  0  0  0
  -29.3065  -23.3738   21.8719 C   0  0  0  0  0  0
  -28.7874  -16.1444   20.2448 C   0  0  0  0  0  0
  -30.4499  -20.2620   22.8824 C   0  0  0  0  0  0
  -29.2529  -24.4377   20.7572 C   0  0  0  0  0  0
  -29.1346  -20.9446   22.4383 C   0  0  0  0  0  0
  -28.3894  -25.6690   21.1331 C   0  0  0  0  0  0
  -32.2732  -16.7642   18.7215 N   0  0  0  0  0  0
  -29.3143  -22.0762   21.5156 N   0  0  0  0  0  0
  -30.1749  -15.8320   20.6006 N   0  0  0  0  0  0
  -29.3195  -23.7205   23.0551 O   0  0  0  0  0  0
  -31.4485  -12.4532   19.1099 H   0  0  0  0  0  0
  -30.3239  -11.3947   19.9089 H   0  0  0  0  0  0
  -29.7546  -11.7228   17.4616 H   0  0  0  0  0  0
  -29.6018  -13.4431   17.7274 H   0  0  0  0  0  0
  -27.8751  -11.2226   18.8936 H   0  0  0  0  0  0
  -27.3458  -12.4661   17.7930 H   0  0  0  0  0  0
  -27.5722  -14.1436   19.3939 H   0  0  0  0  0  0
  -28.7329  -12.1185   21.4039 H   0  0  0  0  0  0
  -28.4568  -13.7846   21.7895 H   0  0  0  0  0  0
  -25.2688   -9.5670   22.4776 H   0  0  0  0  0  0
  -23.9977   -7.4580   22.7467 H   0  0  0  0  0  0
  -21.0789   -8.8697   19.8941 H   0  0  0  0  0  0
  -22.3598  -10.9635   19.6187 H   0  0  0  0  0  0
  -21.1983   -7.6124   23.9691 H   0  0  0  0  0  0
  -21.1489   -6.0513   25.9071 H   0  0  0  0  0  0
  -22.0607   -2.7584   23.2863 H   0  0  0  0  0  0
  -22.4019  -11.9890   22.4843 H   0  0  0  0  0  0
  -21.1041  -13.1273   22.2617 H   0  0  0  0  0  0
  -24.6606  -15.8313   20.5227 H   0  0  0  0  0  0
  -26.2788  -15.6112   20.0895 H   0  0  0  0  0  0
  -26.7111  -32.5542   23.1170 H   0  0  0  0  0  0
  -25.0060  -33.9773   25.0483 H   0  0  0  0  0  0
  -22.6918  -31.3060   21.4074 H   0  0  0  0  0  0
  -23.3731  -35.9671   23.3307 H   0  0  0  0  0  0
  -24.3580  -36.8927   22.2050 H   0  0  0  0  0  0
  -23.7253  -37.6538   23.6644 H   0  0  0  0  0  0
  -26.0344  -31.6027   20.5878 H   0  0  0  0  0  0
  -26.8208  -30.8990   21.9733 H   0  0  0  0  0  0
  -28.1050  -29.1161   21.1695 H   0  0  0  0  0  0
  -26.0857  -25.9630   19.0389 H   0  0  0  0  0  0
  -23.9900  -27.2849   19.0403 H   0  0  0  0  0  0
  -23.7170  -30.5932   19.4014 H   0  0  0  0  0  0
  -22.7390  -29.2349   19.8698 H   0  0  0  0  0  0
  -25.1275  -36.1972   25.0833 H   0  0  0  0  0  0
  -20.9958  -28.3237   24.1435 H   0  0  0  0  0  0
  -20.5665  -26.2269   23.3604 H   0  0  0  0  0  0
  -21.6630  -26.7448   22.1207 H   0  0  0  0  0  0
  -19.6899  -25.6307   21.1231 H   0  0  0  0  0  0
  -19.6687  -27.3212   20.6752 H   0  0  0  0  0  0
  -17.4186  -26.6677   21.4027 H   0  0  0  0  0  0
  -18.0320  -26.0076   22.9024 H   0  0  0  0  0  0
  -19.7923  -30.7263   24.2289 H   0  0  0  0  0  0
  -17.5006  -31.6269   24.5175 H   0  0  0  0  0  0
  -15.5342  -30.3005   23.7649 H   0  0  0  0  0  0
  -15.8652  -28.0849   22.7038 H   0  0  0  0  0  0
  -24.5919  -30.7046   25.7815 H   0  0  0  0  0  0
  -24.8945  -32.2858   26.4924 H   0  0  0  0  0  0
  -25.8111  -30.8868   27.0221 H   0  0  0  0  0  0
  -26.2851  -29.6793   24.1146 H   0  0  0  0  0  0
  -27.4093  -29.7275   25.4534 H   0  0  0  0  0  0
  -27.8673  -30.4358   23.9217 H   0  0  0  0  0  0
  -27.2676  -33.3589   26.2097 H   0  0  0  0  0  0
  -28.3852  -32.6889   25.0307 H   0  0  0  0  0  0
  -28.0733  -31.8403   26.5367 H   0  0  0  0  0  0
  -28.2595  -38.0105   24.7507 H   0  0  0  0  0  0
  -28.1072  -36.2638   24.6283 H   0  0  0  0  0  0
  -27.2297  -37.1458   25.8863 H   0  0  0  0  0  0
  -20.9276  -29.8770   21.6961 H   0  0  0  0  0  0
  -26.0174  -38.2870   24.1414 H   0  0  0  0  0  0
  -32.3785  -20.7018   20.9844 H   0  0  0  0  0  0
  -33.1612  -19.1744   19.2306 H   0  0  0  0  0  0
  -29.7532  -17.6380   22.4963 H   0  0  0  0  0  0
  -28.6135  -15.8703   19.2060 H   0  0  0  0  0  0
  -28.5708  -17.2136   20.2665 H   0  0  0  0  0  0
  -28.0665  -15.6982   20.9226 H   0  0  0  0  0  0
  -31.2015  -21.0112   23.1371 H   0  0  0  0  0  0
  -30.2646  -19.7130   23.8062 H   0  0  0  0  0  0
  -28.8565  -23.9863   19.8472 H   0  0  0  0  0  0
  -30.2725  -24.7518   20.5336 H   0  0  0  0  0  0
  -28.6043  -21.2906   23.3273 H   0  0  0  0  0  0
  -28.4711  -20.2102   21.9795 H   0  0  0  0  0  0
  -28.7648  -26.1257   22.0501 H   0  0  0  0  0  0
  -27.3754  -25.3272   21.3552 H   0  0  0  0  0  0
  -33.1403  -17.0486   18.2803 H   0  0  0  0  0  0
  -32.2918  -15.7657   18.9354 H   0  0  0  0  0  0
  -29.3408  -21.8564   20.5284 H   0  0  0  0  0  0
  1 25  1  0  0  0
  1 30  2  0  0  0
  1 85  1  0  0  0
  2  3  1  0  0  0
  2 25  1  0  0  0
  2 87  1  0  0  0
  2 88  1  0  0  0
  3  4  1  0  0  0
  3 89  1  0  0  0
  3 90  1  0  0  0
  4  5  1  0  0  0
  4 91  1  0  0  0
  4 92  1  0  0  0
  5  6  1  0  0  0
  5 26  1  0  0  0
  5 93  1  0  0  0
  6 25  1  0  0  0
  6 94  1  0  0  0
  6 95  1  0  0  0
  7  8  2  0  0  0
  7 26  1  0  0  0
  7 29  1  0  0  0
  8  9  1  0  0  0
  8 22  1  0  0  0
  9 10  1  0  0  0
  9 27  2  0  0  0
 10 11  2  0  0  0
 10 15  1  0  0  0
 11 12  1  0  0  0
 11 96  1  0  0  0
 12 13  2  0  0  0
 12 97  1  0  0  0
 13 14  1  0  0  0
 13 31  1  0  0  0
 14 15  2  0  0  0
 14 98  1  0  0  0
 15 99  1  0  0  0
 16 17  2  0  0  0
 16 21  1  0  0  0
 16 31  1  0  0  0
 17 18  1  0  0  0
 17100  1  0  0  0
 18 19  2  0  0  0
 18101  1  0  0  0
 19 20  1  0  0  0
 19 24  1  0  0  0
 20 21  2  0  0  0
 20102  1  0  0  0
 21 23  1  0  0  0
 22 28  1  0  0  0
 22 32  2  0  0  0
 26 27  1  0  0  0
 28103  1  0  0  0
 28104  1  0  0  0
 29105  1  0  0  0
 29106  1  0  0  0
 33 34  1  0  0  0
 33 66  1  0  0  0
 33 70  2  0  0  0
 34 36  1  0  0  0
 34 59  1  0  0  0
 34107  1  0  0  0
 35 44  2  0  0  0
 35 45  1  0  0  0
 35 68  1  0  0  0
 36 56  1  0  0  0
 36108  1  0  0  0
 37 39  1  0  0  0
 37 47  1  0  0  0
 37 66  1  0  0  0
 37109  1  0  0  0
 38 43  2  0  0  0
 38 46  1  0  0  0
 38 47  1  0  0  0
 39 64  1  0  0  0
 39 67  2  0  0  0
 40 52  1  0  0  0
 40 53  2  0  0  0
 40 58  1  0  0  0
 41110  1  0  0  0
 41111  1  0  0  0
 41112  1  0  0  0
 41 48  1  0  0  0
 42 43  1  0  0  0
 42 66  1  0  0  0
 42113  1  0  0  0
 42114  1  0  0  0
 43 44  1  0  0  0
 44115  1  0  0  0
 45 46  2  0  0  0
 45116  1  0  0  0
 46117  1  0  0  0
 47118  1  0  0  0
 47119  1  0  0  0
 48 56  1  0  0  0
 48 65  1  0  0  0
 48120  1  0  0  0
 49 50  1  0  0  0
 49 53  1  0  0  0
 49 64  1  0  0  0
 49121  1  0  0  0
 50 51  1  0  0  0
 50122  1  0  0  0
 50123  1  0  0  0
 51 52  1  0  0  0
 51124  1  0  0  0
 51125  1  0  0  0
 52126  1  0  0  0
 52127  1  0  0  0
 53 54  1  0  0  0
 54 55  2  0  0  0
 54128  1  0  0  0
 55 57  1  0  0  0
 55129  1  0  0  0
 56 69  2  0  0  0
 57 58  2  0  0  0
 57130  1  0  0  0
 58131  1  0  0  0
 59 60  1  0  0  0
 59 61  1  0  0  0
 59 62  1  0  0  0
 60132  1  0  0  0
 60133  1  0  0  0
 60134  1  0  0  0
 61135  1  0  0  0
 61136  1  0  0  0
 61137  1  0  0  0
 62138  1  0  0  0
 62139  1  0  0  0
 62140  1  0  0  0
 63 65  1  0  0  0
 63141  1  0  0  0
 63142  1  0  0  0
 63143  1  0  0  0
 64144  1  0  0  0
 65145  1  0  0  0
 68 82  1  0  0  0
 71 72  2  0  0  0
 71 74  1  0  0  0
 71146  1  0  0  0
 72 75  1  0  0  0
 72147  1  0  0  0
 73 74  2  0  0  0
 73 76  1  0  0  0
 73148  1  0  0  0
 74 79  1  0  0  0
 75 76  2  0  0  0
 75 83  1  0  0  0
 76 85  1  0  0  0
 77 80  1  0  0  0
 77 84  1  0  0  0
 77 86  2  0  0  0
 78 85  1  0  0  0
 78149  1  0  0  0
 78150  1  0  0  0
 78151  1  0  0  0
 79 81  1  0  0  0
 79152  1  0  0  0
 79153  1  0  0  0
 80 82  1  0  0  0
 80154  1  0  0  0
 80155  1  0  0  0
 81 84  1  0  0  0
 81156  1  0  0  0
 81157  1  0  0  0
 82158  1  0  0  0
 82159  1  0  0  0
 83160  1  0  0  0
 83161  1  0  0  0
 84162  1  0  0  0
M  ISO  4   1 100  68 101  82 101  85 100
M  END
> <chiral flag>
0

> <version>
0

> <s_m_source_file>
/data/baiqing/PycharmProjects/Reinvent-master-3.2/result/LINK_invent/BTK/process_docking_weight1_custom_sum_contain_oxygen_bond_distance_aromatic_linkinvent_7_9_3/rearranged_h_0007.sdf

> <i_m_source_file_index>
52

> <r_mmod_Potential_Energy-OPLS-2005>
86.2487945556641

> <r_mmod_Stretch_Energy-OPLS-2005>
45.6109008789062

> <r_mmod_Bend_Energy-OPLS-2005>
122.38249206543

> <r_mmod_Torsional_Energy-OPLS-2005>
342.876525878906

> <r_mmod_Improper_Torsional_Energy-OPLS-2005>
12.6666707992554

> <r_mmod_Van_der_Waal_Energy-OPLS-2005>
176.545181274414

> <r_mmod_Electrostatic_Energy-OPLS-2005>
-435.076690673828

> <r_mmod_Solvation_Energy-OPLS-2005>
-219.555252075195

> <b_mmod_Minimization_Converged-OPLS-2005>
0

> <r_mmod_RMS_Derivative-OPLS-2005>
1.37041890621185

$$$$
52
                    3D
 Structure written by MMmdl.
155163  0  0  1  0            999 V2000
  -30.4824  -15.0627   20.4017 C   0  0  0  0  0  0
  -30.4437  -12.6734   19.4779 C   0  0  0  0  0  0
  -29.5182  -12.5332   18.2468 C   0  0  0  0  0  0
  -28.0586  -12.2925   18.6797 C   0  0  0  0  0  0
  -27.6168  -13.2485   19.8179 C   0  0  2  0  0  0
  -28.6630  -13.3377   20.9461 C   0  0  0  0  0  0
  -25.2439  -13.8203   20.5728 C   0  0  0  0  0  0
  -24.1764  -13.0425   20.9243 C   0  0  0  0  0  0
  -24.6379  -11.6912   20.8749 C   0  0  0  0  0  0
  -23.9066  -10.4289   21.0407 C   0  0  0  0  0  0
  -24.3623   -9.4210   21.9185 C   0  0  0  0  0  0
  -23.6300   -8.2245   22.0754 C   0  0  0  0  0  0
  -22.4283   -8.0280   21.3543 C   0  0  0  0  0  0
  -21.9915   -9.0253   20.4644 C   0  0  0  0  0  0
  -22.7239  -10.2133   20.3055 C   0  0  0  0  0  0
  -21.6854   -6.0740   22.5280 C   0  0  0  0  0  0
  -21.4010   -6.5641   23.8214 C   0  0  0  0  0  0
  -21.3658   -5.6790   24.9174 C   0  0  0  0  0  0
  -21.6046   -4.3055   24.7222 C   0  0  0  0  0  0
  -21.8819   -3.8150   23.4342 C   0  0  0  0  0  0
  -21.9194   -4.6968   22.3401 C   0  0  0  0  0  0
  -22.7787  -13.5202   21.1905 C   0  0  0  0  0  0
  -22.1665   -4.2156   21.0977 F   0  0  0  0  0  0
  -21.5631   -3.4537   25.7735 F   0  0  0  0  0  0
  -29.9103  -13.7872   20.3165 N   0  0  0  0  0  0
  -26.2835  -12.9424   20.3185 N   0  0  0  0  0  0
  -25.9302  -11.6555   20.5703 N   0  0  0  0  0  0
  -22.0439  -12.8181   22.0450 N   0  0  0  0  0  0
  -25.4092  -15.1941   20.4208 N   0  0  0  0  0  0
  -31.7125  -15.1120   20.2762 O   0  0  0  0  0  0
  -21.6640   -6.8884   21.4244 O   0  0  0  0  0  0
  -22.3474  -14.5517   20.6760 O   0  0  0  0  0  0
  -24.6494  -31.8372   23.1803 C   0  0  0  0  0  0
  -25.9236  -32.4664   23.8220 C   0  0  1  0  0  0
  -27.2184  -27.0647   20.1770 C   0  0  0  0  0  0
  -25.5951  -33.8464   24.2144 N   0  0  0  0  0  0
  -23.4556  -30.4525   21.5280 C   0  0  2  0  0  0
  -24.9034  -28.8509   20.1247 C   0  0  0  0  0  0
  -22.7584  -29.4526   22.4854 C   0  0  0  0  0  0
  -18.0308  -28.1393   22.8475 C   0  0  0  0  0  0
  -24.1496  -36.7239   23.2644 C   0  0  0  0  0  0
  -26.0144  -30.6897   21.3847 C   0  0  0  0  0  0
  -26.0846  -29.2879   20.7385 C   0  0  0  0  0  0
  -27.2451  -28.4156   20.7340 C   0  0  0  0  0  0
  -26.0075  -26.7320   19.5380 C   0  0  0  0  0  0
  -24.8796  -27.5874   19.5091 C   0  0  0  0  0  0
  -23.6852  -29.7660   20.1540 C   0  0  0  0  0  0
  -25.4128  -36.3009   24.0313 C   0  0  1  0  0  0
  -20.5923  -28.3724   23.1228 C   0  0  2  0  0  0
  -20.6787  -26.9422   22.5404 C   0  0  0  0  0  0
  -19.5762  -26.6378   21.5212 C   0  0  0  0  0  0
  -18.1943  -26.7930   22.1623 C   0  0  0  0  0  0
  -19.1565  -28.8873   23.2839 C   0  0  0  0  0  0
  -18.9481  -30.1467   23.8872 C   0  0  0  0  0  0
  -17.6476  -30.6585   24.0555 C   0  0  0  0  0  0
  -25.9087  -34.9389   23.5047 C   0  0  0  0  0  0
  -16.5367  -29.9081   23.6335 C   0  0  0  0  0  0
  -16.7291  -28.6499   23.0359 C   0  0  0  0  0  0
  -26.4532  -31.6554   25.0695 C   0  0  0  0  0  0
  -25.3701  -31.3741   26.1380 C   0  0  0  0  0  0
  -27.0400  -30.2945   24.6304 C   0  0  0  0  0  0
  -27.6054  -32.4334   25.7483 C   0  0  0  0  0  0
  -27.5578  -37.1768   24.8465 C   0  0  0  0  0  0
  -21.4279  -29.3047   22.3595 N   0  0  0  0  0  0
  -26.4285  -37.3732   23.9417 N   0  0  0  0  0  0
  -24.7270  -31.0170   22.0860 N   0  0  0  0  0  0
  -23.4199  -28.8093   23.3040 O   0  0  0  0  0  0
  -28.3106  -26.1115   20.0852 O   0  0  0  0  0  0
  -26.5686  -34.8904   22.4635 O   0  0  0  0  0  0
  -23.5604  -32.1281   23.6990 O   0  0  0  0  0  0
  -30.0478  -17.9839   22.0574 C   0  0  0  0  0  0
  -29.2857  -19.0090   19.9923 C   0  0  0  0  0  0
  -29.7145  -17.7489   20.7078 C   0  0  0  0  0  0
  -29.2056  -20.4055   20.5836 C   0  0  0  0  0  0
  -29.9259  -19.2578   22.6640 C   0  0  0  0  0  0
  -29.5102  -20.4189   21.9649 C   0  0  0  0  0  0
  -28.8606  -18.8141   18.5477 C   0  0  0  0  0  0
  -29.9713  -21.9769   18.8543 C   0  0  0  0  0  0
  -28.0698  -23.0286   20.1685 C   0  0  0  0  0  0
  -28.4652  -24.6358   20.6537 C   0  0  0  0  0  0
  -29.6701  -16.2508   20.2645 N   0  0  0  0  0  0
  -29.0228  -21.7693   19.9429 N   0  0  0  0  0  0
  -30.2271  -19.3710   23.9800 F   0  0  0  0  0  0
  -29.4577  -21.5926   22.6421 F   0  0  0  0  0  0
  -31.4647  -12.8736   19.1495 H   0  0  0  0  0  0
  -30.4846  -11.7424   20.0461 H   0  0  0  0  0  0
  -29.8582  -11.7187   17.6056 H   0  0  0  0  0  0
  -29.5745  -13.4407   17.6435 H   0  0  0  0  0  0
  -27.9847  -11.2591   19.0209 H   0  0  0  0  0  0
  -27.3877  -12.3788   17.8241 H   0  0  0  0  0  0
  -27.5557  -14.2332   19.3547 H   0  0  0  0  0  0
  -28.7891  -12.3796   21.4520 H   0  0  0  0  0  0
  -28.3437  -14.0562   21.7037 H   0  0  0  0  0  0
  -25.2766   -9.5694   22.4763 H   0  0  0  0  0  0
  -24.0011   -7.4635   22.7468 H   0  0  0  0  0  0
  -21.0849   -8.8768   19.8946 H   0  0  0  0  0  0
  -22.3691  -10.9676   19.6170 H   0  0  0  0  0  0
  -21.1994   -7.6148   23.9721 H   0  0  0  0  0  0
  -21.1482   -6.0518   25.9079 H   0  0  0  0  0  0
  -22.0599   -2.7613   23.2835 H   0  0  0  0  0  0
  -22.4057  -11.9828   22.4808 H   0  0  0  0  0  0
  -21.1059  -13.1197   22.2669 H   0  0  0  0  0  0
  -24.6410  -15.8426   20.5545 H   0  0  0  0  0  0
  -26.2544  -15.6468   20.1010 H   0  0  0  0  0  0
  -26.7301  -32.5249   23.0941 H   0  0  0  0  0  0
  -25.0028  -33.9551   25.0245 H   0  0  0  0  0  0
  -22.7633  -31.2810   21.3639 H   0  0  0  0  0  0
  -23.3768  -35.9561   23.3279 H   0  0  0  0  0  0
  -24.3574  -36.8913   22.2064 H   0  0  0  0  0  0
  -23.7248  -37.6421   23.6711 H   0  0  0  0  0  0
  -26.1719  -31.4352   20.6035 H   0  0  0  0  0  0
  -26.8842  -30.7504   22.0278 H   0  0  0  0  0  0
  -28.1590  -28.7615   21.1961 H   0  0  0  0  0  0
  -25.9291  -25.7697   19.0506 H   0  0  0  0  0  0
  -23.9797  -27.2475   19.0161 H   0  0  0  0  0  0
  -23.8299  -30.5331   19.3925 H   0  0  0  0  0  0
  -22.7976  -29.2114   19.8439 H   0  0  0  0  0  0
  -25.1318  -36.1815   25.0805 H   0  0  0  0  0  0
  -21.0010  -28.3316   24.1352 H   0  0  0  0  0  0
  -20.5679  -26.2335   23.3625 H   0  0  0  0  0  0
  -21.6651  -26.7422   22.1203 H   0  0  0  0  0  0
  -19.6927  -25.6286   21.1248 H   0  0  0  0  0  0
  -19.6701  -27.3181   20.6736 H   0  0  0  0  0  0
  -17.4212  -26.6682   21.4022 H   0  0  0  0  0  0
  -18.0334  -26.0077   22.9022 H   0  0  0  0  0  0
  -19.7962  -30.7277   24.2241 H   0  0  0  0  0  0
  -17.5036  -31.6271   24.5150 H   0  0  0  0  0  0
  -15.5366  -30.2969   23.7673 H   0  0  0  0  0  0
  -15.8697  -28.0801   22.7096 H   0  0  0  0  0  0
  -24.5915  -30.7060   25.7685 H   0  0  0  0  0  0
  -24.8841  -32.2906   26.4729 H   0  0  0  0  0  0
  -25.7965  -30.8966   27.0208 H   0  0  0  0  0  0
  -26.3009  -29.6659   24.1327 H   0  0  0  0  0  0
  -27.4012  -29.7271   25.4887 H   0  0  0  0  0  0
  -27.8922  -30.4175   23.9620 H   0  0  0  0  0  0
  -27.2658  -33.3685   26.1940 H   0  0  0  0  0  0
  -28.3910  -32.6804   25.0335 H   0  0  0  0  0  0
  -28.0662  -31.8532   26.5488 H   0  0  0  0  0  0
  -28.2559  -38.0097   24.7519 H   0  0  0  0  0  0
  -28.1102  -36.2616   24.6265 H   0  0  0  0  0  0
  -27.2286  -37.1379   25.8864 H   0  0  0  0  0  0
  -20.9501  -29.8733   21.6741 H   0  0  0  0  0  0
  -26.0143  -38.2797   24.1428 H   0  0  0  0  0  0
  -30.3522  -17.1564   22.6813 H   0  0  0  0  0  0
  -29.5419  -18.1341   18.0365 H   0  0  0  0  0  0
  -28.8354  -19.7455   17.9866 H   0  0  0  0  0  0
  -27.8611  -18.3808   18.5115 H   0  0  0  0  0  0
  -30.7295  -21.1939   18.8019 H   0  0  0  0  0  0
  -30.4951  -22.9248   18.9848 H   0  0  0  0  0  0
  -29.4541  -22.0111   17.8943 H   0  0  0  0  0  0
  -27.5166  -23.1358   19.2357 H   0  0  0  0  0  0
  -27.3081  -22.6842   20.8693 H   0  0  0  0  0  0
  -29.5389  -24.5835   20.8354 H   0  0  0  0  0  0
  -28.0565  -24.7208   21.6617 H   0  0  0  0  0  0
  -28.7619  -15.9987   19.9070 H   0  0  0  0  0  0
  1 25  1  0  0  0
  1 30  2  0  0  0
  1 81  1  0  0  0
  2  3  1  0  0  0
  2 25  1  0  0  0
  2 85  1  0  0  0
  2 86  1  0  0  0
  3  4  1  0  0  0
  3 87  1  0  0  0
  3 88  1  0  0  0
  4  5  1  0  0  0
  4 89  1  0  0  0
  4 90  1  0  0  0
  5  6  1  0  0  0
  5 26  1  0  0  0
  5 91  1  0  0  0
  6 25  1  0  0  0
  6 92  1  0  0  0
  6 93  1  0  0  0
  7  8  2  0  0  0
  7 26  1  0  0  0
  7 29  1  0  0  0
  8  9  1  0  0  0
  8 22  1  0  0  0
  9 10  1  0  0  0
  9 27  2  0  0  0
 10 11  2  0  0  0
 10 15  1  0  0  0
 11 12  1  0  0  0
 11 94  1  0  0  0
 12 13  2  0  0  0
 12 95  1  0  0  0
 13 14  1  0  0  0
 13 31  1  0  0  0
 14 15  2  0  0  0
 14 96  1  0  0  0
 15 97  1  0  0  0
 16 17  2  0  0  0
 16 21  1  0  0  0
 16 31  1  0  0  0
 17 18  1  0  0  0
 17 98  1  0  0  0
 18 19  2  0  0  0
 18 99  1  0  0  0
 19 20  1  0  0  0
 19 24  1  0  0  0
 20 21  2  0  0  0
 20100  1  0  0  0
 21 23  1  0  0  0
 22 28  1  0  0  0
 22 32  2  0  0  0
 26 27  1  0  0  0
 28101  1  0  0  0
 28102  1  0  0  0
 29103  1  0  0  0
 29104  1  0  0  0
 33 34  1  0  0  0
 33 66  1  0  0  0
 33 70  2  0  0  0
 34 36  1  0  0  0
 34 59  1  0  0  0
 34105  1  0  0  0
 35 44  2  0  0  0
 35 45  1  0  0  0
 35 68  1  0  0  0
 36 56  1  0  0  0
 36106  1  0  0  0
 37 39  1  0  0  0
 37 47  1  0  0  0
 37 66  1  0  0  0
 37107  1  0  0  0
 38 43  2  0  0  0
 38 46  1  0  0  0
 38 47  1  0  0  0
 39 64  1  0  0  0
 39 67  2  0  0  0
 40 52  1  0  0  0
 40 53  2  0  0  0
 40 58  1  0  0  0
 41108  1  0  0  0
 41109  1  0  0  0
 41110  1  0  0  0
 41 48  1  0  0  0
 42 43  1  0  0  0
 42 66  1  0  0  0
 42111  1  0  0  0
 42112  1  0  0  0
 43 44  1  0  0  0
 44113  1  0  0  0
 45 46  2  0  0  0
 45114  1  0  0  0
 46115  1  0  0  0
 47116  1  0  0  0
 47117  1  0  0  0
 48 56  1  0  0  0
 48 65  1  0  0  0
 48118  1  0  0  0
 49 50  1  0  0  0
 49 53  1  0  0  0
 49 64  1  0  0  0
 49119  1  0  0  0
 50 51  1  0  0  0
 50120  1  0  0  0
 50121  1  0  0  0
 51 52  1  0  0  0
 51122  1  0  0  0
 51123  1  0  0  0
 52124  1  0  0  0
 52125  1  0  0  0
 53 54  1  0  0  0
 54 55  2  0  0  0
 54126  1  0  0  0
 55 57  1  0  0  0
 55127  1  0  0  0
 56 69  2  0  0  0
 57 58  2  0  0  0
 57128  1  0  0  0
 58129  1  0  0  0
 59 60  1  0  0  0
 59 61  1  0  0  0
 59 62  1  0  0  0
 60130  1  0  0  0
 60131  1  0  0  0
 60132  1  0  0  0
 61133  1  0  0  0
 61134  1  0  0  0
 61135  1  0  0  0
 62136  1  0  0  0
 62137  1  0  0  0
 62138  1  0  0  0
 63 65  1  0  0  0
 63139  1  0  0  0
 63140  1  0  0  0
 63141  1  0  0  0
 64142  1  0  0  0
 65143  1  0  0  0
 68 80  1  0  0  0
 71 73  2  0  0  0
 71 75  1  0  0  0
 71144  1  0  0  0
 72 73  1  0  0  0
 72 74  2  0  0  0
 72 77  1  0  0  0
 73 81  1  0  0  0
 74 76  1  0  0  0
 74 82  1  0  0  0
 75 76  2  0  0  0
 75 83  1  0  0  0
 76 84  1  0  0  0
 77145  1  0  0  0
 77146  1  0  0  0
 77147  1  0  0  0
 78 82  1  0  0  0
 78148  1  0  0  0
 78149  1  0  0  0
 78150  1  0  0  0
 79 80  1  0  0  0
 79 82  1  0  0  0
 79151  1  0  0  0
 79152  1  0  0  0
 80153  1  0  0  0
 80154  1  0  0  0
 81155  1  0  0  0
M  ISO  4   1 100  68 101  80 101  81 100
M  END
> <chiral flag>
0

> <version>
0

> <s_m_source_file>
/data/baiqing/PycharmProjects/Reinvent-master-3.2/result/LINK_invent/BTK/process_docking_weight1_custom_sum_contain_oxygen_bond_distance_aromatic_linkinvent_7_9_3/rearranged_h_0007.sdf

> <i_m_source_file_index>
53

> <r_mmod_Potential_Energy-OPLS-2005>
888.035705566406

> <r_mmod_Stretch_Energy-OPLS-2005>
340.051116943359

> <r_mmod_Bend_Energy-OPLS-2005>
370.426452636719

> <r_mmod_Torsional_Energy-OPLS-2005>
291.801025390625

> <r_mmod_Improper_Torsional_Energy-OPLS-2005>
11.8171319961548

> <r_mmod_Van_der_Waal_Energy-OPLS-2005>
120.305885314941

> <r_mmod_Electrostatic_Energy-OPLS-2005>
-295.298736572266

> <r_mmod_Solvation_Energy-OPLS-2005>
-217.072540283203

> <b_mmod_Minimization_Converged-OPLS-2005>
0

> <r_mmod_RMS_Derivative-OPLS-2005>
1.47259402275085

$$$$
53
                    3D
 Structure written by MMmdl.
157165  0  0  1  0            999 V2000
  -30.6945  -14.4345   20.5692 C   0  0  0  0  0  0
  -30.4235  -12.2799   19.4207 C   0  0  0  0  0  0
  -29.4959  -12.5035   18.2076 C   0  0  0  0  0  0
  -28.0150  -12.3716   18.6164 C   0  0  0  0  0  0
  -27.6656  -13.2010   19.8813 C   0  0  2  0  0  0
  -28.7036  -12.9521   20.9996 C   0  0  0  0  0  0
  -25.2598  -13.8153   20.5662 C   0  0  0  0  0  0
  -24.1843  -13.0438   20.9163 C   0  0  0  0  0  0
  -24.6391  -11.6903   20.8734 C   0  0  0  0  0  0
  -23.9056  -10.4291   21.0406 C   0  0  0  0  0  0
  -24.3610   -9.4209   21.9184 C   0  0  0  0  0  0
  -23.6287   -8.2243   22.0753 C   0  0  0  0  0  0
  -22.4269   -8.0280   21.3544 C   0  0  0  0  0  0
  -21.9905   -9.0251   20.4643 C   0  0  0  0  0  0
  -22.7233  -10.2130   20.3051 C   0  0  0  0  0  0
  -21.6852   -6.0734   22.5279 C   0  0  0  0  0  0
  -21.4011   -6.5638   23.8210 C   0  0  0  0  0  0
  -21.3659   -5.6792   24.9173 C   0  0  0  0  0  0
  -21.6046   -4.3056   24.7224 C   0  0  0  0  0  0
  -21.8821   -3.8146   23.4346 C   0  0  0  0  0  0
  -21.9193   -4.6962   22.3403 C   0  0  0  0  0  0
  -22.7868  -13.5242   21.1835 C   0  0  0  0  0  0
  -22.1662   -4.2148   21.0980 F   0  0  0  0  0  0
  -21.5630   -3.4541   25.7738 F   0  0  0  0  0  0
  -30.0423  -13.2483   20.4584 N   0  0  0  0  0  0
  -26.3039  -12.9313   20.3387 N   0  0  0  0  0  0
  -25.9318  -11.6478   20.5773 N   0  0  0  0  0  0
  -22.0509  -12.8227   22.0389 N   0  0  0  0  0  0
  -25.4319  -15.1862   20.4032 N   0  0  0  0  0  0
  -31.8198  -14.6320   20.1008 O   0  0  0  0  0  0
  -21.6637   -6.8876   21.4241 O   0  0  0  0  0  0
  -22.3549  -14.5550   20.6692 O   0  0  0  0  0  0
  -24.6113  -31.8692   23.2108 C   0  0  0  0  0  0
  -25.9018  -32.4828   23.8395 C   0  0  1  0  0  0
  -27.2423  -27.4573   20.0796 C   0  0  0  0  0  0
  -25.5882  -33.8628   24.2323 N   0  0  0  0  0  0
  -23.3975  -30.4916   21.5510 C   0  0  2  0  0  0
  -24.8425  -28.9555   20.1169 C   0  0  0  0  0  0
  -22.7388  -29.4661   22.5009 C   0  0  0  0  0  0
  -18.0260  -28.1379   22.8500 C   0  0  0  0  0  0
  -24.1482  -36.7318   23.2638 C   0  0  0  0  0  0
  -25.9231  -30.8382   21.3619 C   0  0  0  0  0  0
  -25.9988  -29.4723   20.7121 C   0  0  0  0  0  0
  -27.1955  -28.7261   20.6969 C   0  0  0  0  0  0
  -26.0614  -26.9403   19.4965 C   0  0  0  0  0  0
  -24.8665  -27.6860   19.5122 C   0  0  0  0  0  0
  -23.6034  -29.8199   20.1662 C   0  0  0  0  0  0
  -25.4108  -36.3118   24.0334 C   0  0  1  0  0  0
  -20.5849  -28.3654   23.1336 C   0  0  2  0  0  0
  -20.6753  -26.9398   22.5420 C   0  0  0  0  0  0
  -19.5728  -26.6387   21.5219 C   0  0  0  0  0  0
  -18.1902  -26.7929   22.1625 C   0  0  0  0  0  0
  -19.1510  -28.8835   23.2913 C   0  0  0  0  0  0
  -18.9445  -30.1447   23.8916 C   0  0  0  0  0  0
  -17.6449  -30.6590   24.0568 C   0  0  0  0  0  0
  -25.9034  -34.9481   23.5129 C   0  0  0  0  0  0
  -16.5337  -29.9096   23.6331 C   0  0  0  0  0  0
  -16.7251  -28.6510   23.0354 C   0  0  0  0  0  0
  -26.4452  -31.6608   25.0722 C   0  0  0  0  0  0
  -25.3718  -31.3697   26.1466 C   0  0  0  0  0  0
  -27.0290  -30.3058   24.6090 C   0  0  0  0  0  0
  -27.6028  -32.4323   25.7492 C   0  0  0  0  0  0
  -27.5578  -37.1817   24.8463 C   0  0  0  0  0  0
  -21.4118  -29.3033   22.3755 N   0  0  0  0  0  0
  -26.4295  -37.3800   23.9400 N   0  0  0  0  0  0
  -24.6620  -31.0807   22.0998 N   0  0  0  0  0  0
  -23.4175  -28.8205   23.3041 O   0  0  0  0  0  0
  -28.4525  -26.7974   20.0801 O   0  0  0  0  0  0
  -26.5605  -34.8926   22.4696 O   0  0  0  0  0  0
  -23.5314  -32.1441   23.7518 O   0  0  0  0  0  0
  -30.4582  -17.2518   19.5304 C   0  0  0  0  0  0
  -30.3100  -18.5882   19.1241 C   0  0  0  0  0  0
  -29.0279  -19.0611   21.1269 C   0  0  0  0  0  0
  -29.1605  -17.7137   21.5480 C   0  0  0  0  0  0
  -29.8924  -16.7919   20.7460 C   0  0  0  0  0  0
  -29.5942  -19.5071   19.9094 C   0  0  0  0  0  0
  -28.3804  -24.3412   20.0894 C   0  0  0  0  0  0
  -28.9250  -23.0956   19.3656 C   0  0  0  0  0  0
  -28.6471  -25.6286   19.2868 C   0  0  0  0  0  0
  -28.8143  -21.7867   20.1650 C   0  0  0  0  0  0
  -28.5126  -17.2778   22.8640 C   0  0  0  0  0  0
  -29.9750  -15.4165   21.1374 N   0  0  0  0  0  0
  -29.4943  -20.7886   19.4116 O   0  0  0  0  0  0
  -27.7004  -18.2124   23.3614 F   0  0  0  0  0  0
  -27.7941  -16.1675   22.6859 F   0  0  0  0  0  0
  -29.4601  -17.0281   23.7676 F   0  0  0  0  0  0
  -31.4690  -12.3764   19.1224 H   0  0  0  0  0  0
  -30.3176  -11.2633   19.8024 H   0  0  0  0  0  0
  -29.7298  -11.7872   17.4190 H   0  0  0  0  0  0
  -29.6732  -13.4932   17.7836 H   0  0  0  0  0  0
  -27.8167  -11.3151   18.8014 H   0  0  0  0  0  0
  -27.3679  -12.6599   17.7872 H   0  0  0  0  0  0
  -27.7191  -14.2529   19.6000 H   0  0  0  0  0  0
  -28.6673  -11.9103   21.3212 H   0  0  0  0  0  0
  -28.4662  -13.5336   21.8914 H   0  0  0  0  0  0
  -25.2755   -9.5688   22.4756 H   0  0  0  0  0  0
  -23.9999   -7.4636   22.7475 H   0  0  0  0  0  0
  -21.0837   -8.8768   19.8946 H   0  0  0  0  0  0
  -22.3697  -10.9667   19.6154 H   0  0  0  0  0  0
  -21.1999   -7.6146   23.9713 H   0  0  0  0  0  0
  -21.1481   -6.0522   25.9074 H   0  0  0  0  0  0
  -22.0600   -2.7608   23.2847 H   0  0  0  0  0  0
  -22.4122  -11.9879   22.4761 H   0  0  0  0  0  0
  -21.1128  -13.1250   22.2599 H   0  0  0  0  0  0
  -24.6715  -15.8457   20.5238 H   0  0  0  0  0  0
  -26.2951  -15.6252   20.1116 H   0  0  0  0  0  0
  -26.7094  -32.5541   23.1163 H   0  0  0  0  0  0
  -25.0019  -33.9798   25.0457 H   0  0  0  0  0  0
  -22.6853  -31.3075   21.4118 H   0  0  0  0  0  0
  -23.3743  -35.9655   23.3321 H   0  0  0  0  0  0
  -24.3569  -36.8918   22.2048 H   0  0  0  0  0  0
  -23.7240  -37.6529   23.6644 H   0  0  0  0  0  0
  -26.0335  -31.6042   20.5931 H   0  0  0  0  0  0
  -26.8115  -30.8917   21.9791 H   0  0  0  0  0  0
  -28.0917  -29.1277   21.1489 H   0  0  0  0  0  0
  -26.0416  -25.9672   19.0288 H   0  0  0  0  0  0
  -23.9743  -27.2789   19.0568 H   0  0  0  0  0  0
  -23.7075  -30.5916   19.4027 H   0  0  0  0  0  0
  -22.7284  -29.2361   19.8747 H   0  0  0  0  0  0
  -25.1289  -36.1988   25.0828 H   0  0  0  0  0  0
  -20.9933  -28.3207   24.1459 H   0  0  0  0  0  0
  -20.5671  -26.2258   23.3598 H   0  0  0  0  0  0
  -21.6623  -26.7455   22.1199 H   0  0  0  0  0  0
  -19.6886  -25.6304   21.1236 H   0  0  0  0  0  0
  -19.6669  -27.3212   20.6761 H   0  0  0  0  0  0
  -17.4179  -26.6704   21.4015 H   0  0  0  0  0  0
  -18.0280  -26.0058   22.9001 H   0  0  0  0  0  0
  -19.7922  -30.7261   24.2286 H   0  0  0  0  0  0
  -17.5007  -31.6278   24.5156 H   0  0  0  0  0  0
  -15.5339  -30.3012   23.7645 H   0  0  0  0  0  0
  -15.8645  -28.0843   22.7063 H   0  0  0  0  0  0
  -24.5885  -30.7060   25.7784 H   0  0  0  0  0  0
  -24.8916  -32.2848   26.4947 H   0  0  0  0  0  0
  -25.8067  -30.8830   27.0206 H   0  0  0  0  0  0
  -26.2842  -29.6827   24.1128 H   0  0  0  0  0  0
  -27.4049  -29.7285   25.4547 H   0  0  0  0  0  0
  -27.8673  -30.4388   23.9248 H   0  0  0  0  0  0
  -27.2646  -33.3606   26.2110 H   0  0  0  0  0  0
  -28.3825  -32.6913   25.0316 H   0  0  0  0  0  0
  -28.0710  -31.8421   26.5379 H   0  0  0  0  0  0
  -28.2601  -38.0109   24.7511 H   0  0  0  0  0  0
  -28.1069  -36.2643   24.6293 H   0  0  0  0  0  0
  -27.2290  -37.1468   25.8863 H   0  0  0  0  0  0
  -20.9269  -29.8772   21.6998 H   0  0  0  0  0  0
  -26.0186  -38.2879   24.1401 H   0  0  0  0  0  0
  -30.9984  -16.5915   18.8687 H   0  0  0  0  0  0
  -30.7458  -18.9084   18.1878 H   0  0  0  0  0  0
  -28.4738  -19.7445   21.7510 H   0  0  0  0  0  0
  -28.8660  -24.4246   21.0625 H   0  0  0  0  0  0
  -27.3134  -24.2325   20.2847 H   0  0  0  0  0  0
  -29.9772  -23.2615   19.1304 H   0  0  0  0  0  0
  -28.4166  -22.9791   18.4074 H   0  0  0  0  0  0
  -28.0918  -25.6513   18.3488 H   0  0  0  0  0  0
  -29.6971  -25.6452   18.9929 H   0  0  0  0  0  0
  -27.7673  -21.5159   20.3105 H   0  0  0  0  0  0
  -29.2806  -21.9018   21.1447 H   0  0  0  0  0  0
  -29.2049  -15.0920   21.7052 H   0  0  0  0  0  0
  1 25  1  0  0  0
  1 30  2  0  0  0
  1 82  1  0  0  0
  2  3  1  0  0  0
  2 25  1  0  0  0
  2 87  1  0  0  0
  2 88  1  0  0  0
  3  4  1  0  0  0
  3 89  1  0  0  0
  3 90  1  0  0  0
  4  5  1  0  0  0
  4 91  1  0  0  0
  4 92  1  0  0  0
  5  6  1  0  0  0
  5 26  1  0  0  0
  5 93  1  0  0  0
  6 25  1  0  0  0
  6 94  1  0  0  0
  6 95  1  0  0  0
  7  8  2  0  0  0
  7 26  1  0  0  0
  7 29  1  0  0  0
  8  9  1  0  0  0
  8 22  1  0  0  0
  9 10  1  0  0  0
  9 27  2  0  0  0
 10 11  2  0  0  0
 10 15  1  0  0  0
 11 12  1  0  0  0
 11 96  1  0  0  0
 12 13  2  0  0  0
 12 97  1  0  0  0
 13 14  1  0  0  0
 13 31  1  0  0  0
 14 15  2  0  0  0
 14 98  1  0  0  0
 15 99  1  0  0  0
 16 17  2  0  0  0
 16 21  1  0  0  0
 16 31  1  0  0  0
 17 18  1  0  0  0
 17100  1  0  0  0
 18 19  2  0  0  0
 18101  1  0  0  0
 19 20  1  0  0  0
 19 24  1  0  0  0
 20 21  2  0  0  0
 20102  1  0  0  0
 21 23  1  0  0  0
 22 28  1  0  0  0
 22 32  2  0  0  0
 26 27  1  0  0  0
 28103  1  0  0  0
 28104  1  0  0  0
 29105  1  0  0  0
 29106  1  0  0  0
 33 34  1  0  0  0
 33 66  1  0  0  0
 33 70  2  0  0  0
 34 36  1  0  0  0
 34 59  1  0  0  0
 34107  1  0  0  0
 35 44  2  0  0  0
 35 45  1  0  0  0
 35 68  1  0  0  0
 36 56  1  0  0  0
 36108  1  0  0  0
 37 39  1  0  0  0
 37 47  1  0  0  0
 37 66  1  0  0  0
 37109  1  0  0  0
 38 43  2  0  0  0
 38 46  1  0  0  0
 38 47  1  0  0  0
 39 64  1  0  0  0
 39 67  2  0  0  0
 40 52  1  0  0  0
 40 53  2  0  0  0
 40 58  1  0  0  0
 41110  1  0  0  0
 41111  1  0  0  0
 41112  1  0  0  0
 41 48  1  0  0  0
 42 43  1  0  0  0
 42 66  1  0  0  0
 42113  1  0  0  0
 42114  1  0  0  0
 43 44  1  0  0  0
 44115  1  0  0  0
 45 46  2  0  0  0
 45116  1  0  0  0
 46117  1  0  0  0
 47118  1  0  0  0
 47119  1  0  0  0
 48 56  1  0  0  0
 48 65  1  0  0  0
 48120  1  0  0  0
 49 50  1  0  0  0
 49 53  1  0  0  0
 49 64  1  0  0  0
 49121  1  0  0  0
 50 51  1  0  0  0
 50122  1  0  0  0
 50123  1  0  0  0
 51 52  1  0  0  0
 51124  1  0  0  0
 51125  1  0  0  0
 52126  1  0  0  0
 52127  1  0  0  0
 53 54  1  0  0  0
 54 55  2  0  0  0
 54128  1  0  0  0
 55 57  1  0  0  0
 55129  1  0  0  0
 56 69  2  0  0  0
 57 58  2  0  0  0
 57130  1  0  0  0
 58131  1  0  0  0
 59 60  1  0  0  0
 59 61  1  0  0  0
 59 62  1  0  0  0
 60132  1  0  0  0
 60133  1  0  0  0
 60134  1  0  0  0
 61135  1  0  0  0
 61136  1  0  0  0
 61137  1  0  0  0
 62138  1  0  0  0
 62139  1  0  0  0
 62140  1  0  0  0
 63 65  1  0  0  0
 63141  1  0  0  0
 63142  1  0  0  0
 63143  1  0  0  0
 64144  1  0  0  0
 65145  1  0  0  0
 68 79  1  0  0  0
 71 72  2  0  0  0
 71 75  1  0  0  0
 71146  1  0  0  0
 72 76  1  0  0  0
 72147  1  0  0  0
 73 74  1  0  0  0
 73 76  2  0  0  0
 73148  1  0  0  0
 74 75  2  0  0  0
 74 81  1  0  0  0
 75 82  1  0  0  0
 76 83  1  0  0  0
 77 78  1  0  0  0
 77 79  1  0  0  0
 77149  1  0  0  0
 77150  1  0  0  0
 78 80  1  0  0  0
 78151  1  0  0  0
 78152  1  0  0  0
 79153  1  0  0  0
 79154  1  0  0  0
 80 83  1  0  0  0
 80155  1  0  0  0
 80156  1  0  0  0
 81 84  1  0  0  0
 81 85  1  0  0  0
 81 86  1  0  0  0
 82157  1  0  0  0
M  ISO  4   1 100  68 101  79 101  82 100
M  END
> <chiral flag>
0

> <version>
0

> <s_m_source_file>
/data/baiqing/PycharmProjects/Reinvent-master-3.2/result/LINK_invent/BTK/process_docking_weight1_custom_sum_contain_oxygen_bond_distance_aromatic_linkinvent_7_9_3/rearranged_h_0007.sdf

> <i_m_source_file_index>
54

> <r_mmod_Potential_Energy-OPLS-2005>
-27.7463397979736

> <r_mmod_Stretch_Energy-OPLS-2005>
35.1902656555176

> <r_mmod_Bend_Energy-OPLS-2005>
109.738784790039

> <r_mmod_Torsional_Energy-OPLS-2005>
210.297485351562

> <r_mmod_Improper_Torsional_Energy-OPLS-2005>
3.93488597869873

> <r_mmod_Van_der_Waal_Energy-OPLS-2005>
162.016983032227

> <r_mmod_Electrostatic_Energy-OPLS-2005>
-360.206207275391

> <r_mmod_Solvation_Energy-OPLS-2005>
-199.187393188477

> <b_mmod_Minimization_Converged-OPLS-2005>
0

> <r_mmod_RMS_Derivative-OPLS-2005>
0.60809713602066

$$$$
54
                    3D
 Structure written by MMmdl.
148156  0  0  1  0            999 V2000
  -30.5211  -15.0293   20.4026 C   0  0  0  0  0  0
  -30.4387  -12.6426   19.5044 C   0  0  0  0  0  0
  -29.5232  -12.5370   18.2625 C   0  0  0  0  0  0
  -28.0602  -12.3101   18.6846 C   0  0  0  0  0  0
  -27.6242  -13.2558   19.8337 C   0  0  2  0  0  0
  -28.6660  -13.3265   20.9701 C   0  0  0  0  0  0
  -25.2441  -13.8227   20.5730 C   0  0  0  0  0  0
  -24.1769  -13.0436   20.9244 C   0  0  0  0  0  0
  -24.6400  -11.6928   20.8768 C   0  0  0  0  0  0
  -23.9091  -10.4293   21.0414 C   0  0  0  0  0  0
  -24.3635   -9.4206   21.9192 C   0  0  0  0  0  0
  -23.6306   -8.2242   22.0756 C   0  0  0  0  0  0
  -22.4287   -8.0286   21.3547 C   0  0  0  0  0  0
  -21.9930   -9.0260   20.4646 C   0  0  0  0  0  0
  -22.7264  -10.2135   20.3060 C   0  0  0  0  0  0
  -21.6854   -6.0745   22.5282 C   0  0  0  0  0  0
  -21.4014   -6.5648   23.8217 C   0  0  0  0  0  0
  -21.3659   -5.6798   24.9178 C   0  0  0  0  0  0
  -21.6045   -4.3061   24.7224 C   0  0  0  0  0  0
  -21.8818   -3.8153   23.4343 C   0  0  0  0  0  0
  -21.9193   -4.6973   22.3401 C   0  0  0  0  0  0
  -22.7788  -13.5201   21.1893 C   0  0  0  0  0  0
  -22.1663   -4.2159   21.0978 F   0  0  0  0  0  0
  -21.5625   -3.4543   25.7734 F   0  0  0  0  0  0
  -29.9291  -13.7595   20.3590 N   0  0  0  0  0  0
  -26.2866  -12.9470   20.3240 N   0  0  0  0  0  0
  -25.9334  -11.6592   20.5745 N   0  0  0  0  0  0
  -22.0441  -12.8183   22.0440 N   0  0  0  0  0  0
  -25.4087  -15.1959   20.4159 N   0  0  0  0  0  0
  -31.7341  -15.0559   20.1644 O   0  0  0  0  0  0
  -21.6644   -6.8888   21.4244 O   0  0  0  0  0  0
  -22.3467  -14.5510   20.6746 O   0  0  0  0  0  0
  -24.6487  -31.8389   23.1826 C   0  0  0  0  0  0
  -25.9232  -32.4672   23.8238 C   0  0  1  0  0  0
  -27.2148  -27.0784   20.1620 C   0  0  0  0  0  0
  -25.5959  -33.8479   24.2157 N   0  0  0  0  0  0
  -23.4550  -30.4567   21.5293 C   0  0  2  0  0  0
  -24.9052  -28.8732   20.1108 C   0  0  0  0  0  0
  -22.7590  -29.4521   22.4833 C   0  0  0  0  0  0
  -18.0311  -28.1404   22.8474 C   0  0  0  0  0  0
  -24.1494  -36.7241   23.2645 C   0  0  0  0  0  0
  -26.0159  -30.6947   21.3900 C   0  0  0  0  0  0
  -26.0854  -29.3004   20.7321 C   0  0  0  0  0  0
  -27.2405  -28.4210   20.7369 C   0  0  0  0  0  0
  -26.0066  -26.7670   19.5002 C   0  0  0  0  0  0
  -24.8821  -27.6218   19.4783 C   0  0  0  0  0  0
  -23.6850  -29.7832   20.1503 C   0  0  0  0  0  0
  -25.4127  -36.3017   24.0313 C   0  0  1  0  0  0
  -20.5931  -28.3731   23.1222 C   0  0  2  0  0  0
  -20.6797  -26.9426   22.5406 C   0  0  0  0  0  0
  -19.5773  -26.6386   21.5216 C   0  0  0  0  0  0
  -18.1953  -26.7942   22.1625 C   0  0  0  0  0  0
  -19.1571  -28.8884   23.2841 C   0  0  0  0  0  0
  -18.9483  -30.1480   23.8867 C   0  0  0  0  0  0
  -17.6483  -30.6597   24.0562 C   0  0  0  0  0  0
  -25.9083  -34.9397   23.5050 C   0  0  0  0  0  0
  -16.5372  -29.9091   23.6339 C   0  0  0  0  0  0
  -16.7294  -28.6514   23.0355 C   0  0  0  0  0  0
  -26.4532  -31.6554   25.0699 C   0  0  0  0  0  0
  -25.3699  -31.3756   26.1379 C   0  0  0  0  0  0
  -27.0407  -30.2945   24.6314 C   0  0  0  0  0  0
  -27.6054  -32.4321   25.7490 C   0  0  0  0  0  0
  -27.5572  -37.1777   24.8468 C   0  0  0  0  0  0
  -21.4278  -29.3047   22.3583 N   0  0  0  0  0  0
  -26.4285  -37.3736   23.9406 N   0  0  0  0  0  0
  -24.7268  -31.0196   22.0886 N   0  0  0  0  0  0
  -23.4203  -28.8067   23.3006 O   0  0  0  0  0  0
  -28.2520  -26.0574   20.2303 O   0  0  0  0  0  0
  -26.5679  -34.8905   22.4636 O   0  0  0  0  0  0
  -23.5587  -32.1286   23.7007 O   0  0  0  0  0  0
  -31.7761  -19.5462   20.5408 C   0  0  0  0  0  0
  -31.3946  -18.1828   20.5306 C   0  0  0  0  0  0
  -30.8532  -20.6163   20.4700 C   0  0  0  0  0  0
  -30.0447  -17.7704   20.4559 C   0  0  0  0  0  0
  -29.4615  -20.4058   20.3766 C   0  0  0  0  0  0
  -29.0973  -18.9399   20.3802 C   0  0  0  0  0  0
  -27.9557  -24.5012   20.1388 C   0  0  0  0  0  0
  -28.9800  -23.1268   20.3163 C   0  0  0  0  0  0
  -29.7404  -16.2394   20.4896 N   0  0  0  0  0  0
  -28.5800  -21.5991   20.2896 O   0  0  0  0  0  0
  -27.7786  -18.6374   20.3065 F   0  0  0  0  0  0
  -31.4694  -12.8082   19.1869 H   0  0  0  0  0  0
  -30.4479  -11.7040   20.0607 H   0  0  0  0  0  0
  -29.8560  -11.7261   17.6129 H   0  0  0  0  0  0
  -29.5977  -13.4528   17.6735 H   0  0  0  0  0  0
  -27.9723  -11.2735   19.0112 H   0  0  0  0  0  0
  -27.3947  -12.4164   17.8274 H   0  0  0  0  0  0
  -27.5727  -14.2483   19.3848 H   0  0  0  0  0  0
  -28.7747  -12.3632   21.4703 H   0  0  0  0  0  0
  -28.3524  -14.0397   21.7341 H   0  0  0  0  0  0
  -25.2776   -9.5680   22.4776 H   0  0  0  0  0  0
  -24.0015   -7.4631   22.7475 H   0  0  0  0  0  0
  -21.0864   -8.8782   19.8948 H   0  0  0  0  0  0
  -22.3728  -10.9679   19.6172 H   0  0  0  0  0  0
  -21.2009   -7.6156   23.9724 H   0  0  0  0  0  0
  -21.1480   -6.0527   25.9081 H   0  0  0  0  0  0
  -22.0598   -2.7616   23.2839 H   0  0  0  0  0  0
  -22.4068  -11.9848   22.4823 H   0  0  0  0  0  0
  -21.1053  -13.1194   22.2650 H   0  0  0  0  0  0
  -24.6369  -15.8439   20.5324 H   0  0  0  0  0  0
  -26.2464  -15.6426   20.0674 H   0  0  0  0  0  0
  -26.7296  -32.5264   23.0958 H   0  0  0  0  0  0
  -25.0076  -33.9588   25.0286 H   0  0  0  0  0  0
  -22.7604  -31.2842   21.3695 H   0  0  0  0  0  0
  -23.3769  -35.9563   23.3296 H   0  0  0  0  0  0
  -24.3576  -36.8884   22.2062 H   0  0  0  0  0  0
  -23.7243  -37.6429   23.6696 H   0  0  0  0  0  0
  -26.1789  -31.4438   20.6141 H   0  0  0  0  0  0
  -26.8838  -30.7472   22.0359 H   0  0  0  0  0  0
  -28.1370  -28.7433   21.2468 H   0  0  0  0  0  0
  -25.8945  -25.8131   19.0087 H   0  0  0  0  0  0
  -23.9820  -27.2897   18.9795 H   0  0  0  0  0  0
  -23.8285  -30.5559   19.3937 H   0  0  0  0  0  0
  -22.7980  -29.2294   19.8371 H   0  0  0  0  0  0
  -25.1322  -36.1832   25.0805 H   0  0  0  0  0  0
  -21.0027  -28.3331   24.1343 H   0  0  0  0  0  0
  -20.5692  -26.2340   23.3627 H   0  0  0  0  0  0
  -21.6660  -26.7430   22.1200 H   0  0  0  0  0  0
  -19.6930  -25.6290   21.1258 H   0  0  0  0  0  0
  -19.6714  -27.3187   20.6740 H   0  0  0  0  0  0
  -17.4222  -26.6679   21.4031 H   0  0  0  0  0  0
  -18.0340  -26.0096   22.9029 H   0  0  0  0  0  0
  -19.7960  -30.7304   24.2215 H   0  0  0  0  0  0
  -17.5040  -31.6271   24.5173 H   0  0  0  0  0  0
  -15.5373  -30.2990   23.7687 H   0  0  0  0  0  0
  -15.8692  -28.0835   22.7080 H   0  0  0  0  0  0
  -24.5905  -30.7071   25.7699 H   0  0  0  0  0  0
  -24.8858  -32.2939   26.4712 H   0  0  0  0  0  0
  -25.7969  -30.8993   27.0215 H   0  0  0  0  0  0
  -26.3040  -29.6652   24.1307 H   0  0  0  0  0  0
  -27.3999  -29.7255   25.4903 H   0  0  0  0  0  0
  -27.8955  -30.4177   23.9659 H   0  0  0  0  0  0
  -27.2652  -33.3655   26.1983 H   0  0  0  0  0  0
  -28.3911  -32.6819   25.0346 H   0  0  0  0  0  0
  -28.0673  -31.8495   26.5469 H   0  0  0  0  0  0
  -28.2585  -38.0079   24.7513 H   0  0  0  0  0  0
  -28.1071  -36.2607   24.6303 H   0  0  0  0  0  0
  -27.2286  -37.1431   25.8870 H   0  0  0  0  0  0
  -20.9494  -29.8756   21.6758 H   0  0  0  0  0  0
  -26.0147  -38.2801   24.1411 H   0  0  0  0  0  0
  -32.8292  -19.7825   20.6099 H   0  0  0  0  0  0
  -32.1831  -17.4491   20.5970 H   0  0  0  0  0  0
  -31.2447  -21.6226   20.4877 H   0  0  0  0  0  0
  -27.1448  -24.3427   20.8505 H   0  0  0  0  0  0
  -27.4967  -24.3595   19.1619 H   0  0  0  0  0  0
  -29.5061  -23.2633   21.2612 H   0  0  0  0  0  0
  -29.7495  -23.2362   19.5521 H   0  0  0  0  0  0
  -28.7558  -16.0415   20.5797 H   0  0  0  0  0  0
  1 25  1  0  0  0
  1 30  2  0  0  0
  1 79  1  0  0  0
  2  3  1  0  0  0
  2 25  1  0  0  0
  2 82  1  0  0  0
  2 83  1  0  0  0
  3  4  1  0  0  0
  3 84  1  0  0  0
  3 85  1  0  0  0
  4  5  1  0  0  0
  4 86  1  0  0  0
  4 87  1  0  0  0
  5  6  1  0  0  0
  5 26  1  0  0  0
  5 88  1  0  0  0
  6 25  1  0  0  0
  6 89  1  0  0  0
  6 90  1  0  0  0
  7  8  2  0  0  0
  7 26  1  0  0  0
  7 29  1  0  0  0
  8  9  1  0  0  0
  8 22  1  0  0  0
  9 10  1  0  0  0
  9 27  2  0  0  0
 10 11  2  0  0  0
 10 15  1  0  0  0
 11 12  1  0  0  0
 11 91  1  0  0  0
 12 13  2  0  0  0
 12 92  1  0  0  0
 13 14  1  0  0  0
 13 31  1  0  0  0
 14 15  2  0  0  0
 14 93  1  0  0  0
 15 94  1  0  0  0
 16 17  2  0  0  0
 16 21  1  0  0  0
 16 31  1  0  0  0
 17 18  1  0  0  0
 17 95  1  0  0  0
 18 19  2  0  0  0
 18 96  1  0  0  0
 19 20  1  0  0  0
 19 24  1  0  0  0
 20 21  2  0  0  0
 20 97  1  0  0  0
 21 23  1  0  0  0
 22 28  1  0  0  0
 22 32  2  0  0  0
 26 27  1  0  0  0
 28 98  1  0  0  0
 28 99  1  0  0  0
 29100  1  0  0  0
 29101  1  0  0  0
 33 34  1  0  0  0
 33 66  1  0  0  0
 33 70  2  0  0  0
 34 36  1  0  0  0
 34 59  1  0  0  0
 34102  1  0  0  0
 35 44  2  0  0  0
 35 45  1  0  0  0
 35 68  1  0  0  0
 36 56  1  0  0  0
 36103  1  0  0  0
 37 39  1  0  0  0
 37 47  1  0  0  0
 37 66  1  0  0  0
 37104  1  0  0  0
 38 43  2  0  0  0
 38 46  1  0  0  0
 38 47  1  0  0  0
 39 64  1  0  0  0
 39 67  2  0  0  0
 40 52  1  0  0  0
 40 53  2  0  0  0
 40 58  1  0  0  0
 41105  1  0  0  0
 41106  1  0  0  0
 41107  1  0  0  0
 41 48  1  0  0  0
 42 43  1  0  0  0
 42 66  1  0  0  0
 42108  1  0  0  0
 42109  1  0  0  0
 43 44  1  0  0  0
 44110  1  0  0  0
 45 46  2  0  0  0
 45111  1  0  0  0
 46112  1  0  0  0
 47113  1  0  0  0
 47114  1  0  0  0
 48 56  1  0  0  0
 48 65  1  0  0  0
 48115  1  0  0  0
 49 50  1  0  0  0
 49 53  1  0  0  0
 49 64  1  0  0  0
 49116  1  0  0  0
 50 51  1  0  0  0
 50117  1  0  0  0
 50118  1  0  0  0
 51 52  1  0  0  0
 51119  1  0  0  0
 51120  1  0  0  0
 52121  1  0  0  0
 52122  1  0  0  0
 53 54  1  0  0  0
 54 55  2  0  0  0
 54123  1  0  0  0
 55 57  1  0  0  0
 55124  1  0  0  0
 56 69  2  0  0  0
 57 58  2  0  0  0
 57125  1  0  0  0
 58126  1  0  0  0
 59 60  1  0  0  0
 59 61  1  0  0  0
 59 62  1  0  0  0
 60127  1  0  0  0
 60128  1  0  0  0
 60129  1  0  0  0
 61130  1  0  0  0
 61131  1  0  0  0
 61132  1  0  0  0
 62133  1  0  0  0
 62134  1  0  0  0
 62135  1  0  0  0
 63 65  1  0  0  0
 63136  1  0  0  0
 63137  1  0  0  0
 63138  1  0  0  0
 64139  1  0  0  0
 65140  1  0  0  0
 68 77  1  0  0  0
 71 72  2  0  0  0
 71 73  1  0  0  0
 71141  1  0  0  0
 72 74  1  0  0  0
 72142  1  0  0  0
 73 75  2  0  0  0
 73143  1  0  0  0
 74 76  2  0  0  0
 74 79  1  0  0  0
 75 76  1  0  0  0
 75 80  1  0  0  0
 76 81  1  0  0  0
 77 78  1  0  0  0
 77144  1  0  0  0
 77145  1  0  0  0
 78 80  1  0  0  0
 78146  1  0  0  0
 78147  1  0  0  0
 79148  1  0  0  0
M  ISO  4   1 100  68 101  77 101  79 100
M  END
> <chiral flag>
0

> <version>
0

> <s_m_source_file>
/data/baiqing/PycharmProjects/Reinvent-master-3.2/result/LINK_invent/BTK/process_docking_weight1_custom_sum_contain_oxygen_bond_distance_aromatic_linkinvent_7_9_3/rearranged_h_0007.sdf

> <i_m_source_file_index>
55

> <r_mmod_Potential_Energy-OPLS-2005>
648.837463378906

> <r_mmod_Stretch_Energy-OPLS-2005>
332.294494628906

> <r_mmod_Bend_Energy-OPLS-2005>
280.329620361328

> <r_mmod_Torsional_Energy-OPLS-2005>
210.451889038086

> <r_mmod_Improper_Torsional_Energy-OPLS-2005>
4.68119049072266

> <r_mmod_Van_der_Waal_Energy-OPLS-2005>
132.17106628418

> <r_mmod_Electrostatic_Energy-OPLS-2005>
-355.49951171875

> <r_mmod_Solvation_Energy-OPLS-2005>
-206.063278198242

> <b_mmod_Minimization_Converged-OPLS-2005>
0

> <r_mmod_RMS_Derivative-OPLS-2005>
0.905839383602142

$$$$
55
                    3D
 Structure written by MMmdl.
154162  0  0  1  0            999 V2000
  -30.6987  -14.4181   20.6231 C   0  0  0  0  0  0
  -30.4238  -12.2904   19.4020 C   0  0  0  0  0  0
  -29.4865  -12.5241   18.1993 C   0  0  0  0  0  0
  -28.0070  -12.3871   18.6132 C   0  0  0  0  0  0
  -27.6670  -13.1993   19.8900 C   0  0  2  0  0  0
  -28.7073  -12.9205   20.9976 C   0  0  0  0  0  0
  -25.2599  -13.8150   20.5691 C   0  0  0  0  0  0
  -24.1838  -13.0442   20.9186 C   0  0  0  0  0  0
  -24.6381  -11.6905   20.8747 C   0  0  0  0  0  0
  -23.9050  -10.4293   21.0408 C   0  0  0  0  0  0
  -24.3595   -9.4206   21.9185 C   0  0  0  0  0  0
  -23.6276   -8.2239   22.0743 C   0  0  0  0  0  0
  -22.4259   -8.0281   21.3536 C   0  0  0  0  0  0
  -21.9897   -9.0261   20.4640 C   0  0  0  0  0  0
  -22.7224  -10.2140   20.3056 C   0  0  0  0  0  0
  -21.6840   -6.0736   22.5275 C   0  0  0  0  0  0
  -21.4014   -6.5641   23.8210 C   0  0  0  0  0  0
  -21.3674   -5.6796   24.9175 C   0  0  0  0  0  0
  -21.6050   -4.3059   24.7224 C   0  0  0  0  0  0
  -21.8816   -3.8150   23.4342 C   0  0  0  0  0  0
  -21.9186   -4.6970   22.3395 C   0  0  0  0  0  0
  -22.7856  -13.5239   21.1856 C   0  0  0  0  0  0
  -22.1646   -4.2151   21.0974 F   0  0  0  0  0  0
  -21.5639   -3.4543   25.7743 F   0  0  0  0  0  0
  -30.0444  -13.2374   20.4594 N   0  0  0  0  0  0
  -26.3047  -12.9304   20.3447 N   0  0  0  0  0  0
  -25.9312  -11.6467   20.5815 N   0  0  0  0  0  0
  -22.0509  -12.8225   22.0415 N   0  0  0  0  0  0
  -25.4369  -15.1863   20.4057 N   0  0  0  0  0  0
  -31.7708  -14.6867   20.0712 O   0  0  0  0  0  0
  -21.6629   -6.8873   21.4231 O   0  0  0  0  0  0
  -22.3545  -14.5549   20.6709 O   0  0  0  0  0  0
  -24.6151  -31.8683   23.2096 C   0  0  0  0  0  0
  -25.9047  -32.4823   23.8384 C   0  0  1  0  0  0
  -27.2369  -27.4463   20.0954 C   0  0  0  0  0  0
  -25.5908  -33.8619   24.2324 N   0  0  0  0  0  0
  -23.4011  -30.4891   21.5527 C   0  0  2  0  0  0
  -24.8464  -28.9469   20.1242 C   0  0  0  0  0  0
  -22.7402  -29.4666   22.5037 C   0  0  0  0  0  0
  -18.0267  -28.1378   22.8506 C   0  0  0  0  0  0
  -24.1485  -36.7314   23.2641 C   0  0  0  0  0  0
  -25.9271  -30.8357   21.3582 C   0  0  0  0  0  0
  -26.0059  -29.4674   20.7135 C   0  0  0  0  0  0
  -27.2068  -28.7249   20.6940 C   0  0  0  0  0  0
  -26.0633  -26.9268   19.5140 C   0  0  0  0  0  0
  -24.8677  -27.6726   19.5261 C   0  0  0  0  0  0
  -23.6077  -29.8137   20.1704 C   0  0  0  0  0  0
  -25.4111  -36.3116   24.0340 C   0  0  1  0  0  0
  -20.5858  -28.3655   23.1341 C   0  0  2  0  0  0
  -20.6756  -26.9385   22.5441 C   0  0  0  0  0  0
  -19.5741  -26.6381   21.5230 C   0  0  0  0  0  0
  -18.1911  -26.7937   22.1621 C   0  0  0  0  0  0
  -19.1517  -28.8835   23.2921 C   0  0  0  0  0  0
  -18.9448  -30.1453   23.8922 C   0  0  0  0  0  0
  -17.6451  -30.6586   24.0578 C   0  0  0  0  0  0
  -25.9040  -34.9480   23.5127 C   0  0  0  0  0  0
  -16.5343  -29.9089   23.6335 C   0  0  0  0  0  0
  -16.7261  -28.6507   23.0350 C   0  0  0  0  0  0
  -26.4479  -31.6604   25.0714 C   0  0  0  0  0  0
  -25.3750  -31.3728   26.1477 C   0  0  0  0  0  0
  -27.0302  -30.3048   24.6082 C   0  0  0  0  0  0
  -27.6088  -32.4308   25.7443 C   0  0  0  0  0  0
  -27.5593  -37.1801   24.8461 C   0  0  0  0  0  0
  -21.4139  -29.3023   22.3760 N   0  0  0  0  0  0
  -26.4298  -37.3798   23.9418 N   0  0  0  0  0  0
  -24.6664  -31.0782   22.0991 N   0  0  0  0  0  0
  -23.4179  -28.8220   23.3086 O   0  0  0  0  0  0
  -28.4105  -26.7367   20.0273 O   0  0  0  0  0  0
  -26.5602  -34.8935   22.4690 O   0  0  0  0  0  0
  -23.5348  -32.1443   23.7494 O   0  0  0  0  0  0
  -30.7469  -17.4576   22.3116 C   0  0  0  0  0  0
  -30.6670  -18.8639   22.2937 C   0  0  0  0  0  0
  -29.3857  -17.3746   20.2967 C   0  0  0  0  0  0
  -30.1017  -16.7043   21.3139 C   0  0  0  0  0  0
  -29.9377  -19.5490   21.2980 C   0  0  0  0  0  0
  -29.3053  -18.7846   20.2785 C   0  0  0  0  0  0
  -28.5950  -24.2782   20.2175 C   0  0  0  0  0  0
  -29.1472  -23.1647   21.1351 C   0  0  0  0  0  0
  -28.5307  -25.6437   20.9384 C   0  0  0  0  0  0
  -29.1102  -21.7335   20.5614 C   0  0  0  0  0  0
  -30.0643  -15.2917   21.4197 N   0  0  0  0  0  0
  -29.9039  -20.9260   21.4292 O   0  0  0  0  0  0
  -28.6013  -19.3721   19.2809 F   0  0  0  0  0  0
  -31.4673  -12.4000   19.1004 H   0  0  0  0  0  0
  -30.3279  -11.2672   19.7678 H   0  0  0  0  0  0
  -29.7160  -11.8197   17.3985 H   0  0  0  0  0  0
  -29.6596  -13.5192   17.7868 H   0  0  0  0  0  0
  -27.8042  -11.3288   18.7854 H   0  0  0  0  0  0
  -27.3552  -12.6917   17.7935 H   0  0  0  0  0  0
  -27.7293  -14.2564   19.6308 H   0  0  0  0  0  0
  -28.6779  -11.8681   21.2828 H   0  0  0  0  0  0
  -28.4619  -13.4623   21.9116 H   0  0  0  0  0  0
  -25.2736   -9.5681   22.4764 H   0  0  0  0  0  0
  -23.9993   -7.4620   22.7442 H   0  0  0  0  0  0
  -21.0830   -8.8782   19.8940 H   0  0  0  0  0  0
  -22.3685  -10.9682   19.6164 H   0  0  0  0  0  0
  -21.2011   -7.6147   23.9720 H   0  0  0  0  0  0
  -21.1495   -6.0521   25.9072 H   0  0  0  0  0  0
  -22.0585   -2.7612   23.2838 H   0  0  0  0  0  0
  -22.4120  -11.9861   22.4767 H   0  0  0  0  0  0
  -21.1139  -13.1261   22.2663 H   0  0  0  0  0  0
  -24.6763  -15.8499   20.5024 H   0  0  0  0  0  0
  -26.2960  -15.6159   20.0866 H   0  0  0  0  0  0
  -26.7118  -32.5531   23.1148 H   0  0  0  0  0  0
  -25.0070  -33.9780   25.0477 H   0  0  0  0  0  0
  -22.6907  -31.3056   21.4112 H   0  0  0  0  0  0
  -23.3757  -35.9637   23.3292 H   0  0  0  0  0  0
  -24.3586  -36.8946   22.2059 H   0  0  0  0  0  0
  -23.7218  -37.6508   23.6660 H   0  0  0  0  0  0
  -26.0318  -31.5952   20.5823 H   0  0  0  0  0  0
  -26.8195  -30.8967   21.9703 H   0  0  0  0  0  0
  -28.1086  -29.1283   21.1321 H   0  0  0  0  0  0
  -26.0771  -25.9531   19.0435 H   0  0  0  0  0  0
  -23.9730  -27.2632   19.0762 H   0  0  0  0  0  0
  -23.7140  -30.5839   19.4060 H   0  0  0  0  0  0
  -22.7317  -29.2310   19.8786 H   0  0  0  0  0  0
  -25.1292  -36.1977   25.0835 H   0  0  0  0  0  0
  -20.9946  -28.3204   24.1469 H   0  0  0  0  0  0
  -20.5642  -26.2259   23.3633 H   0  0  0  0  0  0
  -21.6629  -26.7420   22.1244 H   0  0  0  0  0  0
  -19.6887  -25.6293   21.1252 H   0  0  0  0  0  0
  -19.6693  -27.3206   20.6775 H   0  0  0  0  0  0
  -17.4196  -26.6731   21.3994 H   0  0  0  0  0  0
  -18.0266  -26.0054   22.8983 H   0  0  0  0  0  0
  -19.7921  -30.7272   24.2283 H   0  0  0  0  0  0
  -17.4997  -31.6265   24.5169 H   0  0  0  0  0  0
  -15.5338  -30.2993   23.7651 H   0  0  0  0  0  0
  -15.8660  -28.0838   22.7041 H   0  0  0  0  0  0
  -24.5901  -30.7097   25.7819 H   0  0  0  0  0  0
  -24.8964  -32.2891   26.4942 H   0  0  0  0  0  0
  -25.8099  -30.8878   27.0225 H   0  0  0  0  0  0
  -26.2826  -29.6779   24.1210 H   0  0  0  0  0  0
  -27.4161  -29.7322   25.4525 H   0  0  0  0  0  0
  -27.8619  -30.4375   23.9162 H   0  0  0  0  0  0
  -27.2755  -33.3606   26.2057 H   0  0  0  0  0  0
  -28.3861  -32.6864   25.0231 H   0  0  0  0  0  0
  -28.0794  -31.8402   26.5312 H   0  0  0  0  0  0
  -28.2618  -38.0093   24.7525 H   0  0  0  0  0  0
  -28.1085  -36.2633   24.6258 H   0  0  0  0  0  0
  -27.2324  -37.1422   25.8868 H   0  0  0  0  0  0
  -20.9300  -29.8744   21.6989 H   0  0  0  0  0  0
  -26.0192  -38.2879   24.1437 H   0  0  0  0  0  0
  -31.2854  -16.9625   23.1081 H   0  0  0  0  0  0
  -31.1544  -19.4288   23.0747 H   0  0  0  0  0  0
  -28.8683  -16.8155   19.5310 H   0  0  0  0  0  0
  -27.6055  -24.0107   19.8461 H   0  0  0  0  0  0
  -29.2409  -24.3621   19.3422 H   0  0  0  0  0  0
  -28.6010  -23.1703   22.0789 H   0  0  0  0  0  0
  -30.1803  -23.4107   21.3841 H   0  0  0  0  0  0
  -29.4595  -25.8036   21.4868 H   0  0  0  0  0  0
  -27.7357  -25.6399   21.6880 H   0  0  0  0  0  0
  -29.5192  -21.7081   19.5501 H   0  0  0  0  0  0
  -28.0770  -21.3818   20.5285 H   0  0  0  0  0  0
  -29.2555  -14.9091   21.8864 H   0  0  0  0  0  0
  1 25  1  0  0  0
  1 30  2  0  0  0
  1 81  1  0  0  0
  2  3  1  0  0  0
  2 25  1  0  0  0
  2 84  1  0  0  0
  2 85  1  0  0  0
  3  4  1  0  0  0
  3 86  1  0  0  0
  3 87  1  0  0  0
  4  5  1  0  0  0
  4 88  1  0  0  0
  4 89  1  0  0  0
  5  6  1  0  0  0
  5 26  1  0  0  0
  5 90  1  0  0  0
  6 25  1  0  0  0
  6 91  1  0  0  0
  6 92  1  0  0  0
  7  8  2  0  0  0
  7 26  1  0  0  0
  7 29  1  0  0  0
  8  9  1  0  0  0
  8 22  1  0  0  0
  9 10  1  0  0  0
  9 27  2  0  0  0
 10 11  2  0  0  0
 10 15  1  0  0  0
 11 12  1  0  0  0
 11 93  1  0  0  0
 12 13  2  0  0  0
 12 94  1  0  0  0
 13 14  1  0  0  0
 13 31  1  0  0  0
 14 15  2  0  0  0
 14 95  1  0  0  0
 15 96  1  0  0  0
 16 17  2  0  0  0
 16 21  1  0  0  0
 16 31  1  0  0  0
 17 18  1  0  0  0
 17 97  1  0  0  0
 18 19  2  0  0  0
 18 98  1  0  0  0
 19 20  1  0  0  0
 19 24  1  0  0  0
 20 21  2  0  0  0
 20 99  1  0  0  0
 21 23  1  0  0  0
 22 28  1  0  0  0
 22 32  2  0  0  0
 26 27  1  0  0  0
 28100  1  0  0  0
 28101  1  0  0  0
 29102  1  0  0  0
 29103  1  0  0  0
 33 34  1  0  0  0
 33 66  1  0  0  0
 33 70  2  0  0  0
 34 36  1  0  0  0
 34 59  1  0  0  0
 34104  1  0  0  0
 35 44  2  0  0  0
 35 45  1  0  0  0
 35 68  1  0  0  0
 36 56  1  0  0  0
 36105  1  0  0  0
 37 39  1  0  0  0
 37 47  1  0  0  0
 37 66  1  0  0  0
 37106  1  0  0  0
 38 43  2  0  0  0
 38 46  1  0  0  0
 38 47  1  0  0  0
 39 64  1  0  0  0
 39 67  2  0  0  0
 40 52  1  0  0  0
 40 53  2  0  0  0
 40 58  1  0  0  0
 41107  1  0  0  0
 41108  1  0  0  0
 41109  1  0  0  0
 41 48  1  0  0  0
 42 43  1  0  0  0
 42 66  1  0  0  0
 42110  1  0  0  0
 42111  1  0  0  0
 43 44  1  0  0  0
 44112  1  0  0  0
 45 46  2  0  0  0
 45113  1  0  0  0
 46114  1  0  0  0
 47115  1  0  0  0
 47116  1  0  0  0
 48 56  1  0  0  0
 48 65  1  0  0  0
 48117  1  0  0  0
 49 50  1  0  0  0
 49 53  1  0  0  0
 49 64  1  0  0  0
 49118  1  0  0  0
 50 51  1  0  0  0
 50119  1  0  0  0
 50120  1  0  0  0
 51 52  1  0  0  0
 51121  1  0  0  0
 51122  1  0  0  0
 52123  1  0  0  0
 52124  1  0  0  0
 53 54  1  0  0  0
 54 55  2  0  0  0
 54125  1  0  0  0
 55 57  1  0  0  0
 55126  1  0  0  0
 56 69  2  0  0  0
 57 58  2  0  0  0
 57127  1  0  0  0
 58128  1  0  0  0
 59 60  1  0  0  0
 59 61  1  0  0  0
 59 62  1  0  0  0
 60129  1  0  0  0
 60130  1  0  0  0
 60131  1  0  0  0
 61132  1  0  0  0
 61133  1  0  0  0
 61134  1  0  0  0
 62135  1  0  0  0
 62136  1  0  0  0
 62137  1  0  0  0
 63 65  1  0  0  0
 63138  1  0  0  0
 63139  1  0  0  0
 63140  1  0  0  0
 64141  1  0  0  0
 65142  1  0  0  0
 68 79  1  0  0  0
 71 72  2  0  0  0
 71 74  1  0  0  0
 71143  1  0  0  0
 72 75  1  0  0  0
 72144  1  0  0  0
 73 74  2  0  0  0
 73 76  1  0  0  0
 73145  1  0  0  0
 74 81  1  0  0  0
 75 76  2  0  0  0
 75 82  1  0  0  0
 76 83  1  0  0  0
 77 78  1  0  0  0
 77 79  1  0  0  0
 77146  1  0  0  0
 77147  1  0  0  0
 78 80  1  0  0  0
 78148  1  0  0  0
 78149  1  0  0  0
 79150  1  0  0  0
 79151  1  0  0  0
 80 82  1  0  0  0
 80152  1  0  0  0
 80153  1  0  0  0
 81154  1  0  0  0
M  ISO  4   1 100  68 101  79 101  81 100
M  END
> <chiral flag>
0

> <version>
0

> <s_m_source_file>
/data/baiqing/PycharmProjects/Reinvent-master-3.2/result/LINK_invent/BTK/process_docking_weight1_custom_sum_contain_oxygen_bond_distance_aromatic_linkinvent_7_9_3/rearranged_h_0007.sdf

> <i_m_source_file_index>
56

> <r_mmod_Potential_Energy-OPLS-2005>
-7.72032642364502

> <r_mmod_Stretch_Energy-OPLS-2005>
33.7883720397949

> <r_mmod_Bend_Energy-OPLS-2005>
102.545356750488

> <r_mmod_Torsional_Energy-OPLS-2005>
260.977874755859

> <r_mmod_Improper_Torsional_Energy-OPLS-2005>
3.96556282043457

> <r_mmod_Van_der_Waal_Energy-OPLS-2005>
148.763961791992

> <r_mmod_Electrostatic_Energy-OPLS-2005>
-358.7958984375

> <r_mmod_Solvation_Energy-OPLS-2005>
-207.164703369141

> <b_mmod_Minimization_Converged-OPLS-2005>
0

> <r_mmod_RMS_Derivative-OPLS-2005>
1.57983112335205

$$$$
56
                    3D
 Structure written by MMmdl.
154162  0  0  1  0            999 V2000
  -30.6094  -14.7063   20.3582 C   0  0  0  0  0  0
  -30.4390  -12.3871   19.4741 C   0  0  0  0  0  0
  -29.5129  -12.3595   18.2392 C   0  0  0  0  0  0
  -28.0254  -12.2915   18.6532 C   0  0  0  0  0  0
  -27.6413  -13.2119   19.8466 C   0  0  2  0  0  0
  -28.6972  -13.1704   20.9702 C   0  0  0  0  0  0
  -25.2544  -13.8175   20.5714 C   0  0  0  0  0  0
  -24.1807  -13.0447   20.9232 C   0  0  0  0  0  0
  -24.6371  -11.6914   20.8814 C   0  0  0  0  0  0
  -23.9038  -10.4303   21.0461 C   0  0  0  0  0  0
  -24.3591   -9.4220   21.9244 C   0  0  0  0  0  0
  -23.6274   -8.2247   22.0782 C   0  0  0  0  0  0
  -22.4265   -8.0295   21.3557 C   0  0  0  0  0  0
  -21.9893   -9.0269   20.4664 C   0  0  0  0  0  0
  -22.7213  -10.2159   20.3103 C   0  0  0  0  0  0
  -21.6849   -6.0744   22.5281 C   0  0  0  0  0  0
  -21.4022   -6.5655   23.8218 C   0  0  0  0  0  0
  -21.3663   -5.6816   24.9185 C   0  0  0  0  0  0
  -21.6034   -4.3072   24.7235 C   0  0  0  0  0  0
  -21.8805   -3.8160   23.4358 C   0  0  0  0  0  0
  -21.9178   -4.6970   22.3414 C   0  0  0  0  0  0
  -22.7839  -13.5271   21.1875 C   0  0  0  0  0  0
  -22.1646   -4.2153   21.0987 F   0  0  0  0  0  0
  -21.5611   -3.4555   25.7747 F   0  0  0  0  0  0
  -29.9892  -13.4825   20.3528 N   0  0  0  0  0  0
  -26.2952  -12.9329   20.3353 N   0  0  0  0  0  0
  -25.9304  -11.6494   20.5865 N   0  0  0  0  0  0
  -22.0436  -12.8293   22.0420 N   0  0  0  0  0  0
  -25.4257  -15.1884   20.4045 N   0  0  0  0  0  0
  -31.8368  -14.7804   20.2368 O   0  0  0  0  0  0
  -21.6639   -6.8885   21.4243 O   0  0  0  0  0  0
  -22.3559  -14.5587   20.6723 O   0  0  0  0  0  0
  -24.6301  -31.8575   23.2049 C   0  0  0  0  0  0
  -25.9144  -32.4758   23.8389 C   0  0  1  0  0  0
  -27.2185  -27.2964   20.1397 C   0  0  0  0  0  0
  -25.5967  -33.8563   24.2332 N   0  0  0  0  0  0
  -23.4234  -30.4855   21.5462 C   0  0  2  0  0  0
  -24.8659  -28.9337   20.1154 C   0  0  0  0  0  0
  -22.7481  -29.4625   22.4915 C   0  0  0  0  0  0
  -18.0281  -28.1390   22.8474 C   0  0  0  0  0  0
  -24.1476  -36.7271   23.2644 C   0  0  0  0  0  0
  -25.9639  -30.7882   21.3715 C   0  0  0  0  0  0
  -26.0349  -29.4130   20.7165 C   0  0  0  0  0  0
  -27.2116  -28.6072   20.7135 C   0  0  0  0  0  0
  -26.0186  -26.8633   19.5310 C   0  0  0  0  0  0
  -24.8592  -27.6642   19.5172 C   0  0  0  0  0  0
  -23.6419  -29.8270   20.1580 C   0  0  0  0  0  0
  -25.4094  -36.3066   24.0354 C   0  0  1  0  0  0
  -20.5881  -28.3709   23.1261 C   0  0  2  0  0  0
  -20.6764  -26.9420   22.5408 C   0  0  0  0  0  0
  -19.5750  -26.6386   21.5197 C   0  0  0  0  0  0
  -18.1929  -26.7933   22.1608 C   0  0  0  0  0  0
  -19.1528  -28.8857   23.2868 C   0  0  0  0  0  0
  -18.9452  -30.1449   23.8908 C   0  0  0  0  0  0
  -17.6448  -30.6579   24.0573 C   0  0  0  0  0  0
  -25.9044  -34.9433   23.5131 C   0  0  0  0  0  0
  -16.5344  -29.9091   23.6318 C   0  0  0  0  0  0
  -16.7262  -28.6508   23.0335 C   0  0  0  0  0  0
  -26.4525  -31.6567   25.0766 C   0  0  0  0  0  0
  -25.3795  -31.3681   26.1529 C   0  0  0  0  0  0
  -27.0386  -30.3006   24.6213 C   0  0  0  0  0  0
  -27.6084  -32.4313   25.7529 C   0  0  0  0  0  0
  -27.5560  -37.1807   24.8481 C   0  0  0  0  0  0
  -21.4183  -29.3074   22.3658 N   0  0  0  0  0  0
  -26.4268  -37.3774   23.9426 N   0  0  0  0  0  0
  -24.6922  -31.0607   22.0982 N   0  0  0  0  0  0
  -23.4188  -28.8137   23.2985 O   0  0  0  0  0  0
  -28.3596  -26.4787   20.2172 O   0  0  0  0  0  0
  -26.5565  -34.8905   22.4676 O   0  0  0  0  0  0
  -23.5463  -32.1355   23.7385 O   0  0  0  0  0  0
  -30.5270  -18.1896   20.0148 C   0  0  0  0  0  0
  -28.5391  -17.4975   21.1753 C   0  0  0  0  0  0
  -30.1843  -19.5632   20.2231 C   0  0  0  0  0  0
  -28.2123  -18.8695   21.4002 C   0  0  0  0  0  0
  -29.7015  -17.1152   20.4614 C   0  0  0  0  0  0
  -29.0013  -19.9459   20.9094 C   0  0  0  0  0  0
  -29.7208  -15.8229   18.4297 C   0  0  0  0  0  0
  -28.4031  -23.8474   20.7857 C   0  0  0  0  0  0
  -28.8017  -22.3883   20.2483 C   0  0  0  0  0  0
  -28.4154  -25.0662   19.7511 C   0  0  0  0  0  0
  -29.8359  -15.7658   19.9007 N   0  0  0  0  0  0
  -28.5976  -21.2736   21.1815 O   0  0  0  0  0  0
  -31.4785  -12.5026   19.1598 H   0  0  0  0  0  0
  -30.3869  -11.4367   20.0077 H   0  0  0  0  0  0
  -29.7480  -11.4775   17.6418 H   0  0  0  0  0  0
  -29.7160  -13.1994   17.5802 H   0  0  0  0  0  0
  -27.8352  -11.2556   18.9359 H   0  0  0  0  0  0
  -27.3801  -12.4872   17.7964 H   0  0  0  0  0  0
  -27.6151  -14.2271   19.4624 H   0  0  0  0  0  0
  -28.7249  -12.1942   21.4562 H   0  0  0  0  0  0
  -28.4615  -13.9018   21.7458 H   0  0  0  0  0  0
  -25.2707   -9.5715   22.4864 H   0  0  0  0  0  0
  -23.9963   -7.4647   22.7526 H   0  0  0  0  0  0
  -21.0810   -8.8813   19.8987 H   0  0  0  0  0  0
  -22.3657  -10.9729   19.6252 H   0  0  0  0  0  0
  -21.2041   -7.6169   23.9726 H   0  0  0  0  0  0
  -21.1491   -6.0553   25.9088 H   0  0  0  0  0  0
  -22.0571   -2.7618   23.2863 H   0  0  0  0  0  0
  -22.3957  -11.9904   22.4791 H   0  0  0  0  0  0
  -21.1112  -13.1453   22.2679 H   0  0  0  0  0  0
  -24.6534  -15.8416   20.4815 H   0  0  0  0  0  0
  -26.2693  -15.6147   20.0428 H   0  0  0  0  0  0
  -26.7225  -32.5428   23.1146 H   0  0  0  0  0  0
  -25.0250  -33.9697   25.0565 H   0  0  0  0  0  0
  -22.7219  -31.3095   21.4060 H   0  0  0  0  0  0
  -23.3733  -35.9610   23.3321 H   0  0  0  0  0  0
  -24.3569  -36.8861   22.2055 H   0  0  0  0  0  0
  -23.7233  -37.6492   23.6631 H   0  0  0  0  0  0
  -26.0958  -31.5488   20.6010 H   0  0  0  0  0  0
  -26.8438  -30.8380   22.0011 H   0  0  0  0  0  0
  -28.1115  -28.9745   21.1861 H   0  0  0  0  0  0
  -25.9256  -25.8879   19.0853 H   0  0  0  0  0  0
  -23.9563  -27.2794   19.0638 H   0  0  0  0  0  0
  -23.7912  -30.6132   19.4168 H   0  0  0  0  0  0
  -22.7545  -29.2829   19.8300 H   0  0  0  0  0  0
  -25.1264  -36.1935   25.0848 H   0  0  0  0  0  0
  -20.9969  -28.3300   24.1381 H   0  0  0  0  0  0
  -20.5626  -26.2328   23.3623 H   0  0  0  0  0  0
  -21.6642  -26.7435   22.1227 H   0  0  0  0  0  0
  -19.6912  -25.6292   21.1242 H   0  0  0  0  0  0
  -19.6684  -27.3181   20.6715 H   0  0  0  0  0  0
  -17.4194  -26.6652   21.4020 H   0  0  0  0  0  0
  -18.0345  -26.0085   22.9014 H   0  0  0  0  0  0
  -19.7923  -30.7243   24.2312 H   0  0  0  0  0  0
  -17.5005  -31.6253   24.5185 H   0  0  0  0  0  0
  -15.5349  -30.2993   23.7634 H   0  0  0  0  0  0
  -15.8661  -28.0829   22.7050 H   0  0  0  0  0  0
  -24.5956  -30.7025   25.7896 H   0  0  0  0  0  0
  -24.9020  -32.2840   26.5029 H   0  0  0  0  0  0
  -25.8181  -30.8853   27.0276 H   0  0  0  0  0  0
  -26.2960  -29.6739   24.1277 H   0  0  0  0  0  0
  -27.4122  -29.7288   25.4714 H   0  0  0  0  0  0
  -27.8816  -30.4298   23.9427 H   0  0  0  0  0  0
  -27.2695  -33.3603   26.2126 H   0  0  0  0  0  0
  -28.3883  -32.6902   25.0354 H   0  0  0  0  0  0
  -28.0784  -31.8450   26.5438 H   0  0  0  0  0  0
  -28.2608  -38.0072   24.7473 H   0  0  0  0  0  0
  -28.1019  -36.2606   24.6356 H   0  0  0  0  0  0
  -27.2285  -37.1531   25.8888 H   0  0  0  0  0  0
  -20.9354  -29.8881   21.6939 H   0  0  0  0  0  0
  -26.0147  -38.2845   24.1443 H   0  0  0  0  0  0
  -31.4073  -17.9620   19.4295 H   0  0  0  0  0  0
  -27.8366  -16.7389   21.4920 H   0  0  0  0  0  0
  -30.8481  -20.3233   19.8388 H   0  0  0  0  0  0
  -27.2929  -19.0942   21.9224 H   0  0  0  0  0  0
  -30.6717  -15.6244   17.9304 H   0  0  0  0  0  0
  -29.3770  -16.7958   18.0744 H   0  0  0  0  0  0
  -28.9821  -15.1213   18.0573 H   0  0  0  0  0  0
  -29.0812  -24.0940   21.6043 H   0  0  0  0  0  0
  -27.4120  -23.7888   21.2376 H   0  0  0  0  0  0
  -29.8385  -22.4039   19.9138 H   0  0  0  0  0  0
  -28.1943  -22.1649   19.3705 H   0  0  0  0  0  0
  -27.6990  -24.8619   18.9597 H   0  0  0  0  0  0
  -29.3736  -25.0009   19.2357 H   0  0  0  0  0  0
  1 25  1  0  0  0
  1 30  2  0  0  0
  1 81  1  0  0  0
  2  3  1  0  0  0
  2 25  1  0  0  0
  2 83  1  0  0  0
  2 84  1  0  0  0
  3  4  1  0  0  0
  3 85  1  0  0  0
  3 86  1  0  0  0
  4  5  1  0  0  0
  4 87  1  0  0  0
  4 88  1  0  0  0
  5  6  1  0  0  0
  5 26  1  0  0  0
  5 89  1  0  0  0
  6 25  1  0  0  0
  6 90  1  0  0  0
  6 91  1  0  0  0
  7  8  2  0  0  0
  7 26  1  0  0  0
  7 29  1  0  0  0
  8  9  1  0  0  0
  8 22  1  0  0  0
  9 10  1  0  0  0
  9 27  2  0  0  0
 10 11  2  0  0  0
 10 15  1  0  0  0
 11 12  1  0  0  0
 11 92  1  0  0  0
 12 13  2  0  0  0
 12 93  1  0  0  0
 13 14  1  0  0  0
 13 31  1  0  0  0
 14 15  2  0  0  0
 14 94  1  0  0  0
 15 95  1  0  0  0
 16 17  2  0  0  0
 16 21  1  0  0  0
 16 31  1  0  0  0
 17 18  1  0  0  0
 17 96  1  0  0  0
 18 19  2  0  0  0
 18 97  1  0  0  0
 19 20  1  0  0  0
 19 24  1  0  0  0
 20 21  2  0  0  0
 20 98  1  0  0  0
 21 23  1  0  0  0
 22 28  1  0  0  0
 22 32  2  0  0  0
 26 27  1  0  0  0
 28 99  1  0  0  0
 28100  1  0  0  0
 29101  1  0  0  0
 29102  1  0  0  0
 33 34  1  0  0  0
 33 66  1  0  0  0
 33 70  2  0  0  0
 34 36  1  0  0  0
 34 59  1  0  0  0
 34103  1  0  0  0
 35 44  2  0  0  0
 35 45  1  0  0  0
 35 68  1  0  0  0
 36 56  1  0  0  0
 36104  1  0  0  0
 37 39  1  0  0  0
 37 47  1  0  0  0
 37 66  1  0  0  0
 37105  1  0  0  0
 38 43  2  0  0  0
 38 46  1  0  0  0
 38 47  1  0  0  0
 39 64  1  0  0  0
 39 67  2  0  0  0
 40 52  1  0  0  0
 40 53  2  0  0  0
 40 58  1  0  0  0
 41106  1  0  0  0
 41107  1  0  0  0
 41108  1  0  0  0
 41 48  1  0  0  0
 42 43  1  0  0  0
 42 66  1  0  0  0
 42109  1  0  0  0
 42110  1  0  0  0
 43 44  1  0  0  0
 44111  1  0  0  0
 45 46  2  0  0  0
 45112  1  0  0  0
 46113  1  0  0  0
 47114  1  0  0  0
 47115  1  0  0  0
 48 56  1  0  0  0
 48 65  1  0  0  0
 48116  1  0  0  0
 49 50  1  0  0  0
 49 53  1  0  0  0
 49 64  1  0  0  0
 49117  1  0  0  0
 50 51  1  0  0  0
 50118  1  0  0  0
 50119  1  0  0  0
 51 52  1  0  0  0
 51120  1  0  0  0
 51121  1  0  0  0
 52122  1  0  0  0
 52123  1  0  0  0
 53 54  1  0  0  0
 54 55  2  0  0  0
 54124  1  0  0  0
 55 57  1  0  0  0
 55125  1  0  0  0
 56 69  2  0  0  0
 57 58  2  0  0  0
 57126  1  0  0  0
 58127  1  0  0  0
 59 60  1  0  0  0
 59 61  1  0  0  0
 59 62  1  0  0  0
 60128  1  0  0  0
 60129  1  0  0  0
 60130  1  0  0  0
 61131  1  0  0  0
 61132  1  0  0  0
 61133  1  0  0  0
 62134  1  0  0  0
 62135  1  0  0  0
 62136  1  0  0  0
 63 65  1  0  0  0
 63137  1  0  0  0
 63138  1  0  0  0
 63139  1  0  0  0
 64140  1  0  0  0
 65141  1  0  0  0
 68 80  1  0  0  0
 71 73  2  0  0  0
 71 75  1  0  0  0
 71142  1  0  0  0
 72 74  1  0  0  0
 72 75  2  0  0  0
 72143  1  0  0  0
 73 76  1  0  0  0
 73144  1  0  0  0
 74 76  2  0  0  0
 74145  1  0  0  0
 75 81  1  0  0  0
 76 82  1  0  0  0
 77 81  1  0  0  0
 77146  1  0  0  0
 77147  1  0  0  0
 77148  1  0  0  0
 78 79  1  0  0  0
 78 80  1  0  0  0
 78149  1  0  0  0
 78150  1  0  0  0
 79 82  1  0  0  0
 79151  1  0  0  0
 79152  1  0  0  0
 80153  1  0  0  0
 80154  1  0  0  0
M  ISO  4   1 100  68 101  80 101  81 100
M  END
> <chiral flag>
0

> <version>
0

> <s_m_source_file>
/data/baiqing/PycharmProjects/Reinvent-master-3.2/result/LINK_invent/BTK/process_docking_weight1_custom_sum_contain_oxygen_bond_distance_aromatic_linkinvent_7_9_3/rearranged_h_0007.sdf

> <i_m_source_file_index>
57

> <r_mmod_Potential_Energy-OPLS-2005>
326.434143066406

> <r_mmod_Stretch_Energy-OPLS-2005>
87.9355850219727

> <r_mmod_Bend_Energy-OPLS-2005>
167.475799560547

> <r_mmod_Torsional_Energy-OPLS-2005>
334.097442626953

> <r_mmod_Improper_Torsional_Energy-OPLS-2005>
26.7105770111084

> <r_mmod_Van_der_Waal_Energy-OPLS-2005>
141.255142211914

> <r_mmod_Electrostatic_Energy-OPLS-2005>
-312.797546386719

> <r_mmod_Solvation_Energy-OPLS-2005>
-196.871047973633

> <b_mmod_Minimization_Converged-OPLS-2005>
0

> <r_mmod_RMS_Derivative-OPLS-2005>
2.83015894889832

$$$$
57
                    3D
 Structure written by MMmdl.
167176  0  0  1  0            999 V2000
  -30.7453  -14.3950   20.6156 C   0  0  0  0  0  0
  -30.4119  -12.2803   19.4042 C   0  0  0  0  0  0
  -29.4844  -12.5125   18.1962 C   0  0  0  0  0  0
  -28.0076  -12.3752   18.6127 C   0  0  0  0  0  0
  -27.6641  -13.2044   19.8790 C   0  0  2  0  0  0
  -28.7036  -12.9612   20.9962 C   0  0  0  0  0  0
  -25.2600  -13.8159   20.5675 C   0  0  0  0  0  0
  -24.1844  -13.0440   20.9174 C   0  0  0  0  0  0
  -24.6394  -11.6907   20.8730 C   0  0  0  0  0  0
  -23.9063  -10.4293   21.0401 C   0  0  0  0  0  0
  -24.3611   -9.4208   21.9178 C   0  0  0  0  0  0
  -23.6292   -8.2241   22.0749 C   0  0  0  0  0  0
  -22.4273   -8.0284   21.3545 C   0  0  0  0  0  0
  -21.9907   -9.0257   20.4646 C   0  0  0  0  0  0
  -22.7235  -10.2135   20.3047 C   0  0  0  0  0  0
  -21.6853   -6.0732   22.5279 C   0  0  0  0  0  0
  -21.4009   -6.5632   23.8209 C   0  0  0  0  0  0
  -21.3657   -5.6789   24.9176 C   0  0  0  0  0  0
  -21.6045   -4.3053   24.7228 C   0  0  0  0  0  0
  -21.8824   -3.8144   23.4347 C   0  0  0  0  0  0
  -21.9195   -4.6958   22.3403 C   0  0  0  0  0  0
  -22.7869  -13.5239   21.1850 C   0  0  0  0  0  0
  -22.1668   -4.2137   21.0983 F   0  0  0  0  0  0
  -21.5629   -3.4533   25.7739 F   0  0  0  0  0  0
  -30.0412  -13.2472   20.4480 N   0  0  0  0  0  0
  -26.3036  -12.9328   20.3383 N   0  0  0  0  0  0
  -25.9325  -11.6490   20.5777 N   0  0  0  0  0  0
  -22.0511  -12.8219   22.0400 N   0  0  0  0  0  0
  -25.4350  -15.1873   20.4080 N   0  0  0  0  0  0
  -31.8361  -14.5940   20.0720 O   0  0  0  0  0  0
  -21.6643   -6.8876   21.4239 O   0  0  0  0  0  0
  -22.3559  -14.5556   20.6720 O   0  0  0  0  0  0
  -24.6085  -31.8715   23.2127 C   0  0  0  0  0  0
  -25.8998  -32.4841   23.8416 C   0  0  1  0  0  0
  -27.2494  -27.4813   20.1031 C   0  0  0  0  0  0
  -25.5878  -33.8642   24.2348 N   0  0  0  0  0  0
  -23.3940  -30.4934   21.5516 C   0  0  2  0  0  0
  -24.8435  -28.9634   20.1171 C   0  0  0  0  0  0
  -22.7377  -29.4672   22.5016 C   0  0  0  0  0  0
  -18.0260  -28.1372   22.8487 C   0  0  0  0  0  0
  -24.1477  -36.7321   23.2634 C   0  0  0  0  0  0
  -25.9147  -30.8574   21.3534 C   0  0  0  0  0  0
  -25.9967  -29.4924   20.7079 C   0  0  0  0  0  0
  -27.2016  -28.7647   20.6972 C   0  0  0  0  0  0
  -26.0823  -26.9637   19.5053 C   0  0  0  0  0  0
  -24.8784  -27.6952   19.5110 C   0  0  0  0  0  0
  -23.5999  -29.8204   20.1669 C   0  0  0  0  0  0
  -25.4092  -36.3129   24.0345 C   0  0  1  0  0  0
  -20.5846  -28.3644   23.1342 C   0  0  2  0  0  0
  -20.6743  -26.9388   22.5430 C   0  0  0  0  0  0
  -19.5740  -26.6383   21.5212 C   0  0  0  0  0  0
  -18.1910  -26.7927   22.1600 C   0  0  0  0  0  0
  -19.1506  -28.8824   23.2910 C   0  0  0  0  0  0
  -18.9439  -30.1430   23.8916 C   0  0  0  0  0  0
  -17.6446  -30.6581   24.0560 C   0  0  0  0  0  0
  -25.9025  -34.9494   23.5147 C   0  0  0  0  0  0
  -16.5334  -29.9083   23.6321 C   0  0  0  0  0  0
  -16.7251  -28.6500   23.0342 C   0  0  0  0  0  0
  -26.4456  -31.6600   25.0717 C   0  0  0  0  0  0
  -25.3746  -31.3694   26.1493 C   0  0  0  0  0  0
  -27.0265  -30.3047   24.6041 C   0  0  0  0  0  0
  -27.6062  -32.4300   25.7460 C   0  0  0  0  0  0
  -27.5604  -37.1776   24.8435 C   0  0  0  0  0  0
  -21.4112  -29.3015   22.3756 N   0  0  0  0  0  0
  -26.4267  -37.3828   23.9454 N   0  0  0  0  0  0
  -24.6572  -31.0873   22.0990 N   0  0  0  0  0  0
  -23.4180  -28.8224   23.3041 O   0  0  0  0  0  0
  -28.3723  -26.6870   20.0583 O   0  0  0  0  0  0
  -26.5588  -34.8945   22.4708 O   0  0  0  0  0  0
  -23.5290  -32.1436   23.7557 O   0  0  0  0  0  0
  -30.0626  -19.0633   21.0778 C   0  0  0  0  0  0
  -29.6352  -17.7232   21.1185 C   0  0  0  0  0  0
  -31.8852  -17.0443   21.7469 C   0  0  0  0  0  0
  -31.4089  -19.4083   21.3455 C   0  0  0  0  0  0
  -32.3285  -18.3853   21.7175 C   0  0  0  0  0  0
  -30.5584  -16.7016   21.4093 C   0  0  0  0  0  0
  -30.8692  -24.8735   20.3109 C   0  0  0  0  0  0
  -31.1348  -21.8032   22.2061 C   0  0  0  0  0  0
  -31.6556  -21.4141   19.7744 C   0  0  0  0  0  0
  -31.6609  -23.2420   22.0525 C   0  0  0  0  0  0
  -32.1733  -22.8626   19.6797 C   0  0  0  0  0  0
  -31.8354  -20.8713   21.2045 C   0  0  0  0  0  0
  -30.1406  -25.6842   21.3944 C   0  0  0  0  0  0
  -29.4671  -26.9847   20.9242 C   0  0  0  0  0  0
  -33.7904  -18.6815   22.0647 C   0  0  0  0  0  0
  -31.4903  -23.7191   20.6655 N   0  0  0  0  0  0
  -30.1407  -15.3460   21.3475 N   0  0  0  0  0  0
  -30.8650  -25.2829   19.1451 O   0  0  0  0  0  0
  -34.4430  -17.5876   22.4619 F   0  0  0  0  0  0
  -34.4286  -19.1628   20.9972 F   0  0  0  0  0  0
  -33.8661  -19.5668   23.0596 F   0  0  0  0  0  0
  -31.4566  -12.3649   19.0995 H   0  0  0  0  0  0
  -30.2982  -11.2632   19.7835 H   0  0  0  0  0  0
  -29.7160  -11.8039   17.3999 H   0  0  0  0  0  0
  -29.6592  -13.5066   17.7811 H   0  0  0  0  0  0
  -27.8129  -11.3180   18.7984 H   0  0  0  0  0  0
  -27.3545  -12.6620   17.7875 H   0  0  0  0  0  0
  -27.7183  -14.2563   19.5977 H   0  0  0  0  0  0
  -28.6647  -11.9224   21.3278 H   0  0  0  0  0  0
  -28.4668  -13.5537   21.8807 H   0  0  0  0  0  0
  -25.2754   -9.5684   22.4748 H   0  0  0  0  0  0
  -23.9999   -7.4627   22.7464 H   0  0  0  0  0  0
  -21.0834   -8.8783   19.8951 H   0  0  0  0  0  0
  -22.3699  -10.9672   19.6153 H   0  0  0  0  0  0
  -21.1993   -7.6137   23.9707 H   0  0  0  0  0  0
  -21.1477   -6.0520   25.9079 H   0  0  0  0  0  0
  -22.0600   -2.7607   23.2854 H   0  0  0  0  0  0
  -22.4120  -11.9857   22.4745 H   0  0  0  0  0  0
  -21.1139  -13.1257   22.2636 H   0  0  0  0  0  0
  -24.6721  -15.8478   20.5092 H   0  0  0  0  0  0
  -26.2929  -15.6191   20.0898 H   0  0  0  0  0  0
  -26.7076  -32.5587   23.1203 H   0  0  0  0  0  0
  -25.0030  -33.9808   25.0495 H   0  0  0  0  0  0
  -22.6804  -31.3083   21.4124 H   0  0  0  0  0  0
  -23.3775  -35.9612   23.3222 H   0  0  0  0  0  0
  -24.3604  -36.9008   22.2067 H   0  0  0  0  0  0
  -23.7171  -37.6484   23.6684 H   0  0  0  0  0  0
  -26.0131  -31.6216   20.5813 H   0  0  0  0  0  0
  -26.8069  -30.9193   21.9644 H   0  0  0  0  0  0
  -28.0792  -29.2124   21.1388 H   0  0  0  0  0  0
  -26.1067  -25.9875   19.0412 H   0  0  0  0  0  0
  -23.9926  -27.2793   19.0509 H   0  0  0  0  0  0
  -23.6999  -30.5907   19.4013 H   0  0  0  0  0  0
  -22.7277  -29.2305   19.8788 H   0  0  0  0  0  0
  -25.1244  -36.1987   25.0830 H   0  0  0  0  0  0
  -20.9938  -28.3195   24.1465 H   0  0  0  0  0  0
  -20.5637  -26.2250   23.3605 H   0  0  0  0  0  0
  -21.6620  -26.7437   22.1236 H   0  0  0  0  0  0
  -19.6903  -25.6298   21.1233 H   0  0  0  0  0  0
  -19.6702  -27.3202   20.6748 H   0  0  0  0  0  0
  -17.4197  -26.6694   21.3979 H   0  0  0  0  0  0
  -18.0289  -26.0055   22.8980 H   0  0  0  0  0  0
  -19.7921  -30.7230   24.2300 H   0  0  0  0  0  0
  -17.5008  -31.6265   24.5154 H   0  0  0  0  0  0
  -15.5334  -30.2991   23.7646 H   0  0  0  0  0  0
  -15.8648  -28.0835   22.7039 H   0  0  0  0  0  0
  -24.5914  -30.7042   25.7843 H   0  0  0  0  0  0
  -24.8941  -32.2843   26.4961 H   0  0  0  0  0  0
  -25.8117  -30.8861   27.0239 H   0  0  0  0  0  0
  -26.2776  -29.6823   24.1129 H   0  0  0  0  0  0
  -27.4093  -29.7261   25.4458 H   0  0  0  0  0  0
  -27.8588  -30.4377   23.9126 H   0  0  0  0  0  0
  -27.2709  -33.3595   26.2075 H   0  0  0  0  0  0
  -28.3843  -32.6863   25.0256 H   0  0  0  0  0  0
  -28.0767  -31.8399   26.5338 H   0  0  0  0  0  0
  -28.2520  -38.0174   24.7657 H   0  0  0  0  0  0
  -28.1197  -36.2725   24.6015 H   0  0  0  0  0  0
  -27.2371  -37.1137   25.8839 H   0  0  0  0  0  0
  -20.9265  -29.8740   21.6987 H   0  0  0  0  0  0
  -26.0154  -38.2883   24.1571 H   0  0  0  0  0  0
  -29.3492  -19.8304   20.8116 H   0  0  0  0  0  0
  -28.6077  -17.4850   20.8786 H   0  0  0  0  0  0
  -32.5835  -16.2612   22.0012 H   0  0  0  0  0  0
  -30.0543  -21.7883   22.0574 H   0  0  0  0  0  0
  -31.3132  -21.4541   23.2239 H   0  0  0  0  0  0
  -32.1949  -20.7842   19.0655 H   0  0  0  0  0  0
  -30.6053  -21.3819   19.4804 H   0  0  0  0  0  0
  -32.7236  -23.2762   22.2982 H   0  0  0  0  0  0
  -31.1735  -23.8615   22.8023 H   0  0  0  0  0  0
  -32.0479  -23.2119   18.6537 H   0  0  0  0  0  0
  -33.2466  -22.8928   19.8733 H   0  0  0  0  0  0
  -32.8986  -20.9535   21.4119 H   0  0  0  0  0  0
  -30.8712  -25.9532   22.1577 H   0  0  0  0  0  0
  -29.3953  -25.0473   21.8727 H   0  0  0  0  0  0
  -30.1744  -27.6431   20.4180 H   0  0  0  0  0  0
  -29.1422  -27.4936   21.8314 H   0  0  0  0  0  0
  -29.2056  -15.1299   21.6582 H   0  0  0  0  0  0
  1 25  1  0  0  0
  1 30  2  0  0  0
  1 87  1  0  0  0
  2  3  1  0  0  0
  2 25  1  0  0  0
  2 92  1  0  0  0
  2 93  1  0  0  0
  3  4  1  0  0  0
  3 94  1  0  0  0
  3 95  1  0  0  0
  4  5  1  0  0  0
  4 96  1  0  0  0
  4 97  1  0  0  0
  5  6  1  0  0  0
  5 26  1  0  0  0
  5 98  1  0  0  0
  6 25  1  0  0  0
  6 99  1  0  0  0
  6100  1  0  0  0
  7  8  2  0  0  0
  7 26  1  0  0  0
  7 29  1  0  0  0
  8  9  1  0  0  0
  8 22  1  0  0  0
  9 10  1  0  0  0
  9 27  2  0  0  0
 10 11  2  0  0  0
 10 15  1  0  0  0
 11 12  1  0  0  0
 11101  1  0  0  0
 12 13  2  0  0  0
 12102  1  0  0  0
 13 14  1  0  0  0
 13 31  1  0  0  0
 14 15  2  0  0  0
 14103  1  0  0  0
 15104  1  0  0  0
 16 17  2  0  0  0
 16 21  1  0  0  0
 16 31  1  0  0  0
 17 18  1  0  0  0
 17105  1  0  0  0
 18 19  2  0  0  0
 18106  1  0  0  0
 19 20  1  0  0  0
 19 24  1  0  0  0
 20 21  2  0  0  0
 20107  1  0  0  0
 21 23  1  0  0  0
 22 28  1  0  0  0
 22 32  2  0  0  0
 26 27  1  0  0  0
 28108  1  0  0  0
 28109  1  0  0  0
 29110  1  0  0  0
 29111  1  0  0  0
 33 34  1  0  0  0
 33 66  1  0  0  0
 33 70  2  0  0  0
 34 36  1  0  0  0
 34 59  1  0  0  0
 34112  1  0  0  0
 35 44  2  0  0  0
 35 45  1  0  0  0
 35 68  1  0  0  0
 36 56  1  0  0  0
 36113  1  0  0  0
 37 39  1  0  0  0
 37 47  1  0  0  0
 37 66  1  0  0  0
 37114  1  0  0  0
 38 43  2  0  0  0
 38 46  1  0  0  0
 38 47  1  0  0  0
 39 64  1  0  0  0
 39 67  2  0  0  0
 40 52  1  0  0  0
 40 53  2  0  0  0
 40 58  1  0  0  0
 41115  1  0  0  0
 41116  1  0  0  0
 41117  1  0  0  0
 41 48  1  0  0  0
 42 43  1  0  0  0
 42 66  1  0  0  0
 42118  1  0  0  0
 42119  1  0  0  0
 43 44  1  0  0  0
 44120  1  0  0  0
 45 46  2  0  0  0
 45121  1  0  0  0
 46122  1  0  0  0
 47123  1  0  0  0
 47124  1  0  0  0
 48 56  1  0  0  0
 48 65  1  0  0  0
 48125  1  0  0  0
 49 50  1  0  0  0
 49 53  1  0  0  0
 49 64  1  0  0  0
 49126  1  0  0  0
 50 51  1  0  0  0
 50127  1  0  0  0
 50128  1  0  0  0
 51 52  1  0  0  0
 51129  1  0  0  0
 51130  1  0  0  0
 52131  1  0  0  0
 52132  1  0  0  0
 53 54  1  0  0  0
 54 55  2  0  0  0
 54133  1  0  0  0
 55 57  1  0  0  0
 55134  1  0  0  0
 56 69  2  0  0  0
 57 58  2  0  0  0
 57135  1  0  0  0
 58136  1  0  0  0
 59 60  1  0  0  0
 59 61  1  0  0  0
 59 62  1  0  0  0
 60137  1  0  0  0
 60138  1  0  0  0
 60139  1  0  0  0
 61140  1  0  0  0
 61141  1  0  0  0
 61142  1  0  0  0
 62143  1  0  0  0
 62144  1  0  0  0
 62145  1  0  0  0
 63 65  1  0  0  0
 63146  1  0  0  0
 63147  1  0  0  0
 63148  1  0  0  0
 64149  1  0  0  0
 65150  1  0  0  0
 68 84  1  0  0  0
 71 72  2  0  0  0
 71 74  1  0  0  0
 71151  1  0  0  0
 72 76  1  0  0  0
 72152  1  0  0  0
 73 75  1  0  0  0
 73 76  2  0  0  0
 73153  1  0  0  0
 74 75  2  0  0  0
 74 82  1  0  0  0
 75 85  1  0  0  0
 76 87  1  0  0  0
 77 83  1  0  0  0
 77 86  1  0  0  0
 77 88  2  0  0  0
 78 80  1  0  0  0
 78 82  1  0  0  0
 78154  1  0  0  0
 78155  1  0  0  0
 79 81  1  0  0  0
 79 82  1  0  0  0
 79156  1  0  0  0
 79157  1  0  0  0
 80 86  1  0  0  0
 80158  1  0  0  0
 80159  1  0  0  0
 81 86  1  0  0  0
 81160  1  0  0  0
 81161  1  0  0  0
 82162  1  0  0  0
 83 84  1  0  0  0
 83163  1  0  0  0
 83164  1  0  0  0
 84165  1  0  0  0
 84166  1  0  0  0
 85 89  1  0  0  0
 85 90  1  0  0  0
 85 91  1  0  0  0
 87167  1  0  0  0
M  ISO  4   1 100  68 101  84 101  87 100
M  END
> <chiral flag>
0

> <version>
0

> <s_m_source_file>
/data/baiqing/PycharmProjects/Reinvent-master-3.2/result/LINK_invent/BTK/process_docking_weight1_custom_sum_contain_oxygen_bond_distance_aromatic_linkinvent_7_9_3/rearranged_h_0007.sdf

> <i_m_source_file_index>
58

> <r_mmod_Potential_Energy-OPLS-2005>
31.2731018066406

> <r_mmod_Stretch_Energy-OPLS-2005>
37.0261573791504

> <r_mmod_Bend_Energy-OPLS-2005>
104.373840332031

> <r_mmod_Torsional_Energy-OPLS-2005>
266.407318115234

> <r_mmod_Improper_Torsional_Energy-OPLS-2005>
3.11793255805969

> <r_mmod_Van_der_Waal_Energy-OPLS-2005>
184.055511474609

> <r_mmod_Electrostatic_Energy-OPLS-2005>
-338.256103515625

> <r_mmod_Solvation_Energy-OPLS-2005>
-232.919418334961

> <b_mmod_Minimization_Converged-OPLS-2005>
0

> <r_mmod_RMS_Derivative-OPLS-2005>
1.24406385421753

$$$$
58
                    3D
 Structure written by MMmdl.
183190  0  0  1  0            999 V2000
  -30.7854  -14.3578   20.7436 C   0  0  0  0  0  0
  -30.4322  -12.3037   19.4147 C   0  0  0  0  0  0
  -29.5011  -12.5215   18.2091 C   0  0  0  0  0  0
  -28.0266  -12.3700   18.6270 C   0  0  0  0  0  0
  -27.6741  -13.2043   19.8860 C   0  0  2  0  0  0
  -28.7043  -12.9596   21.0103 C   0  0  0  0  0  0
  -25.2655  -13.8153   20.5654 C   0  0  0  0  0  0
  -24.1888  -13.0444   20.9145 C   0  0  0  0  0  0
  -24.6437  -11.6916   20.8733 C   0  0  0  0  0  0
  -23.9068  -10.4310   21.0414 C   0  0  0  0  0  0
  -24.3603   -9.4202   21.9188 C   0  0  0  0  0  0
  -23.6279   -8.2244   22.0755 C   0  0  0  0  0  0
  -22.4258   -8.0287   21.3549 C   0  0  0  0  0  0
  -21.9897   -9.0267   20.4652 C   0  0  0  0  0  0
  -22.7233  -10.2156   20.3065 C   0  0  0  0  0  0
  -21.6851   -6.0742   22.5288 C   0  0  0  0  0  0
  -21.4040   -6.5660   23.8221 C   0  0  0  0  0  0
  -21.3643   -5.6807   24.9184 C   0  0  0  0  0  0
  -21.6028   -4.3067   24.7237 C   0  0  0  0  0  0
  -21.8807   -3.8153   23.4364 C   0  0  0  0  0  0
  -21.9203   -4.6973   22.3413 C   0  0  0  0  0  0
  -22.7898  -13.5256   21.1793 C   0  0  0  0  0  0
  -22.1651   -4.2147   21.0991 F   0  0  0  0  0  0
  -21.5596   -3.4544   25.7750 F   0  0  0  0  0  0
  -30.0547  -13.2411   20.4848 N   0  0  0  0  0  0
  -26.3105  -12.9325   20.3409 N   0  0  0  0  0  0
  -25.9369  -11.6479   20.5759 N   0  0  0  0  0  0
  -22.0531  -12.8310   22.0384 N   0  0  0  0  0  0
  -25.4388  -15.1855   20.4078 N   0  0  0  0  0  0
  -31.7683  -14.6925   20.0733 O   0  0  0  0  0  0
  -21.6627   -6.8882   21.4251 O   0  0  0  0  0  0
  -22.3605  -14.5553   20.6617 O   0  0  0  0  0  0
  -24.6156  -31.8675   23.2196 C   0  0  0  0  0  0
  -25.9022  -32.4838   23.8458 C   0  0  1  0  0  0
  -27.2251  -27.4631   20.0778 C   0  0  0  0  0  0
  -25.5879  -33.8633   24.2363 N   0  0  0  0  0  0
  -23.3964  -30.4988   21.5621 C   0  0  2  0  0  0
  -24.8328  -28.9710   20.1148 C   0  0  0  0  0  0
  -22.7373  -29.4753   22.5080 C   0  0  0  0  0  0
  -18.0274  -28.1331   22.8552 C   0  0  0  0  0  0
  -24.1485  -36.7327   23.2646 C   0  0  0  0  0  0
  -25.9229  -30.8464   21.3556 C   0  0  0  0  0  0
  -25.9968  -29.4861   20.6997 C   0  0  0  0  0  0
  -27.1933  -28.7383   20.6766 C   0  0  0  0  0  0
  -26.0426  -26.9625   19.4800 C   0  0  0  0  0  0
  -24.8511  -27.7073   19.5053 C   0  0  0  0  0  0
  -23.5902  -29.8293   20.1760 C   0  0  0  0  0  0
  -25.4094  -36.3125   24.0371 C   0  0  1  0  0  0
  -20.5905  -28.3664   23.1312 C   0  0  2  0  0  0
  -20.6883  -26.9514   22.5157 C   0  0  0  0  0  0
  -19.5689  -26.6467   21.5154 C   0  0  0  0  0  0
  -18.1977  -26.7847   22.1822 C   0  0  0  0  0  0
  -19.1520  -28.8799   23.2989 C   0  0  0  0  0  0
  -18.9409  -30.1371   23.9035 C   0  0  0  0  0  0
  -17.6367  -30.6470   24.0677 C   0  0  0  0  0  0
  -25.9022  -34.9501   23.5155 C   0  0  0  0  0  0
  -16.5300  -29.8980   23.6340 C   0  0  0  0  0  0
  -16.7259  -28.6418   23.0349 C   0  0  0  0  0  0
  -26.4458  -31.6641   25.0789 C   0  0  0  0  0  0
  -25.3706  -31.3684   26.1514 C   0  0  0  0  0  0
  -27.0256  -30.3112   24.6105 C   0  0  0  0  0  0
  -27.6118  -32.4293   25.7489 C   0  0  0  0  0  0
  -27.5600  -37.1811   24.8475 C   0  0  0  0  0  0
  -21.4093  -29.3103   22.3782 N   0  0  0  0  0  0
  -26.4304  -37.3799   23.9423 N   0  0  0  0  0  0
  -24.6654  -31.0809   22.1070 N   0  0  0  0  0  0
  -23.4156  -28.8253   23.3117 O   0  0  0  0  0  0
  -28.4135  -26.7635   20.0831 O   0  0  0  0  0  0
  -26.5591  -34.8935   22.4735 O   0  0  0  0  0  0
  -23.5322  -32.1386   23.7592 O   0  0  0  0  0  0
  -23.6275  -23.4120   22.1545 C   0  0  0  0  0  0
  -22.8741  -23.2006   23.4763 C   0  0  0  0  0  0
  -21.5032  -22.4704   23.3992 C   0  0  0  0  0  0
  -21.4620  -20.9864   22.9587 C   0  0  0  0  0  0
  -22.5159  -20.0826   23.6256 C   0  0  0  0  0  0
  -23.7369  -19.8600   22.7198 C   0  0  0  0  0  0
  -25.0659  -19.7733   23.4797 C   0  0  0  0  0  0
  -26.2358  -19.4201   22.5513 C   0  0  0  0  0  0
  -27.5939  -19.7793   23.1685 C   0  0  0  0  0  0
  -28.7935  -19.3571   22.3082 C   0  0  0  0  0  0
  -29.1809  -17.8800   22.5073 C   0  0  0  0  0  0
  -30.5552  -17.5215   21.9088 C   0  0  0  0  0  0
  -27.3459  -23.4220   21.5259 C   0  0  0  0  0  0
  -27.9003  -24.8570   21.5433 C   0  0  0  0  0  0
  -25.8755  -23.3348   21.0682 C   0  0  0  0  0  0
  -31.1150  -16.1815   22.4236 C   0  0  0  0  0  0
  -28.3448  -25.3403   20.1467 C   0  0  0  0  0  0
  -24.9640  -23.3091   22.2073 N   0  0  0  0  0  0
  -30.4302  -15.0216   21.8521 N   0  0  0  0  0  0
  -23.0186  -23.6518   21.1108 O   0  0  0  0  0  0
  -31.4795  -12.4146   19.1191 H   0  0  0  0  0  0
  -30.3398  -11.2799   19.7858 H   0  0  0  0  0  0
  -29.7446  -11.8068   17.4227 H   0  0  0  0  0  0
  -29.6718  -13.5153   17.7940 H   0  0  0  0  0  0
  -27.8436  -11.3137   18.8246 H   0  0  0  0  0  0
  -27.3782  -12.6460   17.7973 H   0  0  0  0  0  0
  -27.7316  -14.2553   19.6013 H   0  0  0  0  0  0
  -28.6641  -11.9207   21.3440 H   0  0  0  0  0  0
  -28.4379  -13.5541   21.8852 H   0  0  0  0  0  0
  -25.2739   -9.5687   22.4779 H   0  0  0  0  0  0
  -23.9962   -7.4651   22.7508 H   0  0  0  0  0  0
  -21.0790   -8.8801   19.8997 H   0  0  0  0  0  0
  -22.3654  -10.9699   19.6176 H   0  0  0  0  0  0
  -21.2050   -7.6167   23.9729 H   0  0  0  0  0  0
  -21.1455   -6.0540   25.9084 H   0  0  0  0  0  0
  -22.0599   -2.7616   23.2873 H   0  0  0  0  0  0
  -22.4080  -11.9965   22.4813 H   0  0  0  0  0  0
  -21.1169  -13.1406   22.2566 H   0  0  0  0  0  0
  -24.6796  -15.8428   20.5413 H   0  0  0  0  0  0
  -26.3037  -15.6296   20.1266 H   0  0  0  0  0  0
  -26.7083  -32.5542   23.1208 H   0  0  0  0  0  0
  -25.0044  -33.9791   25.0519 H   0  0  0  0  0  0
  -22.6886  -31.3205   21.4258 H   0  0  0  0  0  0
  -23.3770  -35.9647   23.3305 H   0  0  0  0  0  0
  -24.3582  -36.8909   22.2061 H   0  0  0  0  0  0
  -23.7198  -37.6539   23.6610 H   0  0  0  0  0  0
  -26.0182  -31.6212   20.5919 H   0  0  0  0  0  0
  -26.8239  -30.9047   21.9575 H   0  0  0  0  0  0
  -28.0958  -29.1397   21.1200 H   0  0  0  0  0  0
  -26.0234  -26.0141   18.9663 H   0  0  0  0  0  0
  -23.9565  -27.3094   19.0447 H   0  0  0  0  0  0
  -23.6643  -30.6058   19.4135 H   0  0  0  0  0  0
  -22.7122  -29.2399   19.9027 H   0  0  0  0  0  0
  -25.1247  -36.2027   25.0867 H   0  0  0  0  0  0
  -21.0118  -28.3106   24.1362 H   0  0  0  0  0  0
  -20.6225  -26.2248   23.3263 H   0  0  0  0  0  0
  -21.6652  -26.7835   22.0570 H   0  0  0  0  0  0
  -19.6830  -25.6348   21.1190 H   0  0  0  0  0  0
  -19.6347  -27.3313   20.6680 H   0  0  0  0  0  0
  -17.4043  -26.6334   21.4495 H   0  0  0  0  0  0
  -18.0783  -26.0062   22.9353 H   0  0  0  0  0  0
  -19.7867  -30.7119   24.2519 H   0  0  0  0  0  0
  -17.4841  -31.6122   24.5367 H   0  0  0  0  0  0
  -15.5276  -30.2805   23.7653 H   0  0  0  0  0  0
  -15.8641  -28.0727   22.7079 H   0  0  0  0  0  0
  -24.5920  -30.6983   25.7804 H   0  0  0  0  0  0
  -24.8824  -32.2807   26.4980 H   0  0  0  0  0  0
  -25.8052  -30.8812   27.0262 H   0  0  0  0  0  0
  -26.2772  -29.6910   24.1133 H   0  0  0  0  0  0
  -27.4052  -29.7286   25.4520 H   0  0  0  0  0  0
  -27.8613  -30.4510   23.9231 H   0  0  0  0  0  0
  -27.2889  -33.3610   26.2136 H   0  0  0  0  0  0
  -28.3900  -32.6799   25.0268 H   0  0  0  0  0  0
  -28.0854  -31.8342   26.5305 H   0  0  0  0  0  0
  -28.2625  -38.0096   24.7539 H   0  0  0  0  0  0
  -28.1069  -36.2648   24.6260 H   0  0  0  0  0  0
  -27.2335  -37.1434   25.8875 H   0  0  0  0  0  0
  -20.9176  -29.8778   21.7009 H   0  0  0  0  0  0
  -26.0213  -38.2907   24.1354 H   0  0  0  0  0  0
  -22.7034  -24.1871   23.9067 H   0  0  0  0  0  0
  -23.5288  -22.6807   24.1758 H   0  0  0  0  0  0
  -20.8227  -23.0485   22.7682 H   0  0  0  0  0  0
  -21.0729  -22.5104   24.4004 H   0  0  0  0  0  0
  -21.5024  -20.9011   21.8698 H   0  0  0  0  0  0
  -20.4740  -20.6012   23.2217 H   0  0  0  0  0  0
  -22.0723  -19.1097   23.8437 H   0  0  0  0  0  0
  -22.7980  -20.4890   24.5981 H   0  0  0  0  0  0
  -23.8179  -20.6671   21.9936 H   0  0  0  0  0  0
  -23.5807  -18.9570   22.1292 H   0  0  0  0  0  0
  -25.0047  -19.0406   24.2861 H   0  0  0  0  0  0
  -25.2530  -20.7340   23.9597 H   0  0  0  0  0  0
  -26.1228  -19.9556   21.6082 H   0  0  0  0  0  0
  -26.1937  -18.3570   22.3085 H   0  0  0  0  0  0
  -27.6852  -19.3483   24.1663 H   0  0  0  0  0  0
  -27.6254  -20.8566   23.3172 H   0  0  0  0  0  0
  -29.6341  -19.9961   22.5819 H   0  0  0  0  0  0
  -28.5939  -19.5622   21.2574 H   0  0  0  0  0  0
  -28.4072  -17.2313   22.0935 H   0  0  0  0  0  0
  -29.2087  -17.6727   23.5784 H   0  0  0  0  0  0
  -31.2759  -18.2981   22.1757 H   0  0  0  0  0  0
  -30.5065  -17.5216   20.8188 H   0  0  0  0  0  0
  -27.4535  -22.9754   22.5148 H   0  0  0  0  0  0
  -27.9690  -22.8161   20.8685 H   0  0  0  0  0  0
  -28.7697  -24.9074   22.2014 H   0  0  0  0  0  0
  -27.1582  -25.5274   21.9835 H   0  0  0  0  0  0
  -25.7304  -22.4107   20.5050 H   0  0  0  0  0  0
  -25.6327  -24.1544   20.3880 H   0  0  0  0  0  0
  -31.0278  -16.1373   23.5100 H   0  0  0  0  0  0
  -32.1844  -16.1248   22.2206 H   0  0  0  0  0  0
  -29.3447  -24.9513   19.9491 H   0  0  0  0  0  0
  -27.7290  -24.9168   19.3566 H   0  0  0  0  0  0
  -25.3820  -23.1152   23.1061 H   0  0  0  0  0  0
  -29.6593  -14.6415   22.3835 H   0  0  0  0  0  0
  1 25  1  0  0  0
  1 30  2  0  0  0
  1 89  1  0  0  0
  2  3  1  0  0  0
  2 25  1  0  0  0
  2 91  1  0  0  0
  2 92  1  0  0  0
  3  4  1  0  0  0
  3 93  1  0  0  0
  3 94  1  0  0  0
  4  5  1  0  0  0
  4 95  1  0  0  0
  4 96  1  0  0  0
  5  6  1  0  0  0
  5 26  1  0  0  0
  5 97  1  0  0  0
  6 25  1  0  0  0
  6 98  1  0  0  0
  6 99  1  0  0  0
  7  8  2  0  0  0
  7 26  1  0  0  0
  7 29  1  0  0  0
  8  9  1  0  0  0
  8 22  1  0  0  0
  9 10  1  0  0  0
  9 27  2  0  0  0
 10 11  2  0  0  0
 10 15  1  0  0  0
 11 12  1  0  0  0
 11100  1  0  0  0
 12 13  2  0  0  0
 12101  1  0  0  0
 13 14  1  0  0  0
 13 31  1  0  0  0
 14 15  2  0  0  0
 14102  1  0  0  0
 15103  1  0  0  0
 16 17  2  0  0  0
 16 21  1  0  0  0
 16 31  1  0  0  0
 17 18  1  0  0  0
 17104  1  0  0  0
 18 19  2  0  0  0
 18105  1  0  0  0
 19 20  1  0  0  0
 19 24  1  0  0  0
 20 21  2  0  0  0
 20106  1  0  0  0
 21 23  1  0  0  0
 22 28  1  0  0  0
 22 32  2  0  0  0
 26 27  1  0  0  0
 28107  1  0  0  0
 28108  1  0  0  0
 29109  1  0  0  0
 29110  1  0  0  0
 33 34  1  0  0  0
 33 66  1  0  0  0
 33 70  2  0  0  0
 34 36  1  0  0  0
 34 59  1  0  0  0
 34111  1  0  0  0
 35 44  2  0  0  0
 35 45  1  0  0  0
 35 68  1  0  0  0
 36 56  1  0  0  0
 36112  1  0  0  0
 37 39  1  0  0  0
 37 47  1  0  0  0
 37 66  1  0  0  0
 37113  1  0  0  0
 38 43  2  0  0  0
 38 46  1  0  0  0
 38 47  1  0  0  0
 39 64  1  0  0  0
 39 67  2  0  0  0
 40 52  1  0  0  0
 40 53  2  0  0  0
 40 58  1  0  0  0
 41114  1  0  0  0
 41115  1  0  0  0
 41116  1  0  0  0
 41 48  1  0  0  0
 42 43  1  0  0  0
 42 66  1  0  0  0
 42117  1  0  0  0
 42118  1  0  0  0
 43 44  1  0  0  0
 44119  1  0  0  0
 45 46  2  0  0  0
 45120  1  0  0  0
 46121  1  0  0  0
 47122  1  0  0  0
 47123  1  0  0  0
 48 56  1  0  0  0
 48 65  1  0  0  0
 48124  1  0  0  0
 49 50  1  0  0  0
 49 53  1  0  0  0
 49 64  1  0  0  0
 49125  1  0  0  0
 50 51  1  0  0  0
 50126  1  0  0  0
 50127  1  0  0  0
 51 52  1  0  0  0
 51128  1  0  0  0
 51129  1  0  0  0
 52130  1  0  0  0
 52131  1  0  0  0
 53 54  1  0  0  0
 54 55  2  0  0  0
 54132  1  0  0  0
 55 57  1  0  0  0
 55133  1  0  0  0
 56 69  2  0  0  0
 57 58  2  0  0  0
 57134  1  0  0  0
 58135  1  0  0  0
 59 60  1  0  0  0
 59 61  1  0  0  0
 59 62  1  0  0  0
 60136  1  0  0  0
 60137  1  0  0  0
 60138  1  0  0  0
 61139  1  0  0  0
 61140  1  0  0  0
 61141  1  0  0  0
 62142  1  0  0  0
 62143  1  0  0  0
 62144  1  0  0  0
 63 65  1  0  0  0
 63145  1  0  0  0
 63146  1  0  0  0
 63147  1  0  0  0
 64148  1  0  0  0
 65149  1  0  0  0
 68 87  1  0  0  0
 71 72  1  0  0  0
 71 88  1  0  0  0
 71 90  2  0  0  0
 72 73  1  0  0  0
 72150  1  0  0  0
 72151  1  0  0  0
 73 74  1  0  0  0
 73152  1  0  0  0
 73153  1  0  0  0
 74 75  1  0  0  0
 74154  1  0  0  0
 74155  1  0  0  0
 75 76  1  0  0  0
 75156  1  0  0  0
 75157  1  0  0  0
 76 77  1  0  0  0
 76158  1  0  0  0
 76159  1  0  0  0
 77 78  1  0  0  0
 77160  1  0  0  0
 77161  1  0  0  0
 78 79  1  0  0  0
 78162  1  0  0  0
 78163  1  0  0  0
 79 80  1  0  0  0
 79164  1  0  0  0
 79165  1  0  0  0
 80 81  1  0  0  0
 80166  1  0  0  0
 80167  1  0  0  0
 81 82  1  0  0  0
 81168  1  0  0  0
 81169  1  0  0  0
 82 86  1  0  0  0
 82170  1  0  0  0
 82171  1  0  0  0
 83 84  1  0  0  0
 83 85  1  0  0  0
 83172  1  0  0  0
 83173  1  0  0  0
 84 87  1  0  0  0
 84174  1  0  0  0
 84175  1  0  0  0
 85 88  1  0  0  0
 85176  1  0  0  0
 85177  1  0  0  0
 86 89  1  0  0  0
 86178  1  0  0  0
 86179  1  0  0  0
 87180  1  0  0  0
 87181  1  0  0  0
 88182  1  0  0  0
 89183  1  0  0  0
M  ISO  4   1 100  68 101  87 101  89 100
M  END
> <chiral flag>
0

> <version>
0

> <s_m_source_file>
/data/baiqing/PycharmProjects/Reinvent-master-3.2/result/LINK_invent/BTK/process_docking_weight1_custom_sum_contain_oxygen_bond_distance_aromatic_linkinvent_7_9_3/rearranged_h_0007.sdf

> <i_m_source_file_index>
59

> <r_mmod_Potential_Energy-OPLS-2005>
-129.008224487305

> <r_mmod_Stretch_Energy-OPLS-2005>
33.0949554443359

> <r_mmod_Bend_Energy-OPLS-2005>
104.193214416504

> <r_mmod_Torsional_Energy-OPLS-2005>
242.952499389648

> <r_mmod_Improper_Torsional_Energy-OPLS-2005>
2.44257974624634

> <r_mmod_Van_der_Waal_Energy-OPLS-2005>
112.325950622559

> <r_mmod_Electrostatic_Energy-OPLS-2005>
-418.308349609375

> <r_mmod_Solvation_Energy-OPLS-2005>
-214.859313964844

> <b_mmod_Minimization_Converged-OPLS-2005>
0

> <r_mmod_RMS_Derivative-OPLS-2005>
6.79624795913696

$$$$
59
                    3D
 Structure written by MMmdl.
205212  0  0  1  0            999 V2000
  -30.3764  -14.9291   20.6929 C   0  0  0  0  0  0
  -30.4400  -12.6250   19.5570 C   0  0  0  0  0  0
  -29.5365  -12.5863   18.2951 C   0  0  0  0  0  0
  -28.0624  -12.3393   18.6747 C   0  0  0  0  0  0
  -27.6224  -13.2297   19.8652 C   0  0  2  0  0  0
  -28.6207  -13.1447   21.0341 C   0  0  0  0  0  0
  -25.2375  -13.8156   20.5722 C   0  0  0  0  0  0
  -24.1716  -13.0357   20.9184 C   0  0  0  0  0  0
  -24.6325  -11.6853   20.8706 C   0  0  0  0  0  0
  -23.9032  -10.4244   21.0382 C   0  0  0  0  0  0
  -24.3600   -9.4177   21.9168 C   0  0  0  0  0  0
  -23.6275   -8.2217   22.0749 C   0  0  0  0  0  0
  -22.4250   -8.0257   21.3545 C   0  0  0  0  0  0
  -21.9880   -9.0224   20.4644 C   0  0  0  0  0  0
  -22.7208  -10.2096   20.3036 C   0  0  0  0  0  0
  -21.6849   -6.0721   22.5288 C   0  0  0  0  0  0
  -21.4019   -6.5628   23.8221 C   0  0  0  0  0  0
  -21.3656   -5.6784   24.9182 C   0  0  0  0  0  0
  -21.6038   -4.3042   24.7237 C   0  0  0  0  0  0
  -21.8822   -3.8135   23.4357 C   0  0  0  0  0  0
  -21.9193   -4.6951   22.3413 C   0  0  0  0  0  0
  -22.7727  -13.5047   21.1756 C   0  0  0  0  0  0
  -22.1661   -4.2137   21.0990 F   0  0  0  0  0  0
  -21.5624   -3.4531   25.7748 F   0  0  0  0  0  0
  -29.8967  -13.6335   20.5220 N   0  0  0  0  0  0
  -26.2743  -12.9350   20.3161 N   0  0  0  0  0  0
  -25.9213  -11.6488   20.5621 N   0  0  0  0  0  0
  -22.0491  -12.8219   22.0541 N   0  0  0  0  0  0
  -25.4094  -15.1906   20.4374 N   0  0  0  0  0  0
  -31.5278  -15.1467   20.2789 O   0  0  0  0  0  0
  -21.6620   -6.8856   21.4245 O   0  0  0  0  0  0
  -22.3281  -14.5118   20.6293 O   0  0  0  0  0  0
  -24.8487  -31.8026   23.3101 C   0  0  0  0  0  0
  -26.1675  -32.4310   23.8417 C   0  0  1  0  0  0
  -27.3010  -27.6158   19.9775 C   0  0  0  0  0  0
  -25.8818  -33.8511   24.2281 N   0  0  0  0  0  0
  -23.4203  -30.2082   21.5408 C   0  0  2  0  0  0
  -24.8698  -28.7341   20.2305 C   0  0  0  0  0  0
  -22.6598  -29.0995   22.2196 C   0  0  0  0  0  0
  -17.9484  -28.1178   22.7905 C   0  0  0  0  0  0
  -24.1718  -36.6792   23.2546 C   0  0  0  0  0  0
  -25.9457  -30.5172   21.7276 C   0  0  0  0  0  0
  -25.9535  -29.2085   21.0042 C   0  0  0  0  0  0
  -27.1582  -28.5282   20.9974 C   0  0  0  0  0  0
  -26.2041  -26.9252   19.4278 C   0  0  0  0  0  0
  -24.9484  -27.5303   19.5242 C   0  0  0  0  0  0
  -23.6197  -29.5100   20.1962 C   0  0  0  0  0  0
  -25.4479  -36.2743   24.0138 C   0  0  1  0  0  0
  -20.4842  -28.2626   23.0553 C   0  0  2  0  0  0
  -20.5375  -26.8088   22.5615 C   0  0  0  0  0  0
  -19.4863  -26.5604   21.4935 C   0  0  0  0  0  0
  -18.0945  -26.7765   22.0911 C   0  0  0  0  0  0
  -19.0765  -28.8291   23.2550 C   0  0  0  0  0  0
  -18.8656  -30.0452   23.9497 C   0  0  0  0  0  0
  -17.5859  -30.6002   24.0896 C   0  0  0  0  0  0
  -26.0068  -34.9390   23.4668 C   0  0  0  0  0  0
  -16.4754  -29.8938   23.6090 C   0  0  0  0  0  0
  -16.6565  -28.6444   22.9892 C   0  0  0  0  0  0
  -26.6367  -31.6775   25.1437 C   0  0  0  0  0  0
  -25.5443  -31.4174   26.2088 C   0  0  0  0  0  0
  -27.2989  -30.3318   24.8104 C   0  0  0  0  0  0
  -27.7374  -32.5037   25.8286 C   0  0  0  0  0  0
  -27.5651  -37.1971   24.8496 C   0  0  0  0  0  0
  -21.3200  -29.0999   22.2127 N   0  0  0  0  0  0
  -26.4285  -37.3789   23.9499 N   0  0  0  0  0  0
  -24.6750  -30.8438   22.2871 N   0  0  0  0  0  0
  -23.2778  -28.1644   22.6349 O   0  0  0  0  0  0
  -28.0530  -28.2845   19.0865 O   0  0  0  0  0  0
  -26.5790  -34.9076   22.3788 O   0  0  0  0  0  0
  -23.9902  -32.4096   23.9105 O   0  0  0  0  0  0
  -27.1630  -22.6321   23.0280 C   0  0  0  0  0  0
  -26.7847  -30.9263   18.8072 C   0  0  0  0  0  0
  -24.4973  -17.2888   24.7308 C   0  0  0  0  0  0
  -25.9527  -23.5816   23.7099 C   0  0  0  0  0  0
  -27.2887  -29.4106   18.2782 C   0  0  0  0  0  0
  -25.9229  -25.2860   23.9119 C   0  0  0  0  0  0
  -24.6563  -26.2557   24.5423 C   0  0  0  0  0  0
  -24.6065  -27.9548   24.8010 C   0  0  0  0  0  0
  -23.1965  -28.9246   25.1084 C   0  0  0  0  0  0
  -22.4827  -30.5059   24.6781 C   0  0  0  0  0  0
  -21.7886  -31.5633   23.3462 C   0  0  0  0  0  0
  -22.2799  -32.6805   22.0199 C   0  0  0  0  0  0
  -23.6577  -33.0080   20.9494 C   0  0  0  0  0  0
  -28.3092  -18.5239   22.0843 C   0  0  0  0  0  0
  -26.4123  -20.0313   24.9637 C   0  0  0  0  0  0
  -24.4461  -32.4827   19.4904 C   0  0  0  0  0  0
  -29.5296  -17.5344   21.3923 C   0  0  0  0  0  0
  -25.1879  -19.5139   25.7390 C   0  0  0  0  0  0
  -28.3081  -20.2379   22.2313 C   0  0  0  0  0  0
  -26.1036  -20.4395   23.5068 C   0  0  0  0  0  0
  -22.7809  -17.2794   22.8816 C   0  0  0  0  0  0
  -25.3953  -16.5944   25.4373 N   0  0  0  0  0  0
  -23.4130  -17.4648   21.6010 N   0  0  0  0  0  0
  -21.6624  -16.4009   22.6795 N   0  0  0  0  0  0
  -25.4275  -31.2932   19.0469 N   0  0  0  0  0  0
  -29.4986  -15.9471   21.2113 N   0  0  0  0  0  0
  -24.3681  -18.6129   24.9185 N   0  0  0  0  0  0
  -27.2074  -21.1914   22.9134 N   0  0  0  0  0  0
  -23.7319  -16.6584   23.8151 N   0  3  0  0  0  0
  -28.1172  -23.2642   22.5711 O   0  0  0  0  0  0
  -27.6581  -31.7763   18.9867 O   0  0  0  0  0  0
  -31.4668  -12.8583   19.2734 H   0  0  0  0  0  0
  -30.4814  -11.6411   20.0273 H   0  0  0  0  0  0
  -29.8835  -11.8211   17.5995 H   0  0  0  0  0  0
  -29.6175  -13.5388   17.7676 H   0  0  0  0  0  0
  -27.9580  -11.2875   18.9447 H   0  0  0  0  0  0
  -27.4135  -12.4999   17.8126 H   0  0  0  0  0  0
  -27.6189  -14.2551   19.4931 H   0  0  0  0  0  0
  -28.7072  -12.1187   21.3976 H   0  0  0  0  0  0
  -28.2736  -13.7348   21.8838 H   0  0  0  0  0  0
  -25.2756   -9.5664   22.4726 H   0  0  0  0  0  0
  -23.9991   -7.4613   22.7471 H   0  0  0  0  0  0
  -21.0811   -8.8747   19.8960 H   0  0  0  0  0  0
  -22.3674  -10.9631   19.6136 H   0  0  0  0  0  0
  -21.2018   -7.6137   23.9730 H   0  0  0  0  0  0
  -21.1471   -6.0505   25.9088 H   0  0  0  0  0  0
  -22.0601   -2.7595   23.2862 H   0  0  0  0  0  0
  -22.4201  -12.0046   22.5153 H   0  0  0  0  0  0
  -21.1119  -13.1272   22.2748 H   0  0  0  0  0  0
  -24.6625  -15.8498   20.6586 H   0  0  0  0  0  0
  -26.2529  -15.6442   20.1143 H   0  0  0  0  0  0
  -26.9663  -32.4447   23.1005 H   0  0  0  0  0  0
  -25.3410  -33.9507   25.0735 H   0  0  0  0  0  0
  -22.6661  -30.7870   21.0693 H   0  0  0  0  0  0
  -23.4269  -35.8835   23.2951 H   0  0  0  0  0  0
  -24.3767  -36.8775   22.2020 H   0  0  0  0  0  0
  -23.7156  -37.5720   23.6834 H   0  0  0  0  0  0
  -26.3840  -31.3794   21.2407 H   0  0  0  0  0  0
  -26.6789  -30.3348   22.4866 H   0  0  0  0  0  0
  -28.0350  -29.0019   21.4187 H   0  0  0  0  0  0
  -26.3524  -26.1496   18.6897 H   0  0  0  0  0  0
  -24.1080  -27.1358   18.9689 H   0  0  0  0  0  0
  -23.4667  -30.1299   19.3233 H   0  0  0  0  0  0
  -22.8256  -28.7974   19.9386 H   0  0  0  0  0  0
  -25.1664  -36.1263   25.0592 H   0  0  0  0  0  0
  -20.8449  -28.2641   24.0646 H   0  0  0  0  0  0
  -20.3258  -26.1485   23.4044 H   0  0  0  0  0  0
  -21.5191  -26.5010   22.2039 H   0  0  0  0  0  0
  -19.5701  -25.5459   21.1029 H   0  0  0  0  0  0
  -19.6464  -27.2352   20.6522 H   0  0  0  0  0  0
  -17.3466  -26.6936   21.3009 H   0  0  0  0  0  0
  -17.8718  -25.9895   22.8142 H   0  0  0  0  0  0
  -19.6603  -30.5695   24.4377 H   0  0  0  0  0  0
  -17.4517  -31.5409   24.6063 H   0  0  0  0  0  0
  -15.4808  -30.2992   23.7370 H   0  0  0  0  0  0
  -15.7891  -28.0962   22.6463 H   0  0  0  0  0  0
  -24.8953  -30.6132   25.9030 H   0  0  0  0  0  0
  -24.9423  -32.3025   26.4186 H   0  0  0  0  0  0
  -25.9786  -31.0956   27.1564 H   0  0  0  0  0  0
  -26.6263  -29.6095   24.3915 H   0  0  0  0  0  0
  -27.6975  -29.8589   25.7089 H   0  0  0  0  0  0
  -28.1449  -30.4562   24.1324 H   0  0  0  0  0  0
  -27.3604  -33.4300   26.2647 H   0  0  0  0  0  0
  -28.5272  -32.7740   25.1257 H   0  0  0  0  0  0
  -28.2102  -31.9552   26.6449 H   0  0  0  0  0  0
  -28.2313  -38.0585   24.7813 H   0  0  0  0  0  0
  -28.1527  -36.3125   24.5996 H   0  0  0  0  0  0
  -27.2412  -37.1137   25.8886 H   0  0  0  0  0  0
  -20.8538  -29.8714   21.7595 H   0  0  0  0  0  0
  -25.9866  -38.2685   24.1674 H   0  0  0  0  0  0
  -25.7779  -23.1504   24.6959 H   0  0  0  0  0  0
  -25.0587  -23.3369   23.1368 H   0  0  0  0  0  0
  -27.9821  -29.6431   17.4706 H   0  0  0  0  0  0
  -26.4477  -28.9647   17.7498 H   0  0  0  0  0  0
  -26.1480  -25.7028   22.9288 H   0  0  0  0  0  0
  -26.8050  -25.5261   24.5047 H   0  0  0  0  0  0
  -24.3987  -25.8149   25.5054 H   0  0  0  0  0  0
  -23.7912  -26.0266   23.9200 H   0  0  0  0  0  0
  -25.1266  -28.3729   23.9470 H   0  0  0  0  0  0
  -25.2933  -28.1462   25.6260 H   0  0  0  0  0  0
  -23.3144  -29.0738   26.1821 H   0  0  0  0  0  0
  -22.4237  -28.1743   25.1711 H   0  0  0  0  0  0
  -22.8750  -31.1783   25.4360 H   0  0  0  0  0  0
  -21.5501  -30.3174   25.2009 H   0  0  0  0  0  0
  -21.3660  -32.3184   24.0123 H   0  0  0  0  0  0
  -20.8461  -31.2148   22.9675 H   0  0  0  0  0  0
  -22.1510  -33.6539   22.4962 H   0  0  0  0  0  0
  -21.4273  -32.6617   21.3400 H   0  0  0  0  0  0
  -24.4439  -33.4843   21.5245 H   0  0  0  0  0  0
  -23.2368  -33.9180   20.5201 H   0  0  0  0  0  0
  -28.1520  -18.1331   23.0895 H   0  0  0  0  0  0
  -27.3914  -18.2706   21.5525 H   0  0  0  0  0  0
  -27.2080  -19.2870   24.9860 H   0  0  0  0  0  0
  -26.8047  -20.8938   25.5036 H   0  0  0  0  0  0
  -25.0048  -33.3636   19.1706 H   0  0  0  0  0  0
  -23.6415  -32.4222   18.7553 H   0  0  0  0  0  0
  -30.4509  -17.7462   21.9352 H   0  0  0  0  0  0
  -29.7082  -17.9261   20.3906 H   0  0  0  0  0  0
  -24.5612  -20.3600   26.0235 H   0  0  0  0  0  0
  -25.4863  -19.0304   26.6696 H   0  0  0  0  0  0
  -28.4174  -20.6264   21.2183 H   0  0  0  0  0  0
  -29.2446  -20.5022   22.7233 H   0  0  0  0  0  0
  -25.1782  -21.0153   23.4670 H   0  0  0  0  0  0
  -25.9031  -19.5551   22.9030 H   0  0  0  0  0  0
  -22.4228  -18.2304   23.2808 H   0  0  0  0  0  0
  -25.9761  -17.0413   26.1309 H   0  0  0  0  0  0
  -25.5216  -15.5995   25.3138 H   0  0  0  0  0  0
  -24.2285  -18.0553   21.7231 H   0  0  0  0  0  0
  -22.8116  -18.0277   21.0086 H   0  0  0  0  0  0
  -21.8892  -15.7553   21.9209 H   0  0  0  0  0  0
  -20.8823  -16.9373   22.3160 H   0  0  0  0  0  0
  -24.8769  -30.4626   18.8737 H   0  0  0  0  0  0
  -28.6133  -15.5498   21.4901 H   0  0  0  0  0  0
  -23.6278  -19.0844   24.4170 H   0  0  0  0  0  0
  -23.8118  -15.6553   23.7422 H   0  0  0  0  0  0
  1 25  1  0  0  0
  1 30  2  0  0  0
  1 96  1  0  0  0
  2  3  1  0  0  0
  2 25  1  0  0  0
  2102  1  0  0  0
  2103  1  0  0  0
  3  4  1  0  0  0
  3104  1  0  0  0
  3105  1  0  0  0
  4  5  1  0  0  0
  4106  1  0  0  0
  4107  1  0  0  0
  5  6  1  0  0  0
  5 26  1  0  0  0
  5108  1  0  0  0
  6 25  1  0  0  0
  6109  1  0  0  0
  6110  1  0  0  0
  7  8  2  0  0  0
  7 26  1  0  0  0
  7 29  1  0  0  0
  8  9  1  0  0  0
  8 22  1  0  0  0
  9 10  1  0  0  0
  9 27  2  0  0  0
 10 11  2  0  0  0
 10 15  1  0  0  0
 11 12  1  0  0  0
 11111  1  0  0  0
 12 13  2  0  0  0
 12112  1  0  0  0
 13 14  1  0  0  0
 13 31  1  0  0  0
 14 15  2  0  0  0
 14113  1  0  0  0
 15114  1  0  0  0
 16 17  2  0  0  0
 16 21  1  0  0  0
 16 31  1  0  0  0
 17 18  1  0  0  0
 17115  1  0  0  0
 18 19  2  0  0  0
 18116  1  0  0  0
 19 20  1  0  0  0
 19 24  1  0  0  0
 20 21  2  0  0  0
 20117  1  0  0  0
 21 23  1  0  0  0
 22 28  1  0  0  0
 22 32  2  0  0  0
 26 27  1  0  0  0
 28118  1  0  0  0
 28119  1  0  0  0
 29120  1  0  0  0
 29121  1  0  0  0
 33 34  1  0  0  0
 33 66  1  0  0  0
 33 70  2  0  0  0
 34 36  1  0  0  0
 34 59  1  0  0  0
 34122  1  0  0  0
 35 44  2  0  0  0
 35 45  1  0  0  0
 35 68  1  0  0  0
 36 56  1  0  0  0
 36123  1  0  0  0
 37 39  1  0  0  0
 37 47  1  0  0  0
 37 66  1  0  0  0
 37124  1  0  0  0
 38 43  2  0  0  0
 38 46  1  0  0  0
 38 47  1  0  0  0
 39 64  1  0  0  0
 39 67  2  0  0  0
 40 52  1  0  0  0
 40 53  2  0  0  0
 40 58  1  0  0  0
 41125  1  0  0  0
 41126  1  0  0  0
 41127  1  0  0  0
 41 48  1  0  0  0
 42 43  1  0  0  0
 42 66  1  0  0  0
 42128  1  0  0  0
 42129  1  0  0  0
 43 44  1  0  0  0
 44130  1  0  0  0
 45 46  2  0  0  0
 45131  1  0  0  0
 46132  1  0  0  0
 47133  1  0  0  0
 47134  1  0  0  0
 48 56  1  0  0  0
 48 65  1  0  0  0
 48135  1  0  0  0
 49 50  1  0  0  0
 49 53  1  0  0  0
 49 64  1  0  0  0
 49136  1  0  0  0
 50 51  1  0  0  0
 50137  1  0  0  0
 50138  1  0  0  0
 51 52  1  0  0  0
 51139  1  0  0  0
 51140  1  0  0  0
 52141  1  0  0  0
 52142  1  0  0  0
 53 54  1  0  0  0
 54 55  2  0  0  0
 54143  1  0  0  0
 55 57  1  0  0  0
 55144  1  0  0  0
 56 69  2  0  0  0
 57 58  2  0  0  0
 57145  1  0  0  0
 58146  1  0  0  0
 59 60  1  0  0  0
 59 61  1  0  0  0
 59 62  1  0  0  0
 60147  1  0  0  0
 60148  1  0  0  0
 60149  1  0  0  0
 61150  1  0  0  0
 61151  1  0  0  0
 61152  1  0  0  0
 62153  1  0  0  0
 62154  1  0  0  0
 62155  1  0  0  0
 63 65  1  0  0  0
 63156  1  0  0  0
 63157  1  0  0  0
 63158  1  0  0  0
 64159  1  0  0  0
 65160  1  0  0  0
 68 75  1  0  0  0
 71 74  1  0  0  0
 71 98  1  0  0  0
 71100  2  0  0  0
 72 75  1  0  0  0
 72 95  1  0  0  0
 72101  2  0  0  0
 73 92  1  0  0  0
 73 97  1  0  0  0
 73 99  2  0  0  0
 74 76  1  0  0  0
 74161  1  0  0  0
 74162  1  0  0  0
 75163  1  0  0  0
 75164  1  0  0  0
 76 77  1  0  0  0
 76165  1  0  0  0
 76166  1  0  0  0
 77 78  1  0  0  0
 77167  1  0  0  0
 77168  1  0  0  0
 78 79  1  0  0  0
 78169  1  0  0  0
 78170  1  0  0  0
 79 80  1  0  0  0
 79171  1  0  0  0
 79172  1  0  0  0
 80 81  1  0  0  0
 80173  1  0  0  0
 80174  1  0  0  0
 81 82  1  0  0  0
 81175  1  0  0  0
 81176  1  0  0  0
 82 83  1  0  0  0
 82177  1  0  0  0
 82178  1  0  0  0
 83 86  1  0  0  0
 83179  1  0  0  0
 83180  1  0  0  0
 84 87  1  0  0  0
 84 89  1  0  0  0
 84181  1  0  0  0
 84182  1  0  0  0
 85 88  1  0  0  0
 85 90  1  0  0  0
 85183  1  0  0  0
 85184  1  0  0  0
 86 95  1  0  0  0
 86185  1  0  0  0
 86186  1  0  0  0
 87 96  1  0  0  0
 87187  1  0  0  0
 87188  1  0  0  0
 88 97  1  0  0  0
 88189  1  0  0  0
 88190  1  0  0  0
 89 98  1  0  0  0
 89191  1  0  0  0
 89192  1  0  0  0
 90 98  1  0  0  0
 90193  1  0  0  0
 90194  1  0  0  0
 91 93  1  0  0  0
 91 94  1  0  0  0
 91 99  1  0  0  0
 91195  1  0  0  0
 92196  1  0  0  0
 92197  1  0  0  0
 93198  1  0  0  0
 93199  1  0  0  0
 94200  1  0  0  0
 94201  1  0  0  0
 95202  1  0  0  0
 96203  1  0  0  0
 97204  1  0  0  0
 99205  1  0  0  0
M  CHG  1  99   1
M  ISO  4   1 100  68 101  75 101  96 100
M  END
> <chiral flag>
0

> <version>
0

> <s_m_source_file>
/data/baiqing/PycharmProjects/Reinvent-master-3.2/result/LINK_invent/BTK/process_docking_weight1_custom_sum_contain_oxygen_bond_distance_aromatic_linkinvent_7_9_3/rearranged_h_0007.sdf

> <i_m_source_file_index>
60

> <r_mmod_Potential_Energy-OPLS-2005>
3221.84692382812

> <r_mmod_Stretch_Energy-OPLS-2005>
990.516662597656

> <r_mmod_Bend_Energy-OPLS-2005>
1165.99169921875

> <r_mmod_Torsional_Energy-OPLS-2005>
457.68701171875

> <r_mmod_Improper_Torsional_Energy-OPLS-2005>
27.3806419372559

> <r_mmod_Van_der_Waal_Energy-OPLS-2005>
624.485473632812

> <r_mmod_Electrostatic_Energy-OPLS-2005>
-306.941680908203

> <r_mmod_Solvation_Energy-OPLS-2005>
-515.399230957031

> <b_mmod_Minimization_Converged-OPLS-2005>
0

> <r_mmod_RMS_Derivative-OPLS-2005>
1.97925543785095

$$$$
60
                    3D
 Structure written by MMmdl.
172180  0  0  1  0            999 V2000
  -30.7632  -14.3355   20.6467 C   0  0  0  0  0  0
  -30.4270  -12.2454   19.3992 C   0  0  0  0  0  0
  -29.4944  -12.5017   18.2002 C   0  0  0  0  0  0
  -28.0120  -12.3879   18.6098 C   0  0  0  0  0  0
  -27.6801  -13.1771   19.9016 C   0  0  2  0  0  0
  -28.7222  -12.9030   21.0109 C   0  0  0  0  0  0
  -25.2727  -13.8076   20.5718 C   0  0  0  0  0  0
  -24.1926  -13.0425   20.9173 C   0  0  0  0  0  0
  -24.6409  -11.6860   20.8718 C   0  0  0  0  0  0
  -23.9028  -10.4270   21.0391 C   0  0  0  0  0  0
  -24.3575   -9.4210   21.9195 C   0  0  0  0  0  0
  -23.6281   -8.2234   22.0758 C   0  0  0  0  0  0
  -22.4268   -8.0261   21.3540 C   0  0  0  0  0  0
  -21.9863   -9.0240   20.4659 C   0  0  0  0  0  0
  -22.7172  -10.2132   20.3079 C   0  0  0  0  0  0
  -21.6870   -6.0738   22.5282 C   0  0  0  0  0  0
  -21.4012   -6.5648   23.8202 C   0  0  0  0  0  0
  -21.3646   -5.6801   24.9167 C   0  0  0  0  0  0
  -21.6054   -4.3063   24.7214 C   0  0  0  0  0  0
  -21.8817   -3.8161   23.4326 C   0  0  0  0  0  0
  -21.9196   -4.6977   22.3390 C   0  0  0  0  0  0
  -22.7957  -13.5277   21.1819 C   0  0  0  0  0  0
  -22.1664   -4.2163   21.0974 F   0  0  0  0  0  0
  -21.5629   -3.4542   25.7720 F   0  0  0  0  0  0
  -30.0699  -13.1835   20.4717 N   0  0  0  0  0  0
  -26.3152  -12.9191   20.3516 N   0  0  0  0  0  0
  -25.9339  -11.6375   20.5794 N   0  0  0  0  0  0
  -22.0578  -12.8313   22.0375 N   0  0  0  0  0  0
  -25.4546  -15.1777   20.4162 N   0  0  0  0  0  0
  -31.7953  -14.6214   20.0291 O   0  0  0  0  0  0
  -21.6642   -6.8869   21.4231 O   0  0  0  0  0  0
  -22.3673  -14.5618   20.6679 O   0  0  0  0  0  0
  -24.6003  -31.8718   23.2127 C   0  0  0  0  0  0
  -25.8940  -32.4849   23.8397 C   0  0  1  0  0  0
  -27.2927  -27.5324   20.1176 C   0  0  0  0  0  0
  -25.5859  -33.8652   24.2356 N   0  0  0  0  0  0
  -23.3833  -30.4865   21.5495 C   0  0  2  0  0  0
  -24.8427  -28.9550   20.1207 C   0  0  0  0  0  0
  -22.7327  -29.4654   22.5056 C   0  0  0  0  0  0
  -18.0230  -28.1356   22.8483 C   0  0  0  0  0  0
  -24.1496  -36.7322   23.2637 C   0  0  0  0  0  0
  -25.8901  -30.8810   21.3360 C   0  0  0  0  0  0
  -25.9804  -29.5143   20.7013 C   0  0  0  0  0  0
  -27.1952  -28.8214   20.6896 C   0  0  0  0  0  0
  -26.1340  -26.9705   19.5341 C   0  0  0  0  0  0
  -24.9098  -27.6773   19.5318 C   0  0  0  0  0  0
  -23.5886  -29.7973   20.1692 C   0  0  0  0  0  0
  -25.4117  -36.3128   24.0343 C   0  0  1  0  0  0
  -20.5813  -28.3612   23.1379 C   0  0  2  0  0  0
  -20.6729  -26.9374   22.5437 C   0  0  0  0  0  0
  -19.5722  -26.6376   21.5213 C   0  0  0  0  0  0
  -18.1889  -26.7899   22.1614 C   0  0  0  0  0  0
  -19.1476  -28.8804   23.2920 C   0  0  0  0  0  0
  -18.9421  -30.1420   23.8928 C   0  0  0  0  0  0
  -17.6431  -30.6580   24.0561 C   0  0  0  0  0  0
  -25.9033  -34.9487   23.5145 C   0  0  0  0  0  0
  -16.5322  -29.9093   23.6316 C   0  0  0  0  0  0
  -16.7224  -28.6505   23.0328 C   0  0  0  0  0  0
  -26.4425  -31.6595   25.0666 C   0  0  0  0  0  0
  -25.3746  -31.3654   26.1455 C   0  0  0  0  0  0
  -27.0237  -30.3066   24.5921 C   0  0  0  0  0  0
  -27.6033  -32.4263   25.7425 C   0  0  0  0  0  0
  -27.5588  -37.1803   24.8461 C   0  0  0  0  0  0
  -21.4062  -29.2994   22.3819 N   0  0  0  0  0  0
  -26.4304  -37.3810   23.9415 N   0  0  0  0  0  0
  -24.6423  -31.0915   22.0964 N   0  0  0  0  0  0
  -23.4159  -28.8229   23.3073 O   0  0  0  0  0  0
  -28.4744  -26.8197   20.0729 O   0  0  0  0  0  0
  -26.5569  -34.8923   22.4689 O   0  0  0  0  0  0
  -23.5229  -32.1417   23.7601 O   0  0  0  0  0  0
  -31.3154  -22.5951   22.2521 C   0  0  0  0  0  0
  -30.6806  -21.3546   22.0848 C   0  0  0  0  0  0
  -31.8340  -22.6484   19.8620 C   0  0  0  0  0  0
  -31.7828  -23.2880   21.1195 C   0  0  0  0  0  0
  -31.2213  -21.3952   19.6961 C   0  0  0  0  0  0
  -30.5398  -20.8162   20.7909 C   0  0  0  0  0  0
  -31.8328  -24.7390   21.2144 C   0  0  0  0  0  0
  -31.1694  -25.4796   20.3100 C   0  0  0  0  0  0
  -30.9150  -26.9501   20.4241 C   0  0  0  0  0  0
  -27.8358  -17.6353   21.5703 C   0  0  0  0  0  0
  -26.7682  -18.4760   20.8508 C   0  0  0  0  0  0
  -28.8405  -17.0108   20.5921 C   0  0  0  0  0  0
  -27.1603  -19.9552   20.6696 C   0  0  0  0  0  0
  -30.1826  -16.6329   21.2356 C   0  0  0  0  0  0
  -29.5154  -27.1505   21.0179 C   0  0  0  0  0  0
  -28.4535  -20.2397   19.8815 C   0  0  0  0  0  0
  -31.2032  -20.7841   18.4398 N   0  0  0  0  0  0
  -30.1886  -15.2009   21.4790 N   0  0  0  0  0  0
  -29.6244  -19.8206   20.5991 O   0  0  0  0  0  0
  -31.4694  -12.3429   19.0851 H   0  0  0  0  0  0
  -30.3148  -11.2193   19.7533 H   0  0  0  0  0  0
  -29.7066  -11.7993   17.3943 H   0  0  0  0  0  0
  -29.6994  -13.4950   17.7994 H   0  0  0  0  0  0
  -27.7791  -11.3318   18.7466 H   0  0  0  0  0  0
  -27.3761  -12.7399   17.7956 H   0  0  0  0  0  0
  -27.7387  -14.2248   19.6375 H   0  0  0  0  0  0
  -28.6751  -11.8602   21.3304 H   0  0  0  0  0  0
  -28.4817  -13.4814   21.9044 H   0  0  0  0  0  0
  -25.2695   -9.5749   22.4785 H   0  0  0  0  0  0
  -24.0019   -7.4639   22.7478 H   0  0  0  0  0  0
  -21.0794   -8.8750   19.8961 H   0  0  0  0  0  0
  -22.3601  -10.9690   19.6209 H   0  0  0  0  0  0
  -21.1998   -7.6160   23.9697 H   0  0  0  0  0  0
  -21.1491   -6.0537   25.9076 H   0  0  0  0  0  0
  -22.0596   -2.7623   23.2806 H   0  0  0  0  0  0
  -22.4145  -11.9926   22.4715 H   0  0  0  0  0  0
  -21.1245  -13.1434   22.2651 H   0  0  0  0  0  0
  -24.7011  -15.8416   20.5525 H   0  0  0  0  0  0
  -26.3329  -15.6146   20.1671 H   0  0  0  0  0  0
  -26.7021  -32.5662   23.1201 H   0  0  0  0  0  0
  -25.0034  -33.9830   25.0503 H   0  0  0  0  0  0
  -22.6644  -31.2960   21.4051 H   0  0  0  0  0  0
  -23.3754  -35.9656   23.3308 H   0  0  0  0  0  0
  -24.3596  -36.8919   22.2050 H   0  0  0  0  0  0
  -23.7230  -37.6529   23.6636 H   0  0  0  0  0  0
  -25.9637  -31.6454   20.5600 H   0  0  0  0  0  0
  -26.7899  -30.9656   21.9334 H   0  0  0  0  0  0
  -28.0320  -29.3537   21.1037 H   0  0  0  0  0  0
  -26.1850  -25.9898   19.0823 H   0  0  0  0  0  0
  -24.0348  -27.2334   19.0783 H   0  0  0  0  0  0
  -23.6752  -30.5564   19.3913 H   0  0  0  0  0  0
  -22.7252  -29.1876   19.8950 H   0  0  0  0  0  0
  -25.1279  -36.2012   25.0835 H   0  0  0  0  0  0
  -20.9876  -28.3150   24.1505 H   0  0  0  0  0  0
  -20.5628  -26.2214   23.3595 H   0  0  0  0  0  0
  -21.6611  -26.7432   22.1247 H   0  0  0  0  0  0
  -19.6898  -25.6297   21.1221 H   0  0  0  0  0  0
  -19.6677  -27.3210   20.6762 H   0  0  0  0  0  0
  -17.4171  -26.6621   21.4013 H   0  0  0  0  0  0
  -18.0303  -26.0044   22.9017 H   0  0  0  0  0  0
  -19.7916  -30.7197   24.2323 H   0  0  0  0  0  0
  -17.5013  -31.6263   24.5153 H   0  0  0  0  0  0
  -15.5339  -30.3016   23.7630 H   0  0  0  0  0  0
  -15.8606  -28.0856   22.7017 H   0  0  0  0  0  0
  -24.5936  -30.6960   25.7814 H   0  0  0  0  0  0
  -24.8919  -32.2803   26.4931 H   0  0  0  0  0  0
  -25.8165  -30.8837   27.0193 H   0  0  0  0  0  0
  -26.2727  -29.6822   24.1056 H   0  0  0  0  0  0
  -27.4151  -29.7286   25.4308 H   0  0  0  0  0  0
  -27.8493  -30.4431   23.8924 H   0  0  0  0  0  0
  -27.2697  -33.3579   26.2008 H   0  0  0  0  0  0
  -28.3868  -32.6770   25.0256 H   0  0  0  0  0  0
  -28.0642  -31.8338   26.5344 H   0  0  0  0  0  0
  -28.2596  -38.0107   24.7547 H   0  0  0  0  0  0
  -28.1090  -36.2643   24.6250 H   0  0  0  0  0  0
  -27.2309  -37.1409   25.8860 H   0  0  0  0  0  0
  -20.9213  -29.8729   21.7059 H   0  0  0  0  0  0
  -26.0191  -38.2887   24.1436 H   0  0  0  0  0  0
  -31.2737  -23.0872   23.2143 H   0  0  0  0  0  0
  -30.1810  -20.8901   22.9238 H   0  0  0  0  0  0
  -32.2227  -23.1824   19.0059 H   0  0  0  0  0  0
  -32.3407  -25.1869   22.0576 H   0  0  0  0  0  0
  -30.6814  -25.0062   19.4691 H   0  0  0  0  0  0
  -31.0033  -27.4368   19.4547 H   0  0  0  0  0  0
  -31.6640  -27.3978   21.0795 H   0  0  0  0  0  0
  -27.3680  -16.8359   22.1442 H   0  0  0  0  0  0
  -28.3418  -18.2672   22.3014 H   0  0  0  0  0  0
  -25.8505  -18.4550   21.4422 H   0  0  0  0  0  0
  -26.5011  -18.0306   19.8913 H   0  0  0  0  0  0
  -29.0361  -17.6745   19.7551 H   0  0  0  0  0  0
  -28.3793  -16.1536   20.1127 H   0  0  0  0  0  0
  -27.2174  -20.4348   21.6473 H   0  0  0  0  0  0
  -26.3411  -20.4449   20.1404 H   0  0  0  0  0  0
  -30.3594  -17.1743   22.1640 H   0  0  0  0  0  0
  -30.9893  -16.9217   20.5577 H   0  0  0  0  0  0
  -29.5223  -28.1590   21.4078 H   0  0  0  0  0  0
  -29.3848  -26.5118   21.8935 H   0  0  0  0  0  0
  -28.4779  -21.3142   19.6821 H   0  0  0  0  0  0
  -28.4213  -19.7602   18.9024 H   0  0  0  0  0  0
  -31.3892  -21.3263   17.6031 H   0  0  0  0  0  0
  -30.5990  -19.9818   18.2953 H   0  0  0  0  0  0
  -29.4311  -14.8354   22.0366 H   0  0  0  0  0  0
  1 25  1  0  0  0
  1 30  2  0  0  0
  1 88  1  0  0  0
  2  3  1  0  0  0
  2 25  1  0  0  0
  2 90  1  0  0  0
  2 91  1  0  0  0
  3  4  1  0  0  0
  3 92  1  0  0  0
  3 93  1  0  0  0
  4  5  1  0  0  0
  4 94  1  0  0  0
  4 95  1  0  0  0
  5  6  1  0  0  0
  5 26  1  0  0  0
  5 96  1  0  0  0
  6 25  1  0  0  0
  6 97  1  0  0  0
  6 98  1  0  0  0
  7  8  2  0  0  0
  7 26  1  0  0  0
  7 29  1  0  0  0
  8  9  1  0  0  0
  8 22  1  0  0  0
  9 10  1  0  0  0
  9 27  2  0  0  0
 10 11  2  0  0  0
 10 15  1  0  0  0
 11 12  1  0  0  0
 11 99  1  0  0  0
 12 13  2  0  0  0
 12100  1  0  0  0
 13 14  1  0  0  0
 13 31  1  0  0  0
 14 15  2  0  0  0
 14101  1  0  0  0
 15102  1  0  0  0
 16 17  2  0  0  0
 16 21  1  0  0  0
 16 31  1  0  0  0
 17 18  1  0  0  0
 17103  1  0  0  0
 18 19  2  0  0  0
 18104  1  0  0  0
 19 20  1  0  0  0
 19 24  1  0  0  0
 20 21  2  0  0  0
 20105  1  0  0  0
 21 23  1  0  0  0
 22 28  1  0  0  0
 22 32  2  0  0  0
 26 27  1  0  0  0
 28106  1  0  0  0
 28107  1  0  0  0
 29108  1  0  0  0
 29109  1  0  0  0
 33 34  1  0  0  0
 33 66  1  0  0  0
 33 70  2  0  0  0
 34 36  1  0  0  0
 34 59  1  0  0  0
 34110  1  0  0  0
 35 44  2  0  0  0
 35 45  1  0  0  0
 35 68  1  0  0  0
 36 56  1  0  0  0
 36111  1  0  0  0
 37 39  1  0  0  0
 37 47  1  0  0  0
 37 66  1  0  0  0
 37112  1  0  0  0
 38 43  2  0  0  0
 38 46  1  0  0  0
 38 47  1  0  0  0
 39 64  1  0  0  0
 39 67  2  0  0  0
 40 52  1  0  0  0
 40 53  2  0  0  0
 40 58  1  0  0  0
 41113  1  0  0  0
 41114  1  0  0  0
 41115  1  0  0  0
 41 48  1  0  0  0
 42 43  1  0  0  0
 42 66  1  0  0  0
 42116  1  0  0  0
 42117  1  0  0  0
 43 44  1  0  0  0
 44118  1  0  0  0
 45 46  2  0  0  0
 45119  1  0  0  0
 46120  1  0  0  0
 47121  1  0  0  0
 47122  1  0  0  0
 48 56  1  0  0  0
 48 65  1  0  0  0
 48123  1  0  0  0
 49 50  1  0  0  0
 49 53  1  0  0  0
 49 64  1  0  0  0
 49124  1  0  0  0
 50 51  1  0  0  0
 50125  1  0  0  0
 50126  1  0  0  0
 51 52  1  0  0  0
 51127  1  0  0  0
 51128  1  0  0  0
 52129  1  0  0  0
 52130  1  0  0  0
 53 54  1  0  0  0
 54 55  2  0  0  0
 54131  1  0  0  0
 55 57  1  0  0  0
 55132  1  0  0  0
 56 69  2  0  0  0
 57 58  2  0  0  0
 57133  1  0  0  0
 58134  1  0  0  0
 59 60  1  0  0  0
 59 61  1  0  0  0
 59 62  1  0  0  0
 60135  1  0  0  0
 60136  1  0  0  0
 60137  1  0  0  0
 61138  1  0  0  0
 61139  1  0  0  0
 61140  1  0  0  0
 62141  1  0  0  0
 62142  1  0  0  0
 62143  1  0  0  0
 63 65  1  0  0  0
 63144  1  0  0  0
 63145  1  0  0  0
 63146  1  0  0  0
 64147  1  0  0  0
 65148  1  0  0  0
 68 85  1  0  0  0
 71 72  2  0  0  0
 71 74  1  0  0  0
 71149  1  0  0  0
 72 76  1  0  0  0
 72150  1  0  0  0
 73 74  2  0  0  0
 73 75  1  0  0  0
 73151  1  0  0  0
 74 77  1  0  0  0
 75 76  2  0  0  0
 75 87  1  0  0  0
 76 89  1  0  0  0
 77 78  2  0  0  0
 77152  1  0  0  0
 78 79  1  0  0  0
 78153  1  0  0  0
 79 85  1  0  0  0
 79154  1  0  0  0
 79155  1  0  0  0
 80 81  1  0  0  0
 80 82  1  0  0  0
 80156  1  0  0  0
 80157  1  0  0  0
 81 83  1  0  0  0
 81158  1  0  0  0
 81159  1  0  0  0
 82 84  1  0  0  0
 82160  1  0  0  0
 82161  1  0  0  0
 83 86  1  0  0  0
 83162  1  0  0  0
 83163  1  0  0  0
 84 88  1  0  0  0
 84164  1  0  0  0
 84165  1  0  0  0
 85166  1  0  0  0
 85167  1  0  0  0
 86 89  1  0  0  0
 86168  1  0  0  0
 86169  1  0  0  0
 87170  1  0  0  0
 87171  1  0  0  0
 88172  1  0  0  0
M  ISO  4   1 100  68 101  85 101  88 100
M  END
> <chiral flag>
0

> <version>
0

> <s_m_source_file>
/data/baiqing/PycharmProjects/Reinvent-master-3.2/result/LINK_invent/BTK/process_docking_weight1_custom_sum_contain_oxygen_bond_distance_aromatic_linkinvent_7_9_3/rearranged_h_0007.sdf

> <i_m_source_file_index>
61

> <r_mmod_Potential_Energy-OPLS-2005>
39.7656860351562

> <r_mmod_Stretch_Energy-OPLS-2005>
33.6752319335938

> <r_mmod_Bend_Energy-OPLS-2005>
109.233940124512

> <r_mmod_Torsional_Energy-OPLS-2005>
324.821380615234

> <r_mmod_Improper_Torsional_Energy-OPLS-2005>
12.8927545547485

> <r_mmod_Van_der_Waal_Energy-OPLS-2005>
172.7265625

> <r_mmod_Electrostatic_Energy-OPLS-2005>
-406.999176025391

> <r_mmod_Solvation_Energy-OPLS-2005>
-215.346740722656

> <b_mmod_Minimization_Converged-OPLS-2005>
0

> <r_mmod_RMS_Derivative-OPLS-2005>
4.19738054275513

$$$$
61
                    3D
 Structure written by MMmdl.
151159  0  0  1  0            999 V2000
  -30.6215  -14.6467   20.4927 C   0  0  0  0  0  0
  -30.4407  -12.3957   19.4503 C   0  0  0  0  0  0
  -29.5080  -12.5074   18.2234 C   0  0  0  0  0  0
  -28.0310  -12.3448   18.6369 C   0  0  0  0  0  0
  -27.6531  -13.2179   19.8634 C   0  0  2  0  0  0
  -28.7004  -13.0767   20.9916 C   0  0  0  0  0  0
  -25.2552  -13.8167   20.5692 C   0  0  0  0  0  0
  -24.1817  -13.0425   20.9166 C   0  0  0  0  0  0
  -24.6396  -11.6902   20.8726 C   0  0  0  0  0  0
  -23.9065  -10.4286   21.0398 C   0  0  0  0  0  0
  -24.3615   -9.4205   21.9181 C   0  0  0  0  0  0
  -23.6291   -8.2241   22.0754 C   0  0  0  0  0  0
  -22.4273   -8.0278   21.3545 C   0  0  0  0  0  0
  -21.9906   -9.0250   20.4646 C   0  0  0  0  0  0
  -22.7236  -10.2128   20.3050 C   0  0  0  0  0  0
  -21.6852   -6.0733   22.5280 C   0  0  0  0  0  0
  -21.4013   -6.5637   23.8213 C   0  0  0  0  0  0
  -21.3660   -5.6791   24.9175 C   0  0  0  0  0  0
  -21.6045   -4.3053   24.7225 C   0  0  0  0  0  0
  -21.8819   -3.8144   23.4346 C   0  0  0  0  0  0
  -21.9192   -4.6961   22.3403 C   0  0  0  0  0  0
  -22.7841  -13.5220   21.1842 C   0  0  0  0  0  0
  -22.1662   -4.2147   21.0981 F   0  0  0  0  0  0
  -21.5630   -3.4537   25.7739 F   0  0  0  0  0  0
  -30.0151  -13.4189   20.4251 N   0  0  0  0  0  0
  -26.2995  -12.9359   20.3338 N   0  0  0  0  0  0
  -25.9330  -11.6508   20.5761 N   0  0  0  0  0  0
  -22.0489  -12.8217   22.0407 N   0  0  0  0  0  0
  -25.4214  -15.1896   20.4180 N   0  0  0  0  0  0
  -31.7915  -14.8056   20.1326 O   0  0  0  0  0  0
  -21.6637   -6.8876   21.4242 O   0  0  0  0  0  0
  -22.3520  -14.5528   20.6698 O   0  0  0  0  0  0
  -24.6266  -31.8601   23.2031 C   0  0  0  0  0  0
  -25.9113  -32.4780   23.8358 C   0  0  1  0  0  0
  -27.2236  -27.3176   20.1118 C   0  0  0  0  0  0
  -25.5926  -33.8581   24.2283 N   0  0  0  0  0  0
  -23.4199  -30.4850   21.5463 C   0  0  2  0  0  0
  -24.8656  -28.9422   20.1113 C   0  0  0  0  0  0
  -22.7476  -29.4628   22.4939 C   0  0  0  0  0  0
  -18.0286  -28.1384   22.8487 C   0  0  0  0  0  0
  -24.1489  -36.7296   23.2639 C   0  0  0  0  0  0
  -25.9621  -30.7907   21.3744 C   0  0  0  0  0  0
  -26.0362  -29.4188   20.7147 C   0  0  0  0  0  0
  -27.2183  -28.6189   20.7045 C   0  0  0  0  0  0
  -26.0260  -26.8968   19.4857 C   0  0  0  0  0  0
  -24.8626  -27.6866   19.4884 C   0  0  0  0  0  0
  -23.6342  -29.8222   20.1610 C   0  0  0  0  0  0
  -25.4113  -36.3085   24.0330 C   0  0  1  0  0  0
  -20.5886  -28.3689   23.1283 C   0  0  2  0  0  0
  -20.6775  -26.9414   22.5408 C   0  0  0  0  0  0
  -19.5750  -26.6385   21.5212 C   0  0  0  0  0  0
  -18.1931  -26.7926   22.1626 C   0  0  0  0  0  0
  -19.1538  -28.8853   23.2880 C   0  0  0  0  0  0
  -18.9460  -30.1455   23.8897 C   0  0  0  0  0  0
  -17.6461  -30.6587   24.0563 C   0  0  0  0  0  0
  -25.9051  -34.9454   23.5107 C   0  0  0  0  0  0
  -16.5352  -29.9086   23.6329 C   0  0  0  0  0  0
  -16.7273  -28.6503   23.0352 C   0  0  0  0  0  0
  -26.4494  -31.6587   25.0728 C   0  0  0  0  0  0
  -25.3727  -31.3725   26.1454 C   0  0  0  0  0  0
  -27.0334  -30.3010   24.6182 C   0  0  0  0  0  0
  -27.6054  -32.4320   25.7498 C   0  0  0  0  0  0
  -27.5580  -37.1804   24.8465 C   0  0  0  0  0  0
  -21.4189  -29.3045   22.3680 N   0  0  0  0  0  0
  -26.4293  -37.3779   23.9407 N   0  0  0  0  0  0
  -24.6885  -31.0614   22.0981 N   0  0  0  0  0  0
  -23.4201  -28.8163   23.3014 O   0  0  0  0  0  0
  -28.3403  -26.4633   20.1602 O   0  0  0  0  0  0
  -26.5620  -34.8919   22.4674 O   0  0  0  0  0  0
  -23.5429  -32.1399   23.7358 O   0  0  0  0  0  0
  -31.1180  -17.8849   20.6034 C   0  0  0  0  0  0
  -31.1123  -19.3107   20.5262 C   0  0  0  0  0  0
  -28.7106  -19.3389   20.5192 C   0  0  0  0  0  0
  -29.9083  -17.1463   20.6525 C   0  0  0  0  0  0
  -29.9190  -20.0843   20.4854 C   0  0  0  0  0  0
  -28.7114  -17.9126   20.6067 C   0  0  0  0  0  0
  -29.2528  -23.9564   20.3436 C   0  0  0  0  0  0
  -28.1015  -25.0048   20.0220 C   0  0  0  0  0  0
  -28.8904  -22.3990   20.2827 C   0  0  0  0  0  0
  -29.7931  -15.6941   20.7921 N   0  0  0  0  0  0
  -30.0305  -21.4919   20.4337 O   0  0  0  0  0  0
  -27.5271  -17.2553   20.6481 F   0  0  0  0  0  0
  -31.4812  -12.5238   19.1468 H   0  0  0  0  0  0
  -30.3783  -11.4007   19.8940 H   0  0  0  0  0  0
  -29.7724  -11.7555   17.4787 H   0  0  0  0  0  0
  -29.6485  -13.4764   17.7417 H   0  0  0  0  0  0
  -27.8691  -11.2920   18.8707 H   0  0  0  0  0  0
  -27.3755  -12.5722   17.7955 H   0  0  0  0  0  0
  -27.6666  -14.2522   19.5190 H   0  0  0  0  0  0
  -28.7131  -12.0565   21.3781 H   0  0  0  0  0  0
  -28.4480  -13.7124   21.8419 H   0  0  0  0  0  0
  -25.2760   -9.5683   22.4755 H   0  0  0  0  0  0
  -23.9999   -7.4633   22.7474 H   0  0  0  0  0  0
  -21.0836   -8.8767   19.8954 H   0  0  0  0  0  0
  -22.3693  -10.9665   19.6157 H   0  0  0  0  0  0
  -21.2003   -7.6146   23.9716 H   0  0  0  0  0  0
  -21.1485   -6.0521   25.9079 H   0  0  0  0  0  0
  -22.0598   -2.7606   23.2846 H   0  0  0  0  0  0
  -22.4103  -11.9877   22.4793 H   0  0  0  0  0  0
  -21.1112  -13.1253   22.2622 H   0  0  0  0  0  0
  -24.6550  -15.8367   20.5619 H   0  0  0  0  0  0
  -26.2902  -15.6637   20.1983 H   0  0  0  0  0  0
  -26.7180  -32.5450   23.1107 H   0  0  0  0  0  0
  -25.0065  -33.9725   25.0423 H   0  0  0  0  0  0
  -22.7139  -31.3059   21.4047 H   0  0  0  0  0  0
  -23.3749  -35.9632   23.3306 H   0  0  0  0  0  0
  -24.3580  -36.8912   22.2052 H   0  0  0  0  0  0
  -23.7246  -37.6502   23.6657 H   0  0  0  0  0  0
  -26.0942  -31.5552   20.6075 H   0  0  0  0  0  0
  -26.8423  -30.8379   22.0041 H   0  0  0  0  0  0
  -28.1158  -28.9808   21.1864 H   0  0  0  0  0  0
  -25.9527  -25.9397   18.9927 H   0  0  0  0  0  0
  -23.9657  -27.3159   19.0113 H   0  0  0  0  0  0
  -23.7534  -30.5997   19.4055 H   0  0  0  0  0  0
  -22.7537  -29.2525   19.8581 H   0  0  0  0  0  0
  -25.1293  -36.1940   25.0823 H   0  0  0  0  0  0
  -20.9979  -28.3261   24.1404 H   0  0  0  0  0  0
  -20.5679  -26.2299   23.3607 H   0  0  0  0  0  0
  -21.6643  -26.7445   22.1199 H   0  0  0  0  0  0
  -19.6913  -25.6296   21.1242 H   0  0  0  0  0  0
  -19.6686  -27.3195   20.6741 H   0  0  0  0  0  0
  -17.4200  -26.6671   21.4030 H   0  0  0  0  0  0
  -18.0335  -26.0069   22.9023 H   0  0  0  0  0  0
  -19.7937  -30.7270   24.2269 H   0  0  0  0  0  0
  -17.5016  -31.6267   24.5164 H   0  0  0  0  0  0
  -15.5352  -30.2988   23.7651 H   0  0  0  0  0  0
  -15.8672  -28.0822   22.7068 H   0  0  0  0  0  0
  -24.5898  -30.7080   25.7780 H   0  0  0  0  0  0
  -24.8923  -32.2892   26.4885 H   0  0  0  0  0  0
  -25.8050  -30.8895   27.0226 H   0  0  0  0  0  0
  -26.2907  -29.6762   24.1207 H   0  0  0  0  0  0
  -27.4029  -29.7264   25.4687 H   0  0  0  0  0  0
  -27.8779  -30.4291   23.9407 H   0  0  0  0  0  0
  -27.2666  -33.3618   26.2077 H   0  0  0  0  0  0
  -28.3864  -32.6881   25.0327 H   0  0  0  0  0  0
  -28.0722  -31.8443   26.5414 H   0  0  0  0  0  0
  -28.2599  -38.0100   24.7509 H   0  0  0  0  0  0
  -28.1073  -36.2631   24.6294 H   0  0  0  0  0  0
  -27.2298  -37.1456   25.8868 H   0  0  0  0  0  0
  -20.9367  -29.8773   21.6895 H   0  0  0  0  0  0
  -26.0176  -38.2855   24.1401 H   0  0  0  0  0  0
  -32.0671  -17.3700   20.6429 H   0  0  0  0  0  0
  -32.0626  -19.8258   20.5039 H   0  0  0  0  0  0
  -27.7601  -19.8494   20.4918 H   0  0  0  0  0  0
  -29.6470  -24.1729   21.3364 H   0  0  0  0  0  0
  -30.0761  -24.1424   19.6539 H   0  0  0  0  0  0
  -27.2506  -24.7435   20.6531 H   0  0  0  0  0  0
  -27.7948  -24.8125   18.9934 H   0  0  0  0  0  0
  -28.4094  -22.1808   19.3285 H   0  0  0  0  0  0
  -28.1566  -22.1770   21.0583 H   0  0  0  0  0  0
  -28.8555  -15.3945   21.0126 H   0  0  0  0  0  0
  1 25  1  0  0  0
  1 30  2  0  0  0
  1 80  1  0  0  0
  2  3  1  0  0  0
  2 25  1  0  0  0
  2 83  1  0  0  0
  2 84  1  0  0  0
  3  4  1  0  0  0
  3 85  1  0  0  0
  3 86  1  0  0  0
  4  5  1  0  0  0
  4 87  1  0  0  0
  4 88  1  0  0  0
  5  6  1  0  0  0
  5 26  1  0  0  0
  5 89  1  0  0  0
  6 25  1  0  0  0
  6 90  1  0  0  0
  6 91  1  0  0  0
  7  8  2  0  0  0
  7 26  1  0  0  0
  7 29  1  0  0  0
  8  9  1  0  0  0
  8 22  1  0  0  0
  9 10  1  0  0  0
  9 27  2  0  0  0
 10 11  2  0  0  0
 10 15  1  0  0  0
 11 12  1  0  0  0
 11 92  1  0  0  0
 12 13  2  0  0  0
 12 93  1  0  0  0
 13 14  1  0  0  0
 13 31  1  0  0  0
 14 15  2  0  0  0
 14 94  1  0  0  0
 15 95  1  0  0  0
 16 17  2  0  0  0
 16 21  1  0  0  0
 16 31  1  0  0  0
 17 18  1  0  0  0
 17 96  1  0  0  0
 18 19  2  0  0  0
 18 97  1  0  0  0
 19 20  1  0  0  0
 19 24  1  0  0  0
 20 21  2  0  0  0
 20 98  1  0  0  0
 21 23  1  0  0  0
 22 28  1  0  0  0
 22 32  2  0  0  0
 26 27  1  0  0  0
 28 99  1  0  0  0
 28100  1  0  0  0
 29101  1  0  0  0
 29102  1  0  0  0
 33 34  1  0  0  0
 33 66  1  0  0  0
 33 70  2  0  0  0
 34 36  1  0  0  0
 34 59  1  0  0  0
 34103  1  0  0  0
 35 44  2  0  0  0
 35 45  1  0  0  0
 35 68  1  0  0  0
 36 56  1  0  0  0
 36104  1  0  0  0
 37 39  1  0  0  0
 37 47  1  0  0  0
 37 66  1  0  0  0
 37105  1  0  0  0
 38 43  2  0  0  0
 38 46  1  0  0  0
 38 47  1  0  0  0
 39 64  1  0  0  0
 39 67  2  0  0  0
 40 52  1  0  0  0
 40 53  2  0  0  0
 40 58  1  0  0  0
 41106  1  0  0  0
 41107  1  0  0  0
 41108  1  0  0  0
 41 48  1  0  0  0
 42 43  1  0  0  0
 42 66  1  0  0  0
 42109  1  0  0  0
 42110  1  0  0  0
 43 44  1  0  0  0
 44111  1  0  0  0
 45 46  2  0  0  0
 45112  1  0  0  0
 46113  1  0  0  0
 47114  1  0  0  0
 47115  1  0  0  0
 48 56  1  0  0  0
 48 65  1  0  0  0
 48116  1  0  0  0
 49 50  1  0  0  0
 49 53  1  0  0  0
 49 64  1  0  0  0
 49117  1  0  0  0
 50 51  1  0  0  0
 50118  1  0  0  0
 50119  1  0  0  0
 51 52  1  0  0  0
 51120  1  0  0  0
 51121  1  0  0  0
 52122  1  0  0  0
 52123  1  0  0  0
 53 54  1  0  0  0
 54 55  2  0  0  0
 54124  1  0  0  0
 55 57  1  0  0  0
 55125  1  0  0  0
 56 69  2  0  0  0
 57 58  2  0  0  0
 57126  1  0  0  0
 58127  1  0  0  0
 59 60  1  0  0  0
 59 61  1  0  0  0
 59 62  1  0  0  0
 60128  1  0  0  0
 60129  1  0  0  0
 60130  1  0  0  0
 61131  1  0  0  0
 61132  1  0  0  0
 61133  1  0  0  0
 62134  1  0  0  0
 62135  1  0  0  0
 62136  1  0  0  0
 63 65  1  0  0  0
 63137  1  0  0  0
 63138  1  0  0  0
 63139  1  0  0  0
 64140  1  0  0  0
 65141  1  0  0  0
 68 78  1  0  0  0
 71 72  2  0  0  0
 71 74  1  0  0  0
 71142  1  0  0  0
 72 75  1  0  0  0
 72143  1  0  0  0
 73 75  2  0  0  0
 73 76  1  0  0  0
 73144  1  0  0  0
 74 76  2  0  0  0
 74 80  1  0  0  0
 75 81  1  0  0  0
 76 82  1  0  0  0
 77 78  1  0  0  0
 77 79  1  0  0  0
 77145  1  0  0  0
 77146  1  0  0  0
 78147  1  0  0  0
 78148  1  0  0  0
 79 81  1  0  0  0
 79149  1  0  0  0
 79150  1  0  0  0
 80151  1  0  0  0
M  ISO  4   1 100  68 101  78 101  80 100
M  END
> <chiral flag>
0

> <version>
0

> <s_m_source_file>
/data/baiqing/PycharmProjects/Reinvent-master-3.2/result/LINK_invent/BTK/process_docking_weight1_custom_sum_contain_oxygen_bond_distance_aromatic_linkinvent_7_9_3/rearranged_h_0007.sdf

> <i_m_source_file_index>
62

> <r_mmod_Potential_Energy-OPLS-2005>
8.48562717437744

> <r_mmod_Stretch_Energy-OPLS-2005>
78.0414810180664

> <r_mmod_Bend_Energy-OPLS-2005>
145.352081298828

> <r_mmod_Torsional_Energy-OPLS-2005>
209.226409912109

> <r_mmod_Improper_Torsional_Energy-OPLS-2005>
4.5839262008667

> <r_mmod_Van_der_Waal_Energy-OPLS-2005>
144.377670288086

> <r_mmod_Electrostatic_Energy-OPLS-2005>
-422.268218994141

> <r_mmod_Solvation_Energy-OPLS-2005>
-201.274765014648

> <b_mmod_Minimization_Converged-OPLS-2005>
0

> <r_mmod_RMS_Derivative-OPLS-2005>
0.238112762570381

$$$$
62
                    3D
 Structure written by MMmdl.
158167  0  0  1  0            999 V2000
  -30.5504  -14.9399   20.5032 C   0  0  0  0  0  0
  -30.4444  -12.6030   19.4938 C   0  0  0  0  0  0
  -29.5191  -12.5524   18.2534 C   0  0  0  0  0  0
  -28.0529  -12.3244   18.6627 C   0  0  0  0  0  0
  -27.6312  -13.2418   19.8371 C   0  0  2  0  0  0
  -28.6680  -13.2203   20.9752 C   0  0  0  0  0  0
  -25.2465  -13.8208   20.5682 C   0  0  0  0  0  0
  -24.1777  -13.0439   20.9209 C   0  0  0  0  0  0
  -24.6389  -11.6921   20.8721 C   0  0  0  0  0  0
  -23.9073  -10.4294   21.0383 C   0  0  0  0  0  0
  -24.3624   -9.4215   21.9166 C   0  0  0  0  0  0
  -23.6304   -8.2245   22.0741 C   0  0  0  0  0  0
  -22.4280   -8.0284   21.3541 C   0  0  0  0  0  0
  -21.9922   -9.0250   20.4634 C   0  0  0  0  0  0
  -22.7247  -10.2131   20.3032 C   0  0  0  0  0  0
  -21.6865   -6.0730   22.5283 C   0  0  0  0  0  0
  -21.4018   -6.5628   23.8218 C   0  0  0  0  0  0
  -21.3656   -5.6779   24.9181 C   0  0  0  0  0  0
  -21.6040   -4.3045   24.7228 C   0  0  0  0  0  0
  -21.8823   -3.8145   23.4349 C   0  0  0  0  0  0
  -21.9196   -4.6957   22.3404 C   0  0  0  0  0  0
  -22.7801  -13.5211   21.1902 C   0  0  0  0  0  0
  -22.1666   -4.2148   21.0981 F   0  0  0  0  0  0
  -21.5633   -3.4529   25.7738 F   0  0  0  0  0  0
  -29.9566  -13.6719   20.4180 N   0  0  0  0  0  0
  -26.2879  -12.9425   20.3190 N   0  0  0  0  0  0
  -25.9312  -11.6558   20.5682 N   0  0  0  0  0  0
  -22.0457  -12.8174   22.0444 N   0  0  0  0  0  0
  -25.4165  -15.1942   20.4155 N   0  0  0  0  0  0
  -31.6888  -15.0536   20.0321 O   0  0  0  0  0  0
  -21.6643   -6.8884   21.4246 O   0  0  0  0  0  0
  -22.3468  -14.5520   20.6768 O   0  0  0  0  0  0
  -24.6447  -31.8423   23.1898 C   0  0  0  0  0  0
  -25.9208  -32.4688   23.8282 C   0  0  1  0  0  0
  -27.2254  -27.1432   20.1502 C   0  0  0  0  0  0
  -25.5963  -33.8497   24.2195 N   0  0  0  0  0  0
  -23.4464  -30.4620   21.5347 C   0  0  2  0  0  0
  -24.9001  -28.8906   20.1126 C   0  0  0  0  0  0
  -22.7573  -29.4515   22.4867 C   0  0  0  0  0  0
  -18.0287  -28.1382   22.8476 C   0  0  0  0  0  0
  -24.1467  -36.7253   23.2641 C   0  0  0  0  0  0
  -26.0016  -30.7211   21.3854 C   0  0  0  0  0  0
  -26.0777  -29.3302   20.7319 C   0  0  0  0  0  0
  -27.2430  -28.4732   20.7338 C   0  0  0  0  0  0
  -26.0252  -26.8109   19.4839 C   0  0  0  0  0  0
  -24.8877  -27.6439   19.4713 C   0  0  0  0  0  0
  -23.6747  -29.7909   20.1549 C   0  0  0  0  0  0
  -25.4099  -36.3010   24.0300 C   0  0  1  0  0  0
  -20.5899  -28.3697   23.1240 C   0  0  2  0  0  0
  -20.6758  -26.9401   22.5404 C   0  0  0  0  0  0
  -19.5731  -26.6366   21.5214 C   0  0  0  0  0  0
  -18.1905  -26.7914   22.1618 C   0  0  0  0  0  0
  -19.1544  -28.8862   23.2839 C   0  0  0  0  0  0
  -18.9477  -30.1463   23.8856 C   0  0  0  0  0  0
  -17.6479  -30.6582   24.0553 C   0  0  0  0  0  0
  -25.9062  -34.9392   23.5043 C   0  0  0  0  0  0
  -16.5366  -29.9068   23.6346 C   0  0  0  0  0  0
  -16.7271  -28.6495   23.0359 C   0  0  0  0  0  0
  -26.4546  -31.6570   25.0725 C   0  0  0  0  0  0
  -25.3746  -31.3747   26.1440 C   0  0  0  0  0  0
  -27.0456  -30.2990   24.6291 C   0  0  0  0  0  0
  -27.6050  -32.4373   25.7529 C   0  0  0  0  0  0
  -27.5554  -37.1756   24.8448 C   0  0  0  0  0  0
  -21.4255  -29.3044   22.3640 N   0  0  0  0  0  0
  -26.4242  -37.3749   23.9431 N   0  0  0  0  0  0
  -24.7179  -31.0287   22.0921 N   0  0  0  0  0  0
  -23.4230  -28.8032   23.2978 O   0  0  0  0  0  0
  -28.2741  -26.1525   20.1770 O   0  0  0  0  0  0
  -26.5638  -34.8877   22.4620 O   0  0  0  0  0  0
  -23.5573  -32.1283   23.7125 O   0  0  0  0  0  0
  -28.6669  -18.3016   21.5260 C   0  0  0  0  0  0
  -30.3000  -18.4158   19.8296 C   0  0  0  0  0  0
  -28.4287  -19.7171   21.3805 C   0  0  0  0  0  0
  -30.0556  -19.8651   19.6845 C   0  0  0  0  0  0
  -29.0920  -20.5857   20.4920 C   0  0  0  0  0  0
  -29.6381  -17.5418   20.7769 C   0  0  0  0  0  0
  -28.8506  -23.3375   20.1480 C   0  0  0  0  0  0
  -27.4659  -21.9357   21.6238 C   0  0  0  0  0  0
  -27.4363  -20.4977   22.1968 C   0  0  2  0  0  0
  -30.8580  -20.6196   18.6414 C   0  0  0  0  0  0
  -29.7156  -15.8069   22.5674 C   0  0  0  0  0  0
  -27.9333  -24.6738   20.5365 C   0  0  0  0  0  0
  -28.5623  -22.0221   20.6408 N   0  0  0  0  0  0
  -29.8893  -16.0489   21.1230 N   0  0  0  0  0  0
  -29.8058  -23.5233   19.3869 O   0  0  0  0  0  0
  -27.8270  -20.5115   23.4723 F   0  0  0  0  0  0
  -31.4709  -12.7801   19.1702 H   0  0  0  0  0  0
  -30.4658  -11.6397   20.0047 H   0  0  0  0  0  0
  -29.8446  -11.7684   17.5686 H   0  0  0  0  0  0
  -29.5984  -13.4903   17.7022 H   0  0  0  0  0  0
  -27.9482  -11.2791   18.9555 H   0  0  0  0  0  0
  -27.3912  -12.4707   17.8078 H   0  0  0  0  0  0
  -27.6093  -14.2540   19.4329 H   0  0  0  0  0  0
  -28.7558  -12.2214   21.4038 H   0  0  0  0  0  0
  -28.3114  -13.8519   21.7819 H   0  0  0  0  0  0
  -25.2765   -9.5695   22.4739 H   0  0  0  0  0  0
  -24.0022   -7.4631   22.7444 H   0  0  0  0  0  0
  -21.0868   -8.8762   19.8923 H   0  0  0  0  0  0
  -22.3714  -10.9662   19.6136 H   0  0  0  0  0  0
  -21.2007   -7.6131   23.9726 H   0  0  0  0  0  0
  -21.1474   -6.0505   25.9085 H   0  0  0  0  0  0
  -22.0602   -2.7607   23.2848 H   0  0  0  0  0  0
  -22.4116  -11.9850   22.4829 H   0  0  0  0  0  0
  -21.1058  -13.1155   22.2641 H   0  0  0  0  0  0
  -24.6514  -15.8503   20.5270 H   0  0  0  0  0  0
  -26.2801  -15.6381   20.1299 H   0  0  0  0  0  0
  -26.7266  -32.5316   23.1012 H   0  0  0  0  0  0
  -25.0184  -33.9639   25.0395 H   0  0  0  0  0  0
  -22.7478  -31.2867   21.3784 H   0  0  0  0  0  0
  -23.3729  -35.9580   23.3250 H   0  0  0  0  0  0
  -24.3585  -36.8962   22.2072 H   0  0  0  0  0  0
  -23.7206  -37.6417   23.6743 H   0  0  0  0  0  0
  -26.1439  -31.4702   20.6049 H   0  0  0  0  0  0
  -26.8778  -30.7833   22.0192 H   0  0  0  0  0  0
  -28.1403  -28.8055   21.2382 H   0  0  0  0  0  0
  -25.9451  -25.8687   18.9622 H   0  0  0  0  0  0
  -23.9938  -27.3095   18.9613 H   0  0  0  0  0  0
  -23.8093  -30.5644   19.3977 H   0  0  0  0  0  0
  -22.7908  -29.2304   19.8445 H   0  0  0  0  0  0
  -25.1268  -36.1807   25.0782 H   0  0  0  0  0  0
  -20.9990  -28.3267   24.1360 H   0  0  0  0  0  0
  -20.5652  -26.2310   23.3618 H   0  0  0  0  0  0
  -21.6616  -26.7376   22.1209 H   0  0  0  0  0  0
  -19.6888  -25.6274   21.1254 H   0  0  0  0  0  0
  -19.6666  -27.3156   20.6724 H   0  0  0  0  0  0
  -17.4184  -26.6698   21.3997 H   0  0  0  0  0  0
  -18.0262  -26.0040   22.8991 H   0  0  0  0  0  0
  -19.7963  -30.7285   24.2202 H   0  0  0  0  0  0
  -17.5031  -31.6266   24.5146 H   0  0  0  0  0  0
  -15.5367  -30.2965   23.7692 H   0  0  0  0  0  0
  -15.8668  -28.0808   22.7090 H   0  0  0  0  0  0
  -24.5953  -30.7046   25.7798 H   0  0  0  0  0  0
  -24.8918  -32.2921   26.4813 H   0  0  0  0  0  0
  -25.8070  -30.9004   27.0263 H   0  0  0  0  0  0
  -26.3103  -29.6687   24.1289 H   0  0  0  0  0  0
  -27.4095  -29.7297   25.4857 H   0  0  0  0  0  0
  -27.8959  -30.4268   23.9593 H   0  0  0  0  0  0
  -27.2631  -33.3737   26.1958 H   0  0  0  0  0  0
  -28.3954  -32.6852   25.0425 H   0  0  0  0  0  0
  -28.0601  -31.8601   26.5591 H   0  0  0  0  0  0
  -28.2479  -38.0134   24.7598 H   0  0  0  0  0  0
  -28.1129  -36.2674   24.6127 H   0  0  0  0  0  0
  -27.2305  -37.1214   25.8850 H   0  0  0  0  0  0
  -20.9457  -29.8878   21.6926 H   0  0  0  0  0  0
  -26.0071  -38.2774   24.1556 H   0  0  0  0  0  0
  -28.0687  -17.8020   22.2724 H   0  0  0  0  0  0
  -31.0576  -17.9666   19.2032 H   0  0  0  0  0  0
  -27.5833  -22.6485   22.4400 H   0  0  0  0  0  0
  -26.5211  -22.1498   21.1220 H   0  0  0  0  0  0
  -26.4389  -20.0577   22.1572 H   0  0  0  0  0  0
  -31.5482  -19.9612   18.1116 H   0  0  0  0  0  0
  -31.4478  -21.4086   19.1077 H   0  0  0  0  0  0
  -30.1971  -21.0708   17.9013 H   0  0  0  0  0  0
  -30.1377  -16.6299   23.1466 H   0  0  0  0  0  0
  -30.2129  -14.9063   22.9364 H   0  0  0  0  0  0
  -28.6604  -15.7332   22.8303 H   0  0  0  0  0  0
  -27.8540  -24.6851   21.6233 H   0  0  0  0  0  0
  -26.9330  -24.4323   20.1855 H   0  0  0  0  0  0
  1 25  1  0  0  0
  1 30  2  0  0  0
  1 84  1  0  0  0
  2  3  1  0  0  0
  2 25  1  0  0  0
  2 87  1  0  0  0
  2 88  1  0  0  0
  3  4  1  0  0  0
  3 89  1  0  0  0
  3 90  1  0  0  0
  4  5  1  0  0  0
  4 91  1  0  0  0
  4 92  1  0  0  0
  5  6  1  0  0  0
  5 26  1  0  0  0
  5 93  1  0  0  0
  6 25  1  0  0  0
  6 94  1  0  0  0
  6 95  1  0  0  0
  7  8  2  0  0  0
  7 26  1  0  0  0
  7 29  1  0  0  0
  8  9  1  0  0  0
  8 22  1  0  0  0
  9 10  1  0  0  0
  9 27  2  0  0  0
 10 11  2  0  0  0
 10 15  1  0  0  0
 11 12  1  0  0  0
 11 96  1  0  0  0
 12 13  2  0  0  0
 12 97  1  0  0  0
 13 14  1  0  0  0
 13 31  1  0  0  0
 14 15  2  0  0  0
 14 98  1  0  0  0
 15 99  1  0  0  0
 16 17  2  0  0  0
 16 21  1  0  0  0
 16 31  1  0  0  0
 17 18  1  0  0  0
 17100  1  0  0  0
 18 19  2  0  0  0
 18101  1  0  0  0
 19 20  1  0  0  0
 19 24  1  0  0  0
 20 21  2  0  0  0
 20102  1  0  0  0
 21 23  1  0  0  0
 22 28  1  0  0  0
 22 32  2  0  0  0
 26 27  1  0  0  0
 28103  1  0  0  0
 28104  1  0  0  0
 29105  1  0  0  0
 29106  1  0  0  0
 33 34  1  0  0  0
 33 66  1  0  0  0
 33 70  2  0  0  0
 34 36  1  0  0  0
 34 59  1  0  0  0
 34107  1  0  0  0
 35 44  2  0  0  0
 35 45  1  0  0  0
 35 68  1  0  0  0
 36 56  1  0  0  0
 36108  1  0  0  0
 37 39  1  0  0  0
 37 47  1  0  0  0
 37 66  1  0  0  0
 37109  1  0  0  0
 38 43  2  0  0  0
 38 46  1  0  0  0
 38 47  1  0  0  0
 39 64  1  0  0  0
 39 67  2  0  0  0
 40 52  1  0  0  0
 40 53  2  0  0  0
 40 58  1  0  0  0
 41110  1  0  0  0
 41111  1  0  0  0
 41112  1  0  0  0
 41 48  1  0  0  0
 42 43  1  0  0  0
 42 66  1  0  0  0
 42113  1  0  0  0
 42114  1  0  0  0
 43 44  1  0  0  0
 44115  1  0  0  0
 45 46  2  0  0  0
 45116  1  0  0  0
 46117  1  0  0  0
 47118  1  0  0  0
 47119  1  0  0  0
 48 56  1  0  0  0
 48 65  1  0  0  0
 48120  1  0  0  0
 49 50  1  0  0  0
 49 53  1  0  0  0
 49 64  1  0  0  0
 49121  1  0  0  0
 50 51  1  0  0  0
 50122  1  0  0  0
 50123  1  0  0  0
 51 52  1  0  0  0
 51124  1  0  0  0
 51125  1  0  0  0
 52126  1  0  0  0
 52127  1  0  0  0
 53 54  1  0  0  0
 54 55  2  0  0  0
 54128  1  0  0  0
 55 57  1  0  0  0
 55129  1  0  0  0
 56 69  2  0  0  0
 57 58  2  0  0  0
 57130  1  0  0  0
 58131  1  0  0  0
 59 60  1  0  0  0
 59 61  1  0  0  0
 59 62  1  0  0  0
 60132  1  0  0  0
 60133  1  0  0  0
 60134  1  0  0  0
 61135  1  0  0  0
 61136  1  0  0  0
 61137  1  0  0  0
 62138  1  0  0  0
 62139  1  0  0  0
 62140  1  0  0  0
 63 65  1  0  0  0
 63141  1  0  0  0
 63142  1  0  0  0
 63143  1  0  0  0
 64144  1  0  0  0
 65145  1  0  0  0
 68 82  1  0  0  0
 71 73  2  0  0  0
 71 76  1  0  0  0
 71146  1  0  0  0
 72 74  1  0  0  0
 72 76  2  0  0  0
 72147  1  0  0  0
 73 75  1  0  0  0
 73 79  1  0  0  0
 74 75  2  0  0  0
 74 80  1  0  0  0
 75 83  1  0  0  0
 76 84  1  0  0  0
 77 82  1  0  0  0
 77 83  1  0  0  0
 77 85  2  0  0  0
 78 79  1  0  0  0
 78 83  1  0  0  0
 78148  1  0  0  0
 78149  1  0  0  0
 79 86  1  0  0  0
 79150  1  0  0  0
 80151  1  0  0  0
 80152  1  0  0  0
 80153  1  0  0  0
 81 84  1  0  0  0
 81154  1  0  0  0
 81155  1  0  0  0
 81156  1  0  0  0
 82157  1  0  0  0
 82158  1  0  0  0
M  ISO  4   1 100  68 101  82 101  84 100
M  END
> <chiral flag>
0

> <version>
0

> <s_m_source_file>
/data/baiqing/PycharmProjects/Reinvent-master-3.2/result/LINK_invent/BTK/process_docking_weight1_custom_sum_contain_oxygen_bond_distance_aromatic_linkinvent_7_9_3/rearranged_h_0007.sdf

> <i_m_source_file_index>
63

> <r_mmod_Potential_Energy-OPLS-2005>
769.347412109375

> <r_mmod_Stretch_Energy-OPLS-2005>
252.897277832031

> <r_mmod_Bend_Energy-OPLS-2005>
339.717742919922

> <r_mmod_Torsional_Energy-OPLS-2005>
333.877044677734

> <r_mmod_Improper_Torsional_Energy-OPLS-2005>
2.76621794700623

> <r_mmod_Van_der_Waal_Energy-OPLS-2005>
142.210800170898

> <r_mmod_Electrostatic_Energy-OPLS-2005>
-271.563934326172

> <r_mmod_Solvation_Energy-OPLS-2005>
-213.263259887695

> <b_mmod_Minimization_Converged-OPLS-2005>
0

> <r_mmod_RMS_Derivative-OPLS-2005>
2.18801832199097

$$$$
63
                    3D
 Structure written by MMmdl.
151159  0  0  1  0            999 V2000
  -30.5184  -14.9133   20.4488 C   0  0  0  0  0  0
  -30.4537  -12.5641   19.4961 C   0  0  0  0  0  0
  -29.5267  -12.5371   18.2565 C   0  0  0  0  0  0
  -28.0568  -12.3264   18.6694 C   0  0  0  0  0  0
  -27.6400  -13.2395   19.8514 C   0  0  2  0  0  0
  -28.6835  -13.2143   20.9904 C   0  0  0  0  0  0
  -25.2468  -13.8172   20.5628 C   0  0  0  0  0  0
  -24.1792  -13.0419   20.9214 C   0  0  0  0  0  0
  -24.6407  -11.6906   20.8765 C   0  0  0  0  0  0
  -23.9083  -10.4284   21.0418 C   0  0  0  0  0  0
  -24.3628   -9.4197   21.9194 C   0  0  0  0  0  0
  -23.6296   -8.2236   22.0758 C   0  0  0  0  0  0
  -22.4278   -8.0280   21.3546 C   0  0  0  0  0  0
  -21.9919   -9.0257   20.4650 C   0  0  0  0  0  0
  -22.7255  -10.2133   20.3064 C   0  0  0  0  0  0
  -21.6852   -6.0736   22.5279 C   0  0  0  0  0  0
  -21.4014   -6.5640   23.8213 C   0  0  0  0  0  0
  -21.3659   -5.6793   24.9175 C   0  0  0  0  0  0
  -21.6045   -4.3056   24.7225 C   0  0  0  0  0  0
  -21.8819   -3.8147   23.4347 C   0  0  0  0  0  0
  -21.9192   -4.6963   22.3402 C   0  0  0  0  0  0
  -22.7814  -13.5203   21.1870 C   0  0  0  0  0  0
  -22.1662   -4.2149   21.0979 F   0  0  0  0  0  0
  -21.5627   -3.4540   25.7738 F   0  0  0  0  0  0
  -29.9702  -13.6335   20.4127 N   0  0  0  0  0  0
  -26.2929  -12.9407   20.3270 N   0  0  0  0  0  0
  -25.9347  -11.6548   20.5776 N   0  0  0  0  0  0
  -22.0463  -12.8201   22.0434 N   0  0  0  0  0  0
  -25.4061  -15.1875   20.3876 N   0  0  0  0  0  0
  -31.6950  -15.0540   20.0961 O   0  0  0  0  0  0
  -21.6639   -6.8880   21.4242 O   0  0  0  0  0  0
  -22.3498  -14.5508   20.6714 O   0  0  0  0  0  0
  -24.6430  -31.8455   23.1896 C   0  0  0  0  0  0
  -25.9205  -32.4704   23.8283 C   0  0  1  0  0  0
  -27.2207  -27.1482   20.1460 C   0  0  0  0  0  0
  -25.5955  -33.8509   24.2199 N   0  0  0  0  0  0
  -23.4460  -30.4658   21.5353 C   0  0  2  0  0  0
  -24.8954  -28.8957   20.1121 C   0  0  0  0  0  0
  -22.7567  -29.4556   22.4865 C   0  0  0  0  0  0
  -18.0306  -28.1395   22.8477 C   0  0  0  0  0  0
  -24.1491  -36.7258   23.2641 C   0  0  0  0  0  0
  -26.0022  -30.7231   21.3870 C   0  0  0  0  0  0
  -26.0741  -29.3359   20.7276 C   0  0  0  0  0  0
  -27.2381  -28.4795   20.7258 C   0  0  0  0  0  0
  -26.0118  -26.8081   19.4964 C   0  0  0  0  0  0
  -24.8766  -27.6443   19.4819 C   0  0  0  0  0  0
  -23.6721  -29.7967   20.1545 C   0  0  0  0  0  0
  -25.4123  -36.3037   24.0316 C   0  0  1  0  0  0
  -20.5918  -28.3721   23.1235 C   0  0  2  0  0  0
  -20.6790  -26.9425   22.5401 C   0  0  0  0  0  0
  -19.5762  -26.6380   21.5211 C   0  0  0  0  0  0
  -18.1945  -26.7933   22.1625 C   0  0  0  0  0  0
  -19.1563  -28.8876   23.2848 C   0  0  0  0  0  0
  -18.9479  -30.1472   23.8874 C   0  0  0  0  0  0
  -17.6475  -30.6590   24.0559 C   0  0  0  0  0  0
  -25.9073  -34.9412   23.5065 C   0  0  0  0  0  0
  -16.5366  -29.9083   23.6336 C   0  0  0  0  0  0
  -16.7290  -28.6502   23.0356 C   0  0  0  0  0  0
  -26.4528  -31.6568   25.0720 C   0  0  0  0  0  0
  -25.3715  -31.3756   26.1417 C   0  0  0  0  0  0
  -27.0394  -30.2966   24.6296 C   0  0  0  0  0  0
  -27.6057  -32.4336   25.7507 C   0  0  0  0  0  0
  -27.5577  -37.1785   24.8465 C   0  0  0  0  0  0
  -21.4260  -29.3049   22.3611 N   0  0  0  0  0  0
  -26.4288  -37.3748   23.9409 N   0  0  0  0  0  0
  -24.7169  -31.0321   22.0925 N   0  0  0  0  0  0
  -23.4213  -28.8102   23.3012 O   0  0  0  0  0  0
  -28.2809  -26.1712   20.2041 O   0  0  0  0  0  0
  -26.5657  -34.8906   22.4643 O   0  0  0  0  0  0
  -23.5550  -32.1327   23.7121 O   0  0  0  0  0  0
  -30.3184  -18.4859   19.9208 C   0  0  0  0  0  0
  -30.0266  -19.9256   19.8717 C   0  0  0  0  0  0
  -28.2468  -19.5938   21.3713 C   0  0  0  0  0  0
  -28.5369  -18.1795   21.4468 C   0  0  0  0  0  0
  -29.5729  -17.5237   20.6995 C   0  0  0  0  0  0
  -28.9452  -20.5599   20.5850 C   0  0  0  0  0  0
  -27.6801  -17.3480   22.3878 C   0  0  0  0  0  0
  -27.9766  -24.6459   20.1466 C   0  0  0  0  0  0
  -28.9948  -23.3065   20.2617 C   0  0  0  0  0  0
  -29.6630  -15.9932   20.7657 N   0  0  0  0  0  0
  -28.4123  -21.9248   20.5748 O   0  0  0  0  0  0
  -31.4859  -12.7347   19.1864 H   0  0  0  0  0  0
  -30.4510  -11.5975   20.0023 H   0  0  0  0  0  0
  -29.8382  -11.7510   17.5675 H   0  0  0  0  0  0
  -29.6208  -13.4770   17.7103 H   0  0  0  0  0  0
  -27.9424  -11.2803   18.9560 H   0  0  0  0  0  0
  -27.3958  -12.4827   17.8161 H   0  0  0  0  0  0
  -27.6191  -14.2531   19.4504 H   0  0  0  0  0  0
  -28.7597  -12.2172   21.4265 H   0  0  0  0  0  0
  -28.3839  -13.8768   21.8040 H   0  0  0  0  0  0
  -25.2772   -9.5668   22.4773 H   0  0  0  0  0  0
  -24.0000   -7.4625   22.7477 H   0  0  0  0  0  0
  -21.0850   -8.8784   19.8955 H   0  0  0  0  0  0
  -22.3718  -10.9676   19.6176 H   0  0  0  0  0  0
  -21.2007   -7.6149   23.9716 H   0  0  0  0  0  0
  -21.1480   -6.0524   25.9079 H   0  0  0  0  0  0
  -22.0598   -2.7608   23.2848 H   0  0  0  0  0  0
  -22.4086  -11.9868   22.4827 H   0  0  0  0  0  0
  -21.1082  -13.1227   22.2642 H   0  0  0  0  0  0
  -24.6229  -15.8264   20.4705 H   0  0  0  0  0  0
  -26.2250  -15.6191   19.9796 H   0  0  0  0  0  0
  -26.7272  -32.5316   23.1014 H   0  0  0  0  0  0
  -25.0086  -33.9627   25.0335 H   0  0  0  0  0  0
  -22.7479  -31.2915   21.3819 H   0  0  0  0  0  0
  -23.3759  -35.9583   23.3292 H   0  0  0  0  0  0
  -24.3576  -36.8901   22.2058 H   0  0  0  0  0  0
  -23.7239  -37.6447   23.6686 H   0  0  0  0  0  0
  -26.1575  -31.4788   20.6158 H   0  0  0  0  0  0
  -26.8728  -30.7722   22.0294 H   0  0  0  0  0  0
  -28.1370  -28.8137   21.2247 H   0  0  0  0  0  0
  -25.9006  -25.8572   19.0008 H   0  0  0  0  0  0
  -23.9769  -27.3015   18.9893 H   0  0  0  0  0  0
  -23.8091  -30.5716   19.3995 H   0  0  0  0  0  0
  -22.7870  -29.2388   19.8433 H   0  0  0  0  0  0
  -25.1310  -36.1867   25.0808 H   0  0  0  0  0  0
  -21.0011  -28.3309   24.1356 H   0  0  0  0  0  0
  -20.5685  -26.2335   23.3620 H   0  0  0  0  0  0
  -21.6656  -26.7431   22.1199 H   0  0  0  0  0  0
  -19.6923  -25.6285   21.1255 H   0  0  0  0  0  0
  -19.6697  -27.3178   20.6730 H   0  0  0  0  0  0
  -17.4213  -26.6675   21.4031 H   0  0  0  0  0  0
  -18.0347  -26.0081   22.9028 H   0  0  0  0  0  0
  -19.7955  -30.7295   24.2232 H   0  0  0  0  0  0
  -17.5028  -31.6268   24.5164 H   0  0  0  0  0  0
  -15.5365  -30.2978   23.7671 H   0  0  0  0  0  0
  -15.8692  -28.0812   22.7084 H   0  0  0  0  0  0
  -24.5892  -30.7108   25.7736 H   0  0  0  0  0  0
  -24.8908  -32.2939   26.4799 H   0  0  0  0  0  0
  -25.7998  -30.8953   27.0223 H   0  0  0  0  0  0
  -26.3012  -29.6688   24.1293 H   0  0  0  0  0  0
  -27.4000  -29.7265   25.4869 H   0  0  0  0  0  0
  -27.8923  -30.4206   23.9620 H   0  0  0  0  0  0
  -27.2646  -33.3651   26.2038 H   0  0  0  0  0  0
  -28.3893  -32.6875   25.0355 H   0  0  0  0  0  0
  -28.0699  -31.8495   26.5463 H   0  0  0  0  0  0
  -28.2586  -38.0089   24.7516 H   0  0  0  0  0  0
  -28.1081  -36.2619   24.6289 H   0  0  0  0  0  0
  -27.2295  -37.1427   25.8868 H   0  0  0  0  0  0
  -20.9470  -29.8765   21.6792 H   0  0  0  0  0  0
  -26.0155  -38.2816   24.1415 H   0  0  0  0  0  0
  -31.1286  -18.1183   19.3072 H   0  0  0  0  0  0
  -30.6357  -20.5409   19.2249 H   0  0  0  0  0  0
  -27.4171  -19.9665   21.9553 H   0  0  0  0  0  0
  -26.9652  -17.9613   22.9370 H   0  0  0  0  0  0
  -28.3053  -16.8382   23.1216 H   0  0  0  0  0  0
  -27.1161  -16.5983   21.8387 H   0  0  0  0  0  0
  -27.2255  -24.4986   20.9233 H   0  0  0  0  0  0
  -27.4511  -24.4744   19.2093 H   0  0  0  0  0  0
  -29.7196  -23.5100   21.0500 H   0  0  0  0  0  0
  -29.5768  -23.2284   19.3433 H   0  0  0  0  0  0
  -28.8076  -15.6037   21.1294 H   0  0  0  0  0  0
  1 25  1  0  0  0
  1 30  2  0  0  0
  1 80  1  0  0  0
  2  3  1  0  0  0
  2 25  1  0  0  0
  2 82  1  0  0  0
  2 83  1  0  0  0
  3  4  1  0  0  0
  3 84  1  0  0  0
  3 85  1  0  0  0
  4  5  1  0  0  0
  4 86  1  0  0  0
  4 87  1  0  0  0
  5  6  1  0  0  0
  5 26  1  0  0  0
  5 88  1  0  0  0
  6 25  1  0  0  0
  6 89  1  0  0  0
  6 90  1  0  0  0
  7  8  2  0  0  0
  7 26  1  0  0  0
  7 29  1  0  0  0
  8  9  1  0  0  0
  8 22  1  0  0  0
  9 10  1  0  0  0
  9 27  2  0  0  0
 10 11  2  0  0  0
 10 15  1  0  0  0
 11 12  1  0  0  0
 11 91  1  0  0  0
 12 13  2  0  0  0
 12 92  1  0  0  0
 13 14  1  0  0  0
 13 31  1  0  0  0
 14 15  2  0  0  0
 14 93  1  0  0  0
 15 94  1  0  0  0
 16 17  2  0  0  0
 16 21  1  0  0  0
 16 31  1  0  0  0
 17 18  1  0  0  0
 17 95  1  0  0  0
 18 19  2  0  0  0
 18 96  1  0  0  0
 19 20  1  0  0  0
 19 24  1  0  0  0
 20 21  2  0  0  0
 20 97  1  0  0  0
 21 23  1  0  0  0
 22 28  1  0  0  0
 22 32  2  0  0  0
 26 27  1  0  0  0
 28 98  1  0  0  0
 28 99  1  0  0  0
 29100  1  0  0  0
 29101  1  0  0  0
 33 34  1  0  0  0
 33 66  1  0  0  0
 33 70  2  0  0  0
 34 36  1  0  0  0
 34 59  1  0  0  0
 34102  1  0  0  0
 35 44  2  0  0  0
 35 45  1  0  0  0
 35 68  1  0  0  0
 36 56  1  0  0  0
 36103  1  0  0  0
 37 39  1  0  0  0
 37 47  1  0  0  0
 37 66  1  0  0  0
 37104  1  0  0  0
 38 43  2  0  0  0
 38 46  1  0  0  0
 38 47  1  0  0  0
 39 64  1  0  0  0
 39 67  2  0  0  0
 40 52  1  0  0  0
 40 53  2  0  0  0
 40 58  1  0  0  0
 41105  1  0  0  0
 41106  1  0  0  0
 41107  1  0  0  0
 41 48  1  0  0  0
 42 43  1  0  0  0
 42 66  1  0  0  0
 42108  1  0  0  0
 42109  1  0  0  0
 43 44  1  0  0  0
 44110  1  0  0  0
 45 46  2  0  0  0
 45111  1  0  0  0
 46112  1  0  0  0
 47113  1  0  0  0
 47114  1  0  0  0
 48 56  1  0  0  0
 48 65  1  0  0  0
 48115  1  0  0  0
 49 50  1  0  0  0
 49 53  1  0  0  0
 49 64  1  0  0  0
 49116  1  0  0  0
 50 51  1  0  0  0
 50117  1  0  0  0
 50118  1  0  0  0
 51 52  1  0  0  0
 51119  1  0  0  0
 51120  1  0  0  0
 52121  1  0  0  0
 52122  1  0  0  0
 53 54  1  0  0  0
 54 55  2  0  0  0
 54123  1  0  0  0
 55 57  1  0  0  0
 55124  1  0  0  0
 56 69  2  0  0  0
 57 58  2  0  0  0
 57125  1  0  0  0
 58126  1  0  0  0
 59 60  1  0  0  0
 59 61  1  0  0  0
 59 62  1  0  0  0
 60127  1  0  0  0
 60128  1  0  0  0
 60129  1  0  0  0
 61130  1  0  0  0
 61131  1  0  0  0
 61132  1  0  0  0
 62133  1  0  0  0
 62134  1  0  0  0
 62135  1  0  0  0
 63 65  1  0  0  0
 63136  1  0  0  0
 63137  1  0  0  0
 63138  1  0  0  0
 64139  1  0  0  0
 65140  1  0  0  0
 68 78  1  0  0  0
 71 72  2  0  0  0
 71 75  1  0  0  0
 71141  1  0  0  0
 72 76  1  0  0  0
 72142  1  0  0  0
 73 74  1  0  0  0
 73 76  2  0  0  0
 73143  1  0  0  0
 74 75  2  0  0  0
 74 77  1  0  0  0
 75 80  1  0  0  0
 76 81  1  0  0  0
 77144  1  0  0  0
 77145  1  0  0  0
 77146  1  0  0  0
 78 79  1  0  0  0
 78147  1  0  0  0
 78148  1  0  0  0
 79 81  1  0  0  0
 79149  1  0  0  0
 79150  1  0  0  0
 80151  1  0  0  0
M  ISO  4   1 100  68 101  78 101  80 100
M  END
> <chiral flag>
0

> <version>
0

> <s_m_source_file>
/data/baiqing/PycharmProjects/Reinvent-master-3.2/result/LINK_invent/BTK/process_docking_weight1_custom_sum_contain_oxygen_bond_distance_aromatic_linkinvent_7_9_3/rearranged_h_0007.sdf

> <i_m_source_file_index>
64

> <r_mmod_Potential_Energy-OPLS-2005>
450.374176025391

> <r_mmod_Stretch_Energy-OPLS-2005>
220.072540283203

> <r_mmod_Bend_Energy-OPLS-2005>
300.924438476562

> <r_mmod_Torsional_Energy-OPLS-2005>
220.343322753906

> <r_mmod_Improper_Torsional_Energy-OPLS-2005>
3.81109833717346

> <r_mmod_Van_der_Waal_Energy-OPLS-2005>
132.919097900391

> <r_mmod_Electrostatic_Energy-OPLS-2005>
-390.617248535156

> <r_mmod_Solvation_Energy-OPLS-2005>
-211.13166809082

> <b_mmod_Minimization_Converged-OPLS-2005>
0

> <r_mmod_RMS_Derivative-OPLS-2005>
0.254078179597855

$$$$
64
                    3D
 Structure written by MMmdl.
151159  0  0  1  0            999 V2000
  -30.6207  -14.6404   20.5017 C   0  0  0  0  0  0
  -30.4366  -12.3919   19.4535 C   0  0  0  0  0  0
  -29.5098  -12.5192   18.2233 C   0  0  0  0  0  0
  -28.0301  -12.3614   18.6287 C   0  0  0  0  0  0
  -27.6546  -13.2197   19.8662 C   0  0  2  0  0  0
  -28.6989  -13.0661   20.9954 C   0  0  0  0  0  0
  -25.2562  -13.8176   20.5677 C   0  0  0  0  0  0
  -24.1832  -13.0437   20.9184 C   0  0  0  0  0  0
  -24.6408  -11.6909   20.8734 C   0  0  0  0  0  0
  -23.9071  -10.4294   21.0403 C   0  0  0  0  0  0
  -24.3624   -9.4210   21.9184 C   0  0  0  0  0  0
  -23.6305   -8.2243   22.0754 C   0  0  0  0  0  0
  -22.4286   -8.0284   21.3541 C   0  0  0  0  0  0
  -21.9914   -9.0260   20.4646 C   0  0  0  0  0  0
  -22.7240  -10.2138   20.3055 C   0  0  0  0  0  0
  -21.6857   -6.0737   22.5278 C   0  0  0  0  0  0
  -21.4014   -6.5640   23.8212 C   0  0  0  0  0  0
  -21.3660   -5.6793   24.9175 C   0  0  0  0  0  0
  -21.6046   -4.3057   24.7221 C   0  0  0  0  0  0
  -21.8818   -3.8145   23.4342 C   0  0  0  0  0  0
  -21.9192   -4.6963   22.3399 C   0  0  0  0  0  0
  -22.7853  -13.5234   21.1843 C   0  0  0  0  0  0
  -22.1661   -4.2148   21.0977 F   0  0  0  0  0  0
  -21.5634   -3.4541   25.7733 F   0  0  0  0  0  0
  -30.0151  -13.4116   20.4353 N   0  0  0  0  0  0
  -26.2997  -12.9363   20.3319 N   0  0  0  0  0  0
  -25.9335  -11.6512   20.5749 N   0  0  0  0  0  0
  -22.0486  -12.8240   22.0403 N   0  0  0  0  0  0
  -25.4262  -15.1899   20.4079 N   0  0  0  0  0  0
  -31.7816  -14.8007   20.1137 O   0  0  0  0  0  0
  -21.6645   -6.8881   21.4242 O   0  0  0  0  0  0
  -22.3545  -14.5541   20.6689 O   0  0  0  0  0  0
  -24.6261  -31.8609   23.2045 C   0  0  0  0  0  0
  -25.9106  -32.4786   23.8370 C   0  0  1  0  0  0
  -27.2208  -27.3184   20.1168 C   0  0  0  0  0  0
  -25.5922  -33.8588   24.2296 N   0  0  0  0  0  0
  -23.4191  -30.4865   21.5481 C   0  0  2  0  0  0
  -24.8644  -28.9431   20.1147 C   0  0  0  0  0  0
  -22.7475  -29.4631   22.4947 C   0  0  0  0  0  0
  -18.0285  -28.1384   22.8493 C   0  0  0  0  0  0
  -24.1484  -36.7305   23.2639 C   0  0  0  0  0  0
  -25.9610  -30.7917   21.3754 C   0  0  0  0  0  0
  -26.0348  -29.4188   20.7191 C   0  0  0  0  0  0
  -27.2166  -28.6186   20.7108 C   0  0  0  0  0  0
  -26.0277  -26.9035   19.4793 C   0  0  0  0  0  0
  -24.8629  -27.6902   19.4870 C   0  0  0  0  0  0
  -23.6338  -29.8253   20.1625 C   0  0  0  0  0  0
  -25.4108  -36.3093   24.0334 C   0  0  1  0  0  0
  -20.5887  -28.3687   23.1297 C   0  0  2  0  0  0
  -20.6778  -26.9412   22.5417 C   0  0  0  0  0  0
  -19.5748  -26.6383   21.5224 C   0  0  0  0  0  0
  -18.1930  -26.7927   22.1635 C   0  0  0  0  0  0
  -19.1538  -28.8852   23.2889 C   0  0  0  0  0  0
  -18.9458  -30.1459   23.8898 C   0  0  0  0  0  0
  -17.6457  -30.6586   24.0566 C   0  0  0  0  0  0
  -25.9048  -34.9459   23.5116 C   0  0  0  0  0  0
  -16.5350  -29.9089   23.6324 C   0  0  0  0  0  0
  -16.7273  -28.6507   23.0345 C   0  0  0  0  0  0
  -26.4484  -31.6584   25.0734 C   0  0  0  0  0  0
  -25.3716  -31.3731   26.1462 C   0  0  0  0  0  0
  -27.0320  -30.3006   24.6178 C   0  0  0  0  0  0
  -27.6040  -32.4319   25.7509 C   0  0  0  0  0  0
  -27.5581  -37.1809   24.8464 C   0  0  0  0  0  0
  -21.4188  -29.3042   22.3692 N   0  0  0  0  0  0
  -26.4287  -37.3788   23.9414 N   0  0  0  0  0  0
  -24.6878  -31.0628   22.0996 N   0  0  0  0  0  0
  -23.4204  -28.8162   23.3016 O   0  0  0  0  0  0
  -28.3380  -26.4663   20.1474 O   0  0  0  0  0  0
  -26.5621  -34.8920   22.4686 O   0  0  0  0  0  0
  -23.5426  -32.1409   23.7376 O   0  0  0  0  0  0
  -30.9863  -17.8445   20.1353 C   0  0  0  0  0  0
  -30.9685  -19.2641   19.9932 C   0  0  0  0  0  0
  -28.7959  -17.9532   21.1125 C   0  0  0  0  0  0
  -29.8921  -17.1406   20.7028 C   0  0  0  0  0  0
  -29.8751  -20.0780   20.4000 C   0  0  0  0  0  0
  -28.7766  -19.3749   20.9706 C   0  0  0  0  0  0
  -29.2657  -23.9632   20.2182 C   0  0  0  0  0  0
  -28.0896  -25.0186   20.3689 C   0  0  0  0  0  0
  -28.9132  -22.4303   20.4994 C   0  0  0  0  0  0
  -29.8096  -15.6840   20.8721 N   0  0  0  0  0  0
  -29.9850  -21.4758   20.2123 O   0  0  0  0  0  0
  -27.6825  -20.0505   21.3985 F   0  0  0  0  0  0
  -31.4800  -12.5130   19.1578 H   0  0  0  0  0  0
  -30.3636  -11.3933   19.8877 H   0  0  0  0  0  0
  -29.7745  -11.7737   17.4721 H   0  0  0  0  0  0
  -29.6578  -13.4925   17.7514 H   0  0  0  0  0  0
  -27.8564  -11.3069   18.8449 H   0  0  0  0  0  0
  -27.3814  -12.6100   17.7878 H   0  0  0  0  0  0
  -27.6751  -14.2577   19.5349 H   0  0  0  0  0  0
  -28.7070  -12.0412   21.3704 H   0  0  0  0  0  0
  -28.4466  -13.6905   21.8533 H   0  0  0  0  0  0
  -25.2762   -9.5698   22.4766 H   0  0  0  0  0  0
  -24.0009   -7.4636   22.7478 H   0  0  0  0  0  0
  -21.0837   -8.8783   19.8964 H   0  0  0  0  0  0
  -22.3691  -10.9683   19.6175 H   0  0  0  0  0  0
  -21.2008   -7.6150   23.9716 H   0  0  0  0  0  0
  -21.1488   -6.0523   25.9081 H   0  0  0  0  0  0
  -22.0595   -2.7607   23.2840 H   0  0  0  0  0  0
  -22.4089  -11.9910   22.4815 H   0  0  0  0  0  0
  -21.1103  -13.1286   22.2588 H   0  0  0  0  0  0
  -24.6535  -15.8392   20.5078 H   0  0  0  0  0  0
  -26.2659  -15.6258   20.0488 H   0  0  0  0  0  0
  -26.7176  -32.5454   23.1120 H   0  0  0  0  0  0
  -25.0041  -33.9736   25.0421 H   0  0  0  0  0  0
  -22.7122  -31.3072   21.4089 H   0  0  0  0  0  0
  -23.3742  -35.9641   23.3296 H   0  0  0  0  0  0
  -24.3581  -36.8930   22.2055 H   0  0  0  0  0  0
  -23.7231  -37.6505   23.6659 H   0  0  0  0  0  0
  -26.0901  -31.5536   20.6055 H   0  0  0  0  0  0
  -26.8432  -30.8433   22.0018 H   0  0  0  0  0  0
  -28.1141  -28.9809   21.1926 H   0  0  0  0  0  0
  -25.9631  -25.9651   18.9527 H   0  0  0  0  0  0
  -23.9688  -27.3238   19.0015 H   0  0  0  0  0  0
  -23.7580  -30.6052   19.4102 H   0  0  0  0  0  0
  -22.7510  -29.2610   19.8558 H   0  0  0  0  0  0
  -25.1278  -36.1954   25.0826 H   0  0  0  0  0  0
  -20.9986  -28.3259   24.1416 H   0  0  0  0  0  0
  -20.5700  -26.2292   23.3614 H   0  0  0  0  0  0
  -21.6645  -26.7453   22.1199 H   0  0  0  0  0  0
  -19.6912  -25.6297   21.1248 H   0  0  0  0  0  0
  -19.6681  -27.3198   20.6759 H   0  0  0  0  0  0
  -17.4202  -26.6681   21.4034 H   0  0  0  0  0  0
  -18.0319  -26.0066   22.9030 H   0  0  0  0  0  0
  -19.7934  -30.7281   24.2258 H   0  0  0  0  0  0
  -17.5009  -31.6264   24.5173 H   0  0  0  0  0  0
  -15.5352  -30.2993   23.7638 H   0  0  0  0  0  0
  -15.8675  -28.0836   22.7043 H   0  0  0  0  0  0
  -24.5875  -30.7096   25.7793 H   0  0  0  0  0  0
  -24.8922  -32.2904   26.4894 H   0  0  0  0  0  0
  -25.8038  -30.8898   27.0234 H   0  0  0  0  0  0
  -26.2896  -29.6772   24.1177 H   0  0  0  0  0  0
  -27.3990  -29.7243   25.4681 H   0  0  0  0  0  0
  -27.8778  -30.4287   23.9419 H   0  0  0  0  0  0
  -27.2638  -33.3610   26.2096 H   0  0  0  0  0  0
  -28.3847  -32.6897   25.0339 H   0  0  0  0  0  0
  -28.0707  -31.8436   26.5420 H   0  0  0  0  0  0
  -28.2592  -38.0112   24.7515 H   0  0  0  0  0  0
  -28.1081  -36.2644   24.6274 H   0  0  0  0  0  0
  -27.2308  -37.1443   25.8869 H   0  0  0  0  0  0
  -20.9359  -29.8783   21.6922 H   0  0  0  0  0  0
  -26.0170  -38.2865   24.1414 H   0  0  0  0  0  0
  -31.8602  -17.3082   19.7940 H   0  0  0  0  0  0
  -31.8306  -19.7434   19.5523 H   0  0  0  0  0  0
  -27.9270  -17.4854   21.5514 H   0  0  0  0  0  0
  -30.0869  -24.2585   20.8705 H   0  0  0  0  0  0
  -29.6558  -24.0408   19.2037 H   0  0  0  0  0  0
  -27.6780  -24.9194   21.3744 H   0  0  0  0  0  0
  -27.3178  -24.6505   19.6997 H   0  0  0  0  0  0
  -28.0446  -22.1532   19.9005 H   0  0  0  0  0  0
  -28.6236  -22.3281   21.5461 H   0  0  0  0  0  0
  -28.9203  -15.3590   21.2197 H   0  0  0  0  0  0
  1 25  1  0  0  0
  1 30  2  0  0  0
  1 80  1  0  0  0
  2  3  1  0  0  0
  2 25  1  0  0  0
  2 83  1  0  0  0
  2 84  1  0  0  0
  3  4  1  0  0  0
  3 85  1  0  0  0
  3 86  1  0  0  0
  4  5  1  0  0  0
  4 87  1  0  0  0
  4 88  1  0  0  0
  5  6  1  0  0  0
  5 26  1  0  0  0
  5 89  1  0  0  0
  6 25  1  0  0  0
  6 90  1  0  0  0
  6 91  1  0  0  0
  7  8  2  0  0  0
  7 26  1  0  0  0
  7 29  1  0  0  0
  8  9  1  0  0  0
  8 22  1  0  0  0
  9 10  1  0  0  0
  9 27  2  0  0  0
 10 11  2  0  0  0
 10 15  1  0  0  0
 11 12  1  0  0  0
 11 92  1  0  0  0
 12 13  2  0  0  0
 12 93  1  0  0  0
 13 14  1  0  0  0
 13 31  1  0  0  0
 14 15  2  0  0  0
 14 94  1  0  0  0
 15 95  1  0  0  0
 16 17  2  0  0  0
 16 21  1  0  0  0
 16 31  1  0  0  0
 17 18  1  0  0  0
 17 96  1  0  0  0
 18 19  2  0  0  0
 18 97  1  0  0  0
 19 20  1  0  0  0
 19 24  1  0  0  0
 20 21  2  0  0  0
 20 98  1  0  0  0
 21 23  1  0  0  0
 22 28  1  0  0  0
 22 32  2  0  0  0
 26 27  1  0  0  0
 28 99  1  0  0  0
 28100  1  0  0  0
 29101  1  0  0  0
 29102  1  0  0  0
 33 34  1  0  0  0
 33 66  1  0  0  0
 33 70  2  0  0  0
 34 36  1  0  0  0
 34 59  1  0  0  0
 34103  1  0  0  0
 35 44  2  0  0  0
 35 45  1  0  0  0
 35 68  1  0  0  0
 36 56  1  0  0  0
 36104  1  0  0  0
 37 39  1  0  0  0
 37 47  1  0  0  0
 37 66  1  0  0  0
 37105  1  0  0  0
 38 43  2  0  0  0
 38 46  1  0  0  0
 38 47  1  0  0  0
 39 64  1  0  0  0
 39 67  2  0  0  0
 40 52  1  0  0  0
 40 53  2  0  0  0
 40 58  1  0  0  0
 41106  1  0  0  0
 41107  1  0  0  0
 41108  1  0  0  0
 41 48  1  0  0  0
 42 43  1  0  0  0
 42 66  1  0  0  0
 42109  1  0  0  0
 42110  1  0  0  0
 43 44  1  0  0  0
 44111  1  0  0  0
 45 46  2  0  0  0
 45112  1  0  0  0
 46113  1  0  0  0
 47114  1  0  0  0
 47115  1  0  0  0
 48 56  1  0  0  0
 48 65  1  0  0  0
 48116  1  0  0  0
 49 50  1  0  0  0
 49 53  1  0  0  0
 49 64  1  0  0  0
 49117  1  0  0  0
 50 51  1  0  0  0
 50118  1  0  0  0
 50119  1  0  0  0
 51 52  1  0  0  0
 51120  1  0  0  0
 51121  1  0  0  0
 52122  1  0  0  0
 52123  1  0  0  0
 53 54  1  0  0  0
 54 55  2  0  0  0
 54124  1  0  0  0
 55 57  1  0  0  0
 55125  1  0  0  0
 56 69  2  0  0  0
 57 58  2  0  0  0
 57126  1  0  0  0
 58127  1  0  0  0
 59 60  1  0  0  0
 59 61  1  0  0  0
 59 62  1  0  0  0
 60128  1  0  0  0
 60129  1  0  0  0
 60130  1  0  0  0
 61131  1  0  0  0
 61132  1  0  0  0
 61133  1  0  0  0
 62134  1  0  0  0
 62135  1  0  0  0
 62136  1  0  0  0
 63 65  1  0  0  0
 63137  1  0  0  0
 63138  1  0  0  0
 63139  1  0  0  0
 64140  1  0  0  0
 65141  1  0  0  0
 68 78  1  0  0  0
 71 72  2  0  0  0
 71 74  1  0  0  0
 71142  1  0  0  0
 72 75  1  0  0  0
 72143  1  0  0  0
 73 74  2  0  0  0
 73 76  1  0  0  0
 73144  1  0  0  0
 74 80  1  0  0  0
 75 76  2  0  0  0
 75 81  1  0  0  0
 76 82  1  0  0  0
 77 78  1  0  0  0
 77 79  1  0  0  0
 77145  1  0  0  0
 77146  1  0  0  0
 78147  1  0  0  0
 78148  1  0  0  0
 79 81  1  0  0  0
 79149  1  0  0  0
 79150  1  0  0  0
 80151  1  0  0  0
M  ISO  4   1 100  68 101  78 101  80 100
M  END
> <chiral flag>
0

> <version>
0

> <s_m_source_file>
/data/baiqing/PycharmProjects/Reinvent-master-3.2/result/LINK_invent/BTK/process_docking_weight1_custom_sum_contain_oxygen_bond_distance_aromatic_linkinvent_7_9_3/rearranged_h_0007.sdf

> <i_m_source_file_index>
65

> <r_mmod_Potential_Energy-OPLS-2005>
74.7860946655273

> <r_mmod_Stretch_Energy-OPLS-2005>
79.5826568603516

> <r_mmod_Bend_Energy-OPLS-2005>
147.580917358398

> <r_mmod_Torsional_Energy-OPLS-2005>
214.559097290039

> <r_mmod_Improper_Torsional_Energy-OPLS-2005>
3.90157985687256

> <r_mmod_Van_der_Waal_Energy-OPLS-2005>
146.884353637695

> <r_mmod_Electrostatic_Energy-OPLS-2005>
-358.382598876953

> <r_mmod_Solvation_Energy-OPLS-2005>
-207.118133544922

> <b_mmod_Minimization_Converged-OPLS-2005>
0

> <r_mmod_RMS_Derivative-OPLS-2005>
1.06894218921661

$$$$
65
                    3D
 Structure written by MMmdl.
161169  0  0  1  0            999 V2000
  -30.6832  -14.4850   20.5668 C   0  0  0  0  0  0
  -30.4267  -12.3104   19.4287 C   0  0  0  0  0  0
  -29.4977  -12.5063   18.2118 C   0  0  0  0  0  0
  -28.0184  -12.3656   18.6223 C   0  0  0  0  0  0
  -27.6630  -13.2056   19.8784 C   0  0  2  0  0  0
  -28.7024  -12.9814   20.9996 C   0  0  0  0  0  0
  -25.2586  -13.8160   20.5643 C   0  0  0  0  0  0
  -24.1839  -13.0443   20.9159 C   0  0  0  0  0  0
  -24.6391  -11.6909   20.8735 C   0  0  0  0  0  0
  -23.9054  -10.4296   21.0409 C   0  0  0  0  0  0
  -24.3610   -9.4211   21.9186 C   0  0  0  0  0  0
  -23.6288   -8.2245   22.0755 C   0  0  0  0  0  0
  -22.4270   -8.0282   21.3544 C   0  0  0  0  0  0
  -21.9902   -9.0256   20.4648 C   0  0  0  0  0  0
  -22.7227  -10.2138   20.3059 C   0  0  0  0  0  0
  -21.6853   -6.0734   22.5277 C   0  0  0  0  0  0
  -21.4015   -6.5640   23.8211 C   0  0  0  0  0  0
  -21.3658   -5.6793   24.9173 C   0  0  0  0  0  0
  -21.6044   -4.3056   24.7226 C   0  0  0  0  0  0
  -21.8819   -3.8146   23.4347 C   0  0  0  0  0  0
  -21.9193   -4.6962   22.3402 C   0  0  0  0  0  0
  -22.7867  -13.5250   21.1837 C   0  0  0  0  0  0
  -22.1661   -4.2146   21.0980 F   0  0  0  0  0  0
  -21.5627   -3.4540   25.7739 F   0  0  0  0  0  0
  -30.0357  -13.2920   20.4535 N   0  0  0  0  0  0
  -26.3031  -12.9328   20.3380 N   0  0  0  0  0  0
  -25.9322  -11.6489   20.5783 N   0  0  0  0  0  0
  -22.0512  -12.8245   22.0400 N   0  0  0  0  0  0
  -25.4304  -15.1865   20.3988 N   0  0  0  0  0  0
  -31.8080  -14.6715   20.0941 O   0  0  0  0  0  0
  -21.6638   -6.8877   21.4239 O   0  0  0  0  0  0
  -22.3547  -14.5557   20.6693 O   0  0  0  0  0  0
  -24.6139  -31.8677   23.2097 C   0  0  0  0  0  0
  -25.9034  -32.4823   23.8393 C   0  0  1  0  0  0
  -27.2353  -27.4319   20.1044 C   0  0  0  0  0  0
  -25.5891  -33.8621   24.2326 N   0  0  0  0  0  0
  -23.4033  -30.4895   21.5495 C   0  0  2  0  0  0
  -24.8528  -28.9521   20.1169 C   0  0  0  0  0  0
  -22.7409  -29.4654   22.4989 C   0  0  0  0  0  0
  -18.0272  -28.1378   22.8491 C   0  0  0  0  0  0
  -24.1487  -36.7317   23.2639 C   0  0  0  0  0  0
  -25.9314  -30.8313   21.3649 C   0  0  0  0  0  0
  -26.0106  -29.4627   20.7188 C   0  0  0  0  0  0
  -27.2063  -28.7073   20.7158 C   0  0  0  0  0  0
  -26.0680  -26.9370   19.4919 C   0  0  0  0  0  0
  -24.8755  -27.6870   19.5020 C   0  0  0  0  0  0
  -23.6138  -29.8188   20.1649 C   0  0  0  0  0  0
  -25.4107  -36.3112   24.0338 C   0  0  1  0  0  0
  -20.5862  -28.3664   23.1319 C   0  0  2  0  0  0
  -20.6763  -26.9401   22.5421 C   0  0  0  0  0  0
  -19.5744  -26.6386   21.5215 C   0  0  0  0  0  0
  -18.1921  -26.7924   22.1625 C   0  0  0  0  0  0
  -19.1520  -28.8837   23.2903 C   0  0  0  0  0  0
  -18.9449  -30.1441   23.8916 C   0  0  0  0  0  0
  -17.6452  -30.6584   24.0567 C   0  0  0  0  0  0
  -25.9033  -34.9477   23.5131 C   0  0  0  0  0  0
  -16.5343  -29.9089   23.6324 C   0  0  0  0  0  0
  -16.7261  -28.6505   23.0346 C   0  0  0  0  0  0
  -26.4468  -31.6599   25.0717 C   0  0  0  0  0  0
  -25.3737  -31.3704   26.1469 C   0  0  0  0  0  0
  -27.0297  -30.3042   24.6087 C   0  0  0  0  0  0
  -27.6048  -32.4315   25.7475 C   0  0  0  0  0  0
  -27.5581  -37.1812   24.8465 C   0  0  0  0  0  0
  -21.4137  -29.3029   22.3724 N   0  0  0  0  0  0
  -26.4296  -37.3794   23.9406 N   0  0  0  0  0  0
  -24.6675  -31.0775   22.1000 N   0  0  0  0  0  0
  -23.4177  -28.8201   23.3038 O   0  0  0  0  0  0
  -28.3788  -26.6659   20.0668 O   0  0  0  0  0  0
  -26.5597  -34.8926   22.4694 O   0  0  0  0  0  0
  -23.5332  -32.1430   23.7490 O   0  0  0  0  0  0
  -30.9968  -17.5785   20.2341 C   0  0  0  0  0  0
  -30.9290  -18.9777   20.0700 C   0  0  0  0  0  0
  -28.8797  -19.0465   21.3600 C   0  0  0  0  0  0
  -30.0001  -16.8892   20.9656 C   0  0  0  0  0  0
  -29.8748  -19.7346   20.6204 C   0  0  0  0  0  0
  -28.9406  -17.6335   21.5409 C   0  0  0  0  0  0
  -26.1760  -16.6007   23.7654 C   0  0  0  0  0  0
  -28.1945  -24.4483   21.2411 C   0  0  0  0  0  0
  -29.1990  -23.4362   20.6286 C   0  0  0  0  0  0
  -26.9687  -17.6074   22.9293 C   0  0  0  0  0  0
  -28.6549  -25.9332   21.2678 C   0  0  0  0  0  0
  -28.8715  -21.9466   20.9255 C   0  0  0  0  0  0
  -29.9651  -15.4665   21.1517 N   0  0  0  0  0  0
  -29.8992  -21.1033   20.3907 O   0  0  0  0  0  0
  -28.0058  -16.9079   22.2541 O   0  0  0  0  0  0
  -31.4712  -12.4121   19.1285 H   0  0  0  0  0  0
  -30.3305  -11.2986   19.8259 H   0  0  0  0  0  0
  -29.7392  -11.7812   17.4335 H   0  0  0  0  0  0
  -29.6649  -13.4918   17.7741 H   0  0  0  0  0  0
  -27.8301  -11.3094   18.8190 H   0  0  0  0  0  0
  -27.3685  -12.6392   17.7905 H   0  0  0  0  0  0
  -27.7088  -14.2543   19.5834 H   0  0  0  0  0  0
  -28.6796  -11.9430   21.3335 H   0  0  0  0  0  0
  -28.4571  -13.5723   21.8832 H   0  0  0  0  0  0
  -25.2760   -9.5686   22.4755 H   0  0  0  0  0  0
  -23.9999   -7.4636   22.7474 H   0  0  0  0  0  0
  -21.0831   -8.8776   19.8957 H   0  0  0  0  0  0
  -22.3687  -10.9677   19.6167 H   0  0  0  0  0  0
  -21.2009   -7.6148   23.9715 H   0  0  0  0  0  0
  -21.1480   -6.0523   25.9076 H   0  0  0  0  0  0
  -22.0599   -2.7607   23.2850 H   0  0  0  0  0  0
  -22.4127  -11.9902   22.4781 H   0  0  0  0  0  0
  -21.1136  -13.1281   22.2620 H   0  0  0  0  0  0
  -24.6689  -15.8453   20.5147 H   0  0  0  0  0  0
  -26.3003  -15.6282   20.1299 H   0  0  0  0  0  0
  -26.7106  -32.5543   23.1162 H   0  0  0  0  0  0
  -25.0041  -33.9784   25.0470 H   0  0  0  0  0  0
  -22.6920  -31.3058   21.4087 H   0  0  0  0  0  0
  -23.3742  -35.9659   23.3316 H   0  0  0  0  0  0
  -24.3580  -36.8917   22.2050 H   0  0  0  0  0  0
  -23.7250  -37.6531   23.6643 H   0  0  0  0  0  0
  -26.0417  -31.5935   20.5924 H   0  0  0  0  0  0
  -26.8203  -30.8895   21.9812 H   0  0  0  0  0  0
  -28.1017  -29.0980   21.1789 H   0  0  0  0  0  0
  -26.0832  -25.9682   19.0130 H   0  0  0  0  0  0
  -23.9869  -27.2883   19.0324 H   0  0  0  0  0  0
  -23.7209  -30.5923   19.4036 H   0  0  0  0  0  0
  -22.7388  -29.2369   19.8702 H   0  0  0  0  0  0
  -25.1284  -36.1983   25.0832 H   0  0  0  0  0  0
  -20.9950  -28.3231   24.1441 H   0  0  0  0  0  0
  -20.5668  -26.2269   23.3605 H   0  0  0  0  0  0
  -21.6636  -26.7446   22.1215 H   0  0  0  0  0  0
  -19.6907  -25.6302   21.1231 H   0  0  0  0  0  0
  -19.6686  -27.3207   20.6754 H   0  0  0  0  0  0
  -17.4192  -26.6669   21.4026 H   0  0  0  0  0  0
  -18.0322  -26.0064   22.9019 H   0  0  0  0  0  0
  -19.7926  -30.7247   24.2297 H   0  0  0  0  0  0
  -17.5011  -31.6266   24.5165 H   0  0  0  0  0  0
  -15.5345  -30.3000   23.7637 H   0  0  0  0  0  0
  -15.8659  -28.0831   22.7053 H   0  0  0  0  0  0
  -24.5903  -30.7061   25.7805 H   0  0  0  0  0  0
  -24.8937  -32.2862   26.4932 H   0  0  0  0  0  0
  -25.8091  -30.8860   27.0218 H   0  0  0  0  0  0
  -26.2837  -29.6806   24.1145 H   0  0  0  0  0  0
  -27.4074  -29.7274   25.4540 H   0  0  0  0  0  0
  -27.8668  -30.4364   23.9229 H   0  0  0  0  0  0
  -27.2669  -33.3600   26.2091 H   0  0  0  0  0  0
  -28.3833  -32.6902   25.0285 H   0  0  0  0  0  0
  -28.0744  -31.8417   26.5358 H   0  0  0  0  0  0
  -28.2611  -38.0097   24.7501 H   0  0  0  0  0  0
  -28.1064  -36.2630   24.6303 H   0  0  0  0  0  0
  -27.2297  -37.1478   25.8867 H   0  0  0  0  0  0
  -20.9297  -29.8744   21.6942 H   0  0  0  0  0  0
  -26.0188  -38.2875   24.1399 H   0  0  0  0  0  0
  -31.8260  -17.0597   19.7786 H   0  0  0  0  0  0
  -31.7020  -19.4777   19.5035 H   0  0  0  0  0  0
  -28.0640  -19.6094   21.7846 H   0  0  0  0  0  0
  -25.3624  -17.0933   24.2979 H   0  0  0  0  0  0
  -26.8145  -16.1179   24.5053 H   0  0  0  0  0  0
  -25.7407  -15.8219   23.1398 H   0  0  0  0  0  0
  -28.0295  -24.1503   22.2773 H   0  0  0  0  0  0
  -27.2215  -24.3622   20.7568 H   0  0  0  0  0  0
  -30.1941  -23.6463   21.0218 H   0  0  0  0  0  0
  -29.2605  -23.5936   19.5513 H   0  0  0  0  0  0
  -27.3821  -18.3735   23.5872 H   0  0  0  0  0  0
  -26.3086  -18.0937   22.2093 H   0  0  0  0  0  0
  -28.1879  -26.4293   22.1216 H   0  0  0  0  0  0
  -29.7266  -25.9844   21.4617 H   0  0  0  0  0  0
  -27.9078  -21.6799   20.4890 H   0  0  0  0  0  0
  -28.8009  -21.8003   22.0043 H   0  0  0  0  0  0
  -29.1252  -15.1455   21.6102 H   0  0  0  0  0  0
  1 25  1  0  0  0
  1 30  2  0  0  0
  1 83  1  0  0  0
  2  3  1  0  0  0
  2 25  1  0  0  0
  2 86  1  0  0  0
  2 87  1  0  0  0
  3  4  1  0  0  0
  3 88  1  0  0  0
  3 89  1  0  0  0
  4  5  1  0  0  0
  4 90  1  0  0  0
  4 91  1  0  0  0
  5  6  1  0  0  0
  5 26  1  0  0  0
  5 92  1  0  0  0
  6 25  1  0  0  0
  6 93  1  0  0  0
  6 94  1  0  0  0
  7  8  2  0  0  0
  7 26  1  0  0  0
  7 29  1  0  0  0
  8  9  1  0  0  0
  8 22  1  0  0  0
  9 10  1  0  0  0
  9 27  2  0  0  0
 10 11  2  0  0  0
 10 15  1  0  0  0
 11 12  1  0  0  0
 11 95  1  0  0  0
 12 13  2  0  0  0
 12 96  1  0  0  0
 13 14  1  0  0  0
 13 31  1  0  0  0
 14 15  2  0  0  0
 14 97  1  0  0  0
 15 98  1  0  0  0
 16 17  2  0  0  0
 16 21  1  0  0  0
 16 31  1  0  0  0
 17 18  1  0  0  0
 17 99  1  0  0  0
 18 19  2  0  0  0
 18100  1  0  0  0
 19 20  1  0  0  0
 19 24  1  0  0  0
 20 21  2  0  0  0
 20101  1  0  0  0
 21 23  1  0  0  0
 22 28  1  0  0  0
 22 32  2  0  0  0
 26 27  1  0  0  0
 28102  1  0  0  0
 28103  1  0  0  0
 29104  1  0  0  0
 29105  1  0  0  0
 33 34  1  0  0  0
 33 66  1  0  0  0
 33 70  2  0  0  0
 34 36  1  0  0  0
 34 59  1  0  0  0
 34106  1  0  0  0
 35 44  2  0  0  0
 35 45  1  0  0  0
 35 68  1  0  0  0
 36 56  1  0  0  0
 36107  1  0  0  0
 37 39  1  0  0  0
 37 47  1  0  0  0
 37 66  1  0  0  0
 37108  1  0  0  0
 38 43  2  0  0  0
 38 46  1  0  0  0
 38 47  1  0  0  0
 39 64  1  0  0  0
 39 67  2  0  0  0
 40 52  1  0  0  0
 40 53  2  0  0  0
 40 58  1  0  0  0
 41109  1  0  0  0
 41110  1  0  0  0
 41111  1  0  0  0
 41 48  1  0  0  0
 42 43  1  0  0  0
 42 66  1  0  0  0
 42112  1  0  0  0
 42113  1  0  0  0
 43 44  1  0  0  0
 44114  1  0  0  0
 45 46  2  0  0  0
 45115  1  0  0  0
 46116  1  0  0  0
 47117  1  0  0  0
 47118  1  0  0  0
 48 56  1  0  0  0
 48 65  1  0  0  0
 48119  1  0  0  0
 49 50  1  0  0  0
 49 53  1  0  0  0
 49 64  1  0  0  0
 49120  1  0  0  0
 50 51  1  0  0  0
 50121  1  0  0  0
 50122  1  0  0  0
 51 52  1  0  0  0
 51123  1  0  0  0
 51124  1  0  0  0
 52125  1  0  0  0
 52126  1  0  0  0
 53 54  1  0  0  0
 54 55  2  0  0  0
 54127  1  0  0  0
 55 57  1  0  0  0
 55128  1  0  0  0
 56 69  2  0  0  0
 57 58  2  0  0  0
 57129  1  0  0  0
 58130  1  0  0  0
 59 60  1  0  0  0
 59 61  1  0  0  0
 59 62  1  0  0  0
 60131  1  0  0  0
 60132  1  0  0  0
 60133  1  0  0  0
 61134  1  0  0  0
 61135  1  0  0  0
 61136  1  0  0  0
 62137  1  0  0  0
 62138  1  0  0  0
 62139  1  0  0  0
 63 65  1  0  0  0
 63140  1  0  0  0
 63141  1  0  0  0
 63142  1  0  0  0
 64143  1  0  0  0
 65144  1  0  0  0
 68 81  1  0  0  0
 71 72  2  0  0  0
 71 74  1  0  0  0
 71145  1  0  0  0
 72 75  1  0  0  0
 72146  1  0  0  0
 73 75  2  0  0  0
 73 76  1  0  0  0
 73147  1  0  0  0
 74 76  2  0  0  0
 74 83  1  0  0  0
 75 84  1  0  0  0
 76 85  1  0  0  0
 77 80  1  0  0  0
 77148  1  0  0  0
 77149  1  0  0  0
 77150  1  0  0  0
 78 79  1  0  0  0
 78 81  1  0  0  0
 78151  1  0  0  0
 78152  1  0  0  0
 79 82  1  0  0  0
 79153  1  0  0  0
 79154  1  0  0  0
 80 85  1  0  0  0
 80155  1  0  0  0
 80156  1  0  0  0
 81157  1  0  0  0
 81158  1  0  0  0
 82 84  1  0  0  0
 82159  1  0  0  0
 82160  1  0  0  0
 83161  1  0  0  0
M  ISO  4   1 100  68 101  81 101  83 100
M  END
> <chiral flag>
0

> <version>
0

> <s_m_source_file>
/data/baiqing/PycharmProjects/Reinvent-master-3.2/result/LINK_invent/BTK/process_docking_weight1_custom_sum_contain_oxygen_bond_distance_aromatic_linkinvent_7_9_3/rearranged_h_0007.sdf

> <i_m_source_file_index>
66

> <r_mmod_Potential_Energy-OPLS-2005>
-81.7897262573242

> <r_mmod_Stretch_Energy-OPLS-2005>
40.3276138305664

> <r_mmod_Bend_Energy-OPLS-2005>
117.185928344727

> <r_mmod_Torsional_Energy-OPLS-2005>
236.318572998047

> <r_mmod_Improper_Torsional_Energy-OPLS-2005>
3.22069883346558

> <r_mmod_Van_der_Waal_Energy-OPLS-2005>
150.403732299805

> <r_mmod_Electrostatic_Energy-OPLS-2005>
-440.774749755859

> <r_mmod_Solvation_Energy-OPLS-2005>
-201.204971313477

> <b_mmod_Minimization_Converged-OPLS-2005>
0

> <r_mmod_RMS_Derivative-OPLS-2005>
0.398739874362946

$$$$
66
                    3D
 Structure written by MMmdl.
151159  0  0  1  0            999 V2000
  -30.5760  -14.9053   20.4932 C   0  0  0  0  0  0
  -30.4449  -12.5820   19.4699 C   0  0  0  0  0  0
  -29.5069  -12.5321   18.2401 C   0  0  0  0  0  0
  -28.0402  -12.3320   18.6622 C   0  0  0  0  0  0
  -27.6375  -13.2435   19.8478 C   0  0  2  0  0  0
  -28.6860  -13.1980   20.9758 C   0  0  0  0  0  0
  -25.2495  -13.8209   20.5734 C   0  0  0  0  0  0
  -24.1794  -13.0455   20.9220 C   0  0  0  0  0  0
  -24.6402  -11.6933   20.8770 C   0  0  0  0  0  0
  -23.9079  -10.4310   21.0423 C   0  0  0  0  0  0
  -24.3626   -9.4212   21.9188 C   0  0  0  0  0  0
  -23.6306   -8.2247   22.0745 C   0  0  0  0  0  0
  -22.4287   -8.0290   21.3538 C   0  0  0  0  0  0
  -21.9925   -9.0270   20.4643 C   0  0  0  0  0  0
  -22.7256  -10.2148   20.3068 C   0  0  0  0  0  0
  -21.6855   -6.0735   22.5267 C   0  0  0  0  0  0
  -21.4010   -6.5634   23.8198 C   0  0  0  0  0  0
  -21.3662   -5.6789   24.9163 C   0  0  0  0  0  0
  -21.6050   -4.3051   24.7216 C   0  0  0  0  0  0
  -21.8826   -3.8146   23.4337 C   0  0  0  0  0  0
  -21.9194   -4.6963   22.3398 C   0  0  0  0  0  0
  -22.7807  -13.5221   21.1884 C   0  0  0  0  0  0
  -22.1668   -4.2150   21.0977 F   0  0  0  0  0  0
  -21.5631   -3.4538   25.7730 F   0  0  0  0  0  0
  -29.9694  -13.6459   20.4043 N   0  0  0  0  0  0
  -26.2931  -12.9439   20.3312 N   0  0  0  0  0  0
  -25.9337  -11.6570   20.5771 N   0  0  0  0  0  0
  -22.0462  -12.8210   22.0436 N   0  0  0  0  0  0
  -25.4191  -15.1947   20.4176 N   0  0  0  0  0  0
  -31.7092  -15.0169   20.0109 O   0  0  0  0  0  0
  -21.6645   -6.8892   21.4235 O   0  0  0  0  0  0
  -22.3494  -14.5532   20.6742 O   0  0  0  0  0  0
  -24.6452  -31.8407   23.1849 C   0  0  0  0  0  0
  -25.9216  -32.4666   23.8250 C   0  0  1  0  0  0
  -27.2259  -27.1285   20.1725 C   0  0  0  0  0  0
  -25.5925  -33.8472   24.2132 N   0  0  0  0  0  0
  -23.4486  -30.4592   21.5309 C   0  0  2  0  0  0
  -24.9036  -28.8888   20.1050 C   0  0  0  0  0  0
  -22.7583  -29.4527   22.4856 C   0  0  0  0  0  0
  -18.0312  -28.1410   22.8506 C   0  0  0  0  0  0
  -24.1456  -36.7263   23.2654 C   0  0  0  0  0  0
  -26.0043  -30.7191   21.3806 C   0  0  0  0  0  0
  -26.0790  -29.3269   20.7294 C   0  0  0  0  0  0
  -27.2362  -28.4618   20.7484 C   0  0  0  0  0  0
  -26.0290  -26.7983   19.4943 C   0  0  0  0  0  0
  -24.8943  -27.6392   19.4684 C   0  0  0  0  0  0
  -23.6718  -29.7829   20.1522 C   0  0  0  0  0  0
  -25.4090  -36.3005   24.0306 C   0  0  1  0  0  0
  -20.5929  -28.3727   23.1239 C   0  0  2  0  0  0
  -20.6786  -26.9412   22.5434 C   0  0  0  0  0  0
  -19.5740  -26.6384   21.5256 C   0  0  0  0  0  0
  -18.1917  -26.7959   22.1653 C   0  0  0  0  0  0
  -19.1574  -28.8895   23.2854 C   0  0  0  0  0  0
  -18.9495  -30.1505   23.8842 C   0  0  0  0  0  0
  -17.6487  -30.6601   24.0564 C   0  0  0  0  0  0
  -25.9062  -34.9389   23.5040 C   0  0  0  0  0  0
  -16.5379  -29.9088   23.6354 C   0  0  0  0  0  0
  -16.7305  -28.6520   23.0363 C   0  0  0  0  0  0
  -26.4525  -31.6566   25.0715 C   0  0  0  0  0  0
  -25.3683  -31.3784   26.1396 C   0  0  0  0  0  0
  -27.0444  -30.2965   24.6346 C   0  0  0  0  0  0
  -27.6024  -32.4404   25.7497 C   0  0  0  0  0  0
  -27.5552  -37.1751   24.8444 C   0  0  0  0  0  0
  -21.4282  -29.3019   22.3586 N   0  0  0  0  0  0
  -26.4237  -37.3743   23.9431 N   0  0  0  0  0  0
  -24.7191  -31.0269   22.0873 N   0  0  0  0  0  0
  -23.4218  -28.8093   23.3024 O   0  0  0  0  0  0
  -28.2790  -26.1435   20.2923 O   0  0  0  0  0  0
  -26.5686  -34.8899   22.4642 O   0  0  0  0  0  0
  -23.5569  -32.1317   23.7047 O   0  0  0  0  0  0
  -29.8329  -18.1309   19.4871 C   0  0  0  0  0  0
  -29.3808  -18.5104   21.7626 C   0  0  0  0  0  0
  -29.5864  -19.5488   19.2453 C   0  0  0  0  0  0
  -29.1456  -19.9268   21.5203 C   0  0  0  0  0  0
  -29.7476  -17.5072   20.7778 C   0  0  0  0  0  0
  -29.2264  -20.5406   20.2314 C   0  0  0  0  0  0
  -29.8713  -15.7576   22.5907 C   0  0  0  0  0  0
  -28.8160  -23.2399   20.6288 C   0  0  0  0  0  0
  -28.1037  -24.6257   19.9608 C   0  0  0  0  0  0
  -29.9499  -16.0111   21.1412 N   0  0  0  0  0  0
  -28.9410  -21.9251   19.8357 O   0  0  0  0  0  0
  -31.4670  -12.7563   19.1325 H   0  0  0  0  0  0
  -30.4697  -11.6164   19.9751 H   0  0  0  0  0  0
  -29.8099  -11.7266   17.5692 H   0  0  0  0  0  0
  -29.5973  -13.4558   17.6666 H   0  0  0  0  0  0
  -27.9214  -11.2853   18.9466 H   0  0  0  0  0  0
  -27.3729  -12.4935   17.8145 H   0  0  0  0  0  0
  -27.6212  -14.2627   19.4593 H   0  0  0  0  0  0
  -28.7760  -12.1841   21.3699 H   0  0  0  0  0  0
  -28.3594  -13.8131   21.8101 H   0  0  0  0  0  0
  -25.2767   -9.5679   22.4764 H   0  0  0  0  0  0
  -24.0016   -7.4627   22.7461 H   0  0  0  0  0  0
  -21.0855   -8.8808   19.8946 H   0  0  0  0  0  0
  -22.3728  -10.9695   19.6194 H   0  0  0  0  0  0
  -21.2003   -7.6137   23.9703 H   0  0  0  0  0  0
  -21.1473   -6.0514   25.9064 H   0  0  0  0  0  0
  -22.0605   -2.7609   23.2836 H   0  0  0  0  0  0
  -22.4084  -11.9877   22.4839 H   0  0  0  0  0  0
  -21.1081  -13.1220   22.2638 H   0  0  0  0  0  0
  -24.6570  -15.8545   20.5283 H   0  0  0  0  0  0
  -26.2851  -15.6349   20.1339 H   0  0  0  0  0  0
  -26.7308  -32.5263   23.1004 H   0  0  0  0  0  0
  -24.9898  -33.9578   25.0171 H   0  0  0  0  0  0
  -22.7515  -31.2860   21.3741 H   0  0  0  0  0  0
  -23.3711  -35.9587   23.3243 H   0  0  0  0  0  0
  -24.3551  -36.9011   22.2084 H   0  0  0  0  0  0
  -23.7215  -37.6433   23.6778 H   0  0  0  0  0  0
  -26.1483  -31.4679   20.6004 H   0  0  0  0  0  0
  -26.8801  -30.7813   22.0165 H   0  0  0  0  0  0
  -28.1259  -28.7892   21.2674 H   0  0  0  0  0  0
  -25.9281  -25.8454   19.0009 H   0  0  0  0  0  0
  -24.0004  -27.3004   18.9647 H   0  0  0  0  0  0
  -23.7825  -30.5522   19.3867 H   0  0  0  0  0  0
  -22.7913  -29.2084   19.8605 H   0  0  0  0  0  0
  -25.1269  -36.1802   25.0784 H   0  0  0  0  0  0
  -21.0043  -28.3329   24.1357 H   0  0  0  0  0  0
  -20.5726  -26.2316   23.3658 H   0  0  0  0  0  0
  -21.6632  -26.7416   22.1188 H   0  0  0  0  0  0
  -19.6867  -25.6297   21.1283 H   0  0  0  0  0  0
  -19.6668  -27.3192   20.6778 H   0  0  0  0  0  0
  -17.4201  -26.6780   21.4022 H   0  0  0  0  0  0
  -18.0232  -26.0091   22.9020 H   0  0  0  0  0  0
  -19.7972  -30.7368   24.2137 H   0  0  0  0  0  0
  -17.5034  -31.6273   24.5188 H   0  0  0  0  0  0
  -15.5375  -30.2962   23.7726 H   0  0  0  0  0  0
  -15.8711  -28.0852   22.7048 H   0  0  0  0  0  0
  -24.5832  -30.7168   25.7709 H   0  0  0  0  0  0
  -24.8887  -32.2973   26.4776 H   0  0  0  0  0  0
  -25.7929  -30.8978   27.0220 H   0  0  0  0  0  0
  -26.3118  -29.6625   24.1331 H   0  0  0  0  0  0
  -27.4034  -29.7323   25.4973 H   0  0  0  0  0  0
  -27.8997  -30.4200   23.9699 H   0  0  0  0  0  0
  -27.2583  -33.3748   26.1960 H   0  0  0  0  0  0
  -28.3867  -32.6939   25.0346 H   0  0  0  0  0  0
  -28.0647  -31.8623   26.5517 H   0  0  0  0  0  0
  -28.2501  -38.0110   24.7576 H   0  0  0  0  0  0
  -28.1128  -36.2659   24.6157 H   0  0  0  0  0  0
  -27.2302  -37.1252   25.8850 H   0  0  0  0  0  0
  -20.9508  -29.8701   21.6733 H   0  0  0  0  0  0
  -26.0081  -38.2785   24.1522 H   0  0  0  0  0  0
  -30.0837  -17.5157   18.6332 H   0  0  0  0  0  0
  -29.2483  -18.2097   22.7917 H   0  0  0  0  0  0
  -29.6751  -19.8905   18.2236 H   0  0  0  0  0  0
  -28.8638  -20.5383   22.3669 H   0  0  0  0  0  0
  -30.5167  -16.4466   23.1370 H   0  0  0  0  0  0
  -30.1978  -14.7617   22.8998 H   0  0  0  0  0  0
  -28.8474  -15.8829   22.9422 H   0  0  0  0  0  0
  -28.2967  -23.0111   21.5607 H   0  0  0  0  0  0
  -29.8316  -23.4965   20.9318 H   0  0  0  0  0  0
  -27.0429  -24.3923   20.0196 H   0  0  0  0  0  0
  -28.3441  -24.5802   18.8996 H   0  0  0  0  0  0
  1 25  1  0  0  0
  1 30  2  0  0  0
  1 80  1  0  0  0
  2  3  1  0  0  0
  2 25  1  0  0  0
  2 82  1  0  0  0
  2 83  1  0  0  0
  3  4  1  0  0  0
  3 84  1  0  0  0
  3 85  1  0  0  0
  4  5  1  0  0  0
  4 86  1  0  0  0
  4 87  1  0  0  0
  5  6  1  0  0  0
  5 26  1  0  0  0
  5 88  1  0  0  0
  6 25  1  0  0  0
  6 89  1  0  0  0
  6 90  1  0  0  0
  7  8  2  0  0  0
  7 26  1  0  0  0
  7 29  1  0  0  0
  8  9  1  0  0  0
  8 22  1  0  0  0
  9 10  1  0  0  0
  9 27  2  0  0  0
 10 11  2  0  0  0
 10 15  1  0  0  0
 11 12  1  0  0  0
 11 91  1  0  0  0
 12 13  2  0  0  0
 12 92  1  0  0  0
 13 14  1  0  0  0
 13 31  1  0  0  0
 14 15  2  0  0  0
 14 93  1  0  0  0
 15 94  1  0  0  0
 16 17  2  0  0  0
 16 21  1  0  0  0
 16 31  1  0  0  0
 17 18  1  0  0  0
 17 95  1  0  0  0
 18 19  2  0  0  0
 18 96  1  0  0  0
 19 20  1  0  0  0
 19 24  1  0  0  0
 20 21  2  0  0  0
 20 97  1  0  0  0
 21 23  1  0  0  0
 22 28  1  0  0  0
 22 32  2  0  0  0
 26 27  1  0  0  0
 28 98  1  0  0  0
 28 99  1  0  0  0
 29100  1  0  0  0
 29101  1  0  0  0
 33 34  1  0  0  0
 33 66  1  0  0  0
 33 70  2  0  0  0
 34 36  1  0  0  0
 34 59  1  0  0  0
 34102  1  0  0  0
 35 44  2  0  0  0
 35 45  1  0  0  0
 35 68  1  0  0  0
 36 56  1  0  0  0
 36103  1  0  0  0
 37 39  1  0  0  0
 37 47  1  0  0  0
 37 66  1  0  0  0
 37104  1  0  0  0
 38 43  2  0  0  0
 38 46  1  0  0  0
 38 47  1  0  0  0
 39 64  1  0  0  0
 39 67  2  0  0  0
 40 52  1  0  0  0
 40 53  2  0  0  0
 40 58  1  0  0  0
 41105  1  0  0  0
 41106  1  0  0  0
 41107  1  0  0  0
 41 48  1  0  0  0
 42 43  1  0  0  0
 42 66  1  0  0  0
 42108  1  0  0  0
 42109  1  0  0  0
 43 44  1  0  0  0
 44110  1  0  0  0
 45 46  2  0  0  0
 45111  1  0  0  0
 46112  1  0  0  0
 47113  1  0  0  0
 47114  1  0  0  0
 48 56  1  0  0  0
 48 65  1  0  0  0
 48115  1  0  0  0
 49 50  1  0  0  0
 49 53  1  0  0  0
 49 64  1  0  0  0
 49116  1  0  0  0
 50 51  1  0  0  0
 50117  1  0  0  0
 50118  1  0  0  0
 51 52  1  0  0  0
 51119  1  0  0  0
 51120  1  0  0  0
 52121  1  0  0  0
 52122  1  0  0  0
 53 54  1  0  0  0
 54 55  2  0  0  0
 54123  1  0  0  0
 55 57  1  0  0  0
 55124  1  0  0  0
 56 69  2  0  0  0
 57 58  2  0  0  0
 57125  1  0  0  0
 58126  1  0  0  0
 59 60  1  0  0  0
 59 61  1  0  0  0
 59 62  1  0  0  0
 60127  1  0  0  0
 60128  1  0  0  0
 60129  1  0  0  0
 61130  1  0  0  0
 61131  1  0  0  0
 61132  1  0  0  0
 62133  1  0  0  0
 62134  1  0  0  0
 62135  1  0  0  0
 63 65  1  0  0  0
 63136  1  0  0  0
 63137  1  0  0  0
 63138  1  0  0  0
 64139  1  0  0  0
 65140  1  0  0  0
 68 79  1  0  0  0
 71 73  2  0  0  0
 71 75  1  0  0  0
 71141  1  0  0  0
 72 74  1  0  0  0
 72 75  2  0  0  0
 72142  1  0  0  0
 73 76  1  0  0  0
 73143  1  0  0  0
 74 76  2  0  0  0
 74144  1  0  0  0
 75 80  1  0  0  0
 76 81  1  0  0  0
 77 80  1  0  0  0
 77145  1  0  0  0
 77146  1  0  0  0
 77147  1  0  0  0
 78 79  1  0  0  0
 78 81  1  0  0  0
 78148  1  0  0  0
 78149  1  0  0  0
 79150  1  0  0  0
 79151  1  0  0  0
M  ISO  4   1 100  68 101  79 101  80 100
M  END
> <chiral flag>
0

> <version>
0

> <s_m_source_file>
/data/baiqing/PycharmProjects/Reinvent-master-3.2/result/LINK_invent/BTK/process_docking_weight1_custom_sum_contain_oxygen_bond_distance_aromatic_linkinvent_7_9_3/rearranged_h_0007.sdf

> <i_m_source_file_index>
67

> <r_mmod_Potential_Energy-OPLS-2005>
651.3955078125

> <r_mmod_Stretch_Energy-OPLS-2005>
248.777877807617

> <r_mmod_Bend_Energy-OPLS-2005>
299.198822021484

> <r_mmod_Torsional_Energy-OPLS-2005>
271.475402832031

> <r_mmod_Improper_Torsional_Energy-OPLS-2005>
3.15531015396118

> <r_mmod_Van_der_Waal_Energy-OPLS-2005>
147.058776855469

> <r_mmod_Electrostatic_Energy-OPLS-2005>
-298.485565185547

> <r_mmod_Solvation_Energy-OPLS-2005>
-197.978439331055

> <b_mmod_Minimization_Converged-OPLS-2005>
0

> <r_mmod_RMS_Derivative-OPLS-2005>
3.34550595283508

$$$$
67
                    3D
 Structure written by MMmdl.
170178  0  0  1  0            999 V2000
  -30.7486  -14.4274   20.5938 C   0  0  0  0  0  0
  -30.4146  -12.2959   19.3969 C   0  0  0  0  0  0
  -29.4796  -12.4811   18.1860 C   0  0  0  0  0  0
  -28.0036  -12.3373   18.6107 C   0  0  0  0  0  0
  -27.6510  -13.1874   19.8600 C   0  0  2  0  0  0
  -28.7013  -13.0010   20.9769 C   0  0  0  0  0  0
  -25.2596  -13.8111   20.5709 C   0  0  0  0  0  0
  -24.1807  -13.0418   20.9165 C   0  0  0  0  0  0
  -24.6334  -11.6878   20.8712 C   0  0  0  0  0  0
  -23.9002  -10.4277   21.0400 C   0  0  0  0  0  0
  -24.3569   -9.4197   21.9175 C   0  0  0  0  0  0
  -23.6254   -8.2227   22.0753 C   0  0  0  0  0  0
  -22.4241   -8.0251   21.3540 C   0  0  0  0  0  0
  -21.9866   -9.0222   20.4651 C   0  0  0  0  0  0
  -22.7182  -10.2109   20.3047 C   0  0  0  0  0  0
  -21.6846   -6.0698   22.5263 C   0  0  0  0  0  0
  -21.4024   -6.5616   23.8195 C   0  0  0  0  0  0
  -21.3662   -5.6773   24.9159 C   0  0  0  0  0  0
  -21.6040   -4.3034   24.7218 C   0  0  0  0  0  0
  -21.8825   -3.8118   23.4346 C   0  0  0  0  0  0
  -21.9207   -4.6927   22.3396 C   0  0  0  0  0  0
  -22.7845  -13.5257   21.1817 C   0  0  0  0  0  0
  -22.1668   -4.2115   21.0969 F   0  0  0  0  0  0
  -21.5628   -3.4523   25.7738 F   0  0  0  0  0  0
  -30.0275  -13.2904   20.4059 N   0  0  0  0  0  0
  -26.2973  -12.9225   20.3340 N   0  0  0  0  0  0
  -25.9248  -11.6411   20.5736 N   0  0  0  0  0  0
  -22.0485  -12.8258   22.0385 N   0  0  0  0  0  0
  -25.4379  -15.1815   20.4162 N   0  0  0  0  0  0
  -31.8850  -14.5931   20.1470 O   0  0  0  0  0  0
  -21.6626   -6.8836   21.4221 O   0  0  0  0  0  0
  -22.3522  -14.5554   20.6663 O   0  0  0  0  0  0
  -24.6083  -31.8711   23.2115 C   0  0  0  0  0  0
  -25.9021  -32.4826   23.8377 C   0  0  1  0  0  0
  -27.2404  -27.4836   20.0918 C   0  0  0  0  0  0
  -25.5911  -33.8616   24.2330 N   0  0  0  0  0  0
  -23.3911  -30.4939   21.5521 C   0  0  2  0  0  0
  -24.8414  -28.9638   20.1112 C   0  0  0  0  0  0
  -22.7362  -29.4671   22.5029 C   0  0  0  0  0  0
  -18.0281  -28.1325   22.8503 C   0  0  0  0  0  0
  -24.1493  -36.7328   23.2634 C   0  0  0  0  0  0
  -25.9126  -30.8535   21.3537 C   0  0  0  0  0  0
  -25.9946  -29.4905   20.7055 C   0  0  0  0  0  0
  -27.1957  -28.7571   20.6980 C   0  0  0  0  0  0
  -26.0820  -26.9694   19.4747 C   0  0  0  0  0  0
  -24.8773  -27.6996   19.4940 C   0  0  0  0  0  0
  -23.5967  -29.8210   20.1665 C   0  0  0  0  0  0
  -25.4101  -36.3104   24.0336 C   0  0  1  0  0  0
  -20.5858  -28.3616   23.1344 C   0  0  2  0  0  0
  -20.6785  -26.9357   22.5410 C   0  0  0  0  0  0
  -19.5756  -26.6362   21.5215 C   0  0  0  0  0  0
  -18.1935  -26.7861   22.1666 C   0  0  0  0  0  0
  -19.1524  -28.8802   23.2896 C   0  0  0  0  0  0
  -18.9450  -30.1422   23.8868 C   0  0  0  0  0  0
  -17.6449  -30.6573   24.0508 C   0  0  0  0  0  0
  -25.9020  -34.9475   23.5121 C   0  0  0  0  0  0
  -16.5348  -29.9052   23.6291 C   0  0  0  0  0  0
  -16.7272  -28.6455   23.0361 C   0  0  0  0  0  0
  -26.4469  -31.6583   25.0680 C   0  0  0  0  0  0
  -25.3747  -31.3697   26.1441 C   0  0  0  0  0  0
  -27.0283  -30.3031   24.6003 C   0  0  0  0  0  0
  -27.6060  -32.4286   25.7443 C   0  0  0  0  0  0
  -27.5582  -37.1809   24.8455 C   0  0  0  0  0  0
  -21.4106  -29.3018   22.3782 N   0  0  0  0  0  0
  -26.4290  -37.3781   23.9404 N   0  0  0  0  0  0
  -24.6553  -31.0847   22.0994 N   0  0  0  0  0  0
  -23.4155  -28.8240   23.3082 O   0  0  0  0  0  0
  -28.3862  -26.7277   20.0854 O   0  0  0  0  0  0
  -26.5579  -34.8920   22.4679 O   0  0  0  0  0  0
  -23.5310  -32.1475   23.7547 O   0  0  0  0  0  0
  -28.0838  -17.2281   18.5548 C   0  0  0  0  0  0
  -29.0155  -16.3505   19.1370 C   0  0  0  0  0  0
  -27.3447  -18.1086   19.3643 C   0  0  0  0  0  0
  -28.4363  -17.2066   21.3454 C   0  0  0  0  0  0
  -29.1806  -16.3132   20.5436 C   0  0  0  0  0  0
  -27.5326  -18.1307   20.7591 C   0  0  0  0  0  0
  -26.9866  -24.8583   22.0927 C   0  0  0  0  0  0
  -28.4892  -25.0107   21.8362 C   0  0  0  0  0  0
  -24.9186  -22.4191   23.7535 C   0  0  0  0  0  0
  -25.2673  -20.9989   23.2610 C   0  0  0  0  0  0
  -24.2182  -23.3370   22.7310 C   0  0  0  0  0  0
  -26.7870  -20.7774   23.1667 C   0  0  0  0  0  0
  -24.9448  -23.5765   21.3898 C   0  0  0  0  0  0
  -28.9086  -26.4236   21.3844 C   0  0  0  0  0  0
  -27.2008  -19.3470   22.8060 C   0  0  0  0  0  0
  -30.1160  -15.4507   21.1843 N   0  0  0  0  0  0
  -26.3816  -23.8286   21.4864 N   0  0  0  0  0  0
  -26.3874  -25.6603   22.8091 O   0  0  0  0  0  0
  -26.8160  -19.0736   21.4641 O   0  0  0  0  0  0
  -31.4574  -12.3897   19.0861 H   0  0  0  0  0  0
  -30.3151  -11.2908   19.8092 H   0  0  0  0  0  0
  -29.7150  -11.7421   17.4179 H   0  0  0  0  0  0
  -29.6437  -13.4592   17.7330 H   0  0  0  0  0  0
  -27.8193  -11.2826   18.8234 H   0  0  0  0  0  0
  -27.3452  -12.5990   17.7803 H   0  0  0  0  0  0
  -27.6709  -14.2213   19.5344 H   0  0  0  0  0  0
  -28.6802  -11.9777   21.3540 H   0  0  0  0  0  0
  -28.4669  -13.6369   21.8315 H   0  0  0  0  0  0
  -25.2716   -9.5679   22.4747 H   0  0  0  0  0  0
  -23.9966   -7.4636   22.7492 H   0  0  0  0  0  0
  -21.0790   -8.8727   19.8979 H   0  0  0  0  0  0
  -22.3625  -10.9635   19.6150 H   0  0  0  0  0  0
  -21.2014   -7.6127   23.9679 H   0  0  0  0  0  0
  -21.1481   -6.0509   25.9059 H   0  0  0  0  0  0
  -22.0613   -2.7582   23.2851 H   0  0  0  0  0  0
  -22.4090  -11.9917   22.4772 H   0  0  0  0  0  0
  -21.1116  -13.1318   22.2610 H   0  0  0  0  0  0
  -24.6846  -15.8457   20.5526 H   0  0  0  0  0  0
  -26.3112  -15.6214   20.1517 H   0  0  0  0  0  0
  -26.7084  -32.5558   23.1147 H   0  0  0  0  0  0
  -25.0074  -33.9751   25.0485 H   0  0  0  0  0  0
  -22.6757  -31.3083   21.4126 H   0  0  0  0  0  0
  -23.3733  -35.9689   23.3299 H   0  0  0  0  0  0
  -24.3579  -36.8922   22.2045 H   0  0  0  0  0  0
  -23.7272  -37.6547   23.6634 H   0  0  0  0  0  0
  -26.0049  -31.6173   20.5795 H   0  0  0  0  0  0
  -26.8084  -30.9160   21.9607 H   0  0  0  0  0  0
  -28.0846  -29.1715   21.1536 H   0  0  0  0  0  0
  -26.1102  -25.9969   19.0038 H   0  0  0  0  0  0
  -23.9900  -27.2881   19.0329 H   0  0  0  0  0  0
  -23.6913  -30.5928   19.4021 H   0  0  0  0  0  0
  -22.7241  -29.2313   19.8795 H   0  0  0  0  0  0
  -25.1275  -36.1961   25.0829 H   0  0  0  0  0  0
  -20.9923  -28.3168   24.1471 H   0  0  0  0  0  0
  -20.5763  -26.2188   23.3570 H   0  0  0  0  0  0
  -21.6647  -26.7453   22.1165 H   0  0  0  0  0  0
  -19.6952  -25.6304   21.1162 H   0  0  0  0  0  0
  -19.6669  -27.3236   20.6786 H   0  0  0  0  0  0
  -17.4180  -26.6573   21.4091 H   0  0  0  0  0  0
  -18.0394  -26.0028   22.9098 H   0  0  0  0  0  0
  -19.7924  -30.7234   24.2238 H   0  0  0  0  0  0
  -17.4992  -31.6258   24.5086 H   0  0  0  0  0  0
  -15.5347  -30.2941   23.7593 H   0  0  0  0  0  0
  -15.8666  -28.0766   22.7095 H   0  0  0  0  0  0
  -24.5942  -30.7009   25.7788 H   0  0  0  0  0  0
  -24.8939  -32.2870   26.4855 H   0  0  0  0  0  0
  -25.8128  -30.8905   27.0207 H   0  0  0  0  0  0
  -26.2811  -29.6795   24.1093 H   0  0  0  0  0  0
  -27.4102  -29.7231   25.4405 H   0  0  0  0  0  0
  -27.8608  -30.4337   23.9092 H   0  0  0  0  0  0
  -27.2691  -33.3568   26.2069 H   0  0  0  0  0  0
  -28.3868  -32.6868   25.0276 H   0  0  0  0  0  0
  -28.0737  -31.8379   26.5324 H   0  0  0  0  0  0
  -28.2600  -38.0109   24.7482 H   0  0  0  0  0  0
  -28.1071  -36.2626   24.6292 H   0  0  0  0  0  0
  -27.2290  -37.1477   25.8859 H   0  0  0  0  0  0
  -20.9228  -29.8754   21.7036 H   0  0  0  0  0  0
  -26.0178  -38.2858   24.1405 H   0  0  0  0  0  0
  -27.9436  -17.2401   17.4828 H   0  0  0  0  0  0
  -29.5878  -15.7058   18.4850 H   0  0  0  0  0  0
  -26.6436  -18.7927   18.9050 H   0  0  0  0  0  0
  -28.5795  -17.1751   22.4153 H   0  0  0  0  0  0
  -28.8289  -24.2813   21.0998 H   0  0  0  0  0  0
  -29.0017  -24.7694   22.7675 H   0  0  0  0  0  0
  -25.8086  -22.9180   24.1387 H   0  0  0  0  0  0
  -24.2573  -22.3317   24.6164 H   0  0  0  0  0  0
  -24.7884  -20.7858   22.3047 H   0  0  0  0  0  0
  -24.8533  -20.2736   23.9621 H   0  0  0  0  0  0
  -24.0409  -24.3009   23.2107 H   0  0  0  0  0  0
  -23.2252  -22.9423   22.5155 H   0  0  0  0  0  0
  -27.2402  -21.0259   24.1285 H   0  0  0  0  0  0
  -27.2256  -21.4643   22.4432 H   0  0  0  0  0  0
  -24.4691  -24.4067   20.8636 H   0  0  0  0  0  0
  -24.8116  -22.7062   20.7471 H   0  0  0  0  0  0
  -29.9963  -26.4614   21.3169 H   0  0  0  0  0  0
  -28.6368  -27.1545   22.1478 H   0  0  0  0  0  0
  -26.7482  -18.6243   23.4873 H   0  0  0  0  0  0
  -28.2834  -19.2907   22.9268 H   0  0  0  0  0  0
  -30.7118  -15.9468   21.8306 H   0  0  0  0  0  0
  -26.9732  -23.2155   20.9400 H   0  0  0  0  0  0
  1 25  1  0  0  0
  1 30  2  0  0  0
  1 86  1  0  0  0
  2  3  1  0  0  0
  2 25  1  0  0  0
  2 90  1  0  0  0
  2 91  1  0  0  0
  3  4  1  0  0  0
  3 92  1  0  0  0
  3 93  1  0  0  0
  4  5  1  0  0  0
  4 94  1  0  0  0
  4 95  1  0  0  0
  5  6  1  0  0  0
  5 26  1  0  0  0
  5 96  1  0  0  0
  6 25  1  0  0  0
  6 97  1  0  0  0
  6 98  1  0  0  0
  7  8  2  0  0  0
  7 26  1  0  0  0
  7 29  1  0  0  0
  8  9  1  0  0  0
  8 22  1  0  0  0
  9 10  1  0  0  0
  9 27  2  0  0  0
 10 11  2  0  0  0
 10 15  1  0  0  0
 11 12  1  0  0  0
 11 99  1  0  0  0
 12 13  2  0  0  0
 12100  1  0  0  0
 13 14  1  0  0  0
 13 31  1  0  0  0
 14 15  2  0  0  0
 14101  1  0  0  0
 15102  1  0  0  0
 16 17  2  0  0  0
 16 21  1  0  0  0
 16 31  1  0  0  0
 17 18  1  0  0  0
 17103  1  0  0  0
 18 19  2  0  0  0
 18104  1  0  0  0
 19 20  1  0  0  0
 19 24  1  0  0  0
 20 21  2  0  0  0
 20105  1  0  0  0
 21 23  1  0  0  0
 22 28  1  0  0  0
 22 32  2  0  0  0
 26 27  1  0  0  0
 28106  1  0  0  0
 28107  1  0  0  0
 29108  1  0  0  0
 29109  1  0  0  0
 33 34  1  0  0  0
 33 66  1  0  0  0
 33 70  2  0  0  0
 34 36  1  0  0  0
 34 59  1  0  0  0
 34110  1  0  0  0
 35 44  2  0  0  0
 35 45  1  0  0  0
 35 68  1  0  0  0
 36 56  1  0  0  0
 36111  1  0  0  0
 37 39  1  0  0  0
 37 47  1  0  0  0
 37 66  1  0  0  0
 37112  1  0  0  0
 38 43  2  0  0  0
 38 46  1  0  0  0
 38 47  1  0  0  0
 39 64  1  0  0  0
 39 67  2  0  0  0
 40 52  1  0  0  0
 40 53  2  0  0  0
 40 58  1  0  0  0
 41113  1  0  0  0
 41114  1  0  0  0
 41115  1  0  0  0
 41 48  1  0  0  0
 42 43  1  0  0  0
 42 66  1  0  0  0
 42116  1  0  0  0
 42117  1  0  0  0
 43 44  1  0  0  0
 44118  1  0  0  0
 45 46  2  0  0  0
 45119  1  0  0  0
 46120  1  0  0  0
 47121  1  0  0  0
 47122  1  0  0  0
 48 56  1  0  0  0
 48 65  1  0  0  0
 48123  1  0  0  0
 49 50  1  0  0  0
 49 53  1  0  0  0
 49 64  1  0  0  0
 49124  1  0  0  0
 50 51  1  0  0  0
 50125  1  0  0  0
 50126  1  0  0  0
 51 52  1  0  0  0
 51127  1  0  0  0
 51128  1  0  0  0
 52129  1  0  0  0
 52130  1  0  0  0
 53 54  1  0  0  0
 54 55  2  0  0  0
 54131  1  0  0  0
 55 57  1  0  0  0
 55132  1  0  0  0
 56 69  2  0  0  0
 57 58  2  0  0  0
 57133  1  0  0  0
 58134  1  0  0  0
 59 60  1  0  0  0
 59 61  1  0  0  0
 59 62  1  0  0  0
 60135  1  0  0  0
 60136  1  0  0  0
 60137  1  0  0  0
 61138  1  0  0  0
 61139  1  0  0  0
 61140  1  0  0  0
 62141  1  0  0  0
 62142  1  0  0  0
 62143  1  0  0  0
 63 65  1  0  0  0
 63144  1  0  0  0
 63145  1  0  0  0
 63146  1  0  0  0
 64147  1  0  0  0
 65148  1  0  0  0
 68 84  1  0  0  0
 71 72  2  0  0  0
 71 73  1  0  0  0
 71149  1  0  0  0
 72 75  1  0  0  0
 72150  1  0  0  0
 73 76  2  0  0  0
 73151  1  0  0  0
 74 75  2  0  0  0
 74 76  1  0  0  0
 74152  1  0  0  0
 75 86  1  0  0  0
 76 89  1  0  0  0
 77 78  1  0  0  0
 77 87  1  0  0  0
 77 88  2  0  0  0
 78 84  1  0  0  0
 78153  1  0  0  0
 78154  1  0  0  0
 79 80  1  0  0  0
 79 81  1  0  0  0
 79155  1  0  0  0
 79156  1  0  0  0
 80 82  1  0  0  0
 80157  1  0  0  0
 80158  1  0  0  0
 81 83  1  0  0  0
 81159  1  0  0  0
 81160  1  0  0  0
 82 85  1  0  0  0
 82161  1  0  0  0
 82162  1  0  0  0
 83 87  1  0  0  0
 83163  1  0  0  0
 83164  1  0  0  0
 84165  1  0  0  0
 84166  1  0  0  0
 85 89  1  0  0  0
 85167  1  0  0  0
 85168  1  0  0  0
 86169  1  0  0  0
 87170  1  0  0  0
M  ISO  4   1 100  68 101  84 101  86 100
M  END
> <chiral flag>
0

> <version>
0

> <s_m_source_file>
/data/baiqing/PycharmProjects/Reinvent-master-3.2/result/LINK_invent/BTK/process_docking_weight1_custom_sum_contain_oxygen_bond_distance_aromatic_linkinvent_7_9_3/rearranged_h_0007.sdf

> <i_m_source_file_index>
68

> <r_mmod_Potential_Energy-OPLS-2005>
-45.3272590637207

> <r_mmod_Stretch_Energy-OPLS-2005>
32.9618301391602

> <r_mmod_Bend_Energy-OPLS-2005>
110.571685791016

> <r_mmod_Torsional_Energy-OPLS-2005>
281.963287353516

> <r_mmod_Improper_Torsional_Energy-OPLS-2005>
5.96454620361328

> <r_mmod_Van_der_Waal_Energy-OPLS-2005>
138.859985351562

> <r_mmod_Electrostatic_Energy-OPLS-2005>
-400.783203125

> <r_mmod_Solvation_Energy-OPLS-2005>
-226.892639160156

> <b_mmod_Minimization_Converged-OPLS-2005>
0

> <r_mmod_RMS_Derivative-OPLS-2005>
2.70592069625854

$$$$
68
                    3D
 Structure written by MMmdl.
173181  0  0  1  0            999 V2000
  -30.8445  -14.2783   20.7169 C   0  0  0  0  0  0
  -30.4084  -12.2667   19.3817 C   0  0  0  0  0  0
  -29.4787  -12.5303   18.1874 C   0  0  0  0  0  0
  -28.0061  -12.3881   18.6085 C   0  0  0  0  0  0
  -27.6711  -13.2075   19.8811 C   0  0  2  0  0  0
  -28.7122  -12.9579   20.9971 C   0  0  0  0  0  0
  -25.2634  -13.8162   20.5687 C   0  0  0  0  0  0
  -24.1873  -13.0443   20.9144 C   0  0  0  0  0  0
  -24.6432  -11.6906   20.8723 C   0  0  0  0  0  0
  -23.9085  -10.4288   21.0402 C   0  0  0  0  0  0
  -24.3628   -9.4200   21.9184 C   0  0  0  0  0  0
  -23.6293   -8.2241   22.0755 C   0  0  0  0  0  0
  -22.4282   -8.0284   21.3536 C   0  0  0  0  0  0
  -21.9918   -9.0259   20.4649 C   0  0  0  0  0  0
  -22.7253  -10.2138   20.3055 C   0  0  0  0  0  0
  -21.6853   -6.0747   22.5277 C   0  0  0  0  0  0
  -21.4011   -6.5644   23.8215 C   0  0  0  0  0  0
  -21.3657   -5.6802   24.9173 C   0  0  0  0  0  0
  -21.6042   -4.3060   24.7230 C   0  0  0  0  0  0
  -21.8819   -3.8155   23.4345 C   0  0  0  0  0  0
  -21.9190   -4.6968   22.3403 C   0  0  0  0  0  0
  -22.7895  -13.5229   21.1819 C   0  0  0  0  0  0
  -22.1663   -4.2158   21.0976 F   0  0  0  0  0  0
  -21.5628   -3.4541   25.7738 F   0  0  0  0  0  0
  -30.0652  -13.2027   20.4587 N   0  0  0  0  0  0
  -26.3089  -12.9355   20.3389 N   0  0  0  0  0  0
  -25.9366  -11.6509   20.5767 N   0  0  0  0  0  0
  -22.0526  -12.8231   22.0380 N   0  0  0  0  0  0
  -25.4319  -15.1890   20.4102 N   0  0  0  0  0  0
  -31.7738  -14.6400   19.9881 O   0  0  0  0  0  0
  -21.6634   -6.8892   21.4247 O   0  0  0  0  0  0
  -22.3562  -14.5525   20.6657 O   0  0  0  0  0  0
  -24.6196  -31.8646   23.2153 C   0  0  0  0  0  0
  -25.9085  -32.4784   23.8451 C   0  0  1  0  0  0
  -27.2254  -27.4680   20.0745 C   0  0  0  0  0  0
  -25.5964  -33.8589   24.2352 N   0  0  0  0  0  0
  -23.4077  -30.4936   21.5534 C   0  0  2  0  0  0
  -24.8483  -28.9758   20.0999 C   0  0  0  0  0  0
  -22.7455  -29.4630   22.4970 C   0  0  0  0  0  0
  -18.0290  -28.1390   22.8504 C   0  0  0  0  0  0
  -24.1490  -36.7315   23.2629 C   0  0  0  0  0  0
  -25.9315  -30.8484   21.3546 C   0  0  0  0  0  0
  -26.0095  -29.4922   20.6892 C   0  0  0  0  0  0
  -27.2060  -28.7427   20.6752 C   0  0  0  0  0  0
  -26.0556  -26.9645   19.4650 C   0  0  0  0  0  0
  -24.8661  -27.7130   19.4836 C   0  0  0  0  0  0
  -23.6090  -29.8373   20.1618 C   0  0  0  0  0  0
  -25.4104  -36.3046   24.0313 C   0  0  1  0  0  0
  -20.5899  -28.3657   23.1334 C   0  0  2  0  0  0
  -20.6757  -26.9378   22.5447 C   0  0  0  0  0  0
  -19.5731  -26.6398   21.5237 C   0  0  0  0  0  0
  -18.1907  -26.7941   22.1633 C   0  0  0  0  0  0
  -19.1545  -28.8844   23.2914 C   0  0  0  0  0  0
  -18.9464  -30.1468   23.8906 C   0  0  0  0  0  0
  -17.6448  -30.6574   24.0595 C   0  0  0  0  0  0
  -25.9045  -34.9422   23.5106 C   0  0  0  0  0  0
  -16.5341  -29.9087   23.6325 C   0  0  0  0  0  0
  -16.7273  -28.6517   23.0325 C   0  0  0  0  0  0
  -26.4512  -31.6549   25.0766 C   0  0  0  0  0  0
  -25.3816  -31.3646   26.1548 C   0  0  0  0  0  0
  -27.0348  -30.2997   24.6111 C   0  0  0  0  0  0
  -27.6081  -32.4289   25.7521 C   0  0  0  0  0  0
  -27.5559  -37.1792   24.8444 C   0  0  0  0  0  0
  -21.4175  -29.3033   22.3721 N   0  0  0  0  0  0
  -26.4252  -37.3750   23.9425 N   0  0  0  0  0  0
  -24.6726  -31.0810   22.1023 N   0  0  0  0  0  0
  -23.4205  -28.8095   23.2959 O   0  0  0  0  0  0
  -28.3390  -26.6763   20.2062 O   0  0  0  0  0  0
  -26.5592  -34.8853   22.4648 O   0  0  0  0  0  0
  -23.5380  -32.1372   23.7553 O   0  0  0  0  0  0
  -28.2036  -21.0866   23.0463 C   0  0  0  0  0  0
  -26.9569  -20.7939   20.9653 C   0  0  0  0  0  0
  -29.2568  -20.3137   22.5423 C   0  0  0  0  0  0
  -28.0018  -19.9943   20.4547 C   0  0  0  0  0  0
  -27.0711  -21.3470   22.2585 C   0  0  0  0  0  0
  -29.1547  -19.7595   21.2443 C   0  0  0  0  0  0
  -26.0579  -23.4620   22.3322 C   0  0  0  0  0  0
  -30.4752  -20.1131   23.4244 C   0  0  0  0  0  0
  -28.6577  -20.1841   18.0046 C   0  0  0  0  0  0
  -27.8782  -19.3903   19.0621 C   0  0  0  0  0  0
  -26.9185  -24.4796   23.0949 C   0  0  0  0  0  0
  -27.3677  -25.7022   22.2766 C   0  0  0  0  0  0
  -31.4994  -17.2016   21.6908 C   0  0  0  0  0  0
  -31.4915  -15.8881   22.4964 C   0  0  0  0  0  0
  -28.0694  -25.4470   20.9045 C   0  0  0  0  0  0
  -30.1039  -17.6446   21.2316 C   0  0  0  0  0  0
  -26.1079  -22.2146   22.8014 N   0  0  0  0  0  0
  -30.6536  -14.8404   21.9135 N   0  0  0  0  0  0
  -25.3960  -23.7739   21.3395 O   0  0  0  0  0  0
  -30.1631  -18.9788   20.7522 O   0  0  0  0  0  0
  -31.4538  -12.3503   19.0751 H   0  0  0  0  0  0
  -30.2883  -11.2444   19.7430 H   0  0  0  0  0  0
  -29.7072  -11.8380   17.3765 H   0  0  0  0  0  0
  -29.6564  -13.5317   17.7925 H   0  0  0  0  0  0
  -27.8122  -11.3297   18.7827 H   0  0  0  0  0  0
  -27.3524  -12.6847   17.7876 H   0  0  0  0  0  0
  -27.7281  -14.2606   19.6056 H   0  0  0  0  0  0
  -28.6555  -11.9252   21.3428 H   0  0  0  0  0  0
  -28.4777  -13.5770   21.8634 H   0  0  0  0  0  0
  -25.2779   -9.5673   22.4746 H   0  0  0  0  0  0
  -24.0004   -7.4640   22.7472 H   0  0  0  0  0  0
  -21.0851   -8.8786   19.8951 H   0  0  0  0  0  0
  -22.3717  -10.9681   19.6156 H   0  0  0  0  0  0
  -21.2005   -7.6152   23.9717 H   0  0  0  0  0  0
  -21.1478   -6.0529   25.9080 H   0  0  0  0  0  0
  -22.0600   -2.7614   23.2840 H   0  0  0  0  0  0
  -22.4160  -11.9918   22.4786 H   0  0  0  0  0  0
  -21.1128  -13.1248   22.2562 H   0  0  0  0  0  0
  -24.6637  -15.8424   20.5240 H   0  0  0  0  0  0
  -26.2936  -15.6328   20.1195 H   0  0  0  0  0  0
  -26.7179  -32.5487   23.1234 H   0  0  0  0  0  0
  -25.0125  -33.9786   25.0503 H   0  0  0  0  0  0
  -22.6983  -31.3107   21.4205 H   0  0  0  0  0  0
  -23.3692  -35.9702   23.3281 H   0  0  0  0  0  0
  -24.3543  -36.8994   22.2038 H   0  0  0  0  0  0
  -23.7335  -37.6553   23.6677 H   0  0  0  0  0  0
  -26.0367  -31.6182   20.5891 H   0  0  0  0  0  0
  -26.8246  -30.9068   21.9654 H   0  0  0  0  0  0
  -28.0965  -29.1137   21.1655 H   0  0  0  0  0  0
  -26.0510  -25.9835   19.0083 H   0  0  0  0  0  0
  -23.9708  -27.3129   19.0298 H   0  0  0  0  0  0
  -23.7072  -30.6187   19.4070 H   0  0  0  0  0  0
  -22.7339  -29.2560   19.8660 H   0  0  0  0  0  0
  -25.1269  -36.1855   25.0803 H   0  0  0  0  0  0
  -21.0009  -28.3197   24.1457 H   0  0  0  0  0  0
  -20.5696  -26.2216   23.3616 H   0  0  0  0  0  0
  -21.6612  -26.7420   22.1225 H   0  0  0  0  0  0
  -19.6873  -25.6322   21.1250 H   0  0  0  0  0  0
  -19.6685  -27.3230   20.6780 H   0  0  0  0  0  0
  -17.4188  -26.6749   21.4016 H   0  0  0  0  0  0
  -18.0246  -26.0102   22.9032 H   0  0  0  0  0  0
  -19.7938  -30.7314   24.2243 H   0  0  0  0  0  0
  -17.4987  -31.6245   24.5206 H   0  0  0  0  0  0
  -15.5339  -30.2970   23.7639 H   0  0  0  0  0  0
  -15.8687  -28.0852   22.6971 H   0  0  0  0  0  0
  -24.6017  -30.6928   25.7954 H   0  0  0  0  0  0
  -24.8950  -32.2777   26.4992 H   0  0  0  0  0  0
  -25.8265  -30.8880   27.0302 H   0  0  0  0  0  0
  -26.2876  -29.6722   24.1229 H   0  0  0  0  0  0
  -27.4229  -29.7257   25.4542 H   0  0  0  0  0  0
  -27.8652  -30.4365   23.9174 H   0  0  0  0  0  0
  -27.2735  -33.3619   26.2082 H   0  0  0  0  0  0
  -28.3922  -32.6832   25.0369 H   0  0  0  0  0  0
  -28.0718  -31.8428   26.5472 H   0  0  0  0  0  0
  -28.2530  -38.0125   24.7482 H   0  0  0  0  0  0
  -28.1128  -36.2646   24.6272 H   0  0  0  0  0  0
  -27.2274  -37.1453   25.8849 H   0  0  0  0  0  0
  -20.9284  -29.8803   21.7024 H   0  0  0  0  0  0
  -26.0099  -38.2800   24.1500 H   0  0  0  0  0  0
  -28.2960  -21.5250   24.0317 H   0  0  0  0  0  0
  -26.0804  -20.9910   20.3638 H   0  0  0  0  0  0
  -30.6195  -20.9796   24.0716 H   0  0  0  0  0  0
  -31.3885  -19.9987   22.8442 H   0  0  0  0  0  0
  -30.3365  -19.2342   24.0554 H   0  0  0  0  0  0
  -28.6228  -19.6871   17.0339 H   0  0  0  0  0  0
  -29.7081  -20.2875   18.2748 H   0  0  0  0  0  0
  -28.2411  -21.1839   17.8851 H   0  0  0  0  0  0
  -26.8266  -19.3282   18.7738 H   0  0  0  0  0  0
  -28.2354  -18.3614   19.0837 H   0  0  0  0  0  0
  -27.8023  -23.9808   23.4958 H   0  0  0  0  0  0
  -26.3510  -24.8234   23.9611 H   0  0  0  0  0  0
  -28.0326  -26.3119   22.8888 H   0  0  0  0  0  0
  -26.4697  -26.3027   22.1517 H   0  0  0  0  0  0
  -32.1572  -17.1241   20.8237 H   0  0  0  0  0  0
  -31.9521  -17.9627   22.3224 H   0  0  0  0  0  0
  -31.1221  -16.0895   23.5017 H   0  0  0  0  0  0
  -32.5122  -15.5197   22.6133 H   0  0  0  0  0  0
  -27.4849  -24.7861   20.2665 H   0  0  0  0  0  0
  -29.0158  -24.9292   21.0656 H   0  0  0  0  0  0
  -29.3945  -17.5280   22.0548 H   0  0  0  0  0  0
  -29.7468  -17.0063   20.4218 H   0  0  0  0  0  0
  -26.1736  -22.2269   23.8114 H   0  0  0  0  0  0
  -29.9294  -14.4416   22.4942 H   0  0  0  0  0  0
  1 25  1  0  0  0
  1 30  2  0  0  0
  1 88  1  0  0  0
  2  3  1  0  0  0
  2 25  1  0  0  0
  2 91  1  0  0  0
  2 92  1  0  0  0
  3  4  1  0  0  0
  3 93  1  0  0  0
  3 94  1  0  0  0
  4  5  1  0  0  0
  4 95  1  0  0  0
  4 96  1  0  0  0
  5  6  1  0  0  0
  5 26  1  0  0  0
  5 97  1  0  0  0
  6 25  1  0  0  0
  6 98  1  0  0  0
  6 99  1  0  0  0
  7  8  2  0  0  0
  7 26  1  0  0  0
  7 29  1  0  0  0
  8  9  1  0  0  0
  8 22  1  0  0  0
  9 10  1  0  0  0
  9 27  2  0  0  0
 10 11  2  0  0  0
 10 15  1  0  0  0
 11 12  1  0  0  0
 11100  1  0  0  0
 12 13  2  0  0  0
 12101  1  0  0  0
 13 14  1  0  0  0
 13 31  1  0  0  0
 14 15  2  0  0  0
 14102  1  0  0  0
 15103  1  0  0  0
 16 17  2  0  0  0
 16 21  1  0  0  0
 16 31  1  0  0  0
 17 18  1  0  0  0
 17104  1  0  0  0
 18 19  2  0  0  0
 18105  1  0  0  0
 19 20  1  0  0  0
 19 24  1  0  0  0
 20 21  2  0  0  0
 20106  1  0  0  0
 21 23  1  0  0  0
 22 28  1  0  0  0
 22 32  2  0  0  0
 26 27  1  0  0  0
 28107  1  0  0  0
 28108  1  0  0  0
 29109  1  0  0  0
 29110  1  0  0  0
 33 34  1  0  0  0
 33 66  1  0  0  0
 33 70  2  0  0  0
 34 36  1  0  0  0
 34 59  1  0  0  0
 34111  1  0  0  0
 35 44  2  0  0  0
 35 45  1  0  0  0
 35 68  1  0  0  0
 36 56  1  0  0  0
 36112  1  0  0  0
 37 39  1  0  0  0
 37 47  1  0  0  0
 37 66  1  0  0  0
 37113  1  0  0  0
 38 43  2  0  0  0
 38 46  1  0  0  0
 38 47  1  0  0  0
 39 64  1  0  0  0
 39 67  2  0  0  0
 40 52  1  0  0  0
 40 53  2  0  0  0
 40 58  1  0  0  0
 41114  1  0  0  0
 41115  1  0  0  0
 41116  1  0  0  0
 41 48  1  0  0  0
 42 43  1  0  0  0
 42 66  1  0  0  0
 42117  1  0  0  0
 42118  1  0  0  0
 43 44  1  0  0  0
 44119  1  0  0  0
 45 46  2  0  0  0
 45120  1  0  0  0
 46121  1  0  0  0
 47122  1  0  0  0
 47123  1  0  0  0
 48 56  1  0  0  0
 48 65  1  0  0  0
 48124  1  0  0  0
 49 50  1  0  0  0
 49 53  1  0  0  0
 49 64  1  0  0  0
 49125  1  0  0  0
 50 51  1  0  0  0
 50126  1  0  0  0
 50127  1  0  0  0
 51 52  1  0  0  0
 51128  1  0  0  0
 51129  1  0  0  0
 52130  1  0  0  0
 52131  1  0  0  0
 53 54  1  0  0  0
 54 55  2  0  0  0
 54132  1  0  0  0
 55 57  1  0  0  0
 55133  1  0  0  0
 56 69  2  0  0  0
 57 58  2  0  0  0
 57134  1  0  0  0
 58135  1  0  0  0
 59 60  1  0  0  0
 59 61  1  0  0  0
 59 62  1  0  0  0
 60136  1  0  0  0
 60137  1  0  0  0
 60138  1  0  0  0
 61139  1  0  0  0
 61140  1  0  0  0
 61141  1  0  0  0
 62142  1  0  0  0
 62143  1  0  0  0
 62144  1  0  0  0
 63 65  1  0  0  0
 63145  1  0  0  0
 63146  1  0  0  0
 63147  1  0  0  0
 64148  1  0  0  0
 65149  1  0  0  0
 68 85  1  0  0  0
 71 73  2  0  0  0
 71 75  1  0  0  0
 71150  1  0  0  0
 72 74  1  0  0  0
 72 75  2  0  0  0
 72151  1  0  0  0
 73 76  1  0  0  0
 73 78  1  0  0  0
 74 76  2  0  0  0
 74 80  1  0  0  0
 75 87  1  0  0  0
 76 90  1  0  0  0
 77 81  1  0  0  0
 77 87  1  0  0  0
 77 89  2  0  0  0
 78152  1  0  0  0
 78153  1  0  0  0
 78154  1  0  0  0
 79 80  1  0  0  0
 79155  1  0  0  0
 79156  1  0  0  0
 79157  1  0  0  0
 80158  1  0  0  0
 80159  1  0  0  0
 81 82  1  0  0  0
 81160  1  0  0  0
 81161  1  0  0  0
 82 85  1  0  0  0
 82162  1  0  0  0
 82163  1  0  0  0
 83 84  1  0  0  0
 83 86  1  0  0  0
 83164  1  0  0  0
 83165  1  0  0  0
 84 88  1  0  0  0
 84166  1  0  0  0
 84167  1  0  0  0
 85168  1  0  0  0
 85169  1  0  0  0
 86 90  1  0  0  0
 86170  1  0  0  0
 86171  1  0  0  0
 87172  1  0  0  0
 88173  1  0  0  0
M  ISO  4   1 100  68 101  85 101  88 100
M  END
> <chiral flag>
0

> <version>
0

> <s_m_source_file>
/data/baiqing/PycharmProjects/Reinvent-master-3.2/result/LINK_invent/BTK/process_docking_weight1_custom_sum_contain_oxygen_bond_distance_aromatic_linkinvent_7_9_3/rearranged_h_0007.sdf

> <i_m_source_file_index>
69

> <r_mmod_Potential_Energy-OPLS-2005>
-59.3700256347656

> <r_mmod_Stretch_Energy-OPLS-2005>
33.322826385498

> <r_mmod_Bend_Energy-OPLS-2005>
100.251678466797

> <r_mmod_Torsional_Energy-OPLS-2005>
317.094512939453

> <r_mmod_Improper_Torsional_Energy-OPLS-2005>
9.11404323577881

> <r_mmod_Van_der_Waal_Energy-OPLS-2005>
153.973510742188

> <r_mmod_Electrostatic_Energy-OPLS-2005>
-453.603973388672

> <r_mmod_Solvation_Energy-OPLS-2005>
-233.325149536133

> <b_mmod_Minimization_Converged-OPLS-2005>
0

> <r_mmod_RMS_Derivative-OPLS-2005>
4.13051223754883

$$$$
69
                    3D
 Structure written by MMmdl.
165173  0  0  1  0            999 V2000
  -30.7407  -14.4205   20.6734 C   0  0  0  0  0  0
  -30.4291  -12.3132   19.4057 C   0  0  0  0  0  0
  -29.4896  -12.5120   18.2012 C   0  0  0  0  0  0
  -28.0164  -12.3608   18.6237 C   0  0  0  0  0  0
  -27.6678  -13.2019   19.8790 C   0  0  2  0  0  0
  -28.7096  -12.9716   20.9963 C   0  0  0  0  0  0
  -25.2627  -13.8148   20.5710 C   0  0  0  0  0  0
  -24.1857  -13.0432   20.9172 C   0  0  0  0  0  0
  -24.6399  -11.6901   20.8728 C   0  0  0  0  0  0
  -23.9059  -10.4289   21.0407 C   0  0  0  0  0  0
  -24.3616   -9.4206   21.9182 C   0  0  0  0  0  0
  -23.6294   -8.2240   22.0751 C   0  0  0  0  0  0
  -22.4275   -8.0274   21.3541 C   0  0  0  0  0  0
  -21.9906   -9.0248   20.4644 C   0  0  0  0  0  0
  -22.7230  -10.2131   20.3061 C   0  0  0  0  0  0
  -21.6855   -6.0731   22.5279 C   0  0  0  0  0  0
  -21.4010   -6.5644   23.8213 C   0  0  0  0  0  0
  -21.3656   -5.6796   24.9178 C   0  0  0  0  0  0
  -21.6050   -4.3059   24.7226 C   0  0  0  0  0  0
  -21.8823   -3.8146   23.4350 C   0  0  0  0  0  0
  -21.9201   -4.6958   22.3404 C   0  0  0  0  0  0
  -22.7881  -13.5225   21.1841 C   0  0  0  0  0  0
  -22.1669   -4.2150   21.0984 F   0  0  0  0  0  0
  -21.5630   -3.4540   25.7745 F   0  0  0  0  0  0
  -30.0435  -13.2728   20.4524 N   0  0  0  0  0  0
  -26.3062  -12.9310   20.3405 N   0  0  0  0  0  0
  -25.9335  -11.6475   20.5780 N   0  0  0  0  0  0
  -22.0518  -12.8212   22.0394 N   0  0  0  0  0  0
  -25.4363  -15.1858   20.4133 N   0  0  0  0  0  0
  -31.7920  -14.6651   20.0737 O   0  0  0  0  0  0
  -21.6643   -6.8868   21.4241 O   0  0  0  0  0  0
  -22.3570  -14.5531   20.6696 O   0  0  0  0  0  0
  -24.6127  -31.8710   23.2122 C   0  0  0  0  0  0
  -25.9031  -32.4836   23.8412 C   0  0  1  0  0  0
  -27.2453  -27.4542   20.1038 C   0  0  0  0  0  0
  -25.5904  -33.8635   24.2354 N   0  0  0  0  0  0
  -23.4006  -30.4922   21.5522 C   0  0  2  0  0  0
  -24.8516  -28.9598   20.1210 C   0  0  0  0  0  0
  -22.7407  -29.4666   22.5013 C   0  0  0  0  0  0
  -18.0279  -28.1379   22.8487 C   0  0  0  0  0  0
  -24.1492  -36.7321   23.2638 C   0  0  0  0  0  0
  -25.9266  -30.8420   21.3635 C   0  0  0  0  0  0
  -26.0083  -29.4735   20.7219 C   0  0  0  0  0  0
  -27.2095  -28.7281   20.7196 C   0  0  0  0  0  0
  -26.0750  -26.9569   19.4970 C   0  0  0  0  0  0
  -24.8773  -27.6960   19.5073 C   0  0  0  0  0  0
  -23.6105  -29.8226   20.1676 C   0  0  0  0  0  0
  -25.4106  -36.3121   24.0347 C   0  0  1  0  0  0
  -20.5863  -28.3658   23.1335 C   0  0  2  0  0  0
  -20.6769  -26.9396   22.5433 C   0  0  0  0  0  0
  -19.5755  -26.6391   21.5217 C   0  0  0  0  0  0
  -18.1923  -26.7936   22.1604 C   0  0  0  0  0  0
  -19.1525  -28.8836   23.2910 C   0  0  0  0  0  0
  -18.9447  -30.1442   23.8920 C   0  0  0  0  0  0
  -17.6448  -30.6576   24.0572 C   0  0  0  0  0  0
  -25.9032  -34.9480   23.5142 C   0  0  0  0  0  0
  -16.5342  -29.9078   23.6323 C   0  0  0  0  0  0
  -16.7268  -28.6501   23.0335 C   0  0  0  0  0  0
  -26.4471  -31.6601   25.0721 C   0  0  0  0  0  0
  -25.3745  -31.3701   26.1477 C   0  0  0  0  0  0
  -27.0298  -30.3050   24.6069 C   0  0  0  0  0  0
  -27.6073  -32.4302   25.7464 C   0  0  0  0  0  0
  -27.5592  -37.1803   24.8452 C   0  0  0  0  0  0
  -21.4137  -29.3023   22.3742 N   0  0  0  0  0  0
  -26.4292  -37.3799   23.9418 N   0  0  0  0  0  0
  -24.6648  -31.0825   22.1019 N   0  0  0  0  0  0
  -23.4186  -28.8218   23.3057 O   0  0  0  0  0  0
  -28.3593  -26.6524   20.0054 O   0  0  0  0  0  0
  -26.5584  -34.8927   22.4696 O   0  0  0  0  0  0
  -23.5324  -32.1457   23.7519 O   0  0  0  0  0  0
  -31.3895  -21.2337   21.4898 C   0  0  0  0  0  0
  -31.1259  -22.6175   21.3836 C   0  0  0  0  0  0
  -29.6827  -20.7784   19.8144 C   0  0  0  0  0  0
  -30.6779  -20.3044   20.6977 C   0  0  0  0  0  0
  -30.1630  -23.0975   20.4643 C   0  0  0  0  0  0
  -29.4434  -22.1627   19.6840 C   0  0  0  0  0  0
  -30.4580  -18.0660   21.6169 C   0  0  0  0  0  0
  -33.4003  -18.7268   17.6351 C   0  0  0  0  0  0
  -30.1964  -15.4629   21.6760 C   0  0  0  0  0  0
  -31.1075  -16.7001   21.9425 C   0  0  0  0  0  0
  -32.3921  -19.3597   18.6014 C   0  0  0  0  0  0
  -32.0990  -18.4493   19.8119 C   0  0  0  0  0  0
  -29.3893  -26.7080   20.9896 C   0  0  0  0  0  0
  -29.7509  -25.2642   21.4066 C   0  0  0  0  0  0
  -31.0395  -18.9188   20.7264 N   0  0  0  0  0  0
  -29.4146  -18.3529   22.2133 O   0  0  0  0  0  0
  -29.9487  -24.4454   20.2529 O   0  0  0  0  0  0
  -28.2648  -22.7132   18.5463 Cl  0  0  0  0  0  0
  -31.4686  -12.4269   19.0923 H   0  0  0  0  0  0
  -30.3479  -11.2955   19.7911 H   0  0  0  0  0  0
  -29.7267  -11.7879   17.4199 H   0  0  0  0  0  0
  -29.6512  -13.4989   17.7657 H   0  0  0  0  0  0
  -27.8360  -11.3051   18.8285 H   0  0  0  0  0  0
  -27.3560  -12.6265   17.7977 H   0  0  0  0  0  0
  -27.7176  -14.2508   19.5865 H   0  0  0  0  0  0
  -28.6839  -11.9345   21.3333 H   0  0  0  0  0  0
  -28.4567  -13.5659   21.8729 H   0  0  0  0  0  0
  -25.2764   -9.5686   22.4752 H   0  0  0  0  0  0
  -24.0016   -7.4632   22.7464 H   0  0  0  0  0  0
  -21.0844   -8.8755   19.8945 H   0  0  0  0  0  0
  -22.3679  -10.9673   19.6174 H   0  0  0  0  0  0
  -21.1996   -7.6150   23.9708 H   0  0  0  0  0  0
  -21.1475   -6.0532   25.9079 H   0  0  0  0  0  0
  -22.0606   -2.7607   23.2860 H   0  0  0  0  0  0
  -22.4139  -11.9881   22.4801 H   0  0  0  0  0  0
  -21.1126  -13.1230   22.2575 H   0  0  0  0  0  0
  -24.6757  -15.8472   20.5271 H   0  0  0  0  0  0
  -26.2987  -15.6218   20.1118 H   0  0  0  0  0  0
  -26.7112  -32.5574   23.1195 H   0  0  0  0  0  0
  -25.0082  -33.9802   25.0516 H   0  0  0  0  0  0
  -22.6873  -31.3071   21.4127 H   0  0  0  0  0  0
  -23.3755  -35.9647   23.3278 H   0  0  0  0  0  0
  -24.3604  -36.8952   22.2057 H   0  0  0  0  0  0
  -23.7230  -37.6516   23.6658 H   0  0  0  0  0  0
  -26.0295  -31.6025   20.5878 H   0  0  0  0  0  0
  -26.8179  -30.9060   21.9755 H   0  0  0  0  0  0
  -28.0977  -29.1448   21.1722 H   0  0  0  0  0  0
  -26.0935  -25.9879   19.0177 H   0  0  0  0  0  0
  -23.9903  -27.2918   19.0389 H   0  0  0  0  0  0
  -23.7135  -30.5965   19.4062 H   0  0  0  0  0  0
  -22.7368  -29.2374   19.8750 H   0  0  0  0  0  0
  -25.1276  -36.1986   25.0837 H   0  0  0  0  0  0
  -20.9954  -28.3223   24.1456 H   0  0  0  0  0  0
  -20.5670  -26.2263   23.3614 H   0  0  0  0  0  0
  -21.6643  -26.7438   22.1231 H   0  0  0  0  0  0
  -19.6915  -25.6308   21.1231 H   0  0  0  0  0  0
  -19.6712  -27.3220   20.6764 H   0  0  0  0  0  0
  -17.4213  -26.6721   21.3980 H   0  0  0  0  0  0
  -18.0283  -26.0062   22.8974 H   0  0  0  0  0  0
  -19.7920  -30.7259   24.2296 H   0  0  0  0  0  0
  -17.4995  -31.6253   24.5179 H   0  0  0  0  0  0
  -15.5340  -30.2979   23.7633 H   0  0  0  0  0  0
  -15.8675  -28.0831   22.7017 H   0  0  0  0  0  0
  -24.5932  -30.7028   25.7819 H   0  0  0  0  0  0
  -24.8913  -32.2852   26.4913 H   0  0  0  0  0  0
  -25.8103  -30.8888   27.0241 H   0  0  0  0  0  0
  -26.2830  -29.6803   24.1157 H   0  0  0  0  0  0
  -27.4128  -29.7286   25.4501 H   0  0  0  0  0  0
  -27.8637  -30.4383   23.9171 H   0  0  0  0  0  0
  -27.2726  -33.3591   26.2089 H   0  0  0  0  0  0
  -28.3846  -32.6876   25.0258 H   0  0  0  0  0  0
  -28.0787  -31.8396   26.5329 H   0  0  0  0  0  0
  -28.2592  -38.0120   24.7530 H   0  0  0  0  0  0
  -28.1108  -36.2656   24.6221 H   0  0  0  0  0  0
  -27.2333  -37.1394   25.8860 H   0  0  0  0  0  0
  -20.9300  -29.8733   21.6954 H   0  0  0  0  0  0
  -26.0186  -38.2875   24.1431 H   0  0  0  0  0  0
  -32.1667  -20.8922   22.1585 H   0  0  0  0  0  0
  -31.7114  -23.3031   21.9773 H   0  0  0  0  0  0
  -29.1285  -20.0838   19.2000 H   0  0  0  0  0  0
  -33.5900  -19.3826   16.7844 H   0  0  0  0  0  0
  -33.0266  -17.7789   17.2442 H   0  0  0  0  0  0
  -34.3545  -18.5318   18.1262 H   0  0  0  0  0  0
  -29.2065  -15.7781   21.3437 H   0  0  0  0  0  0
  -30.0495  -14.9540   22.6289 H   0  0  0  0  0  0
  -31.3093  -16.7343   23.0133 H   0  0  0  0  0  0
  -32.1035  -16.5934   21.5212 H   0  0  0  0  0  0
  -31.4712  -19.5663   18.0544 H   0  0  0  0  0  0
  -32.7803  -20.3209   18.9421 H   0  0  0  0  0  0
  -33.0204  -18.3226   20.3825 H   0  0  0  0  0  0
  -31.8208  -17.4673   19.4242 H   0  0  0  0  0  0
  -30.2560  -27.2096   20.5577 H   0  0  0  0  0  0
  -29.1000  -27.2666   21.8797 H   0  0  0  0  0  0
  -28.9420  -24.8437   22.0062 H   0  0  0  0  0  0
  -30.6440  -25.2881   22.0321 H   0  0  0  0  0  0
  1 25  1  0  0  0
  1 30  2  0  0  0
  1 79  1  0  0  0
  2  3  1  0  0  0
  2 25  1  0  0  0
  2 89  1  0  0  0
  2 90  1  0  0  0
  3  4  1  0  0  0
  3 91  1  0  0  0
  3 92  1  0  0  0
  4  5  1  0  0  0
  4 93  1  0  0  0
  4 94  1  0  0  0
  5  6  1  0  0  0
  5 26  1  0  0  0
  5 95  1  0  0  0
  6 25  1  0  0  0
  6 96  1  0  0  0
  6 97  1  0  0  0
  7  8  2  0  0  0
  7 26  1  0  0  0
  7 29  1  0  0  0
  8  9  1  0  0  0
  8 22  1  0  0  0
  9 10  1  0  0  0
  9 27  2  0  0  0
 10 11  2  0  0  0
 10 15  1  0  0  0
 11 12  1  0  0  0
 11 98  1  0  0  0
 12 13  2  0  0  0
 12 99  1  0  0  0
 13 14  1  0  0  0
 13 31  1  0  0  0
 14 15  2  0  0  0
 14100  1  0  0  0
 15101  1  0  0  0
 16 17  2  0  0  0
 16 21  1  0  0  0
 16 31  1  0  0  0
 17 18  1  0  0  0
 17102  1  0  0  0
 18 19  2  0  0  0
 18103  1  0  0  0
 19 20  1  0  0  0
 19 24  1  0  0  0
 20 21  2  0  0  0
 20104  1  0  0  0
 21 23  1  0  0  0
 22 28  1  0  0  0
 22 32  2  0  0  0
 26 27  1  0  0  0
 28105  1  0  0  0
 28106  1  0  0  0
 29107  1  0  0  0
 29108  1  0  0  0
 33 34  1  0  0  0
 33 66  1  0  0  0
 33 70  2  0  0  0
 34 36  1  0  0  0
 34 59  1  0  0  0
 34109  1  0  0  0
 35 44  2  0  0  0
 35 45  1  0  0  0
 35 68  1  0  0  0
 36 56  1  0  0  0
 36110  1  0  0  0
 37 39  1  0  0  0
 37 47  1  0  0  0
 37 66  1  0  0  0
 37111  1  0  0  0
 38 43  2  0  0  0
 38 46  1  0  0  0
 38 47  1  0  0  0
 39 64  1  0  0  0
 39 67  2  0  0  0
 40 52  1  0  0  0
 40 53  2  0  0  0
 40 58  1  0  0  0
 41112  1  0  0  0
 41113  1  0  0  0
 41114  1  0  0  0
 41 48  1  0  0  0
 42 43  1  0  0  0
 42 66  1  0  0  0
 42115  1  0  0  0
 42116  1  0  0  0
 43 44  1  0  0  0
 44117  1  0  0  0
 45 46  2  0  0  0
 45118  1  0  0  0
 46119  1  0  0  0
 47120  1  0  0  0
 47121  1  0  0  0
 48 56  1  0  0  0
 48 65  1  0  0  0
 48122  1  0  0  0
 49 50  1  0  0  0
 49 53  1  0  0  0
 49 64  1  0  0  0
 49123  1  0  0  0
 50 51  1  0  0  0
 50124  1  0  0  0
 50125  1  0  0  0
 51 52  1  0  0  0
 51126  1  0  0  0
 51127  1  0  0  0
 52128  1  0  0  0
 52129  1  0  0  0
 53 54  1  0  0  0
 54 55  2  0  0  0
 54130  1  0  0  0
 55 57  1  0  0  0
 55131  1  0  0  0
 56 69  2  0  0  0
 57 58  2  0  0  0
 57132  1  0  0  0
 58133  1  0  0  0
 59 60  1  0  0  0
 59 61  1  0  0  0
 59 62  1  0  0  0
 60134  1  0  0  0
 60135  1  0  0  0
 60136  1  0  0  0
 61137  1  0  0  0
 61138  1  0  0  0
 61139  1  0  0  0
 62140  1  0  0  0
 62141  1  0  0  0
 62142  1  0  0  0
 63 65  1  0  0  0
 63143  1  0  0  0
 63144  1  0  0  0
 63145  1  0  0  0
 64146  1  0  0  0
 65147  1  0  0  0
 68 83  1  0  0  0
 71 72  2  0  0  0
 71 74  1  0  0  0
 71148  1  0  0  0
 72 75  1  0  0  0
 72149  1  0  0  0
 73 74  2  0  0  0
 73 76  1  0  0  0
 73150  1  0  0  0
 74 85  1  0  0  0
 75 76  2  0  0  0
 75 87  1  0  0  0
 76 88  1  0  0  0
 77 80  1  0  0  0
 77 85  1  0  0  0
 77 86  2  0  0  0
 78 81  1  0  0  0
 78151  1  0  0  0
 78152  1  0  0  0
 78153  1  0  0  0
 79 80  1  0  0  0
 79154  1  0  0  0
 79155  1  0  0  0
 80156  1  0  0  0
 80157  1  0  0  0
 81 82  1  0  0  0
 81158  1  0  0  0
 81159  1  0  0  0
 82 85  1  0  0  0
 82160  1  0  0  0
 82161  1  0  0  0
 83 84  1  0  0  0
 83162  1  0  0  0
 83163  1  0  0  0
 84 87  1  0  0  0
 84164  1  0  0  0
 84165  1  0  0  0
M  ISO  4   1 100  68 101  79 100  83 101
M  END
> <chiral flag>
0

> <version>
0

> <s_m_source_file>
/data/baiqing/PycharmProjects/Reinvent-master-3.2/result/LINK_invent/BTK/process_docking_weight1_custom_sum_contain_oxygen_bond_distance_aromatic_linkinvent_7_9_3/rearranged_h_0007.sdf

> <i_m_source_file_index>
70

> <r_mmod_Potential_Energy-OPLS-2005>
35.1540184020996

> <r_mmod_Stretch_Energy-OPLS-2005>
39.4909858703613

> <r_mmod_Bend_Energy-OPLS-2005>
108.756484985352

> <r_mmod_Torsional_Energy-OPLS-2005>
261.006317138672

> <r_mmod_Improper_Torsional_Energy-OPLS-2005>
2.11327695846558

> <r_mmod_Van_der_Waal_Energy-OPLS-2005>
156.806518554688

> <r_mmod_Electrostatic_Energy-OPLS-2005>
-332.874053955078

> <r_mmod_Solvation_Energy-OPLS-2005>
-208.518707275391

> <b_mmod_Minimization_Converged-OPLS-2005>
0

> <r_mmod_RMS_Derivative-OPLS-2005>
1.5106645822525

$$$$
70
                    3D
 Structure written by MMmdl.
154162  0  0  1  0            999 V2000
  -30.5214  -14.9116   20.4378 C   0  0  0  0  0  0
  -30.4544  -12.5629   19.4923 C   0  0  0  0  0  0
  -29.5253  -12.5336   18.2542 C   0  0  0  0  0  0
  -28.0558  -12.3232   18.6698 C   0  0  0  0  0  0
  -27.6390  -13.2392   19.8492 C   0  0  2  0  0  0
  -28.6845  -13.2173   20.9861 C   0  0  0  0  0  0
  -25.2461  -13.8169   20.5614 C   0  0  0  0  0  0
  -24.1792  -13.0421   20.9224 C   0  0  0  0  0  0
  -24.6408  -11.6909   20.8781 C   0  0  0  0  0  0
  -23.9085  -10.4287   21.0428 C   0  0  0  0  0  0
  -24.3629   -9.4194   21.9199 C   0  0  0  0  0  0
  -23.6294   -8.2234   22.0758 C   0  0  0  0  0  0
  -22.4275   -8.0284   21.3550 C   0  0  0  0  0  0
  -21.9921   -9.0263   20.4653 C   0  0  0  0  0  0
  -22.7261  -10.2137   20.3071 C   0  0  0  0  0  0
  -21.6850   -6.0735   22.5285 C   0  0  0  0  0  0
  -21.4014   -6.5638   23.8220 C   0  0  0  0  0  0
  -21.3660   -5.6790   24.9181 C   0  0  0  0  0  0
  -21.6044   -4.3053   24.7232 C   0  0  0  0  0  0
  -21.8816   -3.8146   23.4352 C   0  0  0  0  0  0
  -21.9190   -4.6962   22.3408 C   0  0  0  0  0  0
  -22.7816  -13.5210   21.1877 C   0  0  0  0  0  0
  -22.1657   -4.2148   21.0985 F   0  0  0  0  0  0
  -21.5628   -3.4539   25.7742 F   0  0  0  0  0  0
  -29.9695  -13.6343   20.4042 N   0  0  0  0  0  0
  -26.2924  -12.9408   20.3266 N   0  0  0  0  0  0
  -25.9347  -11.6550   20.5783 N   0  0  0  0  0  0
  -22.0459  -12.8211   22.0440 N   0  0  0  0  0  0
  -25.4023  -15.1867   20.3812 N   0  0  0  0  0  0
  -31.7087  -15.0350   20.1177 O   0  0  0  0  0  0
  -21.6638   -6.8881   21.4245 O   0  0  0  0  0  0
  -22.3505  -14.5515   20.6711 O   0  0  0  0  0  0
  -24.6426  -31.8458   23.1899 C   0  0  0  0  0  0
  -25.9204  -32.4703   23.8283 C   0  0  1  0  0  0
  -27.2180  -27.1525   20.1451 C   0  0  0  0  0  0
  -25.5954  -33.8508   24.2203 N   0  0  0  0  0  0
  -23.4452  -30.4671   21.5348 C   0  0  2  0  0  0
  -24.8942  -28.8985   20.1105 C   0  0  0  0  0  0
  -22.7565  -29.4557   22.4852 C   0  0  0  0  0  0
  -18.0306  -28.1393   22.8472 C   0  0  0  0  0  0
  -24.1491  -36.7262   23.2642 C   0  0  0  0  0  0
  -26.0010  -30.7252   21.3866 C   0  0  0  0  0  0
  -26.0723  -29.3382   20.7273 C   0  0  0  0  0  0
  -27.2358  -28.4822   20.7265 C   0  0  0  0  0  0
  -26.0104  -26.8120   19.4934 C   0  0  0  0  0  0
  -24.8755  -27.6480   19.4784 C   0  0  0  0  0  0
  -23.6711  -29.7997   20.1529 C   0  0  0  0  0  0
  -25.4120  -36.3033   24.0317 C   0  0  1  0  0  0
  -20.5919  -28.3720   23.1230 C   0  0  2  0  0  0
  -20.6785  -26.9422   22.5398 C   0  0  0  0  0  0
  -19.5758  -26.6379   21.5205 C   0  0  0  0  0  0
  -18.1943  -26.7931   22.1621 C   0  0  0  0  0  0
  -19.1562  -28.8873   23.2847 C   0  0  0  0  0  0
  -18.9480  -30.1470   23.8875 C   0  0  0  0  0  0
  -17.6475  -30.6587   24.0560 C   0  0  0  0  0  0
  -25.9069  -34.9409   23.5066 C   0  0  0  0  0  0
  -16.5368  -29.9082   23.6333 C   0  0  0  0  0  0
  -16.7290  -28.6502   23.0350 C   0  0  0  0  0  0
  -26.4526  -31.6565   25.0720 C   0  0  0  0  0  0
  -25.3720  -31.3751   26.1423 C   0  0  0  0  0  0
  -27.0395  -30.2962   24.6300 C   0  0  0  0  0  0
  -27.6052  -32.4334   25.7510 C   0  0  0  0  0  0
  -27.5574  -37.1787   24.8465 C   0  0  0  0  0  0
  -21.4259  -29.3054   22.3605 N   0  0  0  0  0  0
  -26.4281  -37.3746   23.9409 N   0  0  0  0  0  0
  -24.7160  -31.0331   22.0924 N   0  0  0  0  0  0
  -23.4214  -28.8100   23.2993 O   0  0  0  0  0  0
  -28.2757  -26.1750   20.2068 O   0  0  0  0  0  0
  -26.5654  -34.8903   22.4644 O   0  0  0  0  0  0
  -23.5547  -32.1324   23.7127 O   0  0  0  0  0  0
  -28.1193  -19.5690   21.2017 C   0  0  0  0  0  0
  -30.0554  -19.9649   19.9379 C   0  0  0  0  0  0
  -28.4125  -18.1560   21.2649 C   0  0  0  0  0  0
  -30.3664  -18.5266   19.9696 C   0  0  0  0  0  0
  -29.5456  -17.5318   20.6345 C   0  0  0  0  0  0
  -28.8951  -20.5659   20.5411 C   0  0  0  0  0  0
  -27.4318  -17.3231   22.0794 C   0  0  0  0  0  0
  -31.6116  -18.0713   19.2361 C   0  0  0  0  0  0
  -27.9652  -24.6537   20.1308 C   0  0  0  0  0  0
  -28.9729  -23.3129   20.2760 C   0  0  0  0  0  0
  -29.6535  -15.9987   20.6975 N   0  0  0  0  0  0
  -28.3661  -21.9309   20.5295 O   0  0  0  0  0  0
  -31.4858  -12.7351   19.1798 H   0  0  0  0  0  0
  -30.4543  -11.5982   20.0018 H   0  0  0  0  0  0
  -29.8349  -11.7462   17.5658 H   0  0  0  0  0  0
  -29.6198  -13.4724   17.7063 H   0  0  0  0  0  0
  -27.9432  -11.2783   18.9605 H   0  0  0  0  0  0
  -27.3941  -12.4758   17.8163 H   0  0  0  0  0  0
  -27.6167  -14.2509   19.4445 H   0  0  0  0  0  0
  -28.7621  -12.2213   21.4241 H   0  0  0  0  0  0
  -28.3893  -13.8824   21.7986 H   0  0  0  0  0  0
  -25.2769   -9.5660   22.4781 H   0  0  0  0  0  0
  -23.9996   -7.4619   22.7470 H   0  0  0  0  0  0
  -21.0854   -8.8799   19.8956 H   0  0  0  0  0  0
  -22.3729  -10.9685   19.6186 H   0  0  0  0  0  0
  -21.2009   -7.6146   23.9728 H   0  0  0  0  0  0
  -21.1482   -6.0516   25.9085 H   0  0  0  0  0  0
  -22.0591   -2.7608   23.2856 H   0  0  0  0  0  0
  -22.4076  -11.9881   22.4841 H   0  0  0  0  0  0
  -21.1082  -13.1253   22.2651 H   0  0  0  0  0  0
  -24.6033  -15.8090   20.4313 H   0  0  0  0  0  0
  -26.2012  -15.6097   19.9282 H   0  0  0  0  0  0
  -26.7274  -32.5314   23.1018 H   0  0  0  0  0  0
  -25.0079  -33.9623   25.0333 H   0  0  0  0  0  0
  -22.7470  -31.2927   21.3821 H   0  0  0  0  0  0
  -23.3750  -35.9597   23.3291 H   0  0  0  0  0  0
  -24.3579  -36.8907   22.2060 H   0  0  0  0  0  0
  -23.7250  -37.6456   23.6687 H   0  0  0  0  0  0
  -26.1561  -31.4812   20.6154 H   0  0  0  0  0  0
  -26.8719  -30.7735   22.0287 H   0  0  0  0  0  0
  -28.1337  -28.8152   21.2278 H   0  0  0  0  0  0
  -25.9002  -25.8616   18.9967 H   0  0  0  0  0  0
  -23.9770  -27.3069   18.9825 H   0  0  0  0  0  0
  -23.8089  -30.5760   19.3991 H   0  0  0  0  0  0
  -22.7859  -29.2432   19.8400 H   0  0  0  0  0  0
  -25.1305  -36.1862   25.0808 H   0  0  0  0  0  0
  -21.0014  -28.3309   24.1351 H   0  0  0  0  0  0
  -20.5663  -26.2337   23.3619 H   0  0  0  0  0  0
  -21.6652  -26.7413   22.1207 H   0  0  0  0  0  0
  -19.6914  -25.6285   21.1250 H   0  0  0  0  0  0
  -19.6690  -27.3175   20.6724 H   0  0  0  0  0  0
  -17.4206  -26.6671   21.4033 H   0  0  0  0  0  0
  -18.0347  -26.0082   22.9027 H   0  0  0  0  0  0
  -19.7957  -30.7292   24.2233 H   0  0  0  0  0  0
  -17.5029  -31.6263   24.5169 H   0  0  0  0  0  0
  -15.5367  -30.2974   23.7667 H   0  0  0  0  0  0
  -15.8694  -28.0813   22.7070 H   0  0  0  0  0  0
  -24.5889  -30.7111   25.7746 H   0  0  0  0  0  0
  -24.8924  -32.2935   26.4817 H   0  0  0  0  0  0
  -25.8009  -30.8940   27.0222 H   0  0  0  0  0  0
  -26.3016  -29.6681   24.1298 H   0  0  0  0  0  0
  -27.4000  -29.7262   25.4874 H   0  0  0  0  0  0
  -27.8925  -30.4198   23.9624 H   0  0  0  0  0  0
  -27.2632  -33.3641   26.2049 H   0  0  0  0  0  0
  -28.3885  -32.6888   25.0360 H   0  0  0  0  0  0
  -28.0701  -31.8492   26.5463 H   0  0  0  0  0  0
  -28.2580  -38.0093   24.7504 H   0  0  0  0  0  0
  -28.1078  -36.2620   24.6292 H   0  0  0  0  0  0
  -27.2294  -37.1437   25.8868 H   0  0  0  0  0  0
  -20.9460  -29.8792   21.6812 H   0  0  0  0  0  0
  -26.0148  -38.2812   24.1410 H   0  0  0  0  0  0
  -27.2225  -19.9117   21.6988 H   0  0  0  0  0  0
  -30.7203  -20.6211   19.3945 H   0  0  0  0  0  0
  -26.4105  -17.6666   21.9138 H   0  0  0  0  0  0
  -27.6505  -17.4304   23.1420 H   0  0  0  0  0  0
  -27.4464  -16.2618   21.8444 H   0  0  0  0  0  0
  -32.0686  -18.8849   18.6729 H   0  0  0  0  0  0
  -31.3712  -17.2746   18.5321 H   0  0  0  0  0  0
  -32.3509  -17.6972   19.9448 H   0  0  0  0  0  0
  -27.1858  -24.5043   20.8786 H   0  0  0  0  0  0
  -27.4744  -24.4917   19.1729 H   0  0  0  0  0  0
  -29.6541  -23.4987   21.1062 H   0  0  0  0  0  0
  -29.6043  -23.2509   19.3898 H   0  0  0  0  0  0
  -28.7790  -15.6047   21.0051 H   0  0  0  0  0  0
  1 25  1  0  0  0
  1 30  2  0  0  0
  1 81  1  0  0  0
  2  3  1  0  0  0
  2 25  1  0  0  0
  2 83  1  0  0  0
  2 84  1  0  0  0
  3  4  1  0  0  0
  3 85  1  0  0  0
  3 86  1  0  0  0
  4  5  1  0  0  0
  4 87  1  0  0  0
  4 88  1  0  0  0
  5  6  1  0  0  0
  5 26  1  0  0  0
  5 89  1  0  0  0
  6 25  1  0  0  0
  6 90  1  0  0  0
  6 91  1  0  0  0
  7  8  2  0  0  0
  7 26  1  0  0  0
  7 29  1  0  0  0
  8  9  1  0  0  0
  8 22  1  0  0  0
  9 10  1  0  0  0
  9 27  2  0  0  0
 10 11  2  0  0  0
 10 15  1  0  0  0
 11 12  1  0  0  0
 11 92  1  0  0  0
 12 13  2  0  0  0
 12 93  1  0  0  0
 13 14  1  0  0  0
 13 31  1  0  0  0
 14 15  2  0  0  0
 14 94  1  0  0  0
 15 95  1  0  0  0
 16 17  2  0  0  0
 16 21  1  0  0  0
 16 31  1  0  0  0
 17 18  1  0  0  0
 17 96  1  0  0  0
 18 19  2  0  0  0
 18 97  1  0  0  0
 19 20  1  0  0  0
 19 24  1  0  0  0
 20 21  2  0  0  0
 20 98  1  0  0  0
 21 23  1  0  0  0
 22 28  1  0  0  0
 22 32  2  0  0  0
 26 27  1  0  0  0
 28 99  1  0  0  0
 28100  1  0  0  0
 29101  1  0  0  0
 29102  1  0  0  0
 33 34  1  0  0  0
 33 66  1  0  0  0
 33 70  2  0  0  0
 34 36  1  0  0  0
 34 59  1  0  0  0
 34103  1  0  0  0
 35 44  2  0  0  0
 35 45  1  0  0  0
 35 68  1  0  0  0
 36 56  1  0  0  0
 36104  1  0  0  0
 37 39  1  0  0  0
 37 47  1  0  0  0
 37 66  1  0  0  0
 37105  1  0  0  0
 38 43  2  0  0  0
 38 46  1  0  0  0
 38 47  1  0  0  0
 39 64  1  0  0  0
 39 67  2  0  0  0
 40 52  1  0  0  0
 40 53  2  0  0  0
 40 58  1  0  0  0
 41106  1  0  0  0
 41107  1  0  0  0
 41108  1  0  0  0
 41 48  1  0  0  0
 42 43  1  0  0  0
 42 66  1  0  0  0
 42109  1  0  0  0
 42110  1  0  0  0
 43 44  1  0  0  0
 44111  1  0  0  0
 45 46  2  0  0  0
 45112  1  0  0  0
 46113  1  0  0  0
 47114  1  0  0  0
 47115  1  0  0  0
 48 56  1  0  0  0
 48 65  1  0  0  0
 48116  1  0  0  0
 49 50  1  0  0  0
 49 53  1  0  0  0
 49 64  1  0  0  0
 49117  1  0  0  0
 50 51  1  0  0  0
 50118  1  0  0  0
 50119  1  0  0  0
 51 52  1  0  0  0
 51120  1  0  0  0
 51121  1  0  0  0
 52122  1  0  0  0
 52123  1  0  0  0
 53 54  1  0  0  0
 54 55  2  0  0  0
 54124  1  0  0  0
 55 57  1  0  0  0
 55125  1  0  0  0
 56 69  2  0  0  0
 57 58  2  0  0  0
 57126  1  0  0  0
 58127  1  0  0  0
 59 60  1  0  0  0
 59 61  1  0  0  0
 59 62  1  0  0  0
 60128  1  0  0  0
 60129  1  0  0  0
 60130  1  0  0  0
 61131  1  0  0  0
 61132  1  0  0  0
 61133  1  0  0  0
 62134  1  0  0  0
 62135  1  0  0  0
 62136  1  0  0  0
 63 65  1  0  0  0
 63137  1  0  0  0
 63138  1  0  0  0
 63139  1  0  0  0
 64140  1  0  0  0
 65141  1  0  0  0
 68 79  1  0  0  0
 71 73  2  0  0  0
 71 76  1  0  0  0
 71142  1  0  0  0
 72 74  1  0  0  0
 72 76  2  0  0  0
 72143  1  0  0  0
 73 75  1  0  0  0
 73 77  1  0  0  0
 74 75  2  0  0  0
 74 78  1  0  0  0
 75 81  1  0  0  0
 76 82  1  0  0  0
 77144  1  0  0  0
 77145  1  0  0  0
 77146  1  0  0  0
 78147  1  0  0  0
 78148  1  0  0  0
 78149  1  0  0  0
 79 80  1  0  0  0
 79150  1  0  0  0
 79151  1  0  0  0
 80 82  1  0  0  0
 80152  1  0  0  0
 80153  1  0  0  0
 81154  1  0  0  0
M  ISO  4   1 100  68 101  79 101  81 100
M  END
> <chiral flag>
0

> <version>
0

> <s_m_source_file>
/data/baiqing/PycharmProjects/Reinvent-master-3.2/result/LINK_invent/BTK/process_docking_weight1_custom_sum_contain_oxygen_bond_distance_aromatic_linkinvent_7_9_3/rearranged_h_0007.sdf

> <i_m_source_file_index>
71

> <r_mmod_Potential_Energy-OPLS-2005>
440.882080078125

> <r_mmod_Stretch_Energy-OPLS-2005>
219.512252807617

> <r_mmod_Bend_Energy-OPLS-2005>
306.338348388672

> <r_mmod_Torsional_Energy-OPLS-2005>
217.69140625

> <r_mmod_Improper_Torsional_Energy-OPLS-2005>
4.4046368598938

> <r_mmod_Van_der_Waal_Energy-OPLS-2005>
133.55078125

> <r_mmod_Electrostatic_Energy-OPLS-2005>
-406.874145507812

> <r_mmod_Solvation_Energy-OPLS-2005>
-205.703887939453

> <b_mmod_Minimization_Converged-OPLS-2005>
0

> <r_mmod_RMS_Derivative-OPLS-2005>
0.886530339717865

$$$$
71
                    3D
 Structure written by MMmdl.
180187  0  0  1  0            999 V2000
  -30.7341  -14.3402   20.7232 C   0  0  0  0  0  0
  -30.4346  -12.2954   19.3685 C   0  0  0  0  0  0
  -29.4844  -12.5519   18.1806 C   0  0  0  0  0  0
  -28.0060  -12.4093   18.5971 C   0  0  0  0  0  0
  -27.6700  -13.2002   19.8884 C   0  0  2  0  0  0
  -28.7085  -12.8673   20.9788 C   0  0  0  0  0  0
  -25.2604  -13.8141   20.5717 C   0  0  0  0  0  0
  -24.1793  -13.0423   20.9100 C   0  0  0  0  0  0
  -24.6346  -11.6907   20.8682 C   0  0  0  0  0  0
  -23.9017  -10.4295   21.0387 C   0  0  0  0  0  0
  -24.3571   -9.4233   21.9189 C   0  0  0  0  0  0
  -23.6262   -8.2250   22.0768 C   0  0  0  0  0  0
  -22.4250   -8.0271   21.3555 C   0  0  0  0  0  0
  -21.9867   -9.0242   20.4662 C   0  0  0  0  0  0
  -22.7177  -10.2133   20.3065 C   0  0  0  0  0  0
  -21.6843   -6.0709   22.5274 C   0  0  0  0  0  0
  -21.4007   -6.5620   23.8214 C   0  0  0  0  0  0
  -21.3674   -5.6779   24.9171 C   0  0  0  0  0  0
  -21.6052   -4.3041   24.7214 C   0  0  0  0  0  0
  -21.8822   -3.8126   23.4342 C   0  0  0  0  0  0
  -21.9200   -4.6940   22.3399 C   0  0  0  0  0  0
  -22.7828  -13.5261   21.1786 C   0  0  0  0  0  0
  -22.1662   -4.2125   21.0980 F   0  0  0  0  0  0
  -21.5664   -3.4540   25.7733 F   0  0  0  0  0  0
  -30.0599  -13.1914   20.4673 N   0  0  0  0  0  0
  -26.3065  -12.9312   20.3452 N   0  0  0  0  0  0
  -25.9290  -11.6466   20.5739 N   0  0  0  0  0  0
  -22.0421  -12.8314   22.0377 N   0  0  0  0  0  0
  -25.4361  -15.1848   20.4351 N   0  0  0  0  0  0
  -31.6980  -14.7466   20.0665 O   0  0  0  0  0  0
  -21.6632   -6.8853   21.4238 O   0  0  0  0  0  0
  -22.3557  -14.5597   20.6674 O   0  0  0  0  0  0
  -24.6099  -31.8691   23.2121 C   0  0  0  0  0  0
  -25.9019  -32.4817   23.8395 C   0  0  1  0  0  0
  -27.2475  -27.4584   20.0893 C   0  0  0  0  0  0
  -25.5918  -33.8610   24.2338 N   0  0  0  0  0  0
  -23.3990  -30.4922   21.5471 C   0  0  2  0  0  0
  -24.8496  -28.9626   20.1105 C   0  0  0  0  0  0
  -22.7374  -29.4676   22.4959 C   0  0  0  0  0  0
  -18.0287  -28.1346   22.8500 C   0  0  0  0  0  0
  -24.1491  -36.7316   23.2624 C   0  0  0  0  0  0
  -25.9255  -30.8390   21.3650 C   0  0  0  0  0  0
  -26.0025  -29.4771   20.7127 C   0  0  0  0  0  0
  -27.1996  -28.7307   20.6983 C   0  0  0  0  0  0
  -26.0689  -26.9472   19.4979 C   0  0  0  0  0  0
  -24.8759  -27.6949   19.5027 C   0  0  0  0  0  0
  -23.6100  -29.8263   20.1589 C   0  0  0  0  0  0
  -25.4114  -36.3099   24.0320 C   0  0  1  0  0  0
  -20.5840  -28.3664   23.1298 C   0  0  2  0  0  0
  -20.6709  -26.9409   22.5357 C   0  0  0  0  0  0
  -19.5711  -26.6444   21.5105 C   0  0  0  0  0  0
  -18.1907  -26.7927   22.1556 C   0  0  0  0  0  0
  -19.1514  -28.8821   23.2946 C   0  0  0  0  0  0
  -18.9419  -30.1405   23.8981 C   0  0  0  0  0  0
  -17.6415  -30.6547   24.0575 C   0  0  0  0  0  0
  -25.9041  -34.9467   23.5119 C   0  0  0  0  0  0
  -16.5326  -29.9057   23.6290 C   0  0  0  0  0  0
  -16.7271  -28.6480   23.0308 C   0  0  0  0  0  0
  -26.4493  -31.6586   25.0702 C   0  0  0  0  0  0
  -25.3803  -31.3653   26.1475 C   0  0  0  0  0  0
  -27.0300  -30.3037   24.6051 C   0  0  0  0  0  0
  -27.6085  -32.4286   25.7471 C   0  0  0  0  0  0
  -27.5599  -37.1801   24.8454 C   0  0  0  0  0  0
  -21.4093  -29.3046   22.3717 N   0  0  0  0  0  0
  -26.4308  -37.3773   23.9381 N   0  0  0  0  0  0
  -24.6600  -31.0830   22.0980 N   0  0  0  0  0  0
  -23.4150  -28.8213   23.2983 O   0  0  0  0  0  0
  -28.4606  -26.8027   20.1080 O   0  0  0  0  0  0
  -26.5565  -34.8917   22.4665 O   0  0  0  0  0  0
  -23.5325  -32.1402   23.7568 O   0  0  0  0  0  0
  -28.7047  -16.7309   21.8447 C   0  0  0  0  0  0
  -30.8047  -19.0915   23.7063 C   0  0  0  0  0  0
  -30.3746  -17.7610   25.8322 C   0  0  0  0  0  0
  -27.7129  -22.3857   18.0165 C   0  0  0  0  0  0
  -26.9277  -23.4887   17.2932 C   0  0  0  0  0  0
  -26.9004  -21.7181   19.1331 C   0  0  0  0  0  0
  -27.8083  -24.3712   16.3882 C   0  0  0  0  0  0
  -27.5091  -20.3779   19.5853 C   0  0  0  0  0  0
  -28.3218  -25.6858   17.0162 C   0  0  0  0  0  0
  -26.8013  -19.8052   20.8226 C   0  0  0  0  0  0
  -29.2784  -25.5130   18.2100 C   0  0  0  0  0  0
  -30.5498  -16.5526   23.5977 C   0  0  0  0  0  0
  -26.9962  -18.2909   21.0110 C   0  0  0  0  0  0
  -28.6169  -25.4801   19.6011 C   0  0  0  0  0  0
  -30.1880  -16.3875   22.0923 C   0  0  1  0  0  0
  -30.1235  -17.8560   24.3140 C   0  0  0  0  0  0
  -28.3832  -17.9037   21.2862 N   0  0  0  0  0  0
  -30.2789  -14.9628   21.8109 N   0  0  0  0  0  0
  -27.8407  -15.9104   22.1640 O   0  0  0  0  0  0
  -31.4732  -12.4371   19.0616 H   0  0  0  0  0  0
  -30.3598  -11.2592   19.7035 H   0  0  0  0  0  0
  -29.7098  -11.8682   17.3603 H   0  0  0  0  0  0
  -29.6533  -13.5572   17.7902 H   0  0  0  0  0  0
  -27.8038  -11.3486   18.7514 H   0  0  0  0  0  0
  -27.3566  -12.7279   17.7803 H   0  0  0  0  0  0
  -27.7410  -14.2630   19.6563 H   0  0  0  0  0  0
  -28.6667  -11.8014   21.2055 H   0  0  0  0  0  0
  -28.4449  -13.3538   21.9155 H   0  0  0  0  0  0
  -25.2697   -9.5745   22.4766 H   0  0  0  0  0  0
  -23.9979   -7.4668   22.7518 H   0  0  0  0  0  0
  -21.0775   -8.8748   19.8984 H   0  0  0  0  0  0
  -22.3602  -10.9658   19.6186 H   0  0  0  0  0  0
  -21.1972   -7.6123   23.9700 H   0  0  0  0  0  0
  -21.1508   -6.0511   25.9086 H   0  0  0  0  0  0
  -22.0585   -2.7573   23.2847 H   0  0  0  0  0  0
  -22.3859  -11.9871   22.4689 H   0  0  0  0  0  0
  -21.1145  -13.1576   22.2677 H   0  0  0  0  0  0
  -24.6757  -15.7628   20.7743 H   0  0  0  0  0  0
  -26.3419  -15.5361   20.7397 H   0  0  0  0  0  0
  -26.7049  -32.5549   23.1137 H   0  0  0  0  0  0
  -25.0194  -33.9749   25.0580 H   0  0  0  0  0  0
  -22.6842  -31.3048   21.4032 H   0  0  0  0  0  0
  -23.3751  -35.9661   23.3291 H   0  0  0  0  0  0
  -24.3582  -36.8927   22.2036 H   0  0  0  0  0  0
  -23.7266  -37.6532   23.6641 H   0  0  0  0  0  0
  -26.0347  -31.6036   20.5959 H   0  0  0  0  0  0
  -26.8118  -30.8944   21.9822 H   0  0  0  0  0  0
  -28.0917  -29.1319   21.1593 H   0  0  0  0  0  0
  -26.0465  -25.9854   19.0135 H   0  0  0  0  0  0
  -23.9881  -27.2907   19.0350 H   0  0  0  0  0  0
  -23.7219  -30.6017   19.4013 H   0  0  0  0  0  0
  -22.7385  -29.2425   19.8567 H   0  0  0  0  0  0
  -25.1285  -36.1975   25.0813 H   0  0  0  0  0  0
  -21.0020  -28.3180   24.1370 H   0  0  0  0  0  0
  -20.5496  -26.2265   23.3494 H   0  0  0  0  0  0
  -21.6570  -26.7400   22.1193 H   0  0  0  0  0  0
  -19.6900  -25.6416   21.0970 H   0  0  0  0  0  0
  -19.6611  -27.3335   20.6687 H   0  0  0  0  0  0
  -17.4213  -26.6836   21.3892 H   0  0  0  0  0  0
  -18.0338  -25.9933   22.8801 H   0  0  0  0  0  0
  -19.7883  -30.7204   24.2416 H   0  0  0  0  0  0
  -17.4952  -31.6257   24.5151 H   0  0  0  0  0  0
  -15.5335  -30.3016   23.7487 H   0  0  0  0  0  0
  -15.8701  -28.0815   22.6909 H   0  0  0  0  0  0
  -24.6016  -30.6941   25.7829 H   0  0  0  0  0  0
  -24.8971  -32.2785   26.4949 H   0  0  0  0  0  0
  -25.8239  -30.8828   27.0203 H   0  0  0  0  0  0
  -26.2781  -29.6799   24.1214 H   0  0  0  0  0  0
  -27.4156  -29.7279   25.4475 H   0  0  0  0  0  0
  -27.8597  -30.4319   23.9099 H   0  0  0  0  0  0
  -27.2704  -33.3565   26.2104 H   0  0  0  0  0  0
  -28.3908  -32.6881   25.0317 H   0  0  0  0  0  0
  -28.0773  -31.8385   26.5362 H   0  0  0  0  0  0
  -28.2602  -38.0106   24.7519 H   0  0  0  0  0  0
  -28.1104  -36.2646   24.6272 H   0  0  0  0  0  0
  -27.2294  -37.1432   25.8845 H   0  0  0  0  0  0
  -20.9235  -29.8774   21.6958 H   0  0  0  0  0  0
  -26.0206  -38.2851   24.1409 H   0  0  0  0  0  0
  -30.5170  -20.0055   24.2303 H   0  0  0  0  0  0
  -30.5226  -19.2198   22.6613 H   0  0  0  0  0  0
  -31.8918  -19.0074   23.7433 H   0  0  0  0  0  0
  -30.0479  -18.6643   26.3477 H   0  0  0  0  0  0
  -31.4291  -17.6198   26.0670 H   0  0  0  0  0  0
  -29.8277  -16.9259   26.2750 H   0  0  0  0  0  0
  -28.6301  -22.7796   18.4477 H   0  0  0  0  0  0
  -28.0163  -21.6423   17.2784 H   0  0  0  0  0  0
  -26.3581  -24.0916   17.9951 H   0  0  0  0  0  0
  -26.1751  -23.0002   16.6726 H   0  0  0  0  0  0
  -25.8817  -21.5450   18.7838 H   0  0  0  0  0  0
  -26.8253  -22.4079   19.9781 H   0  0  0  0  0  0
  -27.2263  -24.6309   15.5009 H   0  0  0  0  0  0
  -28.6520  -23.7895   16.0128 H   0  0  0  0  0  0
  -28.5748  -20.4899   19.7923 H   0  0  0  0  0  0
  -27.4272  -19.6701   18.7588 H   0  0  0  0  0  0
  -27.4968  -26.3486   17.2712 H   0  0  0  0  0  0
  -28.8719  -26.2145   16.2369 H   0  0  0  0  0  0
  -25.7298  -19.9882   20.7266 H   0  0  0  0  0  0
  -27.1108  -20.3488   21.7165 H   0  0  0  0  0  0
  -30.0055  -26.3264   18.2102 H   0  0  0  0  0  0
  -29.8802  -24.6142   18.0593 H   0  0  0  0  0  0
  -31.6298  -16.4240   23.7022 H   0  0  0  0  0  0
  -30.1101  -15.7200   24.1517 H   0  0  0  0  0  0
  -26.6508  -17.7609   20.1212 H   0  0  0  0  0  0
  -26.3528  -17.9605   21.8300 H   0  0  0  0  0  0
  -29.3079  -24.9933   20.2919 H   0  0  0  0  0  0
  -27.7197  -24.8649   19.6512 H   0  0  0  0  0  0
  -30.8417  -16.9734   21.4437 H   0  0  0  0  0  0
  -29.0453  -17.9821   24.2092 H   0  0  0  0  0  0
  -29.1258  -18.5382   21.0259 H   0  0  0  0  0  0
  -29.5412  -14.4453   22.2628 H   0  0  0  0  0  0
  1 25  1  0  0  0
  1 30  2  0  0  0
  1 88  1  0  0  0
  2  3  1  0  0  0
  2 25  1  0  0  0
  2 90  1  0  0  0
  2 91  1  0  0  0
  3  4  1  0  0  0
  3 92  1  0  0  0
  3 93  1  0  0  0
  4  5  1  0  0  0
  4 94  1  0  0  0
  4 95  1  0  0  0
  5  6  1  0  0  0
  5 26  1  0  0  0
  5 96  1  0  0  0
  6 25  1  0  0  0
  6 97  1  0  0  0
  6 98  1  0  0  0
  7  8  2  0  0  0
  7 26  1  0  0  0
  7 29  1  0  0  0
  8  9  1  0  0  0
  8 22  1  0  0  0
  9 10  1  0  0  0
  9 27  2  0  0  0
 10 11  2  0  0  0
 10 15  1  0  0  0
 11 12  1  0  0  0
 11 99  1  0  0  0
 12 13  2  0  0  0
 12100  1  0  0  0
 13 14  1  0  0  0
 13 31  1  0  0  0
 14 15  2  0  0  0
 14101  1  0  0  0
 15102  1  0  0  0
 16 17  2  0  0  0
 16 21  1  0  0  0
 16 31  1  0  0  0
 17 18  1  0  0  0
 17103  1  0  0  0
 18 19  2  0  0  0
 18104  1  0  0  0
 19 20  1  0  0  0
 19 24  1  0  0  0
 20 21  2  0  0  0
 20105  1  0  0  0
 21 23  1  0  0  0
 22 28  1  0  0  0
 22 32  2  0  0  0
 26 27  1  0  0  0
 28106  1  0  0  0
 28107  1  0  0  0
 29108  1  0  0  0
 29109  1  0  0  0
 33 34  1  0  0  0
 33 66  1  0  0  0
 33 70  2  0  0  0
 34 36  1  0  0  0
 34 59  1  0  0  0
 34110  1  0  0  0
 35 44  2  0  0  0
 35 45  1  0  0  0
 35 68  1  0  0  0
 36 56  1  0  0  0
 36111  1  0  0  0
 37 39  1  0  0  0
 37 47  1  0  0  0
 37 66  1  0  0  0
 37112  1  0  0  0
 38 43  2  0  0  0
 38 46  1  0  0  0
 38 47  1  0  0  0
 39 64  1  0  0  0
 39 67  2  0  0  0
 40 52  1  0  0  0
 40 53  2  0  0  0
 40 58  1  0  0  0
 41113  1  0  0  0
 41114  1  0  0  0
 41115  1  0  0  0
 41 48  1  0  0  0
 42 43  1  0  0  0
 42 66  1  0  0  0
 42116  1  0  0  0
 42117  1  0  0  0
 43 44  1  0  0  0
 44118  1  0  0  0
 45 46  2  0  0  0
 45119  1  0  0  0
 46120  1  0  0  0
 47121  1  0  0  0
 47122  1  0  0  0
 48 56  1  0  0  0
 48 65  1  0  0  0
 48123  1  0  0  0
 49 50  1  0  0  0
 49 53  1  0  0  0
 49 64  1  0  0  0
 49124  1  0  0  0
 50 51  1  0  0  0
 50125  1  0  0  0
 50126  1  0  0  0
 51 52  1  0  0  0
 51127  1  0  0  0
 51128  1  0  0  0
 52129  1  0  0  0
 52130  1  0  0  0
 53 54  1  0  0  0
 54 55  2  0  0  0
 54131  1  0  0  0
 55 57  1  0  0  0
 55132  1  0  0  0
 56 69  2  0  0  0
 57 58  2  0  0  0
 57133  1  0  0  0
 58134  1  0  0  0
 59 60  1  0  0  0
 59 61  1  0  0  0
 59 62  1  0  0  0
 60135  1  0  0  0
 60136  1  0  0  0
 60137  1  0  0  0
 61138  1  0  0  0
 61139  1  0  0  0
 61140  1  0  0  0
 62141  1  0  0  0
 62142  1  0  0  0
 62143  1  0  0  0
 63 65  1  0  0  0
 63144  1  0  0  0
 63145  1  0  0  0
 63146  1  0  0  0
 64147  1  0  0  0
 65148  1  0  0  0
 68 84  1  0  0  0
 71 85  1  0  0  0
 71 87  1  0  0  0
 71 89  2  0  0  0
 72149  1  0  0  0
 72150  1  0  0  0
 72151  1  0  0  0
 72 86  1  0  0  0
 73 86  1  0  0  0
 73152  1  0  0  0
 73153  1  0  0  0
 73154  1  0  0  0
 74 75  1  0  0  0
 74 76  1  0  0  0
 74155  1  0  0  0
 74156  1  0  0  0
 75 77  1  0  0  0
 75157  1  0  0  0
 75158  1  0  0  0
 76 78  1  0  0  0
 76159  1  0  0  0
 76160  1  0  0  0
 77 79  1  0  0  0
 77161  1  0  0  0
 77162  1  0  0  0
 78 80  1  0  0  0
 78163  1  0  0  0
 78164  1  0  0  0
 79 81  1  0  0  0
 79165  1  0  0  0
 79166  1  0  0  0
 80 83  1  0  0  0
 80167  1  0  0  0
 80168  1  0  0  0
 81 84  1  0  0  0
 81169  1  0  0  0
 81170  1  0  0  0
 82 86  1  0  0  0
 82171  1  0  0  0
 82172  1  0  0  0
 82 85  1  0  0  0
 83 87  1  0  0  0
 83173  1  0  0  0
 83174  1  0  0  0
 84175  1  0  0  0
 84176  1  0  0  0
 85 88  1  0  0  0
 85177  1  0  0  0
 86178  1  0  0  0
 87179  1  0  0  0
 88180  1  0  0  0
M  ISO  4   1 100  68 101  84 101  88 100
M  END
> <chiral flag>
0

> <version>
0

> <s_m_source_file>
/data/baiqing/PycharmProjects/Reinvent-master-3.2/result/LINK_invent/BTK/process_docking_weight1_custom_sum_contain_oxygen_bond_distance_aromatic_linkinvent_7_9_3/rearranged_h_0007.sdf

> <i_m_source_file_index>
72

> <r_mmod_Potential_Energy-OPLS-2005>
-157.93928527832

> <r_mmod_Stretch_Energy-OPLS-2005>
33.422966003418

> <r_mmod_Bend_Energy-OPLS-2005>
120.929313659668

> <r_mmod_Torsional_Energy-OPLS-2005>
249.822982788086

> <r_mmod_Improper_Torsional_Energy-OPLS-2005>
8.7153377532959

> <r_mmod_Van_der_Waal_Energy-OPLS-2005>
128.733108520508

> <r_mmod_Electrostatic_Energy-OPLS-2005>
-520.386840820312

> <r_mmod_Solvation_Energy-OPLS-2005>
-190.241119384766

> <b_mmod_Minimization_Converged-OPLS-2005>
0

> <r_mmod_RMS_Derivative-OPLS-2005>
5.08403968811035

$$$$
72
                    3D
 Structure written by MMmdl.
167175  0  0  1  0            999 V2000
  -30.7479  -14.4003   20.6242 C   0  0  0  0  0  0
  -30.4140  -12.2894   19.3914 C   0  0  0  0  0  0
  -29.4801  -12.4937   18.1832 C   0  0  0  0  0  0
  -28.0031  -12.3589   18.6022 C   0  0  0  0  0  0
  -27.6556  -13.1945   19.8624 C   0  0  2  0  0  0
  -28.6998  -12.9682   20.9774 C   0  0  0  0  0  0
  -25.2594  -13.8144   20.5658 C   0  0  0  0  0  0
  -24.1845  -13.0438   20.9142 C   0  0  0  0  0  0
  -24.6367  -11.6892   20.8697 C   0  0  0  0  0  0
  -23.9021  -10.4296   21.0371 C   0  0  0  0  0  0
  -24.3579   -9.4228   21.9161 C   0  0  0  0  0  0
  -23.6274   -8.2256   22.0738 C   0  0  0  0  0  0
  -22.4263   -8.0276   21.3527 C   0  0  0  0  0  0
  -21.9887   -9.0239   20.4625 C   0  0  0  0  0  0
  -22.7190  -10.2130   20.3030 C   0  0  0  0  0  0
  -21.6862   -6.0732   22.5276 C   0  0  0  0  0  0
  -21.4037   -6.5634   23.8210 C   0  0  0  0  0  0
  -21.3670   -5.6781   24.9167 C   0  0  0  0  0  0
  -21.6034   -4.3041   24.7208 C   0  0  0  0  0  0
  -21.8822   -3.8141   23.4332 C   0  0  0  0  0  0
  -21.9199   -4.6965   22.3395 C   0  0  0  0  0  0
  -22.7867  -13.5246   21.1804 C   0  0  0  0  0  0
  -22.1656   -4.2153   21.0974 F   0  0  0  0  0  0
  -21.5616   -3.4519   25.7718 F   0  0  0  0  0  0
  -30.0289  -13.2654   20.4193 N   0  0  0  0  0  0
  -26.2998  -12.9278   20.3307 N   0  0  0  0  0  0
  -25.9281  -11.6454   20.5718 N   0  0  0  0  0  0
  -22.0510  -12.8269   22.0371 N   0  0  0  0  0  0
  -25.4359  -15.1874   20.4152 N   0  0  0  0  0  0
  -31.8710  -14.5873   20.1461 O   0  0  0  0  0  0
  -21.6639   -6.8871   21.4236 O   0  0  0  0  0  0
  -22.3571  -14.5546   20.6632 O   0  0  0  0  0  0
  -24.6110  -31.8703   23.2101 C   0  0  0  0  0  0
  -25.9004  -32.4857   23.8390 C   0  0  1  0  0  0
  -27.2417  -27.4568   20.0756 C   0  0  0  0  0  0
  -25.5873  -33.8654   24.2339 N   0  0  0  0  0  0
  -23.3970  -30.4908   21.5531 C   0  0  2  0  0  0
  -24.8421  -28.9564   20.1170 C   0  0  0  0  0  0
  -22.7379  -29.4637   22.5001 C   0  0  0  0  0  0
  -18.0239  -28.1361   22.8487 C   0  0  0  0  0  0
  -24.1472  -36.7333   23.2628 C   0  0  0  0  0  0
  -25.9203  -30.8425   21.3543 C   0  0  0  0  0  0
  -25.9971  -29.4699   20.7166 C   0  0  0  0  0  0
  -27.1925  -28.7213   20.7050 C   0  0  0  0  0  0
  -26.0619  -26.9500   19.4797 C   0  0  0  0  0  0
  -24.8671  -27.6936   19.5003 C   0  0  0  0  0  0
  -23.6036  -29.8212   20.1680 C   0  0  0  0  0  0
  -25.4095  -36.3146   24.0335 C   0  0  1  0  0  0
  -20.5828  -28.3630   23.1336 C   0  0  2  0  0  0
  -20.6731  -26.9372   22.5436 C   0  0  0  0  0  0
  -19.5714  -26.6337   21.5230 C   0  0  0  0  0  0
  -18.1891  -26.7899   22.1640 C   0  0  0  0  0  0
  -19.1493  -28.8820   23.2894 C   0  0  0  0  0  0
  -18.9426  -30.1441   23.8889 C   0  0  0  0  0  0
  -17.6431  -30.6586   24.0549 C   0  0  0  0  0  0
  -25.9019  -34.9504   23.5131 C   0  0  0  0  0  0
  -16.5318  -29.9102   23.6310 C   0  0  0  0  0  0
  -16.7237  -28.6507   23.0337 C   0  0  0  0  0  0
  -26.4439  -31.6622   25.0696 C   0  0  0  0  0  0
  -25.3692  -31.3728   26.1437 C   0  0  0  0  0  0
  -27.0222  -30.3073   24.5997 C   0  0  0  0  0  0
  -27.6043  -32.4296   25.7459 C   0  0  0  0  0  0
  -27.5569  -37.1822   24.8455 C   0  0  0  0  0  0
  -21.4112  -29.2999   22.3755 N   0  0  0  0  0  0
  -26.4287  -37.3824   23.9397 N   0  0  0  0  0  0
  -24.6624  -31.0802   22.1008 N   0  0  0  0  0  0
  -23.4174  -28.8185   23.3023 O   0  0  0  0  0  0
  -28.4583  -26.8049   20.0714 O   0  0  0  0  0  0
  -26.5587  -34.8947   22.4705 O   0  0  0  0  0  0
  -23.5310  -32.1429   23.7519 O   0  0  0  0  0  0
  -28.3152  -17.0919   21.3273 C   0  0  0  0  0  0
  -27.4883  -18.0304   20.6781 C   0  0  0  0  0  0
  -29.3096  -16.4992   19.1938 C   0  0  0  0  0  0
  -29.2464  -16.3148   20.5996 C   0  0  0  0  0  0
  -27.5758  -18.2245   19.2775 C   0  0  0  0  0  0
  -28.4934  -17.4443   18.5477 C   0  0  0  0  0  0
  -25.2234  -22.8521   20.1923 C   0  0  0  0  0  0
  -30.7071  -15.8212   22.5581 C   0  0  0  0  0  0
  -24.5489  -22.1592   19.0059 C   0  0  0  0  0  0
  -25.4233  -21.0748   18.3352 C   0  0  0  0  0  0
  -28.6510  -24.3916   20.4117 C   0  0  0  0  0  0
  -27.2823  -23.9868   20.9864 C   0  0  0  0  0  0
  -25.9524  -19.9944   19.2929 C   0  0  0  0  0  0
  -28.6385  -25.5559   19.4041 C   0  0  0  0  0  0
  -26.4264  -23.3909   19.9658 N   0  0  0  0  0  0
  -30.1162  -15.3965   21.2841 N   0  0  0  0  0  0
  -24.6743  -22.8756   21.2948 O   0  0  0  0  0  0
  -26.8215  -19.1367   18.5679 O   0  0  0  0  0  0
  -28.6056  -17.6117   17.2079 F   0  0  0  0  0  0
  -31.4550  -12.3927   19.0818 H   0  0  0  0  0  0
  -30.3189  -11.2752   19.7827 H   0  0  0  0  0  0
  -29.7135  -11.7665   17.4053 H   0  0  0  0  0  0
  -29.6537  -13.4763   17.7416 H   0  0  0  0  0  0
  -27.8128  -11.3037   18.7974 H   0  0  0  0  0  0
  -27.3511  -12.6360   17.7724 H   0  0  0  0  0  0
  -27.6910  -14.2390   19.5603 H   0  0  0  0  0  0
  -28.6741  -11.9296   21.3129 H   0  0  0  0  0  0
  -28.4620  -13.5692   21.8567 H   0  0  0  0  0  0
  -25.2714   -9.5728   22.4729 H   0  0  0  0  0  0
  -23.9987   -7.4659   22.7454 H   0  0  0  0  0  0
  -21.0813   -8.8729   19.8933 H   0  0  0  0  0  0
  -22.3620  -10.9648   19.6129 H   0  0  0  0  0  0
  -21.2057   -7.6147   23.9723 H   0  0  0  0  0  0
  -21.1479   -6.0503   25.9072 H   0  0  0  0  0  0
  -22.0602   -2.7606   23.2815 H   0  0  0  0  0  0
  -22.4098  -11.9933   22.4782 H   0  0  0  0  0  0
  -21.1116  -13.1286   22.2511 H   0  0  0  0  0  0
  -24.6779  -15.8453   20.5533 H   0  0  0  0  0  0
  -26.3160  -15.6350   20.1968 H   0  0  0  0  0  0
  -26.7081  -32.5599   23.1178 H   0  0  0  0  0  0
  -25.0051  -33.9828   25.0499 H   0  0  0  0  0  0
  -22.6812  -31.3033   21.4130 H   0  0  0  0  0  0
  -23.3736  -35.9664   23.3318 H   0  0  0  0  0  0
  -24.3556  -36.8913   22.2030 H   0  0  0  0  0  0
  -23.7207  -37.6545   23.6617 H   0  0  0  0  0  0
  -25.9948  -31.5938   20.5674 H   0  0  0  0  0  0
  -26.8270  -30.9313   21.9409 H   0  0  0  0  0  0
  -28.0836  -29.1180   21.1738 H   0  0  0  0  0  0
  -26.0308  -25.9900   18.9895 H   0  0  0  0  0  0
  -23.9802  -27.2939   19.0293 H   0  0  0  0  0  0
  -23.7127  -30.5961   19.4079 H   0  0  0  0  0  0
  -22.7287  -29.2383   19.8742 H   0  0  0  0  0  0
  -25.1270  -36.2029   25.0827 H   0  0  0  0  0  0
  -20.9899  -28.3208   24.1457 H   0  0  0  0  0  0
  -20.5597  -26.2237   23.3612 H   0  0  0  0  0  0
  -21.6613  -26.7395   22.1260 H   0  0  0  0  0  0
  -19.6869  -25.6216   21.1324 H   0  0  0  0  0  0
  -19.6662  -27.3096   20.6718 H   0  0  0  0  0  0
  -17.4149  -26.6606   21.4062 H   0  0  0  0  0  0
  -18.0308  -26.0045   22.9049 H   0  0  0  0  0  0
  -19.7896  -30.7263   24.2268 H   0  0  0  0  0  0
  -17.4989  -31.6280   24.5139 H   0  0  0  0  0  0
  -15.5328  -30.3029   23.7614 H   0  0  0  0  0  0
  -15.8620  -28.0856   22.7053 H   0  0  0  0  0  0
  -24.5906  -30.7033   25.7769 H   0  0  0  0  0  0
  -24.8838  -32.2890   26.4820 H   0  0  0  0  0  0
  -25.8040  -30.8950   27.0226 H   0  0  0  0  0  0
  -26.2766  -29.6918   24.0960 H   0  0  0  0  0  0
  -27.3919  -29.7213   25.4421 H   0  0  0  0  0  0
  -27.8623  -30.4412   23.9173 H   0  0  0  0  0  0
  -27.2720  -33.3607   26.2067 H   0  0  0  0  0  0
  -28.3869  -32.6824   25.0287 H   0  0  0  0  0  0
  -28.0702  -31.8374   26.5350 H   0  0  0  0  0  0
  -28.2618  -38.0091   24.7527 H   0  0  0  0  0  0
  -28.1044  -36.2637   24.6289 H   0  0  0  0  0  0
  -27.2288  -37.1487   25.8856 H   0  0  0  0  0  0
  -20.9230  -29.8740   21.7019 H   0  0  0  0  0  0
  -26.0183  -38.2898   24.1437 H   0  0  0  0  0  0
  -28.2104  -16.9736   22.3961 H   0  0  0  0  0  0
  -26.7986  -18.5943   21.2889 H   0  0  0  0  0  0
  -30.0013  -15.9424   18.5790 H   0  0  0  0  0  0
  -31.2881  -16.7329   22.4154 H   0  0  0  0  0  0
  -31.3794  -15.0695   22.9781 H   0  0  0  0  0  0
  -29.9474  -16.0112   23.3141 H   0  0  0  0  0  0
  -24.2719  -22.9194   18.2748 H   0  0  0  0  0  0
  -23.6153  -21.7097   19.3446 H   0  0  0  0  0  0
  -26.2652  -21.5491   17.8288 H   0  0  0  0  0  0
  -24.8383  -20.5936   17.5497 H   0  0  0  0  0  0
  -29.1066  -23.5217   19.9386 H   0  0  0  0  0  0
  -29.3184  -24.6611   21.2322 H   0  0  0  0  0  0
  -26.7886  -24.8461   21.4430 H   0  0  0  0  0  0
  -27.4368  -23.2549   21.7813 H   0  0  0  0  0  0
  -25.1242  -19.4204   19.7109 H   0  0  0  0  0  0
  -26.4964  -20.4595   20.1171 H   0  0  0  0  0  0
  -27.9755  -25.3785   18.5590 H   0  0  0  0  0  0
  -29.6288  -25.6101   18.9520 H   0  0  0  0  0  0
  -26.8006  -23.3099   19.0313 H   0  0  0  0  0  0
  1 25  1  0  0  0
  1 30  2  0  0  0
  1 86  1  0  0  0
  2  3  1  0  0  0
  2 25  1  0  0  0
  2 90  1  0  0  0
  2 91  1  0  0  0
  3  4  1  0  0  0
  3 92  1  0  0  0
  3 93  1  0  0  0
  4  5  1  0  0  0
  4 94  1  0  0  0
  4 95  1  0  0  0
  5  6  1  0  0  0
  5 26  1  0  0  0
  5 96  1  0  0  0
  6 25  1  0  0  0
  6 97  1  0  0  0
  6 98  1  0  0  0
  7  8  2  0  0  0
  7 26  1  0  0  0
  7 29  1  0  0  0
  8  9  1  0  0  0
  8 22  1  0  0  0
  9 10  1  0  0  0
  9 27  2  0  0  0
 10 11  2  0  0  0
 10 15  1  0  0  0
 11 12  1  0  0  0
 11 99  1  0  0  0
 12 13  2  0  0  0
 12100  1  0  0  0
 13 14  1  0  0  0
 13 31  1  0  0  0
 14 15  2  0  0  0
 14101  1  0  0  0
 15102  1  0  0  0
 16 17  2  0  0  0
 16 21  1  0  0  0
 16 31  1  0  0  0
 17 18  1  0  0  0
 17103  1  0  0  0
 18 19  2  0  0  0
 18104  1  0  0  0
 19 20  1  0  0  0
 19 24  1  0  0  0
 20 21  2  0  0  0
 20105  1  0  0  0
 21 23  1  0  0  0
 22 28  1  0  0  0
 22 32  2  0  0  0
 26 27  1  0  0  0
 28106  1  0  0  0
 28107  1  0  0  0
 29108  1  0  0  0
 29109  1  0  0  0
 33 34  1  0  0  0
 33 66  1  0  0  0
 33 70  2  0  0  0
 34 36  1  0  0  0
 34 59  1  0  0  0
 34110  1  0  0  0
 35 44  2  0  0  0
 35 45  1  0  0  0
 35 68  1  0  0  0
 36 56  1  0  0  0
 36111  1  0  0  0
 37 39  1  0  0  0
 37 47  1  0  0  0
 37 66  1  0  0  0
 37112  1  0  0  0
 38 43  2  0  0  0
 38 46  1  0  0  0
 38 47  1  0  0  0
 39 64  1  0  0  0
 39 67  2  0  0  0
 40 52  1  0  0  0
 40 53  2  0  0  0
 40 58  1  0  0  0
 41113  1  0  0  0
 41114  1  0  0  0
 41115  1  0  0  0
 41 48  1  0  0  0
 42 43  1  0  0  0
 42 66  1  0  0  0
 42116  1  0  0  0
 42117  1  0  0  0
 43 44  1  0  0  0
 44118  1  0  0  0
 45 46  2  0  0  0
 45119  1  0  0  0
 46120  1  0  0  0
 47121  1  0  0  0
 47122  1  0  0  0
 48 56  1  0  0  0
 48 65  1  0  0  0
 48123  1  0  0  0
 49 50  1  0  0  0
 49 53  1  0  0  0
 49 64  1  0  0  0
 49124  1  0  0  0
 50 51  1  0  0  0
 50125  1  0  0  0
 50126  1  0  0  0
 51 52  1  0  0  0
 51127  1  0  0  0
 51128  1  0  0  0
 52129  1  0  0  0
 52130  1  0  0  0
 53 54  1  0  0  0
 54 55  2  0  0  0
 54131  1  0  0  0
 55 57  1  0  0  0
 55132  1  0  0  0
 56 69  2  0  0  0
 57 58  2  0  0  0
 57133  1  0  0  0
 58134  1  0  0  0
 59 60  1  0  0  0
 59 61  1  0  0  0
 59 62  1  0  0  0
 60135  1  0  0  0
 60136  1  0  0  0
 60137  1  0  0  0
 61138  1  0  0  0
 61139  1  0  0  0
 61140  1  0  0  0
 62141  1  0  0  0
 62142  1  0  0  0
 62143  1  0  0  0
 63 65  1  0  0  0
 63144  1  0  0  0
 63145  1  0  0  0
 63146  1  0  0  0
 64147  1  0  0  0
 65148  1  0  0  0
 68 84  1  0  0  0
 71 72  2  0  0  0
 71 74  1  0  0  0
 71149  1  0  0  0
 72 75  1  0  0  0
 72150  1  0  0  0
 73 74  2  0  0  0
 73 76  1  0  0  0
 73151  1  0  0  0
 74 86  1  0  0  0
 75 76  2  0  0  0
 75 88  1  0  0  0
 76 89  1  0  0  0
 77 79  1  0  0  0
 77 85  1  0  0  0
 77 87  2  0  0  0
 78 86  1  0  0  0
 78152  1  0  0  0
 78153  1  0  0  0
 78154  1  0  0  0
 79 80  1  0  0  0
 79155  1  0  0  0
 79156  1  0  0  0
 80 83  1  0  0  0
 80157  1  0  0  0
 80158  1  0  0  0
 81 82  1  0  0  0
 81 84  1  0  0  0
 81159  1  0  0  0
 81160  1  0  0  0
 82 85  1  0  0  0
 82161  1  0  0  0
 82162  1  0  0  0
 83 88  1  0  0  0
 83163  1  0  0  0
 83164  1  0  0  0
 84165  1  0  0  0
 84166  1  0  0  0
 85167  1  0  0  0
M  ISO  4   1 100  68 101  84 101  86 100
M  END
> <chiral flag>
0

> <version>
0

> <s_m_source_file>
/data/baiqing/PycharmProjects/Reinvent-master-3.2/result/LINK_invent/BTK/process_docking_weight1_custom_sum_contain_oxygen_bond_distance_aromatic_linkinvent_7_9_3/rearranged_h_0007.sdf

> <i_m_source_file_index>
73

> <r_mmod_Potential_Energy-OPLS-2005>
23.6592388153076

> <r_mmod_Stretch_Energy-OPLS-2005>
35.4727058410645

> <r_mmod_Bend_Energy-OPLS-2005>
114.230125427246

> <r_mmod_Torsional_Energy-OPLS-2005>
275.708282470703

> <r_mmod_Improper_Torsional_Energy-OPLS-2005>
3.76741003990173

> <r_mmod_Van_der_Waal_Energy-OPLS-2005>
153.574249267578

> <r_mmod_Electrostatic_Energy-OPLS-2005>
-355.408447265625

> <r_mmod_Solvation_Energy-OPLS-2005>
-215.063079833984

> <b_mmod_Minimization_Converged-OPLS-2005>
0

> <r_mmod_RMS_Derivative-OPLS-2005>
2.91588973999023

$$$$
73
                    3D
 Structure written by MMmdl.
151159  0  0  1  0            999 V2000
  -30.4414  -15.3629   20.3723 C   0  0  0  0  0  0
  -30.4150  -12.8907   19.5312 C   0  0  0  0  0  0
  -29.5265  -12.5820   18.2990 C   0  0  0  0  0  0
  -28.0840  -12.2885   18.7328 C   0  0  0  0  0  0
  -27.5973  -13.2842   19.8151 C   0  0  2  0  0  0
  -28.6229  -13.5363   20.9398 C   0  0  0  0  0  0
  -25.2338  -13.8280   20.5800 C   0  0  0  0  0  0
  -24.1706  -13.0448   20.9259 C   0  0  0  0  0  0
  -24.6372  -11.6934   20.8759 C   0  0  0  0  0  0
  -23.9077  -10.4300   21.0402 C   0  0  0  0  0  0
  -24.3639   -9.4208   21.9167 C   0  0  0  0  0  0
  -23.6332   -8.2249   22.0721 C   0  0  0  0  0  0
  -22.4290   -8.0290   21.3537 C   0  0  0  0  0  0
  -21.9904   -9.0265   20.4659 C   0  0  0  0  0  0
  -22.7232  -10.2151   20.3076 C   0  0  0  0  0  0
  -21.6862   -6.0756   22.5279 C   0  0  0  0  0  0
  -21.4034   -6.5659   23.8213 C   0  0  0  0  0  0
  -21.3657   -5.6804   24.9164 C   0  0  0  0  0  0
  -21.6038   -4.3061   24.7208 C   0  0  0  0  0  0
  -21.8821   -3.8159   23.4324 C   0  0  0  0  0  0
  -21.9193   -4.6988   22.3388 C   0  0  0  0  0  0
  -22.7713  -13.5176   21.1902 C   0  0  0  0  0  0
  -22.1659   -4.2174   21.0966 F   0  0  0  0  0  0
  -21.5610   -3.4530   25.7714 F   0  0  0  0  0  0
  -29.8303  -14.0695   20.2866 N   0  0  0  0  0  0
  -26.2753  -12.9549   20.3241 N   0  0  0  0  0  0
  -25.9307  -11.6641   20.5731 N   0  0  0  0  0  0
  -22.0395  -12.8116   22.0433 N   0  0  0  0  0  0
  -25.4004  -15.2011   20.4325 N   0  0  0  0  0  0
  -31.6705  -15.2646   20.2390 O   0  0  0  0  0  0
  -21.6653   -6.8885   21.4239 O   0  0  0  0  0  0
  -22.3398  -14.5497   20.6765 O   0  0  0  0  0  0
  -24.6700  -31.8193   23.1642 C   0  0  0  0  0  0
  -25.9364  -32.4578   23.8126 C   0  0  1  0  0  0
  -27.2104  -26.8628   20.2006 C   0  0  0  0  0  0
  -25.6012  -33.8387   24.2050 N   0  0  0  0  0  0
  -23.4862  -30.4275   21.5173 C   0  0  2  0  0  0
  -24.9351  -28.7977   20.1128 C   0  0  0  0  0  0
  -22.7690  -29.4441   22.4800 C   0  0  0  0  0  0
  -18.0332  -28.1429   22.8484 C   0  0  0  0  0  0
  -24.1475  -36.7165   23.2648 C   0  0  0  0  0  0
  -26.0554  -30.6037   21.4017 C   0  0  0  0  0  0
  -26.1198  -29.1839   20.7538 C   0  0  0  0  0  0
  -27.2484  -28.2390   20.7721 C   0  0  0  0  0  0
  -26.0032  -26.6465   19.4974 C   0  0  0  0  0  0
  -24.9063  -27.5502   19.4659 C   0  0  0  0  0  0
  -23.7266  -29.7374   20.1445 C   0  0  0  0  0  0
  -25.4129  -36.2956   24.0303 C   0  0  1  0  0  0
  -20.5953  -28.3773   23.1197 C   0  0  2  0  0  0
  -20.6816  -26.9460   22.5411 C   0  0  0  0  0  0
  -19.5779  -26.6394   21.5234 C   0  0  0  0  0  0
  -18.1965  -26.7970   22.1635 C   0  0  0  0  0  0
  -19.1594  -28.8929   23.2820 C   0  0  0  0  0  0
  -18.9505  -30.1528   23.8842 C   0  0  0  0  0  0
  -17.6496  -30.6619   24.0575 C   0  0  0  0  0  0
  -25.9103  -34.9346   23.4994 C   0  0  0  0  0  0
  -16.5385  -29.9114   23.6356 C   0  0  0  0  0  0
  -16.7314  -28.6537   23.0365 C   0  0  0  0  0  0
  -26.4587  -31.6522   25.0670 C   0  0  0  0  0  0
  -25.3692  -31.3806   26.1308 C   0  0  0  0  0  0
  -27.0486  -30.2877   24.6433 C   0  0  0  0  0  0
  -27.6073  -32.4316   25.7499 C   0  0  0  0  0  0
  -27.5553  -37.1752   24.8484 C   0  0  0  0  0  0
  -21.4359  -29.3044   22.3530 N   0  0  0  0  0  0
  -26.4263  -37.3713   23.9426 N   0  0  0  0  0  0
  -24.7594  -30.9799   22.0810 N   0  0  0  0  0  0
  -23.4197  -28.8055   23.3103 O   0  0  0  0  0  0
  -28.1945  -25.7247   20.3109 O   0  0  0  0  0  0
  -26.5694  -34.8907   22.4579 O   0  0  0  0  0  0
  -23.5759  -32.1190   23.6707 O   0  0  0  0  0  0
  -28.1096  -17.8418   23.3017 C   0  0  0  0  0  0
  -28.8376  -17.2940   22.2467 C   0  0  0  0  0  0
  -27.9943  -19.9297   22.1056 C   0  0  0  0  0  0
  -27.6446  -19.1449   23.2122 C   0  0  0  0  0  0
  -29.1952  -17.9610   21.0397 C   0  0  0  0  0  0
  -28.8072  -19.5404   21.0037 C   0  0  0  0  0  0
  -26.7610  -19.7068   24.3113 C   0  0  0  0  0  0
  -28.0214  -24.0715   20.0248 C   0  0  0  0  0  0
  -28.7862  -22.4902   20.6074 C   0  0  0  0  0  0
  -29.8269  -16.7351   20.1833 N   0  0  0  0  0  0
  -28.9084  -20.8467   20.1762 O   0  0  0  0  0  0
  -31.4277  -13.0967   19.1844 H   0  0  0  0  0  0
  -30.5014  -12.0164   20.1783 H   0  0  0  0  0  0
  -29.9328  -11.7370   17.7398 H   0  0  0  0  0  0
  -29.5351  -13.4363   17.6207 H   0  0  0  0  0  0
  -28.0570  -11.2705   19.1250 H   0  0  0  0  0  0
  -27.4134  -12.3034   17.8741 H   0  0  0  0  0  0
  -27.4889  -14.2314   19.2823 H   0  0  0  0  0  0
  -28.8156  -12.6319   21.5191 H   0  0  0  0  0  0
  -28.2330  -14.2748   21.6390 H   0  0  0  0  0  0
  -25.2785   -9.5685   22.4720 H   0  0  0  0  0  0
  -24.0060   -7.4611   22.7394 H   0  0  0  0  0  0
  -21.0819   -8.8794   19.8975 H   0  0  0  0  0  0
  -22.3660  -10.9708   19.6210 H   0  0  0  0  0  0
  -21.2057   -7.6166   23.9719 H   0  0  0  0  0  0
  -21.1467   -6.0527   25.9067 H   0  0  0  0  0  0
  -22.0602   -2.7628   23.2813 H   0  0  0  0  0  0
  -22.4037  -11.9741   22.4729 H   0  0  0  0  0  0
  -21.1010  -13.1071   22.2686 H   0  0  0  0  0  0
  -24.6432  -15.8549   20.5888 H   0  0  0  0  0  0
  -26.2619  -15.6485   20.1456 H   0  0  0  0  0  0
  -26.7449  -32.5104   23.0852 H   0  0  0  0  0  0
  -25.0221  -33.9465   25.0243 H   0  0  0  0  0  0
  -22.8030  -31.2613   21.3444 H   0  0  0  0  0  0
  -23.3758  -35.9474   23.3313 H   0  0  0  0  0  0
  -24.3536  -36.8784   22.2057 H   0  0  0  0  0  0
  -23.7203  -37.6353   23.6678 H   0  0  0  0  0  0
  -26.2375  -31.3336   20.6115 H   0  0  0  0  0  0
  -26.9168  -30.6691   22.0545 H   0  0  0  0  0  0
  -28.1392  -28.5327   21.3115 H   0  0  0  0  0  0
  -25.8682  -25.6954   19.0030 H   0  0  0  0  0  0
  -24.0070  -27.2444   18.9468 H   0  0  0  0  0  0
  -23.8928  -30.5048   19.3867 H   0  0  0  0  0  0
  -22.8321  -29.2000   19.8269 H   0  0  0  0  0  0
  -25.1335  -36.1745   25.0795 H   0  0  0  0  0  0
  -21.0050  -28.3393   24.1309 H   0  0  0  0  0  0
  -20.5729  -26.2417   23.3660 H   0  0  0  0  0  0
  -21.6684  -26.7459   22.1210 H   0  0  0  0  0  0
  -19.6934  -25.6291   21.1301 H   0  0  0  0  0  0
  -19.6712  -27.3189   20.6747 H   0  0  0  0  0  0
  -17.4249  -26.6738   21.4019 H   0  0  0  0  0  0
  -18.0319  -26.0124   22.9031 H   0  0  0  0  0  0
  -19.7980  -30.7379   24.2158 H   0  0  0  0  0  0
  -17.5049  -31.6287   24.5194 H   0  0  0  0  0  0
  -15.5386  -30.3000   23.7718 H   0  0  0  0  0  0
  -15.8713  -28.0855   22.7078 H   0  0  0  0  0  0
  -24.5931  -30.7093   25.7631 H   0  0  0  0  0  0
  -24.8831  -32.3023   26.4494 H   0  0  0  0  0  0
  -25.7911  -30.9151   27.0215 H   0  0  0  0  0  0
  -26.3164  -29.6541   24.1419 H   0  0  0  0  0  0
  -27.3991  -29.7263   25.5103 H   0  0  0  0  0  0
  -27.9122  -30.4047   23.9876 H   0  0  0  0  0  0
  -27.2638  -33.3664   26.1926 H   0  0  0  0  0  0
  -28.3983  -32.6760   25.0400 H   0  0  0  0  0  0
  -28.0624  -31.8517   26.5535 H   0  0  0  0  0  0
  -28.2600  -38.0020   24.7511 H   0  0  0  0  0  0
  -28.1002  -36.2551   24.6332 H   0  0  0  0  0  0
  -27.2264  -37.1446   25.8884 H   0  0  0  0  0  0
  -20.9624  -29.8661   21.6587 H   0  0  0  0  0  0
  -26.0093  -38.2768   24.1404 H   0  0  0  0  0  0
  -27.8727  -17.2317   24.1622 H   0  0  0  0  0  0
  -29.0896  -16.2587   22.4119 H   0  0  0  0  0  0
  -27.5410  -20.9022   22.1175 H   0  0  0  0  0  0
  -26.1682  -18.9227   24.7857 H   0  0  0  0  0  0
  -26.0657  -20.4503   23.9196 H   0  0  0  0  0  0
  -27.3694  -20.1796   25.0823 H   0  0  0  0  0  0
  -26.9484  -23.9035   20.1221 H   0  0  0  0  0  0
  -28.1961  -24.0338   18.9491 H   0  0  0  0  0  0
  -28.6236  -22.5274   21.6814 H   0  0  0  0  0  0
  -29.8437  -22.7482   20.5508 H   0  0  0  0  0  0
  -30.3060  -17.1383   19.3908 H   0  0  0  0  0  0
  1 25  1  0  0  0
  1 30  2  0  0  0
  1 80  1  0  0  0
  2  3  1  0  0  0
  2 25  1  0  0  0
  2 82  1  0  0  0
  2 83  1  0  0  0
  3  4  1  0  0  0
  3 84  1  0  0  0
  3 85  1  0  0  0
  4  5  1  0  0  0
  4 86  1  0  0  0
  4 87  1  0  0  0
  5  6  1  0  0  0
  5 26  1  0  0  0
  5 88  1  0  0  0
  6 25  1  0  0  0
  6 89  1  0  0  0
  6 90  1  0  0  0
  7  8  2  0  0  0
  7 26  1  0  0  0
  7 29  1  0  0  0
  8  9  1  0  0  0
  8 22  1  0  0  0
  9 10  1  0  0  0
  9 27  2  0  0  0
 10 11  2  0  0  0
 10 15  1  0  0  0
 11 12  1  0  0  0
 11 91  1  0  0  0
 12 13  2  0  0  0
 12 92  1  0  0  0
 13 14  1  0  0  0
 13 31  1  0  0  0
 14 15  2  0  0  0
 14 93  1  0  0  0
 15 94  1  0  0  0
 16 17  2  0  0  0
 16 21  1  0  0  0
 16 31  1  0  0  0
 17 18  1  0  0  0
 17 95  1  0  0  0
 18 19  2  0  0  0
 18 96  1  0  0  0
 19 20  1  0  0  0
 19 24  1  0  0  0
 20 21  2  0  0  0
 20 97  1  0  0  0
 21 23  1  0  0  0
 22 28  1  0  0  0
 22 32  2  0  0  0
 26 27  1  0  0  0
 28 98  1  0  0  0
 28 99  1  0  0  0
 29100  1  0  0  0
 29101  1  0  0  0
 33 34  1  0  0  0
 33 66  1  0  0  0
 33 70  2  0  0  0
 34 36  1  0  0  0
 34 59  1  0  0  0
 34102  1  0  0  0
 35 44  2  0  0  0
 35 45  1  0  0  0
 35 68  1  0  0  0
 36 56  1  0  0  0
 36103  1  0  0  0
 37 39  1  0  0  0
 37 47  1  0  0  0
 37 66  1  0  0  0
 37104  1  0  0  0
 38 43  2  0  0  0
 38 46  1  0  0  0
 38 47  1  0  0  0
 39 64  1  0  0  0
 39 67  2  0  0  0
 40 52  1  0  0  0
 40 53  2  0  0  0
 40 58  1  0  0  0
 41105  1  0  0  0
 41106  1  0  0  0
 41107  1  0  0  0
 41 48  1  0  0  0
 42 43  1  0  0  0
 42 66  1  0  0  0
 42108  1  0  0  0
 42109  1  0  0  0
 43 44  1  0  0  0
 44110  1  0  0  0
 45 46  2  0  0  0
 45111  1  0  0  0
 46112  1  0  0  0
 47113  1  0  0  0
 47114  1  0  0  0
 48 56  1  0  0  0
 48 65  1  0  0  0
 48115  1  0  0  0
 49 50  1  0  0  0
 49 53  1  0  0  0
 49 64  1  0  0  0
 49116  1  0  0  0
 50 51  1  0  0  0
 50117  1  0  0  0
 50118  1  0  0  0
 51 52  1  0  0  0
 51119  1  0  0  0
 51120  1  0  0  0
 52121  1  0  0  0
 52122  1  0  0  0
 53 54  1  0  0  0
 54 55  2  0  0  0
 54123  1  0  0  0
 55 57  1  0  0  0
 55124  1  0  0  0
 56 69  2  0  0  0
 57 58  2  0  0  0
 57125  1  0  0  0
 58126  1  0  0  0
 59 60  1  0  0  0
 59 61  1  0  0  0
 59 62  1  0  0  0
 60127  1  0  0  0
 60128  1  0  0  0
 60129  1  0  0  0
 61130  1  0  0  0
 61131  1  0  0  0
 61132  1  0  0  0
 62133  1  0  0  0
 62134  1  0  0  0
 62135  1  0  0  0
 63 65  1  0  0  0
 63136  1  0  0  0
 63137  1  0  0  0
 63138  1  0  0  0
 64139  1  0  0  0
 65140  1  0  0  0
 68 78  1  0  0  0
 71 72  2  0  0  0
 71 74  1  0  0  0
 71141  1  0  0  0
 72 75  1  0  0  0
 72142  1  0  0  0
 73 74  2  0  0  0
 73 76  1  0  0  0
 73143  1  0  0  0
 74 77  1  0  0  0
 75 76  2  0  0  0
 75 80  1  0  0  0
 76 81  1  0  0  0
 77144  1  0  0  0
 77145  1  0  0  0
 77146  1  0  0  0
 78 79  1  0  0  0
 78147  1  0  0  0
 78148  1  0  0  0
 79 81  1  0  0  0
 79149  1  0  0  0
 79150  1  0  0  0
 80151  1  0  0  0
M  ISO  4   1 100  68 101  78 101  80 100
M  END
> <chiral flag>
0

> <version>
0

> <s_m_source_file>
/data/baiqing/PycharmProjects/Reinvent-master-3.2/result/LINK_invent/BTK/process_docking_weight1_custom_sum_contain_oxygen_bond_distance_aromatic_linkinvent_7_9_3/rearranged_h_0007.sdf

> <i_m_source_file_index>
74

> <r_mmod_Potential_Energy-OPLS-2005>
1799.03686523438

> <r_mmod_Stretch_Energy-OPLS-2005>
771.737487792969

> <r_mmod_Bend_Energy-OPLS-2005>
630.625183105469

> <r_mmod_Torsional_Energy-OPLS-2005>
271.070526123047

> <r_mmod_Improper_Torsional_Energy-OPLS-2005>
15.8946971893311

> <r_mmod_Van_der_Waal_Energy-OPLS-2005>
139.087783813477

> <r_mmod_Electrostatic_Energy-OPLS-2005>
-388.633575439453

> <r_mmod_Solvation_Energy-OPLS-2005>
-207.422546386719

> <b_mmod_Minimization_Converged-OPLS-2005>
0

> <r_mmod_RMS_Derivative-OPLS-2005>
3.19715309143066

$$$$
74
                    3D
 Structure written by MMmdl.
157165  0  0  1  0            999 V2000
  -30.8131  -14.3048   20.7405 C   0  0  0  0  0  0
  -30.4112  -12.2895   19.3768 C   0  0  0  0  0  0
  -29.4739  -12.5370   18.1833 C   0  0  0  0  0  0
  -28.0036  -12.3814   18.6081 C   0  0  0  0  0  0
  -27.6667  -13.2028   19.8786 C   0  0  2  0  0  0
  -28.7046  -12.9482   20.9937 C   0  0  0  0  0  0
  -25.2608  -13.8161   20.5675 C   0  0  0  0  0  0
  -24.1848  -13.0441   20.9160 C   0  0  0  0  0  0
  -24.6393  -11.6907   20.8723 C   0  0  0  0  0  0
  -23.9054  -10.4297   21.0401 C   0  0  0  0  0  0
  -24.3607   -9.4217   21.9183 C   0  0  0  0  0  0
  -23.6286   -8.2251   22.0756 C   0  0  0  0  0  0
  -22.4270   -8.0282   21.3545 C   0  0  0  0  0  0
  -21.9903   -9.0252   20.4646 C   0  0  0  0  0  0
  -22.7224  -10.2136   20.3054 C   0  0  0  0  0  0
  -21.6850   -6.0735   22.5281 C   0  0  0  0  0  0
  -21.4011   -6.5638   23.8215 C   0  0  0  0  0  0
  -21.3661   -5.6792   24.9177 C   0  0  0  0  0  0
  -21.6046   -4.3054   24.7228 C   0  0  0  0  0  0
  -21.8819   -3.8146   23.4349 C   0  0  0  0  0  0
  -21.9191   -4.6961   22.3404 C   0  0  0  0  0  0
  -22.7872  -13.5244   21.1832 C   0  0  0  0  0  0
  -22.1659   -4.2147   21.0980 F   0  0  0  0  0  0
  -21.5634   -3.4538   25.7739 F   0  0  0  0  0  0
  -30.0545  -13.2162   20.4600 N   0  0  0  0  0  0
  -26.3048  -12.9325   20.3382 N   0  0  0  0  0  0
  -25.9318  -11.6484   20.5755 N   0  0  0  0  0  0
  -22.0513  -12.8238   22.0394 N   0  0  0  0  0  0
  -25.4347  -15.1876   20.4088 N   0  0  0  0  0  0
  -31.7584  -14.6777   20.0379 O   0  0  0  0  0  0
  -21.6637   -6.8877   21.4242 O   0  0  0  0  0  0
  -22.3554  -14.5548   20.6684 O   0  0  0  0  0  0
  -24.6098  -31.8703   23.2137 C   0  0  0  0  0  0
  -25.9008  -32.4837   23.8422 C   0  0  1  0  0  0
  -27.2364  -27.4790   20.0864 C   0  0  0  0  0  0
  -25.5884  -33.8636   24.2354 N   0  0  0  0  0  0
  -23.3966  -30.4930   21.5531 C   0  0  2  0  0  0
  -24.8449  -28.9637   20.1141 C   0  0  0  0  0  0
  -22.7386  -29.4660   22.5014 C   0  0  0  0  0  0
  -18.0264  -28.1370   22.8500 C   0  0  0  0  0  0
  -24.1479  -36.7326   23.2642 C   0  0  0  0  0  0
  -25.9206  -30.8485   21.3609 C   0  0  0  0  0  0
  -26.0014  -29.4859   20.7086 C   0  0  0  0  0  0
  -27.2029  -28.7481   20.6967 C   0  0  0  0  0  0
  -26.0711  -26.9579   19.4897 C   0  0  0  0  0  0
  -24.8718  -27.6957   19.5043 C   0  0  0  0  0  0
  -23.6030  -29.8239   20.1672 C   0  0  0  0  0  0
  -25.4099  -36.3124   24.0344 C   0  0  1  0  0  0
  -20.5851  -28.3648   23.1334 C   0  0  2  0  0  0
  -20.6752  -26.9390   22.5426 C   0  0  0  0  0  0
  -19.5734  -26.6382   21.5217 C   0  0  0  0  0  0
  -18.1910  -26.7923   22.1621 C   0  0  0  0  0  0
  -19.1513  -28.8826   23.2913 C   0  0  0  0  0  0
  -18.9443  -30.1435   23.8917 C   0  0  0  0  0  0
  -17.6447  -30.6582   24.0565 C   0  0  0  0  0  0
  -25.9025  -34.9484   23.5146 C   0  0  0  0  0  0
  -16.5339  -29.9083   23.6324 C   0  0  0  0  0  0
  -16.7254  -28.6495   23.0355 C   0  0  0  0  0  0
  -26.4464  -31.6600   25.0731 C   0  0  0  0  0  0
  -25.3747  -31.3662   26.1482 C   0  0  0  0  0  0
  -27.0308  -30.3059   24.6070 C   0  0  0  0  0  0
  -27.6038  -32.4319   25.7491 C   0  0  0  0  0  0
  -27.5583  -37.1811   24.8463 C   0  0  0  0  0  0
  -21.4117  -29.3021   22.3748 N   0  0  0  0  0  0
  -26.4291  -37.3804   23.9416 N   0  0  0  0  0  0
  -24.6604  -31.0835   22.1019 N   0  0  0  0  0  0
  -23.4173  -28.8202   23.3045 O   0  0  0  0  0  0
  -28.3826  -26.7311   20.0918 O   0  0  0  0  0  0
  -26.5586  -34.8925   22.4705 O   0  0  0  0  0  0
  -23.5302  -32.1436   23.7555 O   0  0  0  0  0  0
  -29.8420  -17.6599   23.4830 C   0  0  0  0  0  0
  -31.1649  -18.1269   21.4929 C   0  0  0  0  0  0
  -29.3109  -18.9624   23.4312 C   0  0  0  0  0  0
  -30.6283  -19.4288   21.4387 C   0  0  0  0  0  0
  -30.7834  -17.2428   22.5220 C   0  0  0  0  0  0
  -29.7016  -19.8624   22.4193 C   0  0  0  0  0  0
  -31.3881  -15.8540   22.6015 C   0  0  0  0  0  0
  -28.8408  -23.3929   21.8112 C   0  0  0  0  0  0
  -29.0005  -24.4709   20.7281 C   0  0  0  0  0  0
  -29.4921  -22.0552   21.4461 C   0  0  0  0  0  0
  -28.4208  -25.8153   21.1824 C   0  0  0  0  0  0
  -30.5682  -14.8496   21.9364 N   0  0  0  0  0  0
  -29.1490  -21.1229   22.4642 O   0  0  0  0  0  0
  -31.4525  -12.3941   19.0663 H   0  0  0  0  0  0
  -30.3116  -11.2621   19.7304 H   0  0  0  0  0  0
  -29.7038  -11.8436   17.3730 H   0  0  0  0  0  0
  -29.6390  -13.5396   17.7862 H   0  0  0  0  0  0
  -27.8178  -11.3220   18.7900 H   0  0  0  0  0  0
  -27.3432  -12.6695   17.7893 H   0  0  0  0  0  0
  -27.7257  -14.2568   19.6054 H   0  0  0  0  0  0
  -28.6557  -11.9112   21.3293 H   0  0  0  0  0  0
  -28.4503  -13.5510   21.8654 H   0  0  0  0  0  0
  -25.2750   -9.5699   22.4759 H   0  0  0  0  0  0
  -23.9995   -7.4648   22.7481 H   0  0  0  0  0  0
  -21.0835   -8.8768   19.8953 H   0  0  0  0  0  0
  -22.3676  -10.9675   19.6166 H   0  0  0  0  0  0
  -21.2002   -7.6148   23.9716 H   0  0  0  0  0  0
  -21.1485   -6.0523   25.9081 H   0  0  0  0  0  0
  -22.0598   -2.7610   23.2847 H   0  0  0  0  0  0
  -22.4121  -11.9891   22.4773 H   0  0  0  0  0  0
  -21.1139  -13.1281   22.2611 H   0  0  0  0  0  0
  -24.6755  -15.8505   20.5229 H   0  0  0  0  0  0
  -26.3020  -15.6245   20.1204 H   0  0  0  0  0  0
  -26.7082  -32.5567   23.1198 H   0  0  0  0  0  0
  -25.0045  -33.9807   25.0504 H   0  0  0  0  0  0
  -22.6823  -31.3076   21.4162 H   0  0  0  0  0  0
  -23.3744  -35.9654   23.3299 H   0  0  0  0  0  0
  -24.3573  -36.8947   22.2057 H   0  0  0  0  0  0
  -23.7222  -37.6523   23.6662 H   0  0  0  0  0  0
  -26.0259  -31.6162   20.5929 H   0  0  0  0  0  0
  -26.8111  -30.9047   21.9750 H   0  0  0  0  0  0
  -28.0968  -29.1432   21.1586 H   0  0  0  0  0  0
  -26.0936  -25.9827   19.0234 H   0  0  0  0  0  0
  -23.9818  -27.2863   19.0466 H   0  0  0  0  0  0
  -23.7032  -30.5987   19.4064 H   0  0  0  0  0  0
  -22.7288  -29.2387   19.8765 H   0  0  0  0  0  0
  -25.1266  -36.2002   25.0838 H   0  0  0  0  0  0
  -20.9942  -28.3214   24.1457 H   0  0  0  0  0  0
  -20.5660  -26.2249   23.3603 H   0  0  0  0  0  0
  -21.6624  -26.7438   22.1219 H   0  0  0  0  0  0
  -19.6893  -25.6298   21.1233 H   0  0  0  0  0  0
  -19.6677  -27.3197   20.6750 H   0  0  0  0  0  0
  -17.4187  -26.6683   21.4015 H   0  0  0  0  0  0
  -18.0292  -26.0053   22.9002 H   0  0  0  0  0  0
  -19.7922  -30.7244   24.2292 H   0  0  0  0  0  0
  -17.5007  -31.6263   24.5166 H   0  0  0  0  0  0
  -15.5340  -30.2995   23.7634 H   0  0  0  0  0  0
  -15.8651  -28.0817   22.7069 H   0  0  0  0  0  0
  -24.5941  -30.6991   25.7813 H   0  0  0  0  0  0
  -24.8914  -32.2795   26.4957 H   0  0  0  0  0  0
  -25.8128  -30.8822   27.0220 H   0  0  0  0  0  0
  -26.2841  -29.6803   24.1169 H   0  0  0  0  0  0
  -27.4153  -29.7308   25.4503 H   0  0  0  0  0  0
  -27.8638  -30.4410   23.9166 H   0  0  0  0  0  0
  -27.2665  -33.3614   26.2087 H   0  0  0  0  0  0
  -28.3838  -32.6883   25.0312 H   0  0  0  0  0  0
  -28.0718  -31.8433   26.5391 H   0  0  0  0  0  0
  -28.2591  -38.0120   24.7546 H   0  0  0  0  0  0
  -28.1092  -36.2656   24.6257 H   0  0  0  0  0  0
  -27.2303  -37.1417   25.8865 H   0  0  0  0  0  0
  -20.9267  -29.8746   21.6980 H   0  0  0  0  0  0
  -26.0188  -38.2881   24.1435 H   0  0  0  0  0  0
  -29.5330  -16.9878   24.2719 H   0  0  0  0  0  0
  -31.8801  -17.8115   20.7451 H   0  0  0  0  0  0
  -28.5993  -19.2760   24.1823 H   0  0  0  0  0  0
  -30.9536  -20.0774   20.6386 H   0  0  0  0  0  0
  -31.4924  -15.5706   23.6497 H   0  0  0  0  0  0
  -32.4040  -15.8715   22.2018 H   0  0  0  0  0  0
  -27.7782  -23.2322   21.9988 H   0  0  0  0  0  0
  -29.2669  -23.7498   22.7498 H   0  0  0  0  0  0
  -28.4921  -24.1431   19.8202 H   0  0  0  0  0  0
  -30.0527  -24.5958   20.4698 H   0  0  0  0  0  0
  -30.5734  -22.1853   21.3810 H   0  0  0  0  0  0
  -29.1282  -21.7031   20.4794 H   0  0  0  0  0  0
  -29.0295  -26.2401   21.9811 H   0  0  0  0  0  0
  -27.4281  -25.6476   21.6086 H   0  0  0  0  0  0
  -29.8095  -14.4513   22.4683 H   0  0  0  0  0  0
  1 25  1  0  0  0
  1 30  2  0  0  0
  1 82  1  0  0  0
  2  3  1  0  0  0
  2 25  1  0  0  0
  2 84  1  0  0  0
  2 85  1  0  0  0
  3  4  1  0  0  0
  3 86  1  0  0  0
  3 87  1  0  0  0
  4  5  1  0  0  0
  4 88  1  0  0  0
  4 89  1  0  0  0
  5  6  1  0  0  0
  5 26  1  0  0  0
  5 90  1  0  0  0
  6 25  1  0  0  0
  6 91  1  0  0  0
  6 92  1  0  0  0
  7  8  2  0  0  0
  7 26  1  0  0  0
  7 29  1  0  0  0
  8  9  1  0  0  0
  8 22  1  0  0  0
  9 10  1  0  0  0
  9 27  2  0  0  0
 10 11  2  0  0  0
 10 15  1  0  0  0
 11 12  1  0  0  0
 11 93  1  0  0  0
 12 13  2  0  0  0
 12 94  1  0  0  0
 13 14  1  0  0  0
 13 31  1  0  0  0
 14 15  2  0  0  0
 14 95  1  0  0  0
 15 96  1  0  0  0
 16 17  2  0  0  0
 16 21  1  0  0  0
 16 31  1  0  0  0
 17 18  1  0  0  0
 17 97  1  0  0  0
 18 19  2  0  0  0
 18 98  1  0  0  0
 19 20  1  0  0  0
 19 24  1  0  0  0
 20 21  2  0  0  0
 20 99  1  0  0  0
 21 23  1  0  0  0
 22 28  1  0  0  0
 22 32  2  0  0  0
 26 27  1  0  0  0
 28100  1  0  0  0
 28101  1  0  0  0
 29102  1  0  0  0
 29103  1  0  0  0
 33 34  1  0  0  0
 33 66  1  0  0  0
 33 70  2  0  0  0
 34 36  1  0  0  0
 34 59  1  0  0  0
 34104  1  0  0  0
 35 44  2  0  0  0
 35 45  1  0  0  0
 35 68  1  0  0  0
 36 56  1  0  0  0
 36105  1  0  0  0
 37 39  1  0  0  0
 37 47  1  0  0  0
 37 66  1  0  0  0
 37106  1  0  0  0
 38 43  2  0  0  0
 38 46  1  0  0  0
 38 47  1  0  0  0
 39 64  1  0  0  0
 39 67  2  0  0  0
 40 52  1  0  0  0
 40 53  2  0  0  0
 40 58  1  0  0  0
 41107  1  0  0  0
 41108  1  0  0  0
 41109  1  0  0  0
 41 48  1  0  0  0
 42 43  1  0  0  0
 42 66  1  0  0  0
 42110  1  0  0  0
 42111  1  0  0  0
 43 44  1  0  0  0
 44112  1  0  0  0
 45 46  2  0  0  0
 45113  1  0  0  0
 46114  1  0  0  0
 47115  1  0  0  0
 47116  1  0  0  0
 48 56  1  0  0  0
 48 65  1  0  0  0
 48117  1  0  0  0
 49 50  1  0  0  0
 49 53  1  0  0  0
 49 64  1  0  0  0
 49118  1  0  0  0
 50 51  1  0  0  0
 50119  1  0  0  0
 50120  1  0  0  0
 51 52  1  0  0  0
 51121  1  0  0  0
 51122  1  0  0  0
 52123  1  0  0  0
 52124  1  0  0  0
 53 54  1  0  0  0
 54 55  2  0  0  0
 54125  1  0  0  0
 55 57  1  0  0  0
 55126  1  0  0  0
 56 69  2  0  0  0
 57 58  2  0  0  0
 57127  1  0  0  0
 58128  1  0  0  0
 59 60  1  0  0  0
 59 61  1  0  0  0
 59 62  1  0  0  0
 60129  1  0  0  0
 60130  1  0  0  0
 60131  1  0  0  0
 61132  1  0  0  0
 61133  1  0  0  0
 61134  1  0  0  0
 62135  1  0  0  0
 62136  1  0  0  0
 62137  1  0  0  0
 63 65  1  0  0  0
 63138  1  0  0  0
 63139  1  0  0  0
 63140  1  0  0  0
 64141  1  0  0  0
 65142  1  0  0  0
 68 81  1  0  0  0
 71 73  2  0  0  0
 71 75  1  0  0  0
 71143  1  0  0  0
 72 74  1  0  0  0
 72 75  2  0  0  0
 72144  1  0  0  0
 73 76  1  0  0  0
 73145  1  0  0  0
 74 76  2  0  0  0
 74146  1  0  0  0
 75 77  1  0  0  0
 76 83  1  0  0  0
 77 82  1  0  0  0
 77147  1  0  0  0
 77148  1  0  0  0
 78 79  1  0  0  0
 78 80  1  0  0  0
 78149  1  0  0  0
 78150  1  0  0  0
 79 81  1  0  0  0
 79151  1  0  0  0
 79152  1  0  0  0
 80 83  1  0  0  0
 80153  1  0  0  0
 80154  1  0  0  0
 81155  1  0  0  0
 81156  1  0  0  0
 82157  1  0  0  0
M  ISO  4   1 100  68 101  81 101  82 100
M  END
> <chiral flag>
0

> <version>
0

> <s_m_source_file>
/data/baiqing/PycharmProjects/Reinvent-master-3.2/result/LINK_invent/BTK/process_docking_weight1_custom_sum_contain_oxygen_bond_distance_aromatic_linkinvent_7_9_3/rearranged_h_0007.sdf

> <i_m_source_file_index>
75

> <r_mmod_Potential_Energy-OPLS-2005>
-125.427665710449

> <r_mmod_Stretch_Energy-OPLS-2005>
30.2882747650146

> <r_mmod_Bend_Energy-OPLS-2005>
86.7461776733398

> <r_mmod_Torsional_Energy-OPLS-2005>
223.161834716797

> <r_mmod_Improper_Torsional_Energy-OPLS-2005>
3.34977674484253

> <r_mmod_Van_der_Waal_Energy-OPLS-2005>
153.613952636719

> <r_mmod_Electrostatic_Energy-OPLS-2005>
-422.427764892578

> <r_mmod_Solvation_Energy-OPLS-2005>
-207.903198242188

> <b_mmod_Minimization_Converged-OPLS-2005>
0

> <r_mmod_RMS_Derivative-OPLS-2005>
0.652379631996155

$$$$
75
                    3D
 Structure written by MMmdl.
158166  0  0  1  0            999 V2000
  -30.6002  -14.6486   20.4562 C   0  0  0  0  0  0
  -30.4436  -12.3880   19.4409 C   0  0  0  0  0  0
  -29.5079  -12.4935   18.2154 C   0  0  0  0  0  0
  -28.0299  -12.3303   18.6297 C   0  0  0  0  0  0
  -27.6508  -13.2094   19.8513 C   0  0  2  0  0  0
  -28.6994  -13.0783   20.9803 C   0  0  0  0  0  0
  -25.2590  -13.8144   20.5710 C   0  0  0  0  0  0
  -24.1848  -13.0428   20.9217 C   0  0  0  0  0  0
  -24.6395  -11.6901   20.8745 C   0  0  0  0  0  0
  -23.9046  -10.4297   21.0411 C   0  0  0  0  0  0
  -24.3612   -9.4206   21.9189 C   0  0  0  0  0  0
  -23.6301   -8.2232   22.0764 C   0  0  0  0  0  0
  -22.4282   -8.0268   21.3552 C   0  0  0  0  0  0
  -21.9897   -9.0241   20.4659 C   0  0  0  0  0  0
  -22.7218  -10.2130   20.3067 C   0  0  0  0  0  0
  -21.6848   -6.0725   22.5288 C   0  0  0  0  0  0
  -21.3996   -6.5632   23.8214 C   0  0  0  0  0  0
  -21.3676   -5.6798   24.9183 C   0  0  0  0  0  0
  -21.6052   -4.3054   24.7229 C   0  0  0  0  0  0
  -21.8816   -3.8142   23.4350 C   0  0  0  0  0  0
  -21.9191   -4.6956   22.3408 C   0  0  0  0  0  0
  -22.7874  -13.5243   21.1876 C   0  0  0  0  0  0
  -22.1667   -4.2141   21.0983 F   0  0  0  0  0  0
  -21.5637   -3.4533   25.7739 F   0  0  0  0  0  0
  -30.0121  -13.4132   20.4073 N   0  0  0  0  0  0
  -26.2984  -12.9314   20.3262 N   0  0  0  0  0  0
  -25.9313  -11.6477   20.5732 N   0  0  0  0  0  0
  -22.0482  -12.8260   22.0423 N   0  0  0  0  0  0
  -25.4313  -15.1861   20.4197 N   0  0  0  0  0  0
  -31.7913  -14.8146   20.1789 O   0  0  0  0  0  0
  -21.6643   -6.8865   21.4245 O   0  0  0  0  0  0
  -22.3576  -14.5553   20.6718 O   0  0  0  0  0  0
  -24.6279  -31.8590   23.2053 C   0  0  0  0  0  0
  -25.9131  -32.4769   23.8359 C   0  0  1  0  0  0
  -27.2177  -27.3171   20.1035 C   0  0  0  0  0  0
  -25.5965  -33.8572   24.2299 N   0  0  0  0  0  0
  -23.4202  -30.4875   21.5454 C   0  0  2  0  0  0
  -24.8637  -28.9459   20.1076 C   0  0  0  0  0  0
  -22.7474  -29.4629   22.4906 C   0  0  0  0  0  0
  -18.0294  -28.1394   22.8473 C   0  0  0  0  0  0
  -24.1493  -36.7279   23.2633 C   0  0  0  0  0  0
  -25.9636  -30.7883   21.3772 C   0  0  0  0  0  0
  -26.0350  -29.4177   20.7139 C   0  0  0  0  0  0
  -27.2157  -28.6161   20.7027 C   0  0  0  0  0  0
  -26.0233  -26.9048   19.4683 C   0  0  0  0  0  0
  -24.8610  -27.6952   19.4745 C   0  0  0  0  0  0
  -23.6360  -29.8300   20.1576 C   0  0  0  0  0  0
  -25.4119  -36.3073   24.0332 C   0  0  1  0  0  0
  -20.5889  -28.3686   23.1265 C   0  0  2  0  0  0
  -20.6780  -26.9405   22.5398 C   0  0  0  0  0  0
  -19.5771  -26.6387   21.5187 C   0  0  0  0  0  0
  -18.1952  -26.7937   22.1601 C   0  0  0  0  0  0
  -19.1542  -28.8856   23.2869 C   0  0  0  0  0  0
  -18.9465  -30.1456   23.8882 C   0  0  0  0  0  0
  -17.6468  -30.6593   24.0553 C   0  0  0  0  0  0
  -25.9061  -34.9440   23.5104 C   0  0  0  0  0  0
  -16.5356  -29.9089   23.6330 C   0  0  0  0  0  0
  -16.7282  -28.6512   23.0335 C   0  0  0  0  0  0
  -26.4528  -31.6576   25.0724 C   0  0  0  0  0  0
  -25.3796  -31.3724   26.1490 C   0  0  0  0  0  0
  -27.0339  -30.2991   24.6175 C   0  0  0  0  0  0
  -27.6135  -32.4277   25.7465 C   0  0  0  0  0  0
  -27.5593  -37.1786   24.8461 C   0  0  0  0  0  0
  -21.4184  -29.3043   22.3651 N   0  0  0  0  0  0
  -26.4285  -37.3785   23.9433 N   0  0  0  0  0  0
  -24.6891  -31.0614   22.0992 N   0  0  0  0  0  0
  -23.4210  -28.8144   23.2963 O   0  0  0  0  0  0
  -28.3278  -26.4552   20.1547 O   0  0  0  0  0  0
  -26.5592  -34.8904   22.4646 O   0  0  0  0  0  0
  -23.5447  -32.1378   23.7392 O   0  0  0  0  0  0
  -30.8593  -17.8783   21.1181 C   0  0  0  0  0  0
  -30.8482  -19.3023   21.1166 C   0  0  0  0  0  0
  -28.8546  -19.3225   19.7762 C   0  0  0  0  0  0
  -29.8501  -17.1365   20.4591 C   0  0  0  0  0  0
  -29.8412  -20.0688   20.4737 C   0  0  0  0  0  0
  -28.8573  -17.8837   19.7590 C   0  0  0  0  0  0
  -29.1887  -23.9352   20.3556 C   0  0  0  0  0  0
  -28.0892  -25.0044   19.9435 C   0  0  0  0  0  0
  -28.8597  -22.3863   20.1302 C   0  0  0  0  0  0
  -27.5021  -17.6706   17.8120 C   0  0  0  0  0  0
  -26.5865  -16.6590   17.1147 C   0  0  0  0  0  0
  -29.7167  -15.6873   20.5559 N   0  0  0  0  0  0
  -29.9157  -21.4753   20.5738 O   0  0  0  0  0  0
  -27.8977  -17.1592   19.0834 O   0  0  0  0  0  0
  -25.4111  -16.5903   17.7399 F   0  0  0  0  0  0
  -31.4825  -12.5283   19.1363 H   0  0  0  0  0  0
  -30.3889  -11.3930   19.8859 H   0  0  0  0  0  0
  -29.7763  -11.7390   17.4736 H   0  0  0  0  0  0
  -29.6447  -13.4597   17.7282 H   0  0  0  0  0  0
  -27.8721  -11.2788   18.8703 H   0  0  0  0  0  0
  -27.3729  -12.5499   17.7873 H   0  0  0  0  0  0
  -27.6578  -14.2386   19.4935 H   0  0  0  0  0  0
  -28.7111  -12.0639   21.3834 H   0  0  0  0  0  0
  -28.4505  -13.7330   21.8171 H   0  0  0  0  0  0
  -25.2764   -9.5688   22.4747 H   0  0  0  0  0  0
  -24.0021   -7.4621   22.7478 H   0  0  0  0  0  0
  -21.0821   -8.8744   19.8977 H   0  0  0  0  0  0
  -22.3664  -10.9665   19.6170 H   0  0  0  0  0  0
  -21.1957   -7.6140   23.9703 H   0  0  0  0  0  0
  -21.1534   -6.0536   25.9092 H   0  0  0  0  0  0
  -22.0583   -2.7601   23.2848 H   0  0  0  0  0  0
  -22.4054  -11.9921   22.4843 H   0  0  0  0  0  0
  -21.1096  -13.1335   22.2602 H   0  0  0  0  0  0
  -24.6178  -15.7911   20.3984 H   0  0  0  0  0  0
  -26.2246  -15.6004   19.9462 H   0  0  0  0  0  0
  -26.7176  -32.5427   23.1085 H   0  0  0  0  0  0
  -25.0192  -33.9703   25.0494 H   0  0  0  0  0  0
  -22.7138  -31.3088   21.4067 H   0  0  0  0  0  0
  -23.3772  -35.9590   23.3255 H   0  0  0  0  0  0
  -24.3600  -36.8940   22.2056 H   0  0  0  0  0  0
  -23.7207  -37.6456   23.6670 H   0  0  0  0  0  0
  -26.1014  -31.5543   20.6124 H   0  0  0  0  0  0
  -26.8435  -30.8280   22.0087 H   0  0  0  0  0  0
  -28.1133  -28.9747   21.1865 H   0  0  0  0  0  0
  -25.9513  -25.9532   18.9632 H   0  0  0  0  0  0
  -23.9682  -27.3328   18.9851 H   0  0  0  0  0  0
  -23.7646  -30.6132   19.4097 H   0  0  0  0  0  0
  -22.7534  -29.2691   19.8449 H   0  0  0  0  0  0
  -25.1292  -36.1915   25.0824 H   0  0  0  0  0  0
  -20.9998  -28.3264   24.1378 H   0  0  0  0  0  0
  -20.5667  -26.2292   23.3595 H   0  0  0  0  0  0
  -21.6646  -26.7431   22.1191 H   0  0  0  0  0  0
  -19.6929  -25.6295   21.1224 H   0  0  0  0  0  0
  -19.6734  -27.3178   20.6705 H   0  0  0  0  0  0
  -17.4218  -26.6659   21.4010 H   0  0  0  0  0  0
  -18.0375  -26.0093   22.9016 H   0  0  0  0  0  0
  -19.7938  -30.7268   24.2258 H   0  0  0  0  0  0
  -17.5024  -31.6266   24.5155 H   0  0  0  0  0  0
  -15.5358  -30.2978   23.7687 H   0  0  0  0  0  0
  -15.8679  -28.0844   22.7040 H   0  0  0  0  0  0
  -24.5912  -30.7140   25.7828 H   0  0  0  0  0  0
  -24.9066  -32.2890   26.5010 H   0  0  0  0  0  0
  -25.8151  -30.8817   27.0201 H   0  0  0  0  0  0
  -26.2869  -29.6728   24.1283 H   0  0  0  0  0  0
  -27.4107  -29.7281   25.4666 H   0  0  0  0  0  0
  -27.8730  -30.4257   23.9336 H   0  0  0  0  0  0
  -27.2825  -33.3619   26.2002 H   0  0  0  0  0  0
  -28.3969  -32.6744   25.0289 H   0  0  0  0  0  0
  -28.0758  -31.8397   26.5398 H   0  0  0  0  0  0
  -28.2581  -38.0113   24.7541 H   0  0  0  0  0  0
  -28.1112  -36.2640   24.6230 H   0  0  0  0  0  0
  -27.2312  -37.1361   25.8861 H   0  0  0  0  0  0
  -20.9356  -29.8794   21.6885 H   0  0  0  0  0  0
  -26.0160  -38.2849   24.1479 H   0  0  0  0  0  0
  -31.6355  -17.3607   21.6631 H   0  0  0  0  0  0
  -31.6314  -19.8216   21.6507 H   0  0  0  0  0  0
  -28.0758  -19.8662   19.2632 H   0  0  0  0  0  0
  -29.4204  -24.0824   21.4109 H   0  0  0  0  0  0
  -30.1053  -24.1672   19.8142 H   0  0  0  0  0  0
  -27.1823  -24.7233   20.4801 H   0  0  0  0  0  0
  -27.8767  -24.8528   18.8836 H   0  0  0  0  0  0
  -28.6651  -22.2070   19.0728 H   0  0  0  0  0  0
  -27.9441  -22.1330   20.6661 H   0  0  0  0  0  0
  -26.9709  -18.6189   17.8978 H   0  0  0  0  0  0
  -28.3926  -17.8397   17.2008 H   0  0  0  0  0  0
  -27.0182  -15.6583   17.0930 H   0  0  0  0  0  0
  -26.3859  -16.9636   16.0877 H   0  0  0  0  0  0
  -28.7585  -15.3717   20.5563 H   0  0  0  0  0  0
  1 25  1  0  0  0
  1 30  2  0  0  0
  1 82  1  0  0  0
  2  3  1  0  0  0
  2 25  1  0  0  0
  2 86  1  0  0  0
  2 87  1  0  0  0
  3  4  1  0  0  0
  3 88  1  0  0  0
  3 89  1  0  0  0
  4  5  1  0  0  0
  4 90  1  0  0  0
  4 91  1  0  0  0
  5  6  1  0  0  0
  5 26  1  0  0  0
  5 92  1  0  0  0
  6 25  1  0  0  0
  6 93  1  0  0  0
  6 94  1  0  0  0
  7  8  2  0  0  0
  7 26  1  0  0  0
  7 29  1  0  0  0
  8  9  1  0  0  0
  8 22  1  0  0  0
  9 10  1  0  0  0
  9 27  2  0  0  0
 10 11  2  0  0  0
 10 15  1  0  0  0
 11 12  1  0  0  0
 11 95  1  0  0  0
 12 13  2  0  0  0
 12 96  1  0  0  0
 13 14  1  0  0  0
 13 31  1  0  0  0
 14 15  2  0  0  0
 14 97  1  0  0  0
 15 98  1  0  0  0
 16 17  2  0  0  0
 16 21  1  0  0  0
 16 31  1  0  0  0
 17 18  1  0  0  0
 17 99  1  0  0  0
 18 19  2  0  0  0
 18100  1  0  0  0
 19 20  1  0  0  0
 19 24  1  0  0  0
 20 21  2  0  0  0
 20101  1  0  0  0
 21 23  1  0  0  0
 22 28  1  0  0  0
 22 32  2  0  0  0
 26 27  1  0  0  0
 28102  1  0  0  0
 28103  1  0  0  0
 29104  1  0  0  0
 29105  1  0  0  0
 33 34  1  0  0  0
 33 66  1  0  0  0
 33 70  2  0  0  0
 34 36  1  0  0  0
 34 59  1  0  0  0
 34106  1  0  0  0
 35 44  2  0  0  0
 35 45  1  0  0  0
 35 68  1  0  0  0
 36 56  1  0  0  0
 36107  1  0  0  0
 37 39  1  0  0  0
 37 47  1  0  0  0
 37 66  1  0  0  0
 37108  1  0  0  0
 38 43  2  0  0  0
 38 46  1  0  0  0
 38 47  1  0  0  0
 39 64  1  0  0  0
 39 67  2  0  0  0
 40 52  1  0  0  0
 40 53  2  0  0  0
 40 58  1  0  0  0
 41109  1  0  0  0
 41110  1  0  0  0
 41111  1  0  0  0
 41 48  1  0  0  0
 42 43  1  0  0  0
 42 66  1  0  0  0
 42112  1  0  0  0
 42113  1  0  0  0
 43 44  1  0  0  0
 44114  1  0  0  0
 45 46  2  0  0  0
 45115  1  0  0  0
 46116  1  0  0  0
 47117  1  0  0  0
 47118  1  0  0  0
 48 56  1  0  0  0
 48 65  1  0  0  0
 48119  1  0  0  0
 49 50  1  0  0  0
 49 53  1  0  0  0
 49 64  1  0  0  0
 49120  1  0  0  0
 50 51  1  0  0  0
 50121  1  0  0  0
 50122  1  0  0  0
 51 52  1  0  0  0
 51123  1  0  0  0
 51124  1  0  0  0
 52125  1  0  0  0
 52126  1  0  0  0
 53 54  1  0  0  0
 54 55  2  0  0  0
 54127  1  0  0  0
 55 57  1  0  0  0
 55128  1  0  0  0
 56 69  2  0  0  0
 57 58  2  0  0  0
 57129  1  0  0  0
 58130  1  0  0  0
 59 60  1  0  0  0
 59 61  1  0  0  0
 59 62  1  0  0  0
 60131  1  0  0  0
 60132  1  0  0  0
 60133  1  0  0  0
 61134  1  0  0  0
 61135  1  0  0  0
 61136  1  0  0  0
 62137  1  0  0  0
 62138  1  0  0  0
 62139  1  0  0  0
 63 65  1  0  0  0
 63140  1  0  0  0
 63141  1  0  0  0
 63142  1  0  0  0
 64143  1  0  0  0
 65144  1  0  0  0
 68 78  1  0  0  0
 71 72  2  0  0  0
 71 74  1  0  0  0
 71145  1  0  0  0
 72 75  1  0  0  0
 72146  1  0  0  0
 73 75  2  0  0  0
 73 76  1  0  0  0
 73147  1  0  0  0
 74 76  2  0  0  0
 74 82  1  0  0  0
 75 83  1  0  0  0
 76 84  1  0  0  0
 77 78  1  0  0  0
 77 79  1  0  0  0
 77148  1  0  0  0
 77149  1  0  0  0
 78150  1  0  0  0
 78151  1  0  0  0
 79 83  1  0  0  0
 79152  1  0  0  0
 79153  1  0  0  0
 80 81  1  0  0  0
 80 84  1  0  0  0
 80154  1  0  0  0
 80155  1  0  0  0
 81 85  1  0  0  0
 81156  1  0  0  0
 81157  1  0  0  0
 82158  1  0  0  0
M  ISO  4   1 100  68 101  78 101  82 100
M  END
> <chiral flag>
0

> <version>
0

> <s_m_source_file>
/data/baiqing/PycharmProjects/Reinvent-master-3.2/result/LINK_invent/BTK/process_docking_weight1_custom_sum_contain_oxygen_bond_distance_aromatic_linkinvent_7_9_3/rearranged_h_0007.sdf

> <i_m_source_file_index>
76

> <r_mmod_Potential_Energy-OPLS-2005>
22.9209518432617

> <r_mmod_Stretch_Energy-OPLS-2005>
77.746337890625

> <r_mmod_Bend_Energy-OPLS-2005>
142.671478271484

> <r_mmod_Torsional_Energy-OPLS-2005>
236.953491210938

> <r_mmod_Improper_Torsional_Energy-OPLS-2005>
8.85290622711182

> <r_mmod_Van_der_Waal_Energy-OPLS-2005>
139.102340698242

> <r_mmod_Electrostatic_Energy-OPLS-2005>
-425.981414794922

> <r_mmod_Solvation_Energy-OPLS-2005>
-211.25700378418

> <b_mmod_Minimization_Converged-OPLS-2005>
0

> <r_mmod_RMS_Derivative-OPLS-2005>
2.39721727371216

$$$$
76
                    3D
 Structure written by MMmdl.
155163  0  0  1  0            999 V2000
  -30.5542  -14.6722   20.5039 C   0  0  0  0  0  0
  -30.4567  -12.4146   19.4459 C   0  0  0  0  0  0
  -29.5144  -12.5092   18.2220 C   0  0  0  0  0  0
  -28.0352  -12.3341   18.6320 C   0  0  0  0  0  0
  -27.6538  -13.2044   19.8589 C   0  0  2  0  0  0
  -28.6959  -13.0335   20.9865 C   0  0  0  0  0  0
  -25.2579  -13.8146   20.5680 C   0  0  0  0  0  0
  -24.1829  -13.0441   20.9189 C   0  0  0  0  0  0
  -24.6372  -11.6910   20.8739 C   0  0  0  0  0  0
  -23.9047  -10.4291   21.0409 C   0  0  0  0  0  0
  -24.3614   -9.4195   21.9181 C   0  0  0  0  0  0
  -23.6276   -8.2237   22.0752 C   0  0  0  0  0  0
  -22.4257   -8.0284   21.3541 C   0  0  0  0  0  0
  -21.9889   -9.0257   20.4641 C   0  0  0  0  0  0
  -22.7227  -10.2130   20.3043 C   0  0  0  0  0  0
  -21.6839   -6.0737   22.5282 C   0  0  0  0  0  0
  -21.4009   -6.5636   23.8214 C   0  0  0  0  0  0
  -21.3655   -5.6789   24.9181 C   0  0  0  0  0  0
  -21.6039   -4.3051   24.7224 C   0  0  0  0  0  0
  -21.8826   -3.8145   23.4346 C   0  0  0  0  0  0
  -21.9181   -4.6969   22.3404 C   0  0  0  0  0  0
  -22.7846  -13.5261   21.1839 C   0  0  0  0  0  0
  -22.1655   -4.2160   21.0981 F   0  0  0  0  0  0
  -21.5616   -3.4532   25.7728 F   0  0  0  0  0  0
  -30.0080  -13.4143   20.4357 N   0  0  0  0  0  0
  -26.2976  -12.9298   20.3271 N   0  0  0  0  0  0
  -25.9285  -11.6469   20.5721 N   0  0  0  0  0  0
  -22.0474  -12.8274   22.0397 N   0  0  0  0  0  0
  -25.4319  -15.1856   20.4075 N   0  0  0  0  0  0
  -31.7044  -14.8991   20.1127 O   0  0  0  0  0  0
  -21.6623   -6.8882   21.4240 O   0  0  0  0  0  0
  -22.3544  -14.5565   20.6672 O   0  0  0  0  0  0
  -24.6252  -31.8590   23.2011 C   0  0  0  0  0  0
  -25.9096  -32.4774   23.8335 C   0  0  1  0  0  0
  -27.2298  -27.3155   20.1117 C   0  0  0  0  0  0
  -25.5917  -33.8568   24.2258 N   0  0  0  0  0  0
  -23.4195  -30.4818   21.5435 C   0  0  2  0  0  0
  -24.8653  -28.9346   20.1106 C   0  0  0  0  0  0
  -22.7464  -29.4608   22.4919 C   0  0  0  0  0  0
  -18.0281  -28.1383   22.8484 C   0  0  0  0  0  0
  -24.1490  -36.7292   23.2637 C   0  0  0  0  0  0
  -25.9601  -30.7876   21.3716 C   0  0  0  0  0  0
  -26.0327  -29.4150   20.7132 C   0  0  0  0  0  0
  -27.2128  -28.6159   20.7054 C   0  0  0  0  0  0
  -26.0321  -26.8783   19.5022 C   0  0  0  0  0  0
  -24.8663  -27.6699   19.5010 C   0  0  0  0  0  0
  -23.6346  -29.8153   20.1597 C   0  0  0  0  0  0
  -25.4116  -36.3068   24.0319 C   0  0  1  0  0  0
  -20.5884  -28.3685   23.1284 C   0  0  2  0  0  0
  -20.6780  -26.9407   22.5417 C   0  0  0  0  0  0
  -19.5752  -26.6384   21.5215 C   0  0  0  0  0  0
  -18.1934  -26.7926   22.1618 C   0  0  0  0  0  0
  -19.1537  -28.8843   23.2883 C   0  0  0  0  0  0
  -18.9454  -30.1444   23.8906 C   0  0  0  0  0  0
  -17.6456  -30.6589   24.0559 C   0  0  0  0  0  0
  -25.9053  -34.9449   23.5095 C   0  0  0  0  0  0
  -16.5345  -29.9093   23.6331 C   0  0  0  0  0  0
  -16.7265  -28.6506   23.0357 C   0  0  0  0  0  0
  -26.4490  -31.6586   25.0708 C   0  0  0  0  0  0
  -25.3729  -31.3732   26.1440 C   0  0  0  0  0  0
  -27.0345  -30.3009   24.6167 C   0  0  0  0  0  0
  -27.6039  -32.4334   25.7481 C   0  0  0  0  0  0
  -27.5567  -37.1801   24.8466 C   0  0  0  0  0  0
  -21.4175  -29.3042   22.3667 N   0  0  0  0  0  0
  -26.4293  -37.3763   23.9387 N   0  0  0  0  0  0
  -24.6870  -31.0606   22.0953 N   0  0  0  0  0  0
  -23.4194  -28.8149   23.2991 O   0  0  0  0  0  0
  -28.3850  -26.5158   20.1634 O   0  0  0  0  0  0
  -26.5620  -34.8916   22.4664 O   0  0  0  0  0  0
  -23.5415  -32.1374   23.7351 O   0  0  0  0  0  0
  -30.4189  -18.0453   20.2385 C   0  0  0  0  0  0
  -30.1362  -19.4560   20.2541 C   0  0  0  0  0  0
  -28.3439  -17.6499   21.3699 C   0  0  0  0  0  0
  -29.5298  -17.0991   20.8221 C   0  0  0  0  0  0
  -28.9590  -20.0002   20.8523 C   0  0  0  0  0  0
  -28.0453  -19.0410   21.3900 C   0  0  0  0  0  0
  -26.1433  -20.5242   21.5676 C   0  0  0  0  0  0
  -28.5237  -23.8976   20.6428 C   0  0  0  0  0  0
  -28.4719  -25.1320   19.6339 C   0  0  0  0  0  0
  -28.8691  -22.4344   20.0839 C   0  0  0  0  0  0
  -29.6673  -15.6396   20.9111 N   0  0  0  0  0  0
  -26.8435  -19.3589   21.9925 O   0  0  0  0  0  0
  -28.7338  -21.3774   21.0865 O   0  0  0  0  0  0
  -31.4934  -12.5757   19.1408 H   0  0  0  0  0  0
  -30.4273  -11.4168   19.8834 H   0  0  0  0  0  0
  -29.7868  -11.7561   17.4823 H   0  0  0  0  0  0
  -29.6452  -13.4754   17.7326 H   0  0  0  0  0  0
  -27.8783  -11.2798   18.8673 H   0  0  0  0  0  0
  -27.3797  -12.5557   17.7870 H   0  0  0  0  0  0
  -27.6761  -14.2399   19.5190 H   0  0  0  0  0  0
  -28.7197  -11.9966   21.3271 H   0  0  0  0  0  0
  -28.4276  -13.6200   21.8667 H   0  0  0  0  0  0
  -25.2770   -9.5665   22.4761 H   0  0  0  0  0  0
  -23.9977   -7.4628   22.7478 H   0  0  0  0  0  0
  -21.0800   -8.8773   19.8958 H   0  0  0  0  0  0
  -22.3681  -10.9665   19.6145 H   0  0  0  0  0  0
  -21.2015   -7.6144   23.9723 H   0  0  0  0  0  0
  -21.1461   -6.0517   25.9084 H   0  0  0  0  0  0
  -22.0603   -2.7605   23.2841 H   0  0  0  0  0  0
  -22.4083  -11.9959   22.4823 H   0  0  0  0  0  0
  -21.1090  -13.1294   22.2602 H   0  0  0  0  0  0
  -24.6592  -15.8343   20.5101 H   0  0  0  0  0  0
  -26.2620  -15.6163   20.0237 H   0  0  0  0  0  0
  -26.7157  -32.5438   23.1076 H   0  0  0  0  0  0
  -25.0068  -33.9707   25.0399 H   0  0  0  0  0  0
  -22.7114  -31.3005   21.3993 H   0  0  0  0  0  0
  -23.3736  -35.9646   23.3338 H   0  0  0  0  0  0
  -24.3580  -36.8879   22.2046 H   0  0  0  0  0  0
  -23.7282  -37.6512   23.6654 H   0  0  0  0  0  0
  -26.0933  -31.5487   20.6016 H   0  0  0  0  0  0
  -26.8410  -30.8363   22.0013 H   0  0  0  0  0  0
  -28.1121  -28.9848   21.1777 H   0  0  0  0  0  0
  -25.9510  -25.9111   19.0355 H   0  0  0  0  0  0
  -23.9669  -27.2912   19.0358 H   0  0  0  0  0  0
  -23.7528  -30.5901   19.4022 H   0  0  0  0  0  0
  -22.7557  -29.2442   19.8583 H   0  0  0  0  0  0
  -25.1307  -36.1910   25.0814 H   0  0  0  0  0  0
  -20.9966  -28.3269   24.1402 H   0  0  0  0  0  0
  -20.5692  -26.2279   23.3613 H   0  0  0  0  0  0
  -21.6648  -26.7451   22.1197 H   0  0  0  0  0  0
  -19.6921  -25.6299   21.1241 H   0  0  0  0  0  0
  -19.6702  -27.3200   20.6753 H   0  0  0  0  0  0
  -17.4201  -26.6655   21.4029 H   0  0  0  0  0  0
  -18.0331  -26.0077   22.9021 H   0  0  0  0  0  0
  -19.7935  -30.7250   24.2290 H   0  0  0  0  0  0
  -17.5021  -31.6275   24.5154 H   0  0  0  0  0  0
  -15.5354  -30.2999   23.7659 H   0  0  0  0  0  0
  -15.8658  -28.0831   22.7081 H   0  0  0  0  0  0
  -24.5926  -30.7047   25.7785 H   0  0  0  0  0  0
  -24.8898  -32.2904   26.4818 H   0  0  0  0  0  0
  -25.8069  -30.8958   27.0238 H   0  0  0  0  0  0
  -26.2918  -29.6742   24.1216 H   0  0  0  0  0  0
  -27.4067  -29.7280   25.4673 H   0  0  0  0  0  0
  -27.8782  -30.4294   23.9380 H   0  0  0  0  0  0
  -27.2650  -33.3664   26.2001 H   0  0  0  0  0  0
  -28.3888  -32.6847   25.0332 H   0  0  0  0  0  0
  -28.0671  -31.8497   26.5444 H   0  0  0  0  0  0
  -28.2605  -38.0075   24.7474 H   0  0  0  0  0  0
  -28.1041  -36.2600   24.6355 H   0  0  0  0  0  0
  -27.2275  -37.1535   25.8869 H   0  0  0  0  0  0
  -20.9329  -29.8756   21.6884 H   0  0  0  0  0  0
  -26.0166  -38.2833   24.1386 H   0  0  0  0  0  0
  -31.3403  -17.7017   19.7918 H   0  0  0  0  0  0
  -30.8721  -20.1317   19.8461 H   0  0  0  0  0  0
  -27.6164  -16.9801   21.8043 H   0  0  0  0  0  0
  -26.4280  -21.3894   22.1690 H   0  0  0  0  0  0
  -25.0725  -20.3654   21.6987 H   0  0  0  0  0  0
  -26.3048  -20.7526   20.5130 H   0  0  0  0  0  0
  -27.5654  -23.8522   21.1609 H   0  0  0  0  0  0
  -29.2605  -24.1269   21.4137 H   0  0  0  0  0  0
  -27.7366  -24.9317   18.8599 H   0  0  0  0  0  0
  -29.4140  -25.1143   19.0855 H   0  0  0  0  0  0
  -29.8788  -22.4230   19.6745 H   0  0  0  0  0  0
  -28.1956  -22.2004   19.2583 H   0  0  0  0  0  0
  -28.8326  -15.1964   21.2583 H   0  0  0  0  0  0
  1 25  1  0  0  0
  1 30  2  0  0  0
  1 81  1  0  0  0
  2  3  1  0  0  0
  2 25  1  0  0  0
  2 84  1  0  0  0
  2 85  1  0  0  0
  3  4  1  0  0  0
  3 86  1  0  0  0
  3 87  1  0  0  0
  4  5  1  0  0  0
  4 88  1  0  0  0
  4 89  1  0  0  0
  5  6  1  0  0  0
  5 26  1  0  0  0
  5 90  1  0  0  0
  6 25  1  0  0  0
  6 91  1  0  0  0
  6 92  1  0  0  0
  7  8  2  0  0  0
  7 26  1  0  0  0
  7 29  1  0  0  0
  8  9  1  0  0  0
  8 22  1  0  0  0
  9 10  1  0  0  0
  9 27  2  0  0  0
 10 11  2  0  0  0
 10 15  1  0  0  0
 11 12  1  0  0  0
 11 93  1  0  0  0
 12 13  2  0  0  0
 12 94  1  0  0  0
 13 14  1  0  0  0
 13 31  1  0  0  0
 14 15  2  0  0  0
 14 95  1  0  0  0
 15 96  1  0  0  0
 16 17  2  0  0  0
 16 21  1  0  0  0
 16 31  1  0  0  0
 17 18  1  0  0  0
 17 97  1  0  0  0
 18 19  2  0  0  0
 18 98  1  0  0  0
 19 20  1  0  0  0
 19 24  1  0  0  0
 20 21  2  0  0  0
 20 99  1  0  0  0
 21 23  1  0  0  0
 22 28  1  0  0  0
 22 32  2  0  0  0
 26 27  1  0  0  0
 28100  1  0  0  0
 28101  1  0  0  0
 29102  1  0  0  0
 29103  1  0  0  0
 33 34  1  0  0  0
 33 66  1  0  0  0
 33 70  2  0  0  0
 34 36  1  0  0  0
 34 59  1  0  0  0
 34104  1  0  0  0
 35 44  2  0  0  0
 35 45  1  0  0  0
 35 68  1  0  0  0
 36 56  1  0  0  0
 36105  1  0  0  0
 37 39  1  0  0  0
 37 47  1  0  0  0
 37 66  1  0  0  0
 37106  1  0  0  0
 38 43  2  0  0  0
 38 46  1  0  0  0
 38 47  1  0  0  0
 39 64  1  0  0  0
 39 67  2  0  0  0
 40 52  1  0  0  0
 40 53  2  0  0  0
 40 58  1  0  0  0
 41107  1  0  0  0
 41108  1  0  0  0
 41109  1  0  0  0
 41 48  1  0  0  0
 42 43  1  0  0  0
 42 66  1  0  0  0
 42110  1  0  0  0
 42111  1  0  0  0
 43 44  1  0  0  0
 44112  1  0  0  0
 45 46  2  0  0  0
 45113  1  0  0  0
 46114  1  0  0  0
 47115  1  0  0  0
 47116  1  0  0  0
 48 56  1  0  0  0
 48 65  1  0  0  0
 48117  1  0  0  0
 49 50  1  0  0  0
 49 53  1  0  0  0
 49 64  1  0  0  0
 49118  1  0  0  0
 50 51  1  0  0  0
 50119  1  0  0  0
 50120  1  0  0  0
 51 52  1  0  0  0
 51121  1  0  0  0
 51122  1  0  0  0
 52123  1  0  0  0
 52124  1  0  0  0
 53 54  1  0  0  0
 54 55  2  0  0  0
 54125  1  0  0  0
 55 57  1  0  0  0
 55126  1  0  0  0
 56 69  2  0  0  0
 57 58  2  0  0  0
 57127  1  0  0  0
 58128  1  0  0  0
 59 60  1  0  0  0
 59 61  1  0  0  0
 59 62  1  0  0  0
 60129  1  0  0  0
 60130  1  0  0  0
 60131  1  0  0  0
 61132  1  0  0  0
 61133  1  0  0  0
 61134  1  0  0  0
 62135  1  0  0  0
 62136  1  0  0  0
 62137  1  0  0  0
 63 65  1  0  0  0
 63138  1  0  0  0
 63139  1  0  0  0
 63140  1  0  0  0
 64141  1  0  0  0
 65142  1  0  0  0
 68 79  1  0  0  0
 71 72  2  0  0  0
 71 74  1  0  0  0
 71143  1  0  0  0
 72 75  1  0  0  0
 72144  1  0  0  0
 73 74  2  0  0  0
 73 76  1  0  0  0
 73145  1  0  0  0
 74 81  1  0  0  0
 75 76  2  0  0  0
 75 83  1  0  0  0
 76 82  1  0  0  0
 77 82  1  0  0  0
 77146  1  0  0  0
 77147  1  0  0  0
 77148  1  0  0  0
 78 79  1  0  0  0
 78 80  1  0  0  0
 78149  1  0  0  0
 78150  1  0  0  0
 79151  1  0  0  0
 79152  1  0  0  0
 80 83  1  0  0  0
 80153  1  0  0  0
 80154  1  0  0  0
 81155  1  0  0  0
M  ISO  4   1 100  68 101  79 101  81 100
M  END
> <chiral flag>
0

> <version>
0

> <s_m_source_file>
/data/baiqing/PycharmProjects/Reinvent-master-3.2/result/LINK_invent/BTK/process_docking_weight1_custom_sum_contain_oxygen_bond_distance_aromatic_linkinvent_7_9_3/rearranged_h_0007.sdf

> <i_m_source_file_index>
77

> <r_mmod_Potential_Energy-OPLS-2005>
117.597244262695

> <r_mmod_Stretch_Energy-OPLS-2005>
84.9244384765625

> <r_mmod_Bend_Energy-OPLS-2005>
189.403106689453

> <r_mmod_Torsional_Energy-OPLS-2005>
231.37077331543

> <r_mmod_Improper_Torsional_Energy-OPLS-2005>
4.56534147262573

> <r_mmod_Van_der_Waal_Energy-OPLS-2005>
142.088027954102

> <r_mmod_Electrostatic_Energy-OPLS-2005>
-375.140808105469

> <r_mmod_Solvation_Energy-OPLS-2005>
-214.626953125

> <b_mmod_Minimization_Converged-OPLS-2005>
0

> <r_mmod_RMS_Derivative-OPLS-2005>
3.12423872947693

$$$$
77
                    3D
 Structure written by MMmdl.
154162  0  0  1  0            999 V2000
  -30.6094  -14.7063   20.3582 C   0  0  0  0  0  0
  -30.4390  -12.3871   19.4741 C   0  0  0  0  0  0
  -29.5129  -12.3595   18.2392 C   0  0  0  0  0  0
  -28.0254  -12.2915   18.6532 C   0  0  0  0  0  0
  -27.6413  -13.2119   19.8466 C   0  0  2  0  0  0
  -28.6972  -13.1704   20.9702 C   0  0  0  0  0  0
  -25.2544  -13.8175   20.5714 C   0  0  0  0  0  0
  -24.1807  -13.0447   20.9232 C   0  0  0  0  0  0
  -24.6371  -11.6914   20.8814 C   0  0  0  0  0  0
  -23.9038  -10.4303   21.0461 C   0  0  0  0  0  0
  -24.3591   -9.4220   21.9244 C   0  0  0  0  0  0
  -23.6274   -8.2247   22.0782 C   0  0  0  0  0  0
  -22.4265   -8.0295   21.3557 C   0  0  0  0  0  0
  -21.9893   -9.0269   20.4664 C   0  0  0  0  0  0
  -22.7213  -10.2159   20.3103 C   0  0  0  0  0  0
  -21.6849   -6.0744   22.5281 C   0  0  0  0  0  0
  -21.4022   -6.5655   23.8218 C   0  0  0  0  0  0
  -21.3663   -5.6816   24.9185 C   0  0  0  0  0  0
  -21.6034   -4.3072   24.7235 C   0  0  0  0  0  0
  -21.8805   -3.8160   23.4358 C   0  0  0  0  0  0
  -21.9178   -4.6970   22.3414 C   0  0  0  0  0  0
  -22.7839  -13.5271   21.1875 C   0  0  0  0  0  0
  -22.1646   -4.2153   21.0987 F   0  0  0  0  0  0
  -21.5611   -3.4555   25.7747 F   0  0  0  0  0  0
  -29.9892  -13.4825   20.3528 N   0  0  0  0  0  0
  -26.2952  -12.9329   20.3353 N   0  0  0  0  0  0
  -25.9304  -11.6494   20.5865 N   0  0  0  0  0  0
  -22.0436  -12.8293   22.0420 N   0  0  0  0  0  0
  -25.4257  -15.1884   20.4045 N   0  0  0  0  0  0
  -31.8368  -14.7804   20.2368 O   0  0  0  0  0  0
  -21.6639   -6.8885   21.4243 O   0  0  0  0  0  0
  -22.3559  -14.5587   20.6723 O   0  0  0  0  0  0
  -24.6301  -31.8575   23.2049 C   0  0  0  0  0  0
  -25.9144  -32.4758   23.8389 C   0  0  1  0  0  0
  -27.2185  -27.2964   20.1397 C   0  0  0  0  0  0
  -25.5967  -33.8563   24.2332 N   0  0  0  0  0  0
  -23.4234  -30.4855   21.5462 C   0  0  2  0  0  0
  -24.8659  -28.9337   20.1154 C   0  0  0  0  0  0
  -22.7481  -29.4625   22.4915 C   0  0  0  0  0  0
  -18.0281  -28.1390   22.8474 C   0  0  0  0  0  0
  -24.1476  -36.7271   23.2644 C   0  0  0  0  0  0
  -25.9639  -30.7882   21.3715 C   0  0  0  0  0  0
  -26.0349  -29.4130   20.7165 C   0  0  0  0  0  0
  -27.2116  -28.6072   20.7135 C   0  0  0  0  0  0
  -26.0186  -26.8633   19.5310 C   0  0  0  0  0  0
  -24.8592  -27.6642   19.5172 C   0  0  0  0  0  0
  -23.6419  -29.8270   20.1580 C   0  0  0  0  0  0
  -25.4094  -36.3066   24.0354 C   0  0  1  0  0  0
  -20.5881  -28.3709   23.1261 C   0  0  2  0  0  0
  -20.6764  -26.9420   22.5408 C   0  0  0  0  0  0
  -19.5750  -26.6386   21.5197 C   0  0  0  0  0  0
  -18.1929  -26.7933   22.1608 C   0  0  0  0  0  0
  -19.1528  -28.8857   23.2868 C   0  0  0  0  0  0
  -18.9452  -30.1449   23.8908 C   0  0  0  0  0  0
  -17.6448  -30.6579   24.0573 C   0  0  0  0  0  0
  -25.9044  -34.9433   23.5131 C   0  0  0  0  0  0
  -16.5344  -29.9091   23.6318 C   0  0  0  0  0  0
  -16.7262  -28.6508   23.0335 C   0  0  0  0  0  0
  -26.4525  -31.6567   25.0766 C   0  0  0  0  0  0
  -25.3795  -31.3681   26.1529 C   0  0  0  0  0  0
  -27.0386  -30.3006   24.6213 C   0  0  0  0  0  0
  -27.6084  -32.4313   25.7529 C   0  0  0  0  0  0
  -27.5560  -37.1807   24.8481 C   0  0  0  0  0  0
  -21.4183  -29.3074   22.3658 N   0  0  0  0  0  0
  -26.4268  -37.3774   23.9426 N   0  0  0  0  0  0
  -24.6922  -31.0607   22.0982 N   0  0  0  0  0  0
  -23.4188  -28.8137   23.2985 O   0  0  0  0  0  0
  -28.3596  -26.4787   20.2172 O   0  0  0  0  0  0
  -26.5565  -34.8905   22.4676 O   0  0  0  0  0  0
  -23.5463  -32.1355   23.7385 O   0  0  0  0  0  0
  -30.5270  -18.1896   20.0148 C   0  0  0  0  0  0
  -28.5391  -17.4975   21.1753 C   0  0  0  0  0  0
  -30.1843  -19.5632   20.2231 C   0  0  0  0  0  0
  -28.2123  -18.8695   21.4002 C   0  0  0  0  0  0
  -29.7015  -17.1152   20.4614 C   0  0  0  0  0  0
  -29.0013  -19.9459   20.9094 C   0  0  0  0  0  0
  -29.7208  -15.8229   18.4297 C   0  0  0  0  0  0
  -28.4031  -23.8474   20.7857 C   0  0  0  0  0  0
  -28.8017  -22.3883   20.2483 C   0  0  0  0  0  0
  -28.4154  -25.0662   19.7511 C   0  0  0  0  0  0
  -29.8359  -15.7658   19.9007 N   0  0  0  0  0  0
  -28.5976  -21.2736   21.1815 O   0  0  0  0  0  0
  -31.4785  -12.5026   19.1598 H   0  0  0  0  0  0
  -30.3869  -11.4367   20.0077 H   0  0  0  0  0  0
  -29.7480  -11.4775   17.6418 H   0  0  0  0  0  0
  -29.7160  -13.1994   17.5802 H   0  0  0  0  0  0
  -27.8352  -11.2556   18.9359 H   0  0  0  0  0  0
  -27.3801  -12.4872   17.7964 H   0  0  0  0  0  0
  -27.6151  -14.2271   19.4624 H   0  0  0  0  0  0
  -28.7249  -12.1942   21.4562 H   0  0  0  0  0  0
  -28.4615  -13.9018   21.7458 H   0  0  0  0  0  0
  -25.2707   -9.5715   22.4864 H   0  0  0  0  0  0
  -23.9963   -7.4647   22.7526 H   0  0  0  0  0  0
  -21.0810   -8.8813   19.8987 H   0  0  0  0  0  0
  -22.3657  -10.9729   19.6252 H   0  0  0  0  0  0
  -21.2041   -7.6169   23.9726 H   0  0  0  0  0  0
  -21.1491   -6.0553   25.9088 H   0  0  0  0  0  0
  -22.0571   -2.7618   23.2863 H   0  0  0  0  0  0
  -22.3957  -11.9904   22.4791 H   0  0  0  0  0  0
  -21.1112  -13.1453   22.2679 H   0  0  0  0  0  0
  -24.6534  -15.8416   20.4815 H   0  0  0  0  0  0
  -26.2693  -15.6147   20.0428 H   0  0  0  0  0  0
  -26.7225  -32.5428   23.1146 H   0  0  0  0  0  0
  -25.0250  -33.9697   25.0565 H   0  0  0  0  0  0
  -22.7219  -31.3095   21.4060 H   0  0  0  0  0  0
  -23.3733  -35.9610   23.3321 H   0  0  0  0  0  0
  -24.3569  -36.8861   22.2055 H   0  0  0  0  0  0
  -23.7233  -37.6492   23.6631 H   0  0  0  0  0  0
  -26.0958  -31.5488   20.6010 H   0  0  0  0  0  0
  -26.8438  -30.8380   22.0011 H   0  0  0  0  0  0
  -28.1115  -28.9745   21.1861 H   0  0  0  0  0  0
  -25.9256  -25.8879   19.0853 H   0  0  0  0  0  0
  -23.9563  -27.2794   19.0638 H   0  0  0  0  0  0
  -23.7912  -30.6132   19.4168 H   0  0  0  0  0  0
  -22.7545  -29.2829   19.8300 H   0  0  0  0  0  0
  -25.1264  -36.1935   25.0848 H   0  0  0  0  0  0
  -20.9969  -28.3300   24.1381 H   0  0  0  0  0  0
  -20.5626  -26.2328   23.3623 H   0  0  0  0  0  0
  -21.6642  -26.7435   22.1227 H   0  0  0  0  0  0
  -19.6912  -25.6292   21.1242 H   0  0  0  0  0  0
  -19.6684  -27.3181   20.6715 H   0  0  0  0  0  0
  -17.4194  -26.6652   21.4020 H   0  0  0  0  0  0
  -18.0345  -26.0085   22.9014 H   0  0  0  0  0  0
  -19.7923  -30.7243   24.2312 H   0  0  0  0  0  0
  -17.5005  -31.6253   24.5185 H   0  0  0  0  0  0
  -15.5349  -30.2993   23.7634 H   0  0  0  0  0  0
  -15.8661  -28.0829   22.7050 H   0  0  0  0  0  0
  -24.5956  -30.7025   25.7896 H   0  0  0  0  0  0
  -24.9020  -32.2840   26.5029 H   0  0  0  0  0  0
  -25.8181  -30.8853   27.0276 H   0  0  0  0  0  0
  -26.2960  -29.6739   24.1277 H   0  0  0  0  0  0
  -27.4122  -29.7288   25.4714 H   0  0  0  0  0  0
  -27.8816  -30.4298   23.9427 H   0  0  0  0  0  0
  -27.2695  -33.3603   26.2126 H   0  0  0  0  0  0
  -28.3883  -32.6902   25.0354 H   0  0  0  0  0  0
  -28.0784  -31.8450   26.5438 H   0  0  0  0  0  0
  -28.2608  -38.0072   24.7473 H   0  0  0  0  0  0
  -28.1019  -36.2606   24.6356 H   0  0  0  0  0  0
  -27.2285  -37.1531   25.8888 H   0  0  0  0  0  0
  -20.9354  -29.8881   21.6939 H   0  0  0  0  0  0
  -26.0147  -38.2845   24.1443 H   0  0  0  0  0  0
  -31.4073  -17.9620   19.4295 H   0  0  0  0  0  0
  -27.8366  -16.7389   21.4920 H   0  0  0  0  0  0
  -30.8481  -20.3233   19.8388 H   0  0  0  0  0  0
  -27.2929  -19.0942   21.9224 H   0  0  0  0  0  0
  -30.6717  -15.6244   17.9304 H   0  0  0  0  0  0
  -29.3770  -16.7958   18.0744 H   0  0  0  0  0  0
  -28.9821  -15.1213   18.0573 H   0  0  0  0  0  0
  -29.0812  -24.0940   21.6043 H   0  0  0  0  0  0
  -27.4120  -23.7888   21.2376 H   0  0  0  0  0  0
  -29.8385  -22.4039   19.9138 H   0  0  0  0  0  0
  -28.1943  -22.1649   19.3705 H   0  0  0  0  0  0
  -27.6990  -24.8619   18.9597 H   0  0  0  0  0  0
  -29.3736  -25.0009   19.2357 H   0  0  0  0  0  0
  1 25  1  0  0  0
  1 30  2  0  0  0
  1 81  1  0  0  0
  2  3  1  0  0  0
  2 25  1  0  0  0
  2 83  1  0  0  0
  2 84  1  0  0  0
  3  4  1  0  0  0
  3 85  1  0  0  0
  3 86  1  0  0  0
  4  5  1  0  0  0
  4 87  1  0  0  0
  4 88  1  0  0  0
  5  6  1  0  0  0
  5 26  1  0  0  0
  5 89  1  0  0  0
  6 25  1  0  0  0
  6 90  1  0  0  0
  6 91  1  0  0  0
  7  8  2  0  0  0
  7 26  1  0  0  0
  7 29  1  0  0  0
  8  9  1  0  0  0
  8 22  1  0  0  0
  9 10  1  0  0  0
  9 27  2  0  0  0
 10 11  2  0  0  0
 10 15  1  0  0  0
 11 12  1  0  0  0
 11 92  1  0  0  0
 12 13  2  0  0  0
 12 93  1  0  0  0
 13 14  1  0  0  0
 13 31  1  0  0  0
 14 15  2  0  0  0
 14 94  1  0  0  0
 15 95  1  0  0  0
 16 17  2  0  0  0
 16 21  1  0  0  0
 16 31  1  0  0  0
 17 18  1  0  0  0
 17 96  1  0  0  0
 18 19  2  0  0  0
 18 97  1  0  0  0
 19 20  1  0  0  0
 19 24  1  0  0  0
 20 21  2  0  0  0
 20 98  1  0  0  0
 21 23  1  0  0  0
 22 28  1  0  0  0
 22 32  2  0  0  0
 26 27  1  0  0  0
 28 99  1  0  0  0
 28100  1  0  0  0
 29101  1  0  0  0
 29102  1  0  0  0
 33 34  1  0  0  0
 33 66  1  0  0  0
 33 70  2  0  0  0
 34 36  1  0  0  0
 34 59  1  0  0  0
 34103  1  0  0  0
 35 44  2  0  0  0
 35 45  1  0  0  0
 35 68  1  0  0  0
 36 56  1  0  0  0
 36104  1  0  0  0
 37 39  1  0  0  0
 37 47  1  0  0  0
 37 66  1  0  0  0
 37105  1  0  0  0
 38 43  2  0  0  0
 38 46  1  0  0  0
 38 47  1  0  0  0
 39 64  1  0  0  0
 39 67  2  0  0  0
 40 52  1  0  0  0
 40 53  2  0  0  0
 40 58  1  0  0  0
 41106  1  0  0  0
 41107  1  0  0  0
 41108  1  0  0  0
 41 48  1  0  0  0
 42 43  1  0  0  0
 42 66  1  0  0  0
 42109  1  0  0  0
 42110  1  0  0  0
 43 44  1  0  0  0
 44111  1  0  0  0
 45 46  2  0  0  0
 45112  1  0  0  0
 46113  1  0  0  0
 47114  1  0  0  0
 47115  1  0  0  0
 48 56  1  0  0  0
 48 65  1  0  0  0
 48116  1  0  0  0
 49 50  1  0  0  0
 49 53  1  0  0  0
 49 64  1  0  0  0
 49117  1  0  0  0
 50 51  1  0  0  0
 50118  1  0  0  0
 50119  1  0  0  0
 51 52  1  0  0  0
 51120  1  0  0  0
 51121  1  0  0  0
 52122  1  0  0  0
 52123  1  0  0  0
 53 54  1  0  0  0
 54 55  2  0  0  0
 54124  1  0  0  0
 55 57  1  0  0  0
 55125  1  0  0  0
 56 69  2  0  0  0
 57 58  2  0  0  0
 57126  1  0  0  0
 58127  1  0  0  0
 59 60  1  0  0  0
 59 61  1  0  0  0
 59 62  1  0  0  0
 60128  1  0  0  0
 60129  1  0  0  0
 60130  1  0  0  0
 61131  1  0  0  0
 61132  1  0  0  0
 61133  1  0  0  0
 62134  1  0  0  0
 62135  1  0  0  0
 62136  1  0  0  0
 63 65  1  0  0  0
 63137  1  0  0  0
 63138  1  0  0  0
 63139  1  0  0  0
 64140  1  0  0  0
 65141  1  0  0  0
 68 80  1  0  0  0
 71 73  2  0  0  0
 71 75  1  0  0  0
 71142  1  0  0  0
 72 74  1  0  0  0
 72 75  2  0  0  0
 72143  1  0  0  0
 73 76  1  0  0  0
 73144  1  0  0  0
 74 76  2  0  0  0
 74145  1  0  0  0
 75 81  1  0  0  0
 76 82  1  0  0  0
 77 81  1  0  0  0
 77146  1  0  0  0
 77147  1  0  0  0
 77148  1  0  0  0
 78 79  1  0  0  0
 78 80  1  0  0  0
 78149  1  0  0  0
 78150  1  0  0  0
 79 82  1  0  0  0
 79151  1  0  0  0
 79152  1  0  0  0
 80153  1  0  0  0
 80154  1  0  0  0
M  ISO  4   1 100  68 101  80 101  81 100
M  END
> <chiral flag>
0

> <version>
0

> <s_m_source_file>
/data/baiqing/PycharmProjects/Reinvent-master-3.2/result/LINK_invent/BTK/process_docking_weight1_custom_sum_contain_oxygen_bond_distance_aromatic_linkinvent_7_9_3/rearranged_h_0007.sdf

> <i_m_source_file_index>
78

> <r_mmod_Potential_Energy-OPLS-2005>
326.434143066406

> <r_mmod_Stretch_Energy-OPLS-2005>
87.9355850219727

> <r_mmod_Bend_Energy-OPLS-2005>
167.475799560547

> <r_mmod_Torsional_Energy-OPLS-2005>
334.097442626953

> <r_mmod_Improper_Torsional_Energy-OPLS-2005>
26.7105770111084

> <r_mmod_Van_der_Waal_Energy-OPLS-2005>
141.255142211914

> <r_mmod_Electrostatic_Energy-OPLS-2005>
-312.797546386719

> <r_mmod_Solvation_Energy-OPLS-2005>
-196.871047973633

> <b_mmod_Minimization_Converged-OPLS-2005>
0

> <r_mmod_RMS_Derivative-OPLS-2005>
2.83015894889832

$$$$
78
                    3D
 Structure written by MMmdl.
164173  0  0  1  0            999 V2000
  -30.5810  -14.5521   20.4884 C   0  0  0  0  0  0
  -30.4025  -12.3254   19.4355 C   0  0  0  0  0  0
  -29.4842  -12.4625   18.2016 C   0  0  0  0  0  0
  -27.9993  -12.3198   18.5935 C   0  0  0  0  0  0
  -27.6286  -13.1670   19.8379 C   0  0  2  0  0  0
  -28.6628  -13.0038   20.9698 C   0  0  0  0  0  0
  -25.2538  -13.8078   20.5618 C   0  0  0  0  0  0
  -24.1796  -13.0433   20.9222 C   0  0  0  0  0  0
  -24.6270  -11.6842   20.8738 C   0  0  0  0  0  0
  -23.8951  -10.4260   21.0465 C   0  0  0  0  0  0
  -24.3560   -9.4185   21.9227 C   0  0  0  0  0  0
  -23.6262   -8.2217   22.0777 C   0  0  0  0  0  0
  -22.4250   -8.0253   21.3536 C   0  0  0  0  0  0
  -21.9853   -9.0244   20.4663 C   0  0  0  0  0  0
  -22.7156  -10.2122   20.3092 C   0  0  0  0  0  0
  -21.6832   -6.0736   22.5287 C   0  0  0  0  0  0
  -21.4001   -6.5639   23.8226 C   0  0  0  0  0  0
  -21.3632   -5.6785   24.9174 C   0  0  0  0  0  0
  -21.6054   -4.3056   24.7221 C   0  0  0  0  0  0
  -21.8817   -3.8149   23.4334 C   0  0  0  0  0  0
  -21.9202   -4.6972   22.3400 C   0  0  0  0  0  0
  -22.7815  -13.5260   21.1853 C   0  0  0  0  0  0
  -22.1663   -4.2141   21.0982 F   0  0  0  0  0  0
  -21.5624   -3.4545   25.7744 F   0  0  0  0  0  0
  -29.9734  -13.3373   20.4127 N   0  0  0  0  0  0
  -26.2803  -12.9098   20.3130 N   0  0  0  0  0  0
  -25.9150  -11.6308   20.5684 N   0  0  0  0  0  0
  -22.0442  -12.8307   22.0422 N   0  0  0  0  0  0
  -25.4402  -15.1779   20.4027 N   0  0  0  0  0  0
  -31.7366  -14.7361   20.1126 O   0  0  0  0  0  0
  -21.6607   -6.8853   21.4230 O   0  0  0  0  0  0
  -22.3563  -14.5602   20.6688 O   0  0  0  0  0  0
  -24.6043  -31.8706   23.2086 C   0  0  0  0  0  0
  -25.8933  -32.4789   23.8342 C   0  0  1  0  0  0
  -27.2075  -27.4029   20.1222 C   0  0  0  0  0  0
  -25.5837  -33.8602   24.2286 N   0  0  0  0  0  0
  -23.4054  -30.4833   21.5455 C   0  0  2  0  0  0
  -24.8648  -28.9661   20.1037 C   0  0  0  0  0  0
  -22.7410  -29.4682   22.4968 C   0  0  0  0  0  0
  -18.0312  -28.1429   22.8484 C   0  0  0  0  0  0
  -24.1448  -36.7211   23.2650 C   0  0  0  0  0  0
  -25.9331  -30.8122   21.3890 C   0  0  0  0  0  0
  -26.0110  -29.4461   20.7351 C   0  0  0  0  0  0
  -27.1981  -28.6694   20.7588 C   0  0  0  0  0  0
  -26.0817  -27.0089   19.3780 C   0  0  0  0  0  0
  -24.9041  -27.7590   19.3909 C   0  0  0  0  0  0
  -23.6079  -29.7910   20.1665 C   0  0  0  0  0  0
  -25.4109  -36.3070   24.0349 C   0  0  1  0  0  0
  -20.5856  -28.3748   23.1238 C   0  0  2  0  0  0
  -20.6825  -26.9477   22.5369 C   0  0  0  0  0  0
  -19.5831  -26.6442   21.5173 C   0  0  0  0  0  0
  -18.1998  -26.7963   22.1609 C   0  0  0  0  0  0
  -19.1554  -28.8927   23.2820 C   0  0  0  0  0  0
  -18.9487  -30.1515   23.8848 C   0  0  0  0  0  0
  -17.6505  -30.6627   24.0580 C   0  0  0  0  0  0
  -25.9114  -34.9460   23.5138 C   0  0  0  0  0  0
  -16.5382  -29.9108   23.6383 C   0  0  0  0  0  0
  -16.7288  -28.6518   23.0364 C   0  0  0  0  0  0
  -26.4408  -31.6538   25.0658 C   0  0  0  0  0  0
  -25.3594  -31.3629   26.1322 C   0  0  0  0  0  0
  -27.0304  -30.2953   24.6199 C   0  0  0  0  0  0
  -27.6107  -32.4274   25.7352 C   0  0  0  0  0  0
  -27.5586  -37.1733   24.8502 C   0  0  0  0  0  0
  -21.4177  -29.3049   22.3619 N   0  0  0  0  0  0
  -26.4318  -37.3784   23.9405 N   0  0  0  0  0  0
  -24.6611  -31.0726   22.1019 N   0  0  0  0  0  0
  -23.4153  -28.8289   23.3151 O   0  0  0  0  0  0
  -28.2181  -26.4839   20.2325 O   0  0  0  0  0  0
  -26.5720  -34.8927   22.4782 O   0  0  0  0  0  0
  -23.5253  -32.1531   23.7429 O   0  0  0  0  0  0
  -26.7213  -18.9536   19.9333 C   0  0  0  0  0  0
  -25.9766  -20.1611   20.0243 C   0  0  0  0  0  0
  -27.8019  -21.3962   19.0089 C   0  0  0  0  0  0
  -28.0425  -18.9711   19.4044 C   0  0  0  0  0  0
  -26.5387  -21.4012   19.6295 C   0  0  0  0  0  0
  -28.5432  -20.1995   18.9055 C   0  0  0  0  0  0
  -30.9679  -17.1566   22.4100 C   0  0  0  0  0  0
  -29.5212  -17.5095   22.6160 C   0  0  0  0  0  0
  -29.9016  -16.1081   22.1838 C   0  0  0  0  0  0
  -28.9633  -17.7453   19.2039 C   0  0  0  0  0  0
  -26.5271  -24.6989   21.3267 C   0  0  0  0  0  0
  -28.7855  -16.2960   19.8842 C   0  0  0  0  0  0
  -27.9582  -25.4038   21.1876 C   0  0  0  0  0  0
  -26.4292  -23.1436   21.2141 C   0  0  0  0  0  0
  -29.7679  -15.6124   20.8368 N   0  0  0  0  0  0
  -25.9786  -22.6303   19.9357 O   0  0  0  0  0  0
  -29.7794  -20.2636   18.3401 F   0  0  0  0  0  0
  -31.4479  -12.4416   19.1495 H   0  0  0  0  0  0
  -30.3070  -11.3264   19.8730 H   0  0  0  0  0  0
  -29.7502  -11.7158   17.4501 H   0  0  0  0  0  0
  -29.6519  -13.4350   17.7358 H   0  0  0  0  0  0
  -27.7905  -11.2690   18.7789 H   0  0  0  0  0  0
  -27.3694  -12.6047   17.7517 H   0  0  0  0  0  0
  -27.6376  -14.1921   19.4953 H   0  0  0  0  0  0
  -28.6590  -11.9747   21.3365 H   0  0  0  0  0  0
  -28.3937  -13.6227   21.8301 H   0  0  0  0  0  0
  -25.2710   -9.5662   22.4786 H   0  0  0  0  0  0
  -23.9984   -7.4586   22.7464 H   0  0  0  0  0  0
  -21.0793   -8.8756   19.8955 H   0  0  0  0  0  0
  -22.3647  -10.9673   19.6208 H   0  0  0  0  0  0
  -21.1976   -7.6142   23.9705 H   0  0  0  0  0  0
  -21.1452   -6.0524   25.9068 H   0  0  0  0  0  0
  -22.0624   -2.7611   23.2853 H   0  0  0  0  0  0
  -22.4018  -11.9975   22.4845 H   0  0  0  0  0  0
  -21.1074  -13.1362   22.2574 H   0  0  0  0  0  0
  -24.6882  -15.8433   20.5210 H   0  0  0  0  0  0
  -26.3034  -15.5903   20.0846 H   0  0  0  0  0  0
  -26.7000  -32.5461   23.1127 H   0  0  0  0  0  0
  -24.9712  -33.9797   25.0183 H   0  0  0  0  0  0
  -22.6913  -31.2979   21.3991 H   0  0  0  0  0  0
  -23.3774  -35.9487   23.3334 H   0  0  0  0  0  0
  -24.3539  -36.8794   22.2066 H   0  0  0  0  0  0
  -23.7097  -37.6397   23.6649 H   0  0  0  0  0  0
  -26.0753  -31.5715   20.6198 H   0  0  0  0  0  0
  -26.8076  -30.8653   22.0296 H   0  0  0  0  0  0
  -28.0478  -29.0087   21.3412 H   0  0  0  0  0  0
  -26.1217  -26.0702   18.8449 H   0  0  0  0  0  0
  -24.0535  -27.4015   18.8291 H   0  0  0  0  0  0
  -23.6448  -30.5255   19.3638 H   0  0  0  0  0  0
  -22.7461  -29.1536   19.9332 H   0  0  0  0  0  0
  -25.1272  -36.2038   25.0862 H   0  0  0  0  0  0
  -20.9965  -28.3400   24.1362 H   0  0  0  0  0  0
  -20.5844  -26.2357   23.3560 H   0  0  0  0  0  0
  -21.6649  -26.7623   22.1067 H   0  0  0  0  0  0
  -19.7002  -25.6365   21.1188 H   0  0  0  0  0  0
  -19.6713  -27.3253   20.6684 H   0  0  0  0  0  0
  -17.4217  -26.6627   21.4033 H   0  0  0  0  0  0
  -18.0482  -26.0111   22.9053 H   0  0  0  0  0  0
  -19.7953  -30.7349   24.2120 H   0  0  0  0  0  0
  -17.5064  -31.6298   24.5202 H   0  0  0  0  0  0
  -15.5364  -30.3006   23.7811 H   0  0  0  0  0  0
  -15.8655  -28.0862   22.7107 H   0  0  0  0  0  0
  -24.5818  -30.7072   25.7370 H   0  0  0  0  0  0
  -24.8716  -32.2773   26.4755 H   0  0  0  0  0  0
  -25.7765  -30.8614   27.0063 H   0  0  0  0  0  0
  -26.2836  -29.6607   24.1466 H   0  0  0  0  0  0
  -27.4150  -29.7422   25.4766 H   0  0  0  0  0  0
  -27.8632  -30.4147   23.9282 H   0  0  0  0  0  0
  -27.2837  -33.3584   26.2049 H   0  0  0  0  0  0
  -28.3784  -32.6874   25.0013 H   0  0  0  0  0  0
  -28.0982  -31.8320   26.5115 H   0  0  0  0  0  0
  -28.2672  -37.9975   24.7611 H   0  0  0  0  0  0
  -28.1028  -36.2543   24.6298 H   0  0  0  0  0  0
  -27.2301  -37.1329   25.8906 H   0  0  0  0  0  0
  -20.9479  -29.8361   21.6435 H   0  0  0  0  0  0
  -26.0220  -38.2904   24.1393 H   0  0  0  0  0  0
  -26.2711  -18.0362   20.3016 H   0  0  0  0  0  0
  -25.0151  -20.1193   20.5077 H   0  0  0  0  0  0
  -28.2220  -22.3177   18.6317 H   0  0  0  0  0  0
  -31.6008  -17.0277   23.2802 H   0  0  0  0  0  0
  -31.4810  -17.5812   21.5464 H   0  0  0  0  0  0
  -29.0419  -18.1864   21.9112 H   0  0  0  0  0  0
  -29.1586  -17.6118   23.6394 H   0  0  0  0  0  0
  -29.7698  -15.3550   22.9761 H   0  0  0  0  0  0
  -29.9833  -18.1269   19.3651 H   0  0  0  0  0  0
  -28.8052  -17.6613   18.1253 H   0  0  0  0  0  0
  -25.7259  -25.0776   20.7050 H   0  0  0  0  0  0
  -26.1591  -24.9875   22.3180 H   0  0  0  0  0  0
  -28.3197  -16.8924   20.6361 H   0  0  0  0  0  0
  -29.6375  -16.2710   19.2109 H   0  0  0  0  0  0
  -28.7140  -24.6353   21.0302 H   0  0  0  0  0  0
  -28.1857  -25.8708   22.1551 H   0  0  0  0  0  0
  -27.3476  -22.6569   21.5459 H   0  0  0  0  0  0
  -25.6812  -22.8089   21.9418 H   0  0  0  0  0  0
  1 25  1  0  0  0
  1 30  2  0  0  0
  1 85  1  0  0  0
  2  3  1  0  0  0
  2 25  1  0  0  0
  2 88  1  0  0  0
  2 89  1  0  0  0
  3  4  1  0  0  0
  3 90  1  0  0  0
  3 91  1  0  0  0
  4  5  1  0  0  0
  4 92  1  0  0  0
  4 93  1  0  0  0
  5  6  1  0  0  0
  5 26  1  0  0  0
  5 94  1  0  0  0
  6 25  1  0  0  0
  6 95  1  0  0  0
  6 96  1  0  0  0
  7  8  2  0  0  0
  7 26  1  0  0  0
  7 29  1  0  0  0
  8  9  1  0  0  0
  8 22  1  0  0  0
  9 10  1  0  0  0
  9 27  2  0  0  0
 10 11  2  0  0  0
 10 15  1  0  0  0
 11 12  1  0  0  0
 11 97  1  0  0  0
 12 13  2  0  0  0
 12 98  1  0  0  0
 13 14  1  0  0  0
 13 31  1  0  0  0
 14 15  2  0  0  0
 14 99  1  0  0  0
 15100  1  0  0  0
 16 17  2  0  0  0
 16 21  1  0  0  0
 16 31  1  0  0  0
 17 18  1  0  0  0
 17101  1  0  0  0
 18 19  2  0  0  0
 18102  1  0  0  0
 19 20  1  0  0  0
 19 24  1  0  0  0
 20 21  2  0  0  0
 20103  1  0  0  0
 21 23  1  0  0  0
 22 28  1  0  0  0
 22 32  2  0  0  0
 26 27  1  0  0  0
 28104  1  0  0  0
 28105  1  0  0  0
 29106  1  0  0  0
 29107  1  0  0  0
 33 34  1  0  0  0
 33 66  1  0  0  0
 33 70  2  0  0  0
 34 36  1  0  0  0
 34 59  1  0  0  0
 34108  1  0  0  0
 35 44  2  0  0  0
 35 45  1  0  0  0
 35 68  1  0  0  0
 36 56  1  0  0  0
 36109  1  0  0  0
 37 39  1  0  0  0
 37 47  1  0  0  0
 37 66  1  0  0  0
 37110  1  0  0  0
 38 43  2  0  0  0
 38 46  1  0  0  0
 38 47  1  0  0  0
 39 64  1  0  0  0
 39 67  2  0  0  0
 40 52  1  0  0  0
 40 53  2  0  0  0
 40 58  1  0  0  0
 41111  1  0  0  0
 41112  1  0  0  0
 41113  1  0  0  0
 41 48  1  0  0  0
 42 43  1  0  0  0
 42 66  1  0  0  0
 42114  1  0  0  0
 42115  1  0  0  0
 43 44  1  0  0  0
 44116  1  0  0  0
 45 46  2  0  0  0
 45117  1  0  0  0
 46118  1  0  0  0
 47119  1  0  0  0
 47120  1  0  0  0
 48 56  1  0  0  0
 48 65  1  0  0  0
 48121  1  0  0  0
 49 50  1  0  0  0
 49 53  1  0  0  0
 49 64  1  0  0  0
 49122  1  0  0  0
 50 51  1  0  0  0
 50123  1  0  0  0
 50124  1  0  0  0
 51 52  1  0  0  0
 51125  1  0  0  0
 51126  1  0  0  0
 52127  1  0  0  0
 52128  1  0  0  0
 53 54  1  0  0  0
 54 55  2  0  0  0
 54129  1  0  0  0
 55 57  1  0  0  0
 55130  1  0  0  0
 56 69  2  0  0  0
 57 58  2  0  0  0
 57131  1  0  0  0
 58132  1  0  0  0
 59 60  1  0  0  0
 59 61  1  0  0  0
 59 62  1  0  0  0
 60133  1  0  0  0
 60134  1  0  0  0
 60135  1  0  0  0
 61136  1  0  0  0
 61137  1  0  0  0
 61138  1  0  0  0
 62139  1  0  0  0
 62140  1  0  0  0
 62141  1  0  0  0
 63 65  1  0  0  0
 63142  1  0  0  0
 63143  1  0  0  0
 63144  1  0  0  0
 64145  1  0  0  0
 65146  1  0  0  0
 68 83  1  0  0  0
 71 72  2  0  0  0
 71 74  1  0  0  0
 71147  1  0  0  0
 72 75  1  0  0  0
 72148  1  0  0  0
 73 75  2  0  0  0
 73 76  1  0  0  0
 73149  1  0  0  0
 74 76  2  0  0  0
 74 80  1  0  0  0
 75 86  1  0  0  0
 76 87  1  0  0  0
 77 78  1  0  0  0
 77 79  1  0  0  0
 77150  1  0  0  0
 77151  1  0  0  0
 78 79  1  0  0  0
 78152  1  0  0  0
 78153  1  0  0  0
 79 85  1  0  0  0
 79154  1  0  0  0
 80 82  1  0  0  0
 80155  1  0  0  0
 80156  1  0  0  0
 81 83  1  0  0  0
 81 84  1  0  0  0
 81157  1  0  0  0
 81158  1  0  0  0
 82 85  1  0  0  0
 82159  1  0  0  0
 82160  1  0  0  0
 83161  1  0  0  0
 83162  1  0  0  0
 84 86  1  0  0  0
 84163  1  0  0  0
 84164  1  0  0  0
M  ISO  4   1 100  68 101  83 101  85 100
M  END
> <chiral flag>
0

> <version>
0

> <s_m_source_file>
/data/baiqing/PycharmProjects/Reinvent-master-3.2/result/LINK_invent/BTK/process_docking_weight1_custom_sum_contain_oxygen_bond_distance_aromatic_linkinvent_7_9_3/rearranged_h_0007.sdf

> <i_m_source_file_index>
79

> <r_mmod_Potential_Energy-OPLS-2005>
701.852661132812

> <r_mmod_Stretch_Energy-OPLS-2005>
71.3953628540039

> <r_mmod_Bend_Energy-OPLS-2005>
388.106414794922

> <r_mmod_Torsional_Energy-OPLS-2005>
494.186706542969

> <r_mmod_Improper_Torsional_Energy-OPLS-2005>
5.39906978607178

> <r_mmod_Van_der_Waal_Energy-OPLS-2005>
192.082565307617

> <r_mmod_Electrostatic_Energy-OPLS-2005>
-304.851318359375

> <r_mmod_Solvation_Energy-OPLS-2005>
-188.909973144531

> <b_mmod_Minimization_Converged-OPLS-2005>
0

> <r_mmod_RMS_Derivative-OPLS-2005>
22.1000938415527

$$$$
79
                    3D
 Structure written by MMmdl.
164172  0  0  1  0            999 V2000
  -30.6918  -14.6327   20.2635 C   0  0  0  0  0  0
  -30.4188  -12.3540   19.4071 C   0  0  0  0  0  0
  -29.4729  -12.4087   18.1932 C   0  0  0  0  0  0
  -28.0000  -12.3171   18.6375 C   0  0  0  0  0  0
  -27.6429  -13.2143   19.8581 C   0  0  2  0  0  0
  -28.7264  -13.1636   20.9516 C   0  0  0  0  0  0
  -25.2572  -13.8132   20.5963 C   0  0  0  0  0  0
  -24.1799  -13.0388   20.9254 C   0  0  0  0  0  0
  -24.6377  -11.6870   20.8786 C   0  0  0  0  0  0
  -23.9047  -10.4262   21.0435 C   0  0  0  0  0  0
  -24.3632   -9.4178   21.9183 C   0  0  0  0  0  0
  -23.6304   -8.2212   22.0743 C   0  0  0  0  0  0
  -22.4267   -8.0268   21.3554 C   0  0  0  0  0  0
  -21.9898   -9.0242   20.4649 C   0  0  0  0  0  0
  -22.7233  -10.2118   20.3074 C   0  0  0  0  0  0
  -21.6833   -6.0727   22.5275 C   0  0  0  0  0  0
  -21.4005   -6.5629   23.8206 C   0  0  0  0  0  0
  -21.3678   -5.6787   24.9175 C   0  0  0  0  0  0
  -21.6069   -4.3049   24.7236 C   0  0  0  0  0  0
  -21.8833   -3.8136   23.4351 C   0  0  0  0  0  0
  -21.9198   -4.6958   22.3405 C   0  0  0  0  0  0
  -22.7820  -13.5190   21.1871 C   0  0  0  0  0  0
  -22.1665   -4.2127   21.0987 F   0  0  0  0  0  0
  -21.5641   -3.4545   25.7759 F   0  0  0  0  0  0
  -30.0046  -13.4519   20.2887 N   0  0  0  0  0  0
  -26.2992  -12.9325   20.3543 N   0  0  0  0  0  0
  -25.9319  -11.6480   20.5888 N   0  0  0  0  0  0
  -22.0492  -12.8199   22.0475 N   0  0  0  0  0  0
  -25.4356  -15.1852   20.4715 N   0  0  0  0  0  0
  -31.9038  -14.6399   20.4826 O   0  0  0  0  0  0
  -21.6641   -6.8861   21.4236 O   0  0  0  0  0  0
  -22.3508  -14.5481   20.6684 O   0  0  0  0  0  0
  -24.6208  -31.8655   23.2080 C   0  0  0  0  0  0
  -25.9090  -32.4797   23.8380 C   0  0  1  0  0  0
  -27.2240  -27.3704   20.1103 C   0  0  0  0  0  0
  -25.5943  -33.8592   24.2319 N   0  0  0  0  0  0
  -23.4091  -30.4932   21.5501 C   0  0  2  0  0  0
  -24.8535  -28.9534   20.1148 C   0  0  0  0  0  0
  -22.7433  -29.4666   22.4957 C   0  0  0  0  0  0
  -18.0277  -28.1390   22.8468 C   0  0  0  0  0  0
  -24.1502  -36.7289   23.2634 C   0  0  0  0  0  0
  -25.9473  -30.8059   21.3796 C   0  0  0  0  0  0
  -26.0174  -29.4403   20.7200 C   0  0  0  0  0  0
  -27.2009  -28.6554   20.7165 C   0  0  0  0  0  0
  -26.0417  -26.9272   19.4710 C   0  0  0  0  0  0
  -24.8653  -27.6982   19.4868 C   0  0  0  0  0  0
  -23.6214  -29.8311   20.1643 C   0  0  0  0  0  0
  -25.4120  -36.3095   24.0339 C   0  0  1  0  0  0
  -20.5865  -28.3694   23.1281 C   0  0  2  0  0  0
  -20.6759  -26.9417   22.5411 C   0  0  0  0  0  0
  -19.5751  -26.6388   21.5195 C   0  0  0  0  0  0
  -18.1927  -26.7935   22.1598 C   0  0  0  0  0  0
  -19.1521  -28.8848   23.2887 C   0  0  0  0  0  0
  -18.9460  -30.1442   23.8925 C   0  0  0  0  0  0
  -17.6462  -30.6593   24.0555 C   0  0  0  0  0  0
  -25.9054  -34.9461   23.5124 C   0  0  0  0  0  0
  -16.5351  -29.9096   23.6319 C   0  0  0  0  0  0
  -16.7267  -28.6507   23.0353 C   0  0  0  0  0  0
  -26.4511  -31.6590   25.0724 C   0  0  0  0  0  0
  -25.3757  -31.3763   26.1478 C   0  0  0  0  0  0
  -27.0324  -30.2993   24.6173 C   0  0  0  0  0  0
  -27.6137  -32.4288   25.7451 C   0  0  0  0  0  0
  -27.5608  -37.1785   24.8459 C   0  0  0  0  0  0
  -21.4150  -29.3054   22.3677 N   0  0  0  0  0  0
  -26.4307  -37.3786   23.9426 N   0  0  0  0  0  0
  -24.6761  -31.0710   22.1026 N   0  0  0  0  0  0
  -23.4178  -28.8214   23.3021 O   0  0  0  0  0  0
  -28.3880  -26.6053   20.1703 O   0  0  0  0  0  0
  -26.5605  -34.8914   22.4678 O   0  0  0  0  0  0
  -23.5377  -32.1454   23.7453 O   0  0  0  0  0  0
  -29.7973  -17.8851   20.1342 C   0  0  0  0  0  0
  -27.9639  -19.1462   19.1462 C   0  0  0  0  0  0
  -29.1268  -19.1395   19.9453 C   0  0  0  0  0  0
  -29.3917  -16.6937   19.4424 C   0  0  0  0  0  0
  -27.5590  -18.0134   18.4246 C   0  0  0  0  0  0
  -28.3026  -16.8099   18.5269 C   0  0  0  0  0  0
  -29.6920  -20.4606   20.4019 C   0  0  0  0  0  0
  -29.2140  -21.7120   20.1254 C   0  0  0  0  0  0
  -24.9261  -16.9990   16.2131 C   0  0  0  0  0  0
  -31.1979  -15.7198   18.1742 C   0  0  0  0  0  0
  -29.9183  -23.0480   20.4402 C   0  0  0  0  0  0
  -29.0706  -24.2762   20.9315 C   0  0  0  0  0  0
  -25.4010  -17.3822   17.6158 C   0  0  0  0  0  0
  -28.3956  -25.1804   19.8460 C   0  0  0  0  0  0
  -30.2684  -15.5410   19.3104 N   0  0  0  0  0  0
  -26.5586  -18.2013   17.4961 O   0  0  0  0  0  0
  -28.0048  -15.5726   17.3490 Cl  0  0  0  0  0  0
  -31.4542  -12.4623   19.0793 H   0  0  0  0  0  0
  -30.3423  -11.3887   19.9110 H   0  0  0  0  0  0
  -29.6992  -11.5950   17.5015 H   0  0  0  0  0  0
  -29.6300  -13.3212   17.6239 H   0  0  0  0  0  0
  -27.8076  -11.2741   18.8857 H   0  0  0  0  0  0
  -27.3453  -12.5481   17.7972 H   0  0  0  0  0  0
  -27.6242  -14.2400   19.5126 H   0  0  0  0  0  0
  -28.7559  -12.1846   21.4281 H   0  0  0  0  0  0
  -28.5286  -13.8956   21.7364 H   0  0  0  0  0  0
  -25.2797   -9.5630   22.4745 H   0  0  0  0  0  0
  -24.0040   -7.4570   22.7413 H   0  0  0  0  0  0
  -21.0828   -8.8766   19.8920 H   0  0  0  0  0  0
  -22.3708  -10.9683   19.6189 H   0  0  0  0  0  0
  -21.1982   -7.6136   23.9695 H   0  0  0  0  0  0
  -21.1495   -6.0529   25.9073 H   0  0  0  0  0  0
  -22.0604   -2.7597   23.2865 H   0  0  0  0  0  0
  -22.4127  -11.9852   22.4845 H   0  0  0  0  0  0
  -21.1097  -13.1183   22.2661 H   0  0  0  0  0  0
  -24.6848  -15.8435   20.6434 H   0  0  0  0  0  0
  -26.3265  -15.6268   20.2918 H   0  0  0  0  0  0
  -26.7149  -32.5489   23.1126 H   0  0  0  0  0  0
  -25.0113  -33.9749   25.0479 H   0  0  0  0  0  0
  -22.6999  -31.3130   21.4118 H   0  0  0  0  0  0
  -23.3778  -35.9609   23.3283 H   0  0  0  0  0  0
  -24.3608  -36.8907   22.2050 H   0  0  0  0  0  0
  -23.7220  -37.6473   23.6652 H   0  0  0  0  0  0
  -26.0817  -31.5747   20.6181 H   0  0  0  0  0  0
  -26.8259  -30.8450   22.0125 H   0  0  0  0  0  0
  -28.0945  -29.0240   21.2009 H   0  0  0  0  0  0
  -25.9910  -25.9879   18.9435 H   0  0  0  0  0  0
  -23.9745  -27.3205   19.0067 H   0  0  0  0  0  0
  -23.7446  -30.6124   19.4133 H   0  0  0  0  0  0
  -22.7387  -29.2675   19.8560 H   0  0  0  0  0  0
  -25.1286  -36.1959   25.0828 H   0  0  0  0  0  0
  -20.9957  -28.3292   24.1403 H   0  0  0  0  0  0
  -20.5621  -26.2316   23.3616 H   0  0  0  0  0  0
  -21.6645  -26.7439   22.1240 H   0  0  0  0  0  0
  -19.6926  -25.6298   21.1235 H   0  0  0  0  0  0
  -19.6707  -27.3191   20.6722 H   0  0  0  0  0  0
  -17.4192  -26.6671   21.4007 H   0  0  0  0  0  0
  -18.0354  -26.0072   22.8991 H   0  0  0  0  0  0
  -19.7942  -30.7230   24.2342 H   0  0  0  0  0  0
  -17.5027  -31.6284   24.5148 H   0  0  0  0  0  0
  -15.5355  -30.3016   23.7632 H   0  0  0  0  0  0
  -15.8665  -28.0832   22.7082 H   0  0  0  0  0  0
  -24.5921  -30.7106   25.7837 H   0  0  0  0  0  0
  -24.8958  -32.2944   26.4883 H   0  0  0  0  0  0
  -25.8087  -30.8965   27.0266 H   0  0  0  0  0  0
  -26.2871  -29.6734   24.1235 H   0  0  0  0  0  0
  -27.4044  -29.7271   25.4686 H   0  0  0  0  0  0
  -27.8760  -30.4253   23.9375 H   0  0  0  0  0  0
  -27.2823  -33.3594   26.2083 H   0  0  0  0  0  0
  -28.3915  -32.6827   25.0228 H   0  0  0  0  0  0
  -28.0850  -31.8347   26.5296 H   0  0  0  0  0  0
  -28.2623  -38.0092   24.7536 H   0  0  0  0  0  0
  -28.1110  -36.2623   24.6241 H   0  0  0  0  0  0
  -27.2338  -37.1384   25.8866 H   0  0  0  0  0  0
  -20.9314  -29.8762   21.6887 H   0  0  0  0  0  0
  -26.0197  -38.2864   24.1441 H   0  0  0  0  0  0
  -30.7122  -17.8626   20.7093 H   0  0  0  0  0  0
  -27.4143  -20.0582   18.9746 H   0  0  0  0  0  0
  -30.6113  -20.3925   20.9679 H   0  0  0  0  0  0
  -28.2919  -21.8362   19.5809 H   0  0  0  0  0  0
  -24.0293  -16.3832   16.2637 H   0  0  0  0  0  0
  -25.6960  -16.4330   15.6902 H   0  0  0  0  0  0
  -24.6894  -17.8853   15.6210 H   0  0  0  0  0  0
  -31.4356  -14.7677   17.6988 H   0  0  0  0  0  0
  -32.1346  -16.1863   18.4884 H   0  0  0  0  0  0
  -30.7808  -16.3656   17.4002 H   0  0  0  0  0  0
  -30.4418  -23.3468   19.5305 H   0  0  0  0  0  0
  -30.7029  -22.8493   21.1705 H   0  0  0  0  0  0
  -29.7524  -24.9217   21.4892 H   0  0  0  0  0  0
  -28.3309  -23.9562   21.6673 H   0  0  0  0  0  0
  -25.5684  -16.4873   18.2082 H   0  0  0  0  0  0
  -24.6239  -17.9489   18.1262 H   0  0  0  0  0  0
  -27.4115  -24.7542   19.6812 H   0  0  0  0  0  0
  -28.9343  -25.0789   18.9022 H   0  0  0  0  0  0
  1 25  1  0  0  0
  1 30  2  0  0  0
  1 85  1  0  0  0
  2  3  1  0  0  0
  2 25  1  0  0  0
  2 88  1  0  0  0
  2 89  1  0  0  0
  3  4  1  0  0  0
  3 90  1  0  0  0
  3 91  1  0  0  0
  4  5  1  0  0  0
  4 92  1  0  0  0
  4 93  1  0  0  0
  5  6  1  0  0  0
  5 26  1  0  0  0
  5 94  1  0  0  0
  6 25  1  0  0  0
  6 95  1  0  0  0
  6 96  1  0  0  0
  7  8  2  0  0  0
  7 26  1  0  0  0
  7 29  1  0  0  0
  8  9  1  0  0  0
  8 22  1  0  0  0
  9 10  1  0  0  0
  9 27  2  0  0  0
 10 11  2  0  0  0
 10 15  1  0  0  0
 11 12  1  0  0  0
 11 97  1  0  0  0
 12 13  2  0  0  0
 12 98  1  0  0  0
 13 14  1  0  0  0
 13 31  1  0  0  0
 14 15  2  0  0  0
 14 99  1  0  0  0
 15100  1  0  0  0
 16 17  2  0  0  0
 16 21  1  0  0  0
 16 31  1  0  0  0
 17 18  1  0  0  0
 17101  1  0  0  0
 18 19  2  0  0  0
 18102  1  0  0  0
 19 20  1  0  0  0
 19 24  1  0  0  0
 20 21  2  0  0  0
 20103  1  0  0  0
 21 23  1  0  0  0
 22 28  1  0  0  0
 22 32  2  0  0  0
 26 27  1  0  0  0
 28104  1  0  0  0
 28105  1  0  0  0
 29106  1  0  0  0
 29107  1  0  0  0
 33 34  1  0  0  0
 33 66  1  0  0  0
 33 70  2  0  0  0
 34 36  1  0  0  0
 34 59  1  0  0  0
 34108  1  0  0  0
 35 44  2  0  0  0
 35 45  1  0  0  0
 35 68  1  0  0  0
 36 56  1  0  0  0
 36109  1  0  0  0
 37 39  1  0  0  0
 37 47  1  0  0  0
 37 66  1  0  0  0
 37110  1  0  0  0
 38 43  2  0  0  0
 38 46  1  0  0  0
 38 47  1  0  0  0
 39 64  1  0  0  0
 39 67  2  0  0  0
 40 52  1  0  0  0
 40 53  2  0  0  0
 40 58  1  0  0  0
 41111  1  0  0  0
 41112  1  0  0  0
 41113  1  0  0  0
 41 48  1  0  0  0
 42 43  1  0  0  0
 42 66  1  0  0  0
 42114  1  0  0  0
 42115  1  0  0  0
 43 44  1  0  0  0
 44116  1  0  0  0
 45 46  2  0  0  0
 45117  1  0  0  0
 46118  1  0  0  0
 47119  1  0  0  0
 47120  1  0  0  0
 48 56  1  0  0  0
 48 65  1  0  0  0
 48121  1  0  0  0
 49 50  1  0  0  0
 49 53  1  0  0  0
 49 64  1  0  0  0
 49122  1  0  0  0
 50 51  1  0  0  0
 50123  1  0  0  0
 50124  1  0  0  0
 51 52  1  0  0  0
 51125  1  0  0  0
 51126  1  0  0  0
 52127  1  0  0  0
 52128  1  0  0  0
 53 54  1  0  0  0
 54 55  2  0  0  0
 54129  1  0  0  0
 55 57  1  0  0  0
 55130  1  0  0  0
 56 69  2  0  0  0
 57 58  2  0  0  0
 57131  1  0  0  0
 58132  1  0  0  0
 59 60  1  0  0  0
 59 61  1  0  0  0
 59 62  1  0  0  0
 60133  1  0  0  0
 60134  1  0  0  0
 60135  1  0  0  0
 61136  1  0  0  0
 61137  1  0  0  0
 61138  1  0  0  0
 62139  1  0  0  0
 62140  1  0  0  0
 62141  1  0  0  0
 63 65  1  0  0  0
 63142  1  0  0  0
 63143  1  0  0  0
 63144  1  0  0  0
 64145  1  0  0  0
 65146  1  0  0  0
 68 84  1  0  0  0
 71 73  2  0  0  0
 71 74  1  0  0  0
 71147  1  0  0  0
 72 73  1  0  0  0
 72 75  2  0  0  0
 72148  1  0  0  0
 73 77  1  0  0  0
 74 76  2  0  0  0
 74 85  1  0  0  0
 75 76  1  0  0  0
 75 86  1  0  0  0
 76 87  1  0  0  0
 77 78  2  0  0  0
 77149  1  0  0  0
 78 81  1  0  0  0
 78150  1  0  0  0
 79 83  1  0  0  0
 79151  1  0  0  0
 79152  1  0  0  0
 79153  1  0  0  0
 80 85  1  0  0  0
 80154  1  0  0  0
 80155  1  0  0  0
 80156  1  0  0  0
 81 82  1  0  0  0
 81157  1  0  0  0
 81158  1  0  0  0
 82 84  1  0  0  0
 82159  1  0  0  0
 82160  1  0  0  0
 83 86  1  0  0  0
 83161  1  0  0  0
 83162  1  0  0  0
 84163  1  0  0  0
 84164  1  0  0  0
M  ISO  4   1 100  68 101  84 101  85 100
M  END
> <chiral flag>
0

> <version>
0

> <s_m_source_file>
/data/baiqing/PycharmProjects/Reinvent-master-3.2/result/LINK_invent/BTK/process_docking_weight1_custom_sum_contain_oxygen_bond_distance_aromatic_linkinvent_7_9_3/rearranged_h_0007.sdf

> <i_m_source_file_index>
80

> <r_mmod_Potential_Energy-OPLS-2005>
378.826904296875

> <r_mmod_Stretch_Energy-OPLS-2005>
63.3298454284668

> <r_mmod_Bend_Energy-OPLS-2005>
149.277786254883

> <r_mmod_Torsional_Energy-OPLS-2005>
380.1591796875

> <r_mmod_Improper_Torsional_Energy-OPLS-2005>
39.0158386230469

> <r_mmod_Van_der_Waal_Energy-OPLS-2005>
149.102874755859

> <r_mmod_Electrostatic_Energy-OPLS-2005>
-293.206512451172

> <r_mmod_Solvation_Energy-OPLS-2005>
-186.047454833984

> <b_mmod_Minimization_Converged-OPLS-2005>
0

> <r_mmod_RMS_Derivative-OPLS-2005>
3.71092057228088

$$$$
80
                    3D
 Structure written by MMmdl.
154162  0  0  1  0            999 V2000
  -30.6094  -14.7063   20.3582 C   0  0  0  0  0  0
  -30.4390  -12.3871   19.4741 C   0  0  0  0  0  0
  -29.5129  -12.3595   18.2392 C   0  0  0  0  0  0
  -28.0254  -12.2915   18.6532 C   0  0  0  0  0  0
  -27.6413  -13.2119   19.8466 C   0  0  2  0  0  0
  -28.6972  -13.1704   20.9702 C   0  0  0  0  0  0
  -25.2544  -13.8175   20.5714 C   0  0  0  0  0  0
  -24.1807  -13.0447   20.9232 C   0  0  0  0  0  0
  -24.6371  -11.6914   20.8814 C   0  0  0  0  0  0
  -23.9038  -10.4303   21.0461 C   0  0  0  0  0  0
  -24.3591   -9.4220   21.9244 C   0  0  0  0  0  0
  -23.6274   -8.2247   22.0782 C   0  0  0  0  0  0
  -22.4265   -8.0295   21.3557 C   0  0  0  0  0  0
  -21.9893   -9.0269   20.4664 C   0  0  0  0  0  0
  -22.7213  -10.2159   20.3103 C   0  0  0  0  0  0
  -21.6849   -6.0744   22.5281 C   0  0  0  0  0  0
  -21.4022   -6.5655   23.8218 C   0  0  0  0  0  0
  -21.3663   -5.6816   24.9185 C   0  0  0  0  0  0
  -21.6034   -4.3072   24.7235 C   0  0  0  0  0  0
  -21.8805   -3.8160   23.4358 C   0  0  0  0  0  0
  -21.9178   -4.6970   22.3414 C   0  0  0  0  0  0
  -22.7839  -13.5271   21.1875 C   0  0  0  0  0  0
  -22.1646   -4.2153   21.0987 F   0  0  0  0  0  0
  -21.5611   -3.4555   25.7747 F   0  0  0  0  0  0
  -29.9892  -13.4825   20.3528 N   0  0  0  0  0  0
  -26.2952  -12.9329   20.3353 N   0  0  0  0  0  0
  -25.9304  -11.6494   20.5865 N   0  0  0  0  0  0
  -22.0436  -12.8293   22.0420 N   0  0  0  0  0  0
  -25.4257  -15.1884   20.4045 N   0  0  0  0  0  0
  -31.8368  -14.7804   20.2368 O   0  0  0  0  0  0
  -21.6639   -6.8885   21.4243 O   0  0  0  0  0  0
  -22.3559  -14.5587   20.6723 O   0  0  0  0  0  0
  -24.6301  -31.8575   23.2049 C   0  0  0  0  0  0
  -25.9144  -32.4758   23.8389 C   0  0  1  0  0  0
  -27.2185  -27.2964   20.1397 C   0  0  0  0  0  0
  -25.5967  -33.8563   24.2332 N   0  0  0  0  0  0
  -23.4234  -30.4855   21.5462 C   0  0  2  0  0  0
  -24.8659  -28.9337   20.1154 C   0  0  0  0  0  0
  -22.7481  -29.4625   22.4915 C   0  0  0  0  0  0
  -18.0281  -28.1390   22.8474 C   0  0  0  0  0  0
  -24.1476  -36.7271   23.2644 C   0  0  0  0  0  0
  -25.9639  -30.7882   21.3715 C   0  0  0  0  0  0
  -26.0349  -29.4130   20.7165 C   0  0  0  0  0  0
  -27.2116  -28.6072   20.7135 C   0  0  0  0  0  0
  -26.0186  -26.8633   19.5310 C   0  0  0  0  0  0
  -24.8592  -27.6642   19.5172 C   0  0  0  0  0  0
  -23.6419  -29.8270   20.1580 C   0  0  0  0  0  0
  -25.4094  -36.3066   24.0354 C   0  0  1  0  0  0
  -20.5881  -28.3709   23.1261 C   0  0  2  0  0  0
  -20.6764  -26.9420   22.5408 C   0  0  0  0  0  0
  -19.5750  -26.6386   21.5197 C   0  0  0  0  0  0
  -18.1929  -26.7933   22.1608 C   0  0  0  0  0  0
  -19.1528  -28.8857   23.2868 C   0  0  0  0  0  0
  -18.9452  -30.1449   23.8908 C   0  0  0  0  0  0
  -17.6448  -30.6579   24.0573 C   0  0  0  0  0  0
  -25.9044  -34.9433   23.5131 C   0  0  0  0  0  0
  -16.5344  -29.9091   23.6318 C   0  0  0  0  0  0
  -16.7262  -28.6508   23.0335 C   0  0  0  0  0  0
  -26.4525  -31.6567   25.0766 C   0  0  0  0  0  0
  -25.3795  -31.3681   26.1529 C   0  0  0  0  0  0
  -27.0386  -30.3006   24.6213 C   0  0  0  0  0  0
  -27.6084  -32.4313   25.7529 C   0  0  0  0  0  0
  -27.5560  -37.1807   24.8481 C   0  0  0  0  0  0
  -21.4183  -29.3074   22.3658 N   0  0  0  0  0  0
  -26.4268  -37.3774   23.9426 N   0  0  0  0  0  0
  -24.6922  -31.0607   22.0982 N   0  0  0  0  0  0
  -23.4188  -28.8137   23.2985 O   0  0  0  0  0  0
  -28.3596  -26.4787   20.2172 O   0  0  0  0  0  0
  -26.5565  -34.8905   22.4676 O   0  0  0  0  0  0
  -23.5463  -32.1355   23.7385 O   0  0  0  0  0  0
  -30.5270  -18.1896   20.0148 C   0  0  0  0  0  0
  -28.5391  -17.4975   21.1753 C   0  0  0  0  0  0
  -30.1843  -19.5632   20.2231 C   0  0  0  0  0  0
  -28.2123  -18.8695   21.4002 C   0  0  0  0  0  0
  -29.7015  -17.1152   20.4614 C   0  0  0  0  0  0
  -29.0013  -19.9459   20.9094 C   0  0  0  0  0  0
  -29.7208  -15.8229   18.4297 C   0  0  0  0  0  0
  -28.4031  -23.8474   20.7857 C   0  0  0  0  0  0
  -28.8017  -22.3883   20.2483 C   0  0  0  0  0  0
  -28.4154  -25.0662   19.7511 C   0  0  0  0  0  0
  -29.8359  -15.7658   19.9007 N   0  0  0  0  0  0
  -28.5976  -21.2736   21.1815 O   0  0  0  0  0  0
  -31.4785  -12.5026   19.1598 H   0  0  0  0  0  0
  -30.3869  -11.4367   20.0077 H   0  0  0  0  0  0
  -29.7480  -11.4775   17.6418 H   0  0  0  0  0  0
  -29.7160  -13.1994   17.5802 H   0  0  0  0  0  0
  -27.8352  -11.2556   18.9359 H   0  0  0  0  0  0
  -27.3801  -12.4872   17.7964 H   0  0  0  0  0  0
  -27.6151  -14.2271   19.4624 H   0  0  0  0  0  0
  -28.7249  -12.1942   21.4562 H   0  0  0  0  0  0
  -28.4615  -13.9018   21.7458 H   0  0  0  0  0  0
  -25.2707   -9.5715   22.4864 H   0  0  0  0  0  0
  -23.9963   -7.4647   22.7526 H   0  0  0  0  0  0
  -21.0810   -8.8813   19.8987 H   0  0  0  0  0  0
  -22.3657  -10.9729   19.6252 H   0  0  0  0  0  0
  -21.2041   -7.6169   23.9726 H   0  0  0  0  0  0
  -21.1491   -6.0553   25.9088 H   0  0  0  0  0  0
  -22.0571   -2.7618   23.2863 H   0  0  0  0  0  0
  -22.3957  -11.9904   22.4791 H   0  0  0  0  0  0
  -21.1112  -13.1453   22.2679 H   0  0  0  0  0  0
  -24.6534  -15.8416   20.4815 H   0  0  0  0  0  0
  -26.2693  -15.6147   20.0428 H   0  0  0  0  0  0
  -26.7225  -32.5428   23.1146 H   0  0  0  0  0  0
  -25.0250  -33.9697   25.0565 H   0  0  0  0  0  0
  -22.7219  -31.3095   21.4060 H   0  0  0  0  0  0
  -23.3733  -35.9610   23.3321 H   0  0  0  0  0  0
  -24.3569  -36.8861   22.2055 H   0  0  0  0  0  0
  -23.7233  -37.6492   23.6631 H   0  0  0  0  0  0
  -26.0958  -31.5488   20.6010 H   0  0  0  0  0  0
  -26.8438  -30.8380   22.0011 H   0  0  0  0  0  0
  -28.1115  -28.9745   21.1861 H   0  0  0  0  0  0
  -25.9256  -25.8879   19.0853 H   0  0  0  0  0  0
  -23.9563  -27.2794   19.0638 H   0  0  0  0  0  0
  -23.7912  -30.6132   19.4168 H   0  0  0  0  0  0
  -22.7545  -29.2829   19.8300 H   0  0  0  0  0  0
  -25.1264  -36.1935   25.0848 H   0  0  0  0  0  0
  -20.9969  -28.3300   24.1381 H   0  0  0  0  0  0
  -20.5626  -26.2328   23.3623 H   0  0  0  0  0  0
  -21.6642  -26.7435   22.1227 H   0  0  0  0  0  0
  -19.6912  -25.6292   21.1242 H   0  0  0  0  0  0
  -19.6684  -27.3181   20.6715 H   0  0  0  0  0  0
  -17.4194  -26.6652   21.4020 H   0  0  0  0  0  0
  -18.0345  -26.0085   22.9014 H   0  0  0  0  0  0
  -19.7923  -30.7243   24.2312 H   0  0  0  0  0  0
  -17.5005  -31.6253   24.5185 H   0  0  0  0  0  0
  -15.5349  -30.2993   23.7634 H   0  0  0  0  0  0
  -15.8661  -28.0829   22.7050 H   0  0  0  0  0  0
  -24.5956  -30.7025   25.7896 H   0  0  0  0  0  0
  -24.9020  -32.2840   26.5029 H   0  0  0  0  0  0
  -25.8181  -30.8853   27.0276 H   0  0  0  0  0  0
  -26.2960  -29.6739   24.1277 H   0  0  0  0  0  0
  -27.4122  -29.7288   25.4714 H   0  0  0  0  0  0
  -27.8816  -30.4298   23.9427 H   0  0  0  0  0  0
  -27.2695  -33.3603   26.2126 H   0  0  0  0  0  0
  -28.3883  -32.6902   25.0354 H   0  0  0  0  0  0
  -28.0784  -31.8450   26.5438 H   0  0  0  0  0  0
  -28.2608  -38.0072   24.7473 H   0  0  0  0  0  0
  -28.1019  -36.2606   24.6356 H   0  0  0  0  0  0
  -27.2285  -37.1531   25.8888 H   0  0  0  0  0  0
  -20.9354  -29.8881   21.6939 H   0  0  0  0  0  0
  -26.0147  -38.2845   24.1443 H   0  0  0  0  0  0
  -31.4073  -17.9620   19.4295 H   0  0  0  0  0  0
  -27.8366  -16.7389   21.4920 H   0  0  0  0  0  0
  -30.8481  -20.3233   19.8388 H   0  0  0  0  0  0
  -27.2929  -19.0942   21.9224 H   0  0  0  0  0  0
  -30.6717  -15.6244   17.9304 H   0  0  0  0  0  0
  -29.3770  -16.7958   18.0744 H   0  0  0  0  0  0
  -28.9821  -15.1213   18.0573 H   0  0  0  0  0  0
  -29.0812  -24.0940   21.6043 H   0  0  0  0  0  0
  -27.4120  -23.7888   21.2376 H   0  0  0  0  0  0
  -29.8385  -22.4039   19.9138 H   0  0  0  0  0  0
  -28.1943  -22.1649   19.3705 H   0  0  0  0  0  0
  -27.6990  -24.8619   18.9597 H   0  0  0  0  0  0
  -29.3736  -25.0009   19.2357 H   0  0  0  0  0  0
  1 25  1  0  0  0
  1 30  2  0  0  0
  1 81  1  0  0  0
  2  3  1  0  0  0
  2 25  1  0  0  0
  2 83  1  0  0  0
  2 84  1  0  0  0
  3  4  1  0  0  0
  3 85  1  0  0  0
  3 86  1  0  0  0
  4  5  1  0  0  0
  4 87  1  0  0  0
  4 88  1  0  0  0
  5  6  1  0  0  0
  5 26  1  0  0  0
  5 89  1  0  0  0
  6 25  1  0  0  0
  6 90  1  0  0  0
  6 91  1  0  0  0
  7  8  2  0  0  0
  7 26  1  0  0  0
  7 29  1  0  0  0
  8  9  1  0  0  0
  8 22  1  0  0  0
  9 10  1  0  0  0
  9 27  2  0  0  0
 10 11  2  0  0  0
 10 15  1  0  0  0
 11 12  1  0  0  0
 11 92  1  0  0  0
 12 13  2  0  0  0
 12 93  1  0  0  0
 13 14  1  0  0  0
 13 31  1  0  0  0
 14 15  2  0  0  0
 14 94  1  0  0  0
 15 95  1  0  0  0
 16 17  2  0  0  0
 16 21  1  0  0  0
 16 31  1  0  0  0
 17 18  1  0  0  0
 17 96  1  0  0  0
 18 19  2  0  0  0
 18 97  1  0  0  0
 19 20  1  0  0  0
 19 24  1  0  0  0
 20 21  2  0  0  0
 20 98  1  0  0  0
 21 23  1  0  0  0
 22 28  1  0  0  0
 22 32  2  0  0  0
 26 27  1  0  0  0
 28 99  1  0  0  0
 28100  1  0  0  0
 29101  1  0  0  0
 29102  1  0  0  0
 33 34  1  0  0  0
 33 66  1  0  0  0
 33 70  2  0  0  0
 34 36  1  0  0  0
 34 59  1  0  0  0
 34103  1  0  0  0
 35 44  2  0  0  0
 35 45  1  0  0  0
 35 68  1  0  0  0
 36 56  1  0  0  0
 36104  1  0  0  0
 37 39  1  0  0  0
 37 47  1  0  0  0
 37 66  1  0  0  0
 37105  1  0  0  0
 38 43  2  0  0  0
 38 46  1  0  0  0
 38 47  1  0  0  0
 39 64  1  0  0  0
 39 67  2  0  0  0
 40 52  1  0  0  0
 40 53  2  0  0  0
 40 58  1  0  0  0
 41106  1  0  0  0
 41107  1  0  0  0
 41108  1  0  0  0
 41 48  1  0  0  0
 42 43  1  0  0  0
 42 66  1  0  0  0
 42109  1  0  0  0
 42110  1  0  0  0
 43 44  1  0  0  0
 44111  1  0  0  0
 45 46  2  0  0  0
 45112  1  0  0  0
 46113  1  0  0  0
 47114  1  0  0  0
 47115  1  0  0  0
 48 56  1  0  0  0
 48 65  1  0  0  0
 48116  1  0  0  0
 49 50  1  0  0  0
 49 53  1  0  0  0
 49 64  1  0  0  0
 49117  1  0  0  0
 50 51  1  0  0  0
 50118  1  0  0  0
 50119  1  0  0  0
 51 52  1  0  0  0
 51120  1  0  0  0
 51121  1  0  0  0
 52122  1  0  0  0
 52123  1  0  0  0
 53 54  1  0  0  0
 54 55  2  0  0  0
 54124  1  0  0  0
 55 57  1  0  0  0
 55125  1  0  0  0
 56 69  2  0  0  0
 57 58  2  0  0  0
 57126  1  0  0  0
 58127  1  0  0  0
 59 60  1  0  0  0
 59 61  1  0  0  0
 59 62  1  0  0  0
 60128  1  0  0  0
 60129  1  0  0  0
 60130  1  0  0  0
 61131  1  0  0  0
 61132  1  0  0  0
 61133  1  0  0  0
 62134  1  0  0  0
 62135  1  0  0  0
 62136  1  0  0  0
 63 65  1  0  0  0
 63137  1  0  0  0
 63138  1  0  0  0
 63139  1  0  0  0
 64140  1  0  0  0
 65141  1  0  0  0
 68 80  1  0  0  0
 71 73  2  0  0  0
 71 75  1  0  0  0
 71142  1  0  0  0
 72 74  1  0  0  0
 72 75  2  0  0  0
 72143  1  0  0  0
 73 76  1  0  0  0
 73144  1  0  0  0
 74 76  2  0  0  0
 74145  1  0  0  0
 75 81  1  0  0  0
 76 82  1  0  0  0
 77 81  1  0  0  0
 77146  1  0  0  0
 77147  1  0  0  0
 77148  1  0  0  0
 78 79  1  0  0  0
 78 80  1  0  0  0
 78149  1  0  0  0
 78150  1  0  0  0
 79 82  1  0  0  0
 79151  1  0  0  0
 79152  1  0  0  0
 80153  1  0  0  0
 80154  1  0  0  0
M  ISO  4   1 100  68 101  80 101  81 100
M  END
> <chiral flag>
0

> <version>
0

> <s_m_source_file>
/data/baiqing/PycharmProjects/Reinvent-master-3.2/result/LINK_invent/BTK/process_docking_weight1_custom_sum_contain_oxygen_bond_distance_aromatic_linkinvent_7_9_3/rearranged_h_0007.sdf

> <i_m_source_file_index>
81

> <r_mmod_Potential_Energy-OPLS-2005>
326.434143066406

> <r_mmod_Stretch_Energy-OPLS-2005>
87.9355850219727

> <r_mmod_Bend_Energy-OPLS-2005>
167.475799560547

> <r_mmod_Torsional_Energy-OPLS-2005>
334.097442626953

> <r_mmod_Improper_Torsional_Energy-OPLS-2005>
26.7105770111084

> <r_mmod_Van_der_Waal_Energy-OPLS-2005>
141.255142211914

> <r_mmod_Electrostatic_Energy-OPLS-2005>
-312.797546386719

> <r_mmod_Solvation_Energy-OPLS-2005>
-196.871047973633

> <b_mmod_Minimization_Converged-OPLS-2005>
0

> <r_mmod_RMS_Derivative-OPLS-2005>
2.83015894889832

$$$$
81
                    3D
 Structure written by MMmdl.
162170  0  0  1  0            999 V2000
  -30.6660  -14.4946   20.5479 C   0  0  0  0  0  0
  -30.4325  -12.3106   19.4224 C   0  0  0  0  0  0
  -29.4967  -12.4962   18.2089 C   0  0  0  0  0  0
  -28.0174  -12.3596   18.6213 C   0  0  0  0  0  0
  -27.6638  -13.1964   19.8797 C   0  0  2  0  0  0
  -28.7071  -12.9698   20.9964 C   0  0  0  0  0  0
  -25.2611  -13.8123   20.5719 C   0  0  0  0  0  0
  -24.1837  -13.0419   20.9170 C   0  0  0  0  0  0
  -24.6377  -11.6884   20.8725 C   0  0  0  0  0  0
  -23.9038  -10.4279   21.0399 C   0  0  0  0  0  0
  -24.3596   -9.4200   21.9177 C   0  0  0  0  0  0
  -23.6280   -8.2234   22.0750 C   0  0  0  0  0  0
  -22.4263   -8.0272   21.3544 C   0  0  0  0  0  0
  -21.9890   -9.0245   20.4647 C   0  0  0  0  0  0
  -22.7212  -10.2126   20.3052 C   0  0  0  0  0  0
  -21.6850   -6.0729   22.5281 C   0  0  0  0  0  0
  -21.4009   -6.5635   23.8212 C   0  0  0  0  0  0
  -21.3654   -5.6787   24.9174 C   0  0  0  0  0  0
  -21.6046   -4.3051   24.7228 C   0  0  0  0  0  0
  -21.8820   -3.8143   23.4348 C   0  0  0  0  0  0
  -21.9192   -4.6957   22.3404 C   0  0  0  0  0  0
  -22.7862  -13.5237   21.1838 C   0  0  0  0  0  0
  -22.1662   -4.2143   21.0983 F   0  0  0  0  0  0
  -21.5630   -3.4535   25.7738 F   0  0  0  0  0  0
  -30.0364  -13.2910   20.4456 N   0  0  0  0  0  0
  -26.3034  -12.9274   20.3395 N   0  0  0  0  0  0
  -25.9305  -11.6446   20.5776 N   0  0  0  0  0  0
  -22.0496  -12.8241   22.0392 N   0  0  0  0  0  0
  -25.4380  -15.1837   20.4227 N   0  0  0  0  0  0
  -31.7971  -14.7027   20.0956 O   0  0  0  0  0  0
  -21.6632   -6.8869   21.4241 O   0  0  0  0  0  0
  -22.3558  -14.5549   20.6690 O   0  0  0  0  0  0
  -24.6138  -31.8677   23.2099 C   0  0  0  0  0  0
  -25.9035  -32.4821   23.8393 C   0  0  1  0  0  0
  -27.2370  -27.4406   20.0987 C   0  0  0  0  0  0
  -25.5897  -33.8620   24.2323 N   0  0  0  0  0  0
  -23.4026  -30.4907   21.5487 C   0  0  2  0  0  0
  -24.8540  -28.9592   20.1097 C   0  0  0  0  0  0
  -22.7407  -29.4648   22.4969 C   0  0  0  0  0  0
  -18.0271  -28.1368   22.8487 C   0  0  0  0  0  0
  -24.1485  -36.7312   23.2633 C   0  0  0  0  0  0
  -25.9313  -30.8360   21.3634 C   0  0  0  0  0  0
  -26.0126  -29.4714   20.7089 C   0  0  0  0  0  0
  -27.2099  -28.7189   20.7024 C   0  0  0  0  0  0
  -26.0679  -26.9428   19.4895 C   0  0  0  0  0  0
  -24.8761  -27.6938   19.4957 C   0  0  0  0  0  0
  -23.6133  -29.8231   20.1624 C   0  0  0  0  0  0
  -25.4101  -36.3112   24.0342 C   0  0  1  0  0  0
  -20.5862  -28.3654   23.1315 C   0  0  2  0  0  0
  -20.6756  -26.9389   22.5417 C   0  0  0  0  0  0
  -19.5748  -26.6378   21.5203 C   0  0  0  0  0  0
  -18.1924  -26.7916   22.1611 C   0  0  0  0  0  0
  -19.1521  -28.8826   23.2898 C   0  0  0  0  0  0
  -18.9451  -30.1432   23.8907 C   0  0  0  0  0  0
  -17.6457  -30.6579   24.0555 C   0  0  0  0  0  0
  -25.9033  -34.9480   23.5127 C   0  0  0  0  0  0
  -16.5344  -29.9080   23.6322 C   0  0  0  0  0  0
  -16.7260  -28.6492   23.0347 C   0  0  0  0  0  0
  -26.4471  -31.6597   25.0718 C   0  0  0  0  0  0
  -25.3746  -31.3714   26.1478 C   0  0  0  0  0  0
  -27.0289  -30.3031   24.6091 C   0  0  0  0  0  0
  -27.6059  -32.4306   25.7471 C   0  0  0  0  0  0
  -27.5597  -37.1782   24.8443 C   0  0  0  0  0  0
  -21.4132  -29.3023   22.3719 N   0  0  0  0  0  0
  -26.4275  -37.3813   23.9443 N   0  0  0  0  0  0
  -24.6669  -31.0787   22.0991 N   0  0  0  0  0  0
  -23.4185  -28.8188   23.3005 O   0  0  0  0  0  0
  -28.3605  -26.6452   20.1321 O   0  0  0  0  0  0
  -26.5587  -34.8935   22.4684 O   0  0  0  0  0  0
  -23.5332  -32.1422   23.7497 O   0  0  0  0  0  0
  -30.2987  -17.8149   21.7428 C   0  0  0  0  0  0
  -30.1722  -19.2031   21.4930 C   0  0  0  0  0  0
  -29.3290  -18.7079   19.2776 C   0  0  0  0  0  0
  -29.9390  -16.8583   20.7653 C   0  0  0  0  0  0
  -29.4435  -17.3152   19.5133 C   0  0  0  0  0  0
  -29.6648  -19.6669   20.2543 C   0  0  0  0  0  0
  -30.0253  -16.2804   17.4606 C   0  0  0  0  0  0
  -27.6637  -16.6337   18.0545 C   0  0  0  0  0  0
  -29.3802  -24.5992   21.2266 C   0  0  0  0  0  0
  -29.0396  -23.3550   20.3657 C   0  0  0  0  0  0
  -28.3238  -25.7349   21.2415 C   0  0  0  0  0  0
  -29.7034  -22.0395   20.8580 C   0  0  0  0  0  0
  -29.9323  -15.4710   21.1138 N   0  0  0  0  0  0
  -29.0299  -16.4081   18.5200 N   0  0  0  0  0  0
  -29.4436  -20.9937   19.9176 O   0  0  0  0  0  0
  -31.4741  -12.4278   19.1167 H   0  0  0  0  0  0
  -30.3514  -11.2980   19.8200 H   0  0  0  0  0  0
  -29.7367  -11.7697   17.4316 H   0  0  0  0  0  0
  -29.6611  -13.4781   17.7671 H   0  0  0  0  0  0
  -27.8239  -11.3041   18.8161 H   0  0  0  0  0  0
  -27.3678  -12.6396   17.7911 H   0  0  0  0  0  0
  -27.7094  -14.2435   19.5897 H   0  0  0  0  0  0
  -28.6892  -11.9290   21.3227 H   0  0  0  0  0  0
  -28.4648  -13.5531   21.8855 H   0  0  0  0  0  0
  -25.2744   -9.5680   22.4749 H   0  0  0  0  0  0
  -23.9992   -7.4622   22.7470 H   0  0  0  0  0  0
  -21.0816   -8.8762   19.8962 H   0  0  0  0  0  0
  -22.3665  -10.9663   19.6161 H   0  0  0  0  0  0
  -21.2000   -7.6143   23.9713 H   0  0  0  0  0  0
  -21.1475   -6.0517   25.9077 H   0  0  0  0  0  0
  -22.0605   -2.7606   23.2847 H   0  0  0  0  0  0
  -22.4090  -11.9898   22.4793 H   0  0  0  0  0  0
  -21.1126  -13.1304   22.2609 H   0  0  0  0  0  0
  -24.6827  -15.8474   20.5534 H   0  0  0  0  0  0
  -26.3135  -15.6168   20.1592 H   0  0  0  0  0  0
  -26.7106  -32.5546   23.1159 H   0  0  0  0  0  0
  -25.0058  -33.9788   25.0474 H   0  0  0  0  0  0
  -22.6904  -31.3067   21.4092 H   0  0  0  0  0  0
  -23.3770  -35.9620   23.3254 H   0  0  0  0  0  0
  -24.3596  -36.8967   22.2057 H   0  0  0  0  0  0
  -23.7201  -37.6494   23.6664 H   0  0  0  0  0  0
  -26.0439  -31.6045   20.5975 H   0  0  0  0  0  0
  -26.8186  -30.8885   21.9822 H   0  0  0  0  0  0
  -28.1020  -29.1053   21.1753 H   0  0  0  0  0  0
  -26.0773  -25.9651   19.0285 H   0  0  0  0  0  0
  -23.9854  -27.2928   19.0322 H   0  0  0  0  0  0
  -23.7174  -30.5990   19.4030 H   0  0  0  0  0  0
  -22.7393  -29.2398   19.8668 H   0  0  0  0  0  0
  -25.1268  -36.1961   25.0832 H   0  0  0  0  0  0
  -20.9964  -28.3219   24.1431 H   0  0  0  0  0  0
  -20.5640  -26.2264   23.3605 H   0  0  0  0  0  0
  -21.6629  -26.7416   22.1224 H   0  0  0  0  0  0
  -19.6910  -25.6290   21.1229 H   0  0  0  0  0  0
  -19.6704  -27.3188   20.6734 H   0  0  0  0  0  0
  -17.4203  -26.6666   21.4005 H   0  0  0  0  0  0
  -18.0326  -26.0046   22.8995 H   0  0  0  0  0  0
  -19.7934  -30.7228   24.2291 H   0  0  0  0  0  0
  -17.5020  -31.6264   24.5153 H   0  0  0  0  0  0
  -15.5345  -30.2983   23.7642 H   0  0  0  0  0  0
  -15.8660  -28.0811   22.7062 H   0  0  0  0  0  0
  -24.5905  -30.7071   25.7827 H   0  0  0  0  0  0
  -24.8955  -32.2880   26.4933 H   0  0  0  0  0  0
  -25.8110  -30.8880   27.0228 H   0  0  0  0  0  0
  -26.2820  -29.6803   24.1153 H   0  0  0  0  0  0
  -27.4062  -29.7260   25.4543 H   0  0  0  0  0  0
  -27.8661  -30.4340   23.9230 H   0  0  0  0  0  0
  -27.2686  -33.3592   26.2090 H   0  0  0  0  0  0
  -28.3845  -32.6889   25.0280 H   0  0  0  0  0  0
  -28.0756  -31.8404   26.5351 H   0  0  0  0  0  0
  -28.2539  -38.0155   24.7620 H   0  0  0  0  0  0
  -28.1164  -36.2697   24.6085 H   0  0  0  0  0  0
  -27.2348  -37.1223   25.8848 H   0  0  0  0  0  0
  -20.9285  -29.8745   21.6946 H   0  0  0  0  0  0
  -26.0159  -38.2873   24.1530 H   0  0  0  0  0  0
  -30.6531  -17.4862   22.7096 H   0  0  0  0  0  0
  -30.4515  -19.8927   22.2755 H   0  0  0  0  0  0
  -28.9476  -19.0594   18.3305 H   0  0  0  0  0  0
  -30.9761  -15.9172   17.8520 H   0  0  0  0  0  0
  -30.2082  -17.2361   16.9665 H   0  0  0  0  0  0
  -29.6894  -15.5748   16.6996 H   0  0  0  0  0  0
  -27.0141  -16.9698   18.8641 H   0  0  0  0  0  0
  -27.2409  -15.7126   17.6508 H   0  0  0  0  0  0
  -27.6309  -17.3871   17.2655 H   0  0  0  0  0  0
  -30.3594  -24.9947   20.9555 H   0  0  0  0  0  0
  -29.4806  -24.2612   22.2589 H   0  0  0  0  0  0
  -29.3243  -23.5503   19.3314 H   0  0  0  0  0  0
  -27.9599  -23.2025   20.3551 H   0  0  0  0  0  0
  -28.4822  -26.3312   22.1420 H   0  0  0  0  0  0
  -27.3315  -25.2930   21.3544 H   0  0  0  0  0  0
  -29.2967  -21.7866   21.8383 H   0  0  0  0  0  0
  -30.7811  -22.1682   20.9665 H   0  0  0  0  0  0
  -29.0671  -15.1432   21.5120 H   0  0  0  0  0  0
  1 25  1  0  0  0
  1 30  2  0  0  0
  1 83  1  0  0  0
  2  3  1  0  0  0
  2 25  1  0  0  0
  2 86  1  0  0  0
  2 87  1  0  0  0
  3  4  1  0  0  0
  3 88  1  0  0  0
  3 89  1  0  0  0
  4  5  1  0  0  0
  4 90  1  0  0  0
  4 91  1  0  0  0
  5  6  1  0  0  0
  5 26  1  0  0  0
  5 92  1  0  0  0
  6 25  1  0  0  0
  6 93  1  0  0  0
  6 94  1  0  0  0
  7  8  2  0  0  0
  7 26  1  0  0  0
  7 29  1  0  0  0
  8  9  1  0  0  0
  8 22  1  0  0  0
  9 10  1  0  0  0
  9 27  2  0  0  0
 10 11  2  0  0  0
 10 15  1  0  0  0
 11 12  1  0  0  0
 11 95  1  0  0  0
 12 13  2  0  0  0
 12 96  1  0  0  0
 13 14  1  0  0  0
 13 31  1  0  0  0
 14 15  2  0  0  0
 14 97  1  0  0  0
 15 98  1  0  0  0
 16 17  2  0  0  0
 16 21  1  0  0  0
 16 31  1  0  0  0
 17 18  1  0  0  0
 17 99  1  0  0  0
 18 19  2  0  0  0
 18100  1  0  0  0
 19 20  1  0  0  0
 19 24  1  0  0  0
 20 21  2  0  0  0
 20101  1  0  0  0
 21 23  1  0  0  0
 22 28  1  0  0  0
 22 32  2  0  0  0
 26 27  1  0  0  0
 28102  1  0  0  0
 28103  1  0  0  0
 29104  1  0  0  0
 29105  1  0  0  0
 33 34  1  0  0  0
 33 66  1  0  0  0
 33 70  2  0  0  0
 34 36  1  0  0  0
 34 59  1  0  0  0
 34106  1  0  0  0
 35 44  2  0  0  0
 35 45  1  0  0  0
 35 68  1  0  0  0
 36 56  1  0  0  0
 36107  1  0  0  0
 37 39  1  0  0  0
 37 47  1  0  0  0
 37 66  1  0  0  0
 37108  1  0  0  0
 38 43  2  0  0  0
 38 46  1  0  0  0
 38 47  1  0  0  0
 39 64  1  0  0  0
 39 67  2  0  0  0
 40 52  1  0  0  0
 40 53  2  0  0  0
 40 58  1  0  0  0
 41109  1  0  0  0
 41110  1  0  0  0
 41111  1  0  0  0
 41 48  1  0  0  0
 42 43  1  0  0  0
 42 66  1  0  0  0
 42112  1  0  0  0
 42113  1  0  0  0
 43 44  1  0  0  0
 44114  1  0  0  0
 45 46  2  0  0  0
 45115  1  0  0  0
 46116  1  0  0  0
 47117  1  0  0  0
 47118  1  0  0  0
 48 56  1  0  0  0
 48 65  1  0  0  0
 48119  1  0  0  0
 49 50  1  0  0  0
 49 53  1  0  0  0
 49 64  1  0  0  0
 49120  1  0  0  0
 50 51  1  0  0  0
 50121  1  0  0  0
 50122  1  0  0  0
 51 52  1  0  0  0
 51123  1  0  0  0
 51124  1  0  0  0
 52125  1  0  0  0
 52126  1  0  0  0
 53 54  1  0  0  0
 54 55  2  0  0  0
 54127  1  0  0  0
 55 57  1  0  0  0
 55128  1  0  0  0
 56 69  2  0  0  0
 57 58  2  0  0  0
 57129  1  0  0  0
 58130  1  0  0  0
 59 60  1  0  0  0
 59 61  1  0  0  0
 59 62  1  0  0  0
 60131  1  0  0  0
 60132  1  0  0  0
 60133  1  0  0  0
 61134  1  0  0  0
 61135  1  0  0  0
 61136  1  0  0  0
 62137  1  0  0  0
 62138  1  0  0  0
 62139  1  0  0  0
 63 65  1  0  0  0
 63140  1  0  0  0
 63141  1  0  0  0
 63142  1  0  0  0
 64143  1  0  0  0
 65144  1  0  0  0
 68 81  1  0  0  0
 71 72  2  0  0  0
 71 74  1  0  0  0
 71145  1  0  0  0
 72 76  1  0  0  0
 72146  1  0  0  0
 73 75  1  0  0  0
 73 76  2  0  0  0
 73147  1  0  0  0
 74 75  2  0  0  0
 74 83  1  0  0  0
 75 84  1  0  0  0
 76 85  1  0  0  0
 77 84  1  0  0  0
 77148  1  0  0  0
 77149  1  0  0  0
 77150  1  0  0  0
 78 84  1  0  0  0
 78151  1  0  0  0
 78152  1  0  0  0
 78153  1  0  0  0
 79 80  1  0  0  0
 79 81  1  0  0  0
 79154  1  0  0  0
 79155  1  0  0  0
 80 82  1  0  0  0
 80156  1  0  0  0
 80157  1  0  0  0
 81158  1  0  0  0
 81159  1  0  0  0
 82 85  1  0  0  0
 82160  1  0  0  0
 82161  1  0  0  0
 83162  1  0  0  0
M  ISO  4   1 100  68 101  81 101  83 100
M  END
> <chiral flag>
0

> <version>
0

> <s_m_source_file>
/data/baiqing/PycharmProjects/Reinvent-master-3.2/result/LINK_invent/BTK/process_docking_weight1_custom_sum_contain_oxygen_bond_distance_aromatic_linkinvent_7_9_3/rearranged_h_0007.sdf

> <i_m_source_file_index>
82

> <r_mmod_Potential_Energy-OPLS-2005>
-40.431755065918

> <r_mmod_Stretch_Energy-OPLS-2005>
39.2569198608398

> <r_mmod_Bend_Energy-OPLS-2005>
105.116020202637

> <r_mmod_Torsional_Energy-OPLS-2005>
287.535552978516

> <r_mmod_Improper_Torsional_Energy-OPLS-2005>
9.39744472503662

> <r_mmod_Van_der_Waal_Energy-OPLS-2005>
142.536102294922

> <r_mmod_Electrostatic_Energy-OPLS-2005>
-428.900604248047

> <r_mmod_Solvation_Energy-OPLS-2005>
-210.713897705078

> <b_mmod_Minimization_Converged-OPLS-2005>
0

> <r_mmod_RMS_Derivative-OPLS-2005>
1.02703368663788

$$$$
82
                    3D
 Structure written by MMmdl.
156163  0  0  1  0            999 V2000
  -30.7097  -14.4296   20.5239 C   0  0  0  0  0  0
  -30.4099  -12.2550   19.4437 C   0  0  0  0  0  0
  -29.5031  -12.4989   18.2192 C   0  0  0  0  0  0
  -28.0172  -12.3802   18.6141 C   0  0  0  0  0  0
  -27.6641  -13.2055   19.8813 C   0  0  2  0  0  0
  -28.7017  -12.9857   21.0090 C   0  0  0  0  0  0
  -25.2591  -13.8164   20.5675 C   0  0  0  0  0  0
  -24.1835  -13.0435   20.9159 C   0  0  0  0  0  0
  -24.6391  -11.6898   20.8710 C   0  0  0  0  0  0
  -23.9046  -10.4289   21.0384 C   0  0  0  0  0  0
  -24.3600   -9.4211   21.9174 C   0  0  0  0  0  0
  -23.6284   -8.2245   22.0745 C   0  0  0  0  0  0
  -22.4271   -8.0281   21.3530 C   0  0  0  0  0  0
  -21.9898   -9.0247   20.4628 C   0  0  0  0  0  0
  -22.7214  -10.2134   20.3035 C   0  0  0  0  0  0
  -21.6865   -6.0731   22.5272 C   0  0  0  0  0  0
  -21.4017   -6.5633   23.8203 C   0  0  0  0  0  0
  -21.3663   -5.6785   24.9165 C   0  0  0  0  0  0
  -21.6051   -4.3049   24.7215 C   0  0  0  0  0  0
  -21.8817   -3.8141   23.4339 C   0  0  0  0  0  0
  -21.9188   -4.6956   22.3400 C   0  0  0  0  0  0
  -22.7856  -13.5229   21.1842 C   0  0  0  0  0  0
  -22.1661   -4.2146   21.0974 F   0  0  0  0  0  0
  -21.5633   -3.4531   25.7730 F   0  0  0  0  0  0
  -30.0419  -13.2495   20.4614 N   0  0  0  0  0  0
  -26.3030  -12.9325   20.3377 N   0  0  0  0  0  0
  -25.9322  -11.6482   20.5754 N   0  0  0  0  0  0
  -22.0495  -12.8213   22.0386 N   0  0  0  0  0  0
  -25.4341  -15.1883   20.4094 N   0  0  0  0  0  0
  -31.8622  -14.5823   20.1134 O   0  0  0  0  0  0
  -21.6637   -6.8883   21.4235 O   0  0  0  0  0  0
  -22.3544  -14.5540   20.6706 O   0  0  0  0  0  0
  -24.6151  -31.8685   23.2114 C   0  0  0  0  0  0
  -25.9045  -32.4825   23.8422 C   0  0  1  0  0  0
  -27.2347  -27.4476   20.0862 C   0  0  0  0  0  0
  -25.5908  -33.8626   24.2354 N   0  0  0  0  0  0
  -23.4026  -30.4950   21.5492 C   0  0  2  0  0  0
  -24.8488  -28.9698   20.1081 C   0  0  0  0  0  0
  -22.7432  -29.4647   22.4949 C   0  0  0  0  0  0
  -18.0276  -28.1390   22.8468 C   0  0  0  0  0  0
  -24.1478  -36.7308   23.2642 C   0  0  0  0  0  0
  -25.9320  -30.8373   21.3651 C   0  0  0  0  0  0
  -26.0090  -29.4762   20.7062 C   0  0  0  0  0  0
  -27.2055  -28.7233   20.6904 C   0  0  0  0  0  0
  -26.0542  -26.9587   19.4758 C   0  0  0  0  0  0
  -24.8660  -27.7091   19.4891 C   0  0  0  0  0  0
  -23.6113  -29.8364   20.1611 C   0  0  0  0  0  0
  -25.4095  -36.3107   24.0342 C   0  0  1  0  0  0
  -20.5871  -28.3661   23.1307 C   0  0  2  0  0  0
  -20.6759  -26.9392   22.5414 C   0  0  0  0  0  0
  -19.5735  -26.6387   21.5208 C   0  0  0  0  0  0
  -18.1912  -26.7933   22.1619 C   0  0  0  0  0  0
  -19.1532  -28.8841   23.2883 C   0  0  0  0  0  0
  -18.9471  -30.1447   23.8892 C   0  0  0  0  0  0
  -17.6482  -30.6591   24.0568 C   0  0  0  0  0  0
  -25.9033  -34.9475   23.5144 C   0  0  0  0  0  0
  -16.5360  -29.9098   23.6337 C   0  0  0  0  0  0
  -16.7272  -28.6529   23.0324 C   0  0  0  0  0  0
  -26.4470  -31.6594   25.0749 C   0  0  0  0  0  0
  -25.3757  -31.3702   26.1532 C   0  0  0  0  0  0
  -27.0283  -30.3031   24.6088 C   0  0  0  0  0  0
  -27.6039  -32.4319   25.7516 C   0  0  0  0  0  0
  -27.5561  -37.1800   24.8474 C   0  0  0  0  0  0
  -21.4151  -29.3031   22.3710 N   0  0  0  0  0  0
  -26.4277  -37.3793   23.9426 N   0  0  0  0  0  0
  -24.6676  -31.0814   22.0997 N   0  0  0  0  0  0
  -23.4211  -28.8176   23.2975 O   0  0  0  0  0  0
  -28.4008  -26.7074   20.1212 O   0  0  0  0  0  0
  -26.5587  -34.8916   22.4695 O   0  0  0  0  0  0
  -23.5345  -32.1446   23.7500 O   0  0  0  0  0  0
  -30.7319  -18.5136   21.5842 C   0  0  0  0  0  0
  -29.6552  -17.9940   20.6100 C   0  0  0  0  0  0
  -31.0034  -20.0257   21.4385 C   0  0  0  0  0  0
  -29.4066  -24.5121   20.7107 C   0  0  0  0  0  0
  -30.0168  -16.6828   19.9012 C   0  0  0  0  0  0
  -29.7814  -20.9247   21.6824 C   0  0  0  0  0  0
  -28.2234  -25.2859   20.1094 C   0  0  0  0  0  0
  -29.0113  -23.0456   20.9642 C   0  0  0  0  0  0
  -29.9258  -15.4922   20.7499 N   0  0  0  0  0  0
  -30.1320  -22.2704   21.3706 O   0  0  0  0  0  0
  -31.4632  -12.3096   19.1639 H   0  0  0  0  0  0
  -30.2569  -11.2465   19.8325 H   0  0  0  0  0  0
  -29.7386  -11.7892   17.4258 H   0  0  0  0  0  0
  -29.7003  -13.4918   17.8094 H   0  0  0  0  0  0
  -27.8018  -11.3248   18.7856 H   0  0  0  0  0  0
  -27.3851  -12.6875   17.7811 H   0  0  0  0  0  0
  -27.7062  -14.2549   19.5898 H   0  0  0  0  0  0
  -28.6500  -11.9577   21.3736 H   0  0  0  0  0  0
  -28.4813  -13.6184   21.8704 H   0  0  0  0  0  0
  -25.2753   -9.5692   22.4735 H   0  0  0  0  0  0
  -23.9999   -7.4632   22.7463 H   0  0  0  0  0  0
  -21.0837   -8.8743   19.8931 H   0  0  0  0  0  0
  -22.3665  -10.9660   19.6133 H   0  0  0  0  0  0
  -21.2008   -7.6140   23.9707 H   0  0  0  0  0  0
  -21.1501   -6.0515   25.9070 H   0  0  0  0  0  0
  -22.0595   -2.7603   23.2834 H   0  0  0  0  0  0
  -22.4128  -11.9871   22.4756 H   0  0  0  0  0  0
  -21.1110  -13.1232   22.2606 H   0  0  0  0  0  0
  -24.6673  -15.8451   20.5016 H   0  0  0  0  0  0
  -26.2900  -15.6219   20.0880 H   0  0  0  0  0  0
  -26.7109  -32.5531   23.1175 H   0  0  0  0  0  0
  -25.0119  -33.9798   25.0539 H   0  0  0  0  0  0
  -22.6897  -31.3106   21.4114 H   0  0  0  0  0  0
  -23.3739  -35.9650   23.3344 H   0  0  0  0  0  0
  -24.3592  -36.8894   22.2059 H   0  0  0  0  0  0
  -23.7221  -37.6511   23.6639 H   0  0  0  0  0  0
  -26.0515  -31.6062   20.6001 H   0  0  0  0  0  0
  -26.8177  -30.8830   21.9873 H   0  0  0  0  0  0
  -28.0998  -29.1069   21.1611 H   0  0  0  0  0  0
  -26.0289  -25.9978   18.9832 H   0  0  0  0  0  0
  -23.9769  -27.3159   19.0192 H   0  0  0  0  0  0
  -23.7227  -30.6182   19.4085 H   0  0  0  0  0  0
  -22.7354  -29.2609   19.8556 H   0  0  0  0  0  0
  -25.1252  -36.1990   25.0828 H   0  0  0  0  0  0
  -20.9946  -28.3220   24.1436 H   0  0  0  0  0  0
  -20.5681  -26.2237   23.3585 H   0  0  0  0  0  0
  -21.6618  -26.7438   22.1178 H   0  0  0  0  0  0
  -19.6908  -25.6309   21.1205 H   0  0  0  0  0  0
  -19.6698  -27.3224   20.6763 H   0  0  0  0  0  0
  -17.4176  -26.6674   21.4028 H   0  0  0  0  0  0
  -18.0317  -26.0080   22.9026 H   0  0  0  0  0  0
  -19.7961  -30.7252   24.2230 H   0  0  0  0  0  0
  -17.5058  -31.6269   24.5180 H   0  0  0  0  0  0
  -15.5364  -30.3013   23.7685 H   0  0  0  0  0  0
  -15.8657  -28.0889   22.6992 H   0  0  0  0  0  0
  -24.5941  -30.6998   25.7940 H   0  0  0  0  0  0
  -24.8943  -32.2854   26.4992 H   0  0  0  0  0  0
  -25.8178  -30.8923   27.0290 H   0  0  0  0  0  0
  -26.2811  -29.6823   24.1127 H   0  0  0  0  0  0
  -27.4045  -29.7229   25.4528 H   0  0  0  0  0  0
  -27.8653  -30.4357   23.9229 H   0  0  0  0  0  0
  -27.2630  -33.3614   26.2092 H   0  0  0  0  0  0
  -28.3848  -32.6897   25.0347 H   0  0  0  0  0  0
  -28.0683  -31.8447   26.5450 H   0  0  0  0  0  0
  -28.2583  -38.0088   24.7507 H   0  0  0  0  0  0
  -28.1039  -36.2618   24.6308 H   0  0  0  0  0  0
  -27.2295  -37.1463   25.8881 H   0  0  0  0  0  0
  -20.9298  -29.8808   21.6988 H   0  0  0  0  0  0
  -26.0177  -38.2869   24.1457 H   0  0  0  0  0  0
  -31.6692  -17.9843   21.4024 H   0  0  0  0  0  0
  -30.4554  -18.2754   22.6121 H   0  0  0  0  0  0
  -29.5117  -18.7293   19.8164 H   0  0  0  0  0  0
  -28.6919  -17.9136   21.1141 H   0  0  0  0  0  0
  -31.3802  -20.2189   20.4337 H   0  0  0  0  0  0
  -31.8036  -20.3182   22.1191 H   0  0  0  0  0  0
  -29.7147  -24.9702   21.6508 H   0  0  0  0  0  0
  -30.2612  -24.5631   20.0352 H   0  0  0  0  0  0
  -29.3207  -16.5281   19.0756 H   0  0  0  0  0  0
  -30.9967  -16.7906   19.4318 H   0  0  0  0  0  0
  -29.4452  -20.8561   22.7170 H   0  0  0  0  0  0
  -28.9517  -20.5882   21.0574 H   0  0  0  0  0  0
  -27.3366  -25.0196   20.6888 H   0  0  0  0  0  0
  -28.0572  -24.9469   19.0860 H   0  0  0  0  0  0
  -28.5947  -22.6169   20.0496 H   0  0  0  0  0  0
  -28.2307  -22.9964   21.7265 H   0  0  0  0  0  0
  -29.0180  -15.2913   21.1410 H   0  0  0  0  0  0
  1 25  1  0  0  0
  1 30  2  0  0  0
  1 79  1  0  0  0
  2  3  1  0  0  0
  2 25  1  0  0  0
  2 81  1  0  0  0
  2 82  1  0  0  0
  3  4  1  0  0  0
  3 83  1  0  0  0
  3 84  1  0  0  0
  4  5  1  0  0  0
  4 85  1  0  0  0
  4 86  1  0  0  0
  5  6  1  0  0  0
  5 26  1  0  0  0
  5 87  1  0  0  0
  6 25  1  0  0  0
  6 88  1  0  0  0
  6 89  1  0  0  0
  7  8  2  0  0  0
  7 26  1  0  0  0
  7 29  1  0  0  0
  8  9  1  0  0  0
  8 22  1  0  0  0
  9 10  1  0  0  0
  9 27  2  0  0  0
 10 11  2  0  0  0
 10 15  1  0  0  0
 11 12  1  0  0  0
 11 90  1  0  0  0
 12 13  2  0  0  0
 12 91  1  0  0  0
 13 14  1  0  0  0
 13 31  1  0  0  0
 14 15  2  0  0  0
 14 92  1  0  0  0
 15 93  1  0  0  0
 16 17  2  0  0  0
 16 21  1  0  0  0
 16 31  1  0  0  0
 17 18  1  0  0  0
 17 94  1  0  0  0
 18 19  2  0  0  0
 18 95  1  0  0  0
 19 20  1  0  0  0
 19 24  1  0  0  0
 20 21  2  0  0  0
 20 96  1  0  0  0
 21 23  1  0  0  0
 22 28  1  0  0  0
 22 32  2  0  0  0
 26 27  1  0  0  0
 28 97  1  0  0  0
 28 98  1  0  0  0
 29 99  1  0  0  0
 29100  1  0  0  0
 33 34  1  0  0  0
 33 66  1  0  0  0
 33 70  2  0  0  0
 34 36  1  0  0  0
 34 59  1  0  0  0
 34101  1  0  0  0
 35 44  2  0  0  0
 35 45  1  0  0  0
 35 68  1  0  0  0
 36 56  1  0  0  0
 36102  1  0  0  0
 37 39  1  0  0  0
 37 47  1  0  0  0
 37 66  1  0  0  0
 37103  1  0  0  0
 38 43  2  0  0  0
 38 46  1  0  0  0
 38 47  1  0  0  0
 39 64  1  0  0  0
 39 67  2  0  0  0
 40 52  1  0  0  0
 40 53  2  0  0  0
 40 58  1  0  0  0
 41104  1  0  0  0
 41105  1  0  0  0
 41106  1  0  0  0
 41 48  1  0  0  0
 42 43  1  0  0  0
 42 66  1  0  0  0
 42107  1  0  0  0
 42108  1  0  0  0
 43 44  1  0  0  0
 44109  1  0  0  0
 45 46  2  0  0  0
 45110  1  0  0  0
 46111  1  0  0  0
 47112  1  0  0  0
 47113  1  0  0  0
 48 56  1  0  0  0
 48 65  1  0  0  0
 48114  1  0  0  0
 49 50  1  0  0  0
 49 53  1  0  0  0
 49 64  1  0  0  0
 49115  1  0  0  0
 50 51  1  0  0  0
 50116  1  0  0  0
 50117  1  0  0  0
 51 52  1  0  0  0
 51118  1  0  0  0
 51119  1  0  0  0
 52120  1  0  0  0
 52121  1  0  0  0
 53 54  1  0  0  0
 54 55  2  0  0  0
 54122  1  0  0  0
 55 57  1  0  0  0
 55123  1  0  0  0
 56 69  2  0  0  0
 57 58  2  0  0  0
 57124  1  0  0  0
 58125  1  0  0  0
 59 60  1  0  0  0
 59 61  1  0  0  0
 59 62  1  0  0  0
 60126  1  0  0  0
 60127  1  0  0  0
 60128  1  0  0  0
 61129  1  0  0  0
 61130  1  0  0  0
 61131  1  0  0  0
 62132  1  0  0  0
 62133  1  0  0  0
 62134  1  0  0  0
 63 65  1  0  0  0
 63135  1  0  0  0
 63136  1  0  0  0
 63137  1  0  0  0
 64138  1  0  0  0
 65139  1  0  0  0
 68 77  1  0  0  0
 71 72  1  0  0  0
 71 73  1  0  0  0
 71140  1  0  0  0
 71141  1  0  0  0
 72 75  1  0  0  0
 72142  1  0  0  0
 72143  1  0  0  0
 73 76  1  0  0  0
 73144  1  0  0  0
 73145  1  0  0  0
 74 77  1  0  0  0
 74 78  1  0  0  0
 74146  1  0  0  0
 74147  1  0  0  0
 75 79  1  0  0  0
 75148  1  0  0  0
 75149  1  0  0  0
 76 80  1  0  0  0
 76150  1  0  0  0
 76151  1  0  0  0
 77152  1  0  0  0
 77153  1  0  0  0
 78 80  1  0  0  0
 78154  1  0  0  0
 78155  1  0  0  0
 79156  1  0  0  0
M  ISO  4   1 100  68 101  77 101  79 100
M  END
> <chiral flag>
0

> <version>
0

> <s_m_source_file>
/data/baiqing/PycharmProjects/Reinvent-master-3.2/result/LINK_invent/BTK/process_docking_weight1_custom_sum_contain_oxygen_bond_distance_aromatic_linkinvent_7_9_3/rearranged_h_0007.sdf

> <i_m_source_file_index>
83

> <r_mmod_Potential_Energy-OPLS-2005>
-47.5248794555664

> <r_mmod_Stretch_Energy-OPLS-2005>
31.72239112854

> <r_mmod_Bend_Energy-OPLS-2005>
88.9659576416016

> <r_mmod_Torsional_Energy-OPLS-2005>
242.199661254883

> <r_mmod_Improper_Torsional_Energy-OPLS-2005>
10.7250375747681

> <r_mmod_Van_der_Waal_Energy-OPLS-2005>
143.470642089844

> <r_mmod_Electrostatic_Energy-OPLS-2005>
-366.091705322266

> <r_mmod_Solvation_Energy-OPLS-2005>
-212.314819335938

> <b_mmod_Minimization_Converged-OPLS-2005>
0

> <r_mmod_RMS_Derivative-OPLS-2005>
2.60622477531433

$$$$
83
                    3D
 Structure written by MMmdl.
154162  0  0  1  0            999 V2000
  -30.5655  -14.9342   20.4972 C   0  0  0  0  0  0
  -30.4366  -12.5886   19.5102 C   0  0  0  0  0  0
  -29.5229  -12.5591   18.2617 C   0  0  0  0  0  0
  -28.0534  -12.3406   18.6669 C   0  0  0  0  0  0
  -27.6331  -13.2516   19.8489 C   0  0  2  0  0  0
  -28.6707  -13.2373   20.9880 C   0  0  0  0  0  0
  -25.2443  -13.8220   20.5712 C   0  0  0  0  0  0
  -24.1754  -13.0429   20.9175 C   0  0  0  0  0  0
  -24.6398  -11.6923   20.8722 C   0  0  0  0  0  0
  -23.9091  -10.4287   21.0385 C   0  0  0  0  0  0
  -24.3635   -9.4200   21.9165 C   0  0  0  0  0  0
  -23.6303   -8.2242   22.0743 C   0  0  0  0  0  0
  -22.4282   -8.0281   21.3538 C   0  0  0  0  0  0
  -21.9924   -9.0261   20.4642 C   0  0  0  0  0  0
  -22.7263  -10.2133   20.3042 C   0  0  0  0  0  0
  -21.6856   -6.0738   22.5281 C   0  0  0  0  0  0
  -21.4019   -6.5640   23.8216 C   0  0  0  0  0  0
  -21.3666   -5.6792   24.9180 C   0  0  0  0  0  0
  -21.6043   -4.3053   24.7229 C   0  0  0  0  0  0
  -21.8819   -3.8146   23.4351 C   0  0  0  0  0  0
  -21.9195   -4.6964   22.3406 C   0  0  0  0  0  0
  -22.7773  -13.5181   21.1867 C   0  0  0  0  0  0
  -22.1660   -4.2145   21.0987 F   0  0  0  0  0  0
  -21.5634   -3.4541   25.7747 F   0  0  0  0  0  0
  -29.9579  -13.6728   20.4225 N   0  0  0  0  0  0
  -26.2894  -12.9469   20.3292 N   0  0  0  0  0  0
  -25.9339  -11.6585   20.5745 N   0  0  0  0  0  0
  -22.0466  -12.8156   22.0455 N   0  0  0  0  0  0
  -25.4117  -15.1950   20.4220 N   0  0  0  0  0  0
  -31.7077  -15.0240   20.0309 O   0  0  0  0  0  0
  -21.6641   -6.8883   21.4239 O   0  0  0  0  0  0
  -22.3425  -14.5478   20.6726 O   0  0  0  0  0  0
  -24.6447  -31.8434   23.1891 C   0  0  0  0  0  0
  -25.9219  -32.4693   23.8279 C   0  0  1  0  0  0
  -27.2158  -27.1294   20.1448 C   0  0  0  0  0  0
  -25.5970  -33.8504   24.2196 N   0  0  0  0  0  0
  -23.4488  -30.4635   21.5345 C   0  0  2  0  0  0
  -24.8985  -28.8935   20.1075 C   0  0  0  0  0  0
  -22.7575  -29.4542   22.4857 C   0  0  0  0  0  0
  -18.0304  -28.1396   22.8471 C   0  0  0  0  0  0
  -24.1490  -36.7246   23.2639 C   0  0  0  0  0  0
  -26.0063  -30.7128   21.3922 C   0  0  0  0  0  0
  -26.0758  -29.3245   20.7314 C   0  0  0  0  0  0
  -27.2343  -28.4573   20.7371 C   0  0  0  0  0  0
  -26.0146  -26.8104   19.4703 C   0  0  0  0  0  0
  -24.8814  -27.6495   19.4627 C   0  0  0  0  0  0
  -23.6757  -29.7963   20.1527 C   0  0  0  0  0  0
  -25.4122  -36.3033   24.0314 C   0  0  1  0  0  0
  -20.5917  -28.3726   23.1233 C   0  0  2  0  0  0
  -20.6792  -26.9426   22.5411 C   0  0  0  0  0  0
  -19.5768  -26.6380   21.5215 C   0  0  0  0  0  0
  -18.1943  -26.7937   22.1615 C   0  0  0  0  0  0
  -19.1561  -28.8879   23.2843 C   0  0  0  0  0  0
  -18.9479  -30.1475   23.8870 C   0  0  0  0  0  0
  -17.6475  -30.6595   24.0558 C   0  0  0  0  0  0
  -25.9070  -34.9410   23.5061 C   0  0  0  0  0  0
  -16.5368  -29.9083   23.6338 C   0  0  0  0  0  0
  -16.7290  -28.6504   23.0358 C   0  0  0  0  0  0
  -26.4531  -31.6564   25.0729 C   0  0  0  0  0  0
  -25.3704  -31.3777   26.1418 C   0  0  0  0  0  0
  -27.0388  -30.2948   24.6336 C   0  0  0  0  0  0
  -27.6067  -32.4327   25.7507 C   0  0  0  0  0  0
  -27.5581  -37.1776   24.8459 C   0  0  0  0  0  0
  -21.4270  -29.3042   22.3601 N   0  0  0  0  0  0
  -26.4286  -37.3746   23.9411 N   0  0  0  0  0  0
  -24.7195  -31.0282   22.0931 N   0  0  0  0  0  0
  -23.4217  -28.8089   23.3012 O   0  0  0  0  0  0
  -28.2512  -26.1225   20.2308 O   0  0  0  0  0  0
  -26.5652  -34.8911   22.4636 O   0  0  0  0  0  0
  -23.5566  -32.1319   23.7104 O   0  0  0  0  0  0
  -28.5078  -19.4423   19.4969 C   0  0  0  0  0  0
  -30.0408  -20.0805   21.1605 C   0  0  0  0  0  0
  -28.8404  -18.0364   19.6907 C   0  0  0  0  0  0
  -30.3682  -18.6712   21.3595 C   0  0  0  0  0  0
  -29.0618  -20.5574   20.2272 C   0  0  0  0  0  0
  -29.7813  -17.5479   20.6571 C   0  0  0  0  0  0
  -28.8525  -23.3245   20.4039 C   0  0  0  0  0  0
  -27.9398  -24.6249   19.9142 C   0  0  0  0  0  0
  -29.8968  -15.9230   22.5684 C   0  0  0  0  0  0
  -28.6312  -16.5218   23.2148 C   0  0  0  0  0  0
  -28.5662  -21.9960   19.9859 N   0  0  0  0  0  0
  -29.9324  -16.0708   21.0953 N   0  0  0  0  0  0
  -29.8022  -23.5377   21.1621 O   0  0  0  0  0  0
  -27.5305  -16.0233   22.6530 F   0  0  0  0  0  0
  -31.4744  -12.7345   19.2069 H   0  0  0  0  0  0
  -30.4167  -11.6244   20.0219 H   0  0  0  0  0  0
  -29.8449  -11.7779   17.5717 H   0  0  0  0  0  0
  -29.6161  -13.5034   17.7226 H   0  0  0  0  0  0
  -27.9385  -11.2932   18.9481 H   0  0  0  0  0  0
  -27.3948  -12.5010   17.8123 H   0  0  0  0  0  0
  -27.6081  -14.2668   19.4512 H   0  0  0  0  0  0
  -28.7540  -12.2433   21.4299 H   0  0  0  0  0  0
  -28.3340  -13.8909   21.7880 H   0  0  0  0  0  0
  -25.2785   -9.5671   22.4731 H   0  0  0  0  0  0
  -24.0008   -7.4637   22.7463 H   0  0  0  0  0  0
  -21.0851   -8.8797   19.8953 H   0  0  0  0  0  0
  -22.3725  -10.9674   19.6156 H   0  0  0  0  0  0
  -21.2004   -7.6146   23.9719 H   0  0  0  0  0  0
  -21.1493   -6.0522   25.9085 H   0  0  0  0  0  0
  -22.0588   -2.7607   23.2858 H   0  0  0  0  0  0
  -22.4131  -11.9817   22.4808 H   0  0  0  0  0  0
  -21.1091  -13.1163   22.2720 H   0  0  0  0  0  0
  -24.6670  -15.8498   20.6312 H   0  0  0  0  0  0
  -26.3216  -15.6355   20.3687 H   0  0  0  0  0  0
  -26.7286  -32.5293   23.1009 H   0  0  0  0  0  0
  -25.0124  -33.9620   25.0349 H   0  0  0  0  0  0
  -22.7518  -31.2903   21.3825 H   0  0  0  0  0  0
  -23.3772  -35.9557   23.3278 H   0  0  0  0  0  0
  -24.3576  -36.8903   22.2059 H   0  0  0  0  0  0
  -23.7230  -37.6427   23.6690 H   0  0  0  0  0  0
  -26.1686  -31.4685   20.6222 H   0  0  0  0  0  0
  -26.8738  -30.7582   22.0393 H   0  0  0  0  0  0
  -28.1279  -28.7795   21.2535 H   0  0  0  0  0  0
  -25.9089  -25.8677   18.9554 H   0  0  0  0  0  0
  -23.9850  -27.3181   18.9572 H   0  0  0  0  0  0
  -23.8121  -30.5733   19.3995 H   0  0  0  0  0  0
  -22.7902  -29.2398   19.8411 H   0  0  0  0  0  0
  -25.1311  -36.1853   25.0805 H   0  0  0  0  0  0
  -21.0006  -28.3321   24.1357 H   0  0  0  0  0  0
  -20.5677  -26.2342   23.3633 H   0  0  0  0  0  0
  -21.6660  -26.7419   22.1220 H   0  0  0  0  0  0
  -19.6930  -25.6283   21.1268 H   0  0  0  0  0  0
  -19.6720  -27.3172   20.6730 H   0  0  0  0  0  0
  -17.4221  -26.6697   21.4008 H   0  0  0  0  0  0
  -18.0323  -26.0080   22.9007 H   0  0  0  0  0  0
  -19.7952  -30.7297   24.2233 H   0  0  0  0  0  0
  -17.5026  -31.6269   24.5164 H   0  0  0  0  0  0
  -15.5365  -30.2974   23.7679 H   0  0  0  0  0  0
  -15.8693  -28.0812   22.7087 H   0  0  0  0  0  0
  -24.5951  -30.7029   25.7770 H   0  0  0  0  0  0
  -24.8804  -32.2956   26.4673 H   0  0  0  0  0  0
  -25.7985  -30.9111   27.0299 H   0  0  0  0  0  0
  -26.3009  -29.6679   24.1319 H   0  0  0  0  0  0
  -27.3949  -29.7248   25.4926 H   0  0  0  0  0  0
  -27.8945  -30.4161   23.9695 H   0  0  0  0  0  0
  -27.2679  -33.3671   26.1993 H   0  0  0  0  0  0
  -28.3924  -32.6807   25.0359 H   0  0  0  0  0  0
  -28.0681  -31.8507   26.5497 H   0  0  0  0  0  0
  -28.2572  -38.0096   24.7523 H   0  0  0  0  0  0
  -28.1106  -36.2627   24.6258 H   0  0  0  0  0  0
  -27.2308  -37.1388   25.8865 H   0  0  0  0  0  0
  -20.9484  -29.8754   21.6774 H   0  0  0  0  0  0
  -26.0153  -38.2811   24.1434 H   0  0  0  0  0  0
  -27.7520  -19.6590   18.7556 H   0  0  0  0  0  0
  -30.5437  -20.8073   21.7829 H   0  0  0  0  0  0
  -28.2906  -17.3100   19.1094 H   0  0  0  0  0  0
  -31.0850  -18.4587   22.1387 H   0  0  0  0  0  0
  -26.9471  -24.4104   20.3093 H   0  0  0  0  0  0
  -27.8548  -24.5431   18.8302 H   0  0  0  0  0  0
  -29.9736  -14.8830   22.8921 H   0  0  0  0  0  0
  -30.7812  -16.3964   22.9953 H   0  0  0  0  0  0
  -28.5806  -17.6074   23.1283 H   0  0  0  0  0  0
  -28.5886  -16.2843   24.2785 H   0  0  0  0  0  0
  -27.7895  -22.0170   19.3383 H   0  0  0  0  0  0
  1 25  1  0  0  0
  1 30  2  0  0  0
  1 82  1  0  0  0
  2  3  1  0  0  0
  2 25  1  0  0  0
  2 85  1  0  0  0
  2 86  1  0  0  0
  3  4  1  0  0  0
  3 87  1  0  0  0
  3 88  1  0  0  0
  4  5  1  0  0  0
  4 89  1  0  0  0
  4 90  1  0  0  0
  5  6  1  0  0  0
  5 26  1  0  0  0
  5 91  1  0  0  0
  6 25  1  0  0  0
  6 92  1  0  0  0
  6 93  1  0  0  0
  7  8  2  0  0  0
  7 26  1  0  0  0
  7 29  1  0  0  0
  8  9  1  0  0  0
  8 22  1  0  0  0
  9 10  1  0  0  0
  9 27  2  0  0  0
 10 11  2  0  0  0
 10 15  1  0  0  0
 11 12  1  0  0  0
 11 94  1  0  0  0
 12 13  2  0  0  0
 12 95  1  0  0  0
 13 14  1  0  0  0
 13 31  1  0  0  0
 14 15  2  0  0  0
 14 96  1  0  0  0
 15 97  1  0  0  0
 16 17  2  0  0  0
 16 21  1  0  0  0
 16 31  1  0  0  0
 17 18  1  0  0  0
 17 98  1  0  0  0
 18 19  2  0  0  0
 18 99  1  0  0  0
 19 20  1  0  0  0
 19 24  1  0  0  0
 20 21  2  0  0  0
 20100  1  0  0  0
 21 23  1  0  0  0
 22 28  1  0  0  0
 22 32  2  0  0  0
 26 27  1  0  0  0
 28101  1  0  0  0
 28102  1  0  0  0
 29103  1  0  0  0
 29104  1  0  0  0
 33 34  1  0  0  0
 33 66  1  0  0  0
 33 70  2  0  0  0
 34 36  1  0  0  0
 34 59  1  0  0  0
 34105  1  0  0  0
 35 44  2  0  0  0
 35 45  1  0  0  0
 35 68  1  0  0  0
 36 56  1  0  0  0
 36106  1  0  0  0
 37 39  1  0  0  0
 37 47  1  0  0  0
 37 66  1  0  0  0
 37107  1  0  0  0
 38 43  2  0  0  0
 38 46  1  0  0  0
 38 47  1  0  0  0
 39 64  1  0  0  0
 39 67  2  0  0  0
 40 52  1  0  0  0
 40 53  2  0  0  0
 40 58  1  0  0  0
 41108  1  0  0  0
 41109  1  0  0  0
 41110  1  0  0  0
 41 48  1  0  0  0
 42 43  1  0  0  0
 42 66  1  0  0  0
 42111  1  0  0  0
 42112  1  0  0  0
 43 44  1  0  0  0
 44113  1  0  0  0
 45 46  2  0  0  0
 45114  1  0  0  0
 46115  1  0  0  0
 47116  1  0  0  0
 47117  1  0  0  0
 48 56  1  0  0  0
 48 65  1  0  0  0
 48118  1  0  0  0
 49 50  1  0  0  0
 49 53  1  0  0  0
 49 64  1  0  0  0
 49119  1  0  0  0
 50 51  1  0  0  0
 50120  1  0  0  0
 50121  1  0  0  0
 51 52  1  0  0  0
 51122  1  0  0  0
 51123  1  0  0  0
 52124  1  0  0  0
 52125  1  0  0  0
 53 54  1  0  0  0
 54 55  2  0  0  0
 54126  1  0  0  0
 55 57  1  0  0  0
 55127  1  0  0  0
 56 69  2  0  0  0
 57 58  2  0  0  0
 57128  1  0  0  0
 58129  1  0  0  0
 59 60  1  0  0  0
 59 61  1  0  0  0
 59 62  1  0  0  0
 60130  1  0  0  0
 60131  1  0  0  0
 60132  1  0  0  0
 61133  1  0  0  0
 61134  1  0  0  0
 61135  1  0  0  0
 62136  1  0  0  0
 62137  1  0  0  0
 62138  1  0  0  0
 63 65  1  0  0  0
 63139  1  0  0  0
 63140  1  0  0  0
 63141  1  0  0  0
 64142  1  0  0  0
 65143  1  0  0  0
 68 78  1  0  0  0
 71 73  2  0  0  0
 71 75  1  0  0  0
 71144  1  0  0  0
 72 74  1  0  0  0
 72 75  2  0  0  0
 72145  1  0  0  0
 73 76  1  0  0  0
 73146  1  0  0  0
 74 76  2  0  0  0
 74147  1  0  0  0
 75 81  1  0  0  0
 76 82  1  0  0  0
 77 78  1  0  0  0
 77 81  1  0  0  0
 77 83  2  0  0  0
 78148  1  0  0  0
 78149  1  0  0  0
 79 80  1  0  0  0
 79 82  1  0  0  0
 79150  1  0  0  0
 79151  1  0  0  0
 80 84  1  0  0  0
 80152  1  0  0  0
 80153  1  0  0  0
 81154  1  0  0  0
M  ISO  4   1 100  68 101  78 101  82 100
M  END
> <chiral flag>
0

> <version>
0

> <s_m_source_file>
/data/baiqing/PycharmProjects/Reinvent-master-3.2/result/LINK_invent/BTK/process_docking_weight1_custom_sum_contain_oxygen_bond_distance_aromatic_linkinvent_7_9_3/rearranged_h_0007.sdf

> <i_m_source_file_index>
84

> <r_mmod_Potential_Energy-OPLS-2005>
611.035217285156

> <r_mmod_Stretch_Energy-OPLS-2005>
245.655944824219

> <r_mmod_Bend_Energy-OPLS-2005>
267.985870361328

> <r_mmod_Torsional_Energy-OPLS-2005>
311.345092773438

> <r_mmod_Improper_Torsional_Energy-OPLS-2005>
6.09300708770752

> <r_mmod_Van_der_Waal_Energy-OPLS-2005>
137.018844604492

> <r_mmod_Electrostatic_Energy-OPLS-2005>
-312.825286865234

> <r_mmod_Solvation_Energy-OPLS-2005>
-232.917175292969

> <b_mmod_Minimization_Converged-OPLS-2005>
0

> <r_mmod_RMS_Derivative-OPLS-2005>
1.12337017059326

$$$$
84
                    3D
 Structure written by MMmdl.
158166  0  0  1  0            999 V2000
  -30.6583  -14.6877   20.5788 C   0  0  0  0  0  0
  -30.4281  -12.4414   19.4831 C   0  0  0  0  0  0
  -29.5058  -12.5158   18.2487 C   0  0  0  0  0  0
  -28.0337  -12.3375   18.6583 C   0  0  0  0  0  0
  -27.6468  -13.2295   19.8640 C   0  0  2  0  0  0
  -28.6796  -13.1284   21.0013 C   0  0  0  0  0  0
  -25.2527  -13.8214   20.5762 C   0  0  0  0  0  0
  -24.1806  -13.0467   20.9197 C   0  0  0  0  0  0
  -24.6399  -11.6935   20.8749 C   0  0  0  0  0  0
  -23.9088  -10.4331   21.0428 C   0  0  0  0  0  0
  -24.3627   -9.4227   21.9196 C   0  0  0  0  0  0
  -23.6299   -8.2261   22.0766 C   0  0  0  0  0  0
  -22.4286   -8.0305   21.3548 C   0  0  0  0  0  0
  -21.9925   -9.0286   20.4650 C   0  0  0  0  0  0
  -22.7265  -10.2152   20.3073 C   0  0  0  0  0  0
  -21.6848   -6.0731   22.5279 C   0  0  0  0  0  0
  -21.4011   -6.5643   23.8205 C   0  0  0  0  0  0
  -21.3670   -5.6787   24.9174 C   0  0  0  0  0  0
  -21.6038   -4.3052   24.7216 C   0  0  0  0  0  0
  -21.8816   -3.8150   23.4343 C   0  0  0  0  0  0
  -21.9191   -4.6968   22.3396 C   0  0  0  0  0  0
  -22.7828  -13.5245   21.1847 C   0  0  0  0  0  0
  -22.1661   -4.2154   21.0969 F   0  0  0  0  0  0
  -21.5638   -3.4538   25.7732 F   0  0  0  0  0  0
  -29.9985  -13.4815   20.4507 N   0  0  0  0  0  0
  -26.2949  -12.9416   20.3320 N   0  0  0  0  0  0
  -25.9330  -11.6554   20.5780 N   0  0  0  0  0  0
  -22.0472  -12.8226   22.0385 N   0  0  0  0  0  0
  -25.4259  -15.1949   20.4363 N   0  0  0  0  0  0
  -31.7624  -14.8422   20.0436 O   0  0  0  0  0  0
  -21.6649   -6.8892   21.4248 O   0  0  0  0  0  0
  -22.3508  -14.5557   20.6709 O   0  0  0  0  0  0
  -24.6224  -31.8629   23.1996 C   0  0  0  0  0  0
  -25.9087  -32.4792   23.8330 C   0  0  1  0  0  0
  -27.2259  -27.3286   20.1265 C   0  0  0  0  0  0
  -25.5925  -33.8593   24.2281 N   0  0  0  0  0  0
  -23.4189  -30.4823   21.5445 C   0  0  2  0  0  0
  -24.8667  -28.9343   20.1152 C   0  0  0  0  0  0
  -22.7476  -29.4610   22.4932 C   0  0  0  0  0  0
  -18.0305  -28.1379   22.8485 C   0  0  0  0  0  0
  -24.1487  -36.7266   23.2628 C   0  0  0  0  0  0
  -25.9589  -30.7949   21.3700 C   0  0  0  0  0  0
  -26.0342  -29.4219   20.7132 C   0  0  0  0  0  0
  -27.2235  -28.6364   20.6986 C   0  0  0  0  0  0
  -26.0368  -26.8760   19.5202 C   0  0  0  0  0  0
  -24.8690  -27.6656   19.5098 C   0  0  0  0  0  0
  -23.6346  -29.8151   20.1610 C   0  0  0  0  0  0
  -25.4123  -36.3102   24.0328 C   0  0  1  0  0  0
  -20.5910  -28.3664   23.1278 C   0  0  2  0  0  0
  -20.6808  -26.9385   22.5405 C   0  0  0  0  0  0
  -19.5779  -26.6373   21.5203 C   0  0  0  0  0  0
  -18.1954  -26.7933   22.1599 C   0  0  0  0  0  0
  -19.1555  -28.8834   23.2883 C   0  0  0  0  0  0
  -18.9474  -30.1450   23.8870 C   0  0  0  0  0  0
  -17.6476  -30.6573   24.0573 C   0  0  0  0  0  0
  -25.9058  -34.9457   23.5097 C   0  0  0  0  0  0
  -16.5367  -29.9069   23.6343 C   0  0  0  0  0  0
  -16.7297  -28.6506   23.0325 C   0  0  0  0  0  0
  -26.4483  -31.6621   25.0695 C   0  0  0  0  0  0
  -25.3695  -31.3770   26.1414 C   0  0  0  0  0  0
  -27.0338  -30.3030   24.6164 C   0  0  0  0  0  0
  -27.6038  -32.4385   25.7418 C   0  0  0  0  0  0
  -27.5605  -37.1778   24.8468 C   0  0  0  0  0  0
  -21.4206  -29.3013   22.3652 N   0  0  0  0  0  0
  -26.4316  -37.3793   23.9421 N   0  0  0  0  0  0
  -24.6851  -31.0640   22.0942 N   0  0  0  0  0  0
  -23.4206  -28.8163   23.3022 O   0  0  0  0  0  0
  -28.3497  -26.4999   20.1214 O   0  0  0  0  0  0
  -26.5589  -34.8918   22.4649 O   0  0  0  0  0  0
  -23.5394  -32.1423   23.7335 O   0  0  0  0  0  0
  -30.0125  -18.2328   21.7931 C   0  0  0  0  0  0
  -29.6953  -19.5921   21.4736 C   0  0  0  0  0  0
  -29.3526  -17.5165   19.6120 C   0  0  0  0  0  0
  -29.8531  -17.1331   20.8876 C   0  0  0  0  0  0
  -29.1637  -19.9584   20.2105 C   0  0  0  0  0  0
  -28.9754  -18.8657   19.3031 C   0  0  0  0  0  0
  -30.1340  -15.5059   22.7659 C   0  0  0  0  0  0
  -27.0032  -19.5351   18.2318 C   0  0  0  0  0  0
  -28.5369  -23.8525   19.8965 C   0  0  0  0  0  0
  -28.2264  -25.1650   20.7458 C   0  0  0  0  0  0
  -28.6727  -22.4500   20.6592 C   0  0  0  0  0  0
  -30.0807  -15.7200   21.3099 N   0  0  0  0  0  0
  -28.3490  -19.0761   18.1006 O   0  0  0  0  0  0
  -28.8517  -21.2781   19.7873 O   0  0  0  0  0  0
  -31.4700  -12.5602   19.1782 H   0  0  0  0  0  0
  -30.3683  -11.4569   19.9456 H   0  0  0  0  0  0
  -29.7813  -11.7477   17.5253 H   0  0  0  0  0  0
  -29.6396  -13.4760   17.7504 H   0  0  0  0  0  0
  -27.8884  -11.2868   18.9128 H   0  0  0  0  0  0
  -27.3760  -12.5388   17.8112 H   0  0  0  0  0  0
  -27.6581  -14.2607   19.5083 H   0  0  0  0  0  0
  -28.7000  -12.1254   21.4303 H   0  0  0  0  0  0
  -28.3704  -13.7902   21.8080 H   0  0  0  0  0  0
  -25.2772   -9.5691   22.4764 H   0  0  0  0  0  0
  -23.9996   -7.4651   22.7488 H   0  0  0  0  0  0
  -21.0855   -8.8818   19.8961 H   0  0  0  0  0  0
  -22.3739  -10.9691   19.6179 H   0  0  0  0  0  0
  -21.2005   -7.6149   23.9714 H   0  0  0  0  0  0
  -21.1488   -6.0516   25.9055 H   0  0  0  0  0  0
  -22.0582   -2.7613   23.2842 H   0  0  0  0  0  0
  -22.4073  -11.9857   22.4752 H   0  0  0  0  0  0
  -21.1095  -13.1257   22.2631 H   0  0  0  0  0  0
  -24.6764  -15.8543   20.6234 H   0  0  0  0  0  0
  -26.3034  -15.6450   20.2104 H   0  0  0  0  0  0
  -26.7149  -32.5437   23.1073 H   0  0  0  0  0  0
  -25.0072  -33.9769   25.0428 H   0  0  0  0  0  0
  -22.7136  -31.3033   21.4050 H   0  0  0  0  0  0
  -23.3773  -35.9566   23.3280 H   0  0  0  0  0  0
  -24.3562  -36.8899   22.2044 H   0  0  0  0  0  0
  -23.7251  -37.6452   23.6675 H   0  0  0  0  0  0
  -26.0953  -31.5587   20.6035 H   0  0  0  0  0  0
  -26.8375  -30.8312   22.0053 H   0  0  0  0  0  0
  -28.1332  -29.0164   21.1442 H   0  0  0  0  0  0
  -26.0102  -25.8993   19.0578 H   0  0  0  0  0  0
  -23.9708  -27.2883   19.0422 H   0  0  0  0  0  0
  -23.7534  -30.5909   19.4036 H   0  0  0  0  0  0
  -22.7573  -29.2395   19.8595 H   0  0  0  0  0  0
  -25.1326  -36.1968   25.0831 H   0  0  0  0  0  0
  -20.9974  -28.3239   24.1414 H   0  0  0  0  0  0
  -20.5739  -26.2240   23.3584 H   0  0  0  0  0  0
  -21.6674  -26.7449   22.1165 H   0  0  0  0  0  0
  -19.6918  -25.6272   21.1241 H   0  0  0  0  0  0
  -19.6754  -27.3156   20.6699 H   0  0  0  0  0  0
  -17.4250  -26.6673   21.3986 H   0  0  0  0  0  0
  -18.0346  -26.0083   22.8981 H   0  0  0  0  0  0
  -19.7948  -30.7291   24.2206 H   0  0  0  0  0  0
  -17.5042  -31.6270   24.5142 H   0  0  0  0  0  0
  -15.5374  -30.2975   23.7697 H   0  0  0  0  0  0
  -15.8696  -28.0871   22.6986 H   0  0  0  0  0  0
  -24.5874  -30.7143   25.7729 H   0  0  0  0  0  0
  -24.8844  -32.2924   26.4806 H   0  0  0  0  0  0
  -25.7980  -30.8969   27.0225 H   0  0  0  0  0  0
  -26.2905  -29.6766   24.1216 H   0  0  0  0  0  0
  -27.4058  -29.7339   25.4702 H   0  0  0  0  0  0
  -27.8781  -30.4293   23.9388 H   0  0  0  0  0  0
  -27.2656  -33.3723   26.1931 H   0  0  0  0  0  0
  -28.3829  -32.6917   25.0219 H   0  0  0  0  0  0
  -28.0728  -31.8570   26.5375 H   0  0  0  0  0  0
  -28.2616  -38.0083   24.7554 H   0  0  0  0  0  0
  -28.1135  -36.2614   24.6286 H   0  0  0  0  0  0
  -27.2306  -37.1421   25.8866 H   0  0  0  0  0  0
  -20.9394  -29.8699   21.6828 H   0  0  0  0  0  0
  -26.0198  -38.2872   24.1438 H   0  0  0  0  0  0
  -30.3914  -18.0591   22.7882 H   0  0  0  0  0  0
  -29.8615  -20.3467   22.2292 H   0  0  0  0  0  0
  -29.1791  -16.7556   18.8668 H   0  0  0  0  0  0
  -29.2951  -16.0036   23.2578 H   0  0  0  0  0  0
  -31.0639  -15.9038   23.1775 H   0  0  0  0  0  0
  -30.0973  -14.4557   23.0585 H   0  0  0  0  0  0
  -26.9493  -20.6234   18.2081 H   0  0  0  0  0  0
  -26.5378  -19.1879   19.1568 H   0  0  0  0  0  0
  -26.3971  -19.1614   17.4076 H   0  0  0  0  0  0
  -29.4603  -24.0234   19.3426 H   0  0  0  0  0  0
  -27.7550  -23.7580   19.1419 H   0  0  0  0  0  0
  -28.9215  -25.1816   21.5849 H   0  0  0  0  0  0
  -27.2473  -25.0662   21.2179 H   0  0  0  0  0  0
  -27.7656  -22.2910   21.2414 H   0  0  0  0  0  0
  -29.4852  -22.5272   21.3804 H   0  0  0  0  0  0
  1 25  1  0  0  0
  1 30  2  0  0  0
  1 82  1  0  0  0
  2  3  1  0  0  0
  2 25  1  0  0  0
  2 85  1  0  0  0
  2 86  1  0  0  0
  3  4  1  0  0  0
  3 87  1  0  0  0
  3 88  1  0  0  0
  4  5  1  0  0  0
  4 89  1  0  0  0
  4 90  1  0  0  0
  5  6  1  0  0  0
  5 26  1  0  0  0
  5 91  1  0  0  0
  6 25  1  0  0  0
  6 92  1  0  0  0
  6 93  1  0  0  0
  7  8  2  0  0  0
  7 26  1  0  0  0
  7 29  1  0  0  0
  8  9  1  0  0  0
  8 22  1  0  0  0
  9 10  1  0  0  0
  9 27  2  0  0  0
 10 11  2  0  0  0
 10 15  1  0  0  0
 11 12  1  0  0  0
 11 94  1  0  0  0
 12 13  2  0  0  0
 12 95  1  0  0  0
 13 14  1  0  0  0
 13 31  1  0  0  0
 14 15  2  0  0  0
 14 96  1  0  0  0
 15 97  1  0  0  0
 16 17  2  0  0  0
 16 21  1  0  0  0
 16 31  1  0  0  0
 17 18  1  0  0  0
 17 98  1  0  0  0
 18 19  2  0  0  0
 18 99  1  0  0  0
 19 20  1  0  0  0
 19 24  1  0  0  0
 20 21  2  0  0  0
 20100  1  0  0  0
 21 23  1  0  0  0
 22 28  1  0  0  0
 22 32  2  0  0  0
 26 27  1  0  0  0
 28101  1  0  0  0
 28102  1  0  0  0
 29103  1  0  0  0
 29104  1  0  0  0
 33 34  1  0  0  0
 33 66  1  0  0  0
 33 70  2  0  0  0
 34 36  1  0  0  0
 34 59  1  0  0  0
 34105  1  0  0  0
 35 44  2  0  0  0
 35 45  1  0  0  0
 35 68  1  0  0  0
 36 56  1  0  0  0
 36106  1  0  0  0
 37 39  1  0  0  0
 37 47  1  0  0  0
 37 66  1  0  0  0
 37107  1  0  0  0
 38 43  2  0  0  0
 38 46  1  0  0  0
 38 47  1  0  0  0
 39 64  1  0  0  0
 39 67  2  0  0  0
 40 52  1  0  0  0
 40 53  2  0  0  0
 40 58  1  0  0  0
 41108  1  0  0  0
 41109  1  0  0  0
 41110  1  0  0  0
 41 48  1  0  0  0
 42 43  1  0  0  0
 42 66  1  0  0  0
 42111  1  0  0  0
 42112  1  0  0  0
 43 44  1  0  0  0
 44113  1  0  0  0
 45 46  2  0  0  0
 45114  1  0  0  0
 46115  1  0  0  0
 47116  1  0  0  0
 47117  1  0  0  0
 48 56  1  0  0  0
 48 65  1  0  0  0
 48118  1  0  0  0
 49 50  1  0  0  0
 49 53  1  0  0  0
 49 64  1  0  0  0
 49119  1  0  0  0
 50 51  1  0  0  0
 50120  1  0  0  0
 50121  1  0  0  0
 51 52  1  0  0  0
 51122  1  0  0  0
 51123  1  0  0  0
 52124  1  0  0  0
 52125  1  0  0  0
 53 54  1  0  0  0
 54 55  2  0  0  0
 54126  1  0  0  0
 55 57  1  0  0  0
 55127  1  0  0  0
 56 69  2  0  0  0
 57 58  2  0  0  0
 57128  1  0  0  0
 58129  1  0  0  0
 59 60  1  0  0  0
 59 61  1  0  0  0
 59 62  1  0  0  0
 60130  1  0  0  0
 60131  1  0  0  0
 60132  1  0  0  0
 61133  1  0  0  0
 61134  1  0  0  0
 61135  1  0  0  0
 62136  1  0  0  0
 62137  1  0  0  0
 62138  1  0  0  0
 63 65  1  0  0  0
 63139  1  0  0  0
 63140  1  0  0  0
 63141  1  0  0  0
 64142  1  0  0  0
 65143  1  0  0  0
 68 80  1  0  0  0
 71 72  2  0  0  0
 71 74  1  0  0  0
 71144  1  0  0  0
 72 75  1  0  0  0
 72145  1  0  0  0
 73 74  2  0  0  0
 73 76  1  0  0  0
 73146  1  0  0  0
 74 82  1  0  0  0
 75 76  2  0  0  0
 75 84  1  0  0  0
 76 83  1  0  0  0
 77 82  1  0  0  0
 77147  1  0  0  0
 77148  1  0  0  0
 77149  1  0  0  0
 78 83  1  0  0  0
 78150  1  0  0  0
 78151  1  0  0  0
 78152  1  0  0  0
 79 80  1  0  0  0
 79 81  1  0  0  0
 79153  1  0  0  0
 79154  1  0  0  0
 80155  1  0  0  0
 80156  1  0  0  0
 81 84  1  0  0  0
 81157  1  0  0  0
 81158  1  0  0  0
M  ISO  4   1 100  68 101  80 101  82 100
M  END
> <chiral flag>
0

> <version>
0

> <s_m_source_file>
/data/baiqing/PycharmProjects/Reinvent-master-3.2/result/LINK_invent/BTK/process_docking_weight1_custom_sum_contain_oxygen_bond_distance_aromatic_linkinvent_7_9_3/rearranged_h_0007.sdf

> <i_m_source_file_index>
85

> <r_mmod_Potential_Energy-OPLS-2005>
282.786865234375

> <r_mmod_Stretch_Energy-OPLS-2005>
95.911979675293

> <r_mmod_Bend_Energy-OPLS-2005>
160.562072753906

> <r_mmod_Torsional_Energy-OPLS-2005>
326.699554443359

> <r_mmod_Improper_Torsional_Energy-OPLS-2005>
3.22599673271179

> <r_mmod_Van_der_Waal_Energy-OPLS-2005>
144.767868041992

> <r_mmod_Electrostatic_Energy-OPLS-2005>
-300.228546142578

> <r_mmod_Solvation_Energy-OPLS-2005>
-202.136901855469

> <b_mmod_Minimization_Converged-OPLS-2005>
0

> <r_mmod_RMS_Derivative-OPLS-2005>
4.94892740249634

$$$$
85
                    3D
 Structure written by MMmdl.
165173  0  0  1  0            999 V2000
  -30.6933  -14.4699   20.5404 C   0  0  0  0  0  0
  -30.4235  -12.2702   19.4230 C   0  0  0  0  0  0
  -29.4920  -12.4793   18.2105 C   0  0  0  0  0  0
  -28.0092  -12.3656   18.6192 C   0  0  0  0  0  0
  -27.6597  -13.2003   19.8807 C   0  0  2  0  0  0
  -28.6960  -12.9715   21.0030 C   0  0  0  0  0  0
  -25.2575  -13.8144   20.5704 C   0  0  0  0  0  0
  -24.1819  -13.0442   20.9192 C   0  0  0  0  0  0
  -24.6367  -11.6906   20.8754 C   0  0  0  0  0  0
  -23.9043  -10.4298   21.0418 C   0  0  0  0  0  0
  -24.3603   -9.4208   21.9188 C   0  0  0  0  0  0
  -23.6285   -8.2241   22.0749 C   0  0  0  0  0  0
  -22.4264   -8.0283   21.3548 C   0  0  0  0  0  0
  -21.9901   -9.0257   20.4647 C   0  0  0  0  0  0
  -22.7223  -10.2141   20.3057 C   0  0  0  0  0  0
  -21.6854   -6.0736   22.5283 C   0  0  0  0  0  0
  -21.4010   -6.5639   23.8217 C   0  0  0  0  0  0
  -21.3656   -5.6790   24.9179 C   0  0  0  0  0  0
  -21.6046   -4.3056   24.7227 C   0  0  0  0  0  0
  -21.8817   -3.8148   23.4351 C   0  0  0  0  0  0
  -21.9189   -4.6963   22.3408 C   0  0  0  0  0  0
  -22.7842  -13.5244   21.1867 C   0  0  0  0  0  0
  -22.1660   -4.2154   21.0985 F   0  0  0  0  0  0
  -21.5632   -3.4536   25.7740 F   0  0  0  0  0  0
  -30.0316  -13.2372   20.4517 N   0  0  0  0  0  0
  -26.3005  -12.9306   20.3403 N   0  0  0  0  0  0
  -25.9284  -11.6477   20.5801 N   0  0  0  0  0  0
  -22.0477  -12.8246   22.0422 N   0  0  0  0  0  0
  -25.4337  -15.1851   20.4129 N   0  0  0  0  0  0
  -31.8084  -14.7099   20.0668 O   0  0  0  0  0  0
  -21.6636   -6.8878   21.4244 O   0  0  0  0  0  0
  -22.3540  -14.5558   20.6708 O   0  0  0  0  0  0
  -24.6147  -31.8678   23.2097 C   0  0  0  0  0  0
  -25.9037  -32.4827   23.8396 C   0  0  1  0  0  0
  -27.2389  -27.4435   20.0977 C   0  0  0  0  0  0
  -25.5886  -33.8626   24.2332 N   0  0  0  0  0  0
  -23.4028  -30.4916   21.5499 C   0  0  2  0  0  0
  -24.8478  -28.9569   20.1141 C   0  0  0  0  0  0
  -22.7417  -29.4667   22.4994 C   0  0  0  0  0  0
  -18.0269  -28.1382   22.8501 C   0  0  0  0  0  0
  -24.1476  -36.7326   23.2639 C   0  0  0  0  0  0
  -25.9288  -30.8368   21.3592 C   0  0  0  0  0  0
  -26.0064  -29.4719   20.7080 C   0  0  0  0  0  0
  -27.2052  -28.7249   20.6912 C   0  0  0  0  0  0
  -26.0635  -26.9425   19.4921 C   0  0  0  0  0  0
  -24.8702  -27.6910   19.5024 C   0  0  0  0  0  0
  -23.6087  -29.8212   20.1651 C   0  0  0  0  0  0
  -25.4095  -36.3118   24.0337 C   0  0  1  0  0  0
  -20.5857  -28.3669   23.1321 C   0  0  2  0  0  0
  -20.6750  -26.9398   22.5425 C   0  0  0  0  0  0
  -19.5723  -26.6382   21.5228 C   0  0  0  0  0  0
  -18.1907  -26.7927   22.1633 C   0  0  0  0  0  0
  -19.1521  -28.8842   23.2906 C   0  0  0  0  0  0
  -18.9444  -30.1447   23.8921 C   0  0  0  0  0  0
  -17.6447  -30.6588   24.0579 C   0  0  0  0  0  0
  -25.9026  -34.9484   23.5128 C   0  0  0  0  0  0
  -16.5340  -29.9098   23.6320 C   0  0  0  0  0  0
  -16.7257  -28.6510   23.0351 C   0  0  0  0  0  0
  -26.4465  -31.6611   25.0725 C   0  0  0  0  0  0
  -25.3739  -31.3719   26.1484 C   0  0  0  0  0  0
  -27.0291  -30.3053   24.6088 C   0  0  0  0  0  0
  -27.6043  -32.4336   25.7494 C   0  0  0  0  0  0
  -27.5576  -37.1821   24.8467 C   0  0  0  0  0  0
  -21.4142  -29.3044   22.3741 N   0  0  0  0  0  0
  -26.4288  -37.3802   23.9413 N   0  0  0  0  0  0
  -24.6675  -31.0786   22.0994 N   0  0  0  0  0  0
  -23.4192  -28.8201   23.3033 O   0  0  0  0  0  0
  -28.4164  -26.7243   20.1150 O   0  0  0  0  0  0
  -26.5590  -34.8942   22.4687 O   0  0  0  0  0  0
  -23.5338  -32.1425   23.7494 O   0  0  0  0  0  0
  -30.8653  -18.9921   21.3797 C   0  0  0  0  0  0
  -30.6967  -17.6201   21.6750 C   0  0  0  0  0  0
  -29.7879  -18.6525   19.2350 C   0  0  0  0  0  0
  -30.4126  -19.5201   20.1506 C   0  0  0  0  0  0
  -29.5923  -17.2823   19.5232 C   0  0  0  0  0  0
  -30.0778  -16.7499   20.7492 C   0  0  0  0  0  0
  -30.6319  -20.9228   19.7358 C   0  0  0  0  0  0
  -30.2329  -22.0988   20.2791 C   0  0  0  0  0  0
  -29.3995  -22.2489   21.4721 C   0  0  0  0  0  0
  -29.7149  -16.1783   17.4165 C   0  0  0  0  0  0
  -27.5572  -16.9506   18.3114 C   0  0  0  0  0  0
  -28.3747  -23.7117   23.1221 C   0  0  0  0  0  0
  -29.4554  -24.8057   21.2011 C   0  0  0  0  0  0
  -28.3113  -25.3044   20.2910 C   0  0  0  0  0  0
  -28.9083  -16.4710   18.5974 N   0  0  0  0  0  0
  -29.1207  -23.5260   21.8682 N   0  0  0  0  0  0
  -28.9651  -21.2899   22.1172 O   0  0  0  0  0  0
  -29.8825  -15.4225   21.0759 O   0  0  0  0  0  0
  -31.4670  -12.3865   19.1257 H   0  0  0  0  0  0
  -30.3302  -11.2544   19.8095 H   0  0  0  0  0  0
  -29.7147  -11.7487   17.4322 H   0  0  0  0  0  0
  -29.6767  -13.4564   17.7689 H   0  0  0  0  0  0
  -27.7982  -11.3114   18.8013 H   0  0  0  0  0  0
  -27.3665  -12.6624   17.7897 H   0  0  0  0  0  0
  -27.7071  -14.2481   19.5910 H   0  0  0  0  0  0
  -28.6558  -11.9400   21.3535 H   0  0  0  0  0  0
  -28.4735  -13.5861   21.8766 H   0  0  0  0  0  0
  -25.2742   -9.5695   22.4773 H   0  0  0  0  0  0
  -24.0001   -7.4625   22.7452 H   0  0  0  0  0  0
  -21.0837   -8.8766   19.8948 H   0  0  0  0  0  0
  -22.3671  -10.9680   19.6172 H   0  0  0  0  0  0
  -21.1998   -7.6145   23.9727 H   0  0  0  0  0  0
  -21.1481   -6.0518   25.9086 H   0  0  0  0  0  0
  -22.0599   -2.7611   23.2847 H   0  0  0  0  0  0
  -22.4063  -11.9894   22.4817 H   0  0  0  0  0  0
  -21.1098  -13.1282   22.2630 H   0  0  0  0  0  0
  -24.6741  -15.8490   20.5143 H   0  0  0  0  0  0
  -26.3083  -15.6103   20.1336 H   0  0  0  0  0  0
  -26.7111  -32.5542   23.1168 H   0  0  0  0  0  0
  -25.0066  -33.9787   25.0502 H   0  0  0  0  0  0
  -22.6931  -31.3097   21.4112 H   0  0  0  0  0  0
  -23.3730  -35.9666   23.3323 H   0  0  0  0  0  0
  -24.3574  -36.8917   22.2049 H   0  0  0  0  0  0
  -23.7238  -37.6539   23.6639 H   0  0  0  0  0  0
  -26.0338  -31.5990   20.5856 H   0  0  0  0  0  0
  -26.8209  -30.8953   21.9711 H   0  0  0  0  0  0
  -28.1007  -29.1200   21.1501 H   0  0  0  0  0  0
  -26.0612  -25.9786   19.0037 H   0  0  0  0  0  0
  -23.9796  -27.2908   19.0371 H   0  0  0  0  0  0
  -23.7180  -30.5964   19.4061 H   0  0  0  0  0  0
  -22.7343  -29.2392   19.8677 H   0  0  0  0  0  0
  -25.1275  -36.1991   25.0833 H   0  0  0  0  0  0
  -20.9946  -28.3214   24.1439 H   0  0  0  0  0  0
  -20.5642  -26.2278   23.3615 H   0  0  0  0  0  0
  -21.6624  -26.7432   22.1221 H   0  0  0  0  0  0
  -19.6885  -25.6296   21.1243 H   0  0  0  0  0  0
  -19.6662  -27.3212   20.6769 H   0  0  0  0  0  0
  -17.4176  -26.6692   21.4026 H   0  0  0  0  0  0
  -18.0293  -26.0072   22.9024 H   0  0  0  0  0  0
  -19.7925  -30.7260   24.2305 H   0  0  0  0  0  0
  -17.5007  -31.6273   24.5174 H   0  0  0  0  0  0
  -15.5343  -30.3014   23.7633 H   0  0  0  0  0  0
  -15.8656  -28.0848   22.7049 H   0  0  0  0  0  0
  -24.5905  -30.7068   25.7836 H   0  0  0  0  0  0
  -24.8941  -32.2882   26.4942 H   0  0  0  0  0  0
  -25.8100  -30.8893   27.0244 H   0  0  0  0  0  0
  -26.2824  -29.6834   24.1124 H   0  0  0  0  0  0
  -27.4055  -29.7264   25.4536 H   0  0  0  0  0  0
  -27.8673  -30.4389   23.9238 H   0  0  0  0  0  0
  -27.2646  -33.3622   26.2107 H   0  0  0  0  0  0
  -28.3838  -32.6921   25.0314 H   0  0  0  0  0  0
  -28.0733  -31.8443   26.5393 H   0  0  0  0  0  0
  -28.2608  -38.0101   24.7503 H   0  0  0  0  0  0
  -28.1050  -36.2636   24.6301 H   0  0  0  0  0  0
  -27.2300  -37.1493   25.8871 H   0  0  0  0  0  0
  -20.9297  -29.8807   21.7006 H   0  0  0  0  0  0
  -26.0175  -38.2881   24.1414 H   0  0  0  0  0  0
  -31.3568  -19.6346   22.0961 H   0  0  0  0  0  0
  -31.0521  -17.2286   22.6169 H   0  0  0  0  0  0
  -29.4442  -19.0569   18.2946 H   0  0  0  0  0  0
  -31.2355  -21.0096   18.8435 H   0  0  0  0  0  0
  -30.5698  -22.9695   19.7433 H   0  0  0  0  0  0
  -30.6020  -15.6033   17.6800 H   0  0  0  0  0  0
  -30.0447  -17.0882   16.9123 H   0  0  0  0  0  0
  -29.1430  -15.5894   16.6970 H   0  0  0  0  0  0
  -27.0535  -17.2884   19.2189 H   0  0  0  0  0  0
  -26.9526  -16.1561   17.8711 H   0  0  0  0  0  0
  -27.5669  -17.7849   17.6079 H   0  0  0  0  0  0
  -27.3990  -23.2270   23.0580 H   0  0  0  0  0  0
  -28.1890  -24.7576   23.3665 H   0  0  0  0  0  0
  -28.9161  -23.2743   23.9629 H   0  0  0  0  0  0
  -29.6425  -25.5586   21.9685 H   0  0  0  0  0  0
  -30.3972  -24.7798   20.6586 H   0  0  0  0  0  0
  -27.3621  -25.0408   20.7616 H   0  0  0  0  0  0
  -28.3366  -24.8039   19.3215 H   0  0  0  0  0  0
  1 25  1  0  0  0
  1 30  2  0  0  0
  1 88  1  0  0  0
  2  3  1  0  0  0
  2 25  1  0  0  0
  2 89  1  0  0  0
  2 90  1  0  0  0
  3  4  1  0  0  0
  3 91  1  0  0  0
  3 92  1  0  0  0
  4  5  1  0  0  0
  4 93  1  0  0  0
  4 94  1  0  0  0
  5  6  1  0  0  0
  5 26  1  0  0  0
  5 95  1  0  0  0
  6 25  1  0  0  0
  6 96  1  0  0  0
  6 97  1  0  0  0
  7  8  2  0  0  0
  7 26  1  0  0  0
  7 29  1  0  0  0
  8  9  1  0  0  0
  8 22  1  0  0  0
  9 10  1  0  0  0
  9 27  2  0  0  0
 10 11  2  0  0  0
 10 15  1  0  0  0
 11 12  1  0  0  0
 11 98  1  0  0  0
 12 13  2  0  0  0
 12 99  1  0  0  0
 13 14  1  0  0  0
 13 31  1  0  0  0
 14 15  2  0  0  0
 14100  1  0  0  0
 15101  1  0  0  0
 16 17  2  0  0  0
 16 21  1  0  0  0
 16 31  1  0  0  0
 17 18  1  0  0  0
 17102  1  0  0  0
 18 19  2  0  0  0
 18103  1  0  0  0
 19 20  1  0  0  0
 19 24  1  0  0  0
 20 21  2  0  0  0
 20104  1  0  0  0
 21 23  1  0  0  0
 22 28  1  0  0  0
 22 32  2  0  0  0
 26 27  1  0  0  0
 28105  1  0  0  0
 28106  1  0  0  0
 29107  1  0  0  0
 29108  1  0  0  0
 33 34  1  0  0  0
 33 66  1  0  0  0
 33 70  2  0  0  0
 34 36  1  0  0  0
 34 59  1  0  0  0
 34109  1  0  0  0
 35 44  2  0  0  0
 35 45  1  0  0  0
 35 68  1  0  0  0
 36 56  1  0  0  0
 36110  1  0  0  0
 37 39  1  0  0  0
 37 47  1  0  0  0
 37 66  1  0  0  0
 37111  1  0  0  0
 38 43  2  0  0  0
 38 46  1  0  0  0
 38 47  1  0  0  0
 39 64  1  0  0  0
 39 67  2  0  0  0
 40 52  1  0  0  0
 40 53  2  0  0  0
 40 58  1  0  0  0
 41112  1  0  0  0
 41113  1  0  0  0
 41114  1  0  0  0
 41 48  1  0  0  0
 42 43  1  0  0  0
 42 66  1  0  0  0
 42115  1  0  0  0
 42116  1  0  0  0
 43 44  1  0  0  0
 44117  1  0  0  0
 45 46  2  0  0  0
 45118  1  0  0  0
 46119  1  0  0  0
 47120  1  0  0  0
 47121  1  0  0  0
 48 56  1  0  0  0
 48 65  1  0  0  0
 48122  1  0  0  0
 49 50  1  0  0  0
 49 53  1  0  0  0
 49 64  1  0  0  0
 49123  1  0  0  0
 50 51  1  0  0  0
 50124  1  0  0  0
 50125  1  0  0  0
 51 52  1  0  0  0
 51126  1  0  0  0
 51127  1  0  0  0
 52128  1  0  0  0
 52129  1  0  0  0
 53 54  1  0  0  0
 54 55  2  0  0  0
 54130  1  0  0  0
 55 57  1  0  0  0
 55131  1  0  0  0
 56 69  2  0  0  0
 57 58  2  0  0  0
 57132  1  0  0  0
 58133  1  0  0  0
 59 60  1  0  0  0
 59 61  1  0  0  0
 59 62  1  0  0  0
 60134  1  0  0  0
 60135  1  0  0  0
 60136  1  0  0  0
 61137  1  0  0  0
 61138  1  0  0  0
 61139  1  0  0  0
 62140  1  0  0  0
 62141  1  0  0  0
 62142  1  0  0  0
 63 65  1  0  0  0
 63143  1  0  0  0
 63144  1  0  0  0
 63145  1  0  0  0
 64146  1  0  0  0
 65147  1  0  0  0
 68 84  1  0  0  0
 71 72  2  0  0  0
 71 74  1  0  0  0
 71148  1  0  0  0
 72 76  1  0  0  0
 72149  1  0  0  0
 73 74  2  0  0  0
 73 75  1  0  0  0
 73150  1  0  0  0
 74 77  1  0  0  0
 75 76  2  0  0  0
 75 85  1  0  0  0
 76 88  1  0  0  0
 77 78  2  0  0  0
 77151  1  0  0  0
 78 79  1  0  0  0
 78152  1  0  0  0
 79 86  1  0  0  0
 79 87  2  0  0  0
 80 85  1  0  0  0
 80153  1  0  0  0
 80154  1  0  0  0
 80155  1  0  0  0
 81 85  1  0  0  0
 81156  1  0  0  0
 81157  1  0  0  0
 81158  1  0  0  0
 82 86  1  0  0  0
 82159  1  0  0  0
 82160  1  0  0  0
 82161  1  0  0  0
 83 84  1  0  0  0
 83 86  1  0  0  0
 83162  1  0  0  0
 83163  1  0  0  0
 84164  1  0  0  0
 84165  1  0  0  0
M  ISO  4   1 100  68 101  84 101  88 100
M  END
> <chiral flag>
0

> <version>
0

> <s_m_source_file>
/data/baiqing/PycharmProjects/Reinvent-master-3.2/result/LINK_invent/BTK/process_docking_weight1_custom_sum_contain_oxygen_bond_distance_aromatic_linkinvent_7_9_3/rearranged_h_0007.sdf

> <i_m_source_file_index>
86

> <r_mmod_Potential_Energy-OPLS-2005>
15.9373550415039

> <r_mmod_Stretch_Energy-OPLS-2005>
40.3872718811035

> <r_mmod_Bend_Energy-OPLS-2005>
110.46117401123

> <r_mmod_Torsional_Energy-OPLS-2005>
248.004455566406

> <r_mmod_Improper_Torsional_Energy-OPLS-2005>
8.65178871154785

> <r_mmod_Van_der_Waal_Energy-OPLS-2005>
160.566864013672

> <r_mmod_Electrostatic_Energy-OPLS-2005>
-346.065551757812

> <r_mmod_Solvation_Energy-OPLS-2005>
-217.831146240234

> <b_mmod_Minimization_Converged-OPLS-2005>
0

> <r_mmod_RMS_Derivative-OPLS-2005>
1.9872442483902

$$$$
86
                    3D
 Structure written by MMmdl.
174182  0  0  1  0            999 V2000
  -30.6343  -14.5163   20.3470 C   0  0  0  0  0  0
  -30.4645  -12.2845   19.4217 C   0  0  0  0  0  0
  -29.5029  -12.4389   18.2219 C   0  0  0  0  0  0
  -28.0309  -12.2918   18.6551 C   0  0  0  0  0  0
  -27.6607  -13.1542   19.8874 C   0  0  2  0  0  0
  -28.7395  -13.0358   21.0021 C   0  0  0  0  0  0
  -25.2688  -13.8026   20.5771 C   0  0  0  0  0  0
  -24.1862  -13.0395   20.9239 C   0  0  0  0  0  0
  -24.6360  -11.6869   20.8859 C   0  0  0  0  0  0
  -23.9010  -10.4296   21.0480 C   0  0  0  0  0  0
  -24.3596   -9.4240   21.9260 C   0  0  0  0  0  0
  -23.6291   -8.2265   22.0798 C   0  0  0  0  0  0
  -22.4291   -8.0299   21.3558 C   0  0  0  0  0  0
  -21.9885   -9.0291   20.4700 C   0  0  0  0  0  0
  -22.7199  -10.2171   20.3116 C   0  0  0  0  0  0
  -21.6881   -6.0744   22.5242 C   0  0  0  0  0  0
  -21.4032   -6.5636   23.8170 C   0  0  0  0  0  0
  -21.3647   -5.6796   24.9134 C   0  0  0  0  0  0
  -21.5999   -4.3045   24.7195 C   0  0  0  0  0  0
  -21.8823   -3.8148   23.4318 C   0  0  0  0  0  0
  -21.9217   -4.6975   22.3378 C   0  0  0  0  0  0
  -22.7907  -13.5283   21.1811 C   0  0  0  0  0  0
  -22.1700   -4.2167   21.0960 F   0  0  0  0  0  0
  -21.5630   -3.4532   25.7716 F   0  0  0  0  0  0
  -30.0811  -13.2814   20.4225 N   0  0  0  0  0  0
  -26.3062  -12.9043   20.3588 N   0  0  0  0  0  0
  -25.9292  -11.6293   20.6045 N   0  0  0  0  0  0
  -22.0479  -12.8309   22.0354 N   0  0  0  0  0  0
  -25.4473  -15.1732   20.4111 N   0  0  0  0  0  0
  -31.8379  -14.7661   20.2655 O   0  0  0  0  0  0
  -21.6672   -6.8895   21.4214 O   0  0  0  0  0  0
  -22.3637  -14.5619   20.6697 O   0  0  0  0  0  0
  -24.6018  -31.8740   23.2143 C   0  0  0  0  0  0
  -25.8945  -32.4872   23.8407 C   0  0  1  0  0  0
  -27.2476  -27.5026   20.0967 C   0  0  0  0  0  0
  -25.5812  -33.8686   24.2311 N   0  0  0  0  0  0
  -23.3828  -30.5045   21.5446 C   0  0  2  0  0  0
  -24.8297  -28.9685   20.1117 C   0  0  0  0  0  0
  -22.7356  -29.4758   22.4953 C   0  0  0  0  0  0
  -18.0279  -28.1383   22.8511 C   0  0  0  0  0  0
  -24.1504  -36.7388   23.2631 C   0  0  0  0  0  0
  -25.9015  -30.8593   21.3587 C   0  0  0  0  0  0
  -25.9765  -29.4979   20.7128 C   0  0  0  0  0  0
  -27.1788  -28.7736   20.7138 C   0  0  0  0  0  0
  -26.0831  -26.9739   19.4983 C   0  0  0  0  0  0
  -24.8744  -27.7039   19.5007 C   0  0  0  0  0  0
  -23.5896  -29.8298   20.1578 C   0  0  0  0  0  0
  -25.4109  -36.3186   24.0352 C   0  0  1  0  0  0
  -20.5875  -28.3699   23.1321 C   0  0  2  0  0  0
  -20.6792  -26.9439   22.5425 C   0  0  0  0  0  0
  -19.5758  -26.6428   21.5223 C   0  0  0  0  0  0
  -18.1926  -26.7938   22.1639 C   0  0  0  0  0  0
  -19.1524  -28.8844   23.2931 C   0  0  0  0  0  0
  -18.9486  -30.1452   23.8961 C   0  0  0  0  0  0
  -17.6495  -30.6612   24.0574 C   0  0  0  0  0  0
  -25.9054  -34.9552   23.5161 C   0  0  0  0  0  0
  -16.5390  -29.9126   23.6315 C   0  0  0  0  0  0
  -16.7265  -28.6531   23.0340 C   0  0  0  0  0  0
  -26.4387  -31.6623   25.0712 C   0  0  0  0  0  0
  -25.3638  -31.3719   26.1452 C   0  0  0  0  0  0
  -27.0142  -30.3051   24.6084 C   0  0  0  0  0  0
  -27.6082  -32.4218   25.7339 C   0  0  0  0  0  0
  -27.5604  -37.1844   24.8450 C   0  0  0  0  0  0
  -21.4099  -29.3101   22.3727 N   0  0  0  0  0  0
  -26.4289  -37.3881   23.9433 N   0  0  0  0  0  0
  -24.6443  -31.0918   22.1001 N   0  0  0  0  0  0
  -23.4184  -28.8367   23.2997 O   0  0  0  0  0  0
  -28.4056  -26.7578   20.0242 O   0  0  0  0  0  0
  -26.5659  -34.8985   22.4764 O   0  0  0  0  0  0
  -23.5239  -32.1475   23.7626 O   0  0  0  0  0  0
  -28.5247  -19.2125   18.8532 C   0  0  0  0  0  0
  -28.0176  -18.1088   18.1515 C   0  0  0  0  0  0
  -30.0021  -17.7438   20.1321 C   0  0  0  0  0  0
  -29.5320  -19.0492   19.8372 C   0  0  0  0  0  0
  -29.4843  -16.6356   19.4267 C   0  0  0  0  0  0
  -28.5126  -16.8130   18.4106 C   0  0  0  0  0  0
  -30.1036  -20.2513   20.5429 C   0  0  0  0  0  0
  -29.5476  -24.5460   22.6526 C   0  0  0  0  0  0
  -27.5283  -23.1947   21.8846 C   0  0  0  0  0  0
  -29.5229  -23.6209   19.4752 C   0  0  0  0  0  0
  -27.0609  -15.8130   16.7690 C   0  0  0  0  0  0
  -29.9453  -27.5661   21.7928 C   0  0  0  0  0  0
  -30.9754  -26.5669   22.3648 C   0  0  0  0  0  0
  -29.6463  -27.4243   20.2776 C   0  0  0  0  0  0
  -29.0704  -23.2036   22.0340 C   0  0  1  0  0  0
  -29.7913  -22.7523   20.7243 C   0  0  1  0  0  0
  -29.7243  -15.2802   19.7395 N   0  0  0  0  0  0
  -29.4130  -21.3848   20.3681 N   0  0  0  0  0  0
  -30.6023  -25.1746   22.1191 N   0  0  0  0  0  0
  -31.1313  -20.1737   21.2215 O   0  0  0  0  0  0
  -28.9360  -25.0217   23.6134 O   0  0  0  0  0  0
  -28.0842  -15.6821   17.7436 O   0  0  0  0  0  0
  -31.4978  -12.4284   19.0922 H   0  0  0  0  0  0
  -30.4093  -11.2854   19.8545 H   0  0  0  0  0  0
  -29.7353  -11.6970   17.4581 H   0  0  0  0  0  0
  -29.6479  -13.4098   17.7416 H   0  0  0  0  0  0
  -27.8654  -11.2416   18.8955 H   0  0  0  0  0  0
  -27.3669  -12.5253   17.8223 H   0  0  0  0  0  0
  -27.6158  -14.1716   19.5350 H   0  0  0  0  0  0
  -28.7104  -12.0586   21.4887 H   0  0  0  0  0  0
  -28.5415  -13.7700   21.7853 H   0  0  0  0  0  0
  -25.2738   -9.5763   22.4845 H   0  0  0  0  0  0
  -23.9986   -7.4682   22.7532 H   0  0  0  0  0  0
  -21.0792   -8.8871   19.9050 H   0  0  0  0  0  0
  -22.3673  -10.9760   19.6261 H   0  0  0  0  0  0
  -21.2046   -7.6141   23.9664 H   0  0  0  0  0  0
  -21.1456   -6.0545   25.9032 H   0  0  0  0  0  0
  -22.0621   -2.7617   23.2810 H   0  0  0  0  0  0
  -22.4039  -11.9906   22.4686 H   0  0  0  0  0  0
  -21.1163  -13.1491   22.2619 H   0  0  0  0  0  0
  -24.6985  -15.8420   20.5448 H   0  0  0  0  0  0
  -26.3047  -15.6034   20.0900 H   0  0  0  0  0  0
  -26.7002  -32.5666   23.1156 H   0  0  0  0  0  0
  -24.9712  -33.9810   25.0274 H   0  0  0  0  0  0
  -22.6653  -31.3202   21.4061 H   0  0  0  0  0  0
  -23.3773  -35.9731   23.3307 H   0  0  0  0  0  0
  -24.3519  -36.8990   22.2028 H   0  0  0  0  0  0
  -23.7262  -37.6619   23.6618 H   0  0  0  0  0  0
  -25.9974  -31.6187   20.5846 H   0  0  0  0  0  0
  -26.7997  -30.9254   21.9635 H   0  0  0  0  0  0
  -28.0272  -29.2309   21.1954 H   0  0  0  0  0  0
  -26.1207  -26.0137   19.0018 H   0  0  0  0  0  0
  -23.9992  -27.2910   19.0167 H   0  0  0  0  0  0
  -23.6954  -30.6019   19.3937 H   0  0  0  0  0  0
  -22.7188  -29.2410   19.8645 H   0  0  0  0  0  0
  -25.1265  -36.2062   25.0852 H   0  0  0  0  0  0
  -20.9956  -28.3281   24.1420 H   0  0  0  0  0  0
  -20.5665  -26.2319   23.3616 H   0  0  0  0  0  0
  -21.6677  -26.7475   22.1229 H   0  0  0  0  0  0
  -19.6928  -25.6357   21.1194 H   0  0  0  0  0  0
  -19.6700  -27.3298   20.6793 H   0  0  0  0  0  0
  -17.4204  -26.6713   21.4024 H   0  0  0  0  0  0
  -18.0324  -26.0042   22.9000 H   0  0  0  0  0  0
  -19.7970  -30.7226   24.2377 H   0  0  0  0  0  0
  -17.5071  -31.6276   24.5207 H   0  0  0  0  0  0
  -15.5403  -30.3073   23.7614 H   0  0  0  0  0  0
  -15.8638  -28.0886   22.7025 H   0  0  0  0  0  0
  -24.5835  -30.7024   25.7763 H   0  0  0  0  0  0
  -24.8787  -32.2890   26.4864 H   0  0  0  0  0  0
  -25.7978  -30.8891   27.0231 H   0  0  0  0  0  0
  -26.2671  -29.6840   24.1125 H   0  0  0  0  0  0
  -27.3830  -29.7263   25.4575 H   0  0  0  0  0  0
  -27.8581  -30.4293   23.9274 H   0  0  0  0  0  0
  -27.2864  -33.3493   26.2061 H   0  0  0  0  0  0
  -28.3773  -32.6753   25.0031 H   0  0  0  0  0  0
  -28.0885  -31.8200   26.5070 H   0  0  0  0  0  0
  -28.2657  -38.0105   24.7516 H   0  0  0  0  0  0
  -28.1068  -36.2667   24.6260 H   0  0  0  0  0  0
  -27.2318  -37.1486   25.8841 H   0  0  0  0  0  0
  -20.9200  -29.8699   21.6885 H   0  0  0  0  0  0
  -26.0219  -38.2995   24.1422 H   0  0  0  0  0  0
  -28.1121  -20.1820   18.6072 H   0  0  0  0  0  0
  -27.2370  -18.2913   17.4256 H   0  0  0  0  0  0
  -30.7288  -17.5884   20.9151 H   0  0  0  0  0  0
  -27.0282  -23.3780   22.8367 H   0  0  0  0  0  0
  -27.1508  -22.2472   21.4987 H   0  0  0  0  0  0
  -27.2137  -23.9824   21.2006 H   0  0  0  0  0  0
  -29.6206  -24.6818   19.6777 H   0  0  0  0  0  0
  -28.5216  -23.4686   19.0686 H   0  0  0  0  0  0
  -30.2362  -23.3939   18.6787 H   0  0  0  0  0  0
  -26.1155  -16.0856   17.2378 H   0  0  0  0  0  0
  -26.9134  -14.8537   16.2730 H   0  0  0  0  0  0
  -27.3218  -16.5360   15.9947 H   0  0  0  0  0  0
  -30.3160  -28.5767   21.9723 H   0  0  0  0  0  0
  -29.0176  -27.5062   22.3618 H   0  0  0  0  0  0
  -31.1077  -26.7388   23.4345 H   0  0  0  0  0  0
  -31.9529  -26.7457   21.9149 H   0  0  0  0  0  0
  -30.4457  -26.8657   19.7886 H   0  0  0  0  0  0
  -29.6475  -28.3925   19.7696 H   0  0  0  0  0  0
  -29.3232  -22.4590   22.7889 H   0  0  0  0  0  0
  -30.8654  -22.7831   20.9015 H   0  0  0  0  0  0
  -28.9709  -14.6915   19.4214 H   0  0  0  0  0  0
  -28.5639  -21.2923   19.8287 H   0  0  0  0  0  0
  -31.1361  -24.6838   21.4124 H   0  0  0  0  0  0
  1 25  1  0  0  0
  1 30  2  0  0  0
  1 87  1  0  0  0
  2  3  1  0  0  0
  2 25  1  0  0  0
  2 93  1  0  0  0
  2 94  1  0  0  0
  3  4  1  0  0  0
  3 95  1  0  0  0
  3 96  1  0  0  0
  4  5  1  0  0  0
  4 97  1  0  0  0
  4 98  1  0  0  0
  5  6  1  0  0  0
  5 26  1  0  0  0
  5 99  1  0  0  0
  6 25  1  0  0  0
  6100  1  0  0  0
  6101  1  0  0  0
  7  8  2  0  0  0
  7 26  1  0  0  0
  7 29  1  0  0  0
  8  9  1  0  0  0
  8 22  1  0  0  0
  9 10  1  0  0  0
  9 27  2  0  0  0
 10 11  2  0  0  0
 10 15  1  0  0  0
 11 12  1  0  0  0
 11102  1  0  0  0
 12 13  2  0  0  0
 12103  1  0  0  0
 13 14  1  0  0  0
 13 31  1  0  0  0
 14 15  2  0  0  0
 14104  1  0  0  0
 15105  1  0  0  0
 16 17  2  0  0  0
 16 21  1  0  0  0
 16 31  1  0  0  0
 17 18  1  0  0  0
 17106  1  0  0  0
 18 19  2  0  0  0
 18107  1  0  0  0
 19 20  1  0  0  0
 19 24  1  0  0  0
 20 21  2  0  0  0
 20108  1  0  0  0
 21 23  1  0  0  0
 22 28  1  0  0  0
 22 32  2  0  0  0
 26 27  1  0  0  0
 28109  1  0  0  0
 28110  1  0  0  0
 29111  1  0  0  0
 29112  1  0  0  0
 33 34  1  0  0  0
 33 66  1  0  0  0
 33 70  2  0  0  0
 34 36  1  0  0  0
 34 59  1  0  0  0
 34113  1  0  0  0
 35 44  2  0  0  0
 35 45  1  0  0  0
 35 68  1  0  0  0
 36 56  1  0  0  0
 36114  1  0  0  0
 37 39  1  0  0  0
 37 47  1  0  0  0
 37 66  1  0  0  0
 37115  1  0  0  0
 38 43  2  0  0  0
 38 46  1  0  0  0
 38 47  1  0  0  0
 39 64  1  0  0  0
 39 67  2  0  0  0
 40 52  1  0  0  0
 40 53  2  0  0  0
 40 58  1  0  0  0
 41116  1  0  0  0
 41117  1  0  0  0
 41118  1  0  0  0
 41 48  1  0  0  0
 42 43  1  0  0  0
 42 66  1  0  0  0
 42119  1  0  0  0
 42120  1  0  0  0
 43 44  1  0  0  0
 44121  1  0  0  0
 45 46  2  0  0  0
 45122  1  0  0  0
 46123  1  0  0  0
 47124  1  0  0  0
 47125  1  0  0  0
 48 56  1  0  0  0
 48 65  1  0  0  0
 48126  1  0  0  0
 49 50  1  0  0  0
 49 53  1  0  0  0
 49 64  1  0  0  0
 49127  1  0  0  0
 50 51  1  0  0  0
 50128  1  0  0  0
 50129  1  0  0  0
 51 52  1  0  0  0
 51130  1  0  0  0
 51131  1  0  0  0
 52132  1  0  0  0
 52133  1  0  0  0
 53 54  1  0  0  0
 54 55  2  0  0  0
 54134  1  0  0  0
 55 57  1  0  0  0
 55135  1  0  0  0
 56 69  2  0  0  0
 57 58  2  0  0  0
 57136  1  0  0  0
 58137  1  0  0  0
 59 60  1  0  0  0
 59 61  1  0  0  0
 59 62  1  0  0  0
 60138  1  0  0  0
 60139  1  0  0  0
 60140  1  0  0  0
 61141  1  0  0  0
 61142  1  0  0  0
 61143  1  0  0  0
 62144  1  0  0  0
 62145  1  0  0  0
 62146  1  0  0  0
 63 65  1  0  0  0
 63147  1  0  0  0
 63148  1  0  0  0
 63149  1  0  0  0
 64150  1  0  0  0
 65151  1  0  0  0
 68 84  1  0  0  0
 71 72  2  0  0  0
 71 74  1  0  0  0
 71152  1  0  0  0
 72 76  1  0  0  0
 72153  1  0  0  0
 73 74  2  0  0  0
 73 75  1  0  0  0
 73154  1  0  0  0
 74 77  1  0  0  0
 75 76  2  0  0  0
 75 87  1  0  0  0
 76 92  1  0  0  0
 77 88  1  0  0  0
 77 90  2  0  0  0
 78 85  1  0  0  0
 78 89  1  0  0  0
 78 91  2  0  0  0
 79155  1  0  0  0
 79156  1  0  0  0
 79157  1  0  0  0
 79 85  1  0  0  0
 80158  1  0  0  0
 80159  1  0  0  0
 80160  1  0  0  0
 80 86  1  0  0  0
 81 92  1  0  0  0
 81161  1  0  0  0
 81162  1  0  0  0
 81163  1  0  0  0
 82 83  1  0  0  0
 82 84  1  0  0  0
 82164  1  0  0  0
 82165  1  0  0  0
 83 89  1  0  0  0
 83166  1  0  0  0
 83167  1  0  0  0
 84168  1  0  0  0
 84169  1  0  0  0
 85 86  1  0  0  0
 85170  1  0  0  0
 86 88  1  0  0  0
 86171  1  0  0  0
 87172  1  0  0  0
 88173  1  0  0  0
 89174  1  0  0  0
M  ISO  4   1 100  68 101  84 101  87 100
M  END
> <chiral flag>
0

> <version>
0

> <s_m_source_file>
/data/baiqing/PycharmProjects/Reinvent-master-3.2/result/LINK_invent/BTK/process_docking_weight1_custom_sum_contain_oxygen_bond_distance_aromatic_linkinvent_7_9_3/rearranged_h_0007.sdf

> <i_m_source_file_index>
87

> <r_mmod_Potential_Energy-OPLS-2005>
-49.8961372375488

> <r_mmod_Stretch_Energy-OPLS-2005>
37.5910720825195

> <r_mmod_Bend_Energy-OPLS-2005>
158.72200012207

> <r_mmod_Torsional_Energy-OPLS-2005>
276.724731445312

> <r_mmod_Improper_Torsional_Energy-OPLS-2005>
23.3563632965088

> <r_mmod_Van_der_Waal_Energy-OPLS-2005>
171.189071655273

> <r_mmod_Electrostatic_Energy-OPLS-2005>
-489.872344970703

> <r_mmod_Solvation_Energy-OPLS-2005>
-258.410583496094

> <b_mmod_Minimization_Converged-OPLS-2005>
0

> <r_mmod_RMS_Derivative-OPLS-2005>
6.79733562469482

$$$$
87
                    3D
 Structure written by MMmdl.
151159  0  0  1  0            999 V2000
  -30.6207  -14.6404   20.5017 C   0  0  0  0  0  0
  -30.4366  -12.3919   19.4535 C   0  0  0  0  0  0
  -29.5098  -12.5192   18.2233 C   0  0  0  0  0  0
  -28.0301  -12.3614   18.6287 C   0  0  0  0  0  0
  -27.6546  -13.2197   19.8662 C   0  0  2  0  0  0
  -28.6989  -13.0661   20.9954 C   0  0  0  0  0  0
  -25.2562  -13.8176   20.5677 C   0  0  0  0  0  0
  -24.1832  -13.0437   20.9184 C   0  0  0  0  0  0
  -24.6408  -11.6909   20.8734 C   0  0  0  0  0  0
  -23.9071  -10.4294   21.0403 C   0  0  0  0  0  0
  -24.3624   -9.4210   21.9184 C   0  0  0  0  0  0
  -23.6305   -8.2243   22.0754 C   0  0  0  0  0  0
  -22.4286   -8.0284   21.3541 C   0  0  0  0  0  0
  -21.9914   -9.0260   20.4646 C   0  0  0  0  0  0
  -22.7240  -10.2138   20.3055 C   0  0  0  0  0  0
  -21.6857   -6.0737   22.5278 C   0  0  0  0  0  0
  -21.4014   -6.5640   23.8212 C   0  0  0  0  0  0
  -21.3660   -5.6793   24.9175 C   0  0  0  0  0  0
  -21.6046   -4.3057   24.7221 C   0  0  0  0  0  0
  -21.8818   -3.8145   23.4342 C   0  0  0  0  0  0
  -21.9192   -4.6963   22.3399 C   0  0  0  0  0  0
  -22.7853  -13.5234   21.1843 C   0  0  0  0  0  0
  -22.1661   -4.2148   21.0977 F   0  0  0  0  0  0
  -21.5634   -3.4541   25.7733 F   0  0  0  0  0  0
  -30.0151  -13.4116   20.4353 N   0  0  0  0  0  0
  -26.2997  -12.9363   20.3319 N   0  0  0  0  0  0
  -25.9335  -11.6512   20.5749 N   0  0  0  0  0  0
  -22.0486  -12.8240   22.0403 N   0  0  0  0  0  0
  -25.4262  -15.1899   20.4079 N   0  0  0  0  0  0
  -31.7816  -14.8007   20.1137 O   0  0  0  0  0  0
  -21.6645   -6.8881   21.4242 O   0  0  0  0  0  0
  -22.3545  -14.5541   20.6689 O   0  0  0  0  0  0
  -24.6261  -31.8609   23.2045 C   0  0  0  0  0  0
  -25.9106  -32.4786   23.8370 C   0  0  1  0  0  0
  -27.2208  -27.3184   20.1168 C   0  0  0  0  0  0
  -25.5922  -33.8588   24.2296 N   0  0  0  0  0  0
  -23.4191  -30.4865   21.5481 C   0  0  2  0  0  0
  -24.8644  -28.9431   20.1147 C   0  0  0  0  0  0
  -22.7475  -29.4631   22.4947 C   0  0  0  0  0  0
  -18.0285  -28.1384   22.8493 C   0  0  0  0  0  0
  -24.1484  -36.7305   23.2639 C   0  0  0  0  0  0
  -25.9610  -30.7917   21.3754 C   0  0  0  0  0  0
  -26.0348  -29.4188   20.7191 C   0  0  0  0  0  0
  -27.2166  -28.6186   20.7108 C   0  0  0  0  0  0
  -26.0277  -26.9035   19.4793 C   0  0  0  0  0  0
  -24.8629  -27.6902   19.4870 C   0  0  0  0  0  0
  -23.6338  -29.8253   20.1625 C   0  0  0  0  0  0
  -25.4108  -36.3093   24.0334 C   0  0  1  0  0  0
  -20.5887  -28.3687   23.1297 C   0  0  2  0  0  0
  -20.6778  -26.9412   22.5417 C   0  0  0  0  0  0
  -19.5748  -26.6383   21.5224 C   0  0  0  0  0  0
  -18.1930  -26.7927   22.1635 C   0  0  0  0  0  0
  -19.1538  -28.8852   23.2889 C   0  0  0  0  0  0
  -18.9458  -30.1459   23.8898 C   0  0  0  0  0  0
  -17.6457  -30.6586   24.0566 C   0  0  0  0  0  0
  -25.9048  -34.9459   23.5116 C   0  0  0  0  0  0
  -16.5350  -29.9089   23.6324 C   0  0  0  0  0  0
  -16.7273  -28.6507   23.0345 C   0  0  0  0  0  0
  -26.4484  -31.6584   25.0734 C   0  0  0  0  0  0
  -25.3716  -31.3731   26.1462 C   0  0  0  0  0  0
  -27.0320  -30.3006   24.6178 C   0  0  0  0  0  0
  -27.6040  -32.4319   25.7509 C   0  0  0  0  0  0
  -27.5581  -37.1809   24.8464 C   0  0  0  0  0  0
  -21.4188  -29.3042   22.3692 N   0  0  0  0  0  0
  -26.4287  -37.3788   23.9414 N   0  0  0  0  0  0
  -24.6878  -31.0628   22.0996 N   0  0  0  0  0  0
  -23.4204  -28.8162   23.3016 O   0  0  0  0  0  0
  -28.3380  -26.4663   20.1474 O   0  0  0  0  0  0
  -26.5621  -34.8920   22.4686 O   0  0  0  0  0  0
  -23.5426  -32.1409   23.7376 O   0  0  0  0  0  0
  -30.9863  -17.8445   20.1353 C   0  0  0  0  0  0
  -30.9685  -19.2641   19.9932 C   0  0  0  0  0  0
  -28.7959  -17.9532   21.1125 C   0  0  0  0  0  0
  -29.8921  -17.1406   20.7028 C   0  0  0  0  0  0
  -29.8751  -20.0780   20.4000 C   0  0  0  0  0  0
  -28.7766  -19.3749   20.9706 C   0  0  0  0  0  0
  -29.2657  -23.9632   20.2182 C   0  0  0  0  0  0
  -28.0896  -25.0186   20.3689 C   0  0  0  0  0  0
  -28.9132  -22.4303   20.4994 C   0  0  0  0  0  0
  -29.8096  -15.6840   20.8721 N   0  0  0  0  0  0
  -29.9850  -21.4758   20.2123 O   0  0  0  0  0  0
  -27.6825  -20.0505   21.3985 F   0  0  0  0  0  0
  -31.4800  -12.5130   19.1578 H   0  0  0  0  0  0
  -30.3636  -11.3933   19.8877 H   0  0  0  0  0  0
  -29.7745  -11.7737   17.4721 H   0  0  0  0  0  0
  -29.6578  -13.4925   17.7514 H   0  0  0  0  0  0
  -27.8564  -11.3069   18.8449 H   0  0  0  0  0  0
  -27.3814  -12.6100   17.7878 H   0  0  0  0  0  0
  -27.6751  -14.2577   19.5349 H   0  0  0  0  0  0
  -28.7070  -12.0412   21.3704 H   0  0  0  0  0  0
  -28.4466  -13.6905   21.8533 H   0  0  0  0  0  0
  -25.2762   -9.5698   22.4766 H   0  0  0  0  0  0
  -24.0009   -7.4636   22.7478 H   0  0  0  0  0  0
  -21.0837   -8.8783   19.8964 H   0  0  0  0  0  0
  -22.3691  -10.9683   19.6175 H   0  0  0  0  0  0
  -21.2008   -7.6150   23.9716 H   0  0  0  0  0  0
  -21.1488   -6.0523   25.9081 H   0  0  0  0  0  0
  -22.0595   -2.7607   23.2840 H   0  0  0  0  0  0
  -22.4089  -11.9910   22.4815 H   0  0  0  0  0  0
  -21.1103  -13.1286   22.2588 H   0  0  0  0  0  0
  -24.6535  -15.8392   20.5078 H   0  0  0  0  0  0
  -26.2659  -15.6258   20.0488 H   0  0  0  0  0  0
  -26.7176  -32.5454   23.1120 H   0  0  0  0  0  0
  -25.0041  -33.9736   25.0421 H   0  0  0  0  0  0
  -22.7122  -31.3072   21.4089 H   0  0  0  0  0  0
  -23.3742  -35.9641   23.3296 H   0  0  0  0  0  0
  -24.3581  -36.8930   22.2055 H   0  0  0  0  0  0
  -23.7231  -37.6505   23.6659 H   0  0  0  0  0  0
  -26.0901  -31.5536   20.6055 H   0  0  0  0  0  0
  -26.8432  -30.8433   22.0018 H   0  0  0  0  0  0
  -28.1141  -28.9809   21.1926 H   0  0  0  0  0  0
  -25.9631  -25.9651   18.9527 H   0  0  0  0  0  0
  -23.9688  -27.3238   19.0015 H   0  0  0  0  0  0
  -23.7580  -30.6052   19.4102 H   0  0  0  0  0  0
  -22.7510  -29.2610   19.8558 H   0  0  0  0  0  0
  -25.1278  -36.1954   25.0826 H   0  0  0  0  0  0
  -20.9986  -28.3259   24.1416 H   0  0  0  0  0  0
  -20.5700  -26.2292   23.3614 H   0  0  0  0  0  0
  -21.6645  -26.7453   22.1199 H   0  0  0  0  0  0
  -19.6912  -25.6297   21.1248 H   0  0  0  0  0  0
  -19.6681  -27.3198   20.6759 H   0  0  0  0  0  0
  -17.4202  -26.6681   21.4034 H   0  0  0  0  0  0
  -18.0319  -26.0066   22.9030 H   0  0  0  0  0  0
  -19.7934  -30.7281   24.2258 H   0  0  0  0  0  0
  -17.5009  -31.6264   24.5173 H   0  0  0  0  0  0
  -15.5352  -30.2993   23.7638 H   0  0  0  0  0  0
  -15.8675  -28.0836   22.7043 H   0  0  0  0  0  0
  -24.5875  -30.7096   25.7793 H   0  0  0  0  0  0
  -24.8922  -32.2904   26.4894 H   0  0  0  0  0  0
  -25.8038  -30.8898   27.0234 H   0  0  0  0  0  0
  -26.2896  -29.6772   24.1177 H   0  0  0  0  0  0
  -27.3990  -29.7243   25.4681 H   0  0  0  0  0  0
  -27.8778  -30.4287   23.9419 H   0  0  0  0  0  0
  -27.2638  -33.3610   26.2096 H   0  0  0  0  0  0
  -28.3847  -32.6897   25.0339 H   0  0  0  0  0  0
  -28.0707  -31.8436   26.5420 H   0  0  0  0  0  0
  -28.2592  -38.0112   24.7515 H   0  0  0  0  0  0
  -28.1081  -36.2644   24.6274 H   0  0  0  0  0  0
  -27.2308  -37.1443   25.8869 H   0  0  0  0  0  0
  -20.9359  -29.8783   21.6922 H   0  0  0  0  0  0
  -26.0170  -38.2865   24.1414 H   0  0  0  0  0  0
  -31.8602  -17.3082   19.7940 H   0  0  0  0  0  0
  -31.8306  -19.7434   19.5523 H   0  0  0  0  0  0
  -27.9270  -17.4854   21.5514 H   0  0  0  0  0  0
  -30.0869  -24.2585   20.8705 H   0  0  0  0  0  0
  -29.6558  -24.0408   19.2037 H   0  0  0  0  0  0
  -27.6780  -24.9194   21.3744 H   0  0  0  0  0  0
  -27.3178  -24.6505   19.6997 H   0  0  0  0  0  0
  -28.0446  -22.1532   19.9005 H   0  0  0  0  0  0
  -28.6236  -22.3281   21.5461 H   0  0  0  0  0  0
  -28.9203  -15.3590   21.2197 H   0  0  0  0  0  0
  1 25  1  0  0  0
  1 30  2  0  0  0
  1 80  1  0  0  0
  2  3  1  0  0  0
  2 25  1  0  0  0
  2 83  1  0  0  0
  2 84  1  0  0  0
  3  4  1  0  0  0
  3 85  1  0  0  0
  3 86  1  0  0  0
  4  5  1  0  0  0
  4 87  1  0  0  0
  4 88  1  0  0  0
  5  6  1  0  0  0
  5 26  1  0  0  0
  5 89  1  0  0  0
  6 25  1  0  0  0
  6 90  1  0  0  0
  6 91  1  0  0  0
  7  8  2  0  0  0
  7 26  1  0  0  0
  7 29  1  0  0  0
  8  9  1  0  0  0
  8 22  1  0  0  0
  9 10  1  0  0  0
  9 27  2  0  0  0
 10 11  2  0  0  0
 10 15  1  0  0  0
 11 12  1  0  0  0
 11 92  1  0  0  0
 12 13  2  0  0  0
 12 93  1  0  0  0
 13 14  1  0  0  0
 13 31  1  0  0  0
 14 15  2  0  0  0
 14 94  1  0  0  0
 15 95  1  0  0  0
 16 17  2  0  0  0
 16 21  1  0  0  0
 16 31  1  0  0  0
 17 18  1  0  0  0
 17 96  1  0  0  0
 18 19  2  0  0  0
 18 97  1  0  0  0
 19 20  1  0  0  0
 19 24  1  0  0  0
 20 21  2  0  0  0
 20 98  1  0  0  0
 21 23  1  0  0  0
 22 28  1  0  0  0
 22 32  2  0  0  0
 26 27  1  0  0  0
 28 99  1  0  0  0
 28100  1  0  0  0
 29101  1  0  0  0
 29102  1  0  0  0
 33 34  1  0  0  0
 33 66  1  0  0  0
 33 70  2  0  0  0
 34 36  1  0  0  0
 34 59  1  0  0  0
 34103  1  0  0  0
 35 44  2  0  0  0
 35 45  1  0  0  0
 35 68  1  0  0  0
 36 56  1  0  0  0
 36104  1  0  0  0
 37 39  1  0  0  0
 37 47  1  0  0  0
 37 66  1  0  0  0
 37105  1  0  0  0
 38 43  2  0  0  0
 38 46  1  0  0  0
 38 47  1  0  0  0
 39 64  1  0  0  0
 39 67  2  0  0  0
 40 52  1  0  0  0
 40 53  2  0  0  0
 40 58  1  0  0  0
 41106  1  0  0  0
 41107  1  0  0  0
 41108  1  0  0  0
 41 48  1  0  0  0
 42 43  1  0  0  0
 42 66  1  0  0  0
 42109  1  0  0  0
 42110  1  0  0  0
 43 44  1  0  0  0
 44111  1  0  0  0
 45 46  2  0  0  0
 45112  1  0  0  0
 46113  1  0  0  0
 47114  1  0  0  0
 47115  1  0  0  0
 48 56  1  0  0  0
 48 65  1  0  0  0
 48116  1  0  0  0
 49 50  1  0  0  0
 49 53  1  0  0  0
 49 64  1  0  0  0
 49117  1  0  0  0
 50 51  1  0  0  0
 50118  1  0  0  0
 50119  1  0  0  0
 51 52  1  0  0  0
 51120  1  0  0  0
 51121  1  0  0  0
 52122  1  0  0  0
 52123  1  0  0  0
 53 54  1  0  0  0
 54 55  2  0  0  0
 54124  1  0  0  0
 55 57  1  0  0  0
 55125  1  0  0  0
 56 69  2  0  0  0
 57 58  2  0  0  0
 57126  1  0  0  0
 58127  1  0  0  0
 59 60  1  0  0  0
 59 61  1  0  0  0
 59 62  1  0  0  0
 60128  1  0  0  0
 60129  1  0  0  0
 60130  1  0  0  0
 61131  1  0  0  0
 61132  1  0  0  0
 61133  1  0  0  0
 62134  1  0  0  0
 62135  1  0  0  0
 62136  1  0  0  0
 63 65  1  0  0  0
 63137  1  0  0  0
 63138  1  0  0  0
 63139  1  0  0  0
 64140  1  0  0  0
 65141  1  0  0  0
 68 78  1  0  0  0
 71 72  2  0  0  0
 71 74  1  0  0  0
 71142  1  0  0  0
 72 75  1  0  0  0
 72143  1  0  0  0
 73 74  2  0  0  0
 73 76  1  0  0  0
 73144  1  0  0  0
 74 80  1  0  0  0
 75 76  2  0  0  0
 75 81  1  0  0  0
 76 82  1  0  0  0
 77 78  1  0  0  0
 77 79  1  0  0  0
 77145  1  0  0  0
 77146  1  0  0  0
 78147  1  0  0  0
 78148  1  0  0  0
 79 81  1  0  0  0
 79149  1  0  0  0
 79150  1  0  0  0
 80151  1  0  0  0
M  ISO  4   1 100  68 101  78 101  80 100
M  END
> <chiral flag>
0

> <version>
0

> <s_m_source_file>
/data/baiqing/PycharmProjects/Reinvent-master-3.2/result/LINK_invent/BTK/process_docking_weight1_custom_sum_contain_oxygen_bond_distance_aromatic_linkinvent_7_9_3/rearranged_h_0007.sdf

> <i_m_source_file_index>
88

> <r_mmod_Potential_Energy-OPLS-2005>
74.7860946655273

> <r_mmod_Stretch_Energy-OPLS-2005>
79.5826568603516

> <r_mmod_Bend_Energy-OPLS-2005>
147.580917358398

> <r_mmod_Torsional_Energy-OPLS-2005>
214.559097290039

> <r_mmod_Improper_Torsional_Energy-OPLS-2005>
3.90157985687256

> <r_mmod_Van_der_Waal_Energy-OPLS-2005>
146.884353637695

> <r_mmod_Electrostatic_Energy-OPLS-2005>
-358.382598876953

> <r_mmod_Solvation_Energy-OPLS-2005>
-207.118133544922

> <b_mmod_Minimization_Converged-OPLS-2005>
0

> <r_mmod_RMS_Derivative-OPLS-2005>
1.06894218921661

$$$$
88
                    3D
 Structure written by MMmdl.
158166  0  0  1  0            999 V2000
  -30.6658  -14.4617   20.5531 C   0  0  0  0  0  0
  -30.4309  -12.2953   19.4032 C   0  0  0  0  0  0
  -29.4939  -12.5089   18.1941 C   0  0  0  0  0  0
  -28.0142  -12.3649   18.6090 C   0  0  0  0  0  0
  -27.6645  -13.1934   19.8734 C   0  0  2  0  0  0
  -28.7063  -12.9408   20.9858 C   0  0  0  0  0  0
  -25.2618  -13.8124   20.5651 C   0  0  0  0  0  0
  -24.1848  -13.0428   20.9141 C   0  0  0  0  0  0
  -24.6377  -11.6885   20.8737 C   0  0  0  0  0  0
  -23.9042  -10.4278   21.0408 C   0  0  0  0  0  0
  -24.3594   -9.4196   21.9185 C   0  0  0  0  0  0
  -23.6270   -8.2242   22.0770 C   0  0  0  0  0  0
  -22.4262   -8.0273   21.3550 C   0  0  0  0  0  0
  -21.9882   -9.0253   20.4665 C   0  0  0  0  0  0
  -22.7212  -10.2128   20.3062 C   0  0  0  0  0  0
  -21.6863   -6.0717   22.5269 C   0  0  0  0  0  0
  -21.4019   -6.5630   23.8198 C   0  0  0  0  0  0
  -21.3659   -5.6789   24.9163 C   0  0  0  0  0  0
  -21.6045   -4.3054   24.7227 C   0  0  0  0  0  0
  -21.8815   -3.8131   23.4356 C   0  0  0  0  0  0
  -21.9189   -4.6941   22.3405 C   0  0  0  0  0  0
  -22.7874  -13.5252   21.1798 C   0  0  0  0  0  0
  -22.1659   -4.2121   21.0988 F   0  0  0  0  0  0
  -21.5623   -3.4543   25.7749 F   0  0  0  0  0  0
  -30.0395  -13.2601   20.4415 N   0  0  0  0  0  0
  -26.3033  -12.9268   20.3332 N   0  0  0  0  0  0
  -25.9291  -11.6444   20.5736 N   0  0  0  0  0  0
  -22.0519  -12.8270   22.0376 N   0  0  0  0  0  0
  -25.4358  -15.1840   20.4085 N   0  0  0  0  0  0
  -31.8087  -14.6677   20.1317 O   0  0  0  0  0  0
  -21.6638   -6.8864   21.4238 O   0  0  0  0  0  0
  -22.3578  -14.5574   20.6661 O   0  0  0  0  0  0
  -24.6131  -31.8696   23.2100 C   0  0  0  0  0  0
  -25.9042  -32.4826   23.8389 C   0  0  1  0  0  0
  -27.2436  -27.4658   20.0892 C   0  0  0  0  0  0
  -25.5893  -33.8615   24.2327 N   0  0  0  0  0  0
  -23.3992  -30.4943   21.5498 C   0  0  2  0  0  0
  -24.8507  -28.9622   20.1124 C   0  0  0  0  0  0
  -22.7395  -29.4671   22.4986 C   0  0  0  0  0  0
  -18.0289  -28.1368   22.8456 C   0  0  0  0  0  0
  -24.1502  -36.7314   23.2640 C   0  0  0  0  0  0
  -25.9247  -30.8450   21.3609 C   0  0  0  0  0  0
  -26.0088  -29.4811   20.7071 C   0  0  0  0  0  0
  -27.2118  -28.7405   20.6949 C   0  0  0  0  0  0
  -26.0747  -26.9537   19.4898 C   0  0  0  0  0  0
  -24.8765  -27.6937   19.5024 C   0  0  0  0  0  0
  -23.6078  -29.8224   20.1639 C   0  0  0  0  0  0
  -25.4107  -36.3102   24.0350 C   0  0  1  0  0  0
  -20.5871  -28.3661   23.1318 C   0  0  2  0  0  0
  -20.6785  -26.9408   22.5349 C   0  0  0  0  0  0
  -19.5788  -26.6519   21.5080 C   0  0  0  0  0  0
  -18.1956  -26.7976   22.1497 C   0  0  0  0  0  0
  -19.1529  -28.8809   23.2915 C   0  0  0  0  0  0
  -18.9445  -30.1393   23.8963 C   0  0  0  0  0  0
  -17.6436  -30.6518   24.0603 C   0  0  0  0  0  0
  -25.9022  -34.9474   23.5125 C   0  0  0  0  0  0
  -16.5323  -29.9042   23.6296 C   0  0  0  0  0  0
  -16.7276  -28.6478   23.0298 C   0  0  0  0  0  0
  -26.4470  -31.6604   25.0723 C   0  0  0  0  0  0
  -25.3744  -31.3715   26.1481 C   0  0  0  0  0  0
  -27.0298  -30.3051   24.6099 C   0  0  0  0  0  0
  -27.6070  -32.4295   25.7472 C   0  0  0  0  0  0
  -27.5576  -37.1812   24.8462 C   0  0  0  0  0  0
  -21.4120  -29.3080   22.3758 N   0  0  0  0  0  0
  -26.4289  -37.3782   23.9412 N   0  0  0  0  0  0
  -24.6632  -31.0819   22.0998 N   0  0  0  0  0  0
  -23.4179  -28.8178   23.2991 O   0  0  0  0  0  0
  -28.3891  -26.7088   20.0895 O   0  0  0  0  0  0
  -26.5582  -34.8914   22.4684 O   0  0  0  0  0  0
  -23.5338  -32.1421   23.7543 O   0  0  0  0  0  0
  -29.2186  -19.0352   21.7315 C   0  0  0  0  0  0
  -29.3772  -17.6442   21.8974 C   0  0  0  0  0  0
  -30.0540  -18.8476   19.4577 C   0  0  0  0  0  0
  -29.5521  -19.6521   20.5054 C   0  0  0  0  0  0
  -29.8782  -16.8375   20.8529 C   0  0  0  0  0  0
  -30.2201  -17.4431   19.6113 C   0  0  0  0  0  0
  -29.2618  -21.1155   20.2821 C   0  0  0  0  0  0
  -31.4454  -17.2324   17.5665 C   0  0  0  0  0  0
  -29.0584  -24.3580   20.5525 C   0  0  0  0  0  0
  -28.8867  -23.2307   21.6021 C   0  0  0  0  0  0
  -28.3433  -25.6359   21.0356 C   0  0  0  0  0  0
  -29.8938  -15.4265   21.0873 N   0  0  0  0  0  0
  -29.5018  -21.9255   21.3216 N   0  0  0  0  0  0
  -28.8040  -21.5076   19.2080 O   0  0  0  0  0  0
  -30.6314  -16.6424   18.5703 O   0  0  0  0  0  0
  -31.4739  -12.4080   19.1006 H   0  0  0  0  0  0
  -30.3372  -11.2755   19.7836 H   0  0  0  0  0  0
  -29.7297  -11.7937   17.4043 H   0  0  0  0  0  0
  -29.6561  -13.5010   17.7700 H   0  0  0  0  0  0
  -27.8224  -11.3076   18.7972 H   0  0  0  0  0  0
  -27.3632  -12.6492   17.7812 H   0  0  0  0  0  0
  -27.7159  -14.2438   19.5892 H   0  0  0  0  0  0
  -28.6836  -11.8942   21.2903 H   0  0  0  0  0  0
  -28.4656  -13.5058   21.8874 H   0  0  0  0  0  0
  -25.2748   -9.5676   22.4737 H   0  0  0  0  0  0
  -23.9980   -7.4645   22.7497 H   0  0  0  0  0  0
  -21.0806   -8.8787   19.8983 H   0  0  0  0  0  0
  -22.3682  -10.9671   19.6169 H   0  0  0  0  0  0
  -21.2021   -7.6138   23.9698 H   0  0  0  0  0  0
  -21.1484   -6.0520   25.9066 H   0  0  0  0  0  0
  -22.0597   -2.7591   23.2872 H   0  0  0  0  0  0
  -22.4144  -11.9942   22.4783 H   0  0  0  0  0  0
  -21.1147  -13.1333   22.2600 H   0  0  0  0  0  0
  -24.6723  -15.8419   20.5203 H   0  0  0  0  0  0
  -26.2903  -15.6235   20.0923 H   0  0  0  0  0  0
  -26.7141  -32.5572   23.1180 H   0  0  0  0  0  0
  -25.0101  -33.9752   25.0517 H   0  0  0  0  0  0
  -22.6886  -31.3117   21.4090 H   0  0  0  0  0  0
  -23.3745  -35.9667   23.3309 H   0  0  0  0  0  0
  -24.3608  -36.8900   22.2052 H   0  0  0  0  0  0
  -23.7254  -37.6533   23.6624 H   0  0  0  0  0  0
  -26.0370  -31.6154   20.5972 H   0  0  0  0  0  0
  -26.8120  -30.8947   21.9812 H   0  0  0  0  0  0
  -28.1062  -29.1345   21.1579 H   0  0  0  0  0  0
  -26.0954  -25.9783   19.0249 H   0  0  0  0  0  0
  -23.9856  -27.2862   19.0449 H   0  0  0  0  0  0
  -23.7063  -30.5942   19.3994 H   0  0  0  0  0  0
  -22.7355  -29.2340   19.8733 H   0  0  0  0  0  0
  -25.1274  -36.1972   25.0840 H   0  0  0  0  0  0
  -20.9961  -28.3212   24.1441 H   0  0  0  0  0  0
  -20.5658  -26.2215   23.3484 H   0  0  0  0  0  0
  -21.6659  -26.7488   22.1131 H   0  0  0  0  0  0
  -19.6972  -25.6519   21.0894 H   0  0  0  0  0  0
  -19.6707  -27.3466   20.6720 H   0  0  0  0  0  0
  -18.0336  -26.0053   22.8810 H   0  0  0  0  0  0
  -17.4255  -26.6775   21.3856 H   0  0  0  0  0  0
  -19.7897  -30.7197   24.2409 H   0  0  0  0  0  0
  -17.4973  -31.6195   24.5220 H   0  0  0  0  0  0
  -15.5294  -30.2928   23.7574 H   0  0  0  0  0  0
  -15.8702  -28.0798   22.6947 H   0  0  0  0  0  0
  -24.5914  -30.7056   25.7822 H   0  0  0  0  0  0
  -24.8952  -32.2895   26.4913 H   0  0  0  0  0  0
  -25.8117  -30.8895   27.0241 H   0  0  0  0  0  0
  -26.2855  -29.6806   24.1158 H   0  0  0  0  0  0
  -27.4077  -29.7276   25.4545 H   0  0  0  0  0  0
  -27.8677  -30.4354   23.9244 H   0  0  0  0  0  0
  -27.2706  -33.3570   26.2111 H   0  0  0  0  0  0
  -28.3860  -32.6880   25.0285 H   0  0  0  0  0  0
  -28.0776  -31.8374   26.5336 H   0  0  0  0  0  0
  -28.2608  -38.0093   24.7482 H   0  0  0  0  0  0
  -28.1045  -36.2625   24.6306 H   0  0  0  0  0  0
  -27.2305  -37.1493   25.8867 H   0  0  0  0  0  0
  -20.9269  -29.8913   21.7087 H   0  0  0  0  0  0
  -26.0190  -38.2871   24.1383 H   0  0  0  0  0  0
  -28.8005  -19.6155   22.5439 H   0  0  0  0  0  0
  -29.0836  -17.1942   22.8358 H   0  0  0  0  0  0
  -30.2692  -19.3251   18.5129 H   0  0  0  0  0  0
  -31.9527  -16.4465   17.0062 H   0  0  0  0  0  0
  -32.2185  -17.8713   17.9999 H   0  0  0  0  0  0
  -30.8487  -17.8097   16.8594 H   0  0  0  0  0  0
  -30.1145  -24.5650   20.3795 H   0  0  0  0  0  0
  -28.6268  -24.0611   19.5963 H   0  0  0  0  0  0
  -27.8226  -23.0658   21.7795 H   0  0  0  0  0  0
  -29.2985  -23.5730   22.5533 H   0  0  0  0  0  0
  -28.7942  -25.9894   21.9639 H   0  0  0  0  0  0
  -27.3126  -25.3707   21.2803 H   0  0  0  0  0  0
  -29.0812  -15.0704   21.5671 H   0  0  0  0  0  0
  -29.9519  -21.4816   22.1117 H   0  0  0  0  0  0
  1 25  1  0  0  0
  1 30  2  0  0  0
  1 82  1  0  0  0
  2  3  1  0  0  0
  2 25  1  0  0  0
  2 86  1  0  0  0
  2 87  1  0  0  0
  3  4  1  0  0  0
  3 88  1  0  0  0
  3 89  1  0  0  0
  4  5  1  0  0  0
  4 90  1  0  0  0
  4 91  1  0  0  0
  5  6  1  0  0  0
  5 26  1  0  0  0
  5 92  1  0  0  0
  6 25  1  0  0  0
  6 93  1  0  0  0
  6 94  1  0  0  0
  7  8  2  0  0  0
  7 26  1  0  0  0
  7 29  1  0  0  0
  8  9  1  0  0  0
  8 22  1  0  0  0
  9 10  1  0  0  0
  9 27  2  0  0  0
 10 11  2  0  0  0
 10 15  1  0  0  0
 11 12  1  0  0  0
 11 95  1  0  0  0
 12 13  2  0  0  0
 12 96  1  0  0  0
 13 14  1  0  0  0
 13 31  1  0  0  0
 14 15  2  0  0  0
 14 97  1  0  0  0
 15 98  1  0  0  0
 16 17  2  0  0  0
 16 21  1  0  0  0
 16 31  1  0  0  0
 17 18  1  0  0  0
 17 99  1  0  0  0
 18 19  2  0  0  0
 18100  1  0  0  0
 19 20  1  0  0  0
 19 24  1  0  0  0
 20 21  2  0  0  0
 20101  1  0  0  0
 21 23  1  0  0  0
 22 28  1  0  0  0
 22 32  2  0  0  0
 26 27  1  0  0  0
 28102  1  0  0  0
 28103  1  0  0  0
 29104  1  0  0  0
 29105  1  0  0  0
 33 34  1  0  0  0
 33 66  1  0  0  0
 33 70  2  0  0  0
 34 36  1  0  0  0
 34 59  1  0  0  0
 34106  1  0  0  0
 35 44  2  0  0  0
 35 45  1  0  0  0
 35 68  1  0  0  0
 36 56  1  0  0  0
 36107  1  0  0  0
 37 39  1  0  0  0
 37 47  1  0  0  0
 37 66  1  0  0  0
 37108  1  0  0  0
 38 43  2  0  0  0
 38 46  1  0  0  0
 38 47  1  0  0  0
 39 64  1  0  0  0
 39 67  2  0  0  0
 40 52  1  0  0  0
 40 53  2  0  0  0
 40 58  1  0  0  0
 41109  1  0  0  0
 41110  1  0  0  0
 41111  1  0  0  0
 41 48  1  0  0  0
 42 43  1  0  0  0
 42 66  1  0  0  0
 42112  1  0  0  0
 42113  1  0  0  0
 43 44  1  0  0  0
 44114  1  0  0  0
 45 46  2  0  0  0
 45115  1  0  0  0
 46116  1  0  0  0
 47117  1  0  0  0
 47118  1  0  0  0
 48 56  1  0  0  0
 48 65  1  0  0  0
 48119  1  0  0  0
 49 50  1  0  0  0
 49 53  1  0  0  0
 49 64  1  0  0  0
 49120  1  0  0  0
 50 51  1  0  0  0
 50121  1  0  0  0
 50122  1  0  0  0
 51 52  1  0  0  0
 51123  1  0  0  0
 51124  1  0  0  0
 52125  1  0  0  0
 52126  1  0  0  0
 53 54  1  0  0  0
 54 55  2  0  0  0
 54127  1  0  0  0
 55 57  1  0  0  0
 55128  1  0  0  0
 56 69  2  0  0  0
 57 58  2  0  0  0
 57129  1  0  0  0
 58130  1  0  0  0
 59 60  1  0  0  0
 59 61  1  0  0  0
 59 62  1  0  0  0
 60131  1  0  0  0
 60132  1  0  0  0
 60133  1  0  0  0
 61134  1  0  0  0
 61135  1  0  0  0
 61136  1  0  0  0
 62137  1  0  0  0
 62138  1  0  0  0
 62139  1  0  0  0
 63 65  1  0  0  0
 63140  1  0  0  0
 63141  1  0  0  0
 63142  1  0  0  0
 64143  1  0  0  0
 65144  1  0  0  0
 68 81  1  0  0  0
 71 72  2  0  0  0
 71 74  1  0  0  0
 71145  1  0  0  0
 72 75  1  0  0  0
 72146  1  0  0  0
 73 74  2  0  0  0
 73 76  1  0  0  0
 73147  1  0  0  0
 74 77  1  0  0  0
 75 76  2  0  0  0
 75 82  1  0  0  0
 76 85  1  0  0  0
 77 83  1  0  0  0
 77 84  2  0  0  0
 78 85  1  0  0  0
 78148  1  0  0  0
 78149  1  0  0  0
 78150  1  0  0  0
 79 80  1  0  0  0
 79 81  1  0  0  0
 79151  1  0  0  0
 79152  1  0  0  0
 80 83  1  0  0  0
 80153  1  0  0  0
 80154  1  0  0  0
 81155  1  0  0  0
 81156  1  0  0  0
 82157  1  0  0  0
 83158  1  0  0  0
M  ISO  4   1 100  68 101  81 101  82 100
M  END
> <chiral flag>
0

> <version>
0

> <s_m_source_file>
/data/baiqing/PycharmProjects/Reinvent-master-3.2/result/LINK_invent/BTK/process_docking_weight1_custom_sum_contain_oxygen_bond_distance_aromatic_linkinvent_7_9_3/rearranged_h_0007.sdf

> <i_m_source_file_index>
89

> <r_mmod_Potential_Energy-OPLS-2005>
-109.678520202637

> <r_mmod_Stretch_Energy-OPLS-2005>
36.2212448120117

> <r_mmod_Bend_Energy-OPLS-2005>
104.924278259277

> <r_mmod_Torsional_Energy-OPLS-2005>
271.041534423828

> <r_mmod_Improper_Torsional_Energy-OPLS-2005>
4.87477970123291

> <r_mmod_Van_der_Waal_Energy-OPLS-2005>
158.920883178711

> <r_mmod_Electrostatic_Energy-OPLS-2005>
-453.193115234375

> <r_mmod_Solvation_Energy-OPLS-2005>
-244.056106567383

> <b_mmod_Minimization_Converged-OPLS-2005>
0

> <r_mmod_RMS_Derivative-OPLS-2005>
3.45968723297119

$$$$
89
                    3D
 Structure written by MMmdl.
157165  0  0  1  0            999 V2000
  -30.6672  -14.4993   20.5428 C   0  0  0  0  0  0
  -30.4310  -12.3097   19.4294 C   0  0  0  0  0  0
  -29.4973  -12.4841   18.2117 C   0  0  0  0  0  0
  -28.0158  -12.3591   18.6229 C   0  0  0  0  0  0
  -27.6634  -13.1940   19.8829 C   0  0  2  0  0  0
  -28.7071  -12.9761   21.0010 C   0  0  0  0  0  0
  -25.2600  -13.8120   20.5702 C   0  0  0  0  0  0
  -24.1831  -13.0414   20.9174 C   0  0  0  0  0  0
  -24.6372  -11.6874   20.8743 C   0  0  0  0  0  0
  -23.9033  -10.4268   21.0408 C   0  0  0  0  0  0
  -24.3591   -9.4187   21.9184 C   0  0  0  0  0  0
  -23.6274   -8.2222   22.0753 C   0  0  0  0  0  0
  -22.4257   -8.0263   21.3544 C   0  0  0  0  0  0
  -21.9890   -9.0237   20.4644 C   0  0  0  0  0  0
  -22.7211  -10.2116   20.3050 C   0  0  0  0  0  0
  -21.6843   -6.0723   22.5281 C   0  0  0  0  0  0
  -21.4006   -6.5624   23.8216 C   0  0  0  0  0  0
  -21.3655   -5.6777   24.9180 C   0  0  0  0  0  0
  -21.6045   -4.3045   24.7226 C   0  0  0  0  0  0
  -21.8816   -3.8137   23.4348 C   0  0  0  0  0  0
  -21.9190   -4.6953   22.3407 C   0  0  0  0  0  0
  -22.7856  -13.5233   21.1837 C   0  0  0  0  0  0
  -22.1658   -4.2141   21.0984 F   0  0  0  0  0  0
  -21.5634   -3.4526   25.7740 F   0  0  0  0  0  0
  -30.0359  -13.2957   20.4476 N   0  0  0  0  0  0
  -26.3029  -12.9262   20.3419 N   0  0  0  0  0  0
  -25.9299  -11.6432   20.5799 N   0  0  0  0  0  0
  -22.0481  -12.8239   22.0391 N   0  0  0  0  0  0
  -25.4351  -15.1836   20.4120 N   0  0  0  0  0  0
  -31.7964  -14.7041   20.0859 O   0  0  0  0  0  0
  -21.6621   -6.8863   21.4242 O   0  0  0  0  0  0
  -22.3555  -14.5549   20.6690 O   0  0  0  0  0  0
  -24.6140  -31.8680   23.2101 C   0  0  0  0  0  0
  -25.9037  -32.4824   23.8391 C   0  0  1  0  0  0
  -27.2386  -27.4402   20.1021 C   0  0  0  0  0  0
  -25.5901  -33.8622   24.2324 N   0  0  0  0  0  0
  -23.4031  -30.4897   21.5494 C   0  0  2  0  0  0
  -24.8548  -28.9576   20.1108 C   0  0  0  0  0  0
  -22.7406  -29.4644   22.4984 C   0  0  0  0  0  0
  -18.0267  -28.1361   22.8493 C   0  0  0  0  0  0
  -24.1485  -36.7305   23.2634 C   0  0  0  0  0  0
  -25.9311  -30.8356   21.3635 C   0  0  0  0  0  0
  -26.0127  -29.4706   20.7110 C   0  0  0  0  0  0
  -27.2102  -28.7183   20.7072 C   0  0  0  0  0  0
  -26.0707  -26.9414   19.4920 C   0  0  0  0  0  0
  -24.8784  -27.6918   19.4978 C   0  0  0  0  0  0
  -23.6135  -29.8209   20.1636 C   0  0  0  0  0  0
  -25.4103  -36.3113   24.0343 C   0  0  1  0  0  0
  -20.5858  -28.3646   23.1319 C   0  0  2  0  0  0
  -20.6755  -26.9386   22.5416 C   0  0  0  0  0  0
  -19.5742  -26.6373   21.5197 C   0  0  0  0  0  0
  -18.1919  -26.7909   22.1613 C   0  0  0  0  0  0
  -19.1519  -28.8816   23.2901 C   0  0  0  0  0  0
  -18.9449  -30.1424   23.8906 C   0  0  0  0  0  0
  -17.6457  -30.6579   24.0549 C   0  0  0  0  0  0
  -25.9035  -34.9479   23.5127 C   0  0  0  0  0  0
  -16.5345  -29.9076   23.6326 C   0  0  0  0  0  0
  -16.7257  -28.6485   23.0360 C   0  0  0  0  0  0
  -26.4473  -31.6594   25.0714 C   0  0  0  0  0  0
  -25.3746  -31.3704   26.1470 C   0  0  0  0  0  0
  -27.0295  -30.3036   24.6082 C   0  0  0  0  0  0
  -27.6054  -32.4307   25.7480 C   0  0  0  0  0  0
  -27.5593  -37.1787   24.8452 C   0  0  0  0  0  0
  -21.4132  -29.3024   22.3727 N   0  0  0  0  0  0
  -26.4278  -37.3811   23.9442 N   0  0  0  0  0  0
  -24.6669  -31.0782   22.0995 N   0  0  0  0  0  0
  -23.4183  -28.8186   23.3021 O   0  0  0  0  0  0
  -28.3626  -26.6456   20.1358 O   0  0  0  0  0  0
  -26.5586  -34.8935   22.4684 O   0  0  0  0  0  0
  -23.5331  -32.1427   23.7495 O   0  0  0  0  0  0
  -30.2623  -17.8271   21.7347 C   0  0  0  0  0  0
  -30.1442  -19.2207   21.5083 C   0  0  0  0  0  0
  -29.3833  -18.7721   19.2560 C   0  0  0  0  0  0
  -29.5124  -17.3806   19.4622 C   0  0  0  0  0  0
  -29.9456  -16.8879   20.7241 C   0  0  0  0  0  0
  -29.6750  -19.7104   20.2641 C   0  0  0  0  0  0
  -29.1284  -16.4685   18.3101 C   0  0  0  0  0  0
  -29.4038  -24.6365   21.2713 C   0  0  0  0  0  0
  -29.0453  -23.3956   20.4142 C   0  0  0  0  0  0
  -28.3624  -25.7855   21.2848 C   0  0  0  0  0  0
  -29.7150  -22.0777   20.8912 C   0  0  0  0  0  0
  -29.9145  -15.4940   21.0554 N   0  0  0  0  0  0
  -29.4482  -21.0398   19.9448 O   0  0  0  0  0  0
  -31.4739  -12.4189   19.1268 H   0  0  0  0  0  0
  -30.3448  -11.3006   19.8356 H   0  0  0  0  0  0
  -29.7338  -11.7397   17.4496 H   0  0  0  0  0  0
  -29.6709  -13.4525   17.7442 H   0  0  0  0  0  0
  -27.8167  -11.3039   18.8149 H   0  0  0  0  0  0
  -27.3700  -12.6434   17.7919 H   0  0  0  0  0  0
  -27.7045  -14.2403   19.5943 H   0  0  0  0  0  0
  -28.6904  -11.9375   21.3364 H   0  0  0  0  0  0
  -28.4647  -13.5680   21.8849 H   0  0  0  0  0  0
  -25.2736   -9.5662   22.4752 H   0  0  0  0  0  0
  -23.9987   -7.4605   22.7463 H   0  0  0  0  0  0
  -21.0830   -8.8749   19.8943 H   0  0  0  0  0  0
  -22.3676  -10.9652   19.6151 H   0  0  0  0  0  0
  -21.1987   -7.6128   23.9720 H   0  0  0  0  0  0
  -21.1482   -6.0503   25.9085 H   0  0  0  0  0  0
  -22.0598   -2.7600   23.2847 H   0  0  0  0  0  0
  -22.4071  -11.9893   22.4792 H   0  0  0  0  0  0
  -21.1107  -13.1302   22.2586 H   0  0  0  0  0  0
  -24.6723  -15.8422   20.5241 H   0  0  0  0  0  0
  -26.3003  -15.6257   20.1292 H   0  0  0  0  0  0
  -26.7111  -32.5548   23.1159 H   0  0  0  0  0  0
  -25.0076  -33.9789   25.0486 H   0  0  0  0  0  0
  -22.6902  -31.3053   21.4096 H   0  0  0  0  0  0
  -23.3771  -35.9610   23.3260 H   0  0  0  0  0  0
  -24.3589  -36.8954   22.2058 H   0  0  0  0  0  0
  -23.7200  -37.6485   23.6662 H   0  0  0  0  0  0
  -26.0420  -31.6027   20.5957 H   0  0  0  0  0  0
  -26.8194  -30.8904   21.9807 H   0  0  0  0  0  0
  -28.1012  -29.1051   21.1816 H   0  0  0  0  0  0
  -26.0817  -25.9623   19.0333 H   0  0  0  0  0  0
  -23.9880  -27.2886   19.0353 H   0  0  0  0  0  0
  -23.7179  -30.5958   19.4033 H   0  0  0  0  0  0
  -22.7401  -29.2370   19.8685 H   0  0  0  0  0  0
  -25.1271  -36.1963   25.0829 H   0  0  0  0  0  0
  -20.9954  -28.3207   24.1439 H   0  0  0  0  0  0
  -20.5650  -26.2253   23.3595 H   0  0  0  0  0  0
  -21.6627  -26.7422   22.1217 H   0  0  0  0  0  0
  -19.6907  -25.6284   21.1226 H   0  0  0  0  0  0
  -19.6694  -27.3186   20.6730 H   0  0  0  0  0  0
  -17.4199  -26.6663   21.4002 H   0  0  0  0  0  0
  -18.0317  -26.0036   22.8989 H   0  0  0  0  0  0
  -19.7930  -30.7215   24.2300 H   0  0  0  0  0  0
  -17.5021  -31.6269   24.5133 H   0  0  0  0  0  0
  -15.5344  -30.2983   23.7639 H   0  0  0  0  0  0
  -15.8652  -28.0792   22.7097 H   0  0  0  0  0  0
  -24.5895  -30.7080   25.7805 H   0  0  0  0  0  0
  -24.8967  -32.2865   26.4948 H   0  0  0  0  0  0
  -25.8103  -30.8838   27.0208 H   0  0  0  0  0  0
  -26.2825  -29.6806   24.1147 H   0  0  0  0  0  0
  -27.4081  -29.7260   25.4528 H   0  0  0  0  0  0
  -27.8659  -30.4352   23.9212 H   0  0  0  0  0  0
  -27.2681  -33.3602   26.2077 H   0  0  0  0  0  0
  -28.3857  -32.6872   25.0302 H   0  0  0  0  0  0
  -28.0730  -31.8416   26.5382 H   0  0  0  0  0  0
  -28.2550  -38.0147   24.7603 H   0  0  0  0  0  0
  -28.1143  -36.2681   24.6127 H   0  0  0  0  0  0
  -27.2329  -37.1275   25.8855 H   0  0  0  0  0  0
  -20.9283  -29.8739   21.6951 H   0  0  0  0  0  0
  -26.0158  -38.2873   24.1509 H   0  0  0  0  0  0
  -30.5791  -17.4818   22.7093 H   0  0  0  0  0  0
  -30.3926  -19.8947   22.3152 H   0  0  0  0  0  0
  -29.0246  -19.1353   18.3033 H   0  0  0  0  0  0
  -29.1038  -17.0177   17.3685 H   0  0  0  0  0  0
  -28.1351  -16.0524   18.4652 H   0  0  0  0  0  0
  -29.8464  -15.6629   18.1810 H   0  0  0  0  0  0
  -30.3864  -25.0187   20.9947 H   0  0  0  0  0  0
  -29.5040  -24.2991   22.3043 H   0  0  0  0  0  0
  -29.3124  -23.5944   19.3758 H   0  0  0  0  0  0
  -27.9653  -23.2479   20.4219 H   0  0  0  0  0  0
  -28.5637  -26.4155   22.1535 H   0  0  0  0  0  0
  -27.3710  -25.3608   21.4541 H   0  0  0  0  0  0
  -29.3194  -21.8176   21.8732 H   0  0  0  0  0  0
  -30.7938  -22.2068   20.9881 H   0  0  0  0  0  0
  -29.0728  -15.1801   21.5153 H   0  0  0  0  0  0
  1 25  1  0  0  0
  1 30  2  0  0  0
  1 82  1  0  0  0
  2  3  1  0  0  0
  2 25  1  0  0  0
  2 84  1  0  0  0
  2 85  1  0  0  0
  3  4  1  0  0  0
  3 86  1  0  0  0
  3 87  1  0  0  0
  4  5  1  0  0  0
  4 88  1  0  0  0
  4 89  1  0  0  0
  5  6  1  0  0  0
  5 26  1  0  0  0
  5 90  1  0  0  0
  6 25  1  0  0  0
  6 91  1  0  0  0
  6 92  1  0  0  0
  7  8  2  0  0  0
  7 26  1  0  0  0
  7 29  1  0  0  0
  8  9  1  0  0  0
  8 22  1  0  0  0
  9 10  1  0  0  0
  9 27  2  0  0  0
 10 11  2  0  0  0
 10 15  1  0  0  0
 11 12  1  0  0  0
 11 93  1  0  0  0
 12 13  2  0  0  0
 12 94  1  0  0  0
 13 14  1  0  0  0
 13 31  1  0  0  0
 14 15  2  0  0  0
 14 95  1  0  0  0
 15 96  1  0  0  0
 16 17  2  0  0  0
 16 21  1  0  0  0
 16 31  1  0  0  0
 17 18  1  0  0  0
 17 97  1  0  0  0
 18 19  2  0  0  0
 18 98  1  0  0  0
 19 20  1  0  0  0
 19 24  1  0  0  0
 20 21  2  0  0  0
 20 99  1  0  0  0
 21 23  1  0  0  0
 22 28  1  0  0  0
 22 32  2  0  0  0
 26 27  1  0  0  0
 28100  1  0  0  0
 28101  1  0  0  0
 29102  1  0  0  0
 29103  1  0  0  0
 33 34  1  0  0  0
 33 66  1  0  0  0
 33 70  2  0  0  0
 34 36  1  0  0  0
 34 59  1  0  0  0
 34104  1  0  0  0
 35 44  2  0  0  0
 35 45  1  0  0  0
 35 68  1  0  0  0
 36 56  1  0  0  0
 36105  1  0  0  0
 37 39  1  0  0  0
 37 47  1  0  0  0
 37 66  1  0  0  0
 37106  1  0  0  0
 38 43  2  0  0  0
 38 46  1  0  0  0
 38 47  1  0  0  0
 39 64  1  0  0  0
 39 67  2  0  0  0
 40 52  1  0  0  0
 40 53  2  0  0  0
 40 58  1  0  0  0
 41107  1  0  0  0
 41108  1  0  0  0
 41109  1  0  0  0
 41 48  1  0  0  0
 42 43  1  0  0  0
 42 66  1  0  0  0
 42110  1  0  0  0
 42111  1  0  0  0
 43 44  1  0  0  0
 44112  1  0  0  0
 45 46  2  0  0  0
 45113  1  0  0  0
 46114  1  0  0  0
 47115  1  0  0  0
 47116  1  0  0  0
 48 56  1  0  0  0
 48 65  1  0  0  0
 48117  1  0  0  0
 49 50  1  0  0  0
 49 53  1  0  0  0
 49 64  1  0  0  0
 49118  1  0  0  0
 50 51  1  0  0  0
 50119  1  0  0  0
 50120  1  0  0  0
 51 52  1  0  0  0
 51121  1  0  0  0
 51122  1  0  0  0
 52123  1  0  0  0
 52124  1  0  0  0
 53 54  1  0  0  0
 54 55  2  0  0  0
 54125  1  0  0  0
 55 57  1  0  0  0
 55126  1  0  0  0
 56 69  2  0  0  0
 57 58  2  0  0  0
 57127  1  0  0  0
 58128  1  0  0  0
 59 60  1  0  0  0
 59 61  1  0  0  0
 59 62  1  0  0  0
 60129  1  0  0  0
 60130  1  0  0  0
 60131  1  0  0  0
 61132  1  0  0  0
 61133  1  0  0  0
 61134  1  0  0  0
 62135  1  0  0  0
 62136  1  0  0  0
 62137  1  0  0  0
 63 65  1  0  0  0
 63138  1  0  0  0
 63139  1  0  0  0
 63140  1  0  0  0
 64141  1  0  0  0
 65142  1  0  0  0
 68 80  1  0  0  0
 71 72  2  0  0  0
 71 75  1  0  0  0
 71143  1  0  0  0
 72 76  1  0  0  0
 72144  1  0  0  0
 73 74  1  0  0  0
 73 76  2  0  0  0
 73145  1  0  0  0
 74 75  2  0  0  0
 74 77  1  0  0  0
 75 82  1  0  0  0
 76 83  1  0  0  0
 77146  1  0  0  0
 77147  1  0  0  0
 77148  1  0  0  0
 78 79  1  0  0  0
 78 80  1  0  0  0
 78149  1  0  0  0
 78150  1  0  0  0
 79 81  1  0  0  0
 79151  1  0  0  0
 79152  1  0  0  0
 80153  1  0  0  0
 80154  1  0  0  0
 81 83  1  0  0  0
 81155  1  0  0  0
 81156  1  0  0  0
 82157  1  0  0  0
M  ISO  4   1 100  68 101  80 101  82 100
M  END
> <chiral flag>
0

> <version>
0

> <s_m_source_file>
/data/baiqing/PycharmProjects/Reinvent-master-3.2/result/LINK_invent/BTK/process_docking_weight1_custom_sum_contain_oxygen_bond_distance_aromatic_linkinvent_7_9_3/rearranged_h_0007.sdf

> <i_m_source_file_index>
90

> <r_mmod_Potential_Energy-OPLS-2005>
-31.660530090332

> <r_mmod_Stretch_Energy-OPLS-2005>
38.593090057373

> <r_mmod_Bend_Energy-OPLS-2005>
106.957901000977

> <r_mmod_Torsional_Energy-OPLS-2005>
271.709167480469

> <r_mmod_Improper_Torsional_Energy-OPLS-2005>
4.71964836120605

> <r_mmod_Van_der_Waal_Energy-OPLS-2005>
144.419555664062

> <r_mmod_Electrostatic_Energy-OPLS-2005>
-402.573059082031

> <r_mmod_Solvation_Energy-OPLS-2005>
-211.166976928711

> <b_mmod_Minimization_Converged-OPLS-2005>
0

> <r_mmod_RMS_Derivative-OPLS-2005>
1.3235239982605

$$$$
90
                    3D
 Structure written by MMmdl.
159167  0  0  1  0            999 V2000
  -30.2544  -15.3978   20.3377 C   0  0  0  0  0  0
  -30.4582  -12.9450   19.4393 C   0  0  0  0  0  0
  -29.5255  -12.5010   18.2847 C   0  0  0  0  0  0
  -28.1320  -12.1287   18.8144 C   0  0  0  0  0  0
  -27.5999  -13.1954   19.7691 C   0  0  2  0  0  0
  -28.5970  -13.4333   20.8923 C   0  0  0  0  0  0
  -25.2493  -13.8071   20.5533 C   0  0  0  0  0  0
  -24.1817  -13.0400   20.9242 C   0  0  0  0  0  0
  -24.6344  -11.6883   20.8774 C   0  0  0  0  0  0
  -23.9063  -10.4299   21.0442 C   0  0  0  0  0  0
  -24.3629   -9.4200   21.9172 C   0  0  0  0  0  0
  -23.6285   -8.2226   22.0775 C   0  0  0  0  0  0
  -22.4247   -8.0279   21.3576 C   0  0  0  0  0  0
  -21.9898   -9.0267   20.4659 C   0  0  0  0  0  0
  -22.7280  -10.2132   20.3073 C   0  0  0  0  0  0
  -21.6839   -6.0736   22.5274 C   0  0  0  0  0  0
  -21.3996   -6.5632   23.8211 C   0  0  0  0  0  0
  -21.3646   -5.6778   24.9171 C   0  0  0  0  0  0
  -21.6043   -4.3051   24.7225 C   0  0  0  0  0  0
  -21.8829   -3.8143   23.4359 C   0  0  0  0  0  0
  -21.9191   -4.6956   22.3403 C   0  0  0  0  0  0
  -22.7870  -13.5239   21.1891 C   0  0  0  0  0  0
  -22.1666   -4.2153   21.0979 F   0  0  0  0  0  0
  -21.5631   -3.4537   25.7735 F   0  0  0  0  0  0
  -29.8134  -14.0490   20.2941 N   0  0  0  0  0  0
  -26.2734  -12.9165   20.2859 N   0  0  0  0  0  0
  -25.9242  -11.6424   20.5683 N   0  0  0  0  0  0
  -22.0483  -12.8217   22.0412 N   0  0  0  0  0  0
  -25.4175  -15.1791   20.3811 N   0  0  0  0  0  0
  -31.4620  -15.4609   20.0903 O   0  0  0  0  0  0
  -21.6635   -6.8888   21.4262 O   0  0  0  0  0  0
  -22.3574  -14.5542   20.6707 O   0  0  0  0  0  0
  -24.6443  -31.8562   23.1858 C   0  0  0  0  0  0
  -25.9130  -32.4765   23.8201 C   0  0  1  0  0  0
  -27.2579  -27.1947   20.2325 C   0  0  0  0  0  0
  -25.6026  -33.8616   24.2300 N   0  0  0  0  0  0
  -23.4595  -30.4815   21.4999 C   0  0  2  0  0  0
  -24.9098  -28.9057   20.1080 C   0  0  0  0  0  0
  -22.7737  -29.5052   22.4907 C   0  0  0  0  0  0
  -17.9806  -28.1435   22.8261 C   0  0  0  0  0  0
  -24.1492  -36.7284   23.2625 C   0  0  0  0  0  0
  -26.0041  -30.7693   21.3655 C   0  0  0  0  0  0
  -26.0805  -29.3695   20.7201 C   0  0  0  0  0  0
  -27.2540  -28.5408   20.7567 C   0  0  0  0  0  0
  -26.0463  -26.7764   19.6056 C   0  0  0  0  0  0
  -24.9174  -27.6368   19.5068 C   0  0  0  0  0  0
  -23.6830  -29.7875   20.1205 C   0  0  0  0  0  0
  -25.4106  -36.3106   24.0312 C   0  0  1  0  0  0
  -20.5896  -28.3714   23.1311 C   0  0  2  0  0  0
  -20.6731  -26.9167   22.6501 C   0  0  0  0  0  0
  -19.5493  -26.5960   21.6352 C   0  0  0  0  0  0
  -18.0722  -26.8956   22.0124 C   0  0  0  0  0  0
  -19.1295  -28.8953   23.2458 C   0  0  0  0  0  0
  -18.9458  -30.1623   23.8613 C   0  0  0  0  0  0
  -17.6574  -30.6892   24.0433 C   0  0  0  0  0  0
  -25.9066  -34.9464   23.5057 C   0  0  0  0  0  0
  -16.5315  -29.9161   23.6807 C   0  0  0  0  0  0
  -16.7082  -28.6719   23.0286 C   0  0  0  0  0  0
  -26.4518  -31.6608   25.0696 C   0  0  0  0  0  0
  -25.3725  -31.3739   26.1457 C   0  0  0  0  0  0
  -27.0318  -30.2980   24.6165 C   0  0  0  0  0  0
  -27.6097  -32.4407   25.7487 C   0  0  0  0  0  0
  -27.5604  -37.1788   24.8466 C   0  0  0  0  0  0
  -21.4358  -29.3087   22.3644 N   0  0  0  0  0  0
  -26.4303  -37.3825   23.9403 N   0  0  0  0  0  0
  -24.7275  -31.0552   22.0648 N   0  0  0  0  0  0
  -23.4353  -28.8125   23.2447 O   0  0  0  0  0  0
  -28.3813  -26.3254   20.4050 O   0  0  0  0  0  0
  -26.5673  -34.8929   22.4678 O   0  0  0  0  0  0
  -23.5533  -32.1241   23.7263 O   0  0  0  0  0  0
  -27.6221  -18.4010   19.6665 C   0  0  0  0  0  0
  -29.4291  -19.4370   20.8015 C   0  0  0  0  0  0
  -27.4915  -20.8165   20.1416 C   0  0  0  0  0  0
  -28.9290  -18.1277   20.2641 C   0  0  0  0  0  0
  -26.8741  -19.6412   19.7103 C   0  0  0  0  0  0
  -28.7915  -20.8063   20.6720 C   0  0  0  0  0  0
  -28.8603  -16.5100   22.0804 C   0  0  0  0  0  0
  -25.1370  -20.7604   18.2513 C   0  0  0  0  0  0
  -24.7058  -20.4417   20.5017 C   0  0  0  0  0  0
  -28.4993  -24.8054   20.1120 C   0  0  0  0  0  0
  -28.4561  -23.4788   21.1440 C   0  0  0  0  0  0
  -29.3854  -16.6026   20.7071 N   0  0  0  0  0  0
  -25.5100  -19.8550   19.3657 N   0  0  0  0  0  0
  -29.2974  -22.1807   21.0055 O   0  0  0  0  0  0
  -31.3719  -13.3396   19.0038 H   0  0  0  0  0  0
  -30.8033  -12.1140   20.0492 H   0  0  0  0  0  0
  -29.9640  -11.6522   17.7622 H   0  0  0  0  0  0
  -29.4430  -13.3165   17.5633 H   0  0  0  0  0  0
  -28.2507  -11.2137   19.3938 H   0  0  0  0  0  0
  -27.4336  -11.9138   18.0082 H   0  0  0  0  0  0
  -27.5289  -14.1207   19.1930 H   0  0  0  0  0  0
  -28.8155  -12.5734   21.5273 H   0  0  0  0  0  0
  -28.0583  -14.1156   21.5231 H   0  0  0  0  0  0
  -25.2798   -9.5629   22.4784 H   0  0  0  0  0  0
  -23.9981   -7.4608   22.7485 H   0  0  0  0  0  0
  -21.0845   -8.8795   19.8973 H   0  0  0  0  0  0
  -22.3738  -10.9672   19.6183 H   0  0  0  0  0  0
  -21.1982   -7.6144   23.9720 H   0  0  0  0  0  0
  -21.1440   -6.0512   25.9075 H   0  0  0  0  0  0
  -22.0618   -2.7620   23.2847 H   0  0  0  0  0  0
  -22.4051  -11.9867   22.4790 H   0  0  0  0  0  0
  -21.1089  -13.1276   22.2547 H   0  0  0  0  0  0
  -24.6195  -15.8054   20.4382 H   0  0  0  0  0  0
  -26.2073  -15.5964   19.9001 H   0  0  0  0  0  0
  -26.7307  -32.5415   23.1063 H   0  0  0  0  0  0
  -24.9981  -33.9660   25.0291 H   0  0  0  0  0  0
  -22.7597  -31.3051   21.3343 H   0  0  0  0  0  0
  -23.3781  -35.9612   23.3318 H   0  0  0  0  0  0
  -24.3521  -36.8914   22.2034 H   0  0  0  0  0  0
  -23.7226  -37.6467   23.6629 H   0  0  0  0  0  0
  -26.1242  -31.5044   20.5728 H   0  0  0  0  0  0
  -26.8777  -30.8541   21.9772 H   0  0  0  0  0  0
  -28.1520  -28.8844   21.2255 H   0  0  0  0  0  0
  -25.9535  -25.7403   19.2445 H   0  0  0  0  0  0
  -24.0262  -27.2839   18.9960 H   0  0  0  0  0  0
  -23.7624  -30.5480   19.3559 H   0  0  0  0  0  0
  -22.8251  -29.1794   19.8591 H   0  0  0  0  0  0
  -25.1322  -36.1882   25.0797 H   0  0  0  0  0  0
  -21.0219  -28.4175   24.1132 H   0  0  0  0  0  0
  -21.6281  -26.7071   22.1392 H   0  0  0  0  0  0
  -20.5050  -26.1746   23.4684 H   0  0  0  0  0  0
  -19.6611  -25.6076   21.1882 H   0  0  0  0  0  0
  -19.6745  -27.2311   20.7597 H   0  0  0  0  0  0
  -17.5477  -27.1093   21.0972 H   0  0  0  0  0  0
  -17.4776  -26.0754   22.4290 H   0  0  0  0  0  0
  -19.8240  -30.7844   24.1006 H   0  0  0  0  0  0
  -17.5058  -31.6863   24.4925 H   0  0  0  0  0  0
  -15.5422  -30.3501   23.7566 H   0  0  0  0  0  0
  -15.8454  -28.1432   22.6755 H   0  0  0  0  0  0
  -24.5938  -30.7121   25.7758 H   0  0  0  0  0  0
  -24.8957  -32.2907   26.4869 H   0  0  0  0  0  0
  -25.8103  -30.8912   27.0164 H   0  0  0  0  0  0
  -26.2791  -29.6803   24.1333 H   0  0  0  0  0  0
  -27.4063  -29.7318   25.4663 H   0  0  0  0  0  0
  -27.8664  -30.4264   23.9315 H   0  0  0  0  0  0
  -27.2606  -33.3623   26.2078 H   0  0  0  0  0  0
  -28.3781  -32.7065   25.0282 H   0  0  0  0  0  0
  -28.0775  -31.8505   26.5328 H   0  0  0  0  0  0
  -28.2625  -38.0099   24.7605 H   0  0  0  0  0  0
  -28.1082  -36.2647   24.6169 H   0  0  0  0  0  0
  -27.2317  -37.1330   25.8869 H   0  0  0  0  0  0
  -20.8896  -29.9388   21.7995 H   0  0  0  0  0  0
  -26.0168  -38.2892   24.1448 H   0  0  0  0  0  0
  -27.1879  -17.5668   19.1013 H   0  0  0  0  0  0
  -30.3415  -19.4431   21.3991 H   0  0  0  0  0  0
  -26.9371  -21.7318   20.0728 H   0  0  0  0  0  0
  -27.8081  -16.8789   22.1135 H   0  0  0  0  0  0
  -29.4968  -17.0974   22.7454 H   0  0  0  0  0  0
  -28.9315  -15.5319   22.5215 H   0  0  0  0  0  0
  -25.0932  -20.2732   17.2460 H   0  0  0  0  0  0
  -25.7176  -21.6867   18.1688 H   0  0  0  0  0  0
  -24.1058  -21.1285   18.4603 H   0  0  0  0  0  0
  -24.9038  -20.0915   21.5353 H   0  0  0  0  0  0
  -23.6526  -20.3116   20.2675 H   0  0  0  0  0  0
  -24.7857  -21.5116   20.6205 H   0  0  0  0  0  0
  -27.9343  -24.5636   19.1996 H   0  0  0  0  0  0
  -29.5409  -24.7754   19.7699 H   0  0  0  0  0  0
  -27.3994  -23.2578   21.3045 H   0  0  0  0  0  0
  -28.7337  -23.8452   22.1330 H   0  0  0  0  0  0
  1 25  1  0  0  0
  1 30  2  0  0  0
  1 82  1  0  0  0
  2  3  1  0  0  0
  2 25  1  0  0  0
  2 85  1  0  0  0
  2 86  1  0  0  0
  3  4  1  0  0  0
  3 87  1  0  0  0
  3 88  1  0  0  0
  4  5  1  0  0  0
  4 89  1  0  0  0
  4 90  1  0  0  0
  5  6  1  0  0  0
  5 26  1  0  0  0
  5 91  1  0  0  0
  6 25  1  0  0  0
  6 92  1  0  0  0
  6 93  1  0  0  0
  7  8  2  0  0  0
  7 26  1  0  0  0
  7 29  1  0  0  0
  8  9  1  0  0  0
  8 22  1  0  0  0
  9 10  1  0  0  0
  9 27  2  0  0  0
 10 11  2  0  0  0
 10 15  1  0  0  0
 11 12  1  0  0  0
 11 94  1  0  0  0
 12 13  2  0  0  0
 12 95  1  0  0  0
 13 14  1  0  0  0
 13 31  1  0  0  0
 14 15  2  0  0  0
 14 96  1  0  0  0
 15 97  1  0  0  0
 16 17  2  0  0  0
 16 21  1  0  0  0
 16 31  1  0  0  0
 17 18  1  0  0  0
 17 98  1  0  0  0
 18 19  2  0  0  0
 18 99  1  0  0  0
 19 20  1  0  0  0
 19 24  1  0  0  0
 20 21  2  0  0  0
 20100  1  0  0  0
 21 23  1  0  0  0
 22 28  1  0  0  0
 22 32  2  0  0  0
 26 27  1  0  0  0
 28101  1  0  0  0
 28102  1  0  0  0
 29103  1  0  0  0
 29104  1  0  0  0
 33 34  1  0  0  0
 33 66  1  0  0  0
 33 70  2  0  0  0
 34 36  1  0  0  0
 34 59  1  0  0  0
 34105  1  0  0  0
 35 44  2  0  0  0
 35 45  1  0  0  0
 35 68  1  0  0  0
 36 56  1  0  0  0
 36106  1  0  0  0
 37 39  1  0  0  0
 37 47  1  0  0  0
 37 66  1  0  0  0
 37107  1  0  0  0
 38 43  2  0  0  0
 38 46  1  0  0  0
 38 47  1  0  0  0
 39 64  1  0  0  0
 39 67  2  0  0  0
 40 52  1  0  0  0
 40 53  2  0  0  0
 40 58  1  0  0  0
 41108  1  0  0  0
 41109  1  0  0  0
 41110  1  0  0  0
 41 48  1  0  0  0
 42 43  1  0  0  0
 42 66  1  0  0  0
 42111  1  0  0  0
 42112  1  0  0  0
 43 44  1  0  0  0
 44113  1  0  0  0
 45 46  2  0  0  0
 45114  1  0  0  0
 46115  1  0  0  0
 47116  1  0  0  0
 47117  1  0  0  0
 48 56  1  0  0  0
 48 65  1  0  0  0
 48118  1  0  0  0
 49 50  1  0  0  0
 49 53  1  0  0  0
 49 64  1  0  0  0
 49119  1  0  0  0
 50 51  1  0  0  0
 50120  1  0  0  0
 50121  1  0  0  0
 51 52  1  0  0  0
 51122  1  0  0  0
 51123  1  0  0  0
 52124  1  0  0  0
 52125  1  0  0  0
 53 54  1  0  0  0
 54 55  2  0  0  0
 54126  1  0  0  0
 55 57  1  0  0  0
 55127  1  0  0  0
 56 69  2  0  0  0
 57 58  2  0  0  0
 57128  1  0  0  0
 58129  1  0  0  0
 59 60  1  0  0  0
 59 61  1  0  0  0
 59 62  1  0  0  0
 60130  1  0  0  0
 60131  1  0  0  0
 60132  1  0  0  0
 61133  1  0  0  0
 61134  1  0  0  0
 61135  1  0  0  0
 62136  1  0  0  0
 62137  1  0  0  0
 62138  1  0  0  0
 63 65  1  0  0  0
 63139  1  0  0  0
 63140  1  0  0  0
 63141  1  0  0  0
 64142  1  0  0  0
 65143  1  0  0  0
 68 80  1  0  0  0
 71 74  2  0  0  0
 71 75  1  0  0  0
 71144  1  0  0  0
 72 74  1  0  0  0
 72 76  2  0  0  0
 72145  1  0  0  0
 73 75  2  0  0  0
 73 76  1  0  0  0
 73146  1  0  0  0
 74 82  1  0  0  0
 75 83  1  0  0  0
 76 84  1  0  0  0
 77 82  1  0  0  0
 77147  1  0  0  0
 77148  1  0  0  0
 77149  1  0  0  0
 78 83  1  0  0  0
 78150  1  0  0  0
 78151  1  0  0  0
 78152  1  0  0  0
 79 83  1  0  0  0
 79153  1  0  0  0
 79154  1  0  0  0
 79155  1  0  0  0
 80 81  1  0  0  0
 80156  1  0  0  0
 80157  1  0  0  0
 81 84  1  0  0  0
 81158  1  0  0  0
 81159  1  0  0  0
M  ISO  4   1 100  68 101  80 101  82 100
M  END
> <chiral flag>
0

> <version>
0

> <s_m_source_file>
/data/baiqing/PycharmProjects/Reinvent-master-3.2/result/LINK_invent/BTK/process_docking_weight1_custom_sum_contain_oxygen_bond_distance_aromatic_linkinvent_7_9_3/rearranged_h_0007.sdf

> <i_m_source_file_index>
91

> <r_mmod_Potential_Energy-OPLS-2005>
1454.36645507812

> <r_mmod_Stretch_Energy-OPLS-2005>
452.96728515625

> <r_mmod_Bend_Energy-OPLS-2005>
463.109008789062

> <r_mmod_Torsional_Energy-OPLS-2005>
371.548217773438

> <r_mmod_Improper_Torsional_Energy-OPLS-2005>
19.2393932342529

> <r_mmod_Van_der_Waal_Energy-OPLS-2005>
160.751037597656

> <r_mmod_Electrostatic_Energy-OPLS-2005>
-258.021514892578

> <r_mmod_Solvation_Energy-OPLS-2005>
-220.071685791016

> <b_mmod_Minimization_Converged-OPLS-2005>
0

> <r_mmod_RMS_Derivative-OPLS-2005>
64.6329345703125

$$$$
91
                    3D
 Structure written by MMmdl.
155163  0  0  1  0            999 V2000
  -30.3911  -15.3012   20.3626 C   0  0  0  0  0  0
  -30.4337  -12.8276   19.5537 C   0  0  0  0  0  0
  -29.5478  -12.6084   18.2982 C   0  0  0  0  0  0
  -28.0967  -12.3119   18.7093 C   0  0  0  0  0  0
  -27.6103  -13.2760   19.8207 C   0  0  2  0  0  0
  -28.6273  -13.4535   20.9687 C   0  0  0  0  0  0
  -25.2346  -13.8229   20.5553 C   0  0  0  0  0  0
  -24.1735  -13.0438   20.9215 C   0  0  0  0  0  0
  -24.6383  -11.6935   20.8739 C   0  0  0  0  0  0
  -23.9067  -10.4311   21.0401 C   0  0  0  0  0  0
  -24.3611   -9.4222   21.9170 C   0  0  0  0  0  0
  -23.6299   -8.2242   22.0749 C   0  0  0  0  0  0
  -22.4280   -8.0264   21.3537 C   0  0  0  0  0  0
  -21.9923   -9.0241   20.4644 C   0  0  0  0  0  0
  -22.7237  -10.2135   20.3053 C   0  0  0  0  0  0
  -21.6863   -6.0722   22.5262 C   0  0  0  0  0  0
  -21.4023   -6.5616   23.8192 C   0  0  0  0  0  0
  -21.3677   -5.6769   24.9156 C   0  0  0  0  0  0
  -21.6039   -4.3034   24.7213 C   0  0  0  0  0  0
  -21.8811   -3.8116   23.4340 C   0  0  0  0  0  0
  -21.9203   -4.6951   22.3389 C   0  0  0  0  0  0
  -22.7762  -13.5195   21.1856 C   0  0  0  0  0  0
  -22.1640   -4.2108   21.0984 F   0  0  0  0  0  0
  -21.5652   -3.4541   25.7751 F   0  0  0  0  0  0
  -29.8701  -13.9691   20.3734 N   0  0  0  0  0  0
  -26.2779  -12.9496   20.3090 N   0  0  0  0  0  0
  -25.9312  -11.6606   20.5629 N   0  0  0  0  0  0
  -22.0415  -12.8225   22.0432 N   0  0  0  0  0  0
  -25.3979  -15.1933   20.3748 N   0  0  0  0  0  0
  -31.5895  -15.3275   20.0446 O   0  0  0  0  0  0
  -21.6634   -6.8869   21.4219 O   0  0  0  0  0  0
  -22.3447  -14.5492   20.6686 O   0  0  0  0  0  0
  -24.6685  -31.8141   23.1632 C   0  0  0  0  0  0
  -25.9341  -32.4515   23.8122 C   0  0  1  0  0  0
  -27.2207  -26.8661   20.1843 C   0  0  0  0  0  0
  -25.6000  -33.8337   24.2040 N   0  0  0  0  0  0
  -23.4893  -30.4209   21.5142 C   0  0  2  0  0  0
  -24.9423  -28.7977   20.1099 C   0  0  0  0  0  0
  -22.7688  -29.4372   22.4749 C   0  0  0  0  0  0
  -18.0338  -28.1403   22.8477 C   0  0  0  0  0  0
  -24.1504  -36.7177   23.2649 C   0  0  0  0  0  0
  -26.0588  -30.5978   21.4071 C   0  0  0  0  0  0
  -26.1248  -29.1830   20.7500 C   0  0  0  0  0  0
  -27.2543  -28.2382   20.7655 C   0  0  0  0  0  0
  -26.0111  -26.6489   19.4871 C   0  0  0  0  0  0
  -24.9121  -27.5512   19.4578 C   0  0  0  0  0  0
  -23.7326  -29.7319   20.1422 C   0  0  0  0  0  0
  -25.4147  -36.2917   24.0290 C   0  0  1  0  0  0
  -20.5961  -28.3741   23.1168 C   0  0  2  0  0  0
  -20.6802  -26.9404   22.5398 C   0  0  0  0  0  0
  -19.5770  -26.6370   21.5216 C   0  0  0  0  0  0
  -18.1961  -26.7943   22.1631 C   0  0  0  0  0  0
  -19.1600  -28.8894   23.2815 C   0  0  0  0  0  0
  -18.9500  -30.1504   23.8811 C   0  0  0  0  0  0
  -17.6484  -30.6598   24.0538 C   0  0  0  0  0  0
  -25.9109  -34.9305   23.4984 C   0  0  0  0  0  0
  -16.5379  -29.9072   23.6335 C   0  0  0  0  0  0
  -16.7319  -28.6498   23.0350 C   0  0  0  0  0  0
  -26.4605  -31.6482   25.0676 C   0  0  0  0  0  0
  -25.3735  -31.3754   26.1333 C   0  0  0  0  0  0
  -27.0512  -30.2830   24.6463 C   0  0  0  0  0  0
  -27.6066  -32.4334   25.7484 C   0  0  0  0  0  0
  -27.5581  -37.1739   24.8463 C   0  0  0  0  0  0
  -21.4361  -29.3028   22.3511 N   0  0  0  0  0  0
  -26.4287  -37.3663   23.9408 N   0  0  0  0  0  0
  -24.7607  -30.9726   22.0812 N   0  0  0  0  0  0
  -23.4190  -28.7943   23.3023 O   0  0  0  0  0  0
  -28.2154  -25.7372   20.2914 O   0  0  0  0  0  0
  -26.5699  -34.8843   22.4576 O   0  0  0  0  0  0
  -23.5739  -32.1175   23.6658 O   0  0  0  0  0  0
  -28.3221  -20.5950   18.7729 C   0  0  0  0  0  0
  -28.2998  -19.2975   18.1842 C   0  0  0  0  0  0
  -29.3476  -19.5065   20.6701 C   0  0  0  0  0  0
  -28.8495  -20.8524   20.0534 C   0  0  0  0  0  0
  -28.7896  -18.1038   18.7875 C   0  0  0  0  0  0
  -29.3688  -18.0646   20.0809 C   0  0  0  0  0  0
  -30.3770  -22.8817   20.5616 C   0  0  0  0  0  0
  -28.4239  -22.4866   22.0538 C   0  0  0  0  0  0
  -28.0834  -24.0912   19.9708 C   0  0  0  0  0  0
  -28.8777  -22.5443   20.5870 C   0  0  0  0  0  0
  -28.6265  -16.9138   18.0784 N   0  0  0  0  0  0
  -29.6248  -16.5484   20.6500 N   0  0  0  0  0  0
  -31.4609  -13.0255   19.2463 H   0  0  0  0  0  0
  -30.4811  -11.9125   20.1477 H   0  0  0  0  0  0
  -29.9468  -11.7889   17.6978 H   0  0  0  0  0  0
  -29.5786  -13.4980   17.6651 H   0  0  0  0  0  0
  -28.0564  -11.2834   19.0688 H   0  0  0  0  0  0
  -27.4390  -12.3529   17.8393 H   0  0  0  0  0  0
  -27.5301  -14.2467   19.3269 H   0  0  0  0  0  0
  -28.7861  -12.5221   21.5095 H   0  0  0  0  0  0
  -28.2488  -14.1765   21.6933 H   0  0  0  0  0  0
  -25.2757   -9.5704   22.4748 H   0  0  0  0  0  0
  -24.0012   -7.4643   22.7494 H   0  0  0  0  0  0
  -21.0839   -8.8728   19.8971 H   0  0  0  0  0  0
  -22.3648  -10.9649   19.6160 H   0  0  0  0  0  0
  -21.1961   -7.6116   23.9690 H   0  0  0  0  0  0
  -21.1538   -6.0502   25.9067 H   0  0  0  0  0  0
  -22.0589   -2.7576   23.2848 H   0  0  0  0  0  0
  -22.4062  -11.9940   22.4865 H   0  0  0  0  0  0
  -21.1010  -13.1225   22.2565 H   0  0  0  0  0  0
  -24.5989  -15.8151   20.3766 H   0  0  0  0  0  0
  -26.1707  -15.5584   19.8287 H   0  0  0  0  0  0
  -26.7403  -32.5038   23.0816 H   0  0  0  0  0  0
  -25.0125  -33.9409   25.0179 H   0  0  0  0  0  0
  -22.8067  -31.2522   21.3316 H   0  0  0  0  0  0
  -23.3769  -35.9505   23.3273 H   0  0  0  0  0  0
  -24.3588  -36.8871   22.2068 H   0  0  0  0  0  0
  -23.7244  -37.6345   23.6745 H   0  0  0  0  0  0
  -26.2462  -31.3365   20.6275 H   0  0  0  0  0  0
  -26.9138  -30.6510   22.0669 H   0  0  0  0  0  0
  -28.1449  -28.5214   21.3072 H   0  0  0  0  0  0
  -25.8779  -25.7018   18.9838 H   0  0  0  0  0  0
  -24.0162  -27.2495   18.9337 H   0  0  0  0  0  0
  -23.8856  -30.4953   19.3773 H   0  0  0  0  0  0
  -22.8437  -29.1830   19.8291 H   0  0  0  0  0  0
  -25.1345  -36.1708   25.0780 H   0  0  0  0  0  0
  -21.0079  -28.3361   24.1285 H   0  0  0  0  0  0
  -20.5660  -26.2363   23.3665 H   0  0  0  0  0  0
  -21.6661  -26.7345   22.1214 H   0  0  0  0  0  0
  -19.6915  -25.6273   21.1282 H   0  0  0  0  0  0
  -19.6729  -27.3142   20.6718 H   0  0  0  0  0  0
  -17.4248  -26.6706   21.4032 H   0  0  0  0  0  0
  -18.0313  -26.0098   22.9021 H   0  0  0  0  0  0
  -19.7984  -30.7346   24.2124 H   0  0  0  0  0  0
  -17.5028  -31.6255   24.5180 H   0  0  0  0  0  0
  -15.5363  -30.2898   23.7723 H   0  0  0  0  0  0
  -15.8755  -28.0772   22.7061 H   0  0  0  0  0  0
  -24.5919  -30.7098   25.7652 H   0  0  0  0  0  0
  -24.8924  -32.2962   26.4639 H   0  0  0  0  0  0
  -25.7965  -30.8998   27.0190 H   0  0  0  0  0  0
  -26.3200  -29.6462   24.1460 H   0  0  0  0  0  0
  -27.4004  -29.7220   25.5143 H   0  0  0  0  0  0
  -27.9159  -30.3963   23.9913 H   0  0  0  0  0  0
  -27.2599  -33.3678   26.1910 H   0  0  0  0  0  0
  -28.3949  -32.6843   25.0372 H   0  0  0  0  0  0
  -28.0667  -31.8578   26.5527 H   0  0  0  0  0  0
  -28.2542  -38.0078   24.7508 H   0  0  0  0  0  0
  -28.1125  -36.2600   24.6296 H   0  0  0  0  0  0
  -27.2299  -37.1365   25.8860 H   0  0  0  0  0  0
  -20.9612  -29.8711   21.6629 H   0  0  0  0  0  0
  -26.0128  -38.2716   24.1423 H   0  0  0  0  0  0
  -27.9142  -21.4205   18.2051 H   0  0  0  0  0  0
  -27.8533  -19.2217   17.2025 H   0  0  0  0  0  0
  -29.7358  -19.5917   21.6745 H   0  0  0  0  0  0
  -30.9739  -22.1327   21.0865 H   0  0  0  0  0  0
  -30.5760  -23.8484   21.0229 H   0  0  0  0  0  0
  -30.7513  -22.9285   19.5379 H   0  0  0  0  0  0
  -29.0201  -21.7860   22.6393 H   0  0  0  0  0  0
  -27.3830  -22.1667   22.1234 H   0  0  0  0  0  0
  -28.4994  -23.4654   22.5296 H   0  0  0  0  0  0
  -27.0146  -23.8943   20.0391 H   0  0  0  0  0  0
  -28.2779  -24.0677   18.8984 H   0  0  0  0  0  0
  -29.2783  -16.1668   18.2756 H   0  0  0  0  0  0
  -28.3958  -16.9744   17.0930 H   0  0  0  0  0  0
  -28.7845  -16.2428   21.1188 H   0  0  0  0  0  0
  1 25  1  0  0  0
  1 30  2  0  0  0
  1 82  1  0  0  0
  2  3  1  0  0  0
  2 25  1  0  0  0
  2 83  1  0  0  0
  2 84  1  0  0  0
  3  4  1  0  0  0
  3 85  1  0  0  0
  3 86  1  0  0  0
  4  5  1  0  0  0
  4 87  1  0  0  0
  4 88  1  0  0  0
  5  6  1  0  0  0
  5 26  1  0  0  0
  5 89  1  0  0  0
  6 25  1  0  0  0
  6 90  1  0  0  0
  6 91  1  0  0  0
  7  8  2  0  0  0
  7 26  1  0  0  0
  7 29  1  0  0  0
  8  9  1  0  0  0
  8 22  1  0  0  0
  9 10  1  0  0  0
  9 27  2  0  0  0
 10 11  2  0  0  0
 10 15  1  0  0  0
 11 12  1  0  0  0
 11 92  1  0  0  0
 12 13  2  0  0  0
 12 93  1  0  0  0
 13 14  1  0  0  0
 13 31  1  0  0  0
 14 15  2  0  0  0
 14 94  1  0  0  0
 15 95  1  0  0  0
 16 17  2  0  0  0
 16 21  1  0  0  0
 16 31  1  0  0  0
 17 18  1  0  0  0
 17 96  1  0  0  0
 18 19  2  0  0  0
 18 97  1  0  0  0
 19 20  1  0  0  0
 19 24  1  0  0  0
 20 21  2  0  0  0
 20 98  1  0  0  0
 21 23  1  0  0  0
 22 28  1  0  0  0
 22 32  2  0  0  0
 26 27  1  0  0  0
 28 99  1  0  0  0
 28100  1  0  0  0
 29101  1  0  0  0
 29102  1  0  0  0
 33 34  1  0  0  0
 33 66  1  0  0  0
 33 70  2  0  0  0
 34 36  1  0  0  0
 34 59  1  0  0  0
 34103  1  0  0  0
 35 44  2  0  0  0
 35 45  1  0  0  0
 35 68  1  0  0  0
 36 56  1  0  0  0
 36104  1  0  0  0
 37 39  1  0  0  0
 37 47  1  0  0  0
 37 66  1  0  0  0
 37105  1  0  0  0
 38 43  2  0  0  0
 38 46  1  0  0  0
 38 47  1  0  0  0
 39 64  1  0  0  0
 39 67  2  0  0  0
 40 52  1  0  0  0
 40 53  2  0  0  0
 40 58  1  0  0  0
 41106  1  0  0  0
 41107  1  0  0  0
 41108  1  0  0  0
 41 48  1  0  0  0
 42 43  1  0  0  0
 42 66  1  0  0  0
 42109  1  0  0  0
 42110  1  0  0  0
 43 44  1  0  0  0
 44111  1  0  0  0
 45 46  2  0  0  0
 45112  1  0  0  0
 46113  1  0  0  0
 47114  1  0  0  0
 47115  1  0  0  0
 48 56  1  0  0  0
 48 65  1  0  0  0
 48116  1  0  0  0
 49 50  1  0  0  0
 49 53  1  0  0  0
 49 64  1  0  0  0
 49117  1  0  0  0
 50 51  1  0  0  0
 50118  1  0  0  0
 50119  1  0  0  0
 51 52  1  0  0  0
 51120  1  0  0  0
 51121  1  0  0  0
 52122  1  0  0  0
 52123  1  0  0  0
 53 54  1  0  0  0
 54 55  2  0  0  0
 54124  1  0  0  0
 55 57  1  0  0  0
 55125  1  0  0  0
 56 69  2  0  0  0
 57 58  2  0  0  0
 57126  1  0  0  0
 58127  1  0  0  0
 59 60  1  0  0  0
 59 61  1  0  0  0
 59 62  1  0  0  0
 60128  1  0  0  0
 60129  1  0  0  0
 60130  1  0  0  0
 61131  1  0  0  0
 61132  1  0  0  0
 61133  1  0  0  0
 62134  1  0  0  0
 62135  1  0  0  0
 62136  1  0  0  0
 63 65  1  0  0  0
 63137  1  0  0  0
 63138  1  0  0  0
 63139  1  0  0  0
 64140  1  0  0  0
 65141  1  0  0  0
 68 79  1  0  0  0
 71 72  2  0  0  0
 71 74  1  0  0  0
 71142  1  0  0  0
 72 75  1  0  0  0
 72143  1  0  0  0
 73 74  2  0  0  0
 73 76  1  0  0  0
 73144  1  0  0  0
 74 80  1  0  0  0
 75 76  2  0  0  0
 75 81  1  0  0  0
 76 82  1  0  0  0
 77145  1  0  0  0
 77146  1  0  0  0
 77147  1  0  0  0
 77 80  1  0  0  0
 78 80  1  0  0  0
 78148  1  0  0  0
 78149  1  0  0  0
 78150  1  0  0  0
 79 80  1  0  0  0
 79151  1  0  0  0
 79152  1  0  0  0
 81153  1  0  0  0
 81154  1  0  0  0
 82155  1  0  0  0
M  ISO  4   1 100  68 101  79 101  82 100
M  END
> <chiral flag>
0

> <version>
0

> <s_m_source_file>
/data/baiqing/PycharmProjects/Reinvent-master-3.2/result/LINK_invent/BTK/process_docking_weight1_custom_sum_contain_oxygen_bond_distance_aromatic_linkinvent_7_9_3/rearranged_h_0007.sdf

> <i_m_source_file_index>
92

> <r_mmod_Potential_Energy-OPLS-2005>
1341.70202636719

> <r_mmod_Stretch_Energy-OPLS-2005>
669.816284179688

> <r_mmod_Bend_Energy-OPLS-2005>
454.5439453125

> <r_mmod_Torsional_Energy-OPLS-2005>
261.953979492188

> <r_mmod_Improper_Torsional_Energy-OPLS-2005>
11.5461654663086

> <r_mmod_Van_der_Waal_Energy-OPLS-2005>
122.093132019043

> <r_mmod_Electrostatic_Energy-OPLS-2005>
-499.1015625

> <r_mmod_Solvation_Energy-OPLS-2005>
-204.380935668945

> <b_mmod_Minimization_Converged-OPLS-2005>
0

> <r_mmod_RMS_Derivative-OPLS-2005>
4.35633707046509

$$$$
92
                    3D
 Structure written by MMmdl.
157165  0  0  1  0            999 V2000
  -30.6239  -14.6410   20.4815 C   0  0  0  0  0  0
  -30.4367  -12.3904   19.4516 C   0  0  0  0  0  0
  -29.5088  -12.5118   18.2224 C   0  0  0  0  0  0
  -28.0305  -12.3507   18.6319 C   0  0  0  0  0  0
  -27.6522  -13.2194   19.8603 C   0  0  2  0  0  0
  -28.6972  -13.0806   20.9905 C   0  0  0  0  0  0
  -25.2561  -13.8181   20.5683 C   0  0  0  0  0  0
  -24.1828  -13.0444   20.9194 C   0  0  0  0  0  0
  -24.6395  -11.6913   20.8734 C   0  0  0  0  0  0
  -23.9063  -10.4297   21.0402 C   0  0  0  0  0  0
  -24.3612   -9.4214   21.9186 C   0  0  0  0  0  0
  -23.6289   -8.2248   22.0755 C   0  0  0  0  0  0
  -22.4274   -8.0282   21.3543 C   0  0  0  0  0  0
  -21.9904   -9.0261   20.4653 C   0  0  0  0  0  0
  -22.7229  -10.2142   20.3058 C   0  0  0  0  0  0
  -21.6860   -6.0733   22.5279 C   0  0  0  0  0  0
  -21.4019   -6.5636   23.8212 C   0  0  0  0  0  0
  -21.3658   -5.6788   24.9173 C   0  0  0  0  0  0
  -21.6042   -4.3050   24.7223 C   0  0  0  0  0  0
  -21.8818   -3.8146   23.4344 C   0  0  0  0  0  0
  -21.9195   -4.6962   22.3404 C   0  0  0  0  0  0
  -22.7847  -13.5242   21.1854 C   0  0  0  0  0  0
  -22.1660   -4.2147   21.0980 F   0  0  0  0  0  0
  -21.5629   -3.4535   25.7735 F   0  0  0  0  0  0
  -30.0137  -13.4161   20.4250 N   0  0  0  0  0  0
  -26.2984  -12.9365   20.3300 N   0  0  0  0  0  0
  -25.9324  -11.6516   20.5739 N   0  0  0  0  0  0
  -22.0475  -12.8246   22.0408 N   0  0  0  0  0  0
  -25.4276  -15.1902   20.4088 N   0  0  0  0  0  0
  -31.8055  -14.7767   20.1534 O   0  0  0  0  0  0
  -21.6636   -6.8877   21.4241 O   0  0  0  0  0  0
  -22.3536  -14.5547   20.6696 O   0  0  0  0  0  0
  -24.6265  -31.8619   23.2058 C   0  0  0  0  0  0
  -25.9121  -32.4785   23.8381 C   0  0  1  0  0  0
  -27.2172  -27.3216   20.1156 C   0  0  0  0  0  0
  -25.5946  -33.8586   24.2309 N   0  0  0  0  0  0
  -23.4189  -30.4881   21.5491 C   0  0  2  0  0  0
  -24.8626  -28.9477   20.1139 C   0  0  0  0  0  0
  -22.7481  -29.4638   22.4952 C   0  0  0  0  0  0
  -18.0284  -28.1384   22.8478 C   0  0  0  0  0  0
  -24.1486  -36.7290   23.2635 C   0  0  0  0  0  0
  -25.9613  -30.7930   21.3784 C   0  0  0  0  0  0
  -26.0339  -29.4219   20.7187 C   0  0  0  0  0  0
  -27.2149  -28.6219   20.7092 C   0  0  0  0  0  0
  -26.0219  -26.9075   19.4808 C   0  0  0  0  0  0
  -24.8593  -27.6953   19.4862 C   0  0  0  0  0  0
  -23.6328  -29.8283   20.1630 C   0  0  0  0  0  0
  -25.4108  -36.3088   24.0334 C   0  0  1  0  0  0
  -20.5883  -28.3692   23.1278 C   0  0  2  0  0  0
  -20.6779  -26.9421   22.5396 C   0  0  0  0  0  0
  -19.5756  -26.6383   21.5200 C   0  0  0  0  0  0
  -18.1936  -26.7925   22.1612 C   0  0  0  0  0  0
  -19.1537  -28.8853   23.2869 C   0  0  0  0  0  0
  -18.9456  -30.1451   23.8891 C   0  0  0  0  0  0
  -17.6458  -30.6584   24.0557 C   0  0  0  0  0  0
  -25.9049  -34.9456   23.5117 C   0  0  0  0  0  0
  -16.5349  -29.9079   23.6330 C   0  0  0  0  0  0
  -16.7272  -28.6495   23.0354 C   0  0  0  0  0  0
  -26.4502  -31.6593   25.0752 C   0  0  0  0  0  0
  -25.3727  -31.3733   26.1477 C   0  0  0  0  0  0
  -27.0351  -30.3018   24.6214 C   0  0  0  0  0  0
  -27.6078  -32.4318   25.7510 C   0  0  0  0  0  0
  -27.5581  -37.1799   24.8460 C   0  0  0  0  0  0
  -21.4197  -29.3046   22.3683 N   0  0  0  0  0  0
  -26.4288  -37.3783   23.9408 N   0  0  0  0  0  0
  -24.6879  -31.0635   22.1009 N   0  0  0  0  0  0
  -23.4206  -28.8178   23.3031 O   0  0  0  0  0  0
  -28.3321  -26.4677   20.1499 O   0  0  0  0  0  0
  -26.5607  -34.8924   22.4676 O   0  0  0  0  0  0
  -23.5430  -32.1427   23.7377 O   0  0  0  0  0  0
  -30.5204  -19.2552   19.3967 C   0  0  0  0  0  0
  -29.1308  -19.4291   21.3388 C   0  0  0  0  0  0
  -30.5377  -17.8318   19.4942 C   0  0  0  0  0  0
  -29.1709  -18.0043   21.4830 C   0  0  0  0  0  0
  -29.8921  -17.1592   20.5797 C   0  0  0  0  0  0
  -29.8191  -20.0954   20.2940 C   0  0  0  0  0  0
  -31.2096  -17.0829   18.3551 C   0  0  0  0  0  0
  -28.3996  -17.3825   22.6378 C   0  0  0  0  0  0
  -29.2527  -23.9671   20.2621 C   0  0  0  0  0  0
  -28.0683  -25.0179   20.3236 C   0  0  0  0  0  0
  -28.8934  -22.4391   20.5542 C   0  0  0  0  0  0
  -29.7993  -15.7022   20.7576 N   0  0  0  0  0  0
  -29.8988  -21.4877   20.0910 O   0  0  0  0  0  0
  -31.4795  -12.5116   19.1515 H   0  0  0  0  0  0
  -30.3637  -11.3955   19.8930 H   0  0  0  0  0  0
  -29.7735  -11.7646   17.4726 H   0  0  0  0  0  0
  -29.6539  -13.4841   17.7483 H   0  0  0  0  0  0
  -27.8630  -11.2975   18.8584 H   0  0  0  0  0  0
  -27.3797  -12.5878   17.7896 H   0  0  0  0  0  0
  -27.6680  -14.2533   19.5158 H   0  0  0  0  0  0
  -28.7079  -12.0624   21.3827 H   0  0  0  0  0  0
  -28.4464  -13.7237   21.8353 H   0  0  0  0  0  0
  -25.2756   -9.5699   22.4755 H   0  0  0  0  0  0
  -24.0005   -7.4643   22.7467 H   0  0  0  0  0  0
  -21.0837   -8.8779   19.8960 H   0  0  0  0  0  0
  -22.3685  -10.9679   19.6166 H   0  0  0  0  0  0
  -21.2013   -7.6140   23.9714 H   0  0  0  0  0  0
  -21.1480   -6.0516   25.9075 H   0  0  0  0  0  0
  -22.0599   -2.7610   23.2842 H   0  0  0  0  0  0
  -22.4073  -11.9912   22.4813 H   0  0  0  0  0  0
  -21.1097  -13.1299   22.2597 H   0  0  0  0  0  0
  -24.6572  -15.8421   20.5083 H   0  0  0  0  0  0
  -26.2683  -15.6265   20.0531 H   0  0  0  0  0  0
  -26.7192  -32.5454   23.1131 H   0  0  0  0  0  0
  -25.0133  -33.9732   25.0483 H   0  0  0  0  0  0
  -22.7114  -31.3079   21.4089 H   0  0  0  0  0  0
  -23.3752  -35.9616   23.3292 H   0  0  0  0  0  0
  -24.3590  -36.8912   22.2052 H   0  0  0  0  0  0
  -23.7238  -37.6493   23.6653 H   0  0  0  0  0  0
  -26.0957  -31.5586   20.6135 H   0  0  0  0  0  0
  -26.8409  -30.8369   22.0097 H   0  0  0  0  0  0
  -28.1119  -28.9821   21.1927 H   0  0  0  0  0  0
  -25.9481  -25.9665   18.9607 H   0  0  0  0  0  0
  -23.9649  -27.3301   19.0001 H   0  0  0  0  0  0
  -23.7543  -30.6064   19.4084 H   0  0  0  0  0  0
  -22.7525  -29.2590   19.8588 H   0  0  0  0  0  0
  -25.1283  -36.1942   25.0828 H   0  0  0  0  0  0
  -20.9960  -28.3260   24.1404 H   0  0  0  0  0  0
  -20.5683  -26.2307   23.3593 H   0  0  0  0  0  0
  -21.6650  -26.7457   22.1196 H   0  0  0  0  0  0
  -19.6927  -25.6289   21.1247 H   0  0  0  0  0  0
  -19.6695  -27.3174   20.6712 H   0  0  0  0  0  0
  -17.4205  -26.6658   21.4014 H   0  0  0  0  0  0
  -18.0345  -26.0070   22.9014 H   0  0  0  0  0  0
  -19.7935  -30.7263   24.2274 H   0  0  0  0  0  0
  -17.5013  -31.6273   24.5149 H   0  0  0  0  0  0
  -15.5349  -30.2974   23.7667 H   0  0  0  0  0  0
  -15.8671  -28.0807   22.7080 H   0  0  0  0  0  0
  -24.5884  -30.7111   25.7792 H   0  0  0  0  0  0
  -24.8933  -32.2897   26.4924 H   0  0  0  0  0  0
  -25.8038  -30.8882   27.0242 H   0  0  0  0  0  0
  -26.2937  -29.6764   24.1228 H   0  0  0  0  0  0
  -27.4040  -29.7285   25.4730 H   0  0  0  0  0  0
  -27.8810  -30.4310   23.9460 H   0  0  0  0  0  0
  -27.2715  -33.3614   26.2109 H   0  0  0  0  0  0
  -28.3871  -32.6881   25.0320 H   0  0  0  0  0  0
  -28.0770  -31.8429   26.5401 H   0  0  0  0  0  0
  -28.2589  -38.0107   24.7527 H   0  0  0  0  0  0
  -28.1091  -36.2641   24.6252 H   0  0  0  0  0  0
  -27.2311  -37.1414   25.8868 H   0  0  0  0  0  0
  -20.9387  -29.8772   21.6890 H   0  0  0  0  0  0
  -26.0171  -38.2862   24.1401 H   0  0  0  0  0  0
  -31.0398  -19.7288   18.5748 H   0  0  0  0  0  0
  -28.5755  -20.0133   22.0589 H   0  0  0  0  0  0
  -31.2497  -17.6975   17.4551 H   0  0  0  0  0  0
  -30.6602  -16.1799   18.0913 H   0  0  0  0  0  0
  -32.2336  -16.8195   18.6179 H   0  0  0  0  0  0
  -28.0339  -18.1396   23.3324 H   0  0  0  0  0  0
  -29.0315  -16.6972   23.2043 H   0  0  0  0  0  0
  -27.5370  -16.8278   22.2660 H   0  0  0  0  0  0
  -30.0386  -24.2758   20.9509 H   0  0  0  0  0  0
  -29.6936  -24.0295   19.2667 H   0  0  0  0  0  0
  -27.5529  -24.8978   21.2773 H   0  0  0  0  0  0
  -27.3767  -24.6662   19.5637 H   0  0  0  0  0  0
  -27.9542  -22.1897   20.0598 H   0  0  0  0  0  0
  -28.7244  -22.3109   21.6238 H   0  0  0  0  0  0
  -28.9176  -15.3976   21.1397 H   0  0  0  0  0  0
  1 25  1  0  0  0
  1 30  2  0  0  0
  1 82  1  0  0  0
  2  3  1  0  0  0
  2 25  1  0  0  0
  2 84  1  0  0  0
  2 85  1  0  0  0
  3  4  1  0  0  0
  3 86  1  0  0  0
  3 87  1  0  0  0
  4  5  1  0  0  0
  4 88  1  0  0  0
  4 89  1  0  0  0
  5  6  1  0  0  0
  5 26  1  0  0  0
  5 90  1  0  0  0
  6 25  1  0  0  0
  6 91  1  0  0  0
  6 92  1  0  0  0
  7  8  2  0  0  0
  7 26  1  0  0  0
  7 29  1  0  0  0
  8  9  1  0  0  0
  8 22  1  0  0  0
  9 10  1  0  0  0
  9 27  2  0  0  0
 10 11  2  0  0  0
 10 15  1  0  0  0
 11 12  1  0  0  0
 11 93  1  0  0  0
 12 13  2  0  0  0
 12 94  1  0  0  0
 13 14  1  0  0  0
 13 31  1  0  0  0
 14 15  2  0  0  0
 14 95  1  0  0  0
 15 96  1  0  0  0
 16 17  2  0  0  0
 16 21  1  0  0  0
 16 31  1  0  0  0
 17 18  1  0  0  0
 17 97  1  0  0  0
 18 19  2  0  0  0
 18 98  1  0  0  0
 19 20  1  0  0  0
 19 24  1  0  0  0
 20 21  2  0  0  0
 20 99  1  0  0  0
 21 23  1  0  0  0
 22 28  1  0  0  0
 22 32  2  0  0  0
 26 27  1  0  0  0
 28100  1  0  0  0
 28101  1  0  0  0
 29102  1  0  0  0
 29103  1  0  0  0
 33 34  1  0  0  0
 33 66  1  0  0  0
 33 70  2  0  0  0
 34 36  1  0  0  0
 34 59  1  0  0  0
 34104  1  0  0  0
 35 44  2  0  0  0
 35 45  1  0  0  0
 35 68  1  0  0  0
 36 56  1  0  0  0
 36105  1  0  0  0
 37 39  1  0  0  0
 37 47  1  0  0  0
 37 66  1  0  0  0
 37106  1  0  0  0
 38 43  2  0  0  0
 38 46  1  0  0  0
 38 47  1  0  0  0
 39 64  1  0  0  0
 39 67  2  0  0  0
 40 52  1  0  0  0
 40 53  2  0  0  0
 40 58  1  0  0  0
 41107  1  0  0  0
 41108  1  0  0  0
 41109  1  0  0  0
 41 48  1  0  0  0
 42 43  1  0  0  0
 42 66  1  0  0  0
 42110  1  0  0  0
 42111  1  0  0  0
 43 44  1  0  0  0
 44112  1  0  0  0
 45 46  2  0  0  0
 45113  1  0  0  0
 46114  1  0  0  0
 47115  1  0  0  0
 47116  1  0  0  0
 48 56  1  0  0  0
 48 65  1  0  0  0
 48117  1  0  0  0
 49 50  1  0  0  0
 49 53  1  0  0  0
 49 64  1  0  0  0
 49118  1  0  0  0
 50 51  1  0  0  0
 50119  1  0  0  0
 50120  1  0  0  0
 51 52  1  0  0  0
 51121  1  0  0  0
 51122  1  0  0  0
 52123  1  0  0  0
 52124  1  0  0  0
 53 54  1  0  0  0
 54 55  2  0  0  0
 54125  1  0  0  0
 55 57  1  0  0  0
 55126  1  0  0  0
 56 69  2  0  0  0
 57 58  2  0  0  0
 57127  1  0  0  0
 58128  1  0  0  0
 59 60  1  0  0  0
 59 61  1  0  0  0
 59 62  1  0  0  0
 60129  1  0  0  0
 60130  1  0  0  0
 60131  1  0  0  0
 61132  1  0  0  0
 61133  1  0  0  0
 61134  1  0  0  0
 62135  1  0  0  0
 62136  1  0  0  0
 62137  1  0  0  0
 63 65  1  0  0  0
 63138  1  0  0  0
 63139  1  0  0  0
 63140  1  0  0  0
 64141  1  0  0  0
 65142  1  0  0  0
 68 80  1  0  0  0
 71 73  2  0  0  0
 71 76  1  0  0  0
 71143  1  0  0  0
 72 74  1  0  0  0
 72 76  2  0  0  0
 72144  1  0  0  0
 73 75  1  0  0  0
 73 77  1  0  0  0
 74 75  2  0  0  0
 74 78  1  0  0  0
 75 82  1  0  0  0
 76 83  1  0  0  0
 77145  1  0  0  0
 77146  1  0  0  0
 77147  1  0  0  0
 78148  1  0  0  0
 78149  1  0  0  0
 78150  1  0  0  0
 79 80  1  0  0  0
 79 81  1  0  0  0
 79151  1  0  0  0
 79152  1  0  0  0
 80153  1  0  0  0
 80154  1  0  0  0
 81 83  1  0  0  0
 81155  1  0  0  0
 81156  1  0  0  0
 82157  1  0  0  0
M  ISO  4   1 100  68 101  80 101  82 100
M  END
> <chiral flag>
0

> <version>
0

> <s_m_source_file>
/data/baiqing/PycharmProjects/Reinvent-master-3.2/result/LINK_invent/BTK/process_docking_weight1_custom_sum_contain_oxygen_bond_distance_aromatic_linkinvent_7_9_3/rearranged_h_0007.sdf

> <i_m_source_file_index>
93

> <r_mmod_Potential_Energy-OPLS-2005>
40.922435760498

> <r_mmod_Stretch_Energy-OPLS-2005>
78.3917388916016

> <r_mmod_Bend_Energy-OPLS-2005>
150.542282104492

> <r_mmod_Torsional_Energy-OPLS-2005>
234.970779418945

> <r_mmod_Improper_Torsional_Energy-OPLS-2005>
4.45768117904663

> <r_mmod_Van_der_Waal_Energy-OPLS-2005>
146.981582641602

> <r_mmod_Electrostatic_Energy-OPLS-2005>
-414.784271240234

> <r_mmod_Solvation_Energy-OPLS-2005>
-208.764511108398

> <b_mmod_Minimization_Converged-OPLS-2005>
0

> <r_mmod_RMS_Derivative-OPLS-2005>
1.24213683605194

$$$$
93
                    3D
 Structure written by MMmdl.
148156  0  0  1  0            999 V2000
  -30.5229  -14.9232   20.4181 C   0  0  0  0  0  0
  -30.4522  -12.5679   19.4857 C   0  0  0  0  0  0
  -29.5227  -12.5332   18.2487 C   0  0  0  0  0  0
  -28.0534  -12.3247   18.6659 C   0  0  0  0  0  0
  -27.6357  -13.2432   19.8441 C   0  0  2  0  0  0
  -28.6845  -13.2333   20.9779 C   0  0  0  0  0  0
  -25.2456  -13.8175   20.5705 C   0  0  0  0  0  0
  -24.1773  -13.0399   20.9199 C   0  0  0  0  0  0
  -24.6405  -11.6897   20.8735 C   0  0  0  0  0  0
  -23.9085  -10.4272   21.0392 C   0  0  0  0  0  0
  -24.3628   -9.4192   21.9179 C   0  0  0  0  0  0
  -23.6291   -8.2235   22.0754 C   0  0  0  0  0  0
  -22.4274   -8.0279   21.3544 C   0  0  0  0  0  0
  -21.9913   -9.0252   20.4647 C   0  0  0  0  0  0
  -22.7251  -10.2121   20.3049 C   0  0  0  0  0  0
  -21.6852   -6.0729   22.5276 C   0  0  0  0  0  0
  -21.4014   -6.5632   23.8209 C   0  0  0  0  0  0
  -21.3661   -5.6786   24.9172 C   0  0  0  0  0  0
  -21.6045   -4.3049   24.7224 C   0  0  0  0  0  0
  -21.8819   -3.8140   23.4346 C   0  0  0  0  0  0
  -21.9192   -4.6956   22.3400 C   0  0  0  0  0  0
  -22.7793  -13.5178   21.1865 C   0  0  0  0  0  0
  -22.1662   -4.2142   21.0978 F   0  0  0  0  0  0
  -21.5629   -3.4535   25.7738 F   0  0  0  0  0  0
  -29.9675  -13.6465   20.3882 N   0  0  0  0  0  0
  -26.2919  -12.9426   20.3274 N   0  0  0  0  0  0
  -25.9344  -11.6552   20.5738 N   0  0  0  0  0  0
  -22.0453  -12.8180   22.0439 N   0  0  0  0  0  0
  -25.3985  -15.1905   20.4184 N   0  0  0  0  0  0
  -31.7200  -15.0470   20.1363 O   0  0  0  0  0  0
  -21.6638   -6.8877   21.4241 O   0  0  0  0  0  0
  -22.3469  -14.5485   20.6719 O   0  0  0  0  0  0
  -24.6439  -31.8448   23.1893 C   0  0  0  0  0  0
  -25.9212  -32.4700   23.8284 C   0  0  1  0  0  0
  -27.2223  -27.1432   20.1398 C   0  0  0  0  0  0
  -25.5958  -33.8506   24.2198 N   0  0  0  0  0  0
  -23.4477  -30.4650   21.5350 C   0  0  2  0  0  0
  -24.8980  -28.8964   20.1096 C   0  0  0  0  0  0
  -22.7575  -29.4549   22.4860 C   0  0  0  0  0  0
  -18.0310  -28.1394   22.8479 C   0  0  0  0  0  0
  -24.1494  -36.7257   23.2643 C   0  0  0  0  0  0
  -26.0046  -30.7195   21.3893 C   0  0  0  0  0  0
  -26.0766  -29.3321   20.7284 C   0  0  0  0  0  0
  -27.2389  -28.4715   20.7288 C   0  0  0  0  0  0
  -26.0152  -26.8130   19.4806 C   0  0  0  0  0  0
  -24.8797  -27.6491   19.4716 C   0  0  0  0  0  0
  -23.6743  -29.7971   20.1537 C   0  0  0  0  0  0
  -25.4126  -36.3034   24.0315 C   0  0  1  0  0  0
  -20.5923  -28.3721   23.1235 C   0  0  2  0  0  0
  -20.6792  -26.9422   22.5404 C   0  0  0  0  0  0
  -19.5763  -26.6377   21.5215 C   0  0  0  0  0  0
  -18.1947  -26.7931   22.1629 C   0  0  0  0  0  0
  -19.1567  -28.8877   23.2848 C   0  0  0  0  0  0
  -18.9481  -30.1472   23.8873 C   0  0  0  0  0  0
  -17.6475  -30.6587   24.0559 C   0  0  0  0  0  0
  -25.9075  -34.9408   23.5066 C   0  0  0  0  0  0
  -16.5367  -29.9078   23.6333 C   0  0  0  0  0  0
  -16.7295  -28.6499   23.0353 C   0  0  0  0  0  0
  -26.4526  -31.6565   25.0726 C   0  0  0  0  0  0
  -25.3704  -31.3764   26.1418 C   0  0  0  0  0  0
  -27.0383  -30.2952   24.6315 C   0  0  0  0  0  0
  -27.6058  -32.4329   25.7509 C   0  0  0  0  0  0
  -27.5573  -37.1795   24.8471 C   0  0  0  0  0  0
  -21.4268  -29.3048   22.3605 N   0  0  0  0  0  0
  -26.4295  -37.3740   23.9396 N   0  0  0  0  0  0
  -24.7183  -31.0306   22.0927 N   0  0  0  0  0  0
  -23.4220  -28.8092   23.3006 O   0  0  0  0  0  0
  -28.2679  -26.1479   20.2098 O   0  0  0  0  0  0
  -26.5660  -34.8903   22.4644 O   0  0  0  0  0  0
  -23.5556  -32.1328   23.7105 O   0  0  0  0  0  0
  -30.2961  -20.0170   20.4256 C   0  0  0  0  0  0
  -30.5838  -18.5770   20.5039 C   0  0  0  0  0  0
  -28.0053  -19.5294   20.1717 C   0  0  0  0  0  0
  -28.9753  -20.5791   20.2571 C   0  0  0  0  0  0
  -29.5783  -17.5427   20.4311 C   0  0  0  0  0  0
  -28.2822  -18.1155   20.2590 C   0  0  0  0  0  0
  -28.9344  -23.3662   20.2880 C   0  0  0  0  0  0
  -27.9293  -24.6471   19.9728 C   0  0  0  0  0  0
  -28.4899  -22.0311   20.1185 N   0  0  0  0  0  0
  -29.6452  -16.0185   20.5765 N   0  0  0  0  0  0
  -30.0846  -23.5963   20.6703 O   0  0  0  0  0  0
  -27.2386  -17.2582   20.1703 F   0  0  0  0  0  0
  -31.4835  -12.7374   19.1725 H   0  0  0  0  0  0
  -30.4493  -11.6058   20.0004 H   0  0  0  0  0  0
  -29.8323  -11.7426   17.5639 H   0  0  0  0  0  0
  -29.6152  -13.4694   17.6962 H   0  0  0  0  0  0
  -27.9392  -11.2796   18.9559 H   0  0  0  0  0  0
  -27.3917  -12.4779   17.8127 H   0  0  0  0  0  0
  -27.6038  -14.2530   19.4341 H   0  0  0  0  0  0
  -28.7633  -12.2428   21.4286 H   0  0  0  0  0  0
  -28.3903  -13.9113   21.7806 H   0  0  0  0  0  0
  -25.2773   -9.5664   22.4755 H   0  0  0  0  0  0
  -23.9994   -7.4627   22.7479 H   0  0  0  0  0  0
  -21.0839   -8.8777   19.8956 H   0  0  0  0  0  0
  -22.3714  -10.9663   19.6160 H   0  0  0  0  0  0
  -21.2007   -7.6141   23.9710 H   0  0  0  0  0  0
  -21.1483   -6.0517   25.9074 H   0  0  0  0  0  0
  -22.0597   -2.7603   23.2849 H   0  0  0  0  0  0
  -22.4080  -11.9853   22.4836 H   0  0  0  0  0  0
  -21.1076  -13.1210   22.2656 H   0  0  0  0  0  0
  -24.6180  -15.8228   20.5520 H   0  0  0  0  0  0
  -26.2437  -15.6829   20.1485 H   0  0  0  0  0  0
  -26.7281  -32.5307   23.1018 H   0  0  0  0  0  0
  -25.0079  -33.9622   25.0327 H   0  0  0  0  0  0
  -22.7503  -31.2911   21.3817 H   0  0  0  0  0  0
  -23.3749  -35.9597   23.3317 H   0  0  0  0  0  0
  -24.3572  -36.8874   22.2054 H   0  0  0  0  0  0
  -23.7264  -37.6465   23.6670 H   0  0  0  0  0  0
  -26.1626  -31.4759   20.6192 H   0  0  0  0  0  0
  -26.8744  -30.7677   22.0330 H   0  0  0  0  0  0
  -28.1348  -28.7996   21.2373 H   0  0  0  0  0  0
  -25.9045  -25.8650   18.9778 H   0  0  0  0  0  0
  -23.9813  -27.3108   18.9740 H   0  0  0  0  0  0
  -23.8102  -30.5729   19.3992 H   0  0  0  0  0  0
  -22.7896  -29.2391   19.8428 H   0  0  0  0  0  0
  -25.1316  -36.1868   25.0809 H   0  0  0  0  0  0
  -21.0022  -28.3313   24.1353 H   0  0  0  0  0  0
  -20.5686  -26.2335   23.3625 H   0  0  0  0  0  0
  -21.6658  -26.7423   22.1202 H   0  0  0  0  0  0
  -19.6920  -25.6283   21.1257 H   0  0  0  0  0  0
  -19.6691  -27.3177   20.6736 H   0  0  0  0  0  0
  -17.4212  -26.6676   21.4036 H   0  0  0  0  0  0
  -18.0343  -26.0079   22.9032 H   0  0  0  0  0  0
  -19.7955  -30.7300   24.2230 H   0  0  0  0  0  0
  -17.5023  -31.6265   24.5165 H   0  0  0  0  0  0
  -15.5365  -30.2969   23.7664 H   0  0  0  0  0  0
  -15.8699  -28.0805   22.7076 H   0  0  0  0  0  0
  -24.5888  -30.7108   25.7740 H   0  0  0  0  0  0
  -24.8889  -32.2949   26.4781 H   0  0  0  0  0  0
  -25.7979  -30.8978   27.0237 H   0  0  0  0  0  0
  -26.3001  -29.6681   24.1303 H   0  0  0  0  0  0
  -27.3961  -29.7250   25.4899 H   0  0  0  0  0  0
  -27.8927  -30.4174   23.9656 H   0  0  0  0  0  0
  -27.2650  -33.3642   26.2044 H   0  0  0  0  0  0
  -28.3889  -32.6872   25.0355 H   0  0  0  0  0  0
  -28.0704  -31.8486   26.5461 H   0  0  0  0  0  0
  -28.2612  -38.0067   24.7470 H   0  0  0  0  0  0
  -28.1046  -36.2597   24.6360 H   0  0  0  0  0  0
  -27.2283  -37.1519   25.8873 H   0  0  0  0  0  0
  -20.9477  -29.8763   21.6786 H   0  0  0  0  0  0
  -26.0164  -38.2818   24.1361 H   0  0  0  0  0  0
  -31.1302  -20.7013   20.4938 H   0  0  0  0  0  0
  -31.6119  -18.2747   20.6419 H   0  0  0  0  0  0
  -26.9705  -19.8057   20.0355 H   0  0  0  0  0  0
  -27.0130  -24.4341   20.5243 H   0  0  0  0  0  0
  -27.6767  -24.5464   18.9172 H   0  0  0  0  0  0
  -27.5204  -22.0610   19.8323 H   0  0  0  0  0  0
  -28.7156  -15.6558   20.7243 H   0  0  0  0  0  0
  1 25  1  0  0  0
  1 30  2  0  0  0
  1 80  1  0  0  0
  2  3  1  0  0  0
  2 25  1  0  0  0
  2 83  1  0  0  0
  2 84  1  0  0  0
  3  4  1  0  0  0
  3 85  1  0  0  0
  3 86  1  0  0  0
  4  5  1  0  0  0
  4 87  1  0  0  0
  4 88  1  0  0  0
  5  6  1  0  0  0
  5 26  1  0  0  0
  5 89  1  0  0  0
  6 25  1  0  0  0
  6 90  1  0  0  0
  6 91  1  0  0  0
  7  8  2  0  0  0
  7 26  1  0  0  0
  7 29  1  0  0  0
  8  9  1  0  0  0
  8 22  1  0  0  0
  9 10  1  0  0  0
  9 27  2  0  0  0
 10 11  2  0  0  0
 10 15  1  0  0  0
 11 12  1  0  0  0
 11 92  1  0  0  0
 12 13  2  0  0  0
 12 93  1  0  0  0
 13 14  1  0  0  0
 13 31  1  0  0  0
 14 15  2  0  0  0
 14 94  1  0  0  0
 15 95  1  0  0  0
 16 17  2  0  0  0
 16 21  1  0  0  0
 16 31  1  0  0  0
 17 18  1  0  0  0
 17 96  1  0  0  0
 18 19  2  0  0  0
 18 97  1  0  0  0
 19 20  1  0  0  0
 19 24  1  0  0  0
 20 21  2  0  0  0
 20 98  1  0  0  0
 21 23  1  0  0  0
 22 28  1  0  0  0
 22 32  2  0  0  0
 26 27  1  0  0  0
 28 99  1  0  0  0
 28100  1  0  0  0
 29101  1  0  0  0
 29102  1  0  0  0
 33 34  1  0  0  0
 33 66  1  0  0  0
 33 70  2  0  0  0
 34 36  1  0  0  0
 34 59  1  0  0  0
 34103  1  0  0  0
 35 44  2  0  0  0
 35 45  1  0  0  0
 35 68  1  0  0  0
 36 56  1  0  0  0
 36104  1  0  0  0
 37 39  1  0  0  0
 37 47  1  0  0  0
 37 66  1  0  0  0
 37105  1  0  0  0
 38 43  2  0  0  0
 38 46  1  0  0  0
 38 47  1  0  0  0
 39 64  1  0  0  0
 39 67  2  0  0  0
 40 52  1  0  0  0
 40 53  2  0  0  0
 40 58  1  0  0  0
 41106  1  0  0  0
 41107  1  0  0  0
 41108  1  0  0  0
 41 48  1  0  0  0
 42 43  1  0  0  0
 42 66  1  0  0  0
 42109  1  0  0  0
 42110  1  0  0  0
 43 44  1  0  0  0
 44111  1  0  0  0
 45 46  2  0  0  0
 45112  1  0  0  0
 46113  1  0  0  0
 47114  1  0  0  0
 47115  1  0  0  0
 48 56  1  0  0  0
 48 65  1  0  0  0
 48116  1  0  0  0
 49 50  1  0  0  0
 49 53  1  0  0  0
 49 64  1  0  0  0
 49117  1  0  0  0
 50 51  1  0  0  0
 50118  1  0  0  0
 50119  1  0  0  0
 51 52  1  0  0  0
 51120  1  0  0  0
 51121  1  0  0  0
 52122  1  0  0  0
 52123  1  0  0  0
 53 54  1  0  0  0
 54 55  2  0  0  0
 54124  1  0  0  0
 55 57  1  0  0  0
 55125  1  0  0  0
 56 69  2  0  0  0
 57 58  2  0  0  0
 57126  1  0  0  0
 58127  1  0  0  0
 59 60  1  0  0  0
 59 61  1  0  0  0
 59 62  1  0  0  0
 60128  1  0  0  0
 60129  1  0  0  0
 60130  1  0  0  0
 61131  1  0  0  0
 61132  1  0  0  0
 61133  1  0  0  0
 62134  1  0  0  0
 62135  1  0  0  0
 62136  1  0  0  0
 63 65  1  0  0  0
 63137  1  0  0  0
 63138  1  0  0  0
 63139  1  0  0  0
 64140  1  0  0  0
 65141  1  0  0  0
 68 78  1  0  0  0
 71 72  2  0  0  0
 71 74  1  0  0  0
 71142  1  0  0  0
 72 75  1  0  0  0
 72143  1  0  0  0
 73 74  2  0  0  0
 73 76  1  0  0  0
 73144  1  0  0  0
 74 79  1  0  0  0
 75 76  2  0  0  0
 75 80  1  0  0  0
 76 82  1  0  0  0
 77 78  1  0  0  0
 77 79  1  0  0  0
 77 81  2  0  0  0
 78145  1  0  0  0
 78146  1  0  0  0
 79147  1  0  0  0
 80148  1  0  0  0
M  ISO  4   1 100  68 101  78 101  80 100
M  END
> <chiral flag>
0

> <version>
0

> <s_m_source_file>
/data/baiqing/PycharmProjects/Reinvent-master-3.2/result/LINK_invent/BTK/process_docking_weight1_custom_sum_contain_oxygen_bond_distance_aromatic_linkinvent_7_9_3/rearranged_h_0007.sdf

> <i_m_source_file_index>
94

> <r_mmod_Potential_Energy-OPLS-2005>
393.216552734375

> <r_mmod_Stretch_Energy-OPLS-2005>
217.871948242188

> <r_mmod_Bend_Energy-OPLS-2005>
284.265167236328

> <r_mmod_Torsional_Energy-OPLS-2005>
220.855941772461

> <r_mmod_Improper_Torsional_Energy-OPLS-2005>
4.66032266616821

> <r_mmod_Van_der_Waal_Energy-OPLS-2005>
131.992782592773

> <r_mmod_Electrostatic_Energy-OPLS-2005>
-408.452697753906

> <r_mmod_Solvation_Energy-OPLS-2005>
-240.841186523438

> <b_mmod_Minimization_Converged-OPLS-2005>
0

> <r_mmod_RMS_Derivative-OPLS-2005>
0.679981827735901

$$$$
94
                    3D
 Structure written by MMmdl.
148156  0  0  1  0            999 V2000
  -30.5122  -14.9218   20.4210 C   0  0  0  0  0  0
  -30.4531  -12.5665   19.4870 C   0  0  0  0  0  0
  -29.5248  -12.5329   18.2489 C   0  0  0  0  0  0
  -28.0554  -12.3215   18.6638 C   0  0  0  0  0  0
  -27.6372  -13.2379   19.8425 C   0  0  2  0  0  0
  -28.6832  -13.2237   20.9788 C   0  0  0  0  0  0
  -25.2494  -13.8187   20.5681 C   0  0  0  0  0  0
  -24.1803  -13.0433   20.9229 C   0  0  0  0  0  0
  -24.6403  -11.6915   20.8752 C   0  0  0  0  0  0
  -23.9077  -10.4290   21.0406 C   0  0  0  0  0  0
  -24.3623   -9.4205   21.9184 C   0  0  0  0  0  0
  -23.6292   -8.2244   22.0754 C   0  0  0  0  0  0
  -22.4273   -8.0285   21.3544 C   0  0  0  0  0  0
  -21.9912   -9.0261   20.4649 C   0  0  0  0  0  0
  -22.7246  -10.2135   20.3058 C   0  0  0  0  0  0
  -21.6854   -6.0731   22.5275 C   0  0  0  0  0  0
  -21.4015   -6.5633   23.8208 C   0  0  0  0  0  0
  -21.3662   -5.6786   24.9171 C   0  0  0  0  0  0
  -21.6044   -4.3049   24.7222 C   0  0  0  0  0  0
  -21.8820   -3.8140   23.4345 C   0  0  0  0  0  0
  -21.9192   -4.6957   22.3399 C   0  0  0  0  0  0
  -22.7822  -13.5216   21.1875 C   0  0  0  0  0  0
  -22.1662   -4.2142   21.0977 F   0  0  0  0  0  0
  -21.5629   -3.4536   25.7739 F   0  0  0  0  0  0
  -29.9663  -13.6413   20.3934 N   0  0  0  0  0  0
  -26.2920  -12.9402   20.3233 N   0  0  0  0  0  0
  -25.9333  -11.6544   20.5726 N   0  0  0  0  0  0
  -22.0461  -12.8217   22.0433 N   0  0  0  0  0  0
  -25.4154  -15.1905   20.4032 N   0  0  0  0  0  0
  -31.7048  -15.0554   20.1240 O   0  0  0  0  0  0
  -21.6639   -6.8880   21.4240 O   0  0  0  0  0  0
  -22.3514  -14.5518   20.6710 O   0  0  0  0  0  0
  -24.6443  -31.8448   23.1896 C   0  0  0  0  0  0
  -25.9216  -32.4698   23.8287 C   0  0  1  0  0  0
  -27.2194  -27.1412   20.1396 C   0  0  0  0  0  0
  -25.5963  -33.8505   24.2200 N   0  0  0  0  0  0
  -23.4478  -30.4658   21.5355 C   0  0  2  0  0  0
  -24.8972  -28.8971   20.1102 C   0  0  0  0  0  0
  -22.7577  -29.4550   22.4860 C   0  0  0  0  0  0
  -18.0311  -28.1393   22.8478 C   0  0  0  0  0  0
  -24.1495  -36.7256   23.2642 C   0  0  0  0  0  0
  -26.0052  -30.7192   21.3896 C   0  0  0  0  0  0
  -26.0767  -29.3319   20.7282 C   0  0  0  0  0  0
  -27.2386  -28.4703   20.7274 C   0  0  0  0  0  0
  -26.0107  -26.8123   19.4826 C   0  0  0  0  0  0
  -24.8768  -27.6494   19.4737 C   0  0  0  0  0  0
  -23.6743  -29.7989   20.1540 C   0  0  0  0  0  0
  -25.4127  -36.3034   24.0315 C   0  0  1  0  0  0
  -20.5925  -28.3720   23.1235 C   0  0  2  0  0  0
  -20.6794  -26.9423   22.5404 C   0  0  0  0  0  0
  -19.5763  -26.6377   21.5215 C   0  0  0  0  0  0
  -18.1947  -26.7930   22.1628 C   0  0  0  0  0  0
  -19.1569  -28.8877   23.2847 C   0  0  0  0  0  0
  -18.9480  -30.1472   23.8872 C   0  0  0  0  0  0
  -17.6474  -30.6587   24.0560 C   0  0  0  0  0  0
  -25.9076  -34.9406   23.5066 C   0  0  0  0  0  0
  -16.5368  -29.9079   23.6333 C   0  0  0  0  0  0
  -16.7296  -28.6499   23.0353 C   0  0  0  0  0  0
  -26.4529  -31.6564   25.0728 C   0  0  0  0  0  0
  -25.3706  -31.3765   26.1420 C   0  0  0  0  0  0
  -27.0385  -30.2951   24.6320 C   0  0  0  0  0  0
  -27.6061  -32.4328   25.7511 C   0  0  0  0  0  0
  -27.5573  -37.1796   24.8471 C   0  0  0  0  0  0
  -21.4268  -29.3048   22.3606 N   0  0  0  0  0  0
  -26.4295  -37.3739   23.9395 N   0  0  0  0  0  0
  -24.7189  -31.0306   22.0930 N   0  0  0  0  0  0
  -23.4222  -28.8090   23.3003 O   0  0  0  0  0  0
  -28.2628  -26.1435   20.2061 O   0  0  0  0  0  0
  -26.5660  -34.8903   22.4643 O   0  0  0  0  0  0
  -23.5560  -32.1329   23.7109 O   0  0  0  0  0  0
  -30.5556  -18.5556   20.3651 C   0  0  0  0  0  0
  -30.2820  -19.9982   20.2907 C   0  0  0  0  0  0
  -28.2396  -18.1427   20.4896 C   0  0  0  0  0  0
  -29.5376  -17.5370   20.4734 C   0  0  0  0  0  0
  -28.9593  -20.5786   20.3041 C   0  0  0  0  0  0
  -27.9644  -19.5572   20.3992 C   0  0  0  0  0  0
  -28.9304  -23.3609   20.2667 C   0  0  0  0  0  0
  -27.9099  -24.6404   20.0006 C   0  0  0  0  0  0
  -28.4680  -22.0258   20.1786 N   0  0  0  0  0  0
  -29.6243  -16.0086   20.6072 N   0  0  0  0  0  0
  -30.1122  -23.5927   20.5350 O   0  0  0  0  0  0
  -26.6671  -19.9507   20.4038 F   0  0  0  0  0  0
  -31.4844  -12.7383   19.1752 H   0  0  0  0  0  0
  -30.4520  -11.6030   19.9989 H   0  0  0  0  0  0
  -29.8366  -11.7451   17.5617 H   0  0  0  0  0  0
  -29.6166  -13.4710   17.6997 H   0  0  0  0  0  0
  -27.9406  -11.2757   18.9515 H   0  0  0  0  0  0
  -27.3953  -12.4769   17.8097 H   0  0  0  0  0  0
  -27.6101  -14.2476   19.4324 H   0  0  0  0  0  0
  -28.7617  -12.2309   21.4245 H   0  0  0  0  0  0
  -28.3859  -13.8962   21.7849 H   0  0  0  0  0  0
  -25.2767   -9.5674   22.4762 H   0  0  0  0  0  0
  -23.9995   -7.4633   22.7476 H   0  0  0  0  0  0
  -21.0839   -8.8784   19.8959 H   0  0  0  0  0  0
  -22.3705  -10.9676   19.6171 H   0  0  0  0  0  0
  -21.2010   -7.6141   23.9709 H   0  0  0  0  0  0
  -21.1483   -6.0517   25.9072 H   0  0  0  0  0  0
  -22.0596   -2.7603   23.2848 H   0  0  0  0  0  0
  -22.4073  -11.9888   22.4838 H   0  0  0  0  0  0
  -21.1080  -13.1251   22.2629 H   0  0  0  0  0  0
  -24.6299  -15.8279   20.4806 H   0  0  0  0  0  0
  -26.2201  -15.6099   19.9582 H   0  0  0  0  0  0
  -26.7284  -32.5304   23.1019 H   0  0  0  0  0  0
  -25.0087  -33.9620   25.0332 H   0  0  0  0  0  0
  -22.7507  -31.2922   21.3828 H   0  0  0  0  0  0
  -23.3749  -35.9597   23.3319 H   0  0  0  0  0  0
  -24.3573  -36.8871   22.2053 H   0  0  0  0  0  0
  -23.7267  -37.6465   23.6669 H   0  0  0  0  0  0
  -26.1638  -31.4760   20.6202 H   0  0  0  0  0  0
  -26.8746  -30.7664   22.0337 H   0  0  0  0  0  0
  -28.1353  -28.7977   21.2346 H   0  0  0  0  0  0
  -25.8960  -25.8642   18.9812 H   0  0  0  0  0  0
  -23.9771  -27.3112   18.9782 H   0  0  0  0  0  0
  -23.8123  -30.5751   19.4004 H   0  0  0  0  0  0
  -22.7889  -29.2427   19.8418 H   0  0  0  0  0  0
  -25.1316  -36.1868   25.0809 H   0  0  0  0  0  0
  -21.0023  -28.3313   24.1353 H   0  0  0  0  0  0
  -20.5685  -26.2336   23.3623 H   0  0  0  0  0  0
  -21.6660  -26.7422   22.1202 H   0  0  0  0  0  0
  -19.6920  -25.6282   21.1257 H   0  0  0  0  0  0
  -19.6691  -27.3176   20.6736 H   0  0  0  0  0  0
  -17.4212  -26.6677   21.4036 H   0  0  0  0  0  0
  -18.0343  -26.0079   22.9031 H   0  0  0  0  0  0
  -19.7955  -30.7300   24.2228 H   0  0  0  0  0  0
  -17.5024  -31.6263   24.5165 H   0  0  0  0  0  0
  -15.5366  -30.2968   23.7664 H   0  0  0  0  0  0
  -15.8700  -28.0805   22.7076 H   0  0  0  0  0  0
  -24.5890  -30.7107   25.7742 H   0  0  0  0  0  0
  -24.8890  -32.2951   26.4780 H   0  0  0  0  0  0
  -25.7980  -30.8981   27.0239 H   0  0  0  0  0  0
  -26.3004  -29.6679   24.1307 H   0  0  0  0  0  0
  -27.3959  -29.7249   25.4905 H   0  0  0  0  0  0
  -27.8931  -30.4168   23.9663 H   0  0  0  0  0  0
  -27.2655  -33.3642   26.2046 H   0  0  0  0  0  0
  -28.3893  -32.6869   25.0356 H   0  0  0  0  0  0
  -28.0707  -31.8484   26.5461 H   0  0  0  0  0  0
  -28.2614  -38.0066   24.7468 H   0  0  0  0  0  0
  -28.1045  -36.2596   24.6362 H   0  0  0  0  0  0
  -27.2283  -37.1523   25.8873 H   0  0  0  0  0  0
  -20.9479  -29.8766   21.6786 H   0  0  0  0  0  0
  -26.0164  -38.2816   24.1359 H   0  0  0  0  0  0
  -31.5893  -18.2394   20.3456 H   0  0  0  0  0  0
  -31.1257  -20.6684   20.2073 H   0  0  0  0  0  0
  -27.3790  -17.4966   20.5727 H   0  0  0  0  0  0
  -27.0217  -24.4352   20.5988 H   0  0  0  0  0  0
  -27.6067  -24.5279   18.9598 H   0  0  0  0  0  0
  -27.4699  -22.0293   20.0105 H   0  0  0  0  0  0
  -28.7206  -15.6158   20.8204 H   0  0  0  0  0  0
  1 25  1  0  0  0
  1 30  2  0  0  0
  1 80  1  0  0  0
  2  3  1  0  0  0
  2 25  1  0  0  0
  2 83  1  0  0  0
  2 84  1  0  0  0
  3  4  1  0  0  0
  3 85  1  0  0  0
  3 86  1  0  0  0
  4  5  1  0  0  0
  4 87  1  0  0  0
  4 88  1  0  0  0
  5  6  1  0  0  0
  5 26  1  0  0  0
  5 89  1  0  0  0
  6 25  1  0  0  0
  6 90  1  0  0  0
  6 91  1  0  0  0
  7  8  2  0  0  0
  7 26  1  0  0  0
  7 29  1  0  0  0
  8  9  1  0  0  0
  8 22  1  0  0  0
  9 10  1  0  0  0
  9 27  2  0  0  0
 10 11  2  0  0  0
 10 15  1  0  0  0
 11 12  1  0  0  0
 11 92  1  0  0  0
 12 13  2  0  0  0
 12 93  1  0  0  0
 13 14  1  0  0  0
 13 31  1  0  0  0
 14 15  2  0  0  0
 14 94  1  0  0  0
 15 95  1  0  0  0
 16 17  2  0  0  0
 16 21  1  0  0  0
 16 31  1  0  0  0
 17 18  1  0  0  0
 17 96  1  0  0  0
 18 19  2  0  0  0
 18 97  1  0  0  0
 19 20  1  0  0  0
 19 24  1  0  0  0
 20 21  2  0  0  0
 20 98  1  0  0  0
 21 23  1  0  0  0
 22 28  1  0  0  0
 22 32  2  0  0  0
 26 27  1  0  0  0
 28 99  1  0  0  0
 28100  1  0  0  0
 29101  1  0  0  0
 29102  1  0  0  0
 33 34  1  0  0  0
 33 66  1  0  0  0
 33 70  2  0  0  0
 34 36  1  0  0  0
 34 59  1  0  0  0
 34103  1  0  0  0
 35 44  2  0  0  0
 35 45  1  0  0  0
 35 68  1  0  0  0
 36 56  1  0  0  0
 36104  1  0  0  0
 37 39  1  0  0  0
 37 47  1  0  0  0
 37 66  1  0  0  0
 37105  1  0  0  0
 38 43  2  0  0  0
 38 46  1  0  0  0
 38 47  1  0  0  0
 39 64  1  0  0  0
 39 67  2  0  0  0
 40 52  1  0  0  0
 40 53  2  0  0  0
 40 58  1  0  0  0
 41106  1  0  0  0
 41107  1  0  0  0
 41108  1  0  0  0
 41 48  1  0  0  0
 42 43  1  0  0  0
 42 66  1  0  0  0
 42109  1  0  0  0
 42110  1  0  0  0
 43 44  1  0  0  0
 44111  1  0  0  0
 45 46  2  0  0  0
 45112  1  0  0  0
 46113  1  0  0  0
 47114  1  0  0  0
 47115  1  0  0  0
 48 56  1  0  0  0
 48 65  1  0  0  0
 48116  1  0  0  0
 49 50  1  0  0  0
 49 53  1  0  0  0
 49 64  1  0  0  0
 49117  1  0  0  0
 50 51  1  0  0  0
 50118  1  0  0  0
 50119  1  0  0  0
 51 52  1  0  0  0
 51120  1  0  0  0
 51121  1  0  0  0
 52122  1  0  0  0
 52123  1  0  0  0
 53 54  1  0  0  0
 54 55  2  0  0  0
 54124  1  0  0  0
 55 57  1  0  0  0
 55125  1  0  0  0
 56 69  2  0  0  0
 57 58  2  0  0  0
 57126  1  0  0  0
 58127  1  0  0  0
 59 60  1  0  0  0
 59 61  1  0  0  0
 59 62  1  0  0  0
 60128  1  0  0  0
 60129  1  0  0  0
 60130  1  0  0  0
 61131  1  0  0  0
 61132  1  0  0  0
 61133  1  0  0  0
 62134  1  0  0  0
 62135  1  0  0  0
 62136  1  0  0  0
 63 65  1  0  0  0
 63137  1  0  0  0
 63138  1  0  0  0
 63139  1  0  0  0
 64140  1  0  0  0
 65141  1  0  0  0
 68 78  1  0  0  0
 71 72  2  0  0  0
 71 74  1  0  0  0
 71142  1  0  0  0
 72 75  1  0  0  0
 72143  1  0  0  0
 73 74  2  0  0  0
 73 76  1  0  0  0
 73144  1  0  0  0
 74 80  1  0  0  0
 75 76  2  0  0  0
 75 79  1  0  0  0
 76 82  1  0  0  0
 77 78  1  0  0  0
 77 79  1  0  0  0
 77 81  2  0  0  0
 78145  1  0  0  0
 78146  1  0  0  0
 79147  1  0  0  0
 80148  1  0  0  0
M  ISO  4   1 100  68 101  78 101  80 100
M  END
> <chiral flag>
0

> <version>
0

> <s_m_source_file>
/data/baiqing/PycharmProjects/Reinvent-master-3.2/result/LINK_invent/BTK/process_docking_weight1_custom_sum_contain_oxygen_bond_distance_aromatic_linkinvent_7_9_3/rearranged_h_0007.sdf

> <i_m_source_file_index>
95

> <r_mmod_Potential_Energy-OPLS-2005>
408.086791992188

> <r_mmod_Stretch_Energy-OPLS-2005>
218.79460144043

> <r_mmod_Bend_Energy-OPLS-2005>
281.798767089844

> <r_mmod_Torsional_Energy-OPLS-2005>
220.497772216797

> <r_mmod_Improper_Torsional_Energy-OPLS-2005>
5.07187652587891

> <r_mmod_Van_der_Waal_Energy-OPLS-2005>
130.193206787109

> <r_mmod_Electrostatic_Energy-OPLS-2005>
-389.395721435547

> <r_mmod_Solvation_Energy-OPLS-2005>
-242.372695922852

> <b_mmod_Minimization_Converged-OPLS-2005>
0

> <r_mmod_RMS_Derivative-OPLS-2005>
0.813941478729248

$$$$
95
                    3D
 Structure written by MMmdl.
148156  0  0  1  0            999 V2000
  -30.5089  -14.9122   20.4351 C   0  0  0  0  0  0
  -30.4555  -12.5616   19.4901 C   0  0  0  0  0  0
  -29.5264  -12.5317   18.2520 C   0  0  0  0  0  0
  -28.0565  -12.3206   18.6662 C   0  0  0  0  0  0
  -27.6389  -13.2354   19.8464 C   0  0  2  0  0  0
  -28.6835  -13.2119   20.9840 C   0  0  0  0  0  0
  -25.2500  -13.8182   20.5681 C   0  0  0  0  0  0
  -24.1806  -13.0431   20.9230 C   0  0  0  0  0  0
  -24.6402  -11.6911   20.8760 C   0  0  0  0  0  0
  -23.9076  -10.4289   21.0416 C   0  0  0  0  0  0
  -24.3624   -9.4201   21.9190 C   0  0  0  0  0  0
  -23.6294   -8.2240   22.0758 C   0  0  0  0  0  0
  -22.4276   -8.0282   21.3547 C   0  0  0  0  0  0
  -21.9915   -9.0259   20.4652 C   0  0  0  0  0  0
  -22.7249  -10.2135   20.3063 C   0  0  0  0  0  0
  -21.6853   -6.0736   22.5279 C   0  0  0  0  0  0
  -21.4015   -6.5640   23.8212 C   0  0  0  0  0  0
  -21.3659   -5.6793   24.9175 C   0  0  0  0  0  0
  -21.6044   -4.3056   24.7225 C   0  0  0  0  0  0
  -21.8818   -3.8147   23.4347 C   0  0  0  0  0  0
  -21.9192   -4.6963   22.3402 C   0  0  0  0  0  0
  -22.7826  -13.5218   21.1880 C   0  0  0  0  0  0
  -22.1661   -4.2149   21.0979 F   0  0  0  0  0  0
  -21.5626   -3.4539   25.7738 F   0  0  0  0  0  0
  -29.9682  -13.6307   20.4025 N   0  0  0  0  0  0
  -26.2925  -12.9392   20.3247 N   0  0  0  0  0  0
  -25.9332  -11.6537   20.5742 N   0  0  0  0  0  0
  -22.0465  -12.8213   22.0434 N   0  0  0  0  0  0
  -25.4162  -15.1901   20.4026 N   0  0  0  0  0  0
  -31.6970  -15.0562   20.1234 O   0  0  0  0  0  0
  -21.6639   -6.8881   21.4242 O   0  0  0  0  0  0
  -22.3518  -14.5520   20.6717 O   0  0  0  0  0  0
  -24.6422  -31.8456   23.1895 C   0  0  0  0  0  0
  -25.9199  -32.4704   23.8282 C   0  0  1  0  0  0
  -27.2214  -27.1519   20.1469 C   0  0  0  0  0  0
  -25.5952  -33.8509   24.2201 N   0  0  0  0  0  0
  -23.4453  -30.4654   21.5351 C   0  0  2  0  0  0
  -24.8953  -28.8959   20.1105 C   0  0  0  0  0  0
  -22.7562  -29.4552   22.4864 C   0  0  0  0  0  0
  -18.0305  -28.1392   22.8480 C   0  0  0  0  0  0
  -24.1492  -36.7261   23.2642 C   0  0  0  0  0  0
  -26.0006  -30.7245   21.3860 C   0  0  0  0  0  0
  -26.0728  -29.3373   20.7273 C   0  0  0  0  0  0
  -27.2369  -28.4820   20.7280 C   0  0  0  0  0  0
  -26.0152  -26.8096   19.4937 C   0  0  0  0  0  0
  -24.8787  -27.6448   19.4786 C   0  0  0  0  0  0
  -23.6712  -29.7962   20.1539 C   0  0  0  0  0  0
  -25.4122  -36.3038   24.0318 C   0  0  1  0  0  0
  -20.5917  -28.3717   23.1239 C   0  0  2  0  0  0
  -20.6789  -26.9422   22.5403 C   0  0  0  0  0  0
  -19.5760  -26.6380   21.5213 C   0  0  0  0  0  0
  -18.1944  -26.7931   22.1628 C   0  0  0  0  0  0
  -19.1562  -28.8873   23.2853 C   0  0  0  0  0  0
  -18.9477  -30.1469   23.8878 C   0  0  0  0  0  0
  -17.6473  -30.6589   24.0558 C   0  0  0  0  0  0
  -25.9071  -34.9412   23.5068 C   0  0  0  0  0  0
  -16.5365  -29.9082   23.6333 C   0  0  0  0  0  0
  -16.7289  -28.6500   23.0357 C   0  0  0  0  0  0
  -26.4522  -31.6564   25.0716 C   0  0  0  0  0  0
  -25.3712  -31.3749   26.1414 C   0  0  0  0  0  0
  -27.0385  -30.2963   24.6283 C   0  0  0  0  0  0
  -27.6053  -32.4328   25.7502 C   0  0  0  0  0  0
  -27.5575  -37.1788   24.8465 C   0  0  0  0  0  0
  -21.4255  -29.3048   22.3615 N   0  0  0  0  0  0
  -26.4286  -37.3749   23.9408 N   0  0  0  0  0  0
  -24.7158  -31.0325   22.0923 N   0  0  0  0  0  0
  -23.4210  -28.8096   23.3008 O   0  0  0  0  0  0
  -28.2796  -26.1752   20.2158 O   0  0  0  0  0  0
  -26.5655  -34.8906   22.4645 O   0  0  0  0  0  0
  -23.5543  -32.1325   23.7122 O   0  0  0  0  0  0
  -30.4979  -18.5502   20.3681 C   0  0  0  0  0  0
  -30.1918  -19.9876   20.3030 C   0  0  0  0  0  0
  -28.2013  -18.0915   20.6159 C   0  0  0  0  0  0
  -29.5058  -17.5125   20.5303 C   0  0  0  0  0  0
  -28.8604  -20.5427   20.3787 C   0  0  0  0  0  0
  -27.8953  -19.4982   20.5370 C   0  0  0  0  0  0
  -27.9814  -24.6559   20.0800 C   0  0  0  0  0  0
  -28.9666  -23.3090   20.3181 C   0  0  0  0  0  0
  -29.6181  -15.9877   20.6567 N   0  0  0  0  0  0
  -28.3436  -21.9122   20.2867 O   0  0  0  0  0  0
  -26.5907  -19.8568   20.6201 F   0  0  0  0  0  0
  -31.4867  -12.7370   19.1791 H   0  0  0  0  0  0
  -30.4561  -11.5962   19.9987 H   0  0  0  0  0  0
  -29.8377  -11.7454   17.5632 H   0  0  0  0  0  0
  -29.6191  -13.4710   17.7045 H   0  0  0  0  0  0
  -27.9424  -11.2750   18.9545 H   0  0  0  0  0  0
  -27.3955  -12.4747   17.8124 H   0  0  0  0  0  0
  -27.6160  -14.2467   19.4405 H   0  0  0  0  0  0
  -28.7608  -12.2155   21.4218 H   0  0  0  0  0  0
  -28.3869  -13.8773   21.7964 H   0  0  0  0  0  0
  -25.2769   -9.5672   22.4767 H   0  0  0  0  0  0
  -24.0000   -7.4629   22.7477 H   0  0  0  0  0  0
  -21.0844   -8.8784   19.8957 H   0  0  0  0  0  0
  -22.3712  -10.9678   19.6174 H   0  0  0  0  0  0
  -21.2010   -7.6149   23.9716 H   0  0  0  0  0  0
  -21.1480   -6.0523   25.9077 H   0  0  0  0  0  0
  -22.0597   -2.7608   23.2848 H   0  0  0  0  0  0
  -22.4083  -11.9878   22.4830 H   0  0  0  0  0  0
  -21.1084  -13.1242   22.2641 H   0  0  0  0  0  0
  -24.6295  -15.8261   20.4770 H   0  0  0  0  0  0
  -26.2182  -15.6066   19.9499 H   0  0  0  0  0  0
  -26.7265  -32.5316   23.1014 H   0  0  0  0  0  0
  -25.0077  -33.9626   25.0333 H   0  0  0  0  0  0
  -22.7472  -31.2910   21.3818 H   0  0  0  0  0  0
  -23.3757  -35.9590   23.3292 H   0  0  0  0  0  0
  -24.3578  -36.8903   22.2059 H   0  0  0  0  0  0
  -23.7245  -37.6454   23.6684 H   0  0  0  0  0  0
  -26.1536  -31.4794   20.6136 H   0  0  0  0  0  0
  -26.8721  -30.7754   22.0269 H   0  0  0  0  0  0
  -28.1335  -28.8156   21.2313 H   0  0  0  0  0  0
  -25.9102  -25.8553   19.0018 H   0  0  0  0  0  0
  -23.9801  -27.3016   18.9846 H   0  0  0  0  0  0
  -23.8070  -30.5716   19.3992 H   0  0  0  0  0  0
  -22.7864  -29.2380   19.8427 H   0  0  0  0  0  0
  -25.1309  -36.1869   25.0810 H   0  0  0  0  0  0
  -21.0010  -28.3306   24.1360 H   0  0  0  0  0  0
  -20.5685  -26.2330   23.3621 H   0  0  0  0  0  0
  -21.6654  -26.7429   22.1199 H   0  0  0  0  0  0
  -19.6921  -25.6286   21.1255 H   0  0  0  0  0  0
  -19.6694  -27.3179   20.6734 H   0  0  0  0  0  0
  -17.4210  -26.6673   21.4035 H   0  0  0  0  0  0
  -18.0346  -26.0078   22.9030 H   0  0  0  0  0  0
  -19.7952  -30.7291   24.2241 H   0  0  0  0  0  0
  -17.5025  -31.6268   24.5163 H   0  0  0  0  0  0
  -15.5364  -30.2977   23.7663 H   0  0  0  0  0  0
  -15.8691  -28.0808   22.7085 H   0  0  0  0  0  0
  -24.5894  -30.7094   25.7734 H   0  0  0  0  0  0
  -24.8898  -32.2930   26.4792 H   0  0  0  0  0  0
  -25.7998  -30.8952   27.0222 H   0  0  0  0  0  0
  -26.2998  -29.6690   24.1281 H   0  0  0  0  0  0
  -27.3997  -29.7256   25.4848 H   0  0  0  0  0  0
  -27.8906  -30.4204   23.9597 H   0  0  0  0  0  0
  -27.2645  -33.3646   26.2028 H   0  0  0  0  0  0
  -28.3892  -32.6860   25.0352 H   0  0  0  0  0  0
  -28.0689  -31.8488   26.5463 H   0  0  0  0  0  0
  -28.2585  -38.0091   24.7510 H   0  0  0  0  0  0
  -28.1079  -36.2622   24.6295 H   0  0  0  0  0  0
  -27.2293  -37.1437   25.8868 H   0  0  0  0  0  0
  -20.9461  -29.8768   21.6802 H   0  0  0  0  0  0
  -26.0155  -38.2818   24.1409 H   0  0  0  0  0  0
  -31.5349  -18.2525   20.2974 H   0  0  0  0  0  0
  -31.0171  -20.6732   20.1773 H   0  0  0  0  0  0
  -27.3590  -17.4297   20.7477 H   0  0  0  0  0  0
  -27.1214  -24.4889   20.7294 H   0  0  0  0  0  0
  -27.6025  -24.5258   19.0670 H   0  0  0  0  0  0
  -29.4518  -23.4117   21.2888 H   0  0  0  0  0  0
  -29.7707  -23.3307   19.5826 H   0  0  0  0  0  0
  -28.7268  -15.5824   20.8973 H   0  0  0  0  0  0
  1 25  1  0  0  0
  1 30  2  0  0  0
  1 79  1  0  0  0
  2  3  1  0  0  0
  2 25  1  0  0  0
  2 82  1  0  0  0
  2 83  1  0  0  0
  3  4  1  0  0  0
  3 84  1  0  0  0
  3 85  1  0  0  0
  4  5  1  0  0  0
  4 86  1  0  0  0
  4 87  1  0  0  0
  5  6  1  0  0  0
  5 26  1  0  0  0
  5 88  1  0  0  0
  6 25  1  0  0  0
  6 89  1  0  0  0
  6 90  1  0  0  0
  7  8  2  0  0  0
  7 26  1  0  0  0
  7 29  1  0  0  0
  8  9  1  0  0  0
  8 22  1  0  0  0
  9 10  1  0  0  0
  9 27  2  0  0  0
 10 11  2  0  0  0
 10 15  1  0  0  0
 11 12  1  0  0  0
 11 91  1  0  0  0
 12 13  2  0  0  0
 12 92  1  0  0  0
 13 14  1  0  0  0
 13 31  1  0  0  0
 14 15  2  0  0  0
 14 93  1  0  0  0
 15 94  1  0  0  0
 16 17  2  0  0  0
 16 21  1  0  0  0
 16 31  1  0  0  0
 17 18  1  0  0  0
 17 95  1  0  0  0
 18 19  2  0  0  0
 18 96  1  0  0  0
 19 20  1  0  0  0
 19 24  1  0  0  0
 20 21  2  0  0  0
 20 97  1  0  0  0
 21 23  1  0  0  0
 22 28  1  0  0  0
 22 32  2  0  0  0
 26 27  1  0  0  0
 28 98  1  0  0  0
 28 99  1  0  0  0
 29100  1  0  0  0
 29101  1  0  0  0
 33 34  1  0  0  0
 33 66  1  0  0  0
 33 70  2  0  0  0
 34 36  1  0  0  0
 34 59  1  0  0  0
 34102  1  0  0  0
 35 44  2  0  0  0
 35 45  1  0  0  0
 35 68  1  0  0  0
 36 56  1  0  0  0
 36103  1  0  0  0
 37 39  1  0  0  0
 37 47  1  0  0  0
 37 66  1  0  0  0
 37104  1  0  0  0
 38 43  2  0  0  0
 38 46  1  0  0  0
 38 47  1  0  0  0
 39 64  1  0  0  0
 39 67  2  0  0  0
 40 52  1  0  0  0
 40 53  2  0  0  0
 40 58  1  0  0  0
 41105  1  0  0  0
 41106  1  0  0  0
 41107  1  0  0  0
 41 48  1  0  0  0
 42 43  1  0  0  0
 42 66  1  0  0  0
 42108  1  0  0  0
 42109  1  0  0  0
 43 44  1  0  0  0
 44110  1  0  0  0
 45 46  2  0  0  0
 45111  1  0  0  0
 46112  1  0  0  0
 47113  1  0  0  0
 47114  1  0  0  0
 48 56  1  0  0  0
 48 65  1  0  0  0
 48115  1  0  0  0
 49 50  1  0  0  0
 49 53  1  0  0  0
 49 64  1  0  0  0
 49116  1  0  0  0
 50 51  1  0  0  0
 50117  1  0  0  0
 50118  1  0  0  0
 51 52  1  0  0  0
 51119  1  0  0  0
 51120  1  0  0  0
 52121  1  0  0  0
 52122  1  0  0  0
 53 54  1  0  0  0
 54 55  2  0  0  0
 54123  1  0  0  0
 55 57  1  0  0  0
 55124  1  0  0  0
 56 69  2  0  0  0
 57 58  2  0  0  0
 57125  1  0  0  0
 58126  1  0  0  0
 59 60  1  0  0  0
 59 61  1  0  0  0
 59 62  1  0  0  0
 60127  1  0  0  0
 60128  1  0  0  0
 60129  1  0  0  0
 61130  1  0  0  0
 61131  1  0  0  0
 61132  1  0  0  0
 62133  1  0  0  0
 62134  1  0  0  0
 62135  1  0  0  0
 63 65  1  0  0  0
 63136  1  0  0  0
 63137  1  0  0  0
 63138  1  0  0  0
 64139  1  0  0  0
 65140  1  0  0  0
 68 77  1  0  0  0
 71 72  2  0  0  0
 71 74  1  0  0  0
 71141  1  0  0  0
 72 75  1  0  0  0
 72142  1  0  0  0
 73 74  2  0  0  0
 73 76  1  0  0  0
 73143  1  0  0  0
 74 79  1  0  0  0
 75 76  2  0  0  0
 75 80  1  0  0  0
 76 81  1  0  0  0
 77 78  1  0  0  0
 77144  1  0  0  0
 77145  1  0  0  0
 78 80  1  0  0  0
 78146  1  0  0  0
 78147  1  0  0  0
 79148  1  0  0  0
M  ISO  4   1 100  68 101  77 101  79 100
M  END
> <chiral flag>
0

> <version>
0

> <s_m_source_file>
/data/baiqing/PycharmProjects/Reinvent-master-3.2/result/LINK_invent/BTK/process_docking_weight1_custom_sum_contain_oxygen_bond_distance_aromatic_linkinvent_7_9_3/rearranged_h_0007.sdf

> <i_m_source_file_index>
96

> <r_mmod_Potential_Energy-OPLS-2005>
491.091247558594

> <r_mmod_Stretch_Energy-OPLS-2005>
216.953765869141

> <r_mmod_Bend_Energy-OPLS-2005>
302.484619140625

> <r_mmod_Torsional_Energy-OPLS-2005>
212.021713256836

> <r_mmod_Improper_Torsional_Energy-OPLS-2005>
4.76716709136963

> <r_mmod_Van_der_Waal_Energy-OPLS-2005>
130.573699951172

> <r_mmod_Electrostatic_Energy-OPLS-2005>
-337.487060546875

> <r_mmod_Solvation_Energy-OPLS-2005>
-212.451721191406

> <b_mmod_Minimization_Converged-OPLS-2005>
0

> <r_mmod_RMS_Derivative-OPLS-2005>
0.366873770952225

$$$$
96
                    3D
 Structure written by MMmdl.
172180  0  0  1  0            999 V2000
  -30.7114  -14.3916   20.5897 C   0  0  0  0  0  0
  -30.4349  -12.2595   19.4178 C   0  0  0  0  0  0
  -29.4955  -12.4866   18.2153 C   0  0  0  0  0  0
  -28.0161  -12.3514   18.6331 C   0  0  0  0  0  0
  -27.6697  -13.1835   19.8950 C   0  0  2  0  0  0
  -28.7112  -12.9263   21.0111 C   0  0  0  0  0  0
  -25.2655  -13.8089   20.5774 C   0  0  0  0  0  0
  -24.1841  -13.0415   20.9165 C   0  0  0  0  0  0
  -24.6354  -11.6859   20.8783 C   0  0  0  0  0  0
  -23.8981  -10.4277   21.0484 C   0  0  0  0  0  0
  -24.3582   -9.4179   21.9236 C   0  0  0  0  0  0
  -23.6269   -8.2200   22.0800 C   0  0  0  0  0  0
  -22.4270   -8.0201   21.3554 C   0  0  0  0  0  0
  -21.9818   -9.0178   20.4729 C   0  0  0  0  0  0
  -22.7143  -10.2071   20.3160 C   0  0  0  0  0  0
  -21.6843   -6.0660   22.5269 C   0  0  0  0  0  0
  -21.3982   -6.5586   23.8189 C   0  0  0  0  0  0
  -21.3699   -5.6781   24.9183 C   0  0  0  0  0  0
  -21.6073   -4.3017   24.7248 C   0  0  0  0  0  0
  -21.8832   -3.8065   23.4380 C   0  0  0  0  0  0
  -21.9203   -4.6878   22.3427 C   0  0  0  0  0  0
  -22.7877  -13.5208   21.1808 C   0  0  0  0  0  0
  -22.1667   -4.2067   21.1006 F   0  0  0  0  0  0
  -21.5692   -3.4514   25.7778 F   0  0  0  0  0  0
  -30.0562  -13.2128   20.4673 N   0  0  0  0  0  0
  -26.3066  -12.9205   20.3519 N   0  0  0  0  0  0
  -25.9284  -11.6406   20.5900 N   0  0  0  0  0  0
  -22.0530  -12.8257   22.0416 N   0  0  0  0  0  0
  -25.4485  -15.1798   20.4255 N   0  0  0  0  0  0
  -31.8195  -14.6271   20.0957 O   0  0  0  0  0  0
  -21.6652   -6.8781   21.4222 O   0  0  0  0  0  0
  -22.3558  -14.5500   20.6622 O   0  0  0  0  0  0
  -24.6091  -31.8740   23.2149 C   0  0  0  0  0  0
  -25.9027  -32.4859   23.8417 C   0  0  1  0  0  0
  -27.2343  -27.4987   20.0684 C   0  0  0  0  0  0
  -25.5924  -33.8647   24.2356 N   0  0  0  0  0  0
  -23.3935  -30.4959   21.5565 C   0  0  2  0  0  0
  -24.8378  -28.9647   20.1179 C   0  0  0  0  0  0
  -22.7382  -29.4703   22.5054 C   0  0  0  0  0  0
  -18.0274  -28.1372   22.8487 C   0  0  0  0  0  0
  -24.1484  -36.7308   23.2639 C   0  0  0  0  0  0
  -25.9169  -30.8534   21.3611 C   0  0  0  0  0  0
  -25.9937  -29.4929   20.7049 C   0  0  0  0  0  0
  -27.1995  -28.7664   20.6737 C   0  0  0  0  0  0
  -26.0681  -26.9606   19.4923 C   0  0  0  0  0  0
  -24.8656  -27.6941   19.5133 C   0  0  0  0  0  0
  -23.5969  -29.8258   20.1700 C   0  0  0  0  0  0
  -25.4113  -36.3131   24.0345 C   0  0  1  0  0  0
  -20.5857  -28.3663   23.1330 C   0  0  2  0  0  0
  -20.6763  -26.9413   22.5427 C   0  0  0  0  0  0
  -19.5763  -26.6396   21.5202 C   0  0  0  0  0  0
  -18.1930  -26.7915   22.1609 C   0  0  0  0  0  0
  -19.1513  -28.8838   23.2892 C   0  0  0  0  0  0
  -18.9463  -30.1447   23.8913 C   0  0  0  0  0  0
  -17.6466  -30.6587   24.0562 C   0  0  0  0  0  0
  -25.9059  -34.9494   23.5154 C   0  0  0  0  0  0
  -16.5358  -29.9109   23.6309 C   0  0  0  0  0  0
  -16.7266  -28.6512   23.0347 C   0  0  0  0  0  0
  -26.4464  -31.6613   25.0721 C   0  0  0  0  0  0
  -25.3723  -31.3726   26.1479 C   0  0  0  0  0  0
  -27.0307  -30.3062   24.6074 C   0  0  0  0  0  0
  -27.6067  -32.4312   25.7457 C   0  0  0  0  0  0
  -27.5592  -37.1802   24.8463 C   0  0  0  0  0  0
  -21.4126  -29.3014   22.3726 N   0  0  0  0  0  0
  -26.4296  -37.3813   23.9420 N   0  0  0  0  0  0
  -24.6578  -31.0883   22.1031 N   0  0  0  0  0  0
  -23.4152  -28.8243   23.3078 O   0  0  0  0  0  0
  -28.4035  -26.7962   20.0399 O   0  0  0  0  0  0
  -26.5612  -34.8936   22.4700 O   0  0  0  0  0  0
  -23.5310  -32.1503   23.7590 O   0  0  0  0  0  0
  -28.2762  -21.3845   20.9342 C   0  0  0  0  0  0
  -28.4263  -20.0799   20.4477 C   0  0  0  0  0  0
  -26.8443  -20.5681   18.6559 C   0  0  0  0  0  0
  -27.4523  -22.3018   20.2519 C   0  0  0  0  0  0
  -26.6833  -21.8927   19.1333 C   0  0  0  0  0  0
  -27.7474  -19.6783   19.2787 C   0  0  0  0  0  0
  -28.5447  -24.4412   20.4850 C   0  0  0  0  0  0
  -27.1221  -23.0232   16.3808 C   0  0  0  0  0  0
  -23.5547  -21.8795   19.0636 C   0  0  0  0  0  0
  -28.4975  -25.8418   21.0891 C   0  0  0  0  0  0
  -29.7263  -16.7643   18.9904 C   0  0  0  0  0  0
  -25.7485  -22.8391   17.0471 C   0  0  0  0  0  0
  -24.5626  -23.0206   19.2524 C   0  0  0  0  0  0
  -29.9086  -16.7363   20.5305 C   0  0  0  0  0  0
  -29.3124  -18.1277   18.4244 C   0  0  0  0  0  0
  -27.4754  -23.6520   20.6612 N   0  0  0  0  0  0
  -29.9372  -15.3754   21.0557 N   0  0  0  0  0  0
  -25.8099  -22.8124   18.5128 N   0  0  0  0  0  0
  -29.5469  -24.0847   19.8543 O   0  0  0  0  0  0
  -27.9508  -18.4317   18.7435 O   0  0  0  0  0  0
  -31.4792  -12.3627   19.1164 H   0  0  0  0  0  0
  -30.3364  -11.2417   19.7935 H   0  0  0  0  0  0
  -29.7289  -11.7722   17.4240 H   0  0  0  0  0  0
  -29.6784  -13.4778   17.7976 H   0  0  0  0  0  0
  -27.8188  -11.2946   18.8286 H   0  0  0  0  0  0
  -27.3621  -12.6308   17.8056 H   0  0  0  0  0  0
  -27.7286  -14.2345   19.6150 H   0  0  0  0  0  0
  -28.6708  -11.8871   21.3395 H   0  0  0  0  0  0
  -28.4782  -13.5089   21.9032 H   0  0  0  0  0  0
  -25.2707   -9.5667   22.4842 H   0  0  0  0  0  0
  -24.0047   -7.4586   22.7454 H   0  0  0  0  0  0
  -21.0709   -8.8613   19.9099 H   0  0  0  0  0  0
  -22.3510  -10.9579   19.6335 H   0  0  0  0  0  0
  -21.1916   -7.6073   23.9647 H   0  0  0  0  0  0
  -21.1573   -6.0541   25.9100 H   0  0  0  0  0  0
  -22.0604   -2.7525   23.2936 H   0  0  0  0  0  0
  -22.4088  -11.9910   22.4839 H   0  0  0  0  0  0
  -21.1186  -13.1404   22.2605 H   0  0  0  0  0  0
  -24.6949  -15.8423   20.5514 H   0  0  0  0  0  0
  -26.3183  -15.6169   20.1463 H   0  0  0  0  0  0
  -26.7072  -32.5578   23.1164 H   0  0  0  0  0  0
  -25.0069  -33.9796   25.0502 H   0  0  0  0  0  0
  -22.6809  -31.3115   21.4186 H   0  0  0  0  0  0
  -23.3762  -35.9624   23.3339 H   0  0  0  0  0  0
  -24.3567  -36.8899   22.2046 H   0  0  0  0  0  0
  -23.7216  -37.6513   23.6632 H   0  0  0  0  0  0
  -26.0276  -31.6253   20.5997 H   0  0  0  0  0  0
  -26.8041  -30.8999   21.9815 H   0  0  0  0  0  0
  -28.1018  -29.1737   21.1035 H   0  0  0  0  0  0
  -26.0916  -25.9858   19.0264 H   0  0  0  0  0  0
  -23.9740  -27.2817   19.0601 H   0  0  0  0  0  0
  -23.7052  -30.6036   19.4123 H   0  0  0  0  0  0
  -22.7207  -29.2461   19.8726 H   0  0  0  0  0  0
  -25.1264  -36.1999   25.0834 H   0  0  0  0  0  0
  -20.9939  -28.3233   24.1459 H   0  0  0  0  0  0
  -20.5664  -26.2283   23.3606 H   0  0  0  0  0  0
  -21.6630  -26.7463   22.1215 H   0  0  0  0  0  0
  -19.6944  -25.6310   21.1236 H   0  0  0  0  0  0
  -19.6697  -27.3197   20.6714 H   0  0  0  0  0  0
  -17.4197  -26.6686   21.4015 H   0  0  0  0  0  0
  -18.0342  -26.0032   22.8981 H   0  0  0  0  0  0
  -19.7948  -30.7242   24.2293 H   0  0  0  0  0  0
  -17.5040  -31.6267   24.5168 H   0  0  0  0  0  0
  -15.5366  -30.3020   23.7641 H   0  0  0  0  0  0
  -15.8659  -28.0842   22.7069 H   0  0  0  0  0  0
  -24.5879  -30.7097   25.7807 H   0  0  0  0  0  0
  -24.8935  -32.2901   26.4910 H   0  0  0  0  0  0
  -25.8075  -30.8895   27.0235 H   0  0  0  0  0  0
  -26.2875  -29.6809   24.1126 H   0  0  0  0  0  0
  -27.4116  -29.7297   25.4510 H   0  0  0  0  0  0
  -27.8664  -30.4419   23.9207 H   0  0  0  0  0  0
  -27.2726  -33.3601   26.2075 H   0  0  0  0  0  0
  -28.3839  -32.6891   25.0246 H   0  0  0  0  0  0
  -28.0760  -31.8401   26.5328 H   0  0  0  0  0  0
  -28.2603  -38.0105   24.7523 H   0  0  0  0  0  0
  -28.1108  -36.2649   24.6268 H   0  0  0  0  0  0
  -27.2322  -37.1397   25.8867 H   0  0  0  0  0  0
  -20.9341  -29.8701   21.6881 H   0  0  0  0  0  0
  -26.0212  -38.2901   24.1432 H   0  0  0  0  0  0
  -28.8373  -21.6916   21.8079 H   0  0  0  0  0  0
  -29.0963  -19.4070   20.9621 H   0  0  0  0  0  0
  -26.3028  -20.2333   17.7818 H   0  0  0  0  0  0
  -27.0131  -22.9979   15.2951 H   0  0  0  0  0  0
  -27.8299  -22.2373   16.6486 H   0  0  0  0  0  0
  -27.5715  -23.9809   16.6431 H   0  0  0  0  0  0
  -22.6460  -22.0772   19.6344 H   0  0  0  0  0  0
  -23.9608  -20.9270   19.4045 H   0  0  0  0  0  0
  -23.2701  -21.7654   18.0182 H   0  0  0  0  0  0
  -29.4280  -26.0259   21.6265 H   0  0  0  0  0  0
  -27.6961  -25.9220   21.8289 H   0  0  0  0  0  0
  -29.0084  -16.0108   18.6628 H   0  0  0  0  0  0
  -30.6742  -16.4889   18.5281 H   0  0  0  0  0  0
  -25.2672  -21.9379   16.6646 H   0  0  0  0  0  0
  -25.1097  -23.6683   16.7405 H   0  0  0  0  0  0
  -24.7718  -23.1357   20.3168 H   0  0  0  0  0  0
  -24.1135  -23.9646   18.9402 H   0  0  0  0  0  0
  -29.0591  -17.2198   21.0078 H   0  0  0  0  0  0
  -30.8033  -17.2866   20.8315 H   0  0  0  0  0  0
  -29.3840  -18.1035   17.3354 H   0  0  0  0  0  0
  -30.0252  -18.8901   18.7430 H   0  0  0  0  0  0
  -26.6205  -24.0550   21.0186 H   0  0  0  0  0  0
  -29.0999  -15.0648   21.5285 H   0  0  0  0  0  0
  1 25  1  0  0  0
  1 30  2  0  0  0
  1 87  1  0  0  0
  2  3  1  0  0  0
  2 25  1  0  0  0
  2 91  1  0  0  0
  2 92  1  0  0  0
  3  4  1  0  0  0
  3 93  1  0  0  0
  3 94  1  0  0  0
  4  5  1  0  0  0
  4 95  1  0  0  0
  4 96  1  0  0  0
  5  6  1  0  0  0
  5 26  1  0  0  0
  5 97  1  0  0  0
  6 25  1  0  0  0
  6 98  1  0  0  0
  6 99  1  0  0  0
  7  8  2  0  0  0
  7 26  1  0  0  0
  7 29  1  0  0  0
  8  9  1  0  0  0
  8 22  1  0  0  0
  9 10  1  0  0  0
  9 27  2  0  0  0
 10 11  2  0  0  0
 10 15  1  0  0  0
 11 12  1  0  0  0
 11100  1  0  0  0
 12 13  2  0  0  0
 12101  1  0  0  0
 13 14  1  0  0  0
 13 31  1  0  0  0
 14 15  2  0  0  0
 14102  1  0  0  0
 15103  1  0  0  0
 16 17  2  0  0  0
 16 21  1  0  0  0
 16 31  1  0  0  0
 17 18  1  0  0  0
 17104  1  0  0  0
 18 19  2  0  0  0
 18105  1  0  0  0
 19 20  1  0  0  0
 19 24  1  0  0  0
 20 21  2  0  0  0
 20106  1  0  0  0
 21 23  1  0  0  0
 22 28  1  0  0  0
 22 32  2  0  0  0
 26 27  1  0  0  0
 28107  1  0  0  0
 28108  1  0  0  0
 29109  1  0  0  0
 29110  1  0  0  0
 33 34  1  0  0  0
 33 66  1  0  0  0
 33 70  2  0  0  0
 34 36  1  0  0  0
 34 59  1  0  0  0
 34111  1  0  0  0
 35 44  2  0  0  0
 35 45  1  0  0  0
 35 68  1  0  0  0
 36 56  1  0  0  0
 36112  1  0  0  0
 37 39  1  0  0  0
 37 47  1  0  0  0
 37 66  1  0  0  0
 37113  1  0  0  0
 38 43  2  0  0  0
 38 46  1  0  0  0
 38 47  1  0  0  0
 39 64  1  0  0  0
 39 67  2  0  0  0
 40 52  1  0  0  0
 40 53  2  0  0  0
 40 58  1  0  0  0
 41114  1  0  0  0
 41115  1  0  0  0
 41116  1  0  0  0
 41 48  1  0  0  0
 42 43  1  0  0  0
 42 66  1  0  0  0
 42117  1  0  0  0
 42118  1  0  0  0
 43 44  1  0  0  0
 44119  1  0  0  0
 45 46  2  0  0  0
 45120  1  0  0  0
 46121  1  0  0  0
 47122  1  0  0  0
 47123  1  0  0  0
 48 56  1  0  0  0
 48 65  1  0  0  0
 48124  1  0  0  0
 49 50  1  0  0  0
 49 53  1  0  0  0
 49 64  1  0  0  0
 49125  1  0  0  0
 50 51  1  0  0  0
 50126  1  0  0  0
 50127  1  0  0  0
 51 52  1  0  0  0
 51128  1  0  0  0
 51129  1  0  0  0
 52130  1  0  0  0
 52131  1  0  0  0
 53 54  1  0  0  0
 54 55  2  0  0  0
 54132  1  0  0  0
 55 57  1  0  0  0
 55133  1  0  0  0
 56 69  2  0  0  0
 57 58  2  0  0  0
 57134  1  0  0  0
 58135  1  0  0  0
 59 60  1  0  0  0
 59 61  1  0  0  0
 59 62  1  0  0  0
 60136  1  0  0  0
 60137  1  0  0  0
 60138  1  0  0  0
 61139  1  0  0  0
 61140  1  0  0  0
 61141  1  0  0  0
 62142  1  0  0  0
 62143  1  0  0  0
 62144  1  0  0  0
 63 65  1  0  0  0
 63145  1  0  0  0
 63146  1  0  0  0
 63147  1  0  0  0
 64148  1  0  0  0
 65149  1  0  0  0
 68 80  1  0  0  0
 71 72  2  0  0  0
 71 74  1  0  0  0
 71150  1  0  0  0
 72 76  1  0  0  0
 72151  1  0  0  0
 73 75  1  0  0  0
 73 76  2  0  0  0
 73152  1  0  0  0
 74 75  2  0  0  0
 74 86  1  0  0  0
 75 88  1  0  0  0
 76 90  1  0  0  0
 77 80  1  0  0  0
 77 86  1  0  0  0
 77 89  2  0  0  0
 78 82  1  0  0  0
 78153  1  0  0  0
 78154  1  0  0  0
 78155  1  0  0  0
 79 83  1  0  0  0
 79156  1  0  0  0
 79157  1  0  0  0
 79158  1  0  0  0
 80159  1  0  0  0
 80160  1  0  0  0
 81 84  1  0  0  0
 81 85  1  0  0  0
 81161  1  0  0  0
 81162  1  0  0  0
 82 88  1  0  0  0
 82163  1  0  0  0
 82164  1  0  0  0
 83 88  1  0  0  0
 83165  1  0  0  0
 83166  1  0  0  0
 84 87  1  0  0  0
 84167  1  0  0  0
 84168  1  0  0  0
 85 90  1  0  0  0
 85169  1  0  0  0
 85170  1  0  0  0
 86171  1  0  0  0
 87172  1  0  0  0
M  ISO  4   1 100  68 101  80 101  87 100
M  END
> <chiral flag>
0

> <version>
0

> <s_m_source_file>
/data/baiqing/PycharmProjects/Reinvent-master-3.2/result/LINK_invent/BTK/process_docking_weight1_custom_sum_contain_oxygen_bond_distance_aromatic_linkinvent_7_9_3/rearranged_h_0007.sdf

> <i_m_source_file_index>
97

> <r_mmod_Potential_Energy-OPLS-2005>
-63.1690521240234

> <r_mmod_Stretch_Energy-OPLS-2005>
33.5752487182617

> <r_mmod_Bend_Energy-OPLS-2005>
92.6684341430664

> <r_mmod_Torsional_Energy-OPLS-2005>
316.798217773438

> <r_mmod_Improper_Torsional_Energy-OPLS-2005>
10.9579219818115

> <r_mmod_Van_der_Waal_Energy-OPLS-2005>
150.576431274414

> <r_mmod_Electrostatic_Energy-OPLS-2005>
-438.462951660156

> <r_mmod_Solvation_Energy-OPLS-2005>
-238.456130981445

> <b_mmod_Minimization_Converged-OPLS-2005>
0

> <r_mmod_RMS_Derivative-OPLS-2005>
5.16085052490234

$$$$
97
                    3D
 Structure written by MMmdl.
167175  0  0  1  0            999 V2000
  -28.3263  -16.7277   21.0693 C   0  0  0  0  0  0
  -29.7962  -14.2710   19.8521 C   0  0  0  0  0  0
  -29.4374  -13.1924   18.6735 C   0  0  0  0  0  0
  -28.1893  -12.3748   18.9926 C   0  0  0  0  0  0
  -27.3856  -13.3145   19.8766 C   0  0  2  0  0  0
  -28.0616  -13.8944   21.1355 C   0  0  0  0  0  0
  -25.1028  -13.8035   20.5429 C   0  0  0  0  0  0
  -24.0768  -13.0157   20.9293 C   0  0  0  0  0  0
  -24.5635  -11.6712   20.8805 C   0  0  0  0  0  0
  -23.8619  -10.4107   21.0502 C   0  0  0  0  0  0
  -24.3376   -9.4098   21.9224 C   0  0  0  0  0  0
  -23.6167   -8.2087   22.0739 C   0  0  0  0  0  0
  -22.4158   -8.0095   21.3521 C   0  0  0  0  0  0
  -21.9701   -9.0005   20.4624 C   0  0  0  0  0  0
  -22.6894  -10.1921   20.3068 C   0  0  0  0  0  0
  -21.6801   -6.0636   22.5290 C   0  0  0  0  0  0
  -21.3978   -6.5583   23.8209 C   0  0  0  0  0  0
  -21.3648   -5.6755   24.9187 C   0  0  0  0  0  0
  -21.6054   -4.3016   24.7246 C   0  0  0  0  0  0
  -21.8832   -3.8086   23.4374 C   0  0  0  0  0  0
  -21.9181   -4.6885   22.3422 C   0  0  0  0  0  0
  -22.6957  -13.4960   21.2119 C   0  0  0  0  0  0
  -22.1656   -4.2081   21.0994 F   0  0  0  0  0  0
  -21.5636   -3.4512   25.7763 F   0  0  0  0  0  0
  -28.6166  -15.1661   20.6527 N   0  0  0  0  0  0
  -26.1138  -12.9166   20.2760 N   0  0  0  0  0  0
  -25.8417  -11.6323   20.5542 N   0  0  0  0  0  0
  -21.9794  -12.7938   22.0780 N   0  0  0  0  0  0
  -25.2691  -15.1796   20.3728 N   0  0  0  0  0  0
  -29.6293  -16.8223   20.9008 O   0  0  0  0  0  0
  -21.6554   -6.8699   21.4221 O   0  0  0  0  0  0
  -22.2724  -14.5344   20.7044 O   0  0  0  0  0  0
  -24.6964  -31.9712   23.2253 C   0  0  0  0  0  0
  -25.9766  -32.5237   23.8838 C   0  0  1  0  0  0
  -27.0445  -27.4577   19.9669 C   0  0  0  0  0  0
  -25.6580  -33.8970   24.2762 N   0  0  0  0  0  0
  -23.5494  -30.6694   21.5488 C   0  0  2  0  0  0
  -24.9180  -29.2096   20.0174 C   0  0  0  0  0  0
  -23.1639  -29.5597   22.4817 C   0  0  0  0  0  0
  -18.1123  -27.2404   21.9106 C   0  0  0  0  0  0
  -24.1529  -36.7382   23.2576 C   0  0  0  0  0  0
  -26.0669  -30.8390   21.4742 C   0  0  0  0  0  0
  -26.0490  -29.4954   20.7891 C   0  0  0  0  0  0
  -27.1172  -28.5593   20.8560 C   0  0  0  0  0  0
  -26.1828  -27.5429   18.9003 C   0  0  0  0  0  0
  -25.0169  -28.2701   19.0144 C   0  0  0  0  0  0
  -23.7042  -30.0803   20.1301 C   0  0  0  0  0  0
  -25.4126  -36.3252   24.0331 C   0  0  1  0  0  0
  -21.6661  -27.9364   22.8350 C   0  0  2  0  0  0
  -22.0862  -26.3479   21.7450 C   0  0  0  0  0  0
  -20.4795  -25.2049   20.6257 C   0  0  0  0  0  0
  -18.4835  -25.8701   20.7535 C   0  0  0  0  0  0
  -20.1387  -28.5126   22.9824 C   0  0  0  0  0  0
  -19.7405  -29.0584   24.4975 C   0  0  0  0  0  0
  -18.2739  -28.7963   25.1509 C   0  0  0  0  0  0
  -25.9179  -34.9670   23.5187 C   0  0  0  0  0  0
  -17.0109  -27.9579   24.5224 C   0  0  0  0  0  0
  -16.8883  -27.2039   23.0635 C   0  0  0  0  0  0
  -26.4700  -31.6713   25.1139 C   0  0  0  0  0  0
  -25.3700  -31.3832   26.1602 C   0  0  0  0  0  0
  -27.0545  -30.3091   24.6671 C   0  0  0  0  0  0
  -27.6169  -32.4329   25.8121 C   0  0  0  0  0  0
  -27.5601  -37.1897   24.8450 C   0  0  0  0  0  0
  -21.9652  -29.1824   22.3170 N   0  0  0  0  0  0
  -26.4281  -37.3937   23.9443 N   0  0  0  0  0  0
  -24.7886  -31.2269   22.0959 N   0  0  0  0  0  0
  -23.9164  -28.9955   23.2795 O   0  0  0  0  0  0
  -27.5927  -26.2201   20.0506 O   0  0  0  0  0  0
  -26.5443  -34.9037   22.4576 O   0  0  0  0  0  0
  -23.6035  -32.2347   23.7534 O   0  0  0  0  0  0
  -18.5441  -29.6685   21.4373 C   0  0  0  0  0  0
  -18.1120  -29.1704   22.8400 C   0  0  0  0  0  0
  -19.5164  -28.8720   20.5645 C   0  0  0  0  0  0
  -19.9808  -26.2772   22.5629 C   0  0  0  0  0  0
  -19.2545  -26.6818   23.7424 C   0  0  0  0  0  0
  -20.2254  -27.5130   20.8698 C   0  0  0  0  0  0
  -21.8783  -23.3788   23.2610 C   0  0  0  0  0  0
  -20.8332  -24.8386   25.2083 C   0  0  0  0  0  0
  -23.7353  -21.8706   22.4777 C   0  0  0  0  0  0
  -25.0472  -25.0780   19.0770 C   0  0  0  0  0  0
  -23.7061  -25.7179   19.7011 C   0  0  0  0  0  0
  -25.5242  -19.8394   22.2795 C   0  0  0  0  0  0
  -26.5341  -25.1213   19.8686 C   0  0  0  0  0  0
  -22.3425  -26.4947   19.0173 C   0  0  0  0  0  0
  -26.9078  -18.0448   21.5055 N   0  0  0  0  0  0
  -20.8880  -25.0252   23.7677 N   0  0  0  0  0  0
  -21.0696  -22.4973   23.5658 O   0  0  0  0  0  0
  -21.1616  -27.4007   19.6593 O   0  0  0  0  0  0
  -30.4529  -15.0007   19.3746 H   0  0  0  0  0  0
  -30.4575  -13.7956   20.5781 H   0  0  0  0  0  0
  -30.2824  -12.5354   18.4602 H   0  0  0  0  0  0
  -29.2471  -13.7385   17.7486 H   0  0  0  0  0  0
  -28.4335  -11.4620   19.5362 H   0  0  0  0  0  0
  -27.6395  -12.0945   18.0927 H   0  0  0  0  0  0
  -27.1701  -14.1156   19.1630 H   0  0  0  0  0  0
  -28.7302  -13.2092   21.6547 H   0  0  0  0  0  0
  -27.3489  -14.1842   21.9093 H   0  0  0  0  0  0
  -25.2501   -9.5681   22.4800 H   0  0  0  0  0  0
  -23.9931   -7.4478   22.7422 H   0  0  0  0  0  0
  -21.0656   -8.8433   19.8915 H   0  0  0  0  0  0
  -22.3304  -10.9450   19.6201 H   0  0  0  0  0  0
  -21.1958   -7.6092   23.9690 H   0  0  0  0  0  0
  -21.1470   -6.0492   25.9088 H   0  0  0  0  0  0
  -22.0631   -2.7549   23.2885 H   0  0  0  0  0  0
  -22.3485  -11.9557   22.5010 H   0  0  0  0  0  0
  -21.0481  -13.0982   22.3223 H   0  0  0  0  0  0
  -24.5131  -15.8472   20.4890 H   0  0  0  0  0  0
  -26.0704  -15.5689   19.8955 H   0  0  0  0  0  0
  -26.8013  -32.5880   23.1774 H   0  0  0  0  0  0
  -25.0986  -34.0151   25.1077 H   0  0  0  0  0  0
  -22.7683  -31.4338   21.5271 H   0  0  0  0  0  0
  -23.3803  -35.9700   23.3215 H   0  0  0  0  0  0
  -24.3673  -36.8986   22.1998 H   0  0  0  0  0  0
  -23.7261  -37.6593   23.6556 H   0  0  0  0  0  0
  -26.3289  -31.5889   20.7273 H   0  0  0  0  0  0
  -26.9027  -30.7995   22.1573 H   0  0  0  0  0  0
  -27.8800  -28.6339   21.6185 H   0  0  0  0  0  0
  -26.3555  -26.9384   18.0229 H   0  0  0  0  0  0
  -24.3128  -28.2691   18.2059 H   0  0  0  0  0  0
  -23.8131  -30.8967   19.4162 H   0  0  0  0  0  0
  -22.8142  -29.5241   19.8281 H   0  0  0  0  0  0
  -25.1253  -36.2106   25.0809 H   0  0  0  0  0  0
  -21.9943  -27.7688   23.8643 H   0  0  0  0  0  0
  -22.7968  -25.7117   22.2719 H   0  0  0  0  0  0
  -22.6928  -27.0762   21.2480 H   0  0  0  0  0  0
  -20.4825  -24.2062   21.0574 H   0  0  0  0  0  0
  -20.6601  -24.8915   19.6089 H   0  0  0  0  0  0
  -18.1683  -26.2121   19.7651 H   0  0  0  0  0  0
  -17.8176  -25.0362   20.9758 H   0  0  0  0  0  0
  -20.5060  -29.5086   25.1171 H   0  0  0  0  0  0
  -18.1250  -29.1685   26.1501 H   0  0  0  0  0  0
  -16.1559  -27.8549   25.1653 H   0  0  0  0  0  0
  -16.0143  -26.5961   22.8735 H   0  0  0  0  0  0
  -24.5911  -30.7261   25.7718 H   0  0  0  0  0  0
  -24.8900  -32.3006   26.5005 H   0  0  0  0  0  0
  -25.7836  -30.8924   27.0411 H   0  0  0  0  0  0
  -26.3301  -29.6969   24.1304 H   0  0  0  0  0  0
  -27.3737  -29.7210   25.5281 H   0  0  0  0  0  0
  -27.9385  -30.4305   24.0405 H   0  0  0  0  0  0
  -27.2704  -33.3576   26.2730 H   0  0  0  0  0  0
  -28.4094  -32.6937   25.1107 H   0  0  0  0  0  0
  -28.0659  -31.8377   26.6065 H   0  0  0  0  0  0
  -28.2515  -38.0295   24.7623 H   0  0  0  0  0  0
  -28.1207  -36.2834   24.6093 H   0  0  0  0  0  0
  -27.2348  -37.1313   25.8856 H   0  0  0  0  0  0
  -21.2705  -29.7034   21.7953 H   0  0  0  0  0  0
  -26.0146  -38.2983   24.1544 H   0  0  0  0  0  0
  -18.1376  -30.5966   21.0686 H   0  0  0  0  0  0
  -17.3717  -29.8420   23.2742 H   0  0  0  0  0  0
  -19.7787  -29.3410   19.6226 H   0  0  0  0  0  0
  -19.4287  -25.3105   22.5342 H   0  0  0  0  0  0
  -20.4158  -25.7371   25.6698 H   0  0  0  0  0  0
  -21.8023  -24.6539   25.6749 H   0  0  0  0  0  0
  -20.1375  -24.0230   25.4202 H   0  0  0  0  0  0
  -24.2368  -22.6000   21.8375 H   0  0  0  0  0  0
  -23.0319  -21.3662   21.8139 H   0  0  0  0  0  0
  -25.1186  -25.3502   18.0287 H   0  0  0  0  0  0
  -24.8213  -24.0156   18.9941 H   0  0  0  0  0  0
  -24.2221  -26.3471   20.4185 H   0  0  0  0  0  0
  -23.3106  -24.8733   20.2634 H   0  0  0  0  0  0
  -25.2015  -19.3032   23.1742 H   0  0  0  0  0  0
  -26.3780  -20.4355   22.6103 H   0  0  0  0  0  0
  -27.1190  -24.3871   19.3187 H   0  0  0  0  0  0
  -26.4015  -24.6719   20.8534 H   0  0  0  0  0  0
  -21.9017  -25.7642   18.3428 H   0  0  0  0  0  0
  -22.7151  -27.1417   18.2351 H   0  0  0  0  0  0
  -27.6338  -18.7257   21.3042 H   0  0  0  0  0  0
  1 25  1  0  0  0
  1 30  2  0  0  0
  1 85  1  0  0  0
  2  3  1  0  0  0
  2 25  1  0  0  0
  2 89  1  0  0  0
  2 90  1  0  0  0
  3  4  1  0  0  0
  3 91  1  0  0  0
  3 92  1  0  0  0
  4  5  1  0  0  0
  4 93  1  0  0  0
  4 94  1  0  0  0
  5  6  1  0  0  0
  5 26  1  0  0  0
  5 95  1  0  0  0
  6 25  1  0  0  0
  6 96  1  0  0  0
  6 97  1  0  0  0
  7  8  2  0  0  0
  7 26  1  0  0  0
  7 29  1  0  0  0
  8  9  1  0  0  0
  8 22  1  0  0  0
  9 10  1  0  0  0
  9 27  2  0  0  0
 10 11  2  0  0  0
 10 15  1  0  0  0
 11 12  1  0  0  0
 11 98  1  0  0  0
 12 13  2  0  0  0
 12 99  1  0  0  0
 13 14  1  0  0  0
 13 31  1  0  0  0
 14 15  2  0  0  0
 14100  1  0  0  0
 15101  1  0  0  0
 16 17  2  0  0  0
 16 21  1  0  0  0
 16 31  1  0  0  0
 17 18  1  0  0  0
 17102  1  0  0  0
 18 19  2  0  0  0
 18103  1  0  0  0
 19 20  1  0  0  0
 19 24  1  0  0  0
 20 21  2  0  0  0
 20104  1  0  0  0
 21 23  1  0  0  0
 22 28  1  0  0  0
 22 32  2  0  0  0
 26 27  1  0  0  0
 28105  1  0  0  0
 28106  1  0  0  0
 29107  1  0  0  0
 29108  1  0  0  0
 33 34  1  0  0  0
 33 66  1  0  0  0
 33 70  2  0  0  0
 34 36  1  0  0  0
 34 59  1  0  0  0
 34109  1  0  0  0
 35 44  2  0  0  0
 35 45  1  0  0  0
 35 68  1  0  0  0
 36 56  1  0  0  0
 36110  1  0  0  0
 37 39  1  0  0  0
 37 47  1  0  0  0
 37 66  1  0  0  0
 37111  1  0  0  0
 38 43  2  0  0  0
 38 46  1  0  0  0
 38 47  1  0  0  0
 39 64  1  0  0  0
 39 67  2  0  0  0
 40 52  1  0  0  0
 40 53  2  0  0  0
 40 58  1  0  0  0
 41112  1  0  0  0
 41113  1  0  0  0
 41114  1  0  0  0
 41 48  1  0  0  0
 42 43  1  0  0  0
 42 66  1  0  0  0
 42115  1  0  0  0
 42116  1  0  0  0
 43 44  1  0  0  0
 44117  1  0  0  0
 45 46  2  0  0  0
 45118  1  0  0  0
 46119  1  0  0  0
 47120  1  0  0  0
 47121  1  0  0  0
 48 56  1  0  0  0
 48 65  1  0  0  0
 48122  1  0  0  0
 49 50  1  0  0  0
 49 53  1  0  0  0
 49 64  1  0  0  0
 49123  1  0  0  0
 50 51  1  0  0  0
 50124  1  0  0  0
 50125  1  0  0  0
 51 52  1  0  0  0
 51126  1  0  0  0
 51127  1  0  0  0
 52128  1  0  0  0
 52129  1  0  0  0
 53 54  1  0  0  0
 54 55  2  0  0  0
 54130  1  0  0  0
 55 57  1  0  0  0
 55131  1  0  0  0
 56 69  2  0  0  0
 57 58  2  0  0  0
 57132  1  0  0  0
 58133  1  0  0  0
 59 60  1  0  0  0
 59 61  1  0  0  0
 59 62  1  0  0  0
 60134  1  0  0  0
 60135  1  0  0  0
 60136  1  0  0  0
 61137  1  0  0  0
 61138  1  0  0  0
 61139  1  0  0  0
 62140  1  0  0  0
 62141  1  0  0  0
 62142  1  0  0  0
 63 65  1  0  0  0
 63143  1  0  0  0
 63144  1  0  0  0
 63145  1  0  0  0
 64146  1  0  0  0
 65147  1  0  0  0
 68 83  1  0  0  0
 71 72  2  0  0  0
 71 73  1  0  0  0
 71148  1  0  0  0
 72 75  1  0  0  0
 72149  1  0  0  0
 73 76  2  0  0  0
 73150  1  0  0  0
 74 75  2  0  0  0
 74 76  1  0  0  0
 74151  1  0  0  0
 75 86  1  0  0  0
 76 88  1  0  0  0
 77 79  1  0  0  0
 77 86  1  0  0  0
 77 87  2  0  0  0
 78 86  1  0  0  0
 78152  1  0  0  0
 78153  1  0  0  0
 78154  1  0  0  0
 79 82  1  0  0  0
 79155  1  0  0  0
 79156  1  0  0  0
 80 81  1  0  0  0
 80 83  1  0  0  0
 80157  1  0  0  0
 80158  1  0  0  0
 81 84  1  0  0  0
 81159  1  0  0  0
 81160  1  0  0  0
 82 85  1  0  0  0
 82161  1  0  0  0
 82162  1  0  0  0
 83163  1  0  0  0
 83164  1  0  0  0
 84 88  1  0  0  0
 84165  1  0  0  0
 84166  1  0  0  0
 85167  1  0  0  0
M  ISO  4   1 100  68 101  83 101  85 100
M  END
> <chiral flag>
0

> <version>
0

> <s_m_source_file>
/data/baiqing/PycharmProjects/Reinvent-master-3.2/result/LINK_invent/BTK/process_docking_weight1_custom_sum_contain_oxygen_bond_distance_aromatic_linkinvent_7_9_3/rearranged_h_0007.sdf

> <i_m_source_file_index>
98

> <r_mmod_Potential_Energy-OPLS-2005>
32969.08203125

> <r_mmod_Stretch_Energy-OPLS-2005>
18075.15625

> <r_mmod_Bend_Energy-OPLS-2005>
2876.84252929688

> <r_mmod_Torsional_Energy-OPLS-2005>
628.3427734375

> <r_mmod_Improper_Torsional_Energy-OPLS-2005>
59.2647972106934

> <r_mmod_Van_der_Waal_Energy-OPLS-2005>
5253.88037109375

> <r_mmod_Electrostatic_Energy-OPLS-2005>
-362.346527099609

> <r_mmod_Solvation_Energy-OPLS-2005>
-217.595718383789

> <b_mmod_Minimization_Converged-OPLS-2005>
0

> <r_mmod_RMS_Derivative-OPLS-2005>
15.5037355422974

$$$$
