0
                    3D
 Structure written by MMmdl.
168177  0  0  1  0            999 V2000
  -30.5570  -14.7434   20.4777 C   0  0  0  0  0  0
  -30.4264  -12.4467   19.4823 C   0  0  0  0  0  0
  -29.5077  -12.5197   18.2431 C   0  0  0  0  0  0
  -28.0382  -12.3248   18.6552 C   0  0  0  0  0  0
  -27.6404  -13.2229   19.8554 C   0  0  2  0  0  0
  -28.6736  -13.1136   20.9988 C   0  0  0  0  0  0
  -25.2509  -13.8171   20.5706 C   0  0  0  0  0  0
  -24.1799  -13.0408   20.9195 C   0  0  0  0  0  0
  -24.6381  -11.6886   20.8726 C   0  0  0  0  0  0
  -23.9062  -10.4251   21.0387 C   0  0  0  0  0  0
  -24.3619   -9.4183   21.9182 C   0  0  0  0  0  0
  -23.6297   -8.2225   22.0759 C   0  0  0  0  0  0
  -22.4284   -8.0265   21.3546 C   0  0  0  0  0  0
  -21.9913   -9.0220   20.4650 C   0  0  0  0  0  0
  -22.7229  -10.2100   20.3045 C   0  0  0  0  0  0
  -21.6830   -6.0757   22.5287 C   0  0  0  0  0  0
  -21.3989   -6.5655   23.8223 C   0  0  0  0  0  0
  -21.3663   -5.6805   24.9183 C   0  0  0  0  0  0
  -21.6043   -4.3065   24.7218 C   0  0  0  0  0  0
  -21.8809   -3.8165   23.4333 C   0  0  0  0  0  0
  -21.9180   -4.6993   22.3401 C   0  0  0  0  0  0
  -22.7828  -13.5211   21.1839 C   0  0  0  0  0  0
  -22.1667   -4.2194   21.0979 F   0  0  0  0  0  0
  -21.5620   -3.4536   25.7722 F   0  0  0  0  0  0
  -29.9808  -13.4892   20.4447 N   0  0  0  0  0  0
  -26.2908  -12.9361   20.3240 N   0  0  0  0  0  0
  -25.9299  -11.6510   20.5715 N   0  0  0  0  0  0
  -22.0454  -12.8210   22.0392 N   0  0  0  0  0  0
  -25.4178  -15.1894   20.4190 N   0  0  0  0  0  0
  -31.7114  -14.8860   20.0596 O   0  0  0  0  0  0
  -21.6627   -6.8886   21.4246 O   0  0  0  0  0  0
  -22.3536  -14.5526   20.6689 O   0  0  0  0  0  0
  -24.6352  -31.8543   23.1888 C   0  0  0  0  0  0
  -25.9160  -32.4738   23.8281 C   0  0  1  0  0  0
  -27.2198  -27.2205   20.1674 C   0  0  0  0  0  0
  -25.5939  -33.8539   24.2220 N   0  0  0  0  0  0
  -23.4352  -30.4708   21.5321 C   0  0  2  0  0  0
  -24.8851  -28.8953   20.1241 C   0  0  0  0  0  0
  -22.7508  -29.4635   22.4869 C   0  0  0  0  0  0
  -18.0320  -28.1418   22.8465 C   0  0  0  0  0  0
  -24.1499  -36.7265   23.2645 C   0  0  0  0  0  0
  -25.9848  -30.7531   21.3760 C   0  0  0  0  0  0
  -26.0564  -29.3670   20.7298 C   0  0  0  0  0  0
  -27.2326  -28.5463   20.7259 C   0  0  0  0  0  0
  -26.0275  -26.8135   19.5397 C   0  0  0  0  0  0
  -24.8778  -27.6305   19.5095 C   0  0  0  0  0  0
  -23.6626  -29.7931   20.1530 C   0  0  0  0  0  0
  -25.4120  -36.3061   24.0342 C   0  0  1  0  0  0
  -20.5887  -28.3743   23.1223 C   0  0  2  0  0  0
  -20.6781  -26.9442   22.5421 C   0  0  0  0  0  0
  -19.5794  -26.6339   21.5250 C   0  0  0  0  0  0
  -18.1971  -26.7937   22.1674 C   0  0  0  0  0  0
  -19.1569  -28.8915   23.2836 C   0  0  0  0  0  0
  -18.9476  -30.1506   23.8878 C   0  0  0  0  0  0
  -17.6445  -30.6579   24.0590 C   0  0  0  0  0  0
  -25.9067  -34.9430   23.5091 C   0  0  0  0  0  0
  -16.5350  -29.9083   23.6373 C   0  0  0  0  0  0
  -16.7295  -28.6516   23.0346 C   0  0  0  0  0  0
  -26.4508  -31.6572   25.0686 C   0  0  0  0  0  0
  -25.3691  -31.3716   26.1358 C   0  0  0  0  0  0
  -27.0375  -30.2990   24.6209 C   0  0  0  0  0  0
  -27.6064  -32.4306   25.7472 C   0  0  0  0  0  0
  -27.5585  -37.1793   24.8477 C   0  0  0  0  0  0
  -21.4209  -29.3048   22.3555 N   0  0  0  0  0  0
  -26.4302  -37.3765   23.9414 N   0  0  0  0  0  0
  -24.7045  -31.0471   22.0872 N   0  0  0  0  0  0
  -23.4153  -28.8217   23.3045 O   0  0  0  0  0  0
  -28.3205  -26.3321   20.1307 O   0  0  0  0  0  0
  -26.5646  -34.8923   22.4667 O   0  0  0  0  0  0
  -23.5485  -32.1385   23.7133 O   0  0  0  0  0  0
  -28.3763  -19.3584   18.9170 C   0  0  0  0  0  0
  -29.0923  -17.0380   18.9083 C   0  0  0  0  0  0
  -28.4868  -18.1260   18.2489 C   0  0  0  0  0  0
  -28.7799  -19.4972   20.2557 C   0  0  0  0  0  0
  -29.4805  -17.1273   20.2626 C   0  0  0  0  0  0
  -28.6972  -22.0263   23.1241 C   0  0  0  0  0  0
  -28.2060  -20.7112   22.5194 C   0  0  0  0  0  0
  -29.7142  -22.4780   22.0782 C   0  0  0  0  0  0
  -28.3389  -20.8736   20.9839 C   0  0  1  0  0  0
  -27.1157  -16.6307   16.6879 C   0  0  0  0  0  0
  -28.8169  -18.2904   15.7327 C   0  0  0  0  0  0
  -28.3276  -23.4876   20.1580 C   0  0  0  0  0  0
  -28.3275  -24.9910   20.8466 C   0  0  0  0  0  0
  -27.8403  -17.9774   16.8723 C   0  0  0  0  0  0
  -29.3021  -18.3643   20.9058 N   0  0  0  0  0  0
  -29.7920  -15.8253   20.9088 N   0  0  0  0  0  0
  -29.0617  -22.2332   20.7685 N   0  3  1  0  0  0
  -31.4687  -12.5709   19.1847 H   0  0  0  0  0  0
  -30.3702  -11.4564   19.9382 H   0  0  0  0  0  0
  -29.7968  -11.7623   17.5151 H   0  0  0  0  0  0
  -29.6254  -13.4839   17.7456 H   0  0  0  0  0  0
  -27.9167  -11.2754   18.9292 H   0  0  0  0  0  0
  -27.3769  -12.4947   17.8041 H   0  0  0  0  0  0
  -27.6440  -14.2507   19.4902 H   0  0  0  0  0  0
  -28.7027  -12.0919   21.3850 H   0  0  0  0  0  0
  -28.3932  -13.7406   21.8450 H   0  0  0  0  0  0
  -25.2742   -9.5675   22.4791 H   0  0  0  0  0  0
  -23.9989   -7.4620   22.7501 H   0  0  0  0  0  0
  -21.0830   -8.8704   19.8980 H   0  0  0  0  0  0
  -22.3645  -10.9634   19.6168 H   0  0  0  0  0  0
  -21.1970   -7.6164   23.9734 H   0  0  0  0  0  0
  -21.1511   -6.0541   25.9095 H   0  0  0  0  0  0
  -22.0593   -2.7632   23.2796 H   0  0  0  0  0  0
  -22.4050  -11.9855   22.4757 H   0  0  0  0  0  0
  -21.1066  -13.1238   22.2576 H   0  0  0  0  0  0
  -24.6375  -15.8300   20.5189 H   0  0  0  0  0  0
  -26.2589  -15.6326   20.0718 H   0  0  0  0  0  0
  -26.7215  -32.5376   23.1005 H   0  0  0  0  0  0
  -25.0078  -33.9672   25.0357 H   0  0  0  0  0  0
  -22.7360  -31.2976   21.3715 H   0  0  0  0  0  0
  -23.3778  -35.9580   23.3308 H   0  0  0  0  0  0
  -24.3584  -36.8874   22.2060 H   0  0  0  0  0  0
  -23.7242  -37.6463   23.6657 H   0  0  0  0  0  0
  -26.1338  -31.5054   20.6017 H   0  0  0  0  0  0
  -26.8576  -30.8037   22.0151 H   0  0  0  0  0  0
  -28.1403  -28.9115   21.1832 H   0  0  0  0  0  0
  -25.9877  -25.8400   19.0688 H   0  0  0  0  0  0
  -23.9876  -27.2677   19.0150 H   0  0  0  0  0  0
  -23.7989  -30.5600   19.3890 H   0  0  0  0  0  0
  -22.7830  -29.2303   19.8421 H   0  0  0  0  0  0
  -25.1309  -36.1905   25.0841 H   0  0  0  0  0  0
  -20.9960  -28.3342   24.1347 H   0  0  0  0  0  0
  -20.5629  -26.2370   23.3649 H   0  0  0  0  0  0
  -21.6660  -26.7490   22.1218 H   0  0  0  0  0  0
  -19.7015  -25.6188   21.1402 H   0  0  0  0  0  0
  -19.6675  -27.2997   20.6690 H   0  0  0  0  0  0
  -17.4268  -26.6659   21.4050 H   0  0  0  0  0  0
  -18.0387  -26.0095   22.9108 H   0  0  0  0  0  0
  -19.7919  -30.7374   24.2240 H   0  0  0  0  0  0
  -17.4969  -31.6266   24.5179 H   0  0  0  0  0  0
  -15.5333  -30.2967   23.7780 H   0  0  0  0  0  0
  -15.8710  -28.0797   22.7070 H   0  0  0  0  0  0
  -24.5881  -30.7083   25.7614 H   0  0  0  0  0  0
  -24.8857  -32.2876   26.4759 H   0  0  0  0  0  0
  -25.7947  -30.8862   27.0147 H   0  0  0  0  0  0
  -26.2971  -29.6700   24.1241 H   0  0  0  0  0  0
  -27.4057  -29.7304   25.4760 H   0  0  0  0  0  0
  -27.8854  -30.4268   23.9475 H   0  0  0  0  0  0
  -27.2696  -33.3615   26.2043 H   0  0  0  0  0  0
  -28.3878  -32.6836   25.0296 H   0  0  0  0  0  0
  -28.0726  -31.8420   26.5380 H   0  0  0  0  0  0
  -28.2621  -38.0082   24.7526 H   0  0  0  0  0  0
  -28.1084  -36.2615   24.6316 H   0  0  0  0  0  0
  -27.2310  -37.1449   25.8889 H   0  0  0  0  0  0
  -20.9450  -29.8614   21.6600 H   0  0  0  0  0  0
  -26.0185  -38.2850   24.1381 H   0  0  0  0  0  0
  -27.8716  -20.1766   18.4250 H   0  0  0  0  0  0
  -29.1670  -16.0904   18.3963 H   0  0  0  0  0  0
  -29.1341  -21.8955   24.1165 H   0  0  0  0  0  0
  -27.8884  -22.7541   23.2230 H   0  0  0  0  0  0
  -27.1977  -20.4397   22.8322 H   0  0  0  0  0  0
  -28.8756  -19.9262   22.8707 H   0  0  0  0  0  0
  -30.5825  -21.8210   22.1435 H   0  0  0  0  0  0
  -30.1186  -23.4677   22.2576 H   0  0  0  0  0  0
  -27.3228  -21.0348   20.6214 H   0  0  0  0  0  0
  -26.3824  -16.4697   17.4803 H   0  0  0  0  0  0
  -27.7988  -15.7830   16.6894 H   0  0  0  0  0  0
  -26.5738  -16.6052   15.7424 H   0  0  0  0  0  0
  -29.2196  -19.3004   15.8401 H   0  0  0  0  0  0
  -28.3144  -18.2394   14.7640 H   0  0  0  0  0  0
  -29.6564  -17.5941   15.7173 H   0  0  0  0  0  0
  -28.7704  -23.6057   19.1706 H   0  0  0  0  0  0
  -27.2897  -23.2244   19.9576 H   0  0  0  0  0  0
  -29.2672  -25.0987   21.3764 H   0  0  0  0  0  0
  -27.5738  -24.9967   21.6332 H   0  0  0  0  0  0
  -27.0493  -18.7289   16.8198 H   0  0  0  0  0  0
  -29.0628  -15.5365   21.5415 H   0  0  0  0  0  0
  -29.8003  -22.0149   20.1146 H   0  0  0  0  0  0
  1 25  1  0  0  0
  1 30  2  0  0  0
  1 86  1  0  0  0
  2  3  1  0  0  0
  2 25  1  0  0  0
  2 88  1  0  0  0
  2 89  1  0  0  0
  3  4  1  0  0  0
  3 90  1  0  0  0
  3 91  1  0  0  0
  4  5  1  0  0  0
  4 92  1  0  0  0
  4 93  1  0  0  0
  5  6  1  0  0  0
  5 26  1  0  0  0
  5 94  1  0  0  0
  6 25  1  0  0  0
  6 95  1  0  0  0
  6 96  1  0  0  0
  7  8  2  0  0  0
  7 26  1  0  0  0
  7 29  1  0  0  0
  8  9  1  0  0  0
  8 22  1  0  0  0
  9 10  1  0  0  0
  9 27  2  0  0  0
 10 11  2  0  0  0
 10 15  1  0  0  0
 11 12  1  0  0  0
 11 97  1  0  0  0
 12 13  2  0  0  0
 12 98  1  0  0  0
 13 14  1  0  0  0
 13 31  1  0  0  0
 14 15  2  0  0  0
 14 99  1  0  0  0
 15100  1  0  0  0
 16 17  2  0  0  0
 16 21  1  0  0  0
 16 31  1  0  0  0
 17 18  1  0  0  0
 17101  1  0  0  0
 18 19  2  0  0  0
 18102  1  0  0  0
 19 20  1  0  0  0
 19 24  1  0  0  0
 20 21  2  0  0  0
 20103  1  0  0  0
 21 23  1  0  0  0
 22 28  1  0  0  0
 22 32  2  0  0  0
 26 27  1  0  0  0
 28104  1  0  0  0
 28105  1  0  0  0
 29106  1  0  0  0
 29107  1  0  0  0
 33 34  1  0  0  0
 33 66  1  0  0  0
 33 70  2  0  0  0
 34 36  1  0  0  0
 34 59  1  0  0  0
 34108  1  0  0  0
 35 44  2  0  0  0
 35 45  1  0  0  0
 35 68  1  0  0  0
 36 56  1  0  0  0
 36109  1  0  0  0
 37 39  1  0  0  0
 37 47  1  0  0  0
 37 66  1  0  0  0
 37110  1  0  0  0
 38 43  2  0  0  0
 38 46  1  0  0  0
 38 47  1  0  0  0
 39 64  1  0  0  0
 39 67  2  0  0  0
 40 52  1  0  0  0
 40 53  2  0  0  0
 40 58  1  0  0  0
 41111  1  0  0  0
 41112  1  0  0  0
 41113  1  0  0  0
 41 48  1  0  0  0
 42 43  1  0  0  0
 42 66  1  0  0  0
 42114  1  0  0  0
 42115  1  0  0  0
 43 44  1  0  0  0
 44116  1  0  0  0
 45 46  2  0  0  0
 45117  1  0  0  0
 46118  1  0  0  0
 47119  1  0  0  0
 47120  1  0  0  0
 48 56  1  0  0  0
 48 65  1  0  0  0
 48121  1  0  0  0
 49 50  1  0  0  0
 49 53  1  0  0  0
 49 64  1  0  0  0
 49122  1  0  0  0
 50 51  1  0  0  0
 50123  1  0  0  0
 50124  1  0  0  0
 51 52  1  0  0  0
 51125  1  0  0  0
 51126  1  0  0  0
 52127  1  0  0  0
 52128  1  0  0  0
 53 54  1  0  0  0
 54 55  2  0  0  0
 54129  1  0  0  0
 55 57  1  0  0  0
 55130  1  0  0  0
 56 69  2  0  0  0
 57 58  2  0  0  0
 57131  1  0  0  0
 58132  1  0  0  0
 59 60  1  0  0  0
 59 61  1  0  0  0
 59 62  1  0  0  0
 60133  1  0  0  0
 60134  1  0  0  0
 60135  1  0  0  0
 61136  1  0  0  0
 61137  1  0  0  0
 61138  1  0  0  0
 62139  1  0  0  0
 62140  1  0  0  0
 62141  1  0  0  0
 63 65  1  0  0  0
 63142  1  0  0  0
 63143  1  0  0  0
 63144  1  0  0  0
 64145  1  0  0  0
 65146  1  0  0  0
 68 83  1  0  0  0
 71 73  2  0  0  0
 71 74  1  0  0  0
 71147  1  0  0  0
 72 73  1  0  0  0
 72 75  2  0  0  0
 72148  1  0  0  0
 73 84  1  0  0  0
 74 85  2  0  0  0
 74 79  1  0  0  0
 75 85  1  0  0  0
 75 86  1  0  0  0
 76 77  1  0  0  0
 76 78  1  0  0  0
 76149  1  0  0  0
 76150  1  0  0  0
 77 79  1  0  0  0
 77151  1  0  0  0
 77152  1  0  0  0
 78 87  1  0  0  0
 78153  1  0  0  0
 78154  1  0  0  0
 79 87  1  0  0  0
 79155  1  0  0  0
 80156  1  0  0  0
 80157  1  0  0  0
 80158  1  0  0  0
 80 84  1  0  0  0
 81 84  1  0  0  0
 81159  1  0  0  0
 81160  1  0  0  0
 81161  1  0  0  0
 82 83  1  0  0  0
 82162  1  0  0  0
 82163  1  0  0  0
 82 87  1  0  0  0
 83164  1  0  0  0
 83165  1  0  0  0
 84166  1  0  0  0
 86167  1  0  0  0
 87168  1  0  0  0
M  CHG  1  87   1
M  ISO  4   1 100  68 101  83 101  86 100
M  END
> <chiral flag>
0

> <version>
0

> <s_m_source_file>
/data/baiqing/PycharmProjects/Reinvent-master-3.2/result/LINK_invent/BTK/process_docking_weight1_custom_sum_contain_oxygen_bond_distance_aromatic_linkinvent_7_9_3/rearranged_h_0121.sdf

> <i_m_source_file_index>
1

> <r_mmod_Potential_Energy-OPLS-2005>
94.3267593383789

> <r_mmod_Stretch_Energy-OPLS-2005>
159.857086181641

> <r_mmod_Bend_Energy-OPLS-2005>
257.063690185547

> <r_mmod_Torsional_Energy-OPLS-2005>
354.127227783203

> <r_mmod_Improper_Torsional_Energy-OPLS-2005>
8.11096858978271

> <r_mmod_Van_der_Waal_Energy-OPLS-2005>
127.931694030762

> <r_mmod_Electrostatic_Energy-OPLS-2005>
-466.440734863281

> <r_mmod_Solvation_Energy-OPLS-2005>
-438.812713623047

> <b_mmod_Minimization_Converged-OPLS-2005>
0

> <r_mmod_RMS_Derivative-OPLS-2005>
5.11545419692993

$$$$
1
                    3D
 Structure written by MMmdl.
175185  0  0  1  0            999 V2000
  -30.7678  -14.4484   20.6054 C   0  0  0  0  0  0
  -30.4104  -12.3092   19.4310 C   0  0  0  0  0  0
  -29.4873  -12.4879   18.2086 C   0  0  0  0  0  0
  -28.0098  -12.3404   18.6183 C   0  0  0  0  0  0
  -27.6524  -13.1959   19.8573 C   0  0  2  0  0  0
  -28.6888  -13.0012   20.9846 C   0  0  0  0  0  0
  -25.2495  -13.8058   20.5675 C   0  0  0  0  0  0
  -24.1797  -13.0348   20.9218 C   0  0  0  0  0  0
  -24.6366  -11.6823   20.8783 C   0  0  0  0  0  0
  -23.9022  -10.4231   21.0451 C   0  0  0  0  0  0
  -24.3573   -9.4150   21.9235 C   0  0  0  0  0  0
  -23.6276   -8.2173   22.0775 C   0  0  0  0  0  0
  -22.4260   -8.0222   21.3547 C   0  0  0  0  0  0
  -21.9889   -9.0203   20.4659 C   0  0  0  0  0  0
  -22.7195  -10.2093   20.3099 C   0  0  0  0  0  0
  -21.6850   -6.0694   22.5292 C   0  0  0  0  0  0
  -21.3995   -6.5624   23.8214 C   0  0  0  0  0  0
  -21.3669   -5.6798   24.9189 C   0  0  0  0  0  0
  -21.6058   -4.3059   24.7258 C   0  0  0  0  0  0
  -21.8820   -3.8126   23.4392 C   0  0  0  0  0  0
  -21.9187   -4.6931   22.3424 C   0  0  0  0  0  0
  -22.7822  -13.5163   21.1894 C   0  0  0  0  0  0
  -22.1649   -4.2096   21.1014 F   0  0  0  0  0  0
  -21.5671   -3.4572   25.7788 F   0  0  0  0  0  0
  -30.0279  -13.3085   20.4466 N   0  0  0  0  0  0
  -26.2933  -12.9262   20.3236 N   0  0  0  0  0  0
  -25.9279  -11.6435   20.5726 N   0  0  0  0  0  0
  -22.0459  -12.8152   22.0445 N   0  0  0  0  0  0
  -25.4043  -15.1787   20.4045 N   0  0  0  0  0  0
  -31.8652  -14.5818   20.0566 O   0  0  0  0  0  0
  -21.6624   -6.8830   21.4238 O   0  0  0  0  0  0
  -22.3538  -14.5475   20.6723 O   0  0  0  0  0  0
  -24.6110  -31.8699   23.2131 C   0  0  0  0  0  0
  -25.9009  -32.4837   23.8417 C   0  0  1  0  0  0
  -27.2328  -27.4770   20.0712 C   0  0  0  0  0  0
  -25.5869  -33.8628   24.2342 N   0  0  0  0  0  0
  -23.3966  -30.4975   21.5538 C   0  0  2  0  0  0
  -24.8397  -28.9689   20.1117 C   0  0  0  0  0  0
  -22.7376  -29.4667   22.4989 C   0  0  0  0  0  0
  -18.0263  -28.1356   22.8585 C   0  0  0  0  0  0
  -24.1487  -36.7343   23.2640 C   0  0  0  0  0  0
  -25.9229  -30.8504   21.3575 C   0  0  0  0  0  0
  -25.9990  -29.4886   20.7016 C   0  0  0  0  0  0
  -27.1993  -28.7498   20.6765 C   0  0  0  0  0  0
  -26.0560  -26.9603   19.4818 C   0  0  0  0  0  0
  -24.8625  -27.7043   19.4991 C   0  0  0  0  0  0
  -23.6024  -29.8336   20.1653 C   0  0  0  0  0  0
  -25.4098  -36.3123   24.0345 C   0  0  1  0  0  0
  -20.5865  -28.3640   23.1376 C   0  0  2  0  0  0
  -20.6782  -26.9377   22.5420 C   0  0  0  0  0  0
  -19.5705  -26.6388   21.5275 C   0  0  0  0  0  0
  -18.1882  -26.7926   22.1689 C   0  0  0  0  0  0
  -19.1523  -28.8804   23.2989 C   0  0  0  0  0  0
  -18.9457  -30.1410   23.8972 C   0  0  0  0  0  0
  -17.6460  -30.6576   24.0568 C   0  0  0  0  0  0
  -25.9012  -34.9484   23.5135 C   0  0  0  0  0  0
  -16.5358  -29.9110   23.6302 C   0  0  0  0  0  0
  -16.7254  -28.6492   23.0399 C   0  0  0  0  0  0
  -26.4448  -31.6601   25.0739 C   0  0  0  0  0  0
  -25.3735  -31.3672   26.1501 C   0  0  0  0  0  0
  -27.0270  -30.3049   24.6081 C   0  0  0  0  0  0
  -27.6036  -32.4302   25.7500 C   0  0  0  0  0  0
  -27.5572  -37.1829   24.8463 C   0  0  0  0  0  0
  -21.4094  -29.3060   22.3780 N   0  0  0  0  0  0
  -26.4277  -37.3809   23.9415 N   0  0  0  0  0  0
  -24.6620  -31.0848   22.1010 N   0  0  0  0  0  0
  -23.4188  -28.8169   23.2961 O   0  0  0  0  0  0
  -28.4117  -26.7730   20.0802 O   0  0  0  0  0  0
  -26.5596  -34.8920   22.4712 O   0  0  0  0  0  0
  -23.5316  -32.1392   23.7579 O   0  0  0  0  0  0
  -28.0952  -21.9510   23.7604 C   0  0  0  0  0  0
  -27.8031  -20.5848   23.6207 C   0  0  0  0  0  0
  -28.0617  -22.1156   21.3467 C   0  0  0  0  0  0
  -28.2212  -22.7406   22.5996 C   0  0  0  0  0  0
  -27.6351  -20.0571   22.3291 C   0  0  0  0  0  0
  -27.2600  -18.2550   18.6827 C   0  0  0  0  0  0
  -28.3352  -17.4166   18.0428 C   0  0  0  0  0  0
  -29.7780  -15.6765   22.5229 C   0  0  0  0  0  0
  -28.4574  -16.4600   22.6378 C   0  0  0  0  0  0
  -28.0641  -17.2835   19.5272 C   0  0  0  0  0  0
  -29.0823  -17.7525   20.5631 C   0  0  2  0  0  0
  -30.3603  -16.8798   20.4817 C   0  0  1  0  0  0
  -31.6070  -17.6425   20.9892 C   0  0  0  0  0  0
  -28.5516  -24.2225   22.7256 C   0  0  0  0  0  0
  -27.2975  -18.5902   22.1365 C   0  0  0  0  0  0
  -27.7412  -25.1694   21.8164 C   0  0  0  0  0  0
  -28.3272  -25.3839   20.3997 C   0  0  0  0  0  0
  -27.7804  -20.8030   21.2125 N   0  0  0  0  0  0
  -30.1555  -15.5520   21.1125 N   0  0  0  0  0  0
  -28.5323  -17.7842   21.9586 N   0  3  1  0  0  0
  -31.4543  -12.3854   19.1204 H   0  0  0  0  0  0
  -30.3068  -11.3073   19.8468 H   0  0  0  0  0  0
  -29.7335  -11.7526   17.4416 H   0  0  0  0  0  0
  -29.6500  -13.4666   17.7580 H   0  0  0  0  0  0
  -27.8318  -11.2875   18.8377 H   0  0  0  0  0  0
  -27.3557  -12.5906   17.7829 H   0  0  0  0  0  0
  -27.6980  -14.2309   19.5347 H   0  0  0  0  0  0
  -28.6670  -11.9689   21.3392 H   0  0  0  0  0  0
  -28.3936  -13.6012   21.8400 H   0  0  0  0  0  0
  -25.2713   -9.5626   22.4815 H   0  0  0  0  0  0
  -24.0021   -7.4520   22.7427 H   0  0  0  0  0  0
  -21.0867   -8.8677   19.8899 H   0  0  0  0  0  0
  -22.3650  -10.9636   19.6212 H   0  0  0  0  0  0
  -21.1944   -7.6130   23.9717 H   0  0  0  0  0  0
  -21.1511   -6.0520   25.9102 H   0  0  0  0  0  0
  -22.0586   -2.7581   23.2904 H   0  0  0  0  0  0
  -22.4131  -11.9821   22.4817 H   0  0  0  0  0  0
  -21.1059  -13.1109   22.2676 H   0  0  0  0  0  0
  -24.5651  -15.7475   20.3980 H   0  0  0  0  0  0
  -26.1153  -15.5362   19.7848 H   0  0  0  0  0  0
  -26.7082  -32.5551   23.1187 H   0  0  0  0  0  0
  -25.0006  -33.9810   25.0473 H   0  0  0  0  0  0
  -22.6851  -31.3144   21.4187 H   0  0  0  0  0  0
  -23.3724  -35.9701   23.3312 H   0  0  0  0  0  0
  -24.3581  -36.8944   22.2050 H   0  0  0  0  0  0
  -23.7251  -37.6559   23.6641 H   0  0  0  0  0  0
  -26.0255  -31.6206   20.5914 H   0  0  0  0  0  0
  -26.8138  -30.9035   21.9714 H   0  0  0  0  0  0
  -28.0990  -29.1473   21.1254 H   0  0  0  0  0  0
  -26.0496  -25.9973   18.9928 H   0  0  0  0  0  0
  -23.9719  -27.3043   19.0325 H   0  0  0  0  0  0
  -23.7060  -30.6096   19.4060 H   0  0  0  0  0  0
  -22.7282  -29.2513   19.8705 H   0  0  0  0  0  0
  -25.1270  -36.2004   25.0836 H   0  0  0  0  0  0
  -21.0015  -28.3134   24.1470 H   0  0  0  0  0  0
  -20.5746  -26.2194   23.3568 H   0  0  0  0  0  0
  -21.6615  -26.7474   22.1101 H   0  0  0  0  0  0
  -19.6820  -25.6337   21.1189 H   0  0  0  0  0  0
  -19.6625  -27.3280   20.6860 H   0  0  0  0  0  0
  -17.4187  -26.6794   21.4046 H   0  0  0  0  0  0
  -18.0129  -26.0067   22.9046 H   0  0  0  0  0  0
  -19.7936  -30.7216   24.2360 H   0  0  0  0  0  0
  -17.5013  -31.6258   24.5160 H   0  0  0  0  0  0
  -15.5360  -30.3067   23.7518 H   0  0  0  0  0  0
  -15.8656  -28.0825   22.7112 H   0  0  0  0  0  0
  -24.5920  -30.7008   25.7828 H   0  0  0  0  0  0
  -24.8924  -32.2816   26.4980 H   0  0  0  0  0  0
  -25.8108  -30.8823   27.0239 H   0  0  0  0  0  0
  -26.2811  -29.6847   24.1094 H   0  0  0  0  0  0
  -27.3996  -29.7229   25.4520 H   0  0  0  0  0  0
  -27.8657  -30.4370   23.9242 H   0  0  0  0  0  0
  -27.2665  -33.3570   26.2142 H   0  0  0  0  0  0
  -28.3811  -32.6902   25.0309 H   0  0  0  0  0  0
  -28.0744  -31.8390   26.5364 H   0  0  0  0  0  0
  -28.2605  -38.0114   24.7499 H   0  0  0  0  0  0
  -28.1047  -36.2645   24.6290 H   0  0  0  0  0  0
  -27.2309  -37.1496   25.8872 H   0  0  0  0  0  0
  -20.9222  -29.8839   21.7077 H   0  0  0  0  0  0
  -26.0171  -38.2890   24.1390 H   0  0  0  0  0  0
  -28.2211  -22.3796   24.7456 H   0  0  0  0  0  0
  -27.6917  -19.9646   24.5019 H   0  0  0  0  0  0
  -28.1621  -22.6679   20.4252 H   0  0  0  0  0  0
  -26.2248  -18.0028   18.4674 H   0  0  0  0  0  0
  -27.4605  -19.3199   18.7795 H   0  0  0  0  0  0
  -29.2361  -17.9382   17.7240 H   0  0  0  0  0  0
  -28.0148  -16.6017   17.3948 H   0  0  0  0  0  0
  -30.5633  -16.2029   23.0686 H   0  0  0  0  0  0
  -29.7117  -14.7130   23.0287 H   0  0  0  0  0  0
  -28.2320  -16.6086   23.6955 H   0  0  0  0  0  0
  -27.6296  -15.8824   22.2251 H   0  0  0  0  0  0
  -27.5764  -16.3626   19.8061 H   0  0  0  0  0  0
  -29.3617  -18.7699   20.2870 H   0  0  0  0  0  0
  -30.5490  -16.7089   19.4180 H   0  0  0  0  0  0
  -31.5197  -17.9638   22.0279 H   0  0  0  0  0  0
  -32.5126  -17.0418   20.9041 H   0  0  0  0  0  0
  -31.7721  -18.5441   20.3948 H   0  0  0  0  0  0
  -29.6227  -24.3634   22.5655 H   0  0  0  0  0  0
  -28.3717  -24.5255   23.7592 H   0  0  0  0  0  0
  -26.5900  -18.4644   21.3214 H   0  0  0  0  0  0
  -26.7582  -18.2653   23.0240 H   0  0  0  0  0  0
  -27.7435  -26.1359   22.3222 H   0  0  0  0  0  0
  -26.6881  -24.8831   21.7645 H   0  0  0  0  0  0
  -27.7741  -24.8275   19.6421 H   0  0  0  0  0  0
  -29.3422  -24.9931   20.3486 H   0  0  0  0  0  0
  -29.2079  -18.3078   22.4956 H   0  0  0  0  0  0
  1 25  1  0  0  0
  1 30  2  0  0  0
  1 89  1  0  0  0
  2  3  1  0  0  0
  2 25  1  0  0  0
  2 91  1  0  0  0
  2 92  1  0  0  0
  3  4  1  0  0  0
  3 93  1  0  0  0
  3 94  1  0  0  0
  4  5  1  0  0  0
  4 95  1  0  0  0
  4 96  1  0  0  0
  5  6  1  0  0  0
  5 26  1  0  0  0
  5 97  1  0  0  0
  6 25  1  0  0  0
  6 98  1  0  0  0
  6 99  1  0  0  0
  7  8  2  0  0  0
  7 26  1  0  0  0
  7 29  1  0  0  0
  8  9  1  0  0  0
  8 22  1  0  0  0
  9 10  1  0  0  0
  9 27  2  0  0  0
 10 11  2  0  0  0
 10 15  1  0  0  0
 11 12  1  0  0  0
 11100  1  0  0  0
 12 13  2  0  0  0
 12101  1  0  0  0
 13 14  1  0  0  0
 13 31  1  0  0  0
 14 15  2  0  0  0
 14102  1  0  0  0
 15103  1  0  0  0
 16 17  2  0  0  0
 16 21  1  0  0  0
 16 31  1  0  0  0
 17 18  1  0  0  0
 17104  1  0  0  0
 18 19  2  0  0  0
 18105  1  0  0  0
 19 20  1  0  0  0
 19 24  1  0  0  0
 20 21  2  0  0  0
 20106  1  0  0  0
 21 23  1  0  0  0
 22 28  1  0  0  0
 22 32  2  0  0  0
 26 27  1  0  0  0
 28107  1  0  0  0
 28108  1  0  0  0
 29109  1  0  0  0
 29110  1  0  0  0
 33 34  1  0  0  0
 33 66  1  0  0  0
 33 70  2  0  0  0
 34 36  1  0  0  0
 34 59  1  0  0  0
 34111  1  0  0  0
 35 44  2  0  0  0
 35 45  1  0  0  0
 35 68  1  0  0  0
 36 56  1  0  0  0
 36112  1  0  0  0
 37 39  1  0  0  0
 37 47  1  0  0  0
 37 66  1  0  0  0
 37113  1  0  0  0
 38 43  2  0  0  0
 38 46  1  0  0  0
 38 47  1  0  0  0
 39 64  1  0  0  0
 39 67  2  0  0  0
 40 52  1  0  0  0
 40 53  2  0  0  0
 40 58  1  0  0  0
 41114  1  0  0  0
 41115  1  0  0  0
 41116  1  0  0  0
 41 48  1  0  0  0
 42 43  1  0  0  0
 42 66  1  0  0  0
 42117  1  0  0  0
 42118  1  0  0  0
 43 44  1  0  0  0
 44119  1  0  0  0
 45 46  2  0  0  0
 45120  1  0  0  0
 46121  1  0  0  0
 47122  1  0  0  0
 47123  1  0  0  0
 48 56  1  0  0  0
 48 65  1  0  0  0
 48124  1  0  0  0
 49 50  1  0  0  0
 49 53  1  0  0  0
 49 64  1  0  0  0
 49125  1  0  0  0
 50 51  1  0  0  0
 50126  1  0  0  0
 50127  1  0  0  0
 51 52  1  0  0  0
 51128  1  0  0  0
 51129  1  0  0  0
 52130  1  0  0  0
 52131  1  0  0  0
 53 54  1  0  0  0
 54 55  2  0  0  0
 54132  1  0  0  0
 55 57  1  0  0  0
 55133  1  0  0  0
 56 69  2  0  0  0
 57 58  2  0  0  0
 57134  1  0  0  0
 58135  1  0  0  0
 59 60  1  0  0  0
 59 61  1  0  0  0
 59 62  1  0  0  0
 60136  1  0  0  0
 60137  1  0  0  0
 60138  1  0  0  0
 61139  1  0  0  0
 61140  1  0  0  0
 61141  1  0  0  0
 62142  1  0  0  0
 62143  1  0  0  0
 62144  1  0  0  0
 63 65  1  0  0  0
 63145  1  0  0  0
 63146  1  0  0  0
 63147  1  0  0  0
 64148  1  0  0  0
 65149  1  0  0  0
 68 87  1  0  0  0
 71 72  2  0  0  0
 71 74  1  0  0  0
 71150  1  0  0  0
 72 75  1  0  0  0
 72151  1  0  0  0
 73 74  2  0  0  0
 73 88  1  0  0  0
 73152  1  0  0  0
 74 84  1  0  0  0
 75 85  1  0  0  0
 75 88  2  0  0  0
 76 77  1  0  0  0
 76153  1  0  0  0
 76154  1  0  0  0
 76 80  1  0  0  0
 77 80  1  0  0  0
 77155  1  0  0  0
 77156  1  0  0  0
 78 79  1  0  0  0
 78 89  1  0  0  0
 78157  1  0  0  0
 78158  1  0  0  0
 79 90  1  0  0  0
 79159  1  0  0  0
 79160  1  0  0  0
 80161  1  0  0  0
 80 81  1  0  0  0
 81 82  1  0  0  0
 81 90  1  0  0  0
 81162  1  0  0  0
 82 83  1  0  0  0
 82 89  1  0  0  0
 82163  1  0  0  0
 83164  1  0  0  0
 83165  1  0  0  0
 83166  1  0  0  0
 84 86  1  0  0  0
 84167  1  0  0  0
 84168  1  0  0  0
 85169  1  0  0  0
 85170  1  0  0  0
 85 90  1  0  0  0
 86 87  1  0  0  0
 86171  1  0  0  0
 86172  1  0  0  0
 87173  1  0  0  0
 87174  1  0  0  0
 90175  1  0  0  0
M  CHG  1  90   1
M  ISO  4   1 100  68 101  87 101  89 100
M  END
> <chiral flag>
0

> <version>
0

> <s_m_source_file>
/data/baiqing/PycharmProjects/Reinvent-master-3.2/result/LINK_invent/BTK/process_docking_weight1_custom_sum_contain_oxygen_bond_distance_aromatic_linkinvent_7_9_3/rearranged_h_0121.sdf

> <i_m_source_file_index>
2

> <r_mmod_Potential_Energy-OPLS-2005>
-46.8566513061523

> <r_mmod_Stretch_Energy-OPLS-2005>
39.2573127746582

> <r_mmod_Bend_Energy-OPLS-2005>
110.77515411377

> <r_mmod_Torsional_Energy-OPLS-2005>
460.052215576172

> <r_mmod_Improper_Torsional_Energy-OPLS-2005>
12.114429473877

> <r_mmod_Van_der_Waal_Energy-OPLS-2005>
156.130752563477

> <r_mmod_Electrostatic_Energy-OPLS-2005>
-426.090637207031

> <r_mmod_Solvation_Energy-OPLS-2005>
-411.490600585938

> <b_mmod_Minimization_Converged-OPLS-2005>
0

> <r_mmod_RMS_Derivative-OPLS-2005>
4.07781839370728

$$$$
2
                    3D
 Structure written by MMmdl.
166175  0  0  1  0            999 V2000
  -30.6412  -14.5341   20.5739 C   0  0  0  0  0  0
  -30.4512  -12.3476   19.4457 C   0  0  0  0  0  0
  -29.5168  -12.4919   18.2221 C   0  0  0  0  0  0
  -28.0400  -12.3284   18.6374 C   0  0  0  0  0  0
  -27.6617  -13.1994   19.8650 C   0  0  2  0  0  0
  -28.6941  -13.0031   21.0000 C   0  0  0  0  0  0
  -25.2585  -13.8141   20.5633 C   0  0  0  0  0  0
  -24.1817  -13.0425   20.9139 C   0  0  0  0  0  0
  -24.6383  -11.6888   20.8708 C   0  0  0  0  0  0
  -23.9052  -10.4279   21.0391 C   0  0  0  0  0  0
  -24.3607   -9.4191   21.9176 C   0  0  0  0  0  0
  -23.6274   -8.2238   22.0760 C   0  0  0  0  0  0
  -22.4247   -8.0285   21.3562 C   0  0  0  0  0  0
  -21.9879   -9.0265   20.4673 C   0  0  0  0  0  0
  -22.7213  -10.2134   20.3061 C   0  0  0  0  0  0
  -21.6850   -6.0731   22.5286 C   0  0  0  0  0  0
  -21.4025   -6.5635   23.8219 C   0  0  0  0  0  0
  -21.3650   -5.6784   24.9174 C   0  0  0  0  0  0
  -21.6029   -4.3042   24.7234 C   0  0  0  0  0  0
  -21.8811   -3.8143   23.4347 C   0  0  0  0  0  0
  -21.9188   -4.6964   22.3406 C   0  0  0  0  0  0
  -22.7841  -13.5241   21.1803 C   0  0  0  0  0  0
  -22.1647   -4.2146   21.0980 F   0  0  0  0  0  0
  -21.5631   -3.4522   25.7747 F   0  0  0  0  0  0
  -30.0262  -13.3260   20.4609 N   0  0  0  0  0  0
  -26.3007  -12.9306   20.3259 N   0  0  0  0  0  0
  -25.9300  -11.6462   20.5686 N   0  0  0  0  0  0
  -22.0446  -12.8322   22.0381 N   0  0  0  0  0  0
  -25.4288  -15.1863   20.4087 N   0  0  0  0  0  0
  -31.7708  -14.7780   20.1364 O   0  0  0  0  0  0
  -21.6617   -6.8880   21.4247 O   0  0  0  0  0  0
  -22.3537  -14.5543   20.6641 O   0  0  0  0  0  0
  -24.6175  -31.8670   23.2092 C   0  0  0  0  0  0
  -25.9047  -32.4830   23.8394 C   0  0  1  0  0  0
  -27.2292  -27.3906   20.0959 C   0  0  0  0  0  0
  -25.5895  -33.8625   24.2353 N   0  0  0  0  0  0
  -23.4084  -30.4920   21.5508 C   0  0  2  0  0  0
  -24.8539  -28.9644   20.1055 C   0  0  0  0  0  0
  -22.7445  -29.4633   22.4954 C   0  0  0  0  0  0
  -18.0280  -28.1355   22.8479 C   0  0  0  0  0  0
  -24.1481  -36.7321   23.2649 C   0  0  0  0  0  0
  -25.9414  -30.8179   21.3686 C   0  0  0  0  0  0
  -26.0158  -29.4487   20.7183 C   0  0  0  0  0  0
  -27.2013  -28.6693   20.7151 C   0  0  0  0  0  0
  -26.0507  -26.9606   19.4344 C   0  0  0  0  0  0
  -24.8713  -27.7227   19.4552 C   0  0  0  0  0  0
  -23.6180  -29.8337   20.1618 C   0  0  0  0  0  0
  -25.4104  -36.3132   24.0361 C   0  0  1  0  0  0
  -20.5875  -28.3656   23.1304 C   0  0  2  0  0  0
  -20.6756  -26.9376   22.5439 C   0  0  0  0  0  0
  -19.5760  -26.6363   21.5204 C   0  0  0  0  0  0
  -18.1922  -26.7912   22.1581 C   0  0  0  0  0  0
  -19.1528  -28.8820   23.2895 C   0  0  0  0  0  0
  -18.9451  -30.1410   23.8930 C   0  0  0  0  0  0
  -17.6454  -30.6559   24.0561 C   0  0  0  0  0  0
  -25.9024  -34.9489   23.5162 C   0  0  0  0  0  0
  -16.5348  -29.9065   23.6305 C   0  0  0  0  0  0
  -16.7267  -28.6476   23.0340 C   0  0  0  0  0  0
  -26.4492  -31.6596   25.0706 C   0  0  0  0  0  0
  -25.3793  -31.3642   26.1479 C   0  0  0  0  0  0
  -27.0334  -30.3074   24.6007 C   0  0  0  0  0  0
  -27.6082  -32.4322   25.7428 C   0  0  0  0  0  0
  -27.5595  -37.1813   24.8464 C   0  0  0  0  0  0
  -21.4166  -29.3025   22.3714 N   0  0  0  0  0  0
  -26.4303  -37.3815   23.9418 N   0  0  0  0  0  0
  -24.6754  -31.0735   22.1009 N   0  0  0  0  0  0
  -23.4208  -28.8154   23.2983 O   0  0  0  0  0  0
  -28.3707  -26.5951   20.1673 O   0  0  0  0  0  0
  -26.5585  -34.8945   22.4719 O   0  0  0  0  0  0
  -23.5365  -32.1406   23.7473 O   0  0  0  0  0  0
  -30.6379  -22.2714   21.8731 C   0  0  0  0  0  0
  -29.0044  -22.7800   20.1884 C   0  0  0  0  0  0
  -30.7466  -23.6607   22.0934 C   0  0  0  0  0  0
  -29.7490  -21.7971   20.8873 C   0  0  0  0  0  0
  -29.1533  -24.1590   20.4846 C   0  0  0  0  0  0
  -31.8439  -19.5299   20.1528 C   0  0  0  0  0  0
  -31.6578  -17.6105   22.2550 C   0  0  0  0  0  0
  -33.0193  -18.5396   20.3775 C   0  0  2  0  0  0
  -30.3880  -18.0511   21.5049 C   0  0  2  0  0  0
  -33.5777  -18.0350   19.0311 C   0  0  0  0  0  0
  -29.5270  -20.2871   20.6094 C   0  0  0  0  0  0
  -28.2455  -25.1934   19.7858 C   0  0  0  0  0  0
  -29.8778  -16.9432   20.5166 C   0  0  0  0  0  0
  -30.0228  -24.5899   21.4264 N   0  0  0  0  0  0
  -30.6574  -19.3288   20.7823 N   0  0  0  0  0  0
  -29.8485  -15.5430   21.0054 N   0  0  0  0  0  0
  -32.7458  -17.3940   21.2831 N   0  3  0  0  0  0
  -32.0337  -20.4976   19.4085 O   0  0  0  0  0  0
  -31.4908  -12.4905   19.1480 H   0  0  0  0  0  0
  -30.3990  -11.3398   19.8606 H   0  0  0  0  0  0
  -29.7815  -11.7507   17.4671 H   0  0  0  0  0  0
  -29.6637  -13.4669   17.7516 H   0  0  0  0  0  0
  -27.8841  -11.2747   18.8804 H   0  0  0  0  0  0
  -27.3826  -12.5474   17.7955 H   0  0  0  0  0  0
  -27.6999  -14.2394   19.5348 H   0  0  0  0  0  0
  -28.6763  -11.9712   21.3519 H   0  0  0  0  0  0
  -28.4365  -13.6107   21.8697 H   0  0  0  0  0  0
  -25.2756   -9.5655   22.4732 H   0  0  0  0  0  0
  -23.9984   -7.4608   22.7485 H   0  0  0  0  0  0
  -21.0793   -8.8790   19.8993 H   0  0  0  0  0  0
  -22.3671  -10.9676   19.6168 H   0  0  0  0  0  0
  -21.2028   -7.6142   23.9725 H   0  0  0  0  0  0
  -21.1477   -6.0510   25.9078 H   0  0  0  0  0  0
  -22.0606   -2.7610   23.2839 H   0  0  0  0  0  0
  -22.4004  -12.0023   22.4880 H   0  0  0  0  0  0
  -21.1089  -13.1442   22.2560 H   0  0  0  0  0  0
  -24.6561  -15.8354   20.5176 H   0  0  0  0  0  0
  -26.2771  -15.6341   20.0888 H   0  0  0  0  0  0
  -26.7098  -32.5543   23.1136 H   0  0  0  0  0  0
  -25.0097  -33.9772   25.0535 H   0  0  0  0  0  0
  -22.6985  -31.3104   21.4161 H   0  0  0  0  0  0
  -23.3759  -35.9638   23.3317 H   0  0  0  0  0  0
  -24.3584  -36.8925   22.2062 H   0  0  0  0  0  0
  -23.7201  -37.6521   23.6649 H   0  0  0  0  0  0
  -26.0547  -31.5752   20.5908 H   0  0  0  0  0  0
  -26.8326  -30.8791   21.9816 H   0  0  0  0  0  0
  -28.0915  -29.0353   21.2077 H   0  0  0  0  0  0
  -26.0049  -26.0365   18.8788 H   0  0  0  0  0  0
  -23.9892  -27.3621   18.9441 H   0  0  0  0  0  0
  -23.7256  -30.6132   19.4064 H   0  0  0  0  0  0
  -22.7414  -29.2555   19.8650 H   0  0  0  0  0  0
  -25.1271  -36.2024   25.0858 H   0  0  0  0  0  0
  -20.9969  -28.3224   24.1423 H   0  0  0  0  0  0
  -20.5583  -26.2273   23.3638 H   0  0  0  0  0  0
  -21.6637  -26.7360   22.1290 H   0  0  0  0  0  0
  -19.6919  -25.6273   21.1228 H   0  0  0  0  0  0
  -19.6719  -27.3180   20.6741 H   0  0  0  0  0  0
  -17.4214  -26.6704   21.3946 H   0  0  0  0  0  0
  -18.0273  -26.0021   22.8937 H   0  0  0  0  0  0
  -19.7923  -30.7200   24.2339 H   0  0  0  0  0  0
  -17.5008  -31.6238   24.5162 H   0  0  0  0  0  0
  -15.5349  -30.2980   23.7595 H   0  0  0  0  0  0
  -15.8666  -28.0795   22.7053 H   0  0  0  0  0  0
  -24.5944  -30.7018   25.7809 H   0  0  0  0  0  0
  -24.9004  -32.2769   26.5036 H   0  0  0  0  0  0
  -25.8187  -30.8729   27.0170 H   0  0  0  0  0  0
  -26.2838  -29.6799   24.1167 H   0  0  0  0  0  0
  -27.4303  -29.7322   25.4376 H   0  0  0  0  0  0
  -27.8586  -30.4471   23.9021 H   0  0  0  0  0  0
  -27.2708  -33.3583   26.2092 H   0  0  0  0  0  0
  -28.3800  -32.6955   25.0182 H   0  0  0  0  0  0
  -28.0865  -31.8411   26.5244 H   0  0  0  0  0  0
  -28.2636  -38.0092   24.7521 H   0  0  0  0  0  0
  -28.1073  -36.2632   24.6272 H   0  0  0  0  0  0
  -27.2337  -37.1462   25.8877 H   0  0  0  0  0  0
  -20.9316  -29.8811   21.6996 H   0  0  0  0  0  0
  -26.0209  -38.2906   24.1420 H   0  0  0  0  0  0
  -31.2356  -21.5936   22.4661 H   0  0  0  0  0  0
  -28.2856  -22.4837   19.4359 H   0  0  0  0  0  0
  -31.4223  -24.0381   22.8475 H   0  0  0  0  0  0
  -31.4857  -16.6976   22.8275 H   0  0  0  0  0  0
  -31.9538  -18.3713   22.9786 H   0  0  0  0  0  0
  -33.7913  -19.1329   20.8682 H   0  0  0  0  0  0
  -29.6162  -18.2215   22.2573 H   0  0  0  0  0  0
  -32.8780  -17.3621   18.5353 H   0  0  0  0  0  0
  -34.5167  -17.4988   19.1679 H   0  0  0  0  0  0
  -33.7775  -18.8578   18.3431 H   0  0  0  0  0  0
  -29.1848  -20.1846   19.5786 H   0  0  0  0  0  0
  -28.6806  -19.9746   21.2209 H   0  0  0  0  0  0
  -27.2525  -24.8050   20.0108 H   0  0  0  0  0  0
  -28.3890  -25.1069   18.7079 H   0  0  0  0  0  0
  -30.4497  -16.9746   19.5870 H   0  0  0  0  0  0
  -28.8612  -17.1974   20.2145 H   0  0  0  0  0  0
  -28.9677  -15.2398   21.3964 H   0  0  0  0  0  0
  -32.5000  -16.5842   20.7262 H   0  0  0  0  0  0
  -33.5894  -17.1581   21.7797 H   0  0  0  0  0  0
  1 25  1  0  0  0
  1 30  2  0  0  0
  1 86  1  0  0  0
  2  3  1  0  0  0
  2 25  1  0  0  0
  2 89  1  0  0  0
  2 90  1  0  0  0
  3  4  1  0  0  0
  3 91  1  0  0  0
  3 92  1  0  0  0
  4  5  1  0  0  0
  4 93  1  0  0  0
  4 94  1  0  0  0
  5  6  1  0  0  0
  5 26  1  0  0  0
  5 95  1  0  0  0
  6 25  1  0  0  0
  6 96  1  0  0  0
  6 97  1  0  0  0
  7  8  2  0  0  0
  7 26  1  0  0  0
  7 29  1  0  0  0
  8  9  1  0  0  0
  8 22  1  0  0  0
  9 10  1  0  0  0
  9 27  2  0  0  0
 10 11  2  0  0  0
 10 15  1  0  0  0
 11 12  1  0  0  0
 11 98  1  0  0  0
 12 13  2  0  0  0
 12 99  1  0  0  0
 13 14  1  0  0  0
 13 31  1  0  0  0
 14 15  2  0  0  0
 14100  1  0  0  0
 15101  1  0  0  0
 16 17  2  0  0  0
 16 21  1  0  0  0
 16 31  1  0  0  0
 17 18  1  0  0  0
 17102  1  0  0  0
 18 19  2  0  0  0
 18103  1  0  0  0
 19 20  1  0  0  0
 19 24  1  0  0  0
 20 21  2  0  0  0
 20104  1  0  0  0
 21 23  1  0  0  0
 22 28  1  0  0  0
 22 32  2  0  0  0
 26 27  1  0  0  0
 28105  1  0  0  0
 28106  1  0  0  0
 29107  1  0  0  0
 29108  1  0  0  0
 33 34  1  0  0  0
 33 66  1  0  0  0
 33 70  2  0  0  0
 34 36  1  0  0  0
 34 59  1  0  0  0
 34109  1  0  0  0
 35 44  2  0  0  0
 35 45  1  0  0  0
 35 68  1  0  0  0
 36 56  1  0  0  0
 36110  1  0  0  0
 37 39  1  0  0  0
 37 47  1  0  0  0
 37 66  1  0  0  0
 37111  1  0  0  0
 38 43  2  0  0  0
 38 46  1  0  0  0
 38 47  1  0  0  0
 39 64  1  0  0  0
 39 67  2  0  0  0
 40 52  1  0  0  0
 40 53  2  0  0  0
 40 58  1  0  0  0
 41112  1  0  0  0
 41113  1  0  0  0
 41114  1  0  0  0
 41 48  1  0  0  0
 42 43  1  0  0  0
 42 66  1  0  0  0
 42115  1  0  0  0
 42116  1  0  0  0
 43 44  1  0  0  0
 44117  1  0  0  0
 45 46  2  0  0  0
 45118  1  0  0  0
 46119  1  0  0  0
 47120  1  0  0  0
 47121  1  0  0  0
 48 56  1  0  0  0
 48 65  1  0  0  0
 48122  1  0  0  0
 49 50  1  0  0  0
 49 53  1  0  0  0
 49 64  1  0  0  0
 49123  1  0  0  0
 50 51  1  0  0  0
 50124  1  0  0  0
 50125  1  0  0  0
 51 52  1  0  0  0
 51126  1  0  0  0
 51127  1  0  0  0
 52128  1  0  0  0
 52129  1  0  0  0
 53 54  1  0  0  0
 54 55  2  0  0  0
 54130  1  0  0  0
 55 57  1  0  0  0
 55131  1  0  0  0
 56 69  2  0  0  0
 57 58  2  0  0  0
 57132  1  0  0  0
 58133  1  0  0  0
 59 60  1  0  0  0
 59 61  1  0  0  0
 59 62  1  0  0  0
 60134  1  0  0  0
 60135  1  0  0  0
 60136  1  0  0  0
 61137  1  0  0  0
 61138  1  0  0  0
 61139  1  0  0  0
 62140  1  0  0  0
 62141  1  0  0  0
 62142  1  0  0  0
 63 65  1  0  0  0
 63143  1  0  0  0
 63144  1  0  0  0
 63145  1  0  0  0
 64146  1  0  0  0
 65147  1  0  0  0
 68 82  1  0  0  0
 71 73  2  0  0  0
 71 74  1  0  0  0
 71148  1  0  0  0
 72 74  2  0  0  0
 72 75  1  0  0  0
 72149  1  0  0  0
 73 84  1  0  0  0
 73150  1  0  0  0
 74 81  1  0  0  0
 75 82  1  0  0  0
 75 84  2  0  0  0
 76 78  1  0  0  0
 76 85  1  0  0  0
 76 88  2  0  0  0
 77 79  1  0  0  0
 77 87  1  0  0  0
 77151  1  0  0  0
 77152  1  0  0  0
 78 80  1  0  0  0
 78 87  1  0  0  0
 78153  1  0  0  0
 79 83  1  0  0  0
 79 85  1  0  0  0
 79154  1  0  0  0
 80155  1  0  0  0
 80156  1  0  0  0
 80157  1  0  0  0
 81 85  1  0  0  0
 81158  1  0  0  0
 81159  1  0  0  0
 82160  1  0  0  0
 82161  1  0  0  0
 83 86  1  0  0  0
 83162  1  0  0  0
 83163  1  0  0  0
 86164  1  0  0  0
 87165  1  0  0  0
 87166  1  0  0  0
M  CHG  1  87   1
M  ISO  4   1 100  68 101  82 101  86 100
M  END
> <chiral flag>
0

> <version>
0

> <s_m_source_file>
/data/baiqing/PycharmProjects/Reinvent-master-3.2/result/LINK_invent/BTK/process_docking_weight1_custom_sum_contain_oxygen_bond_distance_aromatic_linkinvent_7_9_3/rearranged_h_0121.sdf

> <i_m_source_file_index>
3

> <r_mmod_Potential_Energy-OPLS-2005>
-361.539672851562

> <r_mmod_Stretch_Energy-OPLS-2005>
54.5807952880859

> <r_mmod_Bend_Energy-OPLS-2005>
117.819007873535

> <r_mmod_Torsional_Energy-OPLS-2005>
278.222839355469

> <r_mmod_Improper_Torsional_Energy-OPLS-2005>
6.84543418884277

> <r_mmod_Van_der_Waal_Energy-OPLS-2005>
169.879028320312

> <r_mmod_Electrostatic_Energy-OPLS-2005>
-517.120483398438

> <r_mmod_Solvation_Energy-OPLS-2005>
-497.70068359375

> <b_mmod_Minimization_Converged-OPLS-2005>
0

> <r_mmod_RMS_Derivative-OPLS-2005>
3.26641607284546

$$$$
3
                    3D
 Structure written by MMmdl.
166175  0  0  1  0            999 V2000
  -30.7588  -14.4093   20.6380 C   0  0  0  0  0  0
  -30.4127  -12.2849   19.4304 C   0  0  0  0  0  0
  -29.4924  -12.5056   18.2143 C   0  0  0  0  0  0
  -28.0155  -12.3576   18.6274 C   0  0  0  0  0  0
  -27.6631  -13.2027   19.8789 C   0  0  2  0  0  0
  -28.6988  -12.9890   21.0068 C   0  0  0  0  0  0
  -25.2614  -13.8161   20.5701 C   0  0  0  0  0  0
  -24.1854  -13.0445   20.9196 C   0  0  0  0  0  0
  -24.6396  -11.6910   20.8759 C   0  0  0  0  0  0
  -23.9050  -10.4297   21.0420 C   0  0  0  0  0  0
  -24.3606   -9.4204   21.9185 C   0  0  0  0  0  0
  -23.6280   -8.2239   22.0763 C   0  0  0  0  0  0
  -22.4265   -8.0282   21.3549 C   0  0  0  0  0  0
  -21.9909   -9.0251   20.4644 C   0  0  0  0  0  0
  -22.7243  -10.2130   20.3055 C   0  0  0  0  0  0
  -21.6835   -6.0751   22.5285 C   0  0  0  0  0  0
  -21.4013   -6.5658   23.8221 C   0  0  0  0  0  0
  -21.3652   -5.6809   24.9184 C   0  0  0  0  0  0
  -21.6030   -4.3073   24.7221 C   0  0  0  0  0  0
  -21.8811   -3.8165   23.4349 C   0  0  0  0  0  0
  -21.9192   -4.6983   22.3408 C   0  0  0  0  0  0
  -22.7883  -13.5262   21.1826 C   0  0  0  0  0  0
  -22.1661   -4.2172   21.0975 F   0  0  0  0  0  0
  -21.5612   -3.4549   25.7724 F   0  0  0  0  0  0
  -30.0411  -13.2641   20.4653 N   0  0  0  0  0  0
  -26.3033  -12.9315   20.3382 N   0  0  0  0  0  0
  -25.9318  -11.6470   20.5777 N   0  0  0  0  0  0
  -22.0509  -12.8249   22.0364 N   0  0  0  0  0  0
  -25.4382  -15.1874   20.4114 N   0  0  0  0  0  0
  -31.8078  -14.6338   20.0231 O   0  0  0  0  0  0
  -21.6632   -6.8887   21.4247 O   0  0  0  0  0  0
  -22.3587  -14.5573   20.6675 O   0  0  0  0  0  0
  -24.6105  -31.8696   23.2116 C   0  0  0  0  0  0
  -25.9012  -32.4833   23.8410 C   0  0  1  0  0  0
  -27.2404  -27.4443   20.1024 C   0  0  0  0  0  0
  -25.5901  -33.8635   24.2352 N   0  0  0  0  0  0
  -23.3967  -30.4939   21.5478 C   0  0  2  0  0  0
  -24.8436  -28.9561   20.1172 C   0  0  0  0  0  0
  -22.7376  -29.4681   22.4985 C   0  0  0  0  0  0
  -18.0273  -28.1358   22.8497 C   0  0  0  0  0  0
  -24.1498  -36.7330   23.2640 C   0  0  0  0  0  0
  -25.9211  -30.8388   21.3600 C   0  0  0  0  0  0
  -25.9991  -29.4693   20.7173 C   0  0  0  0  0  0
  -27.1930  -28.7180   20.7136 C   0  0  0  0  0  0
  -26.0579  -26.9282   19.5212 C   0  0  0  0  0  0
  -24.8668  -27.6823   19.5206 C   0  0  0  0  0  0
  -23.6052  -29.8234   20.1634 C   0  0  0  0  0  0
  -25.4110  -36.3126   24.0354 C   0  0  1  0  0  0
  -20.5861  -28.3653   23.1331 C   0  0  2  0  0  0
  -20.6782  -26.9404   22.5405 C   0  0  0  0  0  0
  -19.5749  -26.6397   21.5206 C   0  0  0  0  0  0
  -18.1921  -26.7903   22.1630 C   0  0  0  0  0  0
  -19.1513  -28.8820   23.2914 C   0  0  0  0  0  0
  -18.9443  -30.1437   23.8910 C   0  0  0  0  0  0
  -17.6441  -30.6574   24.0542 C   0  0  0  0  0  0
  -25.9028  -34.9491   23.5137 C   0  0  0  0  0  0
  -16.5347  -29.9056   23.6323 C   0  0  0  0  0  0
  -16.7265  -28.6468   23.0351 C   0  0  0  0  0  0
  -26.4473  -31.6567   25.0702 C   0  0  0  0  0  0
  -25.3776  -31.3628   26.1469 C   0  0  0  0  0  0
  -27.0322  -30.3034   24.6019 C   0  0  0  0  0  0
  -27.6061  -32.4280   25.7465 C   0  0  0  0  0  0
  -27.5591  -37.1814   24.8473 C   0  0  0  0  0  0
  -21.4101  -29.3034   22.3724 N   0  0  0  0  0  0
  -26.4309  -37.3801   23.9414 N   0  0  0  0  0  0
  -24.6609  -31.0810   22.1002 N   0  0  0  0  0  0
  -23.4151  -28.8238   23.3042 O   0  0  0  0  0  0
  -28.4454  -26.7706   20.1167 O   0  0  0  0  0  0
  -26.5585  -34.8936   22.4690 O   0  0  0  0  0  0
  -23.5296  -32.1442   23.7525 O   0  0  0  0  0  0
  -28.7480  -22.8400   21.8868 C   0  0  0  0  0  0
  -28.5351  -21.8411   19.6825 C   0  0  0  0  0  0
  -28.7138  -24.1304   21.3112 C   0  0  0  0  0  0
  -28.5108  -23.1299   19.1072 C   0  0  0  0  0  0
  -28.6639  -21.6810   21.0807 C   0  0  0  0  0  0
  -28.5973  -24.2849   19.9120 C   0  0  0  0  0  0
  -29.4599  -19.2015   20.9668 C   0  0  0  0  0  0
  -27.2468  -19.8113   22.0498 C   0  0  0  0  0  0
  -27.9499  -17.4449   21.9868 C   0  0  0  0  0  0
  -28.6809  -20.2965   21.7437 C   0  0  2  0  0  0
  -29.4193  -17.8303   21.6974 C   0  0  1  0  0  0
  -30.5735  -15.2519   22.8549 C   0  0  0  0  0  0
  -28.6671  -25.6575   19.2458 C   0  0  0  0  0  0
  -30.1987  -16.7466   20.8941 C   0  0  0  0  0  0
  -30.2160  -15.3638   21.4341 N   0  0  0  0  0  0
  -27.2646  -18.5099   22.7498 N   0  3  0  0  0  0
  -30.2905  -11.2755   19.8231 H   0  0  0  0  0  0
  -31.4608  -12.3611   19.1356 H   0  0  0  0  0  0
  -29.7358  -11.7948   17.4237 H   0  0  0  0  0  0
  -29.6628  -13.4998   17.7979 H   0  0  0  0  0  0
  -27.8381  -11.3009   18.8365 H   0  0  0  0  0  0
  -27.3570  -12.6132   17.7967 H   0  0  0  0  0  0
  -27.7115  -14.2487   19.5763 H   0  0  0  0  0  0
  -28.4513  -13.6121   21.8660 H   0  0  0  0  0  0
  -28.6573  -11.9623   21.3740 H   0  0  0  0  0  0
  -25.2751   -9.5666   22.4769 H   0  0  0  0  0  0
  -23.9977   -7.4640   22.7505 H   0  0  0  0  0  0
  -21.0837   -8.8780   19.8954 H   0  0  0  0  0  0
  -22.3713  -10.9670   19.6171 H   0  0  0  0  0  0
  -21.2013   -7.6168   23.9726 H   0  0  0  0  0  0
  -21.1479   -6.0544   25.9082 H   0  0  0  0  0  0
  -22.0595   -2.7630   23.2843 H   0  0  0  0  0  0
  -22.4123  -11.9866   22.4665 H   0  0  0  0  0  0
  -21.1141  -13.1297   22.2572 H   0  0  0  0  0  0
  -24.6469  -15.8207   20.4418 H   0  0  0  0  0  0
  -26.2428  -15.5785   19.9393 H   0  0  0  0  0  0
  -26.7055  -32.5559   23.1147 H   0  0  0  0  0  0
  -25.0112  -33.9792   25.0545 H   0  0  0  0  0  0
  -22.6848  -31.3099   21.4093 H   0  0  0  0  0  0
  -23.3761  -35.9665   23.3313 H   0  0  0  0  0  0
  -24.3581  -36.8922   22.2053 H   0  0  0  0  0  0
  -23.7263  -37.6546   23.6638 H   0  0  0  0  0  0
  -26.0219  -31.6008   20.5857 H   0  0  0  0  0  0
  -26.8121  -30.8996   21.9731 H   0  0  0  0  0  0
  -28.0847  -29.1139   21.1797 H   0  0  0  0  0  0
  -26.0305  -25.9408   19.0833 H   0  0  0  0  0  0
  -23.9737  -27.2728   19.0678 H   0  0  0  0  0  0
  -23.7064  -30.5949   19.3977 H   0  0  0  0  0  0
  -22.7307  -29.2375   19.8754 H   0  0  0  0  0  0
  -25.1285  -36.1995   25.0855 H   0  0  0  0  0  0
  -20.9950  -28.3223   24.1453 H   0  0  0  0  0  0
  -20.5736  -26.2252   23.3575 H   0  0  0  0  0  0
  -21.6642  -26.7478   22.1168 H   0  0  0  0  0  0
  -19.6934  -25.6324   21.1202 H   0  0  0  0  0  0
  -19.6676  -27.3246   20.6759 H   0  0  0  0  0  0
  -17.4194  -26.6663   21.4029 H   0  0  0  0  0  0
  -18.0333  -26.0033   22.9015 H   0  0  0  0  0  0
  -19.7924  -30.7259   24.2277 H   0  0  0  0  0  0
  -17.4985  -31.6275   24.5111 H   0  0  0  0  0  0
  -15.5336  -30.2949   23.7633 H   0  0  0  0  0  0
  -15.8673  -28.0788   22.7051 H   0  0  0  0  0  0
  -24.5907  -30.7032   25.7792 H   0  0  0  0  0  0
  -24.9022  -32.2775   26.5032 H   0  0  0  0  0  0
  -25.8158  -30.8686   27.0146 H   0  0  0  0  0  0
  -26.2835  -29.6772   24.1136 H   0  0  0  0  0  0
  -27.4222  -29.7295   25.4441 H   0  0  0  0  0  0
  -27.8615  -30.4407   23.9070 H   0  0  0  0  0  0
  -27.2657  -33.3509   26.2171 H   0  0  0  0  0  0
  -28.3789  -32.6953   25.0244 H   0  0  0  0  0  0
  -28.0808  -31.8315   26.5265 H   0  0  0  0  0  0
  -28.2616  -38.0102   24.7505 H   0  0  0  0  0  0
  -28.1082  -36.2636   24.6320 H   0  0  0  0  0  0
  -27.2298  -37.1483   25.8873 H   0  0  0  0  0  0
  -20.9243  -29.8716   21.6924 H   0  0  0  0  0  0
  -26.0205  -38.2889   24.1402 H   0  0  0  0  0  0
  -28.8488  -22.7460   22.9588 H   0  0  0  0  0  0
  -28.4611  -20.9859   19.0274 H   0  0  0  0  0  0
  -28.7987  -25.0012   21.9460 H   0  0  0  0  0  0
  -28.4416  -23.2299   18.0339 H   0  0  0  0  0  0
  -30.4958  -19.5157   20.8274 H   0  0  0  0  0  0
  -29.0381  -19.0768   19.9692 H   0  0  0  0  0  0
  -26.6761  -19.7128   21.1248 H   0  0  0  0  0  0
  -26.7247  -20.5406   22.6721 H   0  0  0  0  0  0
  -27.8968  -16.5193   22.5568 H   0  0  0  0  0  0
  -27.4086  -17.2624   21.0571 H   0  0  0  0  0  0
  -29.1988  -20.4251   22.6960 H   0  0  0  0  0  0
  -29.9307  -17.9690   22.6520 H   0  0  0  0  0  0
  -31.6106  -15.5566   23.0127 H   0  0  0  0  0  0
  -29.9439  -15.8589   23.5002 H   0  0  0  0  0  0
  -30.4722  -14.2272   23.2156 H   0  0  0  0  0  0
  -29.6877  -25.7627   18.8790 H   0  0  0  0  0  0
  -28.0521  -25.6877   18.3481 H   0  0  0  0  0  0
  -29.7700  -16.7026   19.8902 H   0  0  0  0  0  0
  -31.2269  -17.0889   20.7572 H   0  0  0  0  0  0
  -26.3178  -18.2207   22.9345 H   0  0  0  0  0  0
  -27.7157  -18.6270   23.6435 H   0  0  0  0  0  0
  1 25  1  0  0  0
  1 30  2  0  0  0
  1 85  1  0  0  0
  2  3  1  0  0  0
  2 25  1  0  0  0
  2 87  1  0  0  0
  2 88  1  0  0  0
  3  4  1  0  0  0
  3 89  1  0  0  0
  3 90  1  0  0  0
  4  5  1  0  0  0
  4 91  1  0  0  0
  4 92  1  0  0  0
  5  6  1  0  0  0
  5 26  1  0  0  0
  5 93  1  0  0  0
  6 25  1  0  0  0
  6 94  1  0  0  0
  6 95  1  0  0  0
  7  8  2  0  0  0
  7 26  1  0  0  0
  7 29  1  0  0  0
  8  9  1  0  0  0
  8 22  1  0  0  0
  9 10  1  0  0  0
  9 27  2  0  0  0
 10 11  2  0  0  0
 10 15  1  0  0  0
 11 12  1  0  0  0
 11 96  1  0  0  0
 12 13  2  0  0  0
 12 97  1  0  0  0
 13 14  1  0  0  0
 13 31  1  0  0  0
 14 15  2  0  0  0
 14 98  1  0  0  0
 15 99  1  0  0  0
 16 17  2  0  0  0
 16 21  1  0  0  0
 16 31  1  0  0  0
 17 18  1  0  0  0
 17100  1  0  0  0
 18 19  2  0  0  0
 18101  1  0  0  0
 19 20  1  0  0  0
 19 24  1  0  0  0
 20 21  2  0  0  0
 20102  1  0  0  0
 21 23  1  0  0  0
 22 28  1  0  0  0
 22 32  2  0  0  0
 26 27  1  0  0  0
 28103  1  0  0  0
 28104  1  0  0  0
 29105  1  0  0  0
 29106  1  0  0  0
 33 34  1  0  0  0
 33 66  1  0  0  0
 33 70  2  0  0  0
 34 36  1  0  0  0
 34 59  1  0  0  0
 34107  1  0  0  0
 35 44  2  0  0  0
 35 45  1  0  0  0
 35 68  1  0  0  0
 36 56  1  0  0  0
 36108  1  0  0  0
 37 39  1  0  0  0
 37 47  1  0  0  0
 37 66  1  0  0  0
 37109  1  0  0  0
 38 43  2  0  0  0
 38 46  1  0  0  0
 38 47  1  0  0  0
 39 64  1  0  0  0
 39 67  2  0  0  0
 40 52  1  0  0  0
 40 53  2  0  0  0
 40 58  1  0  0  0
 41110  1  0  0  0
 41111  1  0  0  0
 41112  1  0  0  0
 41 48  1  0  0  0
 42 43  1  0  0  0
 42 66  1  0  0  0
 42113  1  0  0  0
 42114  1  0  0  0
 43 44  1  0  0  0
 44115  1  0  0  0
 45 46  2  0  0  0
 45116  1  0  0  0
 46117  1  0  0  0
 47118  1  0  0  0
 47119  1  0  0  0
 48 56  1  0  0  0
 48 65  1  0  0  0
 48120  1  0  0  0
 49 50  1  0  0  0
 49 53  1  0  0  0
 49 64  1  0  0  0
 49121  1  0  0  0
 50 51  1  0  0  0
 50122  1  0  0  0
 50123  1  0  0  0
 51 52  1  0  0  0
 51124  1  0  0  0
 51125  1  0  0  0
 52126  1  0  0  0
 52127  1  0  0  0
 53 54  1  0  0  0
 54 55  2  0  0  0
 54128  1  0  0  0
 55 57  1  0  0  0
 55129  1  0  0  0
 56 69  2  0  0  0
 57 58  2  0  0  0
 57130  1  0  0  0
 58131  1  0  0  0
 59 60  1  0  0  0
 59 61  1  0  0  0
 59 62  1  0  0  0
 60132  1  0  0  0
 60133  1  0  0  0
 60134  1  0  0  0
 61135  1  0  0  0
 61136  1  0  0  0
 61137  1  0  0  0
 62138  1  0  0  0
 62139  1  0  0  0
 62140  1  0  0  0
 63 65  1  0  0  0
 63141  1  0  0  0
 63142  1  0  0  0
 63143  1  0  0  0
 64144  1  0  0  0
 65145  1  0  0  0
 68 83  1  0  0  0
 71 73  2  0  0  0
 71 75  1  0  0  0
 71146  1  0  0  0
 72 74  1  0  0  0
 72 75  2  0  0  0
 72147  1  0  0  0
 73 76  1  0  0  0
 73148  1  0  0  0
 74 76  2  0  0  0
 74149  1  0  0  0
 75 80  1  0  0  0
 76 83  1  0  0  0
 77 80  1  0  0  0
 77 81  1  0  0  0
 77150  1  0  0  0
 77151  1  0  0  0
 78 80  1  0  0  0
 78 86  1  0  0  0
 78152  1  0  0  0
 78153  1  0  0  0
 79 81  1  0  0  0
 79 86  1  0  0  0
 79154  1  0  0  0
 79155  1  0  0  0
 80156  1  0  0  0
 81 84  1  0  0  0
 81157  1  0  0  0
 82 85  1  0  0  0
 82158  1  0  0  0
 82159  1  0  0  0
 82160  1  0  0  0
 83161  1  0  0  0
 83162  1  0  0  0
 84 85  1  0  0  0
 84163  1  0  0  0
 84164  1  0  0  0
 86165  1  0  0  0
 86166  1  0  0  0
M  CHG  1  86   1
M  ISO  4   1 100  68 101  83 101  85 100
M  END
> <chiral flag>
0

> <version>
0

> <s_m_source_file>
/data/baiqing/PycharmProjects/Reinvent-master-3.2/result/LINK_invent/BTK/process_docking_weight1_custom_sum_contain_oxygen_bond_distance_aromatic_linkinvent_7_9_3/rearranged_h_0121.sdf

> <i_m_source_file_index>
4

> <r_mmod_Potential_Energy-OPLS-2005>
-12.5062084197998

> <r_mmod_Stretch_Energy-OPLS-2005>
40.1929512023926

> <r_mmod_Bend_Energy-OPLS-2005>
110.594947814941

> <r_mmod_Torsional_Energy-OPLS-2005>
317.137237548828

> <r_mmod_Improper_Torsional_Energy-OPLS-2005>
7.62481451034546

> <r_mmod_Van_der_Waal_Energy-OPLS-2005>
154.919738769531

> <r_mmod_Electrostatic_Energy-OPLS-2005>
-196.113815307617

> <r_mmod_Solvation_Energy-OPLS-2005>
-456.25830078125

> <b_mmod_Minimization_Converged-OPLS-2005>
0

> <r_mmod_RMS_Derivative-OPLS-2005>
3.40358543395996

$$$$
4
                    3D
 Structure written by MMmdl.
170179  0  0  1  0            999 V2000
  -30.7120  -14.4490   20.4767 C   0  0  0  0  0  0
  -30.3976  -12.2320   19.4735 C   0  0  0  0  0  0
  -29.5150  -12.4545   18.2262 C   0  0  0  0  0  0
  -28.0209  -12.3754   18.6118 C   0  0  0  0  0  0
  -27.6619  -13.2106   19.8739 C   0  0  2  0  0  0
  -28.7002  -13.0205   21.0064 C   0  0  0  0  0  0
  -25.2575  -13.8147   20.5590 C   0  0  0  0  0  0
  -24.1846  -13.0440   20.9108 C   0  0  0  0  0  0
  -24.6431  -11.6895   20.8718 C   0  0  0  0  0  0
  -23.9114  -10.4273   21.0410 C   0  0  0  0  0  0
  -24.3669   -9.4188   21.9174 C   0  0  0  0  0  0
  -23.6325   -8.2259   22.0753 C   0  0  0  0  0  0
  -22.4288   -8.0326   21.3546 C   0  0  0  0  0  0
  -21.9939   -9.0295   20.4648 C   0  0  0  0  0  0
  -22.7297  -10.2144   20.3071 C   0  0  0  0  0  0
  -21.6862   -6.0760   22.5277 C   0  0  0  0  0  0
  -21.3986   -6.5634   23.8193 C   0  0  0  0  0  0
  -21.3624   -5.6798   24.9168 C   0  0  0  0  0  0
  -21.6064   -4.3065   24.7245 C   0  0  0  0  0  0
  -21.8864   -3.8153   23.4364 C   0  0  0  0  0  0
  -21.9223   -4.6962   22.3420 C   0  0  0  0  0  0
  -22.7882  -13.5226   21.1839 C   0  0  0  0  0  0
  -22.1744   -4.2146   21.1014 F   0  0  0  0  0  0
  -21.5593   -3.4549   25.7757 F   0  0  0  0  0  0
  -30.0362  -13.2697   20.4476 N   0  0  0  0  0  0
  -26.3001  -12.9340   20.3279 N   0  0  0  0  0  0
  -25.9347  -11.6491   20.5736 N   0  0  0  0  0  0
  -22.0608  -12.8186   22.0442 N   0  0  0  0  0  0
  -25.4293  -15.1853   20.3915 N   0  0  0  0  0  0
  -31.8863  -14.5632   20.1203 O   0  0  0  0  0  0
  -21.6665   -6.8907   21.4224 O   0  0  0  0  0  0
  -22.3551  -14.5540   20.6707 O   0  0  0  0  0  0
  -24.6160  -31.8653   23.2094 C   0  0  0  0  0  0
  -25.9042  -32.4802   23.8402 C   0  0  1  0  0  0
  -27.2648  -27.4654   20.0871 C   0  0  0  0  0  0
  -25.5870  -33.8588   24.2332 N   0  0  0  0  0  0
  -23.4085  -30.4817   21.5486 C   0  0  2  0  0  0
  -24.8668  -28.9597   20.1039 C   0  0  0  0  0  0
  -22.7436  -29.4597   22.5005 C   0  0  0  0  0  0
  -18.0274  -28.1377   22.8504 C   0  0  0  0  0  0
  -24.1452  -36.7292   23.2636 C   0  0  0  0  0  0
  -25.9335  -30.8470   21.3525 C   0  0  0  0  0  0
  -26.0244  -29.4839   20.6967 C   0  0  0  0  0  0
  -27.2298  -28.7434   20.6858 C   0  0  0  0  0  0
  -26.0949  -26.9495   19.4947 C   0  0  0  0  0  0
  -24.8982  -27.6928   19.4949 C   0  0  0  0  0  0
  -23.6180  -29.8111   20.1631 C   0  0  0  0  0  0
  -25.4062  -36.3077   24.0350 C   0  0  1  0  0  0
  -20.5857  -28.3633   23.1328 C   0  0  2  0  0  0
  -20.6734  -26.9367   22.5428 C   0  0  0  0  0  0
  -19.5721  -26.6398   21.5204 C   0  0  0  0  0  0
  -18.1899  -26.7933   22.1628 C   0  0  0  0  0  0
  -19.1522  -28.8835   23.2906 C   0  0  0  0  0  0
  -18.9451  -30.1433   23.8916 C   0  0  0  0  0  0
  -17.6445  -30.6570   24.0570 C   0  0  0  0  0  0
  -25.9014  -34.9449   23.5147 C   0  0  0  0  0  0
  -16.5336  -29.9058   23.6343 C   0  0  0  0  0  0
  -16.7255  -28.6484   23.0361 C   0  0  0  0  0  0
  -26.4484  -31.6583   25.0725 C   0  0  0  0  0  0
  -25.3754  -31.3694   26.1479 C   0  0  0  0  0  0
  -27.0316  -30.3037   24.6074 C   0  0  0  0  0  0
  -27.6113  -32.4269   25.7431 C   0  0  0  0  0  0
  -27.5566  -37.1741   24.8444 C   0  0  0  0  0  0
  -21.4161  -29.2978   22.3738 N   0  0  0  0  0  0
  -26.4226  -37.3787   23.9465 N   0  0  0  0  0  0
  -24.6716  -31.0753   22.0979 N   0  0  0  0  0  0
  -23.4212  -28.8159   23.3049 O   0  0  0  0  0  0
  -28.3520  -26.6372   20.2143 O   0  0  0  0  0  0
  -26.5588  -34.8916   22.4713 O   0  0  0  0  0  0
  -23.5349  -32.1363   23.7491 O   0  0  0  0  0  0
  -31.9157  -26.1745   19.8188 C   0  0  0  0  0  0
  -32.8714  -25.2133   20.2073 C   0  0  0  0  0  0
  -30.2340  -24.4522   20.0030 C   0  0  0  0  0  0
  -30.5589  -25.7943   19.7300 C   0  0  0  0  0  0
  -32.4430  -23.9048   20.4957 C   0  0  0  0  0  0
  -33.1634  -19.9368   20.2695 C   0  0  0  0  0  0
  -32.6418  -18.5070   20.1949 C   0  0  0  0  0  0
  -32.8202  -20.4174   21.6771 C   0  0  2  0  0  0
  -31.5130  -19.6423   21.9492 C   0  0  2  0  0  0
  -31.1957  -19.3611   23.4251 C   0  0  0  0  0  0
  -29.4624  -26.7880   19.3451 C   0  0  0  0  0  0
  -33.4032  -22.8222   20.9798 C   0  0  0  0  0  0
  -30.2588  -18.0677   20.6330 C   0  0  0  0  0  0
  -30.1750  -16.7651   19.8052 C   0  0  0  0  0  0
  -31.1445  -23.5296   20.3873 N   0  0  0  0  0  0
  -31.5799  -18.3765   21.2014 N   0  0  0  0  0  0
  -29.9334  -15.5354   20.5773 N   0  0  0  0  0  0
  -32.5926  -21.8816   21.7776 N   0  3  0  0  0  0
  -31.4584  -12.2404   19.2143 H   0  0  0  0  0  0
  -30.2058  -11.2414   19.8963 H   0  0  0  0  0  0
  -29.7497  -11.7020   17.4713 H   0  0  0  0  0  0
  -29.7434  -13.4243   17.7782 H   0  0  0  0  0  0
  -27.7684  -11.3248   18.7700 H   0  0  0  0  0  0
  -27.4116  -12.7083   17.7737 H   0  0  0  0  0  0
  -27.6921  -14.2548   19.5629 H   0  0  0  0  0  0
  -28.6539  -12.0099   21.4130 H   0  0  0  0  0  0
  -28.4946  -13.6799   21.8512 H   0  0  0  0  0  0
  -25.2846   -9.5653   22.4696 H   0  0  0  0  0  0
  -24.0031   -7.4652   22.7484 H   0  0  0  0  0  0
  -21.0881   -8.8924   19.8924 H   0  0  0  0  0  0
  -22.3840  -10.9743   19.6194 H   0  0  0  0  0  0
  -21.1966   -7.6138   23.9682 H   0  0  0  0  0  0
  -21.1377   -6.0523   25.9068 H   0  0  0  0  0  0
  -22.0674   -2.7607   23.2903 H   0  0  0  0  0  0
  -22.4250  -11.9820   22.4763 H   0  0  0  0  0  0
  -21.1276  -13.1294   22.2781 H   0  0  0  0  0  0
  -24.6519  -15.8351   20.4370 H   0  0  0  0  0  0
  -26.2867  -15.6158   20.0717 H   0  0  0  0  0  0
  -26.7138  -32.5544   23.1206 H   0  0  0  0  0  0
  -24.9969  -33.9742   25.0440 H   0  0  0  0  0  0
  -22.6965  -31.2971   21.4067 H   0  0  0  0  0  0
  -23.3711  -35.9620   23.3247 H   0  0  0  0  0  0
  -24.3581  -36.8948   22.2062 H   0  0  0  0  0  0
  -23.7188  -37.6477   23.6680 H   0  0  0  0  0  0
  -26.0282  -31.6149   20.5822 H   0  0  0  0  0  0
  -26.8275  -30.9143   21.9608 H   0  0  0  0  0  0
  -28.1152  -29.1325   21.1693 H   0  0  0  0  0  0
  -26.1061  -25.9598   19.0612 H   0  0  0  0  0  0
  -24.0092  -27.2761   19.0407 H   0  0  0  0  0  0
  -23.7094  -30.5839   19.3997 H   0  0  0  0  0  0
  -22.7502  -29.2148   19.8761 H   0  0  0  0  0  0
  -25.1210  -36.1918   25.0834 H   0  0  0  0  0  0
  -20.9953  -28.3168   24.1441 H   0  0  0  0  0  0
  -20.5583  -26.2224   23.3594 H   0  0  0  0  0  0
  -21.6600  -26.7365   22.1233 H   0  0  0  0  0  0
  -19.6852  -25.6327   21.1169 H   0  0  0  0  0  0
  -19.6649  -27.3260   20.6770 H   0  0  0  0  0  0
  -17.4158  -26.6695   21.4026 H   0  0  0  0  0  0
  -18.0288  -26.0058   22.9013 H   0  0  0  0  0  0
  -19.7907  -30.7261   24.2288 H   0  0  0  0  0  0
  -17.4977  -31.6249   24.5183 H   0  0  0  0  0  0
  -15.5321  -30.2958   23.7674 H   0  0  0  0  0  0
  -15.8658  -28.0805   22.7076 H   0  0  0  0  0  0
  -24.5932  -30.7040   25.7816 H   0  0  0  0  0  0
  -24.8935  -32.2841   26.4925 H   0  0  0  0  0  0
  -25.8096  -30.8864   27.0233 H   0  0  0  0  0  0
  -26.2840  -29.6739   24.1243 H   0  0  0  0  0  0
  -27.4237  -29.7337   25.4501 H   0  0  0  0  0  0
  -27.8593  -30.4388   23.9114 H   0  0  0  0  0  0
  -27.2827  -33.3586   26.2029 H   0  0  0  0  0  0
  -28.3874  -32.6767   25.0193 H   0  0  0  0  0  0
  -28.0820  -31.8358   26.5287 H   0  0  0  0  0  0
  -28.2503  -38.0120   24.7614 H   0  0  0  0  0  0
  -28.1132  -36.2660   24.6064 H   0  0  0  0  0  0
  -27.2335  -37.1152   25.8856 H   0  0  0  0  0  0
  -20.9358  -29.8671   21.6920 H   0  0  0  0  0  0
  -26.0091  -38.2822   24.1610 H   0  0  0  0  0  0
  -32.2246  -27.1855   19.6017 H   0  0  0  0  0  0
  -33.9148  -25.4799   20.2866 H   0  0  0  0  0  0
  -29.2138  -24.0999   19.9302 H   0  0  0  0  0  0
  -32.6440  -20.5235   19.5115 H   0  0  0  0  0  0
  -34.2335  -19.9888   20.0598 H   0  0  0  0  0  0
  -33.4401  -17.8057   20.4443 H   0  0  0  0  0  0
  -32.3235  -18.2844   19.1756 H   0  0  0  0  0  0
  -33.6138  -20.1130   22.3653 H   0  0  0  0  0  0
  -30.7009  -20.2426   21.5273 H   0  0  0  0  0  0
  -32.0679  -18.9782   23.9564 H   0  0  0  0  0  0
  -30.3990  -18.6204   23.5268 H   0  0  0  0  0  0
  -30.8569  -20.2603   23.9390 H   0  0  0  0  0  0
  -29.1518  -26.5797   18.3197 H   0  0  0  0  0  0
  -29.8413  -27.8097   19.3815 H   0  0  0  0  0  0
  -34.2188  -23.2347   21.5754 H   0  0  0  0  0  0
  -33.8556  -22.3761   20.0955 H   0  0  0  0  0  0
  -29.5068  -18.0474   21.4208 H   0  0  0  0  0  0
  -29.9744  -18.8978   19.9802 H   0  0  0  0  0  0
  -29.3125  -16.8694   19.1466 H   0  0  0  0  0  0
  -31.0128  -16.6558   19.1148 H   0  0  0  0  0  0
  -28.9716  -15.3635   20.8352 H   0  0  0  0  0  0
  -32.5712  -22.1837   22.7362 H   0  0  0  0  0  0
  -31.6858  -22.1050   21.3784 H   0  0  0  0  0  0
  1 25  1  0  0  0
  1 30  2  0  0  0
  1 87  1  0  0  0
  2  3  1  0  0  0
  2 25  1  0  0  0
  2 89  1  0  0  0
  2 90  1  0  0  0
  3  4  1  0  0  0
  3 91  1  0  0  0
  3 92  1  0  0  0
  4  5  1  0  0  0
  4 93  1  0  0  0
  4 94  1  0  0  0
  5  6  1  0  0  0
  5 26  1  0  0  0
  5 95  1  0  0  0
  6 25  1  0  0  0
  6 96  1  0  0  0
  6 97  1  0  0  0
  7  8  2  0  0  0
  7 26  1  0  0  0
  7 29  1  0  0  0
  8  9  1  0  0  0
  8 22  1  0  0  0
  9 10  1  0  0  0
  9 27  2  0  0  0
 10 11  2  0  0  0
 10 15  1  0  0  0
 11 12  1  0  0  0
 11 98  1  0  0  0
 12 13  2  0  0  0
 12 99  1  0  0  0
 13 14  1  0  0  0
 13 31  1  0  0  0
 14 15  2  0  0  0
 14100  1  0  0  0
 15101  1  0  0  0
 16 17  2  0  0  0
 16 21  1  0  0  0
 16 31  1  0  0  0
 17 18  1  0  0  0
 17102  1  0  0  0
 18 19  2  0  0  0
 18103  1  0  0  0
 19 20  1  0  0  0
 19 24  1  0  0  0
 20 21  2  0  0  0
 20104  1  0  0  0
 21 23  1  0  0  0
 22 28  1  0  0  0
 22 32  2  0  0  0
 26 27  1  0  0  0
 28105  1  0  0  0
 28106  1  0  0  0
 29107  1  0  0  0
 29108  1  0  0  0
 33 34  1  0  0  0
 33 66  1  0  0  0
 33 70  2  0  0  0
 34 36  1  0  0  0
 34 59  1  0  0  0
 34109  1  0  0  0
 35 44  2  0  0  0
 35 45  1  0  0  0
 35 68  1  0  0  0
 36 56  1  0  0  0
 36110  1  0  0  0
 37 39  1  0  0  0
 37 47  1  0  0  0
 37 66  1  0  0  0
 37111  1  0  0  0
 38 43  2  0  0  0
 38 46  1  0  0  0
 38 47  1  0  0  0
 39 64  1  0  0  0
 39 67  2  0  0  0
 40 52  1  0  0  0
 40 53  2  0  0  0
 40 58  1  0  0  0
 41112  1  0  0  0
 41113  1  0  0  0
 41114  1  0  0  0
 41 48  1  0  0  0
 42 43  1  0  0  0
 42 66  1  0  0  0
 42115  1  0  0  0
 42116  1  0  0  0
 43 44  1  0  0  0
 44117  1  0  0  0
 45 46  2  0  0  0
 45118  1  0  0  0
 46119  1  0  0  0
 47120  1  0  0  0
 47121  1  0  0  0
 48 56  1  0  0  0
 48 65  1  0  0  0
 48122  1  0  0  0
 49 50  1  0  0  0
 49 53  1  0  0  0
 49 64  1  0  0  0
 49123  1  0  0  0
 50 51  1  0  0  0
 50124  1  0  0  0
 50125  1  0  0  0
 51 52  1  0  0  0
 51126  1  0  0  0
 51127  1  0  0  0
 52128  1  0  0  0
 52129  1  0  0  0
 53 54  1  0  0  0
 54 55  2  0  0  0
 54130  1  0  0  0
 55 57  1  0  0  0
 55131  1  0  0  0
 56 69  2  0  0  0
 57 58  2  0  0  0
 57132  1  0  0  0
 58133  1  0  0  0
 59 60  1  0  0  0
 59 61  1  0  0  0
 59 62  1  0  0  0
 60134  1  0  0  0
 60135  1  0  0  0
 60136  1  0  0  0
 61137  1  0  0  0
 61138  1  0  0  0
 61139  1  0  0  0
 62140  1  0  0  0
 62141  1  0  0  0
 62142  1  0  0  0
 63 65  1  0  0  0
 63143  1  0  0  0
 63144  1  0  0  0
 63145  1  0  0  0
 64146  1  0  0  0
 65147  1  0  0  0
 68 81  1  0  0  0
 71 72  2  0  0  0
 71 74  1  0  0  0
 71148  1  0  0  0
 72 75  1  0  0  0
 72149  1  0  0  0
 73 74  2  0  0  0
 73 85  1  0  0  0
 73150  1  0  0  0
 74 81  1  0  0  0
 75 82  1  0  0  0
 75 85  2  0  0  0
 76 77  1  0  0  0
 76 78  1  0  0  0
 76151  1  0  0  0
 76152  1  0  0  0
 77 86  1  0  0  0
 77153  1  0  0  0
 77154  1  0  0  0
 78 79  1  0  0  0
 78 88  1  0  0  0
 78155  1  0  0  0
 79 80  1  0  0  0
 79 86  1  0  0  0
 79156  1  0  0  0
 80157  1  0  0  0
 80158  1  0  0  0
 80159  1  0  0  0
 81160  1  0  0  0
 81161  1  0  0  0
 82 88  1  0  0  0
 82162  1  0  0  0
 82163  1  0  0  0
 83 84  1  0  0  0
 83 86  1  0  0  0
 83164  1  0  0  0
 83165  1  0  0  0
 84 87  1  0  0  0
 84166  1  0  0  0
 84167  1  0  0  0
 87168  1  0  0  0
 88169  1  0  0  0
 88170  1  0  0  0
M  CHG  1  88   1
M  ISO  4   1 100  68 101  81 101  87 100
M  END
> <chiral flag>
0

> <version>
0

> <s_m_source_file>
/data/baiqing/PycharmProjects/Reinvent-master-3.2/result/LINK_invent/BTK/process_docking_weight1_custom_sum_contain_oxygen_bond_distance_aromatic_linkinvent_7_9_3/rearranged_h_0121.sdf

> <i_m_source_file_index>
5

> <r_mmod_Potential_Energy-OPLS-2005>
-370.131195068359

> <r_mmod_Stretch_Energy-OPLS-2005>
36.3326110839844

> <r_mmod_Bend_Energy-OPLS-2005>
135.2353515625

> <r_mmod_Torsional_Energy-OPLS-2005>
360.084320068359

> <r_mmod_Improper_Torsional_Energy-OPLS-2005>
11.9060392379761

> <r_mmod_Van_der_Waal_Energy-OPLS-2005>
165.14128112793

> <r_mmod_Electrostatic_Energy-OPLS-2005>
-640.578857421875

> <r_mmod_Solvation_Energy-OPLS-2005>
-460.078002929688

> <b_mmod_Minimization_Converged-OPLS-2005>
0

> <r_mmod_RMS_Derivative-OPLS-2005>
5.50433778762817

$$$$
5
                    3D
 Structure written by MMmdl.
178187  0  0  1  0            999 V2000
  -30.5964  -14.8274   20.6121 C   0  0  0  0  0  0
  -30.4566  -12.5444   19.4986 C   0  0  0  0  0  0
  -29.5123  -12.5196   18.2729 C   0  0  0  0  0  0
  -28.0491  -12.2878   18.6846 C   0  0  0  0  0  0
  -27.6335  -13.2066   19.8554 C   0  0  2  0  0  0
  -28.6768  -13.1121   20.9865 C   0  0  0  0  0  0
  -25.2278  -13.7800   20.5390 C   0  0  0  0  0  0
  -24.1627  -13.0139   20.9203 C   0  0  0  0  0  0
  -24.6334  -11.6724   20.8806 C   0  0  0  0  0  0
  -23.9041  -10.4154   21.0447 C   0  0  0  0  0  0
  -24.3588   -9.4090   21.9215 C   0  0  0  0  0  0
  -23.6256   -8.2139   22.0745 C   0  0  0  0  0  0
  -22.4249   -8.0206   21.3517 C   0  0  0  0  0  0
  -21.9892   -9.0182   20.4634 C   0  0  0  0  0  0
  -22.7239  -10.2047   20.3072 C   0  0  0  0  0  0
  -21.6798   -6.0677   22.5294 C   0  0  0  0  0  0
  -21.3987   -6.5605   23.8240 C   0  0  0  0  0  0
  -21.3662   -5.6772   24.9216 C   0  0  0  0  0  0
  -21.6024   -4.3043   24.7247 C   0  0  0  0  0  0
  -21.8807   -3.8124   23.4388 C   0  0  0  0  0  0
  -21.9191   -4.6919   22.3431 C   0  0  0  0  0  0
  -22.7701  -13.5048   21.1928 C   0  0  0  0  0  0
  -22.1612   -4.2088   21.0999 F   0  0  0  0  0  0
  -21.5701   -3.4545   25.7788 F   0  0  0  0  0  0
  -29.9775  -13.5765   20.4689 N   0  0  0  0  0  0
  -26.2831  -12.9113   20.3273 N   0  0  0  0  0  0
  -25.9309  -11.6325   20.5952 N   0  0  0  0  0  0
  -22.0328  -12.8029   22.0517 N   0  0  0  0  0  0
  -25.3632  -15.1293   20.3149 N   0  0  0  0  0  0
  -31.6844  -14.9860   20.0451 O   0  0  0  0  0  0
  -21.6609   -6.8802   21.4233 O   0  0  0  0  0  0
  -22.3398  -14.5386   20.6930 O   0  0  0  0  0  0
  -24.6312  -31.8550   23.2004 C   0  0  0  0  0  0
  -25.9118  -32.4761   23.8384 C   0  0  1  0  0  0
  -27.2761  -27.2632   20.1955 C   0  0  0  0  0  0
  -25.5934  -33.8579   24.2289 N   0  0  0  0  0  0
  -23.4381  -30.4736   21.5379 C   0  0  2  0  0  0
  -24.9064  -28.9081   20.1259 C   0  0  0  0  0  0
  -22.7517  -29.4623   22.4864 C   0  0  0  0  0  0
  -18.0282  -28.1382   22.8540 C   0  0  0  0  0  0
  -24.1498  -36.7283   23.2641 C   0  0  0  0  0  0
  -25.9852  -30.7684   21.3905 C   0  0  0  0  0  0
  -26.0708  -29.3916   20.7353 C   0  0  0  0  0  0
  -27.2569  -28.5862   20.7492 C   0  0  0  0  0  0
  -26.0877  -26.8412   19.5526 C   0  0  0  0  0  0
  -24.9209  -27.6399   19.5189 C   0  0  0  0  0  0
  -23.6720  -29.7965   20.1594 C   0  0  0  0  0  0
  -25.4127  -36.3078   24.0324 C   0  0  1  0  0  0
  -20.5911  -28.3712   23.1181 C   0  0  2  0  0  0
  -20.6830  -26.9372   22.5400 C   0  0  0  0  0  0
  -19.5682  -26.6156   21.5374 C   0  0  0  0  0  0
  -18.1919  -26.7783   22.1924 C   0  0  0  0  0  0
  -19.1568  -28.8869   23.2813 C   0  0  0  0  0  0
  -18.9528  -30.1487   23.8790 C   0  0  0  0  0  0
  -17.6552  -30.6591   24.0588 C   0  0  0  0  0  0
  -25.9058  -34.9436   23.5113 C   0  0  0  0  0  0
  -16.5404  -29.9095   23.6421 C   0  0  0  0  0  0
  -16.7296  -28.6487   23.0490 C   0  0  0  0  0  0
  -26.4458  -31.6606   25.0785 C   0  0  0  0  0  0
  -25.3653  -31.3774   26.1489 C   0  0  0  0  0  0
  -27.0339  -30.3010   24.6340 C   0  0  0  0  0  0
  -27.6005  -32.4376   25.7538 C   0  0  0  0  0  0
  -27.5608  -37.1795   24.8467 C   0  0  0  0  0  0
  -21.4237  -29.3018   22.3517 N   0  0  0  0  0  0
  -26.4321  -37.3776   23.9395 N   0  0  0  0  0  0
  -24.7026  -31.0521   22.0958 N   0  0  0  0  0  0
  -23.4186  -28.8235   23.3031 O   0  0  0  0  0  0
  -28.3920  -26.3829   20.2315 O   0  0  0  0  0  0
  -26.5644  -34.8895   22.4681 O   0  0  0  0  0  0
  -23.5455  -32.1394   23.7256 O   0  0  0  0  0  0
  -30.3529  -23.0517   21.0760 C   0  0  0  0  0  0
  -27.9836  -22.3891   20.7568 C   0  0  0  0  0  0
  -30.6679  -21.5206   20.6598 C   0  0  0  0  0  0
  -28.4337  -21.1489   21.6645 C   0  0  0  0  0  0
  -27.9565  -16.2866   22.4591 C   0  0  0  0  0  0
  -29.4038  -15.7826   22.6010 C   0  0  0  0  0  0
  -28.9526  -23.6246   20.5763 C   0  0  1  0  0  0
  -29.8011  -20.4076   21.3897 C   0  0  1  0  0  0
  -27.9604  -17.0801   21.1245 C   0  0  1  0  0  0
  -29.4716  -17.3478   20.8187 C   0  0  1  0  0  0
  -26.7095  -18.5409   18.2609 C   0  0  0  0  0  0
  -31.6637  -18.5427   21.5029 C   0  0  0  0  0  0
  -26.0512  -18.6304   22.0525 C   0  0  0  0  0  0
  -28.3234  -25.0972   21.0278 C   0  0  0  0  0  0
  -27.0949  -19.0634   19.6497 C   0  0  0  0  0  0
  -30.1263  -18.7324   21.5210 C   0  0  1  0  0  0
  -26.7891  -18.0763   20.8086 C   0  0  1  0  0  0
  -29.9588  -15.9174   21.2577 N   0  0  0  0  0  0
  -31.4699  -12.7358   19.1439 H   0  0  0  0  0  0
  -30.5154  -11.5710   19.9863 H   0  0  0  0  0  0
  -29.8348  -11.7478   17.5734 H   0  0  0  0  0  0
  -29.5862  -13.4654   17.7388 H   0  0  0  0  0  0
  -27.9388  -11.2466   18.9948 H   0  0  0  0  0  0
  -27.3940  -12.4164   17.8260 H   0  0  0  0  0  0
  -27.6254  -14.2209   19.4647 H   0  0  0  0  0  0
  -28.3199  -13.6393   21.8573 H   0  0  0  0  0  0
  -28.7524  -12.0804   21.3238 H   0  0  0  0  0  0
  -25.2687   -9.5615   22.4841 H   0  0  0  0  0  0
  -23.9941   -7.4475   22.7421 H   0  0  0  0  0  0
  -21.0877   -8.8750   19.8855 H   0  0  0  0  0  0
  -22.3738  -10.9638   19.6243 H   0  0  0  0  0  0
  -21.1929   -7.6115   23.9735 H   0  0  0  0  0  0
  -21.1481   -6.0500   25.9105 H   0  0  0  0  0  0
  -22.0581   -2.7574   23.2946 H   0  0  0  0  0  0
  -22.3891  -11.9674   22.4902 H   0  0  0  0  0  0
  -21.0880  -13.0916   22.2583 H   0  0  0  0  0  0
  -24.6133  -15.7836   20.4997 H   0  0  0  0  0  0
  -26.1635  -15.5438   19.8599 H   0  0  0  0  0  0
  -26.7221  -32.5432   23.1182 H   0  0  0  0  0  0
  -25.0063  -33.9731   25.0425 H   0  0  0  0  0  0
  -22.7388  -31.2966   21.3763 H   0  0  0  0  0  0
  -23.3778  -35.9616   23.3309 H   0  0  0  0  0  0
  -24.3557  -36.8896   22.2058 H   0  0  0  0  0  0
  -23.7248  -37.6470   23.6668 H   0  0  0  0  0  0
  -26.1466  -31.5340   20.6318 H   0  0  0  0  0  0
  -26.8471  -30.8064   22.0446 H   0  0  0  0  0  0
  -28.1486  -28.9589   21.2328 H   0  0  0  0  0  0
  -26.0670  -25.8625   19.0899 H   0  0  0  0  0  0
  -24.0277  -27.2525   19.0459 H   0  0  0  0  0  0
  -23.8154  -30.5726   19.4061 H   0  0  0  0  0  0
  -22.7924  -29.2354   19.8391 H   0  0  0  0  0  0
  -25.1323  -36.1927   25.0830 H   0  0  0  0  0  0
  -21.0041  -28.3389   24.1289 H   0  0  0  0  0  0
  -21.6658  -26.7508   22.1062 H   0  0  0  0  0  0
  -20.5949  -26.2297   23.3653 H   0  0  0  0  0  0
  -19.6793  -25.5958   21.1697 H   0  0  0  0  0  0
  -19.6502  -27.2710   20.6722 H   0  0  0  0  0  0
  -18.0419  -26.0151   22.9546 H   0  0  0  0  0  0
  -17.4035  -26.6322   21.4543 H   0  0  0  0  0  0
  -19.8060  -30.7293   24.1962 H   0  0  0  0  0  0
  -17.5194  -31.6305   24.5182 H   0  0  0  0  0  0
  -15.5426  -30.3049   23.7821 H   0  0  0  0  0  0
  -15.8682  -28.0834   22.7194 H   0  0  0  0  0  0
  -24.5804  -30.7164   25.7782 H   0  0  0  0  0  0
  -24.8882  -32.2968   26.4911 H   0  0  0  0  0  0
  -25.7926  -30.8918   27.0280 H   0  0  0  0  0  0
  -26.2968  -29.6722   24.1330 H   0  0  0  0  0  0
  -27.3948  -29.7302   25.4911 H   0  0  0  0  0  0
  -27.8888  -30.4250   23.9684 H   0  0  0  0  0  0
  -27.2589  -33.3683   26.2100 H   0  0  0  0  0  0
  -28.3801  -32.6938   25.0343 H   0  0  0  0  0  0
  -28.0713  -31.8529   26.5456 H   0  0  0  0  0  0
  -28.2625  -38.0093   24.7523 H   0  0  0  0  0  0
  -28.1101  -36.2618   24.6301 H   0  0  0  0  0  0
  -27.2314  -37.1472   25.8867 H   0  0  0  0  0  0
  -20.9442  -29.8637   21.6623 H   0  0  0  0  0  0
  -26.0199  -38.2864   24.1354 H   0  0  0  0  0  0
  -30.4359  -23.1490   22.1609 H   0  0  0  0  0  0
  -31.1527  -23.6857   20.6951 H   0  0  0  0  0  0
  -27.0362  -22.7436   21.1620 H   0  0  0  0  0  0
  -27.7348  -22.0429   19.7532 H   0  0  0  0  0  0
  -31.7316  -21.3268   20.8237 H   0  0  0  0  0  0
  -30.5222  -21.4480   19.5859 H   0  0  0  0  0  0
  -27.6354  -20.4400   21.7287 H   0  0  0  0  0  0
  -28.4781  -21.5541   22.6804 H   0  0  0  0  0  0
  -27.6802  -16.8508   23.3520 H   0  0  0  0  0  0
  -27.2478  -15.4625   22.3909 H   0  0  0  0  0  0
  -29.9624  -16.4382   23.2670 H   0  0  0  0  0  0
  -29.5111  -14.7963   23.0652 H   0  0  0  0  0  0
  -29.1094  -23.7422   19.5036 H   0  0  0  0  0  0
  -30.2395  -20.5976   22.3699 H   0  0  0  0  0  0
  -27.7437  -16.3105   20.3864 H   0  0  0  0  0  0
  -29.6064  -17.4128   19.7438 H   0  0  0  0  0  0
  -25.6262  -18.4785   18.1383 H   0  0  0  0  0  0
  -27.1440  -17.5580   18.0754 H   0  0  0  0  0  0
  -27.0814  -19.2220   17.4972 H   0  0  0  0  0  0
  -32.1429  -19.2192   22.2100 H   0  0  0  0  0  0
  -32.0953  -18.7141   20.5117 H   0  0  0  0  0  0
  -31.9553  -17.5362   21.8111 H   0  0  0  0  0  0
  -25.3384  -17.9032   22.4439 H   0  0  0  0  0  0
  -25.4619  -19.5285   21.8452 H   0  0  0  0  0  0
  -26.7453  -18.8445   22.8653 H   0  0  0  0  0  0
  -28.7341  -25.3457   22.0077 H   0  0  0  0  0  0
  -27.2606  -24.9534   21.2393 H   0  0  0  0  0  0
  -28.1563  -19.3019   19.6108 H   0  0  0  0  0  0
  -26.5724  -20.0102   19.7881 H   0  0  0  0  0  0
  -29.8575  -18.5787   22.5657 H   0  0  0  0  0  0
  -25.9753  -17.4990   20.3817 H   0  0  0  0  0  0
  1 25  1  0  0  0
  1 30  2  0  0  0
  1 88  1  0  0  0
  2  3  1  0  0  0
  2 25  1  0  0  0
  2 89  1  0  0  0
  2 90  1  0  0  0
  3  4  1  0  0  0
  3 91  1  0  0  0
  3 92  1  0  0  0
  4  5  1  0  0  0
  4 93  1  0  0  0
  4 94  1  0  0  0
  5  6  1  0  0  0
  5 26  1  0  0  0
  5 95  1  0  0  0
  6 25  1  0  0  0
  6 96  1  0  0  0
  6 97  1  0  0  0
  7  8  2  0  0  0
  7 26  1  0  0  0
  7 29  1  0  0  0
  8  9  1  0  0  0
  8 22  1  0  0  0
  9 10  1  0  0  0
  9 27  2  0  0  0
 10 11  2  0  0  0
 10 15  1  0  0  0
 11 12  1  0  0  0
 11 98  1  0  0  0
 12 13  2  0  0  0
 12 99  1  0  0  0
 13 14  1  0  0  0
 13 31  1  0  0  0
 14 15  2  0  0  0
 14100  1  0  0  0
 15101  1  0  0  0
 16 17  2  0  0  0
 16 21  1  0  0  0
 16 31  1  0  0  0
 17 18  1  0  0  0
 17102  1  0  0  0
 18 19  2  0  0  0
 18103  1  0  0  0
 19 20  1  0  0  0
 19 24  1  0  0  0
 20 21  2  0  0  0
 20104  1  0  0  0
 21 23  1  0  0  0
 22 28  1  0  0  0
 22 32  2  0  0  0
 26 27  1  0  0  0
 28105  1  0  0  0
 28106  1  0  0  0
 29107  1  0  0  0
 29108  1  0  0  0
 33 34  1  0  0  0
 33 66  1  0  0  0
 33 70  2  0  0  0
 34 36  1  0  0  0
 34 59  1  0  0  0
 34109  1  0  0  0
 35 44  2  0  0  0
 35 45  1  0  0  0
 35 68  1  0  0  0
 36 56  1  0  0  0
 36110  1  0  0  0
 37 39  1  0  0  0
 37 47  1  0  0  0
 37 66  1  0  0  0
 37111  1  0  0  0
 38 43  2  0  0  0
 38 46  1  0  0  0
 38 47  1  0  0  0
 39 64  1  0  0  0
 39 67  2  0  0  0
 40 52  1  0  0  0
 40 53  2  0  0  0
 40 58  1  0  0  0
 41112  1  0  0  0
 41113  1  0  0  0
 41114  1  0  0  0
 41 48  1  0  0  0
 42 43  1  0  0  0
 42 66  1  0  0  0
 42115  1  0  0  0
 42116  1  0  0  0
 43 44  1  0  0  0
 44117  1  0  0  0
 45 46  2  0  0  0
 45118  1  0  0  0
 46119  1  0  0  0
 47120  1  0  0  0
 47121  1  0  0  0
 48 56  1  0  0  0
 48 65  1  0  0  0
 48122  1  0  0  0
 49 50  1  0  0  0
 49 53  1  0  0  0
 49 64  1  0  0  0
 49123  1  0  0  0
 50 51  1  0  0  0
 50124  1  0  0  0
 50125  1  0  0  0
 51 52  1  0  0  0
 51126  1  0  0  0
 51127  1  0  0  0
 52128  1  0  0  0
 52129  1  0  0  0
 53 54  1  0  0  0
 54 55  2  0  0  0
 54130  1  0  0  0
 55 57  1  0  0  0
 55131  1  0  0  0
 56 69  2  0  0  0
 57 58  2  0  0  0
 57132  1  0  0  0
 58133  1  0  0  0
 59 60  1  0  0  0
 59 61  1  0  0  0
 59 62  1  0  0  0
 60134  1  0  0  0
 60135  1  0  0  0
 60136  1  0  0  0
 61137  1  0  0  0
 61138  1  0  0  0
 61139  1  0  0  0
 62140  1  0  0  0
 62141  1  0  0  0
 62142  1  0  0  0
 63 65  1  0  0  0
 63143  1  0  0  0
 63144  1  0  0  0
 63145  1  0  0  0
 64146  1  0  0  0
 65147  1  0  0  0
 68 84  1  0  0  0
 71 73  1  0  0  0
 71 77  1  0  0  0
 71148  1  0  0  0
 71149  1  0  0  0
 72 74  1  0  0  0
 72 77  1  0  0  0
 72150  1  0  0  0
 72151  1  0  0  0
 73152  1  0  0  0
 73153  1  0  0  0
 73 78  1  0  0  0
 74 78  1  0  0  0
 74154  1  0  0  0
 74155  1  0  0  0
 75 76  1  0  0  0
 75156  1  0  0  0
 75157  1  0  0  0
 75 79  1  0  0  0
 76 88  1  0  0  0
 76158  1  0  0  0
 76159  1  0  0  0
 77 84  1  0  0  0
 77160  1  0  0  0
 78 86  1  0  0  0
 78161  1  0  0  0
 79 80  1  0  0  0
 79 87  1  0  0  0
 79162  1  0  0  0
 80 86  1  0  0  0
 80 88  1  0  0  0
 80163  1  0  0  0
 81 85  1  0  0  0
 81164  1  0  0  0
 81165  1  0  0  0
 81166  1  0  0  0
 82167  1  0  0  0
 82168  1  0  0  0
 82169  1  0  0  0
 82 86  1  0  0  0
 83170  1  0  0  0
 83171  1  0  0  0
 83172  1  0  0  0
 83 87  1  0  0  0
 84173  1  0  0  0
 84174  1  0  0  0
 85 87  1  0  0  0
 85175  1  0  0  0
 85176  1  0  0  0
 86177  1  0  0  0
 87178  1  0  0  0
M  ISO  4   1 100  68 101  84 101  88 100
M  END
> <chiral flag>
0

> <version>
0

> <s_m_source_file>
/data/baiqing/PycharmProjects/Reinvent-master-3.2/result/LINK_invent/BTK/process_docking_weight1_custom_sum_contain_oxygen_bond_distance_aromatic_linkinvent_7_9_3/rearranged_h_0121.sdf

> <i_m_source_file_index>
6

> <r_mmod_Potential_Energy-OPLS-2005>
947.59423828125

> <r_mmod_Stretch_Energy-OPLS-2005>
223.283004760742

> <r_mmod_Bend_Energy-OPLS-2005>
435.312194824219

> <r_mmod_Torsional_Energy-OPLS-2005>
485.445251464844

> <r_mmod_Improper_Torsional_Energy-OPLS-2005>
3.24554991722107

> <r_mmod_Van_der_Waal_Energy-OPLS-2005>
139.775451660156

> <r_mmod_Electrostatic_Energy-OPLS-2005>
-282.599884033203

> <r_mmod_Solvation_Energy-OPLS-2005>
-166.894638061523

> <b_mmod_Minimization_Converged-OPLS-2005>
0

> <r_mmod_RMS_Derivative-OPLS-2005>
9.87930965423584

$$$$
6
                    3D
 Structure written by MMmdl.
174182  0  0  1  0            999 V2000
  -30.7943  -14.3384   20.7257 C   0  0  0  0  0  0
  -30.4122  -12.3007   19.3867 C   0  0  0  0  0  0
  -29.4768  -12.5373   18.1884 C   0  0  0  0  0  0
  -28.0052  -12.3802   18.6098 C   0  0  0  0  0  0
  -27.6636  -13.2046   19.8774 C   0  0  2  0  0  0
  -28.7008  -12.9564   20.9944 C   0  0  0  0  0  0
  -25.2592  -13.8161   20.5680 C   0  0  0  0  0  0
  -24.1837  -13.0441   20.9171 C   0  0  0  0  0  0
  -24.6383  -11.6907   20.8728 C   0  0  0  0  0  0
  -23.9050  -10.4292   21.0403 C   0  0  0  0  0  0
  -24.3609   -9.4211   21.9180 C   0  0  0  0  0  0
  -23.6288   -8.2245   22.0751 C   0  0  0  0  0  0
  -22.4269   -8.0278   21.3541 C   0  0  0  0  0  0
  -21.9902   -9.0252   20.4645 C   0  0  0  0  0  0
  -22.7225  -10.2132   20.3050 C   0  0  0  0  0  0
  -21.6850   -6.0734   22.5278 C   0  0  0  0  0  0
  -21.4017   -6.5642   23.8212 C   0  0  0  0  0  0
  -21.3660   -5.6792   24.9175 C   0  0  0  0  0  0
  -21.6041   -4.3054   24.7226 C   0  0  0  0  0  0
  -21.8819   -3.8146   23.4348 C   0  0  0  0  0  0
  -21.9195   -4.6963   22.3402 C   0  0  0  0  0  0
  -22.7858  -13.5242   21.1837 C   0  0  0  0  0  0
  -22.1660   -4.2150   21.0980 F   0  0  0  0  0  0
  -21.5628   -3.4537   25.7739 F   0  0  0  0  0  0
  -30.0474  -13.2367   20.4598 N   0  0  0  0  0  0
  -26.3028  -12.9329   20.3372 N   0  0  0  0  0  0
  -25.9308  -11.6489   20.5755 N   0  0  0  0  0  0
  -22.0502  -12.8233   22.0399 N   0  0  0  0  0  0
  -25.4336  -15.1878   20.4095 N   0  0  0  0  0  0
  -31.7749  -14.6741   20.0536 O   0  0  0  0  0  0
  -21.6635   -6.8875   21.4237 O   0  0  0  0  0  0
  -22.3547  -14.5552   20.6695 O   0  0  0  0  0  0
  -24.6136  -31.8700   23.2138 C   0  0  0  0  0  0
  -25.9045  -32.4830   23.8415 C   0  0  1  0  0  0
  -27.2276  -27.4568   20.0793 C   0  0  0  0  0  0
  -25.5919  -33.8625   24.2351 N   0  0  0  0  0  0
  -23.3979  -30.4979   21.5554 C   0  0  2  0  0  0
  -24.8390  -28.9690   20.1153 C   0  0  0  0  0  0
  -22.7391  -29.4674   22.5010 C   0  0  0  0  0  0
  -18.0275  -28.1375   22.8504 C   0  0  0  0  0  0
  -24.1484  -36.7300   23.2643 C   0  0  0  0  0  0
  -25.9264  -30.8409   21.3640 C   0  0  0  0  0  0
  -26.0013  -29.4794   20.7064 C   0  0  0  0  0  0
  -27.1996  -28.7326   20.6831 C   0  0  0  0  0  0
  -26.0435  -26.9571   19.4857 C   0  0  0  0  0  0
  -24.8540  -27.7052   19.5035 C   0  0  0  0  0  0
  -23.6028  -29.8366   20.1680 C   0  0  0  0  0  0
  -25.4105  -36.3108   24.0351 C   0  0  1  0  0  0
  -20.5861  -28.3637   23.1336 C   0  0  2  0  0  0
  -20.6759  -26.9380   22.5419 C   0  0  0  0  0  0
  -19.5742  -26.6387   21.5207 C   0  0  0  0  0  0
  -18.1922  -26.7928   22.1624 C   0  0  0  0  0  0
  -19.1524  -28.8826   23.2920 C   0  0  0  0  0  0
  -18.9455  -30.1443   23.8912 C   0  0  0  0  0  0
  -17.6459  -30.6583   24.0573 C   0  0  0  0  0  0
  -25.9042  -34.9475   23.5142 C   0  0  0  0  0  0
  -16.5350  -29.9086   23.6337 C   0  0  0  0  0  0
  -16.7265  -28.6504   23.0354 C   0  0  0  0  0  0
  -26.4478  -31.6605   25.0730 C   0  0  0  0  0  0
  -25.3760  -31.3706   26.1493 C   0  0  0  0  0  0
  -27.0307  -30.3061   24.6076 C   0  0  0  0  0  0
  -27.6061  -32.4314   25.7485 C   0  0  0  0  0  0
  -27.5577  -37.1803   24.8474 C   0  0  0  0  0  0
  -21.4122  -29.3023   22.3756 N   0  0  0  0  0  0
  -26.4287  -37.3796   23.9419 N   0  0  0  0  0  0
  -24.6639  -31.0828   22.1023 N   0  0  0  0  0  0
  -23.4169  -28.8210   23.3044 O   0  0  0  0  0  0
  -28.4065  -26.7426   20.0821 O   0  0  0  0  0  0
  -26.5580  -34.8916   22.4689 O   0  0  0  0  0  0
  -23.5340  -32.1452   23.7556 O   0  0  0  0  0  0
  -29.0837  -22.7768   22.0737 C   0  0  0  0  0  0
  -29.3847  -21.5645   25.4624 C   0  0  0  0  0  0
  -29.8759  -20.1497   25.8012 C   0  0  0  0  0  0
  -30.1809  -22.1959   24.3090 C   0  0  0  0  0  0
  -29.3715  -19.0421   24.8614 C   0  0  0  0  0  0
  -29.0946  -20.3476   22.7641 C   0  0  0  0  0  0
  -29.8482  -21.7019   22.8711 C   0  0  1  0  0  0
  -30.7720  -22.4122   20.1116 C   0  0  0  0  0  0
  -31.0537  -17.4072   22.2369 C   0  0  0  0  0  0
  -29.6135  -24.6505   20.3946 C   0  0  0  0  0  0
  -31.3351  -15.9272   22.5694 C   0  0  0  0  0  0
  -29.6698  -17.9211   22.6885 C   0  0  0  0  0  0
  -28.2809  -25.3220   20.0286 C   0  0  0  0  0  0
  -29.4978  -23.1178   20.6222 C   0  0  2  0  0  0
  -28.0856  -23.3487   22.6024 N   0  0  0  0  0  0
  -30.4780  -14.9722   21.8628 N   0  0  0  0  0  0
  -29.7802  -19.2080   23.4390 N   0  3  2  0  0  0
  -31.4537  -12.4081   19.0777 H   0  0  0  0  0  0
  -30.3165  -11.2759   19.7481 H   0  0  0  0  0  0
  -29.7114  -11.8409   17.3822 H   0  0  0  0  0  0
  -29.6384  -13.5392   17.7873 H   0  0  0  0  0  0
  -27.8207  -11.3214   18.7944 H   0  0  0  0  0  0
  -27.3458  -12.6657   17.7895 H   0  0  0  0  0  0
  -27.7195  -14.2578   19.6012 H   0  0  0  0  0  0
  -28.6592  -11.9179   21.3265 H   0  0  0  0  0  0
  -28.4426  -13.5524   21.8698 H   0  0  0  0  0  0
  -25.2758   -9.5691   22.4752 H   0  0  0  0  0  0
  -24.0002   -7.4638   22.7468 H   0  0  0  0  0  0
  -21.0834   -8.8766   19.8954 H   0  0  0  0  0  0
  -22.3680  -10.9669   19.6159 H   0  0  0  0  0  0
  -21.2007   -7.6151   23.9716 H   0  0  0  0  0  0
  -21.1481   -6.0523   25.9077 H   0  0  0  0  0  0
  -22.0597   -2.7610   23.2844 H   0  0  0  0  0  0
  -22.4110  -11.9883   22.4772 H   0  0  0  0  0  0
  -21.1123  -13.1264   22.2612 H   0  0  0  0  0  0
  -24.6703  -15.8477   20.5114 H   0  0  0  0  0  0
  -26.2938  -15.6219   20.0979 H   0  0  0  0  0  0
  -26.7106  -32.5531   23.1169 H   0  0  0  0  0  0
  -25.0118  -33.9794   25.0529 H   0  0  0  0  0  0
  -22.6867  -31.3160   21.4235 H   0  0  0  0  0  0
  -23.3748  -35.9634   23.3330 H   0  0  0  0  0  0
  -24.3594  -36.8881   22.2054 H   0  0  0  0  0  0
  -23.7228  -37.6514   23.6630 H   0  0  0  0  0  0
  -26.0449  -31.6113   20.6012 H   0  0  0  0  0  0
  -26.8128  -30.8860   21.9851 H   0  0  0  0  0  0
  -28.0986  -29.1263   21.1375 H   0  0  0  0  0  0
  -26.0180  -25.9962   18.9936 H   0  0  0  0  0  0
  -23.9607  -27.3090   19.0403 H   0  0  0  0  0  0
  -23.7104  -30.6163   19.4129 H   0  0  0  0  0  0
  -22.7235  -29.2623   19.8712 H   0  0  0  0  0  0
  -25.1281  -36.1979   25.0846 H   0  0  0  0  0  0
  -20.9958  -28.3183   24.1456 H   0  0  0  0  0  0
  -20.5660  -26.2232   23.3592 H   0  0  0  0  0  0
  -21.6629  -26.7430   22.1210 H   0  0  0  0  0  0
  -19.6894  -25.6302   21.1218 H   0  0  0  0  0  0
  -19.6688  -27.3213   20.6749 H   0  0  0  0  0  0
  -17.4190  -26.6692   21.4025 H   0  0  0  0  0  0
  -18.0326  -26.0061   22.9014 H   0  0  0  0  0  0
  -19.7933  -30.7269   24.2255 H   0  0  0  0  0  0
  -17.5018  -31.6262   24.5179 H   0  0  0  0  0  0
  -15.5352  -30.2997   23.7648 H   0  0  0  0  0  0
  -15.8669  -28.0836   22.7040 H   0  0  0  0  0  0
  -24.5917  -30.7065   25.7848 H   0  0  0  0  0  0
  -24.8970  -32.2857   26.4977 H   0  0  0  0  0  0
  -25.8136  -30.8859   27.0230 H   0  0  0  0  0  0
  -26.2835  -29.6817   24.1158 H   0  0  0  0  0  0
  -27.4144  -29.7300   25.4508 H   0  0  0  0  0  0
  -27.8649  -30.4429   23.9189 H   0  0  0  0  0  0
  -27.2695  -33.3602   26.2105 H   0  0  0  0  0  0
  -28.3845  -32.6886   25.0290 H   0  0  0  0  0  0
  -28.0755  -31.8407   26.5366 H   0  0  0  0  0  0
  -28.2607  -38.0087   24.7511 H   0  0  0  0  0  0
  -28.1053  -36.2615   24.6310 H   0  0  0  0  0  0
  -27.2303  -37.1476   25.8880 H   0  0  0  0  0  0
  -20.9260  -29.8757   21.7005 H   0  0  0  0  0  0
  -26.0181  -38.2881   24.1406 H   0  0  0  0  0  0
  -29.5315  -22.1876   26.3463 H   0  0  0  0  0  0
  -28.3110  -21.5833   25.2718 H   0  0  0  0  0  0
  -29.5348  -19.9053   26.8084 H   0  0  0  0  0  0
  -30.9652  -20.1316   25.8585 H   0  0  0  0  0  0
  -31.2438  -22.0365   24.4969 H   0  0  0  0  0  0
  -30.0807  -23.2812   24.3730 H   0  0  0  0  0  0
  -28.2875  -18.9453   24.9309 H   0  0  0  0  0  0
  -29.7804  -18.1032   25.2392 H   0  0  0  0  0  0
  -28.9958  -20.1342   21.6987 H   0  0  0  0  0  0
  -28.0699  -20.4357   23.1291 H   0  0  0  0  0  0
  -30.8246  -21.5530   22.4189 H   0  0  0  0  0  0
  -30.6979  -21.3270   20.1856 H   0  0  0  0  0  0
  -31.6613  -22.7387   20.6529 H   0  0  0  0  0  0
  -30.9379  -22.6327   19.0569 H   0  0  0  0  0  0
  -31.1811  -17.5819   21.1672 H   0  0  0  0  0  0
  -31.8365  -17.9980   22.7147 H   0  0  0  0  0  0
  -30.0448  -25.1271   21.2762 H   0  0  0  0  0  0
  -30.3082  -24.8560   19.5791 H   0  0  0  0  0  0
  -31.2148  -15.7635   23.6412 H   0  0  0  0  0  0
  -32.3840  -15.7051   22.3613 H   0  0  0  0  0  0
  -29.1714  -17.1659   23.2985 H   0  0  0  0  0  0
  -29.0237  -18.0078   21.8142 H   0  0  0  0  0  0
  -27.4936  -25.0051   20.7126 H   0  0  0  0  0  0
  -27.9872  -25.0017   19.0283 H   0  0  0  0  0  0
  -28.6905  -22.7516   19.9855 H   0  0  0  0  0  0
  -27.9247  -23.0328   23.5516 H   0  0  0  0  0  0
  -29.6842  -14.6007   22.3655 H   0  0  0  0  0  0
  -30.7654  -19.4219   23.4411 H   0  0  0  0  0  0
  1 25  1  0  0  0
  1 30  2  0  0  0
  1 86  1  0  0  0
  2  3  1  0  0  0
  2 25  1  0  0  0
  2 88  1  0  0  0
  2 89  1  0  0  0
  3  4  1  0  0  0
  3 90  1  0  0  0
  3 91  1  0  0  0
  4  5  1  0  0  0
  4 92  1  0  0  0
  4 93  1  0  0  0
  5  6  1  0  0  0
  5 26  1  0  0  0
  5 94  1  0  0  0
  6 25  1  0  0  0
  6 95  1  0  0  0
  6 96  1  0  0  0
  7  8  2  0  0  0
  7 26  1  0  0  0
  7 29  1  0  0  0
  8  9  1  0  0  0
  8 22  1  0  0  0
  9 10  1  0  0  0
  9 27  2  0  0  0
 10 11  2  0  0  0
 10 15  1  0  0  0
 11 12  1  0  0  0
 11 97  1  0  0  0
 12 13  2  0  0  0
 12 98  1  0  0  0
 13 14  1  0  0  0
 13 31  1  0  0  0
 14 15  2  0  0  0
 14 99  1  0  0  0
 15100  1  0  0  0
 16 17  2  0  0  0
 16 21  1  0  0  0
 16 31  1  0  0  0
 17 18  1  0  0  0
 17101  1  0  0  0
 18 19  2  0  0  0
 18102  1  0  0  0
 19 20  1  0  0  0
 19 24  1  0  0  0
 20 21  2  0  0  0
 20103  1  0  0  0
 21 23  1  0  0  0
 22 28  1  0  0  0
 22 32  2  0  0  0
 26 27  1  0  0  0
 28104  1  0  0  0
 28105  1  0  0  0
 29106  1  0  0  0
 29107  1  0  0  0
 33 34  1  0  0  0
 33 66  1  0  0  0
 33 70  2  0  0  0
 34 36  1  0  0  0
 34 59  1  0  0  0
 34108  1  0  0  0
 35 44  2  0  0  0
 35 45  1  0  0  0
 35 68  1  0  0  0
 36 56  1  0  0  0
 36109  1  0  0  0
 37 39  1  0  0  0
 37 47  1  0  0  0
 37 66  1  0  0  0
 37110  1  0  0  0
 38 43  2  0  0  0
 38 46  1  0  0  0
 38 47  1  0  0  0
 39 64  1  0  0  0
 39 67  2  0  0  0
 40 52  1  0  0  0
 40 53  2  0  0  0
 40 58  1  0  0  0
 41111  1  0  0  0
 41112  1  0  0  0
 41113  1  0  0  0
 41 48  1  0  0  0
 42 43  1  0  0  0
 42 66  1  0  0  0
 42114  1  0  0  0
 42115  1  0  0  0
 43 44  1  0  0  0
 44116  1  0  0  0
 45 46  2  0  0  0
 45117  1  0  0  0
 46118  1  0  0  0
 47119  1  0  0  0
 47120  1  0  0  0
 48 56  1  0  0  0
 48 65  1  0  0  0
 48121  1  0  0  0
 49 50  1  0  0  0
 49 53  1  0  0  0
 49 64  1  0  0  0
 49122  1  0  0  0
 50 51  1  0  0  0
 50123  1  0  0  0
 50124  1  0  0  0
 51 52  1  0  0  0
 51125  1  0  0  0
 51126  1  0  0  0
 52127  1  0  0  0
 52128  1  0  0  0
 53 54  1  0  0  0
 54 55  2  0  0  0
 54129  1  0  0  0
 55 57  1  0  0  0
 55130  1  0  0  0
 56 69  2  0  0  0
 57 58  2  0  0  0
 57131  1  0  0  0
 58132  1  0  0  0
 59 60  1  0  0  0
 59 61  1  0  0  0
 59 62  1  0  0  0
 60133  1  0  0  0
 60134  1  0  0  0
 60135  1  0  0  0
 61136  1  0  0  0
 61137  1  0  0  0
 61138  1  0  0  0
 62139  1  0  0  0
 62140  1  0  0  0
 62141  1  0  0  0
 63 65  1  0  0  0
 63142  1  0  0  0
 63143  1  0  0  0
 63144  1  0  0  0
 64145  1  0  0  0
 65146  1  0  0  0
 68 83  1  0  0  0
 71 84  1  0  0  0
 71 85  2  0  0  0
 71 77  1  0  0  0
 72 73  1  0  0  0
 72 74  1  0  0  0
 72147  1  0  0  0
 72148  1  0  0  0
 73 75  1  0  0  0
 73149  1  0  0  0
 73150  1  0  0  0
 74 77  1  0  0  0
 74151  1  0  0  0
 74152  1  0  0  0
 75 87  1  0  0  0
 75153  1  0  0  0
 75154  1  0  0  0
 76 77  1  0  0  0
 76 87  1  0  0  0
 76155  1  0  0  0
 76156  1  0  0  0
 77157  1  0  0  0
 78158  1  0  0  0
 78159  1  0  0  0
 78160  1  0  0  0
 78 84  1  0  0  0
 79 81  1  0  0  0
 79 82  1  0  0  0
 79161  1  0  0  0
 79162  1  0  0  0
 80 83  1  0  0  0
 80 84  1  0  0  0
 80163  1  0  0  0
 80164  1  0  0  0
 81 86  1  0  0  0
 81165  1  0  0  0
 81166  1  0  0  0
 82167  1  0  0  0
 82168  1  0  0  0
 82 87  1  0  0  0
 83169  1  0  0  0
 83170  1  0  0  0
 84171  1  0  0  0
 85172  1  0  0  0
 86173  1  0  0  0
 87174  1  0  0  0
M  CHG  1  87   1
M  ISO  4   1 100  68 101  83 101  86 100
M  END
> <chiral flag>
0

> <version>
0

> <s_m_source_file>
/data/baiqing/PycharmProjects/Reinvent-master-3.2/result/LINK_invent/BTK/process_docking_weight1_custom_sum_contain_oxygen_bond_distance_aromatic_linkinvent_7_9_3/rearranged_h_0121.sdf

> <i_m_source_file_index>
7

> <r_mmod_Potential_Energy-OPLS-2005>
-86.0861358642578

> <r_mmod_Stretch_Energy-OPLS-2005>
37.5743141174316

> <r_mmod_Bend_Energy-OPLS-2005>
109.823287963867

> <r_mmod_Torsional_Energy-OPLS-2005>
290.619293212891

> <r_mmod_Improper_Torsional_Energy-OPLS-2005>
3.29929614067078

> <r_mmod_Van_der_Waal_Energy-OPLS-2005>
160.762634277344

> <r_mmod_Electrostatic_Energy-OPLS-2005>
-231.928405761719

> <r_mmod_Solvation_Energy-OPLS-2005>
-464.520690917969

> <b_mmod_Minimization_Converged-OPLS-2005>
0

> <r_mmod_RMS_Derivative-OPLS-2005>
1.52019071578979

$$$$
7
                    3D
 Structure written by MMmdl.
166175  0  0  1  0            999 V2000
  -30.7125  -14.6121   20.5045 C   0  0  0  0  0  0
  -30.4192  -12.3950   19.4341 C   0  0  0  0  0  0
  -29.4908  -12.5338   18.2093 C   0  0  0  0  0  0
  -28.0147  -12.3922   18.6280 C   0  0  0  0  0  0
  -27.6598  -13.2366   19.8777 C   0  0  2  0  0  0
  -28.7200  -13.1157   20.9954 C   0  0  0  0  0  0
  -25.2585  -13.7955   20.5615 C   0  0  0  0  0  0
  -24.1777  -13.0303   20.9105 C   0  0  0  0  0  0
  -24.6458  -11.6845   20.8743 C   0  0  0  0  0  0
  -23.9120  -10.4248   21.0430 C   0  0  0  0  0  0
  -24.3626   -9.4212   21.9262 C   0  0  0  0  0  0
  -23.6311   -8.2245   22.0784 C   0  0  0  0  0  0
  -22.4321   -8.0309   21.3541 C   0  0  0  0  0  0
  -22.0017   -9.0250   20.4588 C   0  0  0  0  0  0
  -22.7362  -10.2119   20.2992 C   0  0  0  0  0  0
  -21.6833   -6.0803   22.5260 C   0  0  0  0  0  0
  -21.3984   -6.5683   23.8218 C   0  0  0  0  0  0
  -21.3653   -5.6832   24.9168 C   0  0  0  0  0  0
  -21.6024   -4.3087   24.7214 C   0  0  0  0  0  0
  -21.8827   -3.8222   23.4307 C   0  0  0  0  0  0
  -21.9190   -4.7045   22.3394 C   0  0  0  0  0  0
  -22.7815  -13.5162   21.1684 C   0  0  0  0  0  0
  -22.1673   -4.2261   21.0961 F   0  0  0  0  0  0
  -21.5626   -3.4542   25.7691 F   0  0  0  0  0  0
  -30.0326  -13.4295   20.4141 N   0  0  0  0  0  0
  -26.3088  -12.9281   20.3499 N   0  0  0  0  0  0
  -25.9435  -11.6445   20.5946 N   0  0  0  0  0  0
  -22.0410  -12.7935   22.0066 N   0  0  0  0  0  0
  -25.4426  -15.1429   20.3847 N   0  0  0  0  0  0
  -31.8639  -14.7309   20.0890 O   0  0  0  0  0  0
  -21.6617   -6.8956   21.4262 O   0  0  0  0  0  0
  -22.3549  -14.5533   20.6701 O   0  0  0  0  0  0
  -24.6090  -31.8645   23.2229 C   0  0  0  0  0  0
  -25.8970  -32.4819   23.8513 C   0  0  1  0  0  0
  -27.2590  -27.4645   20.0549 C   0  0  0  0  0  0
  -25.5776  -33.8647   24.2358 N   0  0  0  0  0  0
  -23.3982  -30.4865   21.5615 C   0  0  2  0  0  0
  -24.8480  -28.9619   20.1057 C   0  0  0  0  0  0
  -22.7402  -29.4588   22.5092 C   0  0  0  0  0  0
  -18.0253  -28.1387   22.8489 C   0  0  0  0  0  0
  -24.1465  -36.7367   23.2663 C   0  0  0  0  0  0
  -25.9227  -30.8381   21.3733 C   0  0  0  0  0  0
  -26.0021  -29.4767   20.7063 C   0  0  0  0  0  0
  -27.1989  -28.7260   20.6909 C   0  0  0  0  0  0
  -26.0907  -26.9673   19.4346 C   0  0  0  0  0  0
  -24.8863  -27.7045   19.4732 C   0  0  0  0  0  0
  -23.6033  -29.8271   20.1702 C   0  0  0  0  0  0
  -25.4079  -36.3131   24.0363 C   0  0  1  0  0  0
  -20.5837  -28.3636   23.1376 C   0  0  2  0  0  0
  -20.6739  -26.9373   22.5496 C   0  0  0  0  0  0
  -19.5738  -26.6373   21.5271 C   0  0  0  0  0  0
  -18.1895  -26.7931   22.1662 C   0  0  0  0  0  0
  -19.1500  -28.8851   23.2898 C   0  0  0  0  0  0
  -18.9427  -30.1468   23.8874 C   0  0  0  0  0  0
  -17.6429  -30.6578   24.0575 C   0  0  0  0  0  0
  -25.9010  -34.9495   23.5186 C   0  0  0  0  0  0
  -16.5315  -29.9075   23.6333 C   0  0  0  0  0  0
  -16.7250  -28.6518   23.0301 C   0  0  0  0  0  0
  -26.4454  -31.6645   25.0868 C   0  0  0  0  0  0
  -25.3754  -31.3719   26.1651 C   0  0  0  0  0  0
  -27.0368  -30.3107   24.6300 C   0  0  0  0  0  0
  -27.6075  -32.4407   25.7503 C   0  0  0  0  0  0
  -27.5579  -37.1847   24.8452 C   0  0  0  0  0  0
  -21.4155  -29.2958   22.3785 N   0  0  0  0  0  0
  -26.4270  -37.3802   23.9428 N   0  0  0  0  0  0
  -24.6596  -31.0773   22.1104 N   0  0  0  0  0  0
  -23.4146  -28.8162   23.3176 O   0  0  0  0  0  0
  -28.4367  -26.7465   20.1536 O   0  0  0  0  0  0
  -26.5640  -34.8924   22.4793 O   0  0  0  0  0  0
  -23.5294  -32.1386   23.7661 O   0  0  0  0  0  0
  -28.2301  -19.7247   18.9810 C   0  0  0  0  0  0
  -26.9892  -19.1510   19.2621 C   0  0  0  0  0  0
  -29.3709  -19.2646   19.6782 C   0  0  0  0  0  0
  -26.9410  -18.1708   20.2586 C   0  0  0  0  0  0
  -29.2483  -18.0328   20.3806 C   0  0  0  0  0  0
  -29.8717  -22.5572   19.8534 C   0  0  0  0  0  0
  -28.2948  -24.4531   18.9130 C   0  0  0  0  0  0
  -29.7084  -23.8496   19.0235 C   0  0  1  0  0  0
  -30.1388  -25.1153   19.7560 C   0  0  2  0  0  0
  -28.9192  -25.8579   19.1346 C   0  0  2  0  0  0
  -25.6636  -17.9539   21.0266 C   0  0  0  0  0  0
  -31.5930  -25.5009   19.5068 C   0  0  0  0  0  0
  -30.6300  -20.1353   19.7322 C   0  0  0  0  0  0
  -30.4292  -17.1380   20.7844 C   0  0  0  0  0  0
  -28.0365  -17.5295   20.7112 N   0  0  0  0  0  0
  -30.4284  -21.5052   19.2236 N   0  0  0  0  0  0
  -30.0218  -15.7100   20.8919 N   0  0  0  0  0  0
  -29.5216  -22.5230   21.0380 O   0  0  0  0  0  0
  -31.4664  -12.4760   19.1390 H   0  0  0  0  0  0
  -30.3085  -11.4082   19.8796 H   0  0  0  0  0  0
  -29.7367  -11.7741   17.4618 H   0  0  0  0  0  0
  -29.6515  -13.5050   17.7412 H   0  0  0  0  0  0
  -27.8165  -11.3365   18.8106 H   0  0  0  0  0  0
  -27.3673  -12.6812   17.8028 H   0  0  0  0  0  0
  -27.6747  -14.2770   19.5407 H   0  0  0  0  0  0
  -28.7283  -12.1086   21.4088 H   0  0  0  0  0  0
  -28.4867  -13.7768   21.8319 H   0  0  0  0  0  0
  -25.2733   -9.5731   22.4893 H   0  0  0  0  0  0
  -23.9977   -7.4645   22.7511 H   0  0  0  0  0  0
  -21.0973   -8.8756   19.8832 H   0  0  0  0  0  0
  -22.3908  -10.9618   19.6010 H   0  0  0  0  0  0
  -21.1946   -7.6193   23.9710 H   0  0  0  0  0  0
  -21.1455   -6.0579   25.9064 H   0  0  0  0  0  0
  -22.0604   -2.7685   23.2758 H   0  0  0  0  0  0
  -22.3944  -11.9353   22.4051 H   0  0  0  0  0  0
  -21.1007  -13.0846   22.2287 H   0  0  0  0  0  0
  -24.7155  -15.8335   20.5358 H   0  0  0  0  0  0
  -26.3645  -15.5499   20.2436 H   0  0  0  0  0  0
  -26.7075  -32.5517   23.1314 H   0  0  0  0  0  0
  -24.9695  -33.9806   25.0333 H   0  0  0  0  0  0
  -22.6832  -31.3011   21.4341 H   0  0  0  0  0  0
  -23.3690  -35.9734   23.3313 H   0  0  0  0  0  0
  -24.3574  -36.8986   22.2084 H   0  0  0  0  0  0
  -23.7266  -37.6605   23.6672 H   0  0  0  0  0  0
  -26.0348  -31.6220   20.6222 H   0  0  0  0  0  0
  -26.8084  -30.8833   21.9969 H   0  0  0  0  0  0
  -28.0877  -29.1153   21.1655 H   0  0  0  0  0  0
  -26.1002  -26.0082   18.9430 H   0  0  0  0  0  0
  -23.9972  -27.3099   18.9981 H   0  0  0  0  0  0
  -23.6918  -30.6127   19.4145 H   0  0  0  0  0  0
  -22.7251  -29.2424   19.8861 H   0  0  0  0  0  0
  -25.1237  -36.2015   25.0852 H   0  0  0  0  0  0
  -20.9896  -28.3179   24.1510 H   0  0  0  0  0  0
  -20.5657  -26.2225   23.3670 H   0  0  0  0  0  0
  -21.6596  -26.7403   22.1284 H   0  0  0  0  0  0
  -19.6901  -25.6288   21.1276 H   0  0  0  0  0  0
  -19.6705  -27.3207   20.6811 H   0  0  0  0  0  0
  -17.4190  -26.6684   21.4031 H   0  0  0  0  0  0
  -18.0247  -26.0074   22.9058 H   0  0  0  0  0  0
  -19.7880  -30.7324   24.2175 H   0  0  0  0  0  0
  -17.4961  -31.6248   24.5199 H   0  0  0  0  0  0
  -15.5311  -30.2978   23.7688 H   0  0  0  0  0  0
  -15.8638  -28.0895   22.6941 H   0  0  0  0  0  0
  -24.5987  -30.6962   25.8036 H   0  0  0  0  0  0
  -24.8865  -32.2833   26.5105 H   0  0  0  0  0  0
  -25.8148  -30.8978   27.0432 H   0  0  0  0  0  0
  -26.2966  -29.6756   24.1409 H   0  0  0  0  0  0
  -27.4187  -29.7453   25.4812 H   0  0  0  0  0  0
  -27.8759  -30.4486   23.9471 H   0  0  0  0  0  0
  -27.2754  -33.3749   26.2041 H   0  0  0  0  0  0
  -28.3801  -32.6864   25.0202 H   0  0  0  0  0  0
  -28.0842  -31.8592   26.5402 H   0  0  0  0  0  0
  -28.2554  -38.0165   24.7410 H   0  0  0  0  0  0
  -28.1066  -36.2676   24.6275 H   0  0  0  0  0  0
  -27.2315  -37.1533   25.8858 H   0  0  0  0  0  0
  -20.9370  -29.8608   21.6922 H   0  0  0  0  0  0
  -26.0149  -38.2874   24.1425 H   0  0  0  0  0  0
  -28.2638  -20.5651   18.3029 H   0  0  0  0  0  0
  -26.0824  -19.5553   18.8291 H   0  0  0  0  0  0
  -27.6179  -24.1274   19.7048 H   0  0  0  0  0  0
  -27.8625  -24.2692   17.9248 H   0  0  0  0  0  0
  -30.2502  -23.8235   18.0751 H   0  0  0  0  0  0
  -29.9624  -24.9873   20.8252 H   0  0  0  0  0  0
  -29.1720  -26.3850   18.2133 H   0  0  0  0  0  0
  -25.3992  -18.9044   21.4810 H   0  0  0  0  0  0
  -25.8175  -17.2567   21.8513 H   0  0  0  0  0  0
  -24.8384  -17.6211   20.3984 H   0  0  0  0  0  0
  -31.7573  -25.8048   18.4759 H   0  0  0  0  0  0
  -32.2274  -24.6264   19.6617 H   0  0  0  0  0  0
  -31.9611  -26.2800   20.1714 H   0  0  0  0  0  0
  -31.4357  -19.6397   19.1948 H   0  0  0  0  0  0
  -30.9819  -20.2081   20.7633 H   0  0  0  0  0  0
  -31.1835  -17.2882   20.0100 H   0  0  0  0  0  0
  -30.8470  -17.4972   21.7268 H   0  0  0  0  0  0
  -30.7090  -21.6564   18.2651 H   0  0  0  0  0  0
  -29.0426  -15.6225   21.1277 H   0  0  0  0  0  0
  1 25  1  0  0  0
  1 30  2  0  0  0
  1 87  1  0  0  0
  2  3  1  0  0  0
  2 25  1  0  0  0
  2 89  1  0  0  0
  2 90  1  0  0  0
  3  4  1  0  0  0
  3 91  1  0  0  0
  3 92  1  0  0  0
  4  5  1  0  0  0
  4 93  1  0  0  0
  4 94  1  0  0  0
  5  6  1  0  0  0
  5 26  1  0  0  0
  5 95  1  0  0  0
  6 25  1  0  0  0
  6 96  1  0  0  0
  6 97  1  0  0  0
  7  8  2  0  0  0
  7 26  1  0  0  0
  7 29  1  0  0  0
  8  9  1  0  0  0
  8 22  1  0  0  0
  9 10  1  0  0  0
  9 27  2  0  0  0
 10 11  2  0  0  0
 10 15  1  0  0  0
 11 12  1  0  0  0
 11 98  1  0  0  0
 12 13  2  0  0  0
 12 99  1  0  0  0
 13 14  1  0  0  0
 13 31  1  0  0  0
 14 15  2  0  0  0
 14100  1  0  0  0
 15101  1  0  0  0
 16 17  2  0  0  0
 16 21  1  0  0  0
 16 31  1  0  0  0
 17 18  1  0  0  0
 17102  1  0  0  0
 18 19  2  0  0  0
 18103  1  0  0  0
 19 20  1  0  0  0
 19 24  1  0  0  0
 20 21  2  0  0  0
 20104  1  0  0  0
 21 23  1  0  0  0
 22 28  1  0  0  0
 22 32  2  0  0  0
 26 27  1  0  0  0
 28105  1  0  0  0
 28106  1  0  0  0
 29107  1  0  0  0
 29108  1  0  0  0
 33 34  1  0  0  0
 33 66  1  0  0  0
 33 70  2  0  0  0
 34 36  1  0  0  0
 34 59  1  0  0  0
 34109  1  0  0  0
 35 44  2  0  0  0
 35 45  1  0  0  0
 35 68  1  0  0  0
 36 56  1  0  0  0
 36110  1  0  0  0
 37 39  1  0  0  0
 37 47  1  0  0  0
 37 66  1  0  0  0
 37111  1  0  0  0
 38 43  2  0  0  0
 38 46  1  0  0  0
 38 47  1  0  0  0
 39 64  1  0  0  0
 39 67  2  0  0  0
 40 52  1  0  0  0
 40 53  2  0  0  0
 40 58  1  0  0  0
 41112  1  0  0  0
 41113  1  0  0  0
 41114  1  0  0  0
 41 48  1  0  0  0
 42 43  1  0  0  0
 42 66  1  0  0  0
 42115  1  0  0  0
 42116  1  0  0  0
 43 44  1  0  0  0
 44117  1  0  0  0
 45 46  2  0  0  0
 45118  1  0  0  0
 46119  1  0  0  0
 47120  1  0  0  0
 47121  1  0  0  0
 48 56  1  0  0  0
 48 65  1  0  0  0
 48122  1  0  0  0
 49 50  1  0  0  0
 49 53  1  0  0  0
 49 64  1  0  0  0
 49123  1  0  0  0
 50 51  1  0  0  0
 50124  1  0  0  0
 50125  1  0  0  0
 51 52  1  0  0  0
 51126  1  0  0  0
 51127  1  0  0  0
 52128  1  0  0  0
 52129  1  0  0  0
 53 54  1  0  0  0
 54 55  2  0  0  0
 54130  1  0  0  0
 55 57  1  0  0  0
 55131  1  0  0  0
 56 69  2  0  0  0
 57 58  2  0  0  0
 57132  1  0  0  0
 58133  1  0  0  0
 59 60  1  0  0  0
 59 61  1  0  0  0
 59 62  1  0  0  0
 60134  1  0  0  0
 60135  1  0  0  0
 60136  1  0  0  0
 61137  1  0  0  0
 61138  1  0  0  0
 61139  1  0  0  0
 62140  1  0  0  0
 62141  1  0  0  0
 62142  1  0  0  0
 63 65  1  0  0  0
 63143  1  0  0  0
 63144  1  0  0  0
 63145  1  0  0  0
 64146  1  0  0  0
 65147  1  0  0  0
 68 80  1  0  0  0
 71 72  2  0  0  0
 71 73  1  0  0  0
 71148  1  0  0  0
 72 74  1  0  0  0
 72149  1  0  0  0
 73 75  2  0  0  0
 73 83  1  0  0  0
 74 81  1  0  0  0
 74 85  2  0  0  0
 75 84  1  0  0  0
 75 85  1  0  0  0
 76 86  1  0  0  0
 76 88  2  0  0  0
 76 78  1  0  0  0
 77 78  1  0  0  0
 77 80  1  0  0  0
 77150  1  0  0  0
 77151  1  0  0  0
 78 79  1  0  0  0
 78152  1  0  0  0
 79 80  1  0  0  0
 79 82  1  0  0  0
 79153  1  0  0  0
 80154  1  0  0  0
 81155  1  0  0  0
 81156  1  0  0  0
 81157  1  0  0  0
 82158  1  0  0  0
 82159  1  0  0  0
 82160  1  0  0  0
 83 86  1  0  0  0
 83161  1  0  0  0
 83162  1  0  0  0
 84 87  1  0  0  0
 84163  1  0  0  0
 84164  1  0  0  0
 86165  1  0  0  0
 87166  1  0  0  0
M  ISO  4   1 100  68 101  80 101  87 100
M  END
> <chiral flag>
0

> <version>
0

> <s_m_source_file>
/data/baiqing/PycharmProjects/Reinvent-master-3.2/result/LINK_invent/BTK/process_docking_weight1_custom_sum_contain_oxygen_bond_distance_aromatic_linkinvent_7_9_3/rearranged_h_0121.sdf

> <i_m_source_file_index>
8

> <r_mmod_Potential_Energy-OPLS-2005>
-311.606597900391

> <r_mmod_Stretch_Energy-OPLS-2005>
41.9805107116699

> <r_mmod_Bend_Energy-OPLS-2005>
148.765243530273

> <r_mmod_Torsional_Energy-OPLS-2005>
251.658264160156

> <r_mmod_Improper_Torsional_Energy-OPLS-2005>
6.27141094207764

> <r_mmod_Van_der_Waal_Energy-OPLS-2005>
164.39892578125

> <r_mmod_Electrostatic_Energy-OPLS-2005>
-712.999755859375

> <r_mmod_Solvation_Energy-OPLS-2005>
-242.532516479492

> <b_mmod_Minimization_Converged-OPLS-2005>
0

> <r_mmod_RMS_Derivative-OPLS-2005>
11.6557874679565

$$$$
8
                    3D
 Structure written by MMmdl.
160169  0  0  1  0            999 V2000
  -30.6263  -14.8395   20.4023 C   0  0  0  0  0  0
  -30.4234  -12.5171   19.4691 C   0  0  0  0  0  0
  -29.5001  -12.4709   18.2353 C   0  0  0  0  0  0
  -28.0337  -12.2911   18.6680 C   0  0  0  0  0  0
  -27.6266  -13.2271   19.8374 C   0  0  2  0  0  0
  -28.6810  -13.2714   20.9610 C   0  0  0  0  0  0
  -25.2487  -13.8177   20.5755 C   0  0  0  0  0  0
  -24.1771  -13.0431   20.9238 C   0  0  0  0  0  0
  -24.6363  -11.6907   20.8798 C   0  0  0  0  0  0
  -23.9049  -10.4280   21.0440 C   0  0  0  0  0  0
  -24.3601   -9.4184   21.9204 C   0  0  0  0  0  0
  -23.6274   -8.2223   22.0763 C   0  0  0  0  0  0
  -22.4261   -8.0269   21.3544 C   0  0  0  0  0  0
  -21.9897   -9.0249   20.4651 C   0  0  0  0  0  0
  -22.7231  -10.2129   20.3075 C   0  0  0  0  0  0
  -21.6846   -6.0718   22.5275 C   0  0  0  0  0  0
  -21.4012   -6.5622   23.8210 C   0  0  0  0  0  0
  -21.3662   -5.6781   24.9176 C   0  0  0  0  0  0
  -21.6050   -4.3046   24.7230 C   0  0  0  0  0  0
  -21.8817   -3.8135   23.4352 C   0  0  0  0  0  0
  -21.9186   -4.6946   22.3405 C   0  0  0  0  0  0
  -22.7791  -13.5216   21.1867 C   0  0  0  0  0  0
  -22.1649   -4.2128   21.0985 F   0  0  0  0  0  0
  -21.5635   -3.4536   25.7746 F   0  0  0  0  0  0
  -29.9492  -13.6359   20.3228 N   0  0  0  0  0  0
  -26.2884  -12.9360   20.3320 N   0  0  0  0  0  0
  -25.9292  -11.6517   20.5825 N   0  0  0  0  0  0
  -22.0423  -12.8227   22.0427 N   0  0  0  0  0  0
  -25.4215  -15.1902   20.4178 N   0  0  0  0  0  0
  -31.8515  -14.8037   20.2556 O   0  0  0  0  0  0
  -21.6629   -6.8868   21.4235 O   0  0  0  0  0  0
  -22.3477  -14.5518   20.6702 O   0  0  0  0  0  0
  -24.6362  -31.8506   23.1958 C   0  0  0  0  0  0
  -25.9168  -32.4731   23.8316 C   0  0  1  0  0  0
  -27.2129  -27.2075   20.1458 C   0  0  0  0  0  0
  -25.5942  -33.8536   24.2235 N   0  0  0  0  0  0
  -23.4357  -30.4724   21.5400 C   0  0  2  0  0  0
  -24.8835  -28.9130   20.1099 C   0  0  0  0  0  0
  -22.7531  -29.4581   22.4907 C   0  0  0  0  0  0
  -18.0294  -28.1390   22.8490 C   0  0  0  0  0  0
  -24.1487  -36.7269   23.2641 C   0  0  0  0  0  0
  -25.9864  -30.7471   21.3839 C   0  0  0  0  0  0
  -26.0574  -29.3662   20.7249 C   0  0  0  0  0  0
  -27.2260  -28.5288   20.7272 C   0  0  0  0  0  0
  -26.0158  -26.8390   19.4925 C   0  0  0  0  0  0
  -24.8712  -27.6602   19.4800 C   0  0  0  0  0  0
  -23.6571  -29.8053   20.1570 C   0  0  0  0  0  0
  -25.4117  -36.3053   24.0323 C   0  0  1  0  0  0
  -20.5902  -28.3707   23.1257 C   0  0  2  0  0  0
  -20.6782  -26.9419   22.5405 C   0  0  0  0  0  0
  -19.5752  -26.6384   21.5216 C   0  0  0  0  0  0
  -18.1933  -26.7935   22.1629 C   0  0  0  0  0  0
  -19.1550  -28.8870   23.2864 C   0  0  0  0  0  0
  -18.9471  -30.1474   23.8879 C   0  0  0  0  0  0
  -17.6467  -30.6593   24.0563 C   0  0  0  0  0  0
  -25.9064  -34.9426   23.5085 C   0  0  0  0  0  0
  -16.5359  -29.9084   23.6337 C   0  0  0  0  0  0
  -16.7280  -28.6501   23.0359 C   0  0  0  0  0  0
  -26.4516  -31.6579   25.0735 C   0  0  0  0  0  0
  -25.3721  -31.3742   26.1446 C   0  0  0  0  0  0
  -27.0378  -30.2985   24.6271 C   0  0  0  0  0  0
  -27.6055  -32.4342   25.7504 C   0  0  0  0  0  0
  -27.5576  -37.1788   24.8466 C   0  0  0  0  0  0
  -21.4233  -29.3040   22.3639 N   0  0  0  0  0  0
  -26.4284  -37.3763   23.9418 N   0  0  0  0  0  0
  -24.7056  -31.0429   22.0956 N   0  0  0  0  0  0
  -23.4204  -28.8116   23.3025 O   0  0  0  0  0  0
  -28.2815  -26.2660   20.2265 O   0  0  0  0  0  0
  -26.5642  -34.8906   22.4658 O   0  0  0  0  0  0
  -23.5503  -32.1347   23.7223 O   0  0  0  0  0  0
  -27.9785  -19.5279   20.9356 C   0  0  0  0  0  0
  -28.0938  -21.0883   21.2468 C   0  0  0  0  0  0
  -28.6114  -16.9065   18.7419 C   0  0  0  0  0  0
  -30.0488  -16.4225   18.5336 C   0  0  0  0  0  0
  -29.9853  -19.6892   19.5565 C   0  0  0  0  0  0
  -29.2980  -18.7176   20.6111 C   0  0  2  0  0  0
  -28.9713  -17.1374   20.2133 C   0  0  2  0  0  0
  -28.8351  -21.9540   20.1677 C   0  0  1  0  0  0
  -29.0592  -23.5742   20.4662 C   0  0  0  0  0  0
  -28.0035  -24.7703   20.0706 C   0  0  0  0  0  0
  -30.0214  -16.0289   19.9428 N   0  0  0  0  0  0
  -30.1045  -21.1610   19.9467 N   0  3  0  0  0  0
  -31.4579  -12.6458   19.1460 H   0  0  0  0  0  0
  -30.3930  -11.5736   20.0172 H   0  0  0  0  0  0
  -29.7950  -11.6553   17.5734 H   0  0  0  0  0  0
  -29.6067  -13.3858   17.6538 H   0  0  0  0  0  0
  -27.9131  -11.2510   18.9736 H   0  0  0  0  0  0
  -27.3681  -12.4359   17.8164 H   0  0  0  0  0  0
  -27.5855  -14.2200   19.4055 H   0  0  0  0  0  0
  -28.7581  -12.3126   21.4754 H   0  0  0  0  0  0
  -28.4091  -14.0161   21.7112 H   0  0  0  0  0  0
  -25.2745   -9.5639   22.4782 H   0  0  0  0  0  0
  -23.9969   -7.4604   22.7478 H   0  0  0  0  0  0
  -21.0830   -8.8780   19.8948 H   0  0  0  0  0  0
  -22.3704  -10.9672   19.6186 H   0  0  0  0  0  0
  -21.2004   -7.6130   23.9706 H   0  0  0  0  0  0
  -21.1488   -6.0515   25.9073 H   0  0  0  0  0  0
  -22.0597   -2.7593   23.2870 H   0  0  0  0  0  0
  -22.4035  -11.9897   22.4841 H   0  0  0  0  0  0
  -21.1043  -13.1267   22.2628 H   0  0  0  0  0  0
  -24.6655  -15.8545   20.5457 H   0  0  0  0  0  0
  -26.2836  -15.6241   20.1166 H   0  0  0  0  0  0
  -26.7233  -32.5358   23.1048 H   0  0  0  0  0  0
  -25.0080  -33.9668   25.0373 H   0  0  0  0  0  0
  -22.7345  -31.2967   21.3912 H   0  0  0  0  0  0
  -23.3758  -35.9593   23.3291 H   0  0  0  0  0  0
  -24.3569  -36.8913   22.2058 H   0  0  0  0  0  0
  -23.7231  -37.6457   23.6681 H   0  0  0  0  0  0
  -26.1332  -31.5060   20.6134 H   0  0  0  0  0  0
  -26.8602  -30.7952   22.0219 H   0  0  0  0  0  0
  -28.1214  -28.8677   21.2294 H   0  0  0  0  0  0
  -25.9270  -25.8813   19.0024 H   0  0  0  0  0  0
  -23.9741  -27.3076   18.9896 H   0  0  0  0  0  0
  -23.7856  -30.5804   19.4008 H   0  0  0  0  0  0
  -22.7744  -29.2411   19.8506 H   0  0  0  0  0  0
  -25.1299  -36.1890   25.0815 H   0  0  0  0  0  0
  -20.9989  -28.3289   24.1381 H   0  0  0  0  0  0
  -20.5689  -26.2320   23.3617 H   0  0  0  0  0  0
  -21.6650  -26.7443   22.1197 H   0  0  0  0  0  0
  -19.6915  -25.6292   21.1252 H   0  0  0  0  0  0
  -19.6685  -27.3191   20.6741 H   0  0  0  0  0  0
  -17.4204  -26.6694   21.4023 H   0  0  0  0  0  0
  -18.0322  -26.0072   22.9016 H   0  0  0  0  0  0
  -19.7944  -30.7305   24.2231 H   0  0  0  0  0  0
  -17.5014  -31.6270   24.5169 H   0  0  0  0  0  0
  -15.5356  -30.2979   23.7677 H   0  0  0  0  0  0
  -15.8680  -28.0820   22.7081 H   0  0  0  0  0  0
  -24.5899  -30.7093   25.7768 H   0  0  0  0  0  0
  -24.8913  -32.2917   26.4849 H   0  0  0  0  0  0
  -25.8026  -30.8930   27.0236 H   0  0  0  0  0  0
  -26.2989  -29.6716   24.1270 H   0  0  0  0  0  0
  -27.4003  -29.7274   25.4826 H   0  0  0  0  0  0
  -27.8887  -30.4243   23.9574 H   0  0  0  0  0  0
  -27.2646  -33.3644   26.2057 H   0  0  0  0  0  0
  -28.3862  -32.6906   25.0331 H   0  0  0  0  0  0
  -28.0725  -31.8494   26.5432 H   0  0  0  0  0  0
  -28.2583  -38.0093   24.7525 H   0  0  0  0  0  0
  -28.1081  -36.2626   24.6279 H   0  0  0  0  0  0
  -27.2295  -37.1420   25.8867 H   0  0  0  0  0  0
  -20.9437  -29.8752   21.6824 H   0  0  0  0  0  0
  -26.0155  -38.2834   24.1423 H   0  0  0  0  0  0
  -27.2986  -19.4140   20.0898 H   0  0  0  0  0  0
  -27.4711  -19.0439   21.7713 H   0  0  0  0  0  0
  -28.6001  -21.2115   22.2052 H   0  0  0  0  0  0
  -27.0921  -21.4934   21.3970 H   0  0  0  0  0  0
  -27.8645  -16.1334   18.5764 H   0  0  0  0  0  0
  -28.3449  -17.7937   18.1699 H   0  0  0  0  0  0
  -30.7680  -17.2092   18.3058 H   0  0  0  0  0  0
  -30.1294  -15.6054   17.8164 H   0  0  0  0  0  0
  -29.4435  -19.6608   18.6115 H   0  0  0  0  0  0
  -30.9870  -19.3203   19.3358 H   0  0  0  0  0  0
  -29.9159  -18.7157   21.5094 H   0  0  0  0  0  0
  -28.1777  -16.7481   20.8534 H   0  0  0  0  0  0
  -28.2730  -21.8863   19.2352 H   0  0  0  0  0  0
  -29.9862  -23.8461   19.9619 H   0  0  0  0  0  0
  -29.2909  -23.6811   21.5262 H   0  0  0  0  0  0
  -27.0849  -24.5558   20.6185 H   0  0  0  0  0  0
  -27.7626  -24.6173   19.0182 H   0  0  0  0  0  0
  -30.6328  -21.6155   19.2192 H   0  0  0  0  0  0
  -30.6636  -21.2116   20.7834 H   0  0  0  0  0  0
  1 25  1  0  0  0
  1 30  2  0  0  0
  1 81  1  0  0  0
  2  3  1  0  0  0
  2 25  1  0  0  0
  2 83  1  0  0  0
  2 84  1  0  0  0
  3  4  1  0  0  0
  3 85  1  0  0  0
  3 86  1  0  0  0
  4  5  1  0  0  0
  4 87  1  0  0  0
  4 88  1  0  0  0
  5  6  1  0  0  0
  5 26  1  0  0  0
  5 89  1  0  0  0
  6 25  1  0  0  0
  6 90  1  0  0  0
  6 91  1  0  0  0
  7  8  2  0  0  0
  7 26  1  0  0  0
  7 29  1  0  0  0
  8  9  1  0  0  0
  8 22  1  0  0  0
  9 10  1  0  0  0
  9 27  2  0  0  0
 10 11  2  0  0  0
 10 15  1  0  0  0
 11 12  1  0  0  0
 11 92  1  0  0  0
 12 13  2  0  0  0
 12 93  1  0  0  0
 13 14  1  0  0  0
 13 31  1  0  0  0
 14 15  2  0  0  0
 14 94  1  0  0  0
 15 95  1  0  0  0
 16 17  2  0  0  0
 16 21  1  0  0  0
 16 31  1  0  0  0
 17 18  1  0  0  0
 17 96  1  0  0  0
 18 19  2  0  0  0
 18 97  1  0  0  0
 19 20  1  0  0  0
 19 24  1  0  0  0
 20 21  2  0  0  0
 20 98  1  0  0  0
 21 23  1  0  0  0
 22 28  1  0  0  0
 22 32  2  0  0  0
 26 27  1  0  0  0
 28 99  1  0  0  0
 28100  1  0  0  0
 29101  1  0  0  0
 29102  1  0  0  0
 33 34  1  0  0  0
 33 66  1  0  0  0
 33 70  2  0  0  0
 34 36  1  0  0  0
 34 59  1  0  0  0
 34103  1  0  0  0
 35 44  2  0  0  0
 35 45  1  0  0  0
 35 68  1  0  0  0
 36 56  1  0  0  0
 36104  1  0  0  0
 37 39  1  0  0  0
 37 47  1  0  0  0
 37 66  1  0  0  0
 37105  1  0  0  0
 38 43  2  0  0  0
 38 46  1  0  0  0
 38 47  1  0  0  0
 39 64  1  0  0  0
 39 67  2  0  0  0
 40 52  1  0  0  0
 40 53  2  0  0  0
 40 58  1  0  0  0
 41106  1  0  0  0
 41107  1  0  0  0
 41108  1  0  0  0
 41 48  1  0  0  0
 42 43  1  0  0  0
 42 66  1  0  0  0
 42109  1  0  0  0
 42110  1  0  0  0
 43 44  1  0  0  0
 44111  1  0  0  0
 45 46  2  0  0  0
 45112  1  0  0  0
 46113  1  0  0  0
 47114  1  0  0  0
 47115  1  0  0  0
 48 56  1  0  0  0
 48 65  1  0  0  0
 48116  1  0  0  0
 49 50  1  0  0  0
 49 53  1  0  0  0
 49 64  1  0  0  0
 49117  1  0  0  0
 50 51  1  0  0  0
 50118  1  0  0  0
 50119  1  0  0  0
 51 52  1  0  0  0
 51120  1  0  0  0
 51121  1  0  0  0
 52122  1  0  0  0
 52123  1  0  0  0
 53 54  1  0  0  0
 54 55  2  0  0  0
 54124  1  0  0  0
 55 57  1  0  0  0
 55125  1  0  0  0
 56 69  2  0  0  0
 57 58  2  0  0  0
 57126  1  0  0  0
 58127  1  0  0  0
 59 60  1  0  0  0
 59 61  1  0  0  0
 59 62  1  0  0  0
 60128  1  0  0  0
 60129  1  0  0  0
 60130  1  0  0  0
 61131  1  0  0  0
 61132  1  0  0  0
 61133  1  0  0  0
 62134  1  0  0  0
 62135  1  0  0  0
 62136  1  0  0  0
 63 65  1  0  0  0
 63137  1  0  0  0
 63138  1  0  0  0
 63139  1  0  0  0
 64140  1  0  0  0
 65141  1  0  0  0
 68 80  1  0  0  0
 71 72  1  0  0  0
 71142  1  0  0  0
 71143  1  0  0  0
 71 76  1  0  0  0
 72 78  1  0  0  0
 72144  1  0  0  0
 72145  1  0  0  0
 73 74  1  0  0  0
 73146  1  0  0  0
 73147  1  0  0  0
 73 77  1  0  0  0
 74 81  1  0  0  0
 74148  1  0  0  0
 74149  1  0  0  0
 75 76  1  0  0  0
 75 82  1  0  0  0
 75150  1  0  0  0
 75151  1  0  0  0
 76 77  1  0  0  0
 76152  1  0  0  0
 77 81  1  0  0  0
 77153  1  0  0  0
 78 79  1  0  0  0
 78 82  1  0  0  0
 78154  1  0  0  0
 79 80  1  0  0  0
 79155  1  0  0  0
 79156  1  0  0  0
 80157  1  0  0  0
 80158  1  0  0  0
 82159  1  0  0  0
 82160  1  0  0  0
M  CHG  1  82   1
M  ISO  4   1 100  68 101  80 101  81 100
M  END
> <chiral flag>
0

> <version>
0

> <s_m_source_file>
/data/baiqing/PycharmProjects/Reinvent-master-3.2/result/LINK_invent/BTK/process_docking_weight1_custom_sum_contain_oxygen_bond_distance_aromatic_linkinvent_7_9_3/rearranged_h_0121.sdf

> <i_m_source_file_index>
9

> <r_mmod_Potential_Energy-OPLS-2005>
415.962768554688

> <r_mmod_Stretch_Energy-OPLS-2005>
173.481079101562

> <r_mmod_Bend_Energy-OPLS-2005>
271.457763671875

> <r_mmod_Torsional_Energy-OPLS-2005>
363.187835693359

> <r_mmod_Improper_Torsional_Energy-OPLS-2005>
28.182689666748

> <r_mmod_Van_der_Waal_Energy-OPLS-2005>
115.5

> <r_mmod_Electrostatic_Energy-OPLS-2005>
-199.379364013672

> <r_mmod_Solvation_Energy-OPLS-2005>
-474.508483886719

> <b_mmod_Minimization_Converged-OPLS-2005>
0

> <r_mmod_RMS_Derivative-OPLS-2005>
1.38629448413849

$$$$
9
                    3D
 Structure written by MMmdl.
160169  0  0  1  0            999 V2000
  -30.6533  -14.6133   20.4980 C   0  0  0  0  0  0
  -30.4401  -12.3945   19.4141 C   0  0  0  0  0  0
  -29.4889  -12.5067   18.2020 C   0  0  0  0  0  0
  -28.0191  -12.3134   18.6319 C   0  0  0  0  0  0
  -27.6545  -13.1624   19.8750 C   0  0  2  0  0  0
  -28.7222  -12.9929   20.9867 C   0  0  0  0  0  0
  -25.2575  -13.8026   20.5657 C   0  0  0  0  0  0
  -24.1813  -13.0361   20.9188 C   0  0  0  0  0  0
  -24.6343  -11.6820   20.8786 C   0  0  0  0  0  0
  -23.9007  -10.4248   21.0422 C   0  0  0  0  0  0
  -24.3570   -9.4168   21.9188 C   0  0  0  0  0  0
  -23.6257   -8.2207   22.0748 C   0  0  0  0  0  0
  -22.4245   -8.0253   21.3531 C   0  0  0  0  0  0
  -21.9868   -9.0230   20.4642 C   0  0  0  0  0  0
  -22.7189  -10.2108   20.3060 C   0  0  0  0  0  0
  -21.6845   -6.0713   22.5273 C   0  0  0  0  0  0
  -21.4007   -6.5621   23.8204 C   0  0  0  0  0  0
  -21.3646   -5.6775   24.9164 C   0  0  0  0  0  0
  -21.6044   -4.3041   24.7219 C   0  0  0  0  0  0
  -21.8835   -3.8131   23.4347 C   0  0  0  0  0  0
  -21.9196   -4.6944   22.3403 C   0  0  0  0  0  0
  -22.7844  -13.5209   21.1820 C   0  0  0  0  0  0
  -22.1660   -4.2133   21.0977 F   0  0  0  0  0  0
  -21.5627   -3.4528   25.7734 F   0  0  0  0  0  0
  -30.0099  -13.4021   20.4075 N   0  0  0  0  0  0
  -26.2985  -12.9104   20.3427 N   0  0  0  0  0  0
  -25.9266  -11.6322   20.5884 N   0  0  0  0  0  0
  -22.0456  -12.8250   22.0386 N   0  0  0  0  0  0
  -25.4225  -15.1743   20.3989 N   0  0  0  0  0  0
  -31.8281  -14.7197   20.1323 O   0  0  0  0  0  0
  -21.6622   -6.8847   21.4232 O   0  0  0  0  0  0
  -22.3560  -14.5519   20.6653 O   0  0  0  0  0  0
  -24.6186  -31.8630   23.2021 C   0  0  0  0  0  0
  -25.9069  -32.4783   23.8331 C   0  0  1  0  0  0
  -27.2475  -27.3923   20.0931 C   0  0  0  0  0  0
  -25.5902  -33.8582   24.2248 N   0  0  0  0  0  0
  -23.4077  -30.4837   21.5440 C   0  0  2  0  0  0
  -24.8548  -28.9394   20.1127 C   0  0  0  0  0  0
  -22.7436  -29.4634   22.4967 C   0  0  0  0  0  0
  -18.0265  -28.1403   22.8481 C   0  0  0  0  0  0
  -24.1484  -36.7303   23.2634 C   0  0  0  0  0  0
  -25.9385  -30.8157   21.3583 C   0  0  0  0  0  0
  -26.0153  -29.4448   20.7083 C   0  0  0  0  0  0
  -27.2075  -28.6788   20.6951 C   0  0  0  0  0  0
  -26.0575  -26.9043   19.5021 C   0  0  0  0  0  0
  -24.8728  -27.6702   19.5084 C   0  0  0  0  0  0
  -23.6179  -29.8120   20.1599 C   0  0  0  0  0  0
  -25.4108  -36.3073   24.0308 C   0  0  1  0  0  0
  -20.5859  -28.3687   23.1313 C   0  0  2  0  0  0
  -20.6757  -26.9419   22.5424 C   0  0  0  0  0  0
  -19.5731  -26.6395   21.5225 C   0  0  0  0  0  0
  -18.1913  -26.7938   22.1637 C   0  0  0  0  0  0
  -19.1517  -28.8856   23.2891 C   0  0  0  0  0  0
  -18.9460  -30.1467   23.8902 C   0  0  0  0  0  0
  -17.6463  -30.6603   24.0572 C   0  0  0  0  0  0
  -25.9052  -34.9451   23.5078 C   0  0  0  0  0  0
  -16.5351  -29.9121   23.6325 C   0  0  0  0  0  0
  -16.7254  -28.6543   23.0329 C   0  0  0  0  0  0
  -26.4483  -31.6588   25.0685 C   0  0  0  0  0  0
  -25.3744  -31.3734   26.1436 C   0  0  0  0  0  0
  -27.0306  -30.3008   24.6103 C   0  0  0  0  0  0
  -27.6030  -32.4331   25.7479 C   0  0  0  0  0  0
  -27.5570  -37.1797   24.8458 C   0  0  0  0  0  0
  -21.4156  -29.3035   22.3712 N   0  0  0  0  0  0
  -26.4274  -37.3779   23.9413 N   0  0  0  0  0  0
  -24.6732  -31.0706   22.0931 N   0  0  0  0  0  0
  -23.4185  -28.8188   23.3036 O   0  0  0  0  0  0
  -28.4434  -26.6819   20.1340 O   0  0  0  0  0  0
  -26.5642  -34.8928   22.4657 O   0  0  0  0  0  0
  -23.5368  -32.1404   23.7392 O   0  0  0  0  0  0
  -31.4430  -18.9078   19.0455 C   0  0  0  0  0  0
  -31.3160  -20.2517   19.2856 C   0  0  0  0  0  0
  -30.4029  -18.2998   19.7989 C   0  0  0  0  0  0
  -28.3294  -16.7873   19.7632 C   0  0  0  0  0  0
  -28.6117  -16.1669   21.1376 C   0  0  0  0  0  0
  -29.8424  -16.8800   19.5907 C   0  0  2  0  0  0
  -31.2851  -23.5923   20.0648 C   0  0  0  0  0  0
  -28.8503  -24.1794   20.4334 C   0  0  0  0  0  0
  -29.6743  -21.6833   20.7451 C   0  0  0  0  0  0
  -28.6530  -25.4049   19.4718 C   0  0  0  0  0  0
  -29.8425  -23.0441   19.9593 C   0  0  2  0  0  0
  -29.7833  -19.2197   20.5539 N   0  0  0  0  0  0
  -30.2738  -20.4413   20.1787 N   0  0  0  0  0  0
  -29.9114  -15.7681   20.5857 N   0  0  0  0  0  0
  -31.4695  -12.5422   19.0824 H   0  0  0  0  0  0
  -30.4104  -11.3893   19.8382 H   0  0  0  0  0  0
  -29.7544  -11.7728   17.4395 H   0  0  0  0  0  0
  -29.6043  -13.4853   17.7334 H   0  0  0  0  0  0
  -27.8705  -11.2577   18.8572 H   0  0  0  0  0  0
  -27.3478  -12.5445   17.8044 H   0  0  0  0  0  0
  -27.6695  -14.1789   19.5202 H   0  0  0  0  0  0
  -28.7695  -11.9460   21.2905 H   0  0  0  0  0  0
  -28.5001  -13.5191   21.9120 H   0  0  0  0  0  0
  -25.2701   -9.5658   22.4768 H   0  0  0  0  0  0
  -23.9965   -7.4604   22.7476 H   0  0  0  0  0  0
  -21.0789   -8.8761   19.8954 H   0  0  0  0  0  0
  -22.3646  -10.9661   19.6185 H   0  0  0  0  0  0
  -21.1998   -7.6131   23.9706 H   0  0  0  0  0  0
  -21.1439   -6.0495   25.9066 H   0  0  0  0  0  0
  -22.0633   -2.7602   23.2853 H   0  0  0  0  0  0
  -22.4022  -11.9896   22.4787 H   0  0  0  0  0  0
  -21.1095  -13.1339   22.2580 H   0  0  0  0  0  0
  -24.6563  -15.8265   20.5249 H   0  0  0  0  0  0
  -26.2809  -15.6233   20.1091 H   0  0  0  0  0  0
  -26.7143  -32.5479   23.1098 H   0  0  0  0  0  0
  -25.0000  -33.9733   25.0352 H   0  0  0  0  0  0
  -22.6974  -31.3001   21.4012 H   0  0  0  0  0  0
  -23.3729  -35.9658   23.3292 H   0  0  0  0  0  0
  -24.3571  -36.8937   22.2053 H   0  0  0  0  0  0
  -23.7269  -37.6506   23.6678 H   0  0  0  0  0  0
  -26.0545  -31.5769   20.5848 H   0  0  0  0  0  0
  -26.8241  -30.8716   21.9789 H   0  0  0  0  0  0
  -28.1033  -29.0715   21.1557 H   0  0  0  0  0  0
  -26.0083  -25.9291   19.0431 H   0  0  0  0  0  0
  -23.9777  -27.2712   19.0514 H   0  0  0  0  0  0
  -23.7306  -30.5848   19.3985 H   0  0  0  0  0  0
  -22.7402  -29.2349   19.8636 H   0  0  0  0  0  0
  -25.1295  -36.1900   25.0798 H   0  0  0  0  0  0
  -20.9940  -28.3259   24.1438 H   0  0  0  0  0  0
  -20.5673  -26.2300   23.3622 H   0  0  0  0  0  0
  -21.6631  -26.7477   22.1210 H   0  0  0  0  0  0
  -19.6903  -25.6314   21.1241 H   0  0  0  0  0  0
  -19.6667  -27.3218   20.6764 H   0  0  0  0  0  0
  -17.4187  -26.6666   21.4044 H   0  0  0  0  0  0
  -18.0322  -26.0100   22.9050 H   0  0  0  0  0  0
  -19.7942  -30.7269   24.2270 H   0  0  0  0  0  0
  -17.5032  -31.6281   24.5192 H   0  0  0  0  0  0
  -15.5352  -30.3041   23.7645 H   0  0  0  0  0  0
  -15.8651  -28.0885   22.7017 H   0  0  0  0  0  0
  -24.5907  -30.7086   25.7790 H   0  0  0  0  0  0
  -24.8964  -32.2912   26.4864 H   0  0  0  0  0  0
  -25.8090  -30.8924   27.0206 H   0  0  0  0  0  0
  -26.2852  -29.6779   24.1144 H   0  0  0  0  0  0
  -27.4028  -29.7243   25.4582 H   0  0  0  0  0  0
  -27.8712  -30.4281   23.9277 H   0  0  0  0  0  0
  -27.2603  -33.3620   26.2058 H   0  0  0  0  0  0
  -28.3858  -32.6915   25.0335 H   0  0  0  0  0  0
  -28.0688  -31.8468   26.5413 H   0  0  0  0  0  0
  -28.2567  -38.0109   24.7506 H   0  0  0  0  0  0
  -28.1069  -36.2634   24.6260 H   0  0  0  0  0  0
  -27.2290  -37.1428   25.8859 H   0  0  0  0  0  0
  -20.9330  -29.8751   21.6921 H   0  0  0  0  0  0
  -26.0130  -38.2833   24.1452 H   0  0  0  0  0  0
  -32.1109  -18.4406   18.3356 H   0  0  0  0  0  0
  -31.8620  -21.0651   18.8370 H   0  0  0  0  0  0
  -27.7950  -17.7362   19.8040 H   0  0  0  0  0  0
  -27.8799  -16.1458   19.0090 H   0  0  0  0  0  0
  -27.8972  -15.4085   21.4243 H   0  0  0  0  0  0
  -28.6939  -16.9121   21.9307 H   0  0  0  0  0  0
  -30.1171  -16.5364   18.5917 H   0  0  0  0  0  0
  -31.4536  -24.4248   19.3820 H   0  0  0  0  0  0
  -32.0519  -22.8568   19.8428 H   0  0  0  0  0  0
  -31.4906  -23.9550   21.0723 H   0  0  0  0  0  0
  -27.8669  -23.7513   20.6310 H   0  0  0  0  0  0
  -29.1930  -24.5476   21.4020 H   0  0  0  0  0  0
  -28.6055  -21.4857   20.8435 H   0  0  0  0  0  0
  -30.0423  -21.7998   21.7663 H   0  0  0  0  0  0
  -27.9156  -25.1684   18.7075 H   0  0  0  0  0  0
  -29.5704  -25.5498   18.9036 H   0  0  0  0  0  0
  -29.6248  -22.8302   18.9116 H   0  0  0  0  0  0
  1 25  1  0  0  0
  1 30  2  0  0  0
  1 84  1  0  0  0
  2  3  1  0  0  0
  2 25  1  0  0  0
  2 85  1  0  0  0
  2 86  1  0  0  0
  3  4  1  0  0  0
  3 87  1  0  0  0
  3 88  1  0  0  0
  4  5  1  0  0  0
  4 89  1  0  0  0
  4 90  1  0  0  0
  5  6  1  0  0  0
  5 26  1  0  0  0
  5 91  1  0  0  0
  6 25  1  0  0  0
  6 92  1  0  0  0
  6 93  1  0  0  0
  7  8  2  0  0  0
  7 26  1  0  0  0
  7 29  1  0  0  0
  8  9  1  0  0  0
  8 22  1  0  0  0
  9 10  1  0  0  0
  9 27  2  0  0  0
 10 11  2  0  0  0
 10 15  1  0  0  0
 11 12  1  0  0  0
 11 94  1  0  0  0
 12 13  2  0  0  0
 12 95  1  0  0  0
 13 14  1  0  0  0
 13 31  1  0  0  0
 14 15  2  0  0  0
 14 96  1  0  0  0
 15 97  1  0  0  0
 16 17  2  0  0  0
 16 21  1  0  0  0
 16 31  1  0  0  0
 17 18  1  0  0  0
 17 98  1  0  0  0
 18 19  2  0  0  0
 18 99  1  0  0  0
 19 20  1  0  0  0
 19 24  1  0  0  0
 20 21  2  0  0  0
 20100  1  0  0  0
 21 23  1  0  0  0
 22 28  1  0  0  0
 22 32  2  0  0  0
 26 27  1  0  0  0
 28101  1  0  0  0
 28102  1  0  0  0
 29103  1  0  0  0
 29104  1  0  0  0
 33 34  1  0  0  0
 33 66  1  0  0  0
 33 70  2  0  0  0
 34 36  1  0  0  0
 34 59  1  0  0  0
 34105  1  0  0  0
 35 44  2  0  0  0
 35 45  1  0  0  0
 35 68  1  0  0  0
 36 56  1  0  0  0
 36106  1  0  0  0
 37 39  1  0  0  0
 37 47  1  0  0  0
 37 66  1  0  0  0
 37107  1  0  0  0
 38 43  2  0  0  0
 38 46  1  0  0  0
 38 47  1  0  0  0
 39 64  1  0  0  0
 39 67  2  0  0  0
 40 52  1  0  0  0
 40 53  2  0  0  0
 40 58  1  0  0  0
 41108  1  0  0  0
 41109  1  0  0  0
 41110  1  0  0  0
 41 48  1  0  0  0
 42 43  1  0  0  0
 42 66  1  0  0  0
 42111  1  0  0  0
 42112  1  0  0  0
 43 44  1  0  0  0
 44113  1  0  0  0
 45 46  2  0  0  0
 45114  1  0  0  0
 46115  1  0  0  0
 47116  1  0  0  0
 47117  1  0  0  0
 48 56  1  0  0  0
 48 65  1  0  0  0
 48118  1  0  0  0
 49 50  1  0  0  0
 49 53  1  0  0  0
 49 64  1  0  0  0
 49119  1  0  0  0
 50 51  1  0  0  0
 50120  1  0  0  0
 50121  1  0  0  0
 51 52  1  0  0  0
 51122  1  0  0  0
 51123  1  0  0  0
 52124  1  0  0  0
 52125  1  0  0  0
 53 54  1  0  0  0
 54 55  2  0  0  0
 54126  1  0  0  0
 55 57  1  0  0  0
 55127  1  0  0  0
 56 69  2  0  0  0
 57 58  2  0  0  0
 57128  1  0  0  0
 58129  1  0  0  0
 59 60  1  0  0  0
 59 61  1  0  0  0
 59 62  1  0  0  0
 60130  1  0  0  0
 60131  1  0  0  0
 60132  1  0  0  0
 61133  1  0  0  0
 61134  1  0  0  0
 61135  1  0  0  0
 62136  1  0  0  0
 62137  1  0  0  0
 62138  1  0  0  0
 63 65  1  0  0  0
 63139  1  0  0  0
 63140  1  0  0  0
 63141  1  0  0  0
 64142  1  0  0  0
 65143  1  0  0  0
 68 80  1  0  0  0
 71 72  2  0  0  0
 71 73  1  0  0  0
 71144  1  0  0  0
 72 83  1  0  0  0
 72145  1  0  0  0
 73 82  2  0  0  0
 73 76  1  0  0  0
 74 75  1  0  0  0
 74 76  1  0  0  0
 74146  1  0  0  0
 74147  1  0  0  0
 75 84  1  0  0  0
 75148  1  0  0  0
 75149  1  0  0  0
 76 84  1  0  0  0
 76150  1  0  0  0
 77151  1  0  0  0
 77152  1  0  0  0
 77153  1  0  0  0
 77 81  1  0  0  0
 78 80  1  0  0  0
 78 81  1  0  0  0
 78154  1  0  0  0
 78155  1  0  0  0
 79 81  1  0  0  0
 79 83  1  0  0  0
 79156  1  0  0  0
 79157  1  0  0  0
 80158  1  0  0  0
 80159  1  0  0  0
 81160  1  0  0  0
 82 83  1  0  0  0
M  ISO  4   1 100  68 101  80 101  84 100
M  END
> <chiral flag>
0

> <version>
0

> <s_m_source_file>
/data/baiqing/PycharmProjects/Reinvent-master-3.2/result/LINK_invent/BTK/process_docking_weight1_custom_sum_contain_oxygen_bond_distance_aromatic_linkinvent_7_9_3/rearranged_h_0121.sdf

> <i_m_source_file_index>
10

> <r_mmod_Potential_Energy-OPLS-2005>
143.74137878418

> <r_mmod_Stretch_Energy-OPLS-2005>
58.6661949157715

> <r_mmod_Bend_Energy-OPLS-2005>
183.494232177734

> <r_mmod_Torsional_Energy-OPLS-2005>
305.653198242188

> <r_mmod_Improper_Torsional_Energy-OPLS-2005>
16.420581817627

> <r_mmod_Van_der_Waal_Energy-OPLS-2005>
134.224990844727

> <r_mmod_Electrostatic_Energy-OPLS-2005>
-371.925750732422

> <r_mmod_Solvation_Energy-OPLS-2005>
-213.791015625

> <b_mmod_Minimization_Converged-OPLS-2005>
0

> <r_mmod_RMS_Derivative-OPLS-2005>
2.10288500785828

$$$$
10
                    3D
 Structure written by MMmdl.
156165  0  0  1  0            999 V2000
  -30.6948  -14.7276   20.4657 C   0  0  0  0  0  0
  -30.4141  -12.4592   19.4627 C   0  0  0  0  0  0
  -29.4951  -12.4952   18.2269 C   0  0  0  0  0  0
  -28.0249  -12.3274   18.6527 C   0  0  0  0  0  0
  -27.6364  -13.2398   19.8485 C   0  0  2  0  0  0
  -28.6911  -13.1960   20.9750 C   0  0  0  0  0  0
  -25.2498  -13.8225   20.5739 C   0  0  0  0  0  0
  -24.1792  -13.0457   20.9225 C   0  0  0  0  0  0
  -24.6394  -11.6935   20.8772 C   0  0  0  0  0  0
  -23.9078  -10.4304   21.0415 C   0  0  0  0  0  0
  -24.3625   -9.4212   21.9188 C   0  0  0  0  0  0
  -23.6301   -8.2245   22.0750 C   0  0  0  0  0  0
  -22.4282   -8.0286   21.3540 C   0  0  0  0  0  0
  -21.9919   -9.0265   20.4648 C   0  0  0  0  0  0
  -22.7247  -10.2149   20.3066 C   0  0  0  0  0  0
  -21.6856   -6.0741   22.5279 C   0  0  0  0  0  0
  -21.4014   -6.5642   23.8214 C   0  0  0  0  0  0
  -21.3661   -5.6794   24.9173 C   0  0  0  0  0  0
  -21.6049   -4.3058   24.7224 C   0  0  0  0  0  0
  -21.8820   -3.8150   23.4347 C   0  0  0  0  0  0
  -21.9191   -4.6967   22.3402 C   0  0  0  0  0  0
  -22.7814  -13.5230   21.1873 C   0  0  0  0  0  0
  -22.1659   -4.2154   21.0978 F   0  0  0  0  0  0
  -21.5630   -3.4542   25.7737 F   0  0  0  0  0  0
  -29.9741  -13.5552   20.3618 N   0  0  0  0  0  0
  -26.2931  -12.9445   20.3340 N   0  0  0  0  0  0
  -25.9333  -11.6578   20.5813 N   0  0  0  0  0  0
  -22.0457  -12.8222   22.0430 N   0  0  0  0  0  0
  -25.4203  -15.1947   20.4157 N   0  0  0  0  0  0
  -31.9052  -14.6649   20.2280 O   0  0  0  0  0  0
  -21.6640   -6.8886   21.4242 O   0  0  0  0  0  0
  -22.3495  -14.5531   20.6717 O   0  0  0  0  0  0
  -24.6328  -31.8583   23.2038 C   0  0  0  0  0  0
  -25.9162  -32.4758   23.8371 C   0  0  1  0  0  0
  -27.2008  -27.2575   20.1110 C   0  0  0  0  0  0
  -25.5970  -33.8568   24.2275 N   0  0  0  0  0  0
  -23.4274  -30.4866   21.5496 C   0  0  2  0  0  0
  -24.8716  -28.9509   20.1062 C   0  0  0  0  0  0
  -22.7507  -29.4617   22.4929 C   0  0  0  0  0  0
  -18.0289  -28.1394   22.8475 C   0  0  0  0  0  0
  -24.1495  -36.7277   23.2625 C   0  0  0  0  0  0
  -25.9800  -30.7642   21.3949 C   0  0  0  0  0  0
  -26.0475  -29.3927   20.7263 C   0  0  0  0  0  0
  -27.2142  -28.5571   20.7257 C   0  0  0  0  0  0
  -26.0056  -26.9168   19.4276 C   0  0  0  0  0  0
  -24.8570  -27.7197   19.4465 C   0  0  0  0  0  0
  -23.6440  -29.8361   20.1619 C   0  0  0  0  0  0
  -25.4119  -36.3067   24.0318 C   0  0  1  0  0  0
  -20.5892  -28.3705   23.1261 C   0  0  2  0  0  0
  -20.6779  -26.9417   22.5415 C   0  0  0  0  0  0
  -19.5759  -26.6377   21.5211 C   0  0  0  0  0  0
  -18.1928  -26.7941   22.1604 C   0  0  0  0  0  0
  -19.1544  -28.8869   23.2861 C   0  0  0  0  0  0
  -18.9466  -30.1470   23.8886 C   0  0  0  0  0  0
  -17.6465  -30.6590   24.0564 C   0  0  0  0  0  0
  -25.9077  -34.9443   23.5097 C   0  0  0  0  0  0
  -16.5358  -29.9083   23.6341 C   0  0  0  0  0  0
  -16.7274  -28.6504   23.0358 C   0  0  0  0  0  0
  -26.4499  -31.6590   25.0777 C   0  0  0  0  0  0
  -25.3696  -31.3824   26.1486 C   0  0  0  0  0  0
  -27.0306  -30.2962   24.6348 C   0  0  0  0  0  0
  -27.6080  -32.4314   25.7535 C   0  0  0  0  0  0
  -27.5602  -37.1760   24.8433 C   0  0  0  0  0  0
  -21.4215  -29.3053   22.3658 N   0  0  0  0  0  0
  -26.4278  -37.3781   23.9433 N   0  0  0  0  0  0
  -24.6987  -31.0543   22.1033 N   0  0  0  0  0  0
  -23.4208  -28.8139   23.3014 O   0  0  0  0  0  0
  -28.2508  -26.3020   20.2017 O   0  0  0  0  0  0
  -26.5640  -34.8917   22.4660 O   0  0  0  0  0  0
  -23.5476  -32.1432   23.7317 O   0  0  0  0  0  0
  -28.5854  -21.4061   21.5189 C   0  0  0  0  0  0
  -28.2589  -22.7923   21.3877 C   0  0  0  0  0  0
  -29.6592  -21.5463   19.4111 C   0  0  0  0  0  0
  -29.2880  -20.7064   20.5014 C   0  0  0  0  0  0
  -28.6278  -23.5374   20.2374 C   0  0  0  0  0  0
  -28.6676  -18.1223   21.1388 C   0  0  0  0  0  0
  -30.2698  -18.4664   19.3846 C   0  0  0  0  0  0
  -29.1665  -16.6187   21.3612 C   0  0  0  0  0  0
  -30.8936  -17.0514   19.6571 C   0  0  0  0  0  0
  -29.7195  -19.1684   20.6458 C   0  0  0  0  0  0
  -27.8829  -24.8876   19.8335 C   0  0  0  0  0  0
  -29.3398  -22.8776   19.2777 N   0  0  0  0  0  0
  -30.0881  -15.9946   20.3585 N   0  0  0  0  0  0
  -31.4542  -12.5541   19.1471 H   0  0  0  0  0  0
  -30.3480  -11.4956   19.9705 H   0  0  0  0  0  0
  -29.7734  -11.7077   17.5252 H   0  0  0  0  0  0
  -29.6216  -13.4402   17.6969 H   0  0  0  0  0  0
  -27.8869  -11.2811   18.9289 H   0  0  0  0  0  0
  -27.3611  -12.5062   17.8060 H   0  0  0  0  0  0
  -27.6242  -14.2582   19.4584 H   0  0  0  0  0  0
  -28.7415  -12.2012   21.4199 H   0  0  0  0  0  0
  -28.4367  -13.8707   21.7900 H   0  0  0  0  0  0
  -25.2770   -9.5683   22.4769 H   0  0  0  0  0  0
  -24.0014   -7.4633   22.7466 H   0  0  0  0  0  0
  -21.0849   -8.8788   19.8958 H   0  0  0  0  0  0
  -22.3700  -10.9692   19.6188 H   0  0  0  0  0  0
  -21.2000   -7.6149   23.9721 H   0  0  0  0  0  0
  -21.1483   -6.0520   25.9076 H   0  0  0  0  0  0
  -22.0595   -2.7613   23.2845 H   0  0  0  0  0  0
  -22.4084  -11.9903   22.4836 H   0  0  0  0  0  0
  -21.1082  -13.1262   22.2644 H   0  0  0  0  0  0
  -24.6574  -15.8523   20.5345 H   0  0  0  0  0  0
  -26.2767  -15.6331   20.1012 H   0  0  0  0  0  0
  -26.7232  -32.5387   23.1116 H   0  0  0  0  0  0
  -25.0130  -33.9728   25.0422 H   0  0  0  0  0  0
  -22.7220  -31.3085   21.4104 H   0  0  0  0  0  0
  -23.3800  -35.9560   23.3208 H   0  0  0  0  0  0
  -24.3612  -36.8993   22.2059 H   0  0  0  0  0  0
  -23.7189  -37.6422   23.6715 H   0  0  0  0  0  0
  -26.1370  -31.5303   20.6348 H   0  0  0  0  0  0
  -26.8496  -30.7968   22.0396 H   0  0  0  0  0  0
  -28.1067  -28.8832   21.2416 H   0  0  0  0  0  0
  -25.8941  -25.9982   18.8739 H   0  0  0  0  0  0
  -23.9625  -27.3824   18.9415 H   0  0  0  0  0  0
  -23.7665  -30.6192   19.4129 H   0  0  0  0  0  0
  -22.7606  -29.2732   19.8543 H   0  0  0  0  0  0
  -25.1285  -36.1900   25.0803 H   0  0  0  0  0  0
  -20.9965  -28.3295   24.1391 H   0  0  0  0  0  0
  -20.5667  -26.2326   23.3629 H   0  0  0  0  0  0
  -21.6651  -26.7430   22.1220 H   0  0  0  0  0  0
  -19.6929  -25.6280   21.1264 H   0  0  0  0  0  0
  -19.6713  -27.3173   20.6734 H   0  0  0  0  0  0
  -17.4204  -26.6717   21.3996 H   0  0  0  0  0  0
  -18.0301  -26.0074   22.8983 H   0  0  0  0  0  0
  -19.7942  -30.7296   24.2248 H   0  0  0  0  0  0
  -17.5016  -31.6274   24.5159 H   0  0  0  0  0  0
  -15.5360  -30.2983   23.7679 H   0  0  0  0  0  0
  -15.8672  -28.0822   22.7083 H   0  0  0  0  0  0
  -24.5879  -30.7149   25.7840 H   0  0  0  0  0  0
  -24.8874  -32.3027   26.4790 H   0  0  0  0  0  0
  -25.7966  -30.9093   27.0336 H   0  0  0  0  0  0
  -26.2904  -29.6736   24.1308 H   0  0  0  0  0  0
  -27.3828  -29.7221   25.4930 H   0  0  0  0  0  0
  -27.8868  -30.4159   23.9712 H   0  0  0  0  0  0
  -27.2720  -33.3634   26.2092 H   0  0  0  0  0  0
  -28.3890  -32.6830   25.0350 H   0  0  0  0  0  0
  -28.0742  -31.8444   26.5458 H   0  0  0  0  0  0
  -28.2518  -38.0153   24.7603 H   0  0  0  0  0  0
  -28.1191  -36.2692   24.6069 H   0  0  0  0  0  0
  -27.2359  -37.1172   25.8838 H   0  0  0  0  0  0
  -20.9407  -29.8795   21.6875 H   0  0  0  0  0  0
  -26.0151  -38.2830   24.1525 H   0  0  0  0  0  0
  -28.2698  -20.8784   22.4067 H   0  0  0  0  0  0
  -27.6476  -23.2622   22.1461 H   0  0  0  0  0  0
  -30.2333  -21.1441   18.5906 H   0  0  0  0  0  0
  -28.2252  -18.4704   22.0724 H   0  0  0  0  0  0
  -27.8441  -18.1063   20.4235 H   0  0  0  0  0  0
  -29.4858  -18.3868   18.6298 H   0  0  0  0  0  0
  -31.0519  -19.0810   18.9392 H   0  0  0  0  0  0
  -28.2779  -15.9982   21.4570 H   0  0  0  0  0  0
  -29.6714  -16.5655   22.3263 H   0  0  0  0  0  0
  -31.8033  -17.2153   20.2390 H   0  0  0  0  0  0
  -31.2260  -16.6523   18.6964 H   0  0  0  0  0  0
  -30.5241  -19.1839   21.3821 H   0  0  0  0  0  0
  -26.8870  -24.6958   20.2336 H   0  0  0  0  0  0
  -27.7869  -24.8640   18.7467 H   0  0  0  0  0  0
  1 25  1  0  0  0
  1 30  2  0  0  0
  1 83  1  0  0  0
  2  3  1  0  0  0
  2 25  1  0  0  0
  2 84  1  0  0  0
  2 85  1  0  0  0
  3  4  1  0  0  0
  3 86  1  0  0  0
  3 87  1  0  0  0
  4  5  1  0  0  0
  4 88  1  0  0  0
  4 89  1  0  0  0
  5  6  1  0  0  0
  5 26  1  0  0  0
  5 90  1  0  0  0
  6 25  1  0  0  0
  6 91  1  0  0  0
  6 92  1  0  0  0
  7  8  2  0  0  0
  7 26  1  0  0  0
  7 29  1  0  0  0
  8  9  1  0  0  0
  8 22  1  0  0  0
  9 10  1  0  0  0
  9 27  2  0  0  0
 10 11  2  0  0  0
 10 15  1  0  0  0
 11 12  1  0  0  0
 11 93  1  0  0  0
 12 13  2  0  0  0
 12 94  1  0  0  0
 13 14  1  0  0  0
 13 31  1  0  0  0
 14 15  2  0  0  0
 14 95  1  0  0  0
 15 96  1  0  0  0
 16 17  2  0  0  0
 16 21  1  0  0  0
 16 31  1  0  0  0
 17 18  1  0  0  0
 17 97  1  0  0  0
 18 19  2  0  0  0
 18 98  1  0  0  0
 19 20  1  0  0  0
 19 24  1  0  0  0
 20 21  2  0  0  0
 20 99  1  0  0  0
 21 23  1  0  0  0
 22 28  1  0  0  0
 22 32  2  0  0  0
 26 27  1  0  0  0
 28100  1  0  0  0
 28101  1  0  0  0
 29102  1  0  0  0
 29103  1  0  0  0
 33 34  1  0  0  0
 33 66  1  0  0  0
 33 70  2  0  0  0
 34 36  1  0  0  0
 34 59  1  0  0  0
 34104  1  0  0  0
 35 44  2  0  0  0
 35 45  1  0  0  0
 35 68  1  0  0  0
 36 56  1  0  0  0
 36105  1  0  0  0
 37 39  1  0  0  0
 37 47  1  0  0  0
 37 66  1  0  0  0
 37106  1  0  0  0
 38 43  2  0  0  0
 38 46  1  0  0  0
 38 47  1  0  0  0
 39 64  1  0  0  0
 39 67  2  0  0  0
 40 52  1  0  0  0
 40 53  2  0  0  0
 40 58  1  0  0  0
 41107  1  0  0  0
 41108  1  0  0  0
 41109  1  0  0  0
 41 48  1  0  0  0
 42 43  1  0  0  0
 42 66  1  0  0  0
 42110  1  0  0  0
 42111  1  0  0  0
 43 44  1  0  0  0
 44112  1  0  0  0
 45 46  2  0  0  0
 45113  1  0  0  0
 46114  1  0  0  0
 47115  1  0  0  0
 47116  1  0  0  0
 48 56  1  0  0  0
 48 65  1  0  0  0
 48117  1  0  0  0
 49 50  1  0  0  0
 49 53  1  0  0  0
 49 64  1  0  0  0
 49118  1  0  0  0
 50 51  1  0  0  0
 50119  1  0  0  0
 50120  1  0  0  0
 51 52  1  0  0  0
 51121  1  0  0  0
 51122  1  0  0  0
 52123  1  0  0  0
 52124  1  0  0  0
 53 54  1  0  0  0
 54 55  2  0  0  0
 54125  1  0  0  0
 55 57  1  0  0  0
 55126  1  0  0  0
 56 69  2  0  0  0
 57 58  2  0  0  0
 57127  1  0  0  0
 58128  1  0  0  0
 59 60  1  0  0  0
 59 61  1  0  0  0
 59 62  1  0  0  0
 60129  1  0  0  0
 60130  1  0  0  0
 60131  1  0  0  0
 61132  1  0  0  0
 61133  1  0  0  0
 61134  1  0  0  0
 62135  1  0  0  0
 62136  1  0  0  0
 62137  1  0  0  0
 63 65  1  0  0  0
 63138  1  0  0  0
 63139  1  0  0  0
 63140  1  0  0  0
 64141  1  0  0  0
 65142  1  0  0  0
 68 81  1  0  0  0
 71 72  2  0  0  0
 71 74  1  0  0  0
 71143  1  0  0  0
 72 75  1  0  0  0
 72144  1  0  0  0
 73 74  2  0  0  0
 73 82  1  0  0  0
 73145  1  0  0  0
 74 80  1  0  0  0
 75 81  1  0  0  0
 75 82  2  0  0  0
 76 78  1  0  0  0
 76 80  1  0  0  0
 76146  1  0  0  0
 76147  1  0  0  0
 77 79  1  0  0  0
 77 80  1  0  0  0
 77148  1  0  0  0
 77149  1  0  0  0
 78 83  1  0  0  0
 78150  1  0  0  0
 78151  1  0  0  0
 79 83  1  0  0  0
 79152  1  0  0  0
 79153  1  0  0  0
 80154  1  0  0  0
 81155  1  0  0  0
 81156  1  0  0  0
M  ISO  4   1 100  68 101  81 101  83 100
M  END
> <chiral flag>
0

> <version>
0

> <s_m_source_file>
/data/baiqing/PycharmProjects/Reinvent-master-3.2/result/LINK_invent/BTK/process_docking_weight1_custom_sum_contain_oxygen_bond_distance_aromatic_linkinvent_7_9_3/rearranged_h_0121.sdf

> <i_m_source_file_index>
11

> <r_mmod_Potential_Energy-OPLS-2005>
325.050079345703

> <r_mmod_Stretch_Energy-OPLS-2005>
115.372146606445

> <r_mmod_Bend_Energy-OPLS-2005>
205.695434570312

> <r_mmod_Torsional_Energy-OPLS-2005>
320.147369384766

> <r_mmod_Improper_Torsional_Energy-OPLS-2005>
20.83376121521

> <r_mmod_Van_der_Waal_Energy-OPLS-2005>
164.398529052734

> <r_mmod_Electrostatic_Energy-OPLS-2005>
-386.725128173828

> <r_mmod_Solvation_Energy-OPLS-2005>
-211.654006958008

> <b_mmod_Minimization_Converged-OPLS-2005>
0

> <r_mmod_RMS_Derivative-OPLS-2005>
1.21854960918427

$$$$
11
                    3D
 Structure written by MMmdl.
169178  0  0  1  0            999 V2000
  -30.6704  -14.4690   20.5681 C   0  0  0  0  0  0
  -30.4343  -12.3132   19.3863 C   0  0  0  0  0  0
  -29.4954  -12.4958   18.1777 C   0  0  0  0  0  0
  -28.0222  -12.3325   18.6050 C   0  0  0  0  0  0
  -27.6735  -13.1405   19.8808 C   0  0  2  0  0  0
  -28.7292  -12.8803   20.9822 C   0  0  0  0  0  0
  -25.2481  -13.7233   20.4864 C   0  0  0  0  0  0
  -24.1878  -12.9935   20.9287 C   0  0  0  0  0  0
  -24.6519  -11.6469   20.9107 C   0  0  0  0  0  0
  -23.9079  -10.3995   21.0600 C   0  0  0  0  0  0
  -24.3621   -9.3938   21.9340 C   0  0  0  0  0  0
  -23.6238   -8.2068   22.0848 C   0  0  0  0  0  0
  -22.4228   -8.0204   21.3612 C   0  0  0  0  0  0
  -21.9903   -9.0168   20.4717 C   0  0  0  0  0  0
  -22.7291  -10.2002   20.3152 C   0  0  0  0  0  0
  -21.6802   -6.0707   22.5305 C   0  0  0  0  0  0
  -21.3980   -6.5632   23.8227 C   0  0  0  0  0  0
  -21.3649   -5.6791   24.9176 C   0  0  0  0  0  0
  -21.6032   -4.3054   24.7228 C   0  0  0  0  0  0
  -21.8816   -3.8152   23.4346 C   0  0  0  0  0  0
  -21.9185   -4.6952   22.3406 C   0  0  0  0  0  0
  -22.7914  -13.4934   21.1772 C   0  0  0  0  0  0
  -22.1682   -4.2147   21.0987 F   0  0  0  0  0  0
  -21.5616   -3.4545   25.7744 F   0  0  0  0  0  0
  -30.0165  -13.2829   20.4165 N   0  0  0  0  0  0
  -26.3136  -12.8634   20.3411 N   0  0  0  0  0  0
  -25.9471  -11.5919   20.6268 N   0  0  0  0  0  0
  -22.0441  -12.8169   22.0383 N   0  0  0  0  0  0
  -25.3535  -15.0292   20.0948 N   0  0  0  0  0  0
  -31.8449  -14.6123   20.2102 O   0  0  0  0  0  0
  -21.6580   -6.8845   21.4273 O   0  0  0  0  0  0
  -22.3711  -14.5177   20.6493 O   0  0  0  0  0  0
  -24.6030  -31.8709   23.2249 C   0  0  0  0  0  0
  -25.8944  -32.4798   23.8523 C   0  0  1  0  0  0
  -27.2069  -27.4755   20.0834 C   0  0  0  0  0  0
  -25.5903  -33.8635   24.2473 N   0  0  0  0  0  0
  -23.3829  -30.4963   21.5679 C   0  0  2  0  0  0
  -24.8264  -28.9824   20.1060 C   0  0  0  0  0  0
  -22.7277  -29.4564   22.5115 C   0  0  0  0  0  0
  -18.0203  -28.1595   22.8432 C   0  0  0  0  0  0
  -24.1509  -36.7336   23.2643 C   0  0  0  0  0  0
  -25.9037  -30.8501   21.3681 C   0  0  0  0  0  0
  -25.9836  -29.4849   20.7200 C   0  0  0  0  0  0
  -27.1702  -28.7245   20.7396 C   0  0  0  0  0  0
  -26.0598  -27.0050   19.4193 C   0  0  0  0  0  0
  -24.8576  -27.7360   19.4559 C   0  0  0  0  0  0
  -23.5794  -29.8384   20.1790 C   0  0  0  0  0  0
  -25.4102  -36.3119   24.0379 C   0  0  1  0  0  0
  -20.5663  -28.3700   23.1635 C   0  0  2  0  0  0
  -20.6324  -26.9216   22.6090 C   0  0  0  0  0  0
  -19.5861  -26.6544   21.5366 C   0  0  0  0  0  0
  -18.1815  -26.8432   22.1088 C   0  0  0  0  0  0
  -19.1395  -28.8971   23.3039 C   0  0  0  0  0  0
  -18.9345  -30.1467   23.9064 C   0  0  0  0  0  0
  -17.6378  -30.6635   24.0553 C   0  0  0  0  0  0
  -25.9014  -34.9424   23.5195 C   0  0  0  0  0  0
  -16.5197  -29.9158   23.6341 C   0  0  0  0  0  0
  -16.7203  -28.6508   23.0450 C   0  0  0  0  0  0
  -26.4364  -31.6490   25.0795 C   0  0  0  0  0  0
  -25.3658  -31.3535   26.1583 C   0  0  0  0  0  0
  -27.0175  -30.2977   24.5982 C   0  0  0  0  0  0
  -27.5954  -32.4171   25.7462 C   0  0  0  0  0  0
  -27.5602  -37.1816   24.8462 C   0  0  0  0  0  0
  -21.3933  -29.3111   22.4062 N   0  0  0  0  0  0
  -26.4315  -37.3783   23.9407 N   0  0  0  0  0  0
  -24.6502  -31.0746   22.1199 N   0  0  0  0  0  0
  -23.4124  -28.7822   23.2852 O   0  0  0  0  0  0
  -28.3196  -26.6787   20.1332 O   0  0  0  0  0  0
  -26.5464  -34.8886   22.4724 O   0  0  0  0  0  0
  -23.5249  -32.1433   23.7668 O   0  0  0  0  0  0
  -24.5138  -21.9876   20.7982 C   0  0  0  0  0  0
  -25.3783  -21.5175   23.0413 C   0  0  0  0  0  0
  -24.6655  -23.3629   21.0009 C   0  0  0  0  0  0
  -25.4859  -22.9021   23.2699 C   0  0  0  0  0  0
  -24.9710  -21.0678   21.7705 C   0  0  0  0  0  0
  -25.2594  -23.7985   22.1980 C   0  0  0  0  0  0
  -24.8235  -18.5458   22.2862 C   0  0  0  0  0  0
  -25.7579  -17.4287   21.8256 C   0  0  0  0  0  0
  -26.7961  -19.4128   21.1916 C   0  0  0  0  0  0
  -25.2686  -19.6484   21.3424 C   0  0  2  0  0  0
  -26.0104  -25.1039   22.1548 C   0  0  0  0  0  0
  -27.3696  -24.7856   21.4668 C   0  0  0  0  0  0
  -28.7790  -16.0613   21.4756 C   0  0  0  0  0  0
  -28.1019  -17.2964   20.8028 C   0  0  0  0  0  0
  -28.4118  -25.9237   21.3501 C   0  0  0  0  0  0
  -29.9491  -15.6064   20.6831 N   0  0  0  0  0  0
  -27.0939  -18.0272   21.6381 N   0  3  2  0  0  0
  -31.4760  -12.4332   19.0872 H   0  0  0  0  0  0
  -30.3586  -11.2879   19.7496 H   0  0  0  0  0  0
  -29.7323  -11.7754   17.3922 H   0  0  0  0  0  0
  -29.6535  -13.4843   17.7351 H   0  0  0  0  0  0
  -27.8384  -11.2772   18.7806 H   0  0  0  0  0  0
  -27.3579  -12.6160   17.7859 H   0  0  0  0  0  0
  -27.7374  -14.1918   19.6107 H   0  0  0  0  0  0
  -28.7609  -11.8136   21.2120 H   0  0  0  0  0  0
  -28.5398  -13.3597   21.9317 H   0  0  0  0  0  0
  -25.2774   -9.5339   22.4897 H   0  0  0  0  0  0
  -23.9904   -7.4413   22.7555 H   0  0  0  0  0  0
  -21.0840   -8.8699   19.9000 H   0  0  0  0  0  0
  -22.3832  -10.9566   19.6236 H   0  0  0  0  0  0
  -21.1993   -7.6138   23.9723 H   0  0  0  0  0  0
  -21.1472   -6.0523   25.9085 H   0  0  0  0  0  0
  -22.0615   -2.7605   23.2831 H   0  0  0  0  0  0
  -22.4074  -11.9876   22.4918 H   0  0  0  0  0  0
  -21.1100  -13.1303   22.2629 H   0  0  0  0  0  0
  -24.3929  -15.2852   19.9082 H   0  0  0  0  0  0
  -25.9071  -15.1052   19.2458 H   0  0  0  0  0  0
  -26.6975  -32.5504   23.1312 H   0  0  0  0  0  0
  -25.0259  -33.9804   25.0720 H   0  0  0  0  0  0
  -22.6737  -31.3135   21.4465 H   0  0  0  0  0  0
  -23.3761  -35.9688   23.3280 H   0  0  0  0  0  0
  -24.3637  -36.8931   22.2072 H   0  0  0  0  0  0
  -23.7274  -37.6563   23.6624 H   0  0  0  0  0  0
  -25.9742  -31.6133   20.5927 H   0  0  0  0  0  0
  -26.8097  -30.9285   21.9588 H   0  0  0  0  0  0
  -28.0464  -29.0785   21.2685 H   0  0  0  0  0  0
  -26.0825  -26.0441   18.9174 H   0  0  0  0  0  0
  -23.9741  -27.3411   18.9768 H   0  0  0  0  0  0
  -23.6629  -30.6186   19.4238 H   0  0  0  0  0  0
  -22.6979  -29.2574   19.9075 H   0  0  0  0  0  0
  -25.1270  -36.2043   25.0874 H   0  0  0  0  0  0
  -20.9512  -28.3403   24.1830 H   0  0  0  0  0  0
  -20.4253  -26.2247   23.4207 H   0  0  0  0  0  0
  -21.6296  -26.6678   22.2615 H   0  0  0  0  0  0
  -19.6738  -25.6439   21.1254 H   0  0  0  0  0  0
  -19.7538  -27.3419   20.7117 H   0  0  0  0  0  0
  -17.4652  -26.8316   21.3012 H   0  0  0  0  0  0
  -17.8898  -26.0183   22.7550 H   0  0  0  0  0  0
  -19.7832  -30.7180   24.2561 H   0  0  0  0  0  0
  -17.5159  -31.6331   24.5205 H   0  0  0  0  0  0
  -15.5183  -30.3116   23.7500 H   0  0  0  0  0  0
  -15.8750  -28.0593   22.7146 H   0  0  0  0  0  0
  -24.5829  -30.6860   25.7992 H   0  0  0  0  0  0
  -24.8836  -32.2675   26.5081 H   0  0  0  0  0  0
  -25.8069  -30.8739   27.0299 H   0  0  0  0  0  0
  -26.2751  -29.6796   24.0922 H   0  0  0  0  0  0
  -27.3923  -29.7053   25.4337 H   0  0  0  0  0  0
  -27.8529  -30.4371   23.9147 H   0  0  0  0  0  0
  -27.2597  -33.3432   26.2075 H   0  0  0  0  0  0
  -28.3658  -32.6741   25.0191 H   0  0  0  0  0  0
  -28.0681  -31.8275   26.5284 H   0  0  0  0  0  0
  -28.2591  -38.0139   24.7503 H   0  0  0  0  0  0
  -28.1128  -36.2650   24.6296 H   0  0  0  0  0  0
  -27.2300  -37.1488   25.8861 H   0  0  0  0  0  0
  -20.8926  -29.9833   21.8418 H   0  0  0  0  0  0
  -26.0216  -38.2895   24.1341 H   0  0  0  0  0  0
  -24.2012  -21.6444   19.8303 H   0  0  0  0  0  0
  -25.7720  -20.8256   23.7839 H   0  0  0  0  0  0
  -24.4778  -24.0423   20.1740 H   0  0  0  0  0  0
  -25.9378  -23.2312   24.1945 H   0  0  0  0  0  0
  -25.0076  -18.7959   23.3253 H   0  0  0  0  0  0
  -23.7673  -18.3074   22.1772 H   0  0  0  0  0  0
  -25.4045  -17.1936   20.8342 H   0  0  0  0  0  0
  -25.7316  -16.5477   22.4671 H   0  0  0  0  0  0
  -27.3585  -20.0754   21.8478 H   0  0  0  0  0  0
  -27.1108  -19.6395   20.1696 H   0  0  0  0  0  0
  -24.7791  -19.4718   20.3764 H   0  0  0  0  0  0
  -26.1416  -25.5072   23.1570 H   0  0  0  0  0  0
  -25.4083  -25.8374   21.6225 H   0  0  0  0  0  0
  -27.2159  -24.3272   20.4887 H   0  0  0  0  0  0
  -27.8002  -23.9813   22.0634 H   0  0  0  0  0  0
  -28.0129  -15.3025   21.5835 H   0  0  0  0  0  0
  -29.1167  -16.3183   22.4851 H   0  0  0  0  0  0
  -27.6336  -16.9964   19.8638 H   0  0  0  0  0  0
  -28.8872  -18.0009   20.5145 H   0  0  0  0  0  0
  -29.4116  -25.4743   21.3435 H   0  0  0  0  0  0
  -28.3816  -26.5687   22.2323 H   0  0  0  0  0  0
  -30.5273  -16.3849   20.3986 H   0  0  0  0  0  0
  -27.4908  -18.1413   22.5600 H   0  0  0  0  0  0
  1 25  1  0  0  0
  1 30  2  0  0  0
  1 86  1  0  0  0
  2  3  1  0  0  0
  2 25  1  0  0  0
  2 88  1  0  0  0
  2 89  1  0  0  0
  3  4  1  0  0  0
  3 90  1  0  0  0
  3 91  1  0  0  0
  4  5  1  0  0  0
  4 92  1  0  0  0
  4 93  1  0  0  0
  5  6  1  0  0  0
  5 26  1  0  0  0
  5 94  1  0  0  0
  6 25  1  0  0  0
  6 95  1  0  0  0
  6 96  1  0  0  0
  7  8  2  0  0  0
  7 26  1  0  0  0
  7 29  1  0  0  0
  8  9  1  0  0  0
  8 22  1  0  0  0
  9 10  1  0  0  0
  9 27  2  0  0  0
 10 11  2  0  0  0
 10 15  1  0  0  0
 11 12  1  0  0  0
 11 97  1  0  0  0
 12 13  2  0  0  0
 12 98  1  0  0  0
 13 14  1  0  0  0
 13 31  1  0  0  0
 14 15  2  0  0  0
 14 99  1  0  0  0
 15100  1  0  0  0
 16 17  2  0  0  0
 16 21  1  0  0  0
 16 31  1  0  0  0
 17 18  1  0  0  0
 17101  1  0  0  0
 18 19  2  0  0  0
 18102  1  0  0  0
 19 20  1  0  0  0
 19 24  1  0  0  0
 20 21  2  0  0  0
 20103  1  0  0  0
 21 23  1  0  0  0
 22 28  1  0  0  0
 22 32  2  0  0  0
 26 27  1  0  0  0
 28104  1  0  0  0
 28105  1  0  0  0
 29106  1  0  0  0
 29107  1  0  0  0
 33 34  1  0  0  0
 33 66  1  0  0  0
 33 70  2  0  0  0
 34 36  1  0  0  0
 34 59  1  0  0  0
 34108  1  0  0  0
 35 44  2  0  0  0
 35 45  1  0  0  0
 35 68  1  0  0  0
 36 56  1  0  0  0
 36109  1  0  0  0
 37 39  1  0  0  0
 37 47  1  0  0  0
 37 66  1  0  0  0
 37110  1  0  0  0
 38 43  2  0  0  0
 38 46  1  0  0  0
 38 47  1  0  0  0
 39 64  1  0  0  0
 39 67  2  0  0  0
 40 52  1  0  0  0
 40 53  2  0  0  0
 40 58  1  0  0  0
 41111  1  0  0  0
 41112  1  0  0  0
 41113  1  0  0  0
 41 48  1  0  0  0
 42 43  1  0  0  0
 42 66  1  0  0  0
 42114  1  0  0  0
 42115  1  0  0  0
 43 44  1  0  0  0
 44116  1  0  0  0
 45 46  2  0  0  0
 45117  1  0  0  0
 46118  1  0  0  0
 47119  1  0  0  0
 47120  1  0  0  0
 48 56  1  0  0  0
 48 65  1  0  0  0
 48121  1  0  0  0
 49 50  1  0  0  0
 49 53  1  0  0  0
 49 64  1  0  0  0
 49122  1  0  0  0
 50 51  1  0  0  0
 50123  1  0  0  0
 50124  1  0  0  0
 51 52  1  0  0  0
 51125  1  0  0  0
 51126  1  0  0  0
 52127  1  0  0  0
 52128  1  0  0  0
 53 54  1  0  0  0
 54 55  2  0  0  0
 54129  1  0  0  0
 55 57  1  0  0  0
 55130  1  0  0  0
 56 69  2  0  0  0
 57 58  2  0  0  0
 57131  1  0  0  0
 58132  1  0  0  0
 59 60  1  0  0  0
 59 61  1  0  0  0
 59 62  1  0  0  0
 60133  1  0  0  0
 60134  1  0  0  0
 60135  1  0  0  0
 61136  1  0  0  0
 61137  1  0  0  0
 61138  1  0  0  0
 62139  1  0  0  0
 62140  1  0  0  0
 62141  1  0  0  0
 63 65  1  0  0  0
 63142  1  0  0  0
 63143  1  0  0  0
 63144  1  0  0  0
 64145  1  0  0  0
 65146  1  0  0  0
 68 85  1  0  0  0
 71 73  2  0  0  0
 71 75  1  0  0  0
 71147  1  0  0  0
 72 74  1  0  0  0
 72 75  2  0  0  0
 72148  1  0  0  0
 73 76  1  0  0  0
 73149  1  0  0  0
 74 76  2  0  0  0
 74150  1  0  0  0
 75 80  1  0  0  0
 76 81  1  0  0  0
 77 78  1  0  0  0
 77 80  1  0  0  0
 77151  1  0  0  0
 77152  1  0  0  0
 78 87  1  0  0  0
 78153  1  0  0  0
 78154  1  0  0  0
 79 80  1  0  0  0
 79 87  1  0  0  0
 79155  1  0  0  0
 79156  1  0  0  0
 80157  1  0  0  0
 81 82  1  0  0  0
 81158  1  0  0  0
 81159  1  0  0  0
 82 85  1  0  0  0
 82160  1  0  0  0
 82161  1  0  0  0
 83 84  1  0  0  0
 83 86  1  0  0  0
 83162  1  0  0  0
 83163  1  0  0  0
 84164  1  0  0  0
 84165  1  0  0  0
 84 87  1  0  0  0
 85166  1  0  0  0
 85167  1  0  0  0
 86168  1  0  0  0
 87169  1  0  0  0
M  CHG  1  87   1
M  ISO  4   1 100  68 101  85 101  86 100
M  END
> <chiral flag>
0

> <version>
0

> <s_m_source_file>
/data/baiqing/PycharmProjects/Reinvent-master-3.2/result/LINK_invent/BTK/process_docking_weight1_custom_sum_contain_oxygen_bond_distance_aromatic_linkinvent_7_9_3/rearranged_h_0121.sdf

> <i_m_source_file_index>
12

> <r_mmod_Potential_Energy-OPLS-2005>
67.8682708740234

> <r_mmod_Stretch_Energy-OPLS-2005>
38.1500625610352

> <r_mmod_Bend_Energy-OPLS-2005>
177.779266357422

> <r_mmod_Torsional_Energy-OPLS-2005>
396.440368652344

> <r_mmod_Improper_Torsional_Energy-OPLS-2005>
28.2959289550781

> <r_mmod_Van_der_Waal_Energy-OPLS-2005>
160.014831542969

> <r_mmod_Electrostatic_Energy-OPLS-2005>
-332.985931396484

> <r_mmod_Solvation_Energy-OPLS-2005>
-437.847595214844

> <b_mmod_Minimization_Converged-OPLS-2005>
0

> <r_mmod_RMS_Derivative-OPLS-2005>
17.3759117126465

$$$$
12
                    3D
 Structure written by MMmdl.
184194  0  0  1  0            999 V2000
  -30.6988  -14.7102   20.3586 C   0  0  0  0  0  0
  -30.4310  -12.4387   19.4069 C   0  0  0  0  0  0
  -29.4851  -12.4461   18.1882 C   0  0  0  0  0  0
  -28.0174  -12.3053   18.6323 C   0  0  0  0  0  0
  -27.6395  -13.2358   19.8150 C   0  0  2  0  0  0
  -28.7097  -13.2332   20.9242 C   0  0  0  0  0  0
  -25.2576  -13.8244   20.5743 C   0  0  0  0  0  0
  -24.1864  -13.0490   20.9207 C   0  0  0  0  0  0
  -24.6465  -11.6956   20.8743 C   0  0  0  0  0  0
  -23.9151  -10.4331   21.0415 C   0  0  0  0  0  0
  -24.3677   -9.4208   21.9183 C   0  0  0  0  0  0
  -23.6324   -8.2271   22.0747 C   0  0  0  0  0  0
  -22.4302   -8.0326   21.3553 C   0  0  0  0  0  0
  -21.9970   -9.0315   20.4636 C   0  0  0  0  0  0
  -22.7339  -10.2179   20.3040 C   0  0  0  0  0  0
  -21.6880   -6.0776   22.5274 C   0  0  0  0  0  0
  -21.4032   -6.5670   23.8218 C   0  0  0  0  0  0
  -21.3619   -5.6811   24.9169 C   0  0  0  0  0  0
  -21.6016   -4.3080   24.7214 C   0  0  0  0  0  0
  -21.8841   -3.8179   23.4339 C   0  0  0  0  0  0
  -21.9204   -4.6994   22.3396 C   0  0  0  0  0  0
  -22.7845  -13.5199   21.1885 C   0  0  0  0  0  0
  -22.1665   -4.2178   21.0975 F   0  0  0  0  0  0
  -21.5584   -3.4553   25.7724 F   0  0  0  0  0  0
  -29.9922  -13.5379   20.2855 N   0  0  0  0  0  0
  -26.3003  -12.9457   20.3238 N   0  0  0  0  0  0
  -25.9395  -11.6596   20.5755 N   0  0  0  0  0  0
  -22.0539  -12.8137   22.0414 N   0  0  0  0  0  0
  -25.4368  -15.1987   20.4243 N   0  0  0  0  0  0
  -31.9286  -14.6681   20.4194 O   0  0  0  0  0  0
  -21.6639   -6.8932   21.4256 O   0  0  0  0  0  0
  -22.3487  -14.5511   20.6743 O   0  0  0  0  0  0
  -24.6255  -31.8666   23.1968 C   0  0  0  0  0  0
  -25.9076  -32.4833   23.8357 C   0  0  1  0  0  0
  -27.2405  -27.3195   20.0930 C   0  0  0  0  0  0
  -25.5864  -33.8629   24.2302 N   0  0  0  0  0  0
  -23.4242  -30.4814   21.5477 C   0  0  2  0  0  0
  -24.8752  -28.9436   20.1159 C   0  0  0  0  0  0
  -22.7496  -29.4621   22.4970 C   0  0  0  0  0  0
  -18.0279  -28.1364   22.8501 C   0  0  0  0  0  0
  -24.1490  -36.7341   23.2626 C   0  0  0  0  0  0
  -25.9676  -30.7957   21.3677 C   0  0  0  0  0  0
  -26.0491  -29.4215   20.7106 C   0  0  0  0  0  0
  -27.2377  -28.6265   20.6850 C   0  0  0  0  0  0
  -26.0334  -26.9000   19.4866 C   0  0  0  0  0  0
  -24.8687  -27.6869   19.4976 C   0  0  0  0  0  0
  -23.6376  -29.8144   20.1659 C   0  0  0  0  0  0
  -25.4110  -36.3142   24.0325 C   0  0  1  0  0  0
  -20.5880  -28.3703   23.1309 C   0  0  2  0  0  0
  -20.6775  -26.9427   22.5440 C   0  0  0  0  0  0
  -19.5749  -26.6379   21.5236 C   0  0  0  0  0  0
  -18.1916  -26.7915   22.1615 C   0  0  0  0  0  0
  -19.1534  -28.8844   23.2881 C   0  0  0  0  0  0
  -18.9450  -30.1425   23.8928 C   0  0  0  0  0  0
  -17.6458  -30.6581   24.0570 C   0  0  0  0  0  0
  -25.9040  -34.9495   23.5138 C   0  0  0  0  0  0
  -16.5350  -29.9103   23.6303 C   0  0  0  0  0  0
  -16.7266  -28.6490   23.0380 C   0  0  0  0  0  0
  -26.4420  -31.6611   25.0718 C   0  0  0  0  0  0
  -25.3620  -31.3762   26.1427 C   0  0  0  0  0  0
  -27.0183  -30.3001   24.6141 C   0  0  0  0  0  0
  -27.6018  -32.4322   25.7477 C   0  0  0  0  0  0
  -27.5606  -37.1806   24.8442 C   0  0  0  0  0  0
  -21.4204  -29.3056   22.3724 N   0  0  0  0  0  0
  -26.4313  -37.3818   23.9381 N   0  0  0  0  0  0
  -24.6929  -31.0622   22.0945 N   0  0  0  0  0  0
  -23.4219  -28.8157   23.3057 O   0  0  0  0  0  0
  -28.3631  -26.4657   20.0967 O   0  0  0  0  0  0
  -26.5677  -34.8979   22.4745 O   0  0  0  0  0  0
  -23.5402  -32.1468   23.7268 O   0  0  0  0  0  0
  -28.7287  -22.4342   20.5519 C   0  0  0  0  0  0
  -31.7423  -17.1562   18.4482 C   0  0  0  0  0  0
  -31.5519  -17.8331   19.8002 C   0  0  0  0  0  0
  -30.7410  -21.3505   21.6516 C   0  0  0  0  0  0
  -27.9927  -19.8406   18.0981 C   0  0  0  0  0  0
  -27.6259  -17.3997   18.1122 C   0  0  0  0  0  0
  -30.6961  -16.0304   18.4106 C   0  0  0  0  0  0
  -30.1692  -20.6206   22.8680 C   0  0  0  0  0  0
  -27.8810  -19.8444   16.5578 C   0  0  0  0  0  0
  -27.4641  -17.4028   16.5743 C   0  0  0  0  0  0
  -29.6801  -21.1524   20.5564 C   0  0  1  0  0  0
  -28.6095  -18.5080   18.5820 C   0  0  0  0  0  0
  -30.2299  -17.2768   20.3451 C   0  0  1  0  0  0
  -29.0038  -19.7398   20.9475 C   0  0  1  0  0  0
  -29.8551  -23.7716   18.7155 C   0  0  0  0  0  0
  -28.1025  -25.0023   20.1790 C   0  0  0  0  0  0
  -29.2369  -23.8760   20.1250 C   0  0  1  0  0  0
  -29.0293  -18.3526   20.0935 C   0  0  1  0  0  0
  -30.1349  -15.8514   19.7774 N   0  0  0  0  0  0
  -27.0501  -18.7261   16.0609 N   0  3  0  0  0  0
  -29.3786  -19.4895   22.3540 N   0  3  0  0  0  0
  -27.5581  -22.3063   20.9141 O   0  0  0  0  0  0
  -31.4604  -12.5642   19.0622 H   0  0  0  0  0  0
  -30.3923  -11.4845   19.9358 H   0  0  0  0  0  0
  -29.7407  -11.6333   17.5050 H   0  0  0  0  0  0
  -29.6004  -13.3676   17.6185 H   0  0  0  0  0  0
  -27.8629  -11.2640   18.9137 H   0  0  0  0  0  0
  -27.3522  -12.4916   17.7901 H   0  0  0  0  0  0
  -27.6178  -14.2402   19.3921 H   0  0  0  0  0  0
  -28.7557  -12.2699   21.4334 H   0  0  0  0  0  0
  -28.4809  -13.9855   21.6801 H   0  0  0  0  0  0
  -25.2855   -9.5607   22.4724 H   0  0  0  0  0  0
  -24.0010   -7.4637   22.7460 H   0  0  0  0  0  0
  -21.0908   -8.8867   19.8925 H   0  0  0  0  0  0
  -22.3868  -10.9706   19.6098 H   0  0  0  0  0  0
  -21.2062   -7.6184   23.9724 H   0  0  0  0  0  0
  -21.1375   -6.0540   25.9070 H   0  0  0  0  0  0
  -22.0652   -2.7639   23.2838 H   0  0  0  0  0  0
  -22.4269  -11.9773   22.4655 H   0  0  0  0  0  0
  -21.1128  -13.1005   22.2715 H   0  0  0  0  0  0
  -24.6936  -15.8671   20.5922 H   0  0  0  0  0  0
  -26.3121  -15.6349   20.1683 H   0  0  0  0  0  0
  -26.7173  -32.5530   23.1149 H   0  0  0  0  0  0
  -24.9888  -33.9791   25.0362 H   0  0  0  0  0  0
  -22.7171  -31.2990   21.3996 H   0  0  0  0  0  0
  -23.3778  -35.9639   23.3237 H   0  0  0  0  0  0
  -24.3577  -36.9022   22.2046 H   0  0  0  0  0  0
  -23.7218  -37.6504   23.6706 H   0  0  0  0  0  0
  -26.0872  -31.5537   20.5930 H   0  0  0  0  0  0
  -26.8493  -30.8600   21.9925 H   0  0  0  0  0  0
  -28.1471  -29.0003   21.1393 H   0  0  0  0  0  0
  -25.9375  -25.9555   18.9798 H   0  0  0  0  0  0
  -23.9682  -27.3120   19.0289 H   0  0  0  0  0  0
  -23.7397  -30.5879   19.4048 H   0  0  0  0  0  0
  -22.7626  -29.2241   19.8806 H   0  0  0  0  0  0
  -25.1268  -36.2030   25.0817 H   0  0  0  0  0  0
  -20.9932  -28.3304   24.1443 H   0  0  0  0  0  0
  -20.5711  -26.2317   23.3642 H   0  0  0  0  0  0
  -21.6660  -26.7486   22.1238 H   0  0  0  0  0  0
  -19.6955  -25.6293   21.1282 H   0  0  0  0  0  0
  -19.6713  -27.3188   20.6762 H   0  0  0  0  0  0
  -17.4224  -26.6700   21.3983 H   0  0  0  0  0  0
  -18.0250  -26.0025   22.8956 H   0  0  0  0  0  0
  -19.7926  -30.7177   24.2396 H   0  0  0  0  0  0
  -17.5024  -31.6274   24.5158 H   0  0  0  0  0  0
  -15.5357  -30.3036   23.7562 H   0  0  0  0  0  0
  -15.8645  -28.0788   22.7157 H   0  0  0  0  0  0
  -24.5951  -30.6907   25.7799 H   0  0  0  0  0  0
  -24.8587  -32.2893   26.4629 H   0  0  0  0  0  0
  -25.7930  -30.9193   27.0352 H   0  0  0  0  0  0
  -26.2705  -29.6820   24.1158 H   0  0  0  0  0  0
  -27.3804  -29.7193   25.4630 H   0  0  0  0  0  0
  -27.8640  -30.4174   23.9358 H   0  0  0  0  0  0
  -27.2675  -33.3669   26.1994 H   0  0  0  0  0  0
  -28.3852  -32.6799   25.0306 H   0  0  0  0  0  0
  -28.0654  -31.8471   26.5423 H   0  0  0  0  0  0
  -28.2608  -38.0130   24.7535 H   0  0  0  0  0  0
  -28.1136  -36.2657   24.6218 H   0  0  0  0  0  0
  -27.2327  -37.1401   25.8852 H   0  0  0  0  0  0
  -20.9394  -29.8765   21.6910 H   0  0  0  0  0  0
  -26.0223  -38.2904   24.1405 H   0  0  0  0  0  0
  -32.7571  -16.7631   18.3620 H   0  0  0  0  0  0
  -31.6074  -17.8474   17.6160 H   0  0  0  0  0  0
  -31.5589  -18.9201   19.7269 H   0  0  0  0  0  0
  -32.3739  -17.5550   20.4608 H   0  0  0  0  0  0
  -31.6925  -20.9097   21.3466 H   0  0  0  0  0  0
  -30.9489  -22.3962   21.8973 H   0  0  0  0  0  0
  -27.0266  -20.0295   18.5674 H   0  0  0  0  0  0
  -28.6252  -20.6855   18.3291 H   0  0  0  0  0  0
  -27.9386  -16.4077   18.4324 H   0  0  0  0  0  0
  -26.6549  -17.5365   18.5900 H   0  0  0  0  0  0
  -31.1389  -15.1232   17.9916 H   0  0  0  0  0  0
  -29.9233  -16.2774   17.6928 H   0  0  0  0  0  0
  -29.4968  -21.2749   23.4260 H   0  0  0  0  0  0
  -30.9529  -20.2793   23.5461 H   0  0  0  0  0  0
  -28.8805  -19.7606   16.1222 H   0  0  0  0  0  0
  -27.4733  -20.7946   16.2062 H   0  0  0  0  0  0
  -26.7299  -16.6569   16.2724 H   0  0  0  0  0  0
  -28.4042  -17.1183   16.0982 H   0  0  0  0  0  0
  -30.1840  -21.0733   19.5931 H   0  0  0  0  0  0
  -29.5314  -18.4558   18.0079 H   0  0  0  0  0  0
  -30.3360  -17.1656   21.4246 H   0  0  0  0  0  0
  -27.9363  -19.9430   21.0148 H   0  0  0  0  0  0
  -30.6587  -23.0323   18.6733 H   0  0  0  0  0  0
  -30.2790  -24.7218   18.3933 H   0  0  0  0  0  0
  -29.1069  -23.4821   17.9722 H   0  0  0  0  0  0
  -27.5593  -24.8753   21.1154 H   0  0  0  0  0  0
  -27.4284  -24.6965   19.3835 H   0  0  0  0  0  0
  -30.0183  -24.1607   20.8275 H   0  0  0  0  0  0
  -28.1808  -17.8293   20.5383 H   0  0  0  0  0  0
  -27.1145  -18.7050   15.0556 H   0  0  0  0  0  0
  -26.0852  -18.9025   16.2883 H   0  0  0  0  0  0
  -28.5543  -19.3632   22.9208 H   0  0  0  0  0  0
  -29.9390  -18.6569   22.4240 H   0  0  0  0  0  0
  1 25  1  0  0  0
  1 30  2  0  0  0
  1 89  1  0  0  0
  2  3  1  0  0  0
  2 25  1  0  0  0
  2 93  1  0  0  0
  2 94  1  0  0  0
  3  4  1  0  0  0
  3 95  1  0  0  0
  3 96  1  0  0  0
  4  5  1  0  0  0
  4 97  1  0  0  0
  4 98  1  0  0  0
  5  6  1  0  0  0
  5 26  1  0  0  0
  5 99  1  0  0  0
  6 25  1  0  0  0
  6100  1  0  0  0
  6101  1  0  0  0
  7  8  2  0  0  0
  7 26  1  0  0  0
  7 29  1  0  0  0
  8  9  1  0  0  0
  8 22  1  0  0  0
  9 10  1  0  0  0
  9 27  2  0  0  0
 10 11  2  0  0  0
 10 15  1  0  0  0
 11 12  1  0  0  0
 11102  1  0  0  0
 12 13  2  0  0  0
 12103  1  0  0  0
 13 14  1  0  0  0
 13 31  1  0  0  0
 14 15  2  0  0  0
 14104  1  0  0  0
 15105  1  0  0  0
 16 17  2  0  0  0
 16 21  1  0  0  0
 16 31  1  0  0  0
 17 18  1  0  0  0
 17106  1  0  0  0
 18 19  2  0  0  0
 18107  1  0  0  0
 19 20  1  0  0  0
 19 24  1  0  0  0
 20 21  2  0  0  0
 20108  1  0  0  0
 21 23  1  0  0  0
 22 28  1  0  0  0
 22 32  2  0  0  0
 26 27  1  0  0  0
 28109  1  0  0  0
 28110  1  0  0  0
 29111  1  0  0  0
 29112  1  0  0  0
 33 34  1  0  0  0
 33 66  1  0  0  0
 33 70  2  0  0  0
 34 36  1  0  0  0
 34 59  1  0  0  0
 34113  1  0  0  0
 35 44  2  0  0  0
 35 45  1  0  0  0
 35 68  1  0  0  0
 36 56  1  0  0  0
 36114  1  0  0  0
 37 39  1  0  0  0
 37 47  1  0  0  0
 37 66  1  0  0  0
 37115  1  0  0  0
 38 43  2  0  0  0
 38 46  1  0  0  0
 38 47  1  0  0  0
 39 64  1  0  0  0
 39 67  2  0  0  0
 40 52  1  0  0  0
 40 53  2  0  0  0
 40 58  1  0  0  0
 41116  1  0  0  0
 41117  1  0  0  0
 41118  1  0  0  0
 41 48  1  0  0  0
 42 43  1  0  0  0
 42 66  1  0  0  0
 42119  1  0  0  0
 42120  1  0  0  0
 43 44  1  0  0  0
 44121  1  0  0  0
 45 46  2  0  0  0
 45122  1  0  0  0
 46123  1  0  0  0
 47124  1  0  0  0
 47125  1  0  0  0
 48 56  1  0  0  0
 48 65  1  0  0  0
 48126  1  0  0  0
 49 50  1  0  0  0
 49 53  1  0  0  0
 49 64  1  0  0  0
 49127  1  0  0  0
 50 51  1  0  0  0
 50128  1  0  0  0
 50129  1  0  0  0
 51 52  1  0  0  0
 51130  1  0  0  0
 51131  1  0  0  0
 52132  1  0  0  0
 52133  1  0  0  0
 53 54  1  0  0  0
 54 55  2  0  0  0
 54134  1  0  0  0
 55 57  1  0  0  0
 55135  1  0  0  0
 56 69  2  0  0  0
 57 58  2  0  0  0
 57136  1  0  0  0
 58137  1  0  0  0
 59 60  1  0  0  0
 59 61  1  0  0  0
 59 62  1  0  0  0
 60138  1  0  0  0
 60139  1  0  0  0
 60140  1  0  0  0
 61141  1  0  0  0
 61142  1  0  0  0
 61143  1  0  0  0
 62144  1  0  0  0
 62145  1  0  0  0
 62146  1  0  0  0
 63 65  1  0  0  0
 63147  1  0  0  0
 63148  1  0  0  0
 63149  1  0  0  0
 64150  1  0  0  0
 65151  1  0  0  0
 68 86  1  0  0  0
 71 87  1  0  0  0
 71 92  2  0  0  0
 71 81  1  0  0  0
 72 73  1  0  0  0
 72 77  1  0  0  0
 72152  1  0  0  0
 72153  1  0  0  0
 73154  1  0  0  0
 73155  1  0  0  0
 73 83  1  0  0  0
 74 78  1  0  0  0
 74 81  1  0  0  0
 74156  1  0  0  0
 74157  1  0  0  0
 75 79  1  0  0  0
 75158  1  0  0  0
 75159  1  0  0  0
 75 82  1  0  0  0
 76 80  1  0  0  0
 76 82  1  0  0  0
 76160  1  0  0  0
 76161  1  0  0  0
 77 89  1  0  0  0
 77162  1  0  0  0
 77163  1  0  0  0
 78 91  1  0  0  0
 78164  1  0  0  0
 78165  1  0  0  0
 79 90  1  0  0  0
 79166  1  0  0  0
 79167  1  0  0  0
 80 90  1  0  0  0
 80168  1  0  0  0
 80169  1  0  0  0
 81 84  1  0  0  0
 81170  1  0  0  0
 82171  1  0  0  0
 82 88  1  0  0  0
 83 88  1  0  0  0
 83 89  1  0  0  0
 83172  1  0  0  0
 84 88  1  0  0  0
 84 91  1  0  0  0
 84173  1  0  0  0
 85174  1  0  0  0
 85175  1  0  0  0
 85176  1  0  0  0
 85 87  1  0  0  0
 86 87  1  0  0  0
 86177  1  0  0  0
 86178  1  0  0  0
 87179  1  0  0  0
 88180  1  0  0  0
 90181  1  0  0  0
 90182  1  0  0  0
 91183  1  0  0  0
 91184  1  0  0  0
M  CHG  2  90   1  91   1
M  ISO  4   1 100  68 101  86 101  89 100
M  END
> <chiral flag>
0

> <version>
0

> <s_m_source_file>
/data/baiqing/PycharmProjects/Reinvent-master-3.2/result/LINK_invent/BTK/process_docking_weight1_custom_sum_contain_oxygen_bond_distance_aromatic_linkinvent_7_9_3/rearranged_h_0121.sdf

> <i_m_source_file_index>
13

> <r_mmod_Potential_Energy-OPLS-2005>
340.128173828125

> <r_mmod_Stretch_Energy-OPLS-2005>
124.591171264648

> <r_mmod_Bend_Energy-OPLS-2005>
251.961196899414

> <r_mmod_Torsional_Energy-OPLS-2005>
510.124938964844

> <r_mmod_Improper_Torsional_Energy-OPLS-2005>
26.4123363494873

> <r_mmod_Van_der_Waal_Energy-OPLS-2005>
136.19108581543

> <r_mmod_Electrostatic_Energy-OPLS-2005>
139.724319458008

> <r_mmod_Solvation_Energy-OPLS-2005>
-938.66259765625

> <b_mmod_Minimization_Converged-OPLS-2005>
0

> <r_mmod_RMS_Derivative-OPLS-2005>
6.42615985870361

$$$$
13
                    3D
 Structure written by MMmdl.
161169  0  0  1  0            999 V2000
  -30.6146  -14.6135   20.5369 C   0  0  0  0  0  0
  -30.4516  -12.3810   19.4366 C   0  0  0  0  0  0
  -29.5102  -12.4948   18.2157 C   0  0  0  0  0  0
  -28.0315  -12.3350   18.6320 C   0  0  0  0  0  0
  -27.6555  -13.2021   19.8630 C   0  0  2  0  0  0
  -28.7036  -13.0364   20.9881 C   0  0  0  0  0  0
  -25.2579  -13.8135   20.5675 C   0  0  0  0  0  0
  -24.1827  -13.0426   20.9168 C   0  0  0  0  0  0
  -24.6373  -11.6892   20.8718 C   0  0  0  0  0  0
  -23.9040  -10.4277   21.0405 C   0  0  0  0  0  0
  -24.3587   -9.4196   21.9190 C   0  0  0  0  0  0
  -23.6261   -8.2230   22.0770 C   0  0  0  0  0  0
  -22.4244   -8.0263   21.3545 C   0  0  0  0  0  0
  -21.9866   -9.0253   20.4656 C   0  0  0  0  0  0
  -22.7199  -10.2138   20.3063 C   0  0  0  0  0  0
  -21.6839   -6.0706   22.5267 C   0  0  0  0  0  0
  -21.4016   -6.5616   23.8203 C   0  0  0  0  0  0
  -21.3672   -5.6770   24.9167 C   0  0  0  0  0  0
  -21.6050   -4.3035   24.7215 C   0  0  0  0  0  0
  -21.8816   -3.8128   23.4337 C   0  0  0  0  0  0
  -21.9191   -4.6940   22.3395 C   0  0  0  0  0  0
  -22.7846  -13.5245   21.1825 C   0  0  0  0  0  0
  -22.1648   -4.2126   21.0970 F   0  0  0  0  0  0
  -21.5657   -3.4515   25.7737 F   0  0  0  0  0  0
  -30.0184  -13.3875   20.4220 N   0  0  0  0  0  0
  -26.2990  -12.9284   20.3285 N   0  0  0  0  0  0
  -25.9290  -11.6461   20.5718 N   0  0  0  0  0  0
  -22.0457  -12.8283   22.0393 N   0  0  0  0  0  0
  -25.4307  -15.1860   20.4154 N   0  0  0  0  0  0
  -31.7947  -14.8011   20.2129 O   0  0  0  0  0  0
  -21.6622   -6.8848   21.4229 O   0  0  0  0  0  0
  -22.3553  -14.5552   20.6672 O   0  0  0  0  0  0
  -24.6268  -31.8627   23.2047 C   0  0  0  0  0  0
  -25.9128  -32.4779   23.8384 C   0  0  1  0  0  0
  -27.2206  -27.3409   20.1160 C   0  0  0  0  0  0
  -25.5937  -33.8584   24.2284 N   0  0  0  0  0  0
  -23.4169  -30.4879   21.5493 C   0  0  2  0  0  0
  -24.8598  -28.9492   20.1129 C   0  0  0  0  0  0
  -22.7494  -29.4630   22.4978 C   0  0  0  0  0  0
  -18.0286  -28.1396   22.8483 C   0  0  0  0  0  0
  -24.1488  -36.7287   23.2644 C   0  0  0  0  0  0
  -25.9572  -30.8031   21.3708 C   0  0  0  0  0  0
  -26.0297  -29.4330   20.7118 C   0  0  0  0  0  0
  -27.2128  -28.6425   20.6992 C   0  0  0  0  0  0
  -26.0214  -26.9024   19.5035 C   0  0  0  0  0  0
  -24.8569  -27.6890   19.4996 C   0  0  0  0  0  0
  -23.6283  -29.8250   20.1631 C   0  0  0  0  0  0
  -25.4114  -36.3072   24.0329 C   0  0  1  0  0  0
  -20.5893  -28.3679   23.1299 C   0  0  2  0  0  0
  -20.6773  -26.9411   22.5400 C   0  0  0  0  0  0
  -19.5735  -26.6386   21.5219 C   0  0  0  0  0  0
  -18.1919  -26.7933   22.1631 C   0  0  0  0  0  0
  -19.1545  -28.8868   23.2869 C   0  0  0  0  0  0
  -18.9458  -30.1478   23.8871 C   0  0  0  0  0  0
  -17.6452  -30.6583   24.0573 C   0  0  0  0  0  0
  -25.9050  -34.9444   23.5097 C   0  0  0  0  0  0
  -16.5349  -29.9076   23.6342 C   0  0  0  0  0  0
  -16.7275  -28.6516   23.0333 C   0  0  0  0  0  0
  -26.4516  -31.6594   25.0749 C   0  0  0  0  0  0
  -25.3774  -31.3711   26.1496 C   0  0  0  0  0  0
  -27.0379  -30.3035   24.6172 C   0  0  0  0  0  0
  -27.6082  -32.4349   25.7500 C   0  0  0  0  0  0
  -27.5577  -37.1801   24.8464 C   0  0  0  0  0  0
  -21.4219  -29.3035   22.3709 N   0  0  0  0  0  0
  -26.4281  -37.3773   23.9420 N   0  0  0  0  0  0
  -24.6856  -31.0666   22.0984 N   0  0  0  0  0  0
  -23.4236  -28.8177   23.3043 O   0  0  0  0  0  0
  -28.3561  -26.5212   20.1725 O   0  0  0  0  0  0
  -26.5611  -34.8919   22.4649 O   0  0  0  0  0  0
  -23.5429  -32.1442   23.7356 O   0  0  0  0  0  0
  -29.0825  -18.0302   23.4552 C   0  0  0  0  0  0
  -29.4192  -19.2570   22.8680 C   0  0  0  0  0  0
  -29.2855  -16.8494   22.7231 C   0  0  0  0  0  0
  -29.9460  -19.2820   21.5657 C   0  0  0  0  0  0
  -29.8038  -16.8957   21.4134 C   0  0  0  0  0  0
  -31.7706  -20.5006   20.2589 C   0  0  0  0  0  0
  -28.3023  -24.6854   18.5363 C   0  0  0  0  0  0
  -29.4346  -21.6308   20.2794 C   0  0  0  0  0  0
  -29.2276  -24.1873   20.8466 C   0  0  0  0  0  0
  -30.4449  -20.6598   21.0208 C   0  0  1  0  0  0
  -28.2024  -25.0605   20.0250 C   0  0  1  0  0  0
  -30.0966  -18.1159   20.8402 N   0  0  0  0  0  0
  -29.7241  -15.6284   20.7293 N   0  0  0  0  0  0
  -28.8330  -22.7453   21.1028 N   0  3  0  0  0  0
  -31.4902  -12.5224   19.1308 H   0  0  0  0  0  0
  -30.3985  -11.3837   19.8729 H   0  0  0  0  0  0
  -29.7698  -11.7417   17.4700 H   0  0  0  0  0  0
  -29.6532  -13.4619   17.7326 H   0  0  0  0  0  0
  -27.8681  -11.2806   18.8612 H   0  0  0  0  0  0
  -27.3756  -12.5675   17.7922 H   0  0  0  0  0  0
  -27.6767  -14.2374   19.5255 H   0  0  0  0  0  0
  -28.7141  -12.0057   21.3484 H   0  0  0  0  0  0
  -28.4552  -13.6490   21.8584 H   0  0  0  0  0  0
  -25.2735   -9.5680   22.4761 H   0  0  0  0  0  0
  -23.9968   -7.4621   22.7502 H   0  0  0  0  0  0
  -21.0782   -8.8772   19.8970 H   0  0  0  0  0  0
  -22.3638  -10.9680   19.6182 H   0  0  0  0  0  0
  -21.1992   -7.6124   23.9693 H   0  0  0  0  0  0
  -21.1502   -6.0502   25.9068 H   0  0  0  0  0  0
  -22.0583   -2.7581   23.2838 H   0  0  0  0  0  0
  -22.3995  -11.9956   22.4865 H   0  0  0  0  0  0
  -21.1100  -13.1418   22.2576 H   0  0  0  0  0  0
  -24.6668  -15.8392   20.5498 H   0  0  0  0  0  0
  -26.2716  -15.6328   20.0760 H   0  0  0  0  0  0
  -26.7209  -32.5457   23.1158 H   0  0  0  0  0  0
  -25.0138  -33.9736   25.0461 H   0  0  0  0  0  0
  -22.7092  -31.3079   21.4082 H   0  0  0  0  0  0
  -23.3735  -35.9628   23.3292 H   0  0  0  0  0  0
  -24.3583  -36.8917   22.2060 H   0  0  0  0  0  0
  -23.7249  -37.6487   23.6680 H   0  0  0  0  0  0
  -26.0874  -31.5673   20.6032 H   0  0  0  0  0  0
  -26.8393  -30.8501   21.9977 H   0  0  0  0  0  0
  -28.1126  -29.0107   21.1728 H   0  0  0  0  0  0
  -25.9389  -25.9369   19.0320 H   0  0  0  0  0  0
  -23.9589  -27.3096   19.0335 H   0  0  0  0  0  0
  -23.7512  -30.6020   19.4081 H   0  0  0  0  0  0
  -22.7499  -29.2547   19.8570 H   0  0  0  0  0  0
  -25.1285  -36.1913   25.0816 H   0  0  0  0  0  0
  -20.9964  -28.3229   24.1432 H   0  0  0  0  0  0
  -20.5689  -26.2295   23.3597 H   0  0  0  0  0  0
  -21.6642  -26.7439   22.1197 H   0  0  0  0  0  0
  -19.6878  -25.6297   21.1250 H   0  0  0  0  0  0
  -19.6656  -27.3205   20.6761 H   0  0  0  0  0  0
  -17.4190  -26.6692   21.4028 H   0  0  0  0  0  0
  -18.0293  -26.0089   22.9041 H   0  0  0  0  0  0
  -19.7933  -30.7313   24.2217 H   0  0  0  0  0  0
  -17.5000  -31.6262   24.5178 H   0  0  0  0  0  0
  -15.5345  -30.2953   23.7703 H   0  0  0  0  0  0
  -15.8679  -28.0835   22.7019 H   0  0  0  0  0  0
  -24.5918  -30.7089   25.7822 H   0  0  0  0  0  0
  -24.9016  -32.2880   26.5003 H   0  0  0  0  0  0
  -25.8143  -30.8831   27.0223 H   0  0  0  0  0  0
  -26.2953  -29.6771   24.1225 H   0  0  0  0  0  0
  -27.4134  -29.7295   25.4652 H   0  0  0  0  0  0
  -27.8787  -30.4336   23.9357 H   0  0  0  0  0  0
  -27.2687  -33.3641   26.2093 H   0  0  0  0  0  0
  -28.3877  -32.6946   25.0323 H   0  0  0  0  0  0
  -28.0789  -31.8490   26.5403 H   0  0  0  0  0  0
  -28.2595  -38.0105   24.7518 H   0  0  0  0  0  0
  -28.1072  -36.2636   24.6257 H   0  0  0  0  0  0
  -27.2303  -37.1399   25.8872 H   0  0  0  0  0  0
  -20.9416  -29.8774   21.6925 H   0  0  0  0  0  0
  -26.0142  -38.2838   24.1425 H   0  0  0  0  0  0
  -28.6792  -17.9960   24.4588 H   0  0  0  0  0  0
  -29.2983  -20.1691   23.4384 H   0  0  0  0  0  0
  -29.0060  -15.9073   23.1737 H   0  0  0  0  0  0
  -32.5015  -19.9618   20.8646 H   0  0  0  0  0  0
  -32.2064  -21.4684   20.0091 H   0  0  0  0  0  0
  -31.6299  -19.9451   19.3312 H   0  0  0  0  0  0
  -27.6759  -25.3087   17.9001 H   0  0  0  0  0  0
  -27.9967  -23.6509   18.3783 H   0  0  0  0  0  0
  -29.3270  -24.7926   18.1812 H   0  0  0  0  0  0
  -28.6230  -21.0359   19.8576 H   0  0  0  0  0  0
  -29.9314  -22.0855   19.4208 H   0  0  0  0  0  0
  -29.2986  -24.6438   21.8352 H   0  0  0  0  0  0
  -30.2349  -24.2525   20.4322 H   0  0  0  0  0  0
  -30.7474  -21.2032   21.9155 H   0  0  0  0  0  0
  -27.2184  -24.7831   20.4051 H   0  0  0  0  0  0
  -28.7990  -15.2374   20.7811 H   0  0  0  0  0  0
  -29.0431  -22.5482   22.0695 H   0  0  0  0  0  0
  -27.8293  -22.6789   21.0295 H   0  0  0  0  0  0
  1 25  1  0  0  0
  1 30  2  0  0  0
  1 83  1  0  0  0
  2  3  1  0  0  0
  2 25  1  0  0  0
  2 85  1  0  0  0
  2 86  1  0  0  0
  3  4  1  0  0  0
  3 87  1  0  0  0
  3 88  1  0  0  0
  4  5  1  0  0  0
  4 89  1  0  0  0
  4 90  1  0  0  0
  5  6  1  0  0  0
  5 26  1  0  0  0
  5 91  1  0  0  0
  6 25  1  0  0  0
  6 92  1  0  0  0
  6 93  1  0  0  0
  7  8  2  0  0  0
  7 26  1  0  0  0
  7 29  1  0  0  0
  8  9  1  0  0  0
  8 22  1  0  0  0
  9 10  1  0  0  0
  9 27  2  0  0  0
 10 11  2  0  0  0
 10 15  1  0  0  0
 11 12  1  0  0  0
 11 94  1  0  0  0
 12 13  2  0  0  0
 12 95  1  0  0  0
 13 14  1  0  0  0
 13 31  1  0  0  0
 14 15  2  0  0  0
 14 96  1  0  0  0
 15 97  1  0  0  0
 16 17  2  0  0  0
 16 21  1  0  0  0
 16 31  1  0  0  0
 17 18  1  0  0  0
 17 98  1  0  0  0
 18 19  2  0  0  0
 18 99  1  0  0  0
 19 20  1  0  0  0
 19 24  1  0  0  0
 20 21  2  0  0  0
 20100  1  0  0  0
 21 23  1  0  0  0
 22 28  1  0  0  0
 22 32  2  0  0  0
 26 27  1  0  0  0
 28101  1  0  0  0
 28102  1  0  0  0
 29103  1  0  0  0
 29104  1  0  0  0
 33 34  1  0  0  0
 33 66  1  0  0  0
 33 70  2  0  0  0
 34 36  1  0  0  0
 34 59  1  0  0  0
 34105  1  0  0  0
 35 44  2  0  0  0
 35 45  1  0  0  0
 35 68  1  0  0  0
 36 56  1  0  0  0
 36106  1  0  0  0
 37 39  1  0  0  0
 37 47  1  0  0  0
 37 66  1  0  0  0
 37107  1  0  0  0
 38 43  2  0  0  0
 38 46  1  0  0  0
 38 47  1  0  0  0
 39 64  1  0  0  0
 39 67  2  0  0  0
 40 52  1  0  0  0
 40 53  2  0  0  0
 40 58  1  0  0  0
 41108  1  0  0  0
 41109  1  0  0  0
 41110  1  0  0  0
 41 48  1  0  0  0
 42 43  1  0  0  0
 42 66  1  0  0  0
 42111  1  0  0  0
 42112  1  0  0  0
 43 44  1  0  0  0
 44113  1  0  0  0
 45 46  2  0  0  0
 45114  1  0  0  0
 46115  1  0  0  0
 47116  1  0  0  0
 47117  1  0  0  0
 48 56  1  0  0  0
 48 65  1  0  0  0
 48118  1  0  0  0
 49 50  1  0  0  0
 49 53  1  0  0  0
 49 64  1  0  0  0
 49119  1  0  0  0
 50 51  1  0  0  0
 50120  1  0  0  0
 50121  1  0  0  0
 51 52  1  0  0  0
 51122  1  0  0  0
 51123  1  0  0  0
 52124  1  0  0  0
 52125  1  0  0  0
 53 54  1  0  0  0
 54 55  2  0  0  0
 54126  1  0  0  0
 55 57  1  0  0  0
 55127  1  0  0  0
 56 69  2  0  0  0
 57 58  2  0  0  0
 57128  1  0  0  0
 58129  1  0  0  0
 59 60  1  0  0  0
 59 61  1  0  0  0
 59 62  1  0  0  0
 60130  1  0  0  0
 60131  1  0  0  0
 60132  1  0  0  0
 61133  1  0  0  0
 61134  1  0  0  0
 61135  1  0  0  0
 62136  1  0  0  0
 62137  1  0  0  0
 62138  1  0  0  0
 63 65  1  0  0  0
 63139  1  0  0  0
 63140  1  0  0  0
 63141  1  0  0  0
 64142  1  0  0  0
 65143  1  0  0  0
 68 81  1  0  0  0
 71 72  2  0  0  0
 71 73  1  0  0  0
 71144  1  0  0  0
 72 74  1  0  0  0
 72145  1  0  0  0
 73 75  2  0  0  0
 73146  1  0  0  0
 74 80  1  0  0  0
 74 82  2  0  0  0
 75 82  1  0  0  0
 75 83  1  0  0  0
 76147  1  0  0  0
 76148  1  0  0  0
 76149  1  0  0  0
 76 80  1  0  0  0
 77150  1  0  0  0
 77151  1  0  0  0
 77152  1  0  0  0
 77 81  1  0  0  0
 78 80  1  0  0  0
 78 84  1  0  0  0
 78153  1  0  0  0
 78154  1  0  0  0
 79 81  1  0  0  0
 79 84  1  0  0  0
 79155  1  0  0  0
 79156  1  0  0  0
 80157  1  0  0  0
 81158  1  0  0  0
 83159  1  0  0  0
 84160  1  0  0  0
 84161  1  0  0  0
M  CHG  1  84   1
M  ISO  4   1 100  68 101  81 101  83 100
M  END
> <chiral flag>
0

> <version>
0

> <s_m_source_file>
/data/baiqing/PycharmProjects/Reinvent-master-3.2/result/LINK_invent/BTK/process_docking_weight1_custom_sum_contain_oxygen_bond_distance_aromatic_linkinvent_7_9_3/rearranged_h_0121.sdf

> <i_m_source_file_index>
14

> <r_mmod_Potential_Energy-OPLS-2005>
-205.031051635742

> <r_mmod_Stretch_Energy-OPLS-2005>
68.9636154174805

> <r_mmod_Bend_Energy-OPLS-2005>
147.554168701172

> <r_mmod_Torsional_Energy-OPLS-2005>
283.997009277344

> <r_mmod_Improper_Torsional_Energy-OPLS-2005>
11.5405511856079

> <r_mmod_Van_der_Waal_Energy-OPLS-2005>
144.489776611328

> <r_mmod_Electrostatic_Energy-OPLS-2005>
-427.357452392578

> <r_mmod_Solvation_Energy-OPLS-2005>
-476.438781738281

> <b_mmod_Minimization_Converged-OPLS-2005>
0

> <r_mmod_RMS_Derivative-OPLS-2005>
3.33970880508423

$$$$
14
                    3D
 Structure written by MMmdl.
170179  0  0  1  0            999 V2000
  -30.6678  -14.5605   20.5716 C   0  0  0  0  0  0
  -30.4326  -12.3670   19.4259 C   0  0  0  0  0  0
  -29.5005  -12.5095   18.2044 C   0  0  0  0  0  0
  -28.0214  -12.3604   18.6177 C   0  0  0  0  0  0
  -27.6543  -13.2158   19.8604 C   0  0  2  0  0  0
  -28.6970  -13.0359   20.9839 C   0  0  0  0  0  0
  -25.2571  -13.8171   20.5673 C   0  0  0  0  0  0
  -24.1839  -13.0440   20.9189 C   0  0  0  0  0  0
  -24.6398  -11.6905   20.8722 C   0  0  0  0  0  0
  -23.9068  -10.4286   21.0407 C   0  0  0  0  0  0
  -24.3623   -9.4203   21.9184 C   0  0  0  0  0  0
  -23.6294   -8.2245   22.0756 C   0  0  0  0  0  0
  -22.4277   -8.0282   21.3553 C   0  0  0  0  0  0
  -21.9915   -9.0254   20.4654 C   0  0  0  0  0  0
  -22.7247  -10.2125   20.3056 C   0  0  0  0  0  0
  -21.6849   -6.0733   22.5287 C   0  0  0  0  0  0
  -21.4016   -6.5640   23.8214 C   0  0  0  0  0  0
  -21.3655   -5.6797   24.9182 C   0  0  0  0  0  0
  -21.6039   -4.3059   24.7232 C   0  0  0  0  0  0
  -21.8818   -3.8149   23.4360 C   0  0  0  0  0  0
  -21.9191   -4.6962   22.3411 C   0  0  0  0  0  0
  -22.7865  -13.5236   21.1859 C   0  0  0  0  0  0
  -22.1663   -4.2149   21.0992 F   0  0  0  0  0  0
  -21.5621   -3.4544   25.7745 F   0  0  0  0  0  0
  -30.0152  -13.3712   20.4207 N   0  0  0  0  0  0
  -26.2997  -12.9350   20.3296 N   0  0  0  0  0  0
  -25.9329  -11.6503   20.5734 N   0  0  0  0  0  0
  -22.0502  -12.8214   22.0400 N   0  0  0  0  0  0
  -25.4308  -15.1891   20.4101 N   0  0  0  0  0  0
  -31.8220  -14.7358   20.1756 O   0  0  0  0  0  0
  -21.6640   -6.8881   21.4246 O   0  0  0  0  0  0
  -22.3554  -14.5547   20.6717 O   0  0  0  0  0  0
  -24.6234  -31.8624   23.2069 C   0  0  0  0  0  0
  -25.9090  -32.4795   23.8377 C   0  0  1  0  0  0
  -27.2284  -27.3488   20.1051 C   0  0  0  0  0  0
  -25.5928  -33.8592   24.2315 N   0  0  0  0  0  0
  -23.4162  -30.4888   21.5474 C   0  0  2  0  0  0
  -24.8650  -28.9535   20.1116 C   0  0  0  0  0  0
  -22.7463  -29.4629   22.4918 C   0  0  0  0  0  0
  -18.0283  -28.1347   22.8488 C   0  0  0  0  0  0
  -24.1487  -36.7297   23.2640 C   0  0  0  0  0  0
  -25.9576  -30.8018   21.3759 C   0  0  0  0  0  0
  -26.0344  -29.4335   20.7148 C   0  0  0  0  0  0
  -27.2200  -28.6437   20.7023 C   0  0  0  0  0  0
  -26.0318  -26.9220   19.4765 C   0  0  0  0  0  0
  -24.8649  -27.7021   19.4842 C   0  0  0  0  0  0
  -23.6303  -29.8270   20.1622 C   0  0  0  0  0  0
  -25.4111  -36.3104   24.0342 C   0  0  1  0  0  0
  -20.5894  -28.3649   23.1273 C   0  0  2  0  0  0
  -20.6759  -26.9362   22.5402 C   0  0  0  0  0  0
  -19.5727  -26.6355   21.5205 C   0  0  0  0  0  0
  -18.1915  -26.7899   22.1627 C   0  0  0  0  0  0
  -19.1550  -28.8803   23.2880 C   0  0  0  0  0  0
  -18.9470  -30.1399   23.8897 C   0  0  0  0  0  0
  -17.6475  -30.6555   24.0539 C   0  0  0  0  0  0
  -25.9047  -34.9468   23.5123 C   0  0  0  0  0  0
  -16.5364  -29.9041   23.6320 C   0  0  0  0  0  0
  -16.7275  -28.6457   23.0352 C   0  0  0  0  0  0
  -26.4487  -31.6597   25.0734 C   0  0  0  0  0  0
  -25.3713  -31.3732   26.1450 C   0  0  0  0  0  0
  -27.0308  -30.3030   24.6149 C   0  0  0  0  0  0
  -27.6052  -32.4333   25.7505 C   0  0  0  0  0  0
  -27.5584  -37.1802   24.8471 C   0  0  0  0  0  0
  -21.4186  -29.3031   22.3676 N   0  0  0  0  0  0
  -26.4295  -37.3792   23.9415 N   0  0  0  0  0  0
  -24.6849  -31.0652   22.1009 N   0  0  0  0  0  0
  -23.4217  -28.8129   23.2948 O   0  0  0  0  0  0
  -28.3490  -26.5069   20.1584 O   0  0  0  0  0  0
  -26.5600  -34.8926   22.4682 O   0  0  0  0  0  0
  -23.5406  -32.1390   23.7418 O   0  0  0  0  0  0
  -29.1882  -20.6835   19.1744 C   0  0  0  0  0  0
  -29.7906  -19.4512   19.1646 C   0  0  0  0  0  0
  -29.8874  -20.2618   21.2361 C   0  0  0  0  0  0
  -29.2265  -21.2311   20.4899 C   0  0  0  0  0  0
  -32.4651  -18.4821   21.2624 C   0  0  0  0  0  0
  -33.1059  -17.7612   22.4521 C   0  0  0  0  0  0
  -31.1606  -16.4666   23.0260 C   0  0  0  0  0  0
  -31.0755  -17.9543   20.7887 C   0  0  1  0  0  0
  -30.3881  -16.8606   21.7309 C   0  0  1  0  0  0
  -27.1605  -21.6165   22.7742 C   0  0  0  0  0  0
  -29.1561  -23.9704   20.4786 C   0  0  0  0  0  0
  -28.0668  -25.0627   20.1209 C   0  0  0  0  0  0
  -28.5351  -22.5719   20.9132 C   0  0  2  0  0  0
  -30.2500  -19.1588   20.4362 N   0  0  0  0  0  0
  -29.9401  -15.5776   21.1055 N   0  0  0  0  0  0
  -32.0980  -17.4955   23.4905 N   0  3  0  0  0  0
  -28.2110  -22.5693   22.3579 N   0  3  0  0  0  0
  -31.4753  -12.4877   19.1240 H   0  0  0  0  0  0
  -30.3598  -11.3640   19.8486 H   0  0  0  0  0  0
  -29.7526  -11.7652   17.4474 H   0  0  0  0  0  0
  -29.6559  -13.4831   17.7366 H   0  0  0  0  0  0
  -27.8424  -11.3061   18.8290 H   0  0  0  0  0  0
  -27.3695  -12.6154   17.7803 H   0  0  0  0  0  0
  -27.6832  -14.2587   19.5416 H   0  0  0  0  0  0
  -28.6974  -12.0057   21.3443 H   0  0  0  0  0  0
  -28.4457  -13.6462   21.8532 H   0  0  0  0  0  0
  -25.2767   -9.5671   22.4760 H   0  0  0  0  0  0
  -23.9992   -7.4639   22.7481 H   0  0  0  0  0  0
  -21.0844   -8.8783   19.8966 H   0  0  0  0  0  0
  -22.3718  -10.9667   19.6163 H   0  0  0  0  0  0
  -21.2013   -7.6148   23.9719 H   0  0  0  0  0  0
  -21.1474   -6.0531   25.9082 H   0  0  0  0  0  0
  -22.0598   -2.7611   23.2863 H   0  0  0  0  0  0
  -22.4101  -11.9855   22.4764 H   0  0  0  0  0  0
  -21.1124  -13.1252   22.2608 H   0  0  0  0  0  0
  -24.6650  -15.8455   20.5149 H   0  0  0  0  0  0
  -26.2793  -15.6247   20.0719 H   0  0  0  0  0  0
  -26.7153  -32.5499   23.1124 H   0  0  0  0  0  0
  -25.0122  -33.9736   25.0498 H   0  0  0  0  0  0
  -22.7126  -31.3122   21.4075 H   0  0  0  0  0  0
  -23.3759  -35.9616   23.3322 H   0  0  0  0  0  0
  -24.3598  -36.8890   22.2051 H   0  0  0  0  0  0
  -23.7222  -37.6494   23.6655 H   0  0  0  0  0  0
  -26.0860  -31.5672   20.6092 H   0  0  0  0  0  0
  -26.8391  -30.8493   22.0032 H   0  0  0  0  0  0
  -28.1163  -29.0021   21.1893 H   0  0  0  0  0  0
  -25.9590  -25.9708   18.9732 H   0  0  0  0  0  0
  -23.9700  -27.3324   19.0018 H   0  0  0  0  0  0
  -23.7450  -30.6044   19.4060 H   0  0  0  0  0  0
  -22.7525  -29.2516   19.8610 H   0  0  0  0  0  0
  -25.1288  -36.1967   25.0831 H   0  0  0  0  0  0
  -21.0014  -28.3215   24.1381 H   0  0  0  0  0  0
  -20.5658  -26.2240   23.3593 H   0  0  0  0  0  0
  -21.6619  -26.7354   22.1182 H   0  0  0  0  0  0
  -19.6887  -25.6270   21.1189 H   0  0  0  0  0  0
  -19.6671  -27.3185   20.6750 H   0  0  0  0  0  0
  -17.4189  -26.6673   21.4023 H   0  0  0  0  0  0
  -18.0293  -26.0015   22.8997 H   0  0  0  0  0  0
  -19.7946  -30.7195   24.2302 H   0  0  0  0  0  0
  -17.5023  -31.6250   24.5107 H   0  0  0  0  0  0
  -15.5360  -30.2931   23.7622 H   0  0  0  0  0  0
  -15.8691  -28.0750   22.7084 H   0  0  0  0  0  0
  -24.5960  -30.6995   25.7793 H   0  0  0  0  0  0
  -24.8805  -32.2874   26.4794 H   0  0  0  0  0  0
  -25.8017  -30.9007   27.0284 H   0  0  0  0  0  0
  -26.2848  -29.6816   24.1173 H   0  0  0  0  0  0
  -27.4023  -29.7250   25.4622 H   0  0  0  0  0  0
  -27.8737  -30.4351   23.9355 H   0  0  0  0  0  0
  -27.2693  -33.3669   26.2042 H   0  0  0  0  0  0
  -28.3881  -32.6829   25.0327 H   0  0  0  0  0  0
  -28.0704  -31.8482   26.5449 H   0  0  0  0  0  0
  -28.2592  -38.0104   24.7514 H   0  0  0  0  0  0
  -28.1088  -36.2630   24.6310 H   0  0  0  0  0  0
  -27.2315  -37.1464   25.8877 H   0  0  0  0  0  0
  -20.9340  -29.8832   21.6965 H   0  0  0  0  0  0
  -26.0189  -38.2882   24.1389 H   0  0  0  0  0  0
  -28.7391  -21.1518   18.3096 H   0  0  0  0  0  0
  -29.9556  -18.7591   18.3485 H   0  0  0  0  0  0
  -30.1454  -20.2518   22.2865 H   0  0  0  0  0  0
  -33.1579  -18.4764   20.4206 H   0  0  0  0  0  0
  -32.4021  -19.5324   21.5448 H   0  0  0  0  0  0
  -33.9072  -18.3722   22.8703 H   0  0  0  0  0  0
  -33.5711  -16.8267   22.1324 H   0  0  0  0  0  0
  -31.7410  -15.5537   22.8939 H   0  0  0  0  0  0
  -30.4530  -16.2419   23.8255 H   0  0  0  0  0  0
  -31.2749  -17.4382   19.8475 H   0  0  0  0  0  0
  -29.4650  -17.3301   22.0754 H   0  0  0  0  0  0
  -26.9940  -21.6992   23.8485 H   0  0  0  0  0  0
  -27.4363  -20.5840   22.5613 H   0  0  0  0  0  0
  -26.2174  -21.8292   22.2690 H   0  0  0  0  0  0
  -29.8288  -24.3353   21.2538 H   0  0  0  0  0  0
  -29.7816  -23.8283   19.5965 H   0  0  0  0  0  0
  -27.2183  -24.8962   20.7867 H   0  0  0  0  0  0
  -27.7268  -24.8112   19.1161 H   0  0  0  0  0  0
  -27.5798  -22.5226   20.3870 H   0  0  0  0  0  0
  -28.9752  -15.3395   21.2786 H   0  0  0  0  0  0
  -31.6134  -18.3369   23.7528 H   0  0  0  0  0  0
  -32.5658  -17.1463   24.3129 H   0  0  0  0  0  0
  -29.0511  -22.3852   22.8791 H   0  0  0  0  0  0
  -27.8936  -23.4873   22.6206 H   0  0  0  0  0  0
  1 25  1  0  0  0
  1 30  2  0  0  0
  1 85  1  0  0  0
  2  3  1  0  0  0
  2 25  1  0  0  0
  2 88  1  0  0  0
  2 89  1  0  0  0
  3  4  1  0  0  0
  3 90  1  0  0  0
  3 91  1  0  0  0
  4  5  1  0  0  0
  4 92  1  0  0  0
  4 93  1  0  0  0
  5  6  1  0  0  0
  5 26  1  0  0  0
  5 94  1  0  0  0
  6 25  1  0  0  0
  6 95  1  0  0  0
  6 96  1  0  0  0
  7  8  2  0  0  0
  7 26  1  0  0  0
  7 29  1  0  0  0
  8  9  1  0  0  0
  8 22  1  0  0  0
  9 10  1  0  0  0
  9 27  2  0  0  0
 10 11  2  0  0  0
 10 15  1  0  0  0
 11 12  1  0  0  0
 11 97  1  0  0  0
 12 13  2  0  0  0
 12 98  1  0  0  0
 13 14  1  0  0  0
 13 31  1  0  0  0
 14 15  2  0  0  0
 14 99  1  0  0  0
 15100  1  0  0  0
 16 17  2  0  0  0
 16 21  1  0  0  0
 16 31  1  0  0  0
 17 18  1  0  0  0
 17101  1  0  0  0
 18 19  2  0  0  0
 18102  1  0  0  0
 19 20  1  0  0  0
 19 24  1  0  0  0
 20 21  2  0  0  0
 20103  1  0  0  0
 21 23  1  0  0  0
 22 28  1  0  0  0
 22 32  2  0  0  0
 26 27  1  0  0  0
 28104  1  0  0  0
 28105  1  0  0  0
 29106  1  0  0  0
 29107  1  0  0  0
 33 34  1  0  0  0
 33 66  1  0  0  0
 33 70  2  0  0  0
 34 36  1  0  0  0
 34 59  1  0  0  0
 34108  1  0  0  0
 35 44  2  0  0  0
 35 45  1  0  0  0
 35 68  1  0  0  0
 36 56  1  0  0  0
 36109  1  0  0  0
 37 39  1  0  0  0
 37 47  1  0  0  0
 37 66  1  0  0  0
 37110  1  0  0  0
 38 43  2  0  0  0
 38 46  1  0  0  0
 38 47  1  0  0  0
 39 64  1  0  0  0
 39 67  2  0  0  0
 40 52  1  0  0  0
 40 53  2  0  0  0
 40 58  1  0  0  0
 41111  1  0  0  0
 41112  1  0  0  0
 41113  1  0  0  0
 41 48  1  0  0  0
 42 43  1  0  0  0
 42 66  1  0  0  0
 42114  1  0  0  0
 42115  1  0  0  0
 43 44  1  0  0  0
 44116  1  0  0  0
 45 46  2  0  0  0
 45117  1  0  0  0
 46118  1  0  0  0
 47119  1  0  0  0
 47120  1  0  0  0
 48 56  1  0  0  0
 48 65  1  0  0  0
 48121  1  0  0  0
 49 50  1  0  0  0
 49 53  1  0  0  0
 49 64  1  0  0  0
 49122  1  0  0  0
 50 51  1  0  0  0
 50123  1  0  0  0
 50124  1  0  0  0
 51 52  1  0  0  0
 51125  1  0  0  0
 51126  1  0  0  0
 52127  1  0  0  0
 52128  1  0  0  0
 53 54  1  0  0  0
 54 55  2  0  0  0
 54129  1  0  0  0
 55 57  1  0  0  0
 55130  1  0  0  0
 56 69  2  0  0  0
 57 58  2  0  0  0
 57131  1  0  0  0
 58132  1  0  0  0
 59 60  1  0  0  0
 59 61  1  0  0  0
 59 62  1  0  0  0
 60133  1  0  0  0
 60134  1  0  0  0
 60135  1  0  0  0
 61136  1  0  0  0
 61137  1  0  0  0
 61138  1  0  0  0
 62139  1  0  0  0
 62140  1  0  0  0
 62141  1  0  0  0
 63 65  1  0  0  0
 63142  1  0  0  0
 63143  1  0  0  0
 63144  1  0  0  0
 64145  1  0  0  0
 65146  1  0  0  0
 68 82  1  0  0  0
 71 72  2  0  0  0
 71 74  1  0  0  0
 71147  1  0  0  0
 72 84  1  0  0  0
 72148  1  0  0  0
 73 74  2  0  0  0
 73 84  1  0  0  0
 73149  1  0  0  0
 74 83  1  0  0  0
 75 76  1  0  0  0
 75 78  1  0  0  0
 75150  1  0  0  0
 75151  1  0  0  0
 76 86  1  0  0  0
 76152  1  0  0  0
 76153  1  0  0  0
 77 79  1  0  0  0
 77 86  1  0  0  0
 77154  1  0  0  0
 77155  1  0  0  0
 78 79  1  0  0  0
 78 84  1  0  0  0
 78156  1  0  0  0
 79 85  1  0  0  0
 79157  1  0  0  0
 80 87  1  0  0  0
 80158  1  0  0  0
 80159  1  0  0  0
 80160  1  0  0  0
 81 82  1  0  0  0
 81161  1  0  0  0
 81162  1  0  0  0
 81 83  1  0  0  0
 82163  1  0  0  0
 82164  1  0  0  0
 83 87  1  0  0  0
 83165  1  0  0  0
 85166  1  0  0  0
 86167  1  0  0  0
 86168  1  0  0  0
 87169  1  0  0  0
 87170  1  0  0  0
M  CHG  2  86   1  87   1
M  ISO  4   1 100  68 101  82 101  85 100
M  END
> <chiral flag>
0

> <version>
0

> <s_m_source_file>
/data/baiqing/PycharmProjects/Reinvent-master-3.2/result/LINK_invent/BTK/process_docking_weight1_custom_sum_contain_oxygen_bond_distance_aromatic_linkinvent_7_9_3/rearranged_h_0121.sdf

> <i_m_source_file_index>
15

> <r_mmod_Potential_Energy-OPLS-2005>
-339.158020019531

> <r_mmod_Stretch_Energy-OPLS-2005>
72.8506622314453

> <r_mmod_Bend_Energy-OPLS-2005>
150.447677612305

> <r_mmod_Torsional_Energy-OPLS-2005>
305.879333496094

> <r_mmod_Improper_Torsional_Energy-OPLS-2005>
3.5546088218689

> <r_mmod_Van_der_Waal_Energy-OPLS-2005>
133.90739440918

> <r_mmod_Electrostatic_Energy-OPLS-2005>
-100.889167785645

> <r_mmod_Solvation_Energy-OPLS-2005>
-938.372863769531

> <b_mmod_Minimization_Converged-OPLS-2005>
0

> <r_mmod_RMS_Derivative-OPLS-2005>
2.48804044723511

$$$$
15
                    3D
 Structure written by MMmdl.
168177  0  0  1  0            999 V2000
  -30.7112  -14.4000   20.4698 C   0  0  0  0  0  0
  -30.4066  -12.2295   19.4095 C   0  0  0  0  0  0
  -29.4824  -12.4574   18.1955 C   0  0  0  0  0  0
  -28.0029  -12.3430   18.6136 C   0  0  0  0  0  0
  -27.6594  -13.1943   19.8658 C   0  0  2  0  0  0
  -28.7042  -12.9816   20.9870 C   0  0  0  0  0  0
  -25.2620  -13.8133   20.5707 C   0  0  0  0  0  0
  -24.1843  -13.0426   20.9175 C   0  0  0  0  0  0
  -24.6379  -11.6890   20.8698 C   0  0  0  0  0  0
  -23.9025  -10.4293   21.0394 C   0  0  0  0  0  0
  -24.3594   -9.4212   21.9172 C   0  0  0  0  0  0
  -23.6290   -8.2238   22.0736 C   0  0  0  0  0  0
  -22.4271   -8.0275   21.3534 C   0  0  0  0  0  0
  -21.9893   -9.0235   20.4630 C   0  0  0  0  0  0
  -22.7198  -10.2128   20.3046 C   0  0  0  0  0  0
  -21.6863   -6.0727   22.5279 C   0  0  0  0  0  0
  -21.4014   -6.5629   23.8206 C   0  0  0  0  0  0
  -21.3654   -5.6785   24.9170 C   0  0  0  0  0  0
  -21.6039   -4.3049   24.7226 C   0  0  0  0  0  0
  -21.8821   -3.8146   23.4342 C   0  0  0  0  0  0
  -21.9201   -4.6963   22.3396 C   0  0  0  0  0  0
  -22.7872  -13.5244   21.1868 C   0  0  0  0  0  0
  -22.1673   -4.2150   21.0971 F   0  0  0  0  0  0
  -21.5622   -3.4542   25.7743 F   0  0  0  0  0  0
  -30.0428  -13.2230   20.4260 N   0  0  0  0  0  0
  -26.3026  -12.9267   20.3368 N   0  0  0  0  0  0
  -25.9294  -11.6438   20.5749 N   0  0  0  0  0  0
  -22.0563  -12.8193   22.0423 N   0  0  0  0  0  0
  -25.4360  -15.1858   20.4155 N   0  0  0  0  0  0
  -31.9061  -14.5250   20.1825 O   0  0  0  0  0  0
  -21.6641   -6.8866   21.4235 O   0  0  0  0  0  0
  -22.3542  -14.5571   20.6780 O   0  0  0  0  0  0
  -24.6141  -31.8661   23.2134 C   0  0  0  0  0  0
  -25.9098  -32.4780   23.8383 C   0  0  1  0  0  0
  -27.2325  -27.4736   20.0739 C   0  0  0  0  0  0
  -25.6020  -33.8590   24.2327 N   0  0  0  0  0  0
  -23.3937  -30.4939   21.5513 C   0  0  2  0  0  0
  -24.8385  -28.9579   20.1147 C   0  0  0  0  0  0
  -22.7357  -29.4681   22.5023 C   0  0  0  0  0  0
  -18.0262  -28.1364   22.8470 C   0  0  0  0  0  0
  -24.1487  -36.7267   23.2593 C   0  0  0  0  0  0
  -25.9213  -30.8411   21.3622 C   0  0  0  0  0  0
  -25.9981  -29.4807   20.7043 C   0  0  0  0  0  0
  -27.2005  -28.7453   20.6799 C   0  0  0  0  0  0
  -26.0575  -26.9498   19.4914 C   0  0  0  0  0  0
  -24.8625  -27.6883   19.5093 C   0  0  0  0  0  0
  -23.5953  -29.8149   20.1669 C   0  0  0  0  0  0
  -25.4098  -36.3078   24.0319 C   0  0  1  0  0  0
  -20.5836  -28.3650   23.1322 C   0  0  2  0  0  0
  -20.6766  -26.9381   22.5430 C   0  0  0  0  0  0
  -19.5759  -26.6337   21.5219 C   0  0  0  0  0  0
  -18.1901  -26.7944   22.1550 C   0  0  0  0  0  0
  -19.1503  -28.8833   23.2892 C   0  0  0  0  0  0
  -18.9427  -30.1439   23.8909 C   0  0  0  0  0  0
  -17.6427  -30.6576   24.0543 C   0  0  0  0  0  0
  -25.9050  -34.9447   23.5084 C   0  0  0  0  0  0
  -16.5314  -29.9053   23.6339 C   0  0  0  0  0  0
  -16.7248  -28.6454   23.0381 C   0  0  0  0  0  0
  -26.4521  -31.6539   25.0700 C   0  0  0  0  0  0
  -25.3761  -31.3670   26.1411 C   0  0  0  0  0  0
  -27.0298  -30.2959   24.6112 C   0  0  0  0  0  0
  -27.6100  -32.4226   25.7475 C   0  0  0  0  0  0
  -27.5623  -37.1700   24.8394 C   0  0  0  0  0  0
  -21.4095  -29.3024   22.3744 N   0  0  0  0  0  0
  -26.4249  -37.3804   23.9478 N   0  0  0  0  0  0
  -24.6609  -31.0810   22.1005 N   0  0  0  0  0  0
  -23.4141  -28.8226   23.3048 O   0  0  0  0  0  0
  -28.4071  -26.7706   20.0469 O   0  0  0  0  0  0
  -26.5518  -34.8918   22.4598 O   0  0  0  0  0  0
  -23.5353  -32.1376   23.7591 O   0  0  0  0  0  0
  -30.0012  -18.6185   17.8312 C   0  0  0  0  0  0
  -29.8703  -17.8148   20.1099 C   0  0  0  0  0  0
  -30.0474  -17.2812   17.4185 C   0  0  0  0  0  0
  -29.9079  -18.8902   19.2062 C   0  0  0  0  0  0
  -29.9419  -16.5004   19.6176 C   0  0  0  0  0  0
  -28.6763  -20.5867   20.6284 C   0  0  0  0  0  0
  -31.1602  -20.7107   20.4289 C   0  0  0  0  0  0
  -28.6283  -22.0820   20.9747 C   0  0  0  0  0  0
  -31.1139  -22.2051   20.7934 C   0  0  0  0  0  0
  -29.8698  -20.3181   19.7014 C   0  0  1  0  0  0
  -31.0236  -24.2785   23.0340 C   0  0  0  0  0  0
  -29.7493  -25.0508   20.9746 C   0  0  0  0  0  0
  -28.3281  -25.4344   20.5266 C   0  0  0  0  0  0
  -29.8471  -23.9648   22.0853 C   0  0  1  0  0  0
  -30.0036  -16.2497   18.2866 N   0  0  0  0  0  0
  -29.9194  -15.4660   20.5745 N   0  0  0  0  0  0
  -29.9014  -22.5517   21.5944 N   0  3  1  0  0  0
  -31.4545  -12.2961   19.1103 H   0  0  0  0  0  0
  -30.2689  -11.2217   19.8011 H   0  0  0  0  0  0
  -29.7014  -11.7283   17.4143 H   0  0  0  0  0  0
  -29.6691  -13.4396   17.7569 H   0  0  0  0  0  0
  -27.7974  -11.2909   18.8083 H   0  0  0  0  0  0
  -27.3535  -12.6205   17.7816 H   0  0  0  0  0  0
  -27.6950  -14.2355   19.5463 H   0  0  0  0  0  0
  -28.6527  -11.9600   21.3695 H   0  0  0  0  0  0
  -28.4985  -13.6283   21.8412 H   0  0  0  0  0  0
  -25.2765   -9.5686   22.4708 H   0  0  0  0  0  0
  -24.0026   -7.4625   22.7438 H   0  0  0  0  0  0
  -21.0839   -8.8722   19.8919 H   0  0  0  0  0  0
  -22.3667  -10.9645   19.6128 H   0  0  0  0  0  0
  -21.1993   -7.6140   23.9702 H   0  0  0  0  0  0
  -21.1466   -6.0523   25.9068 H   0  0  0  0  0  0
  -22.0607   -2.7604   23.2852 H   0  0  0  0  0  0
  -22.4234  -11.9833   22.4702 H   0  0  0  0  0  0
  -21.1169  -13.1147   22.2703 H   0  0  0  0  0  0
  -24.6683  -15.8397   20.5264 H   0  0  0  0  0  0
  -26.2952  -15.6340   20.1254 H   0  0  0  0  0  0
  -26.7181  -32.5504   23.1155 H   0  0  0  0  0  0
  -25.0498  -33.9755   25.0694 H   0  0  0  0  0  0
  -22.6844  -31.3124   21.4137 H   0  0  0  0  0  0
  -23.3859  -35.9471   23.3061 H   0  0  0  0  0  0
  -24.3674  -36.9095   22.2058 H   0  0  0  0  0  0
  -23.7069  -37.6340   23.6741 H   0  0  0  0  0  0
  -26.0443  -31.6126   20.6012 H   0  0  0  0  0  0
  -26.8042  -30.8844   21.9878 H   0  0  0  0  0  0
  -28.0980  -29.1450   21.1328 H   0  0  0  0  0  0
  -26.0644  -25.9818   19.0123 H   0  0  0  0  0  0
  -23.9708  -27.2810   19.0531 H   0  0  0  0  0  0
  -23.6872  -30.5791   19.3955 H   0  0  0  0  0  0
  -22.7249  -29.2169   19.8841 H   0  0  0  0  0  0
  -25.1264  -36.1887   25.0805 H   0  0  0  0  0  0
  -20.9920  -28.3217   24.1442 H   0  0  0  0  0  0
  -20.5653  -26.2243   23.3618 H   0  0  0  0  0  0
  -21.6644  -26.7418   22.1219 H   0  0  0  0  0  0
  -19.6901  -25.6226   21.1262 H   0  0  0  0  0  0
  -19.6765  -27.3150   20.6757 H   0  0  0  0  0  0
  -17.4224  -26.6809   21.3884 H   0  0  0  0  0  0
  -18.0201  -26.0038   22.8863 H   0  0  0  0  0  0
  -19.7911  -30.7262   24.2260 H   0  0  0  0  0  0
  -17.4968  -31.6279   24.5086 H   0  0  0  0  0  0
  -15.5319  -30.2933   23.7667 H   0  0  0  0  0  0
  -15.8646  -28.0741   22.7163 H   0  0  0  0  0  0
  -24.6287  -30.6565   25.7879 H   0  0  0  0  0  0
  -24.8517  -32.2743   26.4412 H   0  0  0  0  0  0
  -25.8126  -30.9349   27.0415 H   0  0  0  0  0  0
  -26.2797  -29.6765   24.1171 H   0  0  0  0  0  0
  -27.4032  -29.7207   25.4597 H   0  0  0  0  0  0
  -27.8677  -30.4260   23.9259 H   0  0  0  0  0  0
  -27.2831  -33.3661   26.1867 H   0  0  0  0  0  0
  -28.4032  -32.6490   25.0338 H   0  0  0  0  0  0
  -28.0590  -31.8397   26.5540 H   0  0  0  0  0  0
  -28.2371  -38.0246   24.7875 H   0  0  0  0  0  0
  -28.1398  -36.2847   24.5699 H   0  0  0  0  0  0
  -27.2415  -37.0682   25.8773 H   0  0  0  0  0  0
  -20.9241  -29.8765   21.6998 H   0  0  0  0  0  0
  -26.0129  -38.2794   24.1822 H   0  0  0  0  0  0
  -30.0409  -19.4152   17.0983 H   0  0  0  0  0  0
  -29.8177  -17.9936   21.1734 H   0  0  0  0  0  0
  -30.1145  -17.0305   16.3698 H   0  0  0  0  0  0
  -27.7492  -20.2920   20.1353 H   0  0  0  0  0  0
  -28.7402  -19.9895   21.5383 H   0  0  0  0  0  0
  -31.2930  -20.1048   21.3252 H   0  0  0  0  0  0
  -32.0259  -20.5125   19.7939 H   0  0  0  0  0  0
  -27.7838  -22.2701   21.6414 H   0  0  0  0  0  0
  -28.4377  -22.6375   20.0582 H   0  0  0  0  0  0
  -31.1327  -22.7869   19.8727 H   0  0  0  0  0  0
  -32.0243  -22.4492   21.3416 H   0  0  0  0  0  0
  -29.7700  -20.9596   18.8243 H   0  0  0  0  0  0
  -30.8061  -25.1723   23.6203 H   0  0  0  0  0  0
  -31.9489  -24.4770   22.4915 H   0  0  0  0  0  0
  -31.2155  -23.4740   23.7422 H   0  0  0  0  0  0
  -30.1813  -25.9669   21.3798 H   0  0  0  0  0  0
  -30.3712  -24.8224   20.1106 H   0  0  0  0  0  0
  -27.6306  -25.3800   21.3654 H   0  0  0  0  0  0
  -27.9554  -24.7745   19.7447 H   0  0  0  0  0  0
  -28.9515  -24.0377   22.7055 H   0  0  0  0  0  0
  -29.0150  -15.2849   20.9767 H   0  0  0  0  0  0
  -29.9825  -22.0050   22.4403 H   0  0  0  0  0  0
  1 25  1  0  0  0
  1 30  2  0  0  0
  1 86  1  0  0  0
  2  3  1  0  0  0
  2 25  1  0  0  0
  2 88  1  0  0  0
  2 89  1  0  0  0
  3  4  1  0  0  0
  3 90  1  0  0  0
  3 91  1  0  0  0
  4  5  1  0  0  0
  4 92  1  0  0  0
  4 93  1  0  0  0
  5  6  1  0  0  0
  5 26  1  0  0  0
  5 94  1  0  0  0
  6 25  1  0  0  0
  6 95  1  0  0  0
  6 96  1  0  0  0
  7  8  2  0  0  0
  7 26  1  0  0  0
  7 29  1  0  0  0
  8  9  1  0  0  0
  8 22  1  0  0  0
  9 10  1  0  0  0
  9 27  2  0  0  0
 10 11  2  0  0  0
 10 15  1  0  0  0
 11 12  1  0  0  0
 11 97  1  0  0  0
 12 13  2  0  0  0
 12 98  1  0  0  0
 13 14  1  0  0  0
 13 31  1  0  0  0
 14 15  2  0  0  0
 14 99  1  0  0  0
 15100  1  0  0  0
 16 17  2  0  0  0
 16 21  1  0  0  0
 16 31  1  0  0  0
 17 18  1  0  0  0
 17101  1  0  0  0
 18 19  2  0  0  0
 18102  1  0  0  0
 19 20  1  0  0  0
 19 24  1  0  0  0
 20 21  2  0  0  0
 20103  1  0  0  0
 21 23  1  0  0  0
 22 28  1  0  0  0
 22 32  2  0  0  0
 26 27  1  0  0  0
 28104  1  0  0  0
 28105  1  0  0  0
 29106  1  0  0  0
 29107  1  0  0  0
 33 34  1  0  0  0
 33 66  1  0  0  0
 33 70  2  0  0  0
 34 36  1  0  0  0
 34 59  1  0  0  0
 34108  1  0  0  0
 35 44  2  0  0  0
 35 45  1  0  0  0
 35 68  1  0  0  0
 36 56  1  0  0  0
 36109  1  0  0  0
 37 39  1  0  0  0
 37 47  1  0  0  0
 37 66  1  0  0  0
 37110  1  0  0  0
 38 43  2  0  0  0
 38 46  1  0  0  0
 38 47  1  0  0  0
 39 64  1  0  0  0
 39 67  2  0  0  0
 40 52  1  0  0  0
 40 53  2  0  0  0
 40 58  1  0  0  0
 41111  1  0  0  0
 41112  1  0  0  0
 41113  1  0  0  0
 41 48  1  0  0  0
 42 43  1  0  0  0
 42 66  1  0  0  0
 42114  1  0  0  0
 42115  1  0  0  0
 43 44  1  0  0  0
 44116  1  0  0  0
 45 46  2  0  0  0
 45117  1  0  0  0
 46118  1  0  0  0
 47119  1  0  0  0
 47120  1  0  0  0
 48 56  1  0  0  0
 48 65  1  0  0  0
 48121  1  0  0  0
 49 50  1  0  0  0
 49 53  1  0  0  0
 49 64  1  0  0  0
 49122  1  0  0  0
 50 51  1  0  0  0
 50123  1  0  0  0
 50124  1  0  0  0
 51 52  1  0  0  0
 51125  1  0  0  0
 51126  1  0  0  0
 52127  1  0  0  0
 52128  1  0  0  0
 53 54  1  0  0  0
 54 55  2  0  0  0
 54129  1  0  0  0
 55 57  1  0  0  0
 55130  1  0  0  0
 56 69  2  0  0  0
 57 58  2  0  0  0
 57131  1  0  0  0
 58132  1  0  0  0
 59 60  1  0  0  0
 59 61  1  0  0  0
 59 62  1  0  0  0
 60133  1  0  0  0
 60134  1  0  0  0
 60135  1  0  0  0
 61136  1  0  0  0
 61137  1  0  0  0
 61138  1  0  0  0
 62139  1  0  0  0
 62140  1  0  0  0
 62141  1  0  0  0
 63 65  1  0  0  0
 63142  1  0  0  0
 63143  1  0  0  0
 63144  1  0  0  0
 64145  1  0  0  0
 65146  1  0  0  0
 68 83  1  0  0  0
 71 73  2  0  0  0
 71 74  1  0  0  0
 71147  1  0  0  0
 72 74  2  0  0  0
 72 75  1  0  0  0
 72148  1  0  0  0
 73 85  1  0  0  0
 73149  1  0  0  0
 74 80  1  0  0  0
 75 85  2  0  0  0
 75 86  1  0  0  0
 76 78  1  0  0  0
 76 80  1  0  0  0
 76150  1  0  0  0
 76151  1  0  0  0
 77 79  1  0  0  0
 77 80  1  0  0  0
 77152  1  0  0  0
 77153  1  0  0  0
 78154  1  0  0  0
 78155  1  0  0  0
 78 87  1  0  0  0
 79 87  1  0  0  0
 79156  1  0  0  0
 79157  1  0  0  0
 80158  1  0  0  0
 81159  1  0  0  0
 81160  1  0  0  0
 81161  1  0  0  0
 81 84  1  0  0  0
 82 83  1  0  0  0
 82 84  1  0  0  0
 82162  1  0  0  0
 82163  1  0  0  0
 83164  1  0  0  0
 83165  1  0  0  0
 84 87  1  0  0  0
 84166  1  0  0  0
 86167  1  0  0  0
 87168  1  0  0  0
M  CHG  1  87   1
M  ISO  4   1 100  68 101  83 101  86 100
M  END
> <chiral flag>
0

> <version>
0

> <s_m_source_file>
/data/baiqing/PycharmProjects/Reinvent-master-3.2/result/LINK_invent/BTK/process_docking_weight1_custom_sum_contain_oxygen_bond_distance_aromatic_linkinvent_7_9_3/rearranged_h_0121.sdf

> <i_m_source_file_index>
16

> <r_mmod_Potential_Energy-OPLS-2005>
-233.020629882812

> <r_mmod_Stretch_Energy-OPLS-2005>
33.234001159668

> <r_mmod_Bend_Energy-OPLS-2005>
98.8180389404297

> <r_mmod_Torsional_Energy-OPLS-2005>
312.526519775391

> <r_mmod_Improper_Torsional_Energy-OPLS-2005>
9.34319877624512

> <r_mmod_Van_der_Waal_Energy-OPLS-2005>
164.583450317383

> <r_mmod_Electrostatic_Energy-OPLS-2005>
-398.741607666016

> <r_mmod_Solvation_Energy-OPLS-2005>
-470.326477050781

> <b_mmod_Minimization_Converged-OPLS-2005>
0

> <r_mmod_RMS_Derivative-OPLS-2005>
4.45993900299072

$$$$
16
                    3D
 Structure written by MMmdl.
177188  0  0  1  0            999 V2000
  -30.7212  -14.6293   20.6057 C   0  0  0  0  0  0
  -30.4046  -12.4199   19.4754 C   0  0  0  0  0  0
  -29.5109  -12.5626   18.2275 C   0  0  0  0  0  0
  -28.0301  -12.3869   18.6109 C   0  0  0  0  0  0
  -27.6478  -13.2232   19.8614 C   0  0  2  0  0  0
  -28.6876  -13.0958   21.0053 C   0  0  0  0  0  0
  -25.2512  -13.8153   20.5656 C   0  0  0  0  0  0
  -24.1828  -13.0419   20.9208 C   0  0  0  0  0  0
  -24.6399  -11.6877   20.8722 C   0  0  0  0  0  0
  -23.9061  -10.4267   21.0389 C   0  0  0  0  0  0
  -24.3608   -9.4188   21.9163 C   0  0  0  0  0  0
  -23.6282   -8.2225   22.0746 C   0  0  0  0  0  0
  -22.4258   -8.0273   21.3544 C   0  0  0  0  0  0
  -21.9904   -9.0225   20.4625 C   0  0  0  0  0  0
  -22.7237  -10.2104   20.3032 C   0  0  0  0  0  0
  -21.6855   -6.0717   22.5257 C   0  0  0  0  0  0
  -21.4023   -6.5615   23.8193 C   0  0  0  0  0  0
  -21.3689   -5.6779   24.9151 C   0  0  0  0  0  0
  -21.6051   -4.3038   24.7204 C   0  0  0  0  0  0
  -21.8833   -3.8139   23.4318 C   0  0  0  0  0  0
  -21.9199   -4.6948   22.3381 C   0  0  0  0  0  0
  -22.7856  -13.5191   21.1882 C   0  0  0  0  0  0
  -22.1676   -4.2129   21.0961 F   0  0  0  0  0  0
  -21.5631   -3.4532   25.7727 F   0  0  0  0  0  0
  -30.0032  -13.4587   20.4624 N   0  0  0  0  0  0
  -26.2954  -12.9349   20.3252 N   0  0  0  0  0  0
  -25.9315  -11.6496   20.5686 N   0  0  0  0  0  0
  -22.0506  -12.8160   22.0399 N   0  0  0  0  0  0
  -25.4074  -15.1876   20.3971 N   0  0  0  0  0  0
  -31.8397  -14.6960   20.0810 O   0  0  0  0  0  0
  -21.6640   -6.8851   21.4223 O   0  0  0  0  0  0
  -22.3513  -14.5512   20.6742 O   0  0  0  0  0  0
  -24.6150  -31.8639   23.2078 C   0  0  0  0  0  0
  -25.9010  -32.4811   23.8412 C   0  0  1  0  0  0
  -27.2446  -27.3706   20.1484 C   0  0  0  0  0  0
  -25.5844  -33.8616   24.2327 N   0  0  0  0  0  0
  -23.4124  -30.4784   21.5458 C   0  0  2  0  0  0
  -24.8730  -28.9343   20.1153 C   0  0  0  0  0  0
  -22.7420  -29.4623   22.4993 C   0  0  0  0  0  0
  -18.0254  -28.1387   22.8488 C   0  0  0  0  0  0
  -24.1477  -36.7303   23.2636 C   0  0  0  0  0  0
  -25.9451  -30.8028   21.3816 C   0  0  0  0  0  0
  -26.0272  -29.4300   20.7390 C   0  0  0  0  0  0
  -27.2158  -28.6514   20.7610 C   0  0  0  0  0  0
  -26.0861  -26.9146   19.4918 C   0  0  0  0  0  0
  -24.9032  -27.6801   19.4789 C   0  0  0  0  0  0
  -23.6301  -29.8001   20.1642 C   0  0  0  0  0  0
  -25.4102  -36.3109   24.0335 C   0  0  1  0  0  0
  -20.5836  -28.3690   23.1306 C   0  0  2  0  0  0
  -20.6744  -26.9433   22.5402 C   0  0  0  0  0  0
  -19.5724  -26.6393   21.5197 C   0  0  0  0  0  0
  -18.1905  -26.7945   22.1606 C   0  0  0  0  0  0
  -19.1500  -28.8861   23.2876 C   0  0  0  0  0  0
  -18.9419  -30.1469   23.8890 C   0  0  0  0  0  0
  -17.6423  -30.6602   24.0562 C   0  0  0  0  0  0
  -25.9035  -34.9478   23.5136 C   0  0  0  0  0  0
  -16.5320  -29.9094   23.6346 C   0  0  0  0  0  0
  -16.7248  -28.6502   23.0384 C   0  0  0  0  0  0
  -26.4437  -31.6597   25.0762 C   0  0  0  0  0  0
  -25.3684  -31.3658   26.1481 C   0  0  0  0  0  0
  -27.0302  -30.3041   24.6179 C   0  0  0  0  0  0
  -27.6006  -32.4332   25.7523 C   0  0  0  0  0  0
  -27.5608  -37.1774   24.8429 C   0  0  0  0  0  0
  -21.4136  -29.3041   22.3722 N   0  0  0  0  0  0
  -26.4281  -37.3802   23.9433 N   0  0  0  0  0  0
  -24.6742  -31.0664   22.1020 N   0  0  0  0  0  0
  -23.4150  -28.8181   23.3089 O   0  0  0  0  0  0
  -28.3658  -26.5499   20.1498 O   0  0  0  0  0  0
  -26.5612  -34.8922   22.4721 O   0  0  0  0  0  0
  -23.5321  -32.1417   23.7413 O   0  0  0  0  0  0
  -28.5872  -23.5902   19.5788 C   0  0  0  0  0  0
  -29.2025  -23.1672   21.8712 C   0  0  0  0  0  0
  -28.8796  -22.2393   19.2730 C   0  0  0  0  0  0
  -29.5125  -21.8089   21.5625 C   0  0  0  0  0  0
  -28.7591  -24.0934   20.8820 C   0  0  0  0  0  0
  -29.3624  -21.3137   20.2412 C   0  0  0  0  0  0
  -27.7404  -18.6810   25.4234 C   0  0  0  0  0  0
  -27.1618  -18.9630   22.8613 C   0  0  0  0  0  0
  -31.2510  -16.7848   21.7480 C   0  0  0  0  0  0
  -31.2086  -18.0899   20.8881 C   0  0  0  0  0  0
  -28.8318  -17.6218   20.4744 C   0  0  0  0  0  0
  -26.8698  -19.2122   24.3152 C   0  0  1  0  0  0
  -26.9170  -17.7234   24.5780 C   0  0  1  0  0  0
  -27.1706  -17.4438   23.1028 C   0  0  2  0  0  0
  -28.9200  -16.3559   21.3972 C   0  0  2  0  0  0
  -30.8306  -19.9139   18.6900 C   0  0  0  0  0  0
  -28.4458  -25.5782   21.2365 C   0  0  0  0  0  0
  -28.3971  -16.5318   22.8713 C   0  0  0  0  0  0
  -29.7051  -19.8639   19.7489 C   0  0  1  0  0  0
  -30.2758  -15.7290   21.3340 N   0  0  0  0  0  0
  -29.8414  -18.6986   20.7326 N   0  3  2  0  0  0
  -31.4588  -12.4756   19.1973 H   0  0  0  0  0  0
  -30.2746  -11.4266   19.9091 H   0  0  0  0  0  0
  -29.7963  -11.8366   17.4648 H   0  0  0  0  0  0
  -29.6626  -13.5495   17.7841 H   0  0  0  0  0  0
  -27.8407  -11.3254   18.7794 H   0  0  0  0  0  0
  -27.4032  -12.6746   17.7662 H   0  0  0  0  0  0
  -27.6487  -14.2513   19.5083 H   0  0  0  0  0  0
  -28.7153  -12.0692   21.3702 H   0  0  0  0  0  0
  -28.4169  -13.6896   21.8757 H   0  0  0  0  0  0
  -25.2732   -9.5654   22.4750 H   0  0  0  0  0  0
  -23.9993   -7.4600   22.7446 H   0  0  0  0  0  0
  -21.0851   -8.8721   19.8901 H   0  0  0  0  0  0
  -22.3685  -10.9636   19.6154 H   0  0  0  0  0  0
  -21.2026   -7.6118   23.9676 H   0  0  0  0  0  0
  -21.1514   -6.0507   25.9045 H   0  0  0  0  0  0
  -22.0593   -2.7593   23.2819 H   0  0  0  0  0  0
  -22.4149  -11.9810   22.4768 H   0  0  0  0  0  0
  -21.1093  -13.1131   22.2557 H   0  0  0  0  0  0
  -24.5964  -15.7927   20.4440 H   0  0  0  0  0  0
  -26.1927  -15.6177   19.9312 H   0  0  0  0  0  0
  -26.7099  -32.5530   23.1198 H   0  0  0  0  0  0
  -24.9983  -33.9793   25.0457 H   0  0  0  0  0  0
  -22.6992  -31.2907   21.3949 H   0  0  0  0  0  0
  -23.3787  -35.9574   23.3191 H   0  0  0  0  0  0
  -24.3595  -36.9041   22.2073 H   0  0  0  0  0  0
  -23.7130  -37.6429   23.6733 H   0  0  0  0  0  0
  -26.0665  -31.5596   20.6053 H   0  0  0  0  0  0
  -26.8264  -30.8648   22.0087 H   0  0  0  0  0  0
  -28.0985  -29.0170   21.2688 H   0  0  0  0  0  0
  -26.1018  -25.9553   18.9960 H   0  0  0  0  0  0
  -24.0318  -27.2932   18.9690 H   0  0  0  0  0  0
  -23.7266  -30.5635   19.3914 H   0  0  0  0  0  0
  -22.7580  -29.2048   19.8856 H   0  0  0  0  0  0
  -25.1270  -36.1984   25.0821 H   0  0  0  0  0  0
  -20.9902  -28.3262   24.1427 H   0  0  0  0  0  0
  -20.5649  -26.2313   23.3589 H   0  0  0  0  0  0
  -21.6620  -26.7489   22.1196 H   0  0  0  0  0  0
  -19.6895  -25.6297   21.1253 H   0  0  0  0  0  0
  -19.6669  -27.3180   20.6711 H   0  0  0  0  0  0
  -17.4179  -26.6693   21.4007 H   0  0  0  0  0  0
  -18.0308  -26.0081   22.8990 H   0  0  0  0  0  0
  -19.7900  -30.7297   24.2252 H   0  0  0  0  0  0
  -17.4978  -31.6283   24.5152 H   0  0  0  0  0  0
  -15.5327  -30.2994   23.7670 H   0  0  0  0  0  0
  -15.8634  -28.0813   22.7131 H   0  0  0  0  0  0
  -24.5852  -30.7047   25.7748 H   0  0  0  0  0  0
  -24.8886  -32.2791   26.5004 H   0  0  0  0  0  0
  -25.8009  -30.8726   27.0191 H   0  0  0  0  0  0
  -26.2878  -29.6791   24.1203 H   0  0  0  0  0  0
  -27.4010  -29.7297   25.4674 H   0  0  0  0  0  0
  -27.8739  -30.4362   23.9405 H   0  0  0  0  0  0
  -27.2629  -33.3633   26.2103 H   0  0  0  0  0  0
  -28.3804  -32.6879   25.0338 H   0  0  0  0  0  0
  -28.0683  -31.8452   26.5426 H   0  0  0  0  0  0
  -28.2485  -38.0215   24.7713 H   0  0  0  0  0  0
  -28.1251  -36.2759   24.5974 H   0  0  0  0  0  0
  -27.2357  -37.1080   25.8826 H   0  0  0  0  0  0
  -20.9314  -29.8784   21.6948 H   0  0  0  0  0  0
  -26.0170  -38.2865   24.1506 H   0  0  0  0  0  0
  -28.2310  -24.2519   18.8022 H   0  0  0  0  0  0
  -29.3183  -23.5049   22.8920 H   0  0  0  0  0  0
  -28.7485  -21.9170   18.2493 H   0  0  0  0  0  0
  -29.8675  -21.1651   22.3561 H   0  0  0  0  0  0
  -27.4070  -18.8786   26.4402 H   0  0  0  0  0  0
  -28.8173  -18.7274   25.2768 H   0  0  0  0  0  0
  -28.1126  -19.3854   22.5485 H   0  0  0  0  0  0
  -26.3612  -19.2894   22.1958 H   0  0  0  0  0  0
  -31.1001  -17.0560   22.7901 H   0  0  0  0  0  0
  -32.2749  -16.4027   21.7515 H   0  0  0  0  0  0
  -31.6434  -17.8331   19.9233 H   0  0  0  0  0  0
  -31.8776  -18.8296   21.3324 H   0  0  0  0  0  0
  -27.8256  -18.0419   20.5042 H   0  0  0  0  0  0
  -28.9631  -17.2884   19.4440 H   0  0  0  0  0  0
  -25.9511  -19.7421   24.5611 H   0  0  0  0  0  0
  -26.0352  -17.2673   25.0242 H   0  0  0  0  0  0
  -26.2835  -17.0133   22.6380 H   0  0  0  0  0  0
  -28.2111  -15.6787   20.9453 H   0  0  0  0  0  0
  -30.6304  -20.6555   17.9172 H   0  0  0  0  0  0
  -30.9209  -18.9615   18.1680 H   0  0  0  0  0  0
  -31.7939  -20.1742   19.1318 H   0  0  0  0  0  0
  -29.2523  -25.9180   21.8873 H   0  0  0  0  0  0
  -27.5456  -25.6000   21.8517 H   0  0  0  0  0  0
  -28.1349  -15.5381   23.2396 H   0  0  0  0  0  0
  -29.1873  -16.8464   23.5466 H   0  0  0  0  0  0
  -28.8034  -19.6400   19.1742 H   0  0  0  0  0  0
  -29.6094  -19.0908   21.6317 H   0  0  0  0  0  0
  1 25  1  0  0  0
  1 30  2  0  0  0
  1 90  1  0  0  0
  2  3  1  0  0  0
  2 25  1  0  0  0
  2 92  1  0  0  0
  2 93  1  0  0  0
  3  4  1  0  0  0
  3 94  1  0  0  0
  3 95  1  0  0  0
  4  5  1  0  0  0
  4 96  1  0  0  0
  4 97  1  0  0  0
  5  6  1  0  0  0
  5 26  1  0  0  0
  5 98  1  0  0  0
  6 25  1  0  0  0
  6 99  1  0  0  0
  6100  1  0  0  0
  7  8  2  0  0  0
  7 26  1  0  0  0
  7 29  1  0  0  0
  8  9  1  0  0  0
  8 22  1  0  0  0
  9 10  1  0  0  0
  9 27  2  0  0  0
 10 11  2  0  0  0
 10 15  1  0  0  0
 11 12  1  0  0  0
 11101  1  0  0  0
 12 13  2  0  0  0
 12102  1  0  0  0
 13 14  1  0  0  0
 13 31  1  0  0  0
 14 15  2  0  0  0
 14103  1  0  0  0
 15104  1  0  0  0
 16 17  2  0  0  0
 16 21  1  0  0  0
 16 31  1  0  0  0
 17 18  1  0  0  0
 17105  1  0  0  0
 18 19  2  0  0  0
 18106  1  0  0  0
 19 20  1  0  0  0
 19 24  1  0  0  0
 20 21  2  0  0  0
 20107  1  0  0  0
 21 23  1  0  0  0
 22 28  1  0  0  0
 22 32  2  0  0  0
 26 27  1  0  0  0
 28108  1  0  0  0
 28109  1  0  0  0
 29110  1  0  0  0
 29111  1  0  0  0
 33 34  1  0  0  0
 33 66  1  0  0  0
 33 70  2  0  0  0
 34 36  1  0  0  0
 34 59  1  0  0  0
 34112  1  0  0  0
 35 44  2  0  0  0
 35 45  1  0  0  0
 35 68  1  0  0  0
 36 56  1  0  0  0
 36113  1  0  0  0
 37 39  1  0  0  0
 37 47  1  0  0  0
 37 66  1  0  0  0
 37114  1  0  0  0
 38 43  2  0  0  0
 38 46  1  0  0  0
 38 47  1  0  0  0
 39 64  1  0  0  0
 39 67  2  0  0  0
 40 52  1  0  0  0
 40 53  2  0  0  0
 40 58  1  0  0  0
 41115  1  0  0  0
 41116  1  0  0  0
 41117  1  0  0  0
 41 48  1  0  0  0
 42 43  1  0  0  0
 42 66  1  0  0  0
 42118  1  0  0  0
 42119  1  0  0  0
 43 44  1  0  0  0
 44120  1  0  0  0
 45 46  2  0  0  0
 45121  1  0  0  0
 46122  1  0  0  0
 47123  1  0  0  0
 47124  1  0  0  0
 48 56  1  0  0  0
 48 65  1  0  0  0
 48125  1  0  0  0
 49 50  1  0  0  0
 49 53  1  0  0  0
 49 64  1  0  0  0
 49126  1  0  0  0
 50 51  1  0  0  0
 50127  1  0  0  0
 50128  1  0  0  0
 51 52  1  0  0  0
 51129  1  0  0  0
 51130  1  0  0  0
 52131  1  0  0  0
 52132  1  0  0  0
 53 54  1  0  0  0
 54 55  2  0  0  0
 54133  1  0  0  0
 55 57  1  0  0  0
 55134  1  0  0  0
 56 69  2  0  0  0
 57 58  2  0  0  0
 57135  1  0  0  0
 58136  1  0  0  0
 59 60  1  0  0  0
 59 61  1  0  0  0
 59 62  1  0  0  0
 60137  1  0  0  0
 60138  1  0  0  0
 60139  1  0  0  0
 61140  1  0  0  0
 61141  1  0  0  0
 61142  1  0  0  0
 62143  1  0  0  0
 62144  1  0  0  0
 62145  1  0  0  0
 63 65  1  0  0  0
 63146  1  0  0  0
 63147  1  0  0  0
 63148  1  0  0  0
 64149  1  0  0  0
 65150  1  0  0  0
 68 87  1  0  0  0
 71 73  2  0  0  0
 71 75  1  0  0  0
 71151  1  0  0  0
 72 74  1  0  0  0
 72 75  2  0  0  0
 72152  1  0  0  0
 73 76  1  0  0  0
 73153  1  0  0  0
 74 76  2  0  0  0
 74154  1  0  0  0
 75 87  1  0  0  0
 76 89  1  0  0  0
 77155  1  0  0  0
 77156  1  0  0  0
 77 82  1  0  0  0
 77 83  1  0  0  0
 78 82  1  0  0  0
 78 84  1  0  0  0
 78157  1  0  0  0
 78158  1  0  0  0
 79 80  1  0  0  0
 79 90  1  0  0  0
 79159  1  0  0  0
 79160  1  0  0  0
 80161  1  0  0  0
 80162  1  0  0  0
 80 91  1  0  0  0
 81 85  1  0  0  0
 81 91  1  0  0  0
 81163  1  0  0  0
 81164  1  0  0  0
 82 83  1  0  0  0
 82165  1  0  0  0
 83 84  1  0  0  0
 83166  1  0  0  0
 84 88  1  0  0  0
 84167  1  0  0  0
 85 88  1  0  0  0
 85 90  1  0  0  0
 85168  1  0  0  0
 86169  1  0  0  0
 86170  1  0  0  0
 86171  1  0  0  0
 86 89  1  0  0  0
 87172  1  0  0  0
 87173  1  0  0  0
 88174  1  0  0  0
 88175  1  0  0  0
 89 91  1  0  0  0
 89176  1  0  0  0
 91177  1  0  0  0
M  CHG  1  91   1
M  ISO  4   1 100  68 101  87 101  90 100
M  END
> <chiral flag>
0

> <version>
0

> <s_m_source_file>
/data/baiqing/PycharmProjects/Reinvent-master-3.2/result/LINK_invent/BTK/process_docking_weight1_custom_sum_contain_oxygen_bond_distance_aromatic_linkinvent_7_9_3/rearranged_h_0121.sdf

> <i_m_source_file_index>
17

> <r_mmod_Potential_Energy-OPLS-2005>
597.554992675781

> <r_mmod_Stretch_Energy-OPLS-2005>
80.690071105957

> <r_mmod_Bend_Energy-OPLS-2005>
475.609802246094

> <r_mmod_Torsional_Energy-OPLS-2005>
487.641815185547

> <r_mmod_Improper_Torsional_Energy-OPLS-2005>
4.26112461090088

> <r_mmod_Van_der_Waal_Energy-OPLS-2005>
147.57194519043

> <r_mmod_Electrostatic_Energy-OPLS-2005>
-223.445938110352

> <r_mmod_Solvation_Energy-OPLS-2005>
-412.361511230469

> <b_mmod_Minimization_Converged-OPLS-2005>
0

> <r_mmod_RMS_Derivative-OPLS-2005>
5.01885223388672

$$$$
17
                    3D
 Structure written by MMmdl.
181190  0  0  1  0            999 V2000
  -30.7345  -14.5935   20.5583 C   0  0  0  0  0  0
  -30.4185  -12.3866   19.4563 C   0  0  0  0  0  0
  -29.4975  -12.4906   18.2252 C   0  0  0  0  0  0
  -28.0295  -12.2911   18.6410 C   0  0  0  0  0  0
  -27.6424  -13.1883   19.8398 C   0  0  2  0  0  0
  -28.6886  -13.1147   20.9830 C   0  0  0  0  0  0
  -25.2564  -13.8088   20.5662 C   0  0  0  0  0  0
  -24.1816  -13.0397   20.9206 C   0  0  0  0  0  0
  -24.6358  -11.6860   20.8767 C   0  0  0  0  0  0
  -23.9031  -10.4259   21.0443 C   0  0  0  0  0  0
  -24.3599   -9.4176   21.9214 C   0  0  0  0  0  0
  -23.6275   -8.2205   22.0760 C   0  0  0  0  0  0
  -22.4253   -8.0257   21.3542 C   0  0  0  0  0  0
  -21.9897   -9.0230   20.4640 C   0  0  0  0  0  0
  -22.7223  -10.2107   20.3074 C   0  0  0  0  0  0
  -21.6837   -6.0726   22.5284 C   0  0  0  0  0  0
  -21.3997   -6.5631   23.8212 C   0  0  0  0  0  0
  -21.3659   -5.6791   24.9176 C   0  0  0  0  0  0
  -21.6048   -4.3060   24.7229 C   0  0  0  0  0  0
  -21.8818   -3.8145   23.4348 C   0  0  0  0  0  0
  -21.9183   -4.6956   22.3406 C   0  0  0  0  0  0
  -22.7849  -13.5220   21.1882 C   0  0  0  0  0  0
  -22.1654   -4.2143   21.0989 F   0  0  0  0  0  0
  -21.5645   -3.4548   25.7742 F   0  0  0  0  0  0
  -30.0106  -13.4331   20.4222 N   0  0  0  0  0  0
  -26.2929  -12.9202   20.3223 N   0  0  0  0  0  0
  -25.9271  -11.6403   20.5752 N   0  0  0  0  0  0
  -22.0482  -12.8199   22.0422 N   0  0  0  0  0  0
  -25.4324  -15.1801   20.4061 N   0  0  0  0  0  0
  -31.8789  -14.6612   20.1017 O   0  0  0  0  0  0
  -21.6615   -6.8859   21.4241 O   0  0  0  0  0  0
  -22.3544  -14.5541   20.6754 O   0  0  0  0  0  0
  -24.6220  -31.8637   23.2068 C   0  0  0  0  0  0
  -25.9090  -32.4805   23.8387 C   0  0  1  0  0  0
  -27.2273  -27.3747   20.1098 C   0  0  0  0  0  0
  -25.5928  -33.8604   24.2309 N   0  0  0  0  0  0
  -23.4129  -30.4893   21.5477 C   0  0  2  0  0  0
  -24.8602  -28.9539   20.1069 C   0  0  0  0  0  0
  -22.7453  -29.4649   22.4961 C   0  0  0  0  0  0
  -18.0274  -28.1382   22.8491 C   0  0  0  0  0  0
  -24.1483  -36.7293   23.2644 C   0  0  0  0  0  0
  -25.9493  -30.8109   21.3712 C   0  0  0  0  0  0
  -26.0256  -29.4444   20.7107 C   0  0  0  0  0  0
  -27.2141  -28.6654   20.7043 C   0  0  0  0  0  0
  -26.0470  -26.9295   19.4709 C   0  0  0  0  0  0
  -24.8704  -27.6993   19.4775 C   0  0  0  0  0  0
  -23.6238  -29.8252   20.1610 C   0  0  0  0  0  0
  -25.4109  -36.3098   24.0334 C   0  0  1  0  0  0
  -20.5872  -28.3686   23.1284 C   0  0  2  0  0  0
  -20.6775  -26.9418   22.5401 C   0  0  0  0  0  0
  -19.5746  -26.6385   21.5210 C   0  0  0  0  0  0
  -18.1918  -26.7938   22.1606 C   0  0  0  0  0  0
  -19.1530  -28.8851   23.2886 C   0  0  0  0  0  0
  -18.9470  -30.1457   23.8900 C   0  0  0  0  0  0
  -17.6470  -30.6594   24.0569 C   0  0  0  0  0  0
  -25.9046  -34.9468   23.5118 C   0  0  0  0  0  0
  -16.5358  -29.9104   23.6340 C   0  0  0  0  0  0
  -16.7261  -28.6509   23.0362 C   0  0  0  0  0  0
  -26.4489  -31.6609   25.0747 C   0  0  0  0  0  0
  -25.3735  -31.3731   26.1489 C   0  0  0  0  0  0
  -27.0350  -30.3053   24.6173 C   0  0  0  0  0  0
  -27.6052  -32.4348   25.7499 C   0  0  0  0  0  0
  -27.5580  -37.1802   24.8462 C   0  0  0  0  0  0
  -21.4171  -29.3062   22.3701 N   0  0  0  0  0  0
  -26.4284  -37.3797   23.9417 N   0  0  0  0  0  0
  -24.6795  -31.0694   22.0992 N   0  0  0  0  0  0
  -23.4191  -28.8182   23.3022 O   0  0  0  0  0  0
  -28.3410  -26.5376   20.1758 O   0  0  0  0  0  0
  -26.5605  -34.8926   22.4680 O   0  0  0  0  0  0
  -23.5395  -32.1416   23.7421 O   0  0  0  0  0  0
  -29.9848  -23.5767   21.5360 C   0  0  0  0  0  0
  -29.1217  -23.0450   19.3169 C   0  0  0  0  0  0
  -28.9008  -24.6567   21.7972 C   0  0  0  0  0  0
  -27.9772  -24.0949   19.4334 C   0  0  0  0  0  0
  -31.3780  -17.9611   21.1598 C   0  0  0  0  0  0
  -29.1132  -17.6795   20.1279 C   0  0  0  0  0  0
  -31.1143  -16.6385   21.9485 C   0  0  0  0  0  0
  -28.9499  -16.3848   20.9815 C   0  0  0  0  0  0
  -29.5051  -22.3856   20.6654 C   0  0  1  0  0  0
  -30.0735  -18.7243   20.7632 C   0  0  0  0  0  0
  -28.0733  -25.1504   20.5785 C   0  0  2  0  0  0
  -29.8136  -19.0599   15.9252 C   0  0  0  0  0  0
  -29.6121  -21.5631   15.6752 C   0  0  0  0  0  0
  -30.5995  -21.2405   20.6216 C   0  0  0  0  0  0
  -31.0462  -20.6370   17.5384 C   0  0  0  0  0  0
  -31.2044  -19.6959   18.7522 C   0  0  0  0  0  0
  -29.7867  -20.4061   16.6715 C   0  0  0  0  0  0
  -30.2296  -15.6868   21.2316 N   0  0  0  0  0  0
  -30.2656  -19.9565   19.8889 N   0  3  1  0  0  0
  -31.4617  -12.4728   19.1476 H   0  0  0  0  0  0
  -30.3350  -11.4002   19.9146 H   0  0  0  0  0  0
  -29.7802  -11.7477   17.4786 H   0  0  0  0  0  0
  -29.6214  -13.4657   17.7515 H   0  0  0  0  0  0
  -27.8946  -11.2412   18.9036 H   0  0  0  0  0  0
  -27.3673  -12.4797   17.7947 H   0  0  0  0  0  0
  -27.6243  -14.1789   19.4021 H   0  0  0  0  0  0
  -28.7035  -12.1149   21.4198 H   0  0  0  0  0  0
  -28.4242  -13.7874   21.7990 H   0  0  0  0  0  0
  -25.2746   -9.5636   22.4785 H   0  0  0  0  0  0
  -23.9981   -7.4588   22.7466 H   0  0  0  0  0  0
  -21.0837   -8.8741   19.8927 H   0  0  0  0  0  0
  -22.3704  -10.9651   19.6172 H   0  0  0  0  0  0
  -21.1974   -7.6139   23.9711 H   0  0  0  0  0  0
  -21.1495   -6.0527   25.9077 H   0  0  0  0  0  0
  -22.0603   -2.7604   23.2860 H   0  0  0  0  0  0
  -22.4087  -11.9820   22.4761 H   0  0  0  0  0  0
  -21.1103  -13.1217   22.2652 H   0  0  0  0  0  0
  -24.6722  -15.8410   20.5196 H   0  0  0  0  0  0
  -26.2828  -15.6109   20.0700 H   0  0  0  0  0  0
  -26.7160  -32.5484   23.1136 H   0  0  0  0  0  0
  -25.0161  -33.9780   25.0509 H   0  0  0  0  0  0
  -22.7054  -31.3086   21.4062 H   0  0  0  0  0  0
  -23.3772  -35.9600   23.3280 H   0  0  0  0  0  0
  -24.3582  -36.8936   22.2067 H   0  0  0  0  0  0
  -23.7194  -37.6472   23.6673 H   0  0  0  0  0  0
  -26.0791  -31.5778   20.6071 H   0  0  0  0  0  0
  -26.8300  -30.8567   21.9996 H   0  0  0  0  0  0
  -28.1070  -29.0342   21.1903 H   0  0  0  0  0  0
  -26.0199  -25.9690   18.9790 H   0  0  0  0  0  0
  -23.9795  -27.3179   18.9980 H   0  0  0  0  0  0
  -23.7361  -30.6024   19.4046 H   0  0  0  0  0  0
  -22.7462  -29.2498   19.8600 H   0  0  0  0  0  0
  -25.1285  -36.1961   25.0825 H   0  0  0  0  0  0
  -20.9949  -28.3257   24.1406 H   0  0  0  0  0  0
  -20.5686  -26.2309   23.3609 H   0  0  0  0  0  0
  -21.6648  -26.7471   22.1180 H   0  0  0  0  0  0
  -19.6921  -25.6292   21.1254 H   0  0  0  0  0  0
  -19.6679  -27.3195   20.6737 H   0  0  0  0  0  0
  -17.4196  -26.6705   21.3995 H   0  0  0  0  0  0
  -18.0295  -26.0055   22.8969 H   0  0  0  0  0  0
  -19.7947  -30.7279   24.2253 H   0  0  0  0  0  0
  -17.5032  -31.6277   24.5169 H   0  0  0  0  0  0
  -15.5367  -30.3020   23.7669 H   0  0  0  0  0  0
  -15.8644  -28.0846   22.7089 H   0  0  0  0  0  0
  -24.5876  -30.7119   25.7814 H   0  0  0  0  0  0
  -24.8972  -32.2900   26.4975 H   0  0  0  0  0  0
  -25.8071  -30.8855   27.0231 H   0  0  0  0  0  0
  -26.2926  -29.6788   24.1219 H   0  0  0  0  0  0
  -27.4121  -29.7322   25.4656 H   0  0  0  0  0  0
  -27.8743  -30.4386   23.9343 H   0  0  0  0  0  0
  -27.2686  -33.3686   26.2015 H   0  0  0  0  0  0
  -28.3884  -32.6852   25.0327 H   0  0  0  0  0  0
  -28.0687  -31.8509   26.5465 H   0  0  0  0  0  0
  -28.2573  -38.0130   24.7567 H   0  0  0  0  0  0
  -28.1101  -36.2664   24.6205 H   0  0  0  0  0  0
  -27.2305  -37.1345   25.8867 H   0  0  0  0  0  0
  -20.9342  -29.8826   21.6951 H   0  0  0  0  0  0
  -26.0167  -38.2868   24.1449 H   0  0  0  0  0  0
  -30.3410  -23.2090   22.4992 H   0  0  0  0  0  0
  -30.8497  -24.0475   21.0658 H   0  0  0  0  0  0
  -29.9966  -23.5217   18.8720 H   0  0  0  0  0  0
  -28.8020  -22.2841   18.6094 H   0  0  0  0  0  0
  -29.3403  -25.5109   22.3133 H   0  0  0  0  0  0
  -28.2032  -24.2239   22.5169 H   0  0  0  0  0  0
  -27.0549  -23.5333   19.5868 H   0  0  0  0  0  0
  -27.8404  -24.5955   18.4746 H   0  0  0  0  0  0
  -31.9628  -17.6940   20.2802 H   0  0  0  0  0  0
  -32.0178  -18.6148   21.7546 H   0  0  0  0  0  0
  -28.1322  -18.1341   19.9795 H   0  0  0  0  0  0
  -29.4590  -17.3901   19.1359 H   0  0  0  0  0  0
  -30.6565  -16.8773   22.9100 H   0  0  0  0  0  0
  -32.0662  -16.1664   22.1997 H   0  0  0  0  0  0
  -28.2301  -15.7520   20.4926 H   0  0  0  0  0  0
  -28.4972  -16.6318   21.9433 H   0  0  0  0  0  0
  -28.6087  -21.9624   21.1210 H   0  0  0  0  0  0
  -29.5921  -19.0587   21.6841 H   0  0  0  0  0  0
  -27.0669  -25.1661   21.0038 H   0  0  0  0  0  0
  -28.9633  -18.9699   15.2469 H   0  0  0  0  0  0
  -29.7578  -18.2122   16.6077 H   0  0  0  0  0  0
  -30.7198  -18.9480   15.3289 H   0  0  0  0  0  0
  -28.7111  -21.4370   15.0737 H   0  0  0  0  0  0
  -30.4596  -21.6333   14.9917 H   0  0  0  0  0  0
  -29.5254  -22.5211   16.1895 H   0  0  0  0  0  0
  -30.8686  -20.9832   21.6471 H   0  0  0  0  0  0
  -31.5149  -21.6731   20.2158 H   0  0  0  0  0  0
  -31.9242  -20.5101   16.9019 H   0  0  0  0  0  0
  -31.0999  -21.6735   17.8667 H   0  0  0  0  0  0
  -32.2294  -19.7690   19.1209 H   0  0  0  0  0  0
  -31.1113  -18.6717   18.3965 H   0  0  0  0  0  0
  -28.9067  -20.4016   17.3141 H   0  0  0  0  0  0
  -29.3610  -20.1222   19.4754 H   0  0  0  0  0  0
  1 25  1  0  0  0
  1 30  2  0  0  0
  1 88  1  0  0  0
  2  3  1  0  0  0
  2 25  1  0  0  0
  2 90  1  0  0  0
  2 91  1  0  0  0
  3  4  1  0  0  0
  3 92  1  0  0  0
  3 93  1  0  0  0
  4  5  1  0  0  0
  4 94  1  0  0  0
  4 95  1  0  0  0
  5  6  1  0  0  0
  5 26  1  0  0  0
  5 96  1  0  0  0
  6 25  1  0  0  0
  6 97  1  0  0  0
  6 98  1  0  0  0
  7  8  2  0  0  0
  7 26  1  0  0  0
  7 29  1  0  0  0
  8  9  1  0  0  0
  8 22  1  0  0  0
  9 10  1  0  0  0
  9 27  2  0  0  0
 10 11  2  0  0  0
 10 15  1  0  0  0
 11 12  1  0  0  0
 11 99  1  0  0  0
 12 13  2  0  0  0
 12100  1  0  0  0
 13 14  1  0  0  0
 13 31  1  0  0  0
 14 15  2  0  0  0
 14101  1  0  0  0
 15102  1  0  0  0
 16 17  2  0  0  0
 16 21  1  0  0  0
 16 31  1  0  0  0
 17 18  1  0  0  0
 17103  1  0  0  0
 18 19  2  0  0  0
 18104  1  0  0  0
 19 20  1  0  0  0
 19 24  1  0  0  0
 20 21  2  0  0  0
 20105  1  0  0  0
 21 23  1  0  0  0
 22 28  1  0  0  0
 22 32  2  0  0  0
 26 27  1  0  0  0
 28106  1  0  0  0
 28107  1  0  0  0
 29108  1  0  0  0
 29109  1  0  0  0
 33 34  1  0  0  0
 33 66  1  0  0  0
 33 70  2  0  0  0
 34 36  1  0  0  0
 34 59  1  0  0  0
 34110  1  0  0  0
 35 44  2  0  0  0
 35 45  1  0  0  0
 35 68  1  0  0  0
 36 56  1  0  0  0
 36111  1  0  0  0
 37 39  1  0  0  0
 37 47  1  0  0  0
 37 66  1  0  0  0
 37112  1  0  0  0
 38 43  2  0  0  0
 38 46  1  0  0  0
 38 47  1  0  0  0
 39 64  1  0  0  0
 39 67  2  0  0  0
 40 52  1  0  0  0
 40 53  2  0  0  0
 40 58  1  0  0  0
 41113  1  0  0  0
 41114  1  0  0  0
 41115  1  0  0  0
 41 48  1  0  0  0
 42 43  1  0  0  0
 42 66  1  0  0  0
 42116  1  0  0  0
 42117  1  0  0  0
 43 44  1  0  0  0
 44118  1  0  0  0
 45 46  2  0  0  0
 45119  1  0  0  0
 46120  1  0  0  0
 47121  1  0  0  0
 47122  1  0  0  0
 48 56  1  0  0  0
 48 65  1  0  0  0
 48123  1  0  0  0
 49 50  1  0  0  0
 49 53  1  0  0  0
 49 64  1  0  0  0
 49124  1  0  0  0
 50 51  1  0  0  0
 50125  1  0  0  0
 50126  1  0  0  0
 51 52  1  0  0  0
 51127  1  0  0  0
 51128  1  0  0  0
 52129  1  0  0  0
 52130  1  0  0  0
 53 54  1  0  0  0
 54 55  2  0  0  0
 54131  1  0  0  0
 55 57  1  0  0  0
 55132  1  0  0  0
 56 69  2  0  0  0
 57 58  2  0  0  0
 57133  1  0  0  0
 58134  1  0  0  0
 59 60  1  0  0  0
 59 61  1  0  0  0
 59 62  1  0  0  0
 60135  1  0  0  0
 60136  1  0  0  0
 60137  1  0  0  0
 61138  1  0  0  0
 61139  1  0  0  0
 61140  1  0  0  0
 62141  1  0  0  0
 62142  1  0  0  0
 62143  1  0  0  0
 63 65  1  0  0  0
 63144  1  0  0  0
 63145  1  0  0  0
 63146  1  0  0  0
 64147  1  0  0  0
 65148  1  0  0  0
 68 81  1  0  0  0
 71 73  1  0  0  0
 71 79  1  0  0  0
 71149  1  0  0  0
 71150  1  0  0  0
 72 74  1  0  0  0
 72 79  1  0  0  0
 72151  1  0  0  0
 72152  1  0  0  0
 73 81  1  0  0  0
 73153  1  0  0  0
 73154  1  0  0  0
 74 81  1  0  0  0
 74155  1  0  0  0
 74156  1  0  0  0
 75 77  1  0  0  0
 75157  1  0  0  0
 75158  1  0  0  0
 75 80  1  0  0  0
 76 78  1  0  0  0
 76 80  1  0  0  0
 76159  1  0  0  0
 76160  1  0  0  0
 77 88  1  0  0  0
 77161  1  0  0  0
 77162  1  0  0  0
 78 88  1  0  0  0
 78163  1  0  0  0
 78164  1  0  0  0
 79 84  1  0  0  0
 79165  1  0  0  0
 80 89  1  0  0  0
 80166  1  0  0  0
 81167  1  0  0  0
 82168  1  0  0  0
 82169  1  0  0  0
 82170  1  0  0  0
 82 87  1  0  0  0
 83 87  1  0  0  0
 83171  1  0  0  0
 83172  1  0  0  0
 83173  1  0  0  0
 84174  1  0  0  0
 84175  1  0  0  0
 84 89  1  0  0  0
 85 86  1  0  0  0
 85 87  1  0  0  0
 85176  1  0  0  0
 85177  1  0  0  0
 86 89  1  0  0  0
 86178  1  0  0  0
 86179  1  0  0  0
 87180  1  0  0  0
 89181  1  0  0  0
M  CHG  1  89   1
M  ISO  4   1 100  68 101  81 101  88 100
M  END
> <chiral flag>
0

> <version>
0

> <s_m_source_file>
/data/baiqing/PycharmProjects/Reinvent-master-3.2/result/LINK_invent/BTK/process_docking_weight1_custom_sum_contain_oxygen_bond_distance_aromatic_linkinvent_7_9_3/rearranged_h_0121.sdf

> <i_m_source_file_index>
18

> <r_mmod_Potential_Energy-OPLS-2005>
278.62060546875

> <r_mmod_Stretch_Energy-OPLS-2005>
67.9337844848633

> <r_mmod_Bend_Energy-OPLS-2005>
163.507583618164

> <r_mmod_Torsional_Energy-OPLS-2005>
394.275390625

> <r_mmod_Improper_Torsional_Energy-OPLS-2005>
3.06373310089111

> <r_mmod_Van_der_Waal_Energy-OPLS-2005>
139.420852661133

> <r_mmod_Electrostatic_Energy-OPLS-2005>
-118.227256774902

> <r_mmod_Solvation_Energy-OPLS-2005>
-409.174591064453

> <b_mmod_Minimization_Converged-OPLS-2005>
0

> <r_mmod_RMS_Derivative-OPLS-2005>
1.82227218151093

$$$$
18
                    3D
 Structure written by MMmdl.
170180  0  0  1  0            999 V2000
  -30.6612  -14.7119   20.4537 C   0  0  0  0  0  0
  -30.4268  -12.4294   19.4665 C   0  0  0  0  0  0
  -29.5020  -12.3951   18.2320 C   0  0  0  0  0  0
  -28.0188  -12.2903   18.6565 C   0  0  0  0  0  0
  -27.6275  -13.2079   19.8494 C   0  0  2  0  0  0
  -28.6833  -13.2028   20.9713 C   0  0  0  0  0  0
  -25.2499  -13.8113   20.5768 C   0  0  0  0  0  0
  -24.1775  -13.0385   20.9235 C   0  0  0  0  0  0
  -24.6353  -11.6861   20.8857 C   0  0  0  0  0  0
  -23.9042  -10.4247   21.0456 C   0  0  0  0  0  0
  -24.3600   -9.4180   21.9255 C   0  0  0  0  0  0
  -23.6270   -8.2211   22.0775 C   0  0  0  0  0  0
  -22.4277   -8.0246   21.3515 C   0  0  0  0  0  0
  -21.9933   -9.0223   20.4618 C   0  0  0  0  0  0
  -22.7239  -10.2102   20.3051 C   0  0  0  0  0  0
  -21.6860   -6.0740   22.5311 C   0  0  0  0  0  0
  -21.4006   -6.5650   23.8231 C   0  0  0  0  0  0
  -21.3640   -5.6812   24.9199 C   0  0  0  0  0  0
  -21.6052   -4.3069   24.7255 C   0  0  0  0  0  0
  -21.8833   -3.8170   23.4374 C   0  0  0  0  0  0
  -21.9200   -4.6977   22.3432 C   0  0  0  0  0  0
  -22.7814  -13.5210   21.1839 C   0  0  0  0  0  0
  -22.1687   -4.2154   21.1013 F   0  0  0  0  0  0
  -21.5648   -3.4556   25.7778 F   0  0  0  0  0  0
  -29.9743  -13.5255   20.3515 N   0  0  0  0  0  0
  -26.2897  -12.9261   20.3422 N   0  0  0  0  0  0
  -25.9284  -11.6445   20.5950 N   0  0  0  0  0  0
  -22.0407  -12.8218   22.0350 N   0  0  0  0  0  0
  -25.4182  -15.1838   20.4175 N   0  0  0  0  0  0
  -31.8639  -14.7470   20.1885 O   0  0  0  0  0  0
  -21.6606   -6.8881   21.4266 O   0  0  0  0  0  0
  -22.3556  -14.5543   20.6671 O   0  0  0  0  0  0
  -24.6263  -31.8603   23.2030 C   0  0  0  0  0  0
  -25.9126  -32.4783   23.8342 C   0  0  1  0  0  0
  -27.2021  -27.3003   20.1365 C   0  0  0  0  0  0
  -25.5967  -33.8574   24.2300 N   0  0  0  0  0  0
  -23.4181  -30.4848   21.5432 C   0  0  2  0  0  0
  -24.8649  -28.9380   20.1074 C   0  0  0  0  0  0
  -22.7460  -29.4616   22.4899 C   0  0  0  0  0  0
  -18.0277  -28.1397   22.8470 C   0  0  0  0  0  0
  -24.1480  -36.7257   23.2634 C   0  0  0  0  0  0
  -25.9594  -30.7863   21.3760 C   0  0  0  0  0  0
  -26.0333  -29.4114   20.7185 C   0  0  0  0  0  0
  -27.2099  -28.6052   20.7202 C   0  0  0  0  0  0
  -26.0217  -26.8904   19.4801 C   0  0  0  0  0  0
  -24.8626  -27.6852   19.4764 C   0  0  0  0  0  0
  -23.6379  -29.8254   20.1556 C   0  0  0  0  0  0
  -25.4111  -36.3060   24.0334 C   0  0  1  0  0  0
  -20.5873  -28.3712   23.1263 C   0  0  2  0  0  0
  -20.6773  -26.9434   22.5400 C   0  0  0  0  0  0
  -19.5756  -26.6396   21.5195 C   0  0  0  0  0  0
  -18.1931  -26.7941   22.1603 C   0  0  0  0  0  0
  -19.1529  -28.8859   23.2877 C   0  0  0  0  0  0
  -18.9467  -30.1456   23.8911 C   0  0  0  0  0  0
  -17.6470  -30.6612   24.0552 C   0  0  0  0  0  0
  -25.9046  -34.9433   23.5105 C   0  0  0  0  0  0
  -16.5350  -29.9111   23.6328 C   0  0  0  0  0  0
  -16.7265  -28.6517   23.0364 C   0  0  0  0  0  0
  -26.4519  -31.6585   25.0699 C   0  0  0  0  0  0
  -25.3762  -31.3740   26.1438 C   0  0  0  0  0  0
  -27.0338  -30.2987   24.6162 C   0  0  0  0  0  0
  -27.6083  -32.4318   25.7466 C   0  0  0  0  0  0
  -27.5580  -37.1796   24.8476 C   0  0  0  0  0  0
  -21.4170  -29.3062   22.3647 N   0  0  0  0  0  0
  -26.4282  -37.3766   23.9419 N   0  0  0  0  0  0
  -24.6861  -31.0623   22.0962 N   0  0  0  0  0  0
  -23.4174  -28.8155   23.2985 O   0  0  0  0  0  0
  -28.2877  -26.4165   20.2156 O   0  0  0  0  0  0
  -26.5591  -34.8902   22.4652 O   0  0  0  0  0  0
  -23.5443  -32.1406   23.7376 O   0  0  0  0  0  0
  -28.0320  -18.7253   18.7957 C   0  0  0  0  0  0
  -28.8547  -16.0687   18.4933 C   0  0  0  0  0  0
  -27.5862  -17.9641   17.7137 C   0  0  0  0  0  0
  -28.0051  -16.6647   17.5561 C   0  0  0  0  0  0
  -28.8837  -18.1642   19.7906 C   0  0  0  0  0  0
  -29.2531  -16.7364   19.6799 C   0  0  0  0  0  0
  -26.6943  -18.4053   16.5827 C   0  0  0  0  0  0
  -27.4412  -16.0367   16.3133 C   0  0  0  0  0  0
  -26.4710  -17.1115   15.7647 C   0  0  0  0  0  0
  -28.0763  -22.4792   19.5407 C   0  0  0  0  0  0
  -28.5368  -22.8622   21.9383 C   0  0  0  0  0  0
  -28.3220  -24.0134   19.2571 C   0  0  0  0  0  0
  -28.7908  -24.3894   21.6637 C   0  0  0  0  0  0
  -28.8552  -21.8767   20.7614 C   0  0  1  0  0  0
  -28.0127  -24.9682   20.4505 C   0  0  1  0  0  0
  -29.3856  -19.2232   20.8339 C   0  0  0  0  0  0
  -29.9952  -15.9130   20.6521 N   0  0  0  0  0  0
  -28.4929  -20.4298   21.1263 N   0  3  0  0  0  0
  -31.4640  -12.5442   19.1499 H   0  0  0  0  0  0
  -30.3907  -11.4821   20.0072 H   0  0  0  0  0  0
  -29.7571  -11.5336   17.6144 H   0  0  0  0  0  0
  -29.6799  -13.2459   17.5794 H   0  0  0  0  0  0
  -27.8537  -11.2503   18.9431 H   0  0  0  0  0  0
  -27.3631  -12.4735   17.8047 H   0  0  0  0  0  0
  -27.5732  -14.2126   19.4609 H   0  0  0  0  0  0
  -28.7204  -12.2338   21.4710 H   0  0  0  0  0  0
  -28.4233  -13.9366   21.7361 H   0  0  0  0  0  0
  -25.2728   -9.5641   22.4864 H   0  0  0  0  0  0
  -23.9944   -7.4648   22.7561 H   0  0  0  0  0  0
  -21.0845   -8.8723   19.8960 H   0  0  0  0  0  0
  -22.3717  -10.9646   19.6140 H   0  0  0  0  0  0
  -21.1988   -7.6171   23.9730 H   0  0  0  0  0  0
  -21.1453   -6.0544   25.9091 H   0  0  0  0  0  0
  -22.0632   -2.7640   23.2895 H   0  0  0  0  0  0
  -22.3887  -11.9835   22.4756 H   0  0  0  0  0  0
  -21.1000  -13.1267   22.2398 H   0  0  0  0  0  0
  -24.6479  -15.8333   20.5355 H   0  0  0  0  0  0
  -26.2701  -15.6314   20.1036 H   0  0  0  0  0  0
  -26.7178  -32.5444   23.1067 H   0  0  0  0  0  0
  -25.0250  -33.9706   25.0540 H   0  0  0  0  0  0
  -22.7127  -31.3059   21.4026 H   0  0  0  0  0  0
  -23.3752  -35.9580   23.3303 H   0  0  0  0  0  0
  -24.3570  -36.8865   22.2046 H   0  0  0  0  0  0
  -23.7207  -37.6454   23.6633 H   0  0  0  0  0  0
  -26.0941  -31.5489   20.6083 H   0  0  0  0  0  0
  -26.8380  -30.8328   22.0068 H   0  0  0  0  0  0
  -28.1031  -28.9582   21.2192 H   0  0  0  0  0  0
  -25.9780  -25.9311   18.9843 H   0  0  0  0  0  0
  -23.9686  -27.3224   18.9867 H   0  0  0  0  0  0
  -23.7689  -30.6038   19.4033 H   0  0  0  0  0  0
  -22.7536  -29.2654   19.8457 H   0  0  0  0  0  0
  -25.1275  -36.1918   25.0828 H   0  0  0  0  0  0
  -20.9970  -28.3316   24.1382 H   0  0  0  0  0  0
  -20.5653  -26.2330   23.3610 H   0  0  0  0  0  0
  -21.6660  -26.7475   22.1218 H   0  0  0  0  0  0
  -19.6921  -25.6297   21.1254 H   0  0  0  0  0  0
  -19.6706  -27.3182   20.6705 H   0  0  0  0  0  0
  -17.4207  -26.6677   21.4003 H   0  0  0  0  0  0
  -18.0351  -26.0085   22.9004 H   0  0  0  0  0  0
  -19.7942  -30.7257   24.2318 H   0  0  0  0  0  0
  -17.5031  -31.6293   24.5151 H   0  0  0  0  0  0
  -15.5357  -30.3028   23.7648 H   0  0  0  0  0  0
  -15.8655  -28.0833   22.7112 H   0  0  0  0  0  0
  -24.5983  -30.7006   25.7819 H   0  0  0  0  0  0
  -24.8899  -32.2907   26.4775 H   0  0  0  0  0  0
  -25.8132  -30.9026   27.0250 H   0  0  0  0  0  0
  -26.2901  -29.6754   24.1184 H   0  0  0  0  0  0
  -27.3992  -29.7233   25.4684 H   0  0  0  0  0  0
  -27.8792  -30.4230   23.9389 H   0  0  0  0  0  0
  -27.2707  -33.3647   26.1985 H   0  0  0  0  0  0
  -28.3930  -32.6853   25.0322 H   0  0  0  0  0  0
  -28.0693  -31.8469   26.5433 H   0  0  0  0  0  0
  -28.2617  -38.0075   24.7516 H   0  0  0  0  0  0
  -28.1046  -36.2615   24.6298 H   0  0  0  0  0  0
  -27.2293  -37.1449   25.8875 H   0  0  0  0  0  0
  -20.9350  -29.8790   21.6858 H   0  0  0  0  0  0
  -26.0156  -38.2827   24.1450 H   0  0  0  0  0  0
  -27.7194  -19.7560   18.8254 H   0  0  0  0  0  0
  -29.1605  -15.0656   18.2888 H   0  0  0  0  0  0
  -27.2049  -19.1654   15.9887 H   0  0  0  0  0  0
  -25.7559  -18.8271   16.9464 H   0  0  0  0  0  0
  -26.9290  -15.1010   16.5484 H   0  0  0  0  0  0
  -28.2468  -15.8331   15.6051 H   0  0  0  0  0  0
  -26.5964  -17.2697   14.6929 H   0  0  0  0  0  0
  -25.4484  -16.7663   15.9195 H   0  0  0  0  0  0
  -28.3168  -21.9167   18.6383 H   0  0  0  0  0  0
  -27.0068  -22.3370   19.7003 H   0  0  0  0  0  0
  -27.4867  -22.7516   22.2126 H   0  0  0  0  0  0
  -29.1051  -22.5690   22.8220 H   0  0  0  0  0  0
  -27.7221  -24.3162   18.3977 H   0  0  0  0  0  0
  -29.3600  -24.1553   18.9575 H   0  0  0  0  0  0
  -29.8578  -24.5606   21.5243 H   0  0  0  0  0  0
  -28.5088  -24.9521   22.5557 H   0  0  0  0  0  0
  -29.9270  -21.9228   20.5608 H   0  0  0  0  0  0
  -26.9626  -24.8399   20.7104 H   0  0  0  0  0  0
  -30.3795  -19.5584   20.5393 H   0  0  0  0  0  0
  -29.5165  -18.6957   21.7788 H   0  0  0  0  0  0
  -30.5157  -16.4833   21.3002 H   0  0  0  0  0  0
  -27.5407  -20.2134   20.8822 H   0  0  0  0  0  0
  -28.5030  -20.4390   22.1324 H   0  0  0  0  0  0
  1 25  1  0  0  0
  1 30  2  0  0  0
  1 87  1  0  0  0
  2  3  1  0  0  0
  2 25  1  0  0  0
  2 89  1  0  0  0
  2 90  1  0  0  0
  3  4  1  0  0  0
  3 91  1  0  0  0
  3 92  1  0  0  0
  4  5  1  0  0  0
  4 93  1  0  0  0
  4 94  1  0  0  0
  5  6  1  0  0  0
  5 26  1  0  0  0
  5 95  1  0  0  0
  6 25  1  0  0  0
  6 96  1  0  0  0
  6 97  1  0  0  0
  7  8  2  0  0  0
  7 26  1  0  0  0
  7 29  1  0  0  0
  8  9  1  0  0  0
  8 22  1  0  0  0
  9 10  1  0  0  0
  9 27  2  0  0  0
 10 11  2  0  0  0
 10 15  1  0  0  0
 11 12  1  0  0  0
 11 98  1  0  0  0
 12 13  2  0  0  0
 12 99  1  0  0  0
 13 14  1  0  0  0
 13 31  1  0  0  0
 14 15  2  0  0  0
 14100  1  0  0  0
 15101  1  0  0  0
 16 17  2  0  0  0
 16 21  1  0  0  0
 16 31  1  0  0  0
 17 18  1  0  0  0
 17102  1  0  0  0
 18 19  2  0  0  0
 18103  1  0  0  0
 19 20  1  0  0  0
 19 24  1  0  0  0
 20 21  2  0  0  0
 20104  1  0  0  0
 21 23  1  0  0  0
 22 28  1  0  0  0
 22 32  2  0  0  0
 26 27  1  0  0  0
 28105  1  0  0  0
 28106  1  0  0  0
 29107  1  0  0  0
 29108  1  0  0  0
 33 34  1  0  0  0
 33 66  1  0  0  0
 33 70  2  0  0  0
 34 36  1  0  0  0
 34 59  1  0  0  0
 34109  1  0  0  0
 35 44  2  0  0  0
 35 45  1  0  0  0
 35 68  1  0  0  0
 36 56  1  0  0  0
 36110  1  0  0  0
 37 39  1  0  0  0
 37 47  1  0  0  0
 37 66  1  0  0  0
 37111  1  0  0  0
 38 43  2  0  0  0
 38 46  1  0  0  0
 38 47  1  0  0  0
 39 64  1  0  0  0
 39 67  2  0  0  0
 40 52  1  0  0  0
 40 53  2  0  0  0
 40 58  1  0  0  0
 41112  1  0  0  0
 41113  1  0  0  0
 41114  1  0  0  0
 41 48  1  0  0  0
 42 43  1  0  0  0
 42 66  1  0  0  0
 42115  1  0  0  0
 42116  1  0  0  0
 43 44  1  0  0  0
 44117  1  0  0  0
 45 46  2  0  0  0
 45118  1  0  0  0
 46119  1  0  0  0
 47120  1  0  0  0
 47121  1  0  0  0
 48 56  1  0  0  0
 48 65  1  0  0  0
 48122  1  0  0  0
 49 50  1  0  0  0
 49 53  1  0  0  0
 49 64  1  0  0  0
 49123  1  0  0  0
 50 51  1  0  0  0
 50124  1  0  0  0
 50125  1  0  0  0
 51 52  1  0  0  0
 51126  1  0  0  0
 51127  1  0  0  0
 52128  1  0  0  0
 52129  1  0  0  0
 53 54  1  0  0  0
 54 55  2  0  0  0
 54130  1  0  0  0
 55 57  1  0  0  0
 55131  1  0  0  0
 56 69  2  0  0  0
 57 58  2  0  0  0
 57132  1  0  0  0
 58133  1  0  0  0
 59 60  1  0  0  0
 59 61  1  0  0  0
 59 62  1  0  0  0
 60134  1  0  0  0
 60135  1  0  0  0
 60136  1  0  0  0
 61137  1  0  0  0
 61138  1  0  0  0
 61139  1  0  0  0
 62140  1  0  0  0
 62141  1  0  0  0
 62142  1  0  0  0
 63 65  1  0  0  0
 63143  1  0  0  0
 63144  1  0  0  0
 63145  1  0  0  0
 64146  1  0  0  0
 65147  1  0  0  0
 68 85  1  0  0  0
 71 73  2  0  0  0
 71 75  1  0  0  0
 71148  1  0  0  0
 72 74  2  0  0  0
 72 76  1  0  0  0
 72149  1  0  0  0
 73 74  1  0  0  0
 73 77  1  0  0  0
 74 78  1  0  0  0
 75 76  2  0  0  0
 75 86  1  0  0  0
 76 87  1  0  0  0
 77 79  1  0  0  0
 77150  1  0  0  0
 77151  1  0  0  0
 78 79  1  0  0  0
 78152  1  0  0  0
 78153  1  0  0  0
 79154  1  0  0  0
 79155  1  0  0  0
 80 82  1  0  0  0
 80 84  1  0  0  0
 80156  1  0  0  0
 80157  1  0  0  0
 81 83  1  0  0  0
 81 84  1  0  0  0
 81158  1  0  0  0
 81159  1  0  0  0
 82 85  1  0  0  0
 82160  1  0  0  0
 82161  1  0  0  0
 83 85  1  0  0  0
 83162  1  0  0  0
 83163  1  0  0  0
 84 88  1  0  0  0
 84164  1  0  0  0
 85165  1  0  0  0
 86 88  1  0  0  0
 86166  1  0  0  0
 86167  1  0  0  0
 87168  1  0  0  0
 88169  1  0  0  0
 88170  1  0  0  0
M  CHG  1  88   1
M  ISO  4   1 100  68 101  85 101  87 100
M  END
> <chiral flag>
0

> <version>
0

> <s_m_source_file>
/data/baiqing/PycharmProjects/Reinvent-master-3.2/result/LINK_invent/BTK/process_docking_weight1_custom_sum_contain_oxygen_bond_distance_aromatic_linkinvent_7_9_3/rearranged_h_0121.sdf

> <i_m_source_file_index>
19

> <r_mmod_Potential_Energy-OPLS-2005>
89.4788131713867

> <r_mmod_Stretch_Energy-OPLS-2005>
102.773887634277

> <r_mmod_Bend_Energy-OPLS-2005>
216.115203857422

> <r_mmod_Torsional_Energy-OPLS-2005>
319.113067626953

> <r_mmod_Improper_Torsional_Energy-OPLS-2005>
7.21711206436157

> <r_mmod_Van_der_Waal_Energy-OPLS-2005>
141.487350463867

> <r_mmod_Electrostatic_Energy-OPLS-2005>
-305.69677734375

> <r_mmod_Solvation_Energy-OPLS-2005>
-470.917175292969

> <b_mmod_Minimization_Converged-OPLS-2005>
0

> <r_mmod_RMS_Derivative-OPLS-2005>
3.88258814811707

$$$$
19
                    3D
 Structure written by MMmdl.
175184  0  0  1  0            999 V2000
  -30.7177  -14.3906   20.6199 C   0  0  0  0  0  0
  -30.4233  -12.2723   19.4008 C   0  0  0  0  0  0
  -29.4994  -12.5152   18.1917 C   0  0  0  0  0  0
  -28.0193  -12.3751   18.6035 C   0  0  0  0  0  0
  -27.6689  -13.1919   19.8776 C   0  0  2  0  0  0
  -28.7068  -12.9170   20.9899 C   0  0  0  0  0  0
  -25.2626  -13.8125   20.5632 C   0  0  0  0  0  0
  -24.1859  -13.0438   20.9142 C   0  0  0  0  0  0
  -24.6389  -11.6891   20.8724 C   0  0  0  0  0  0
  -23.9041  -10.4295   21.0395 C   0  0  0  0  0  0
  -24.3591   -9.4212   21.9169 C   0  0  0  0  0  0
  -23.6274   -8.2245   22.0740 C   0  0  0  0  0  0
  -22.4251   -8.0278   21.3549 C   0  0  0  0  0  0
  -21.9891   -9.0238   20.4639 C   0  0  0  0  0  0
  -22.7214  -10.2126   20.3051 C   0  0  0  0  0  0
  -21.6844   -6.0719   22.5284 C   0  0  0  0  0  0
  -21.4004   -6.5618   23.8218 C   0  0  0  0  0  0
  -21.3670   -5.6772   24.9180 C   0  0  0  0  0  0
  -21.6057   -4.3039   24.7225 C   0  0  0  0  0  0
  -21.8823   -3.8132   23.4349 C   0  0  0  0  0  0
  -21.9186   -4.6950   22.3408 C   0  0  0  0  0  0
  -22.7877  -13.5242   21.1811 C   0  0  0  0  0  0
  -22.1651   -4.2139   21.0980 F   0  0  0  0  0  0
  -21.5647   -3.4532   25.7737 F   0  0  0  0  0  0
  -30.0444  -13.2245   20.4529 N   0  0  0  0  0  0
  -26.3061  -12.9275   20.3328 N   0  0  0  0  0  0
  -25.9318  -11.6458   20.5733 N   0  0  0  0  0  0
  -22.0492  -12.8281   22.0378 N   0  0  0  0  0  0
  -25.4391  -15.1850   20.4064 N   0  0  0  0  0  0
  -31.7861  -14.6434   20.0577 O   0  0  0  0  0  0
  -21.6631   -6.8871   21.4250 O   0  0  0  0  0  0
  -22.3586  -14.5554   20.6647 O   0  0  0  0  0  0
  -24.6111  -31.8689   23.2141 C   0  0  0  0  0  0
  -25.9011  -32.4843   23.8415 C   0  0  1  0  0  0
  -27.2380  -27.4609   20.0704 C   0  0  0  0  0  0
  -25.5892  -33.8647   24.2364 N   0  0  0  0  0  0
  -23.3978  -30.4969   21.5532 C   0  0  2  0  0  0
  -24.8397  -28.9638   20.1228 C   0  0  0  0  0  0
  -22.7376  -29.4678   22.4976 C   0  0  0  0  0  0
  -18.0278  -28.1378   22.8486 C   0  0  0  0  0  0
  -24.1486  -36.7307   23.2639 C   0  0  0  0  0  0
  -25.9263  -30.8398   21.3653 C   0  0  0  0  0  0
  -26.0027  -29.4772   20.7113 C   0  0  0  0  0  0
  -27.2009  -28.7334   20.6824 C   0  0  0  0  0  0
  -26.0444  -26.9445   19.5101 C   0  0  0  0  0  0
  -24.8546  -27.6943   19.5235 C   0  0  0  0  0  0
  -23.6023  -29.8294   20.1696 C   0  0  0  0  0  0
  -25.4114  -36.3125   24.0344 C   0  0  1  0  0  0
  -20.5851  -28.3677   23.1286 C   0  0  2  0  0  0
  -20.6766  -26.9401   22.5416 C   0  0  0  0  0  0
  -19.5741  -26.6375   21.5210 C   0  0  0  0  0  0
  -18.1917  -26.7931   22.1608 C   0  0  0  0  0  0
  -19.1518  -28.8834   23.2892 C   0  0  0  0  0  0
  -18.9455  -30.1443   23.8921 C   0  0  0  0  0  0
  -17.6470  -30.6591   24.0559 C   0  0  0  0  0  0
  -25.9023  -34.9485   23.5145 C   0  0  0  0  0  0
  -16.5350  -29.9102   23.6309 C   0  0  0  0  0  0
  -16.7262  -28.6511   23.0344 C   0  0  0  0  0  0
  -26.4443  -31.6625   25.0741 C   0  0  0  0  0  0
  -25.3743  -31.3734   26.1521 C   0  0  0  0  0  0
  -27.0233  -30.3056   24.6095 C   0  0  0  0  0  0
  -27.6023  -32.4329   25.7493 C   0  0  0  0  0  0
  -27.5599  -37.1800   24.8468 C   0  0  0  0  0  0
  -21.4113  -29.3052   22.3701 N   0  0  0  0  0  0
  -26.4318  -37.3804   23.9399 N   0  0  0  0  0  0
  -24.6637  -31.0821   22.1012 N   0  0  0  0  0  0
  -23.4176  -28.8201   23.2981 O   0  0  0  0  0  0
  -28.4459  -26.7912   20.0276 O   0  0  0  0  0  0
  -26.5575  -34.8934   22.4701 O   0  0  0  0  0  0
  -23.5308  -32.1418   23.7532 O   0  0  0  0  0  0
  -31.7728  -21.3985   20.7485 C   0  0  0  0  0  0
  -31.6912  -20.6354   19.5642 C   0  0  0  0  0  0
  -30.4055  -19.0639   20.6826 C   0  0  0  0  0  0
  -30.4242  -19.8786   21.8518 C   0  0  0  0  0  0
  -29.3079  -22.4926   25.4570 C   0  0  0  0  0  0
  -29.3465  -22.7977   23.9818 C   0  0  0  0  0  0
  -29.0078  -21.4007   24.4557 C   0  0  0  0  0  0
  -32.3866  -21.1025   18.2897 C   0  0  0  0  0  0
  -29.7904  -17.6631   20.6737 C   0  0  0  0  0  0
  -29.9682  -20.2358   24.2817 C   0  0  0  0  0  0
  -29.9444  -25.0876   19.1229 C   0  0  0  0  0  0
  -30.5477  -16.6736   21.5901 C   0  0  0  0  0  0
  -31.5539  -22.0318   17.3741 C   0  0  0  0  0  0
  -30.0204  -23.7120   18.4289 C   0  0  0  0  0  0
  -28.4934  -25.5293   19.3629 C   0  0  0  0  0  0
  -31.1272  -21.0349   21.8737 N   0  0  0  0  0  0
  -31.0165  -19.4573   19.5312 N   0  0  0  0  0  0
  -29.7505  -19.5175   23.0272 N   0  0  0  0  0  0
  -30.1019  -15.2978   21.3856 N   0  0  0  0  0  0
  -31.3723  -23.4062   17.9104 N   0  3  0  0  0  0
  -31.4713  -12.3675   19.1080 H   0  0  0  0  0  0
  -30.3048  -11.2491   19.7647 H   0  0  0  0  0  0
  -29.7384  -11.8182   17.3860 H   0  0  0  0  0  0
  -29.6763  -13.5139   17.7881 H   0  0  0  0  0  0
  -27.8293  -11.3172   18.7831 H   0  0  0  0  0  0
  -27.3693  -12.6619   17.7761 H   0  0  0  0  0  0
  -27.7272  -14.2466   19.6117 H   0  0  0  0  0  0
  -28.6777  -11.8670   21.2820 H   0  0  0  0  0  0
  -28.4661  -13.4676   21.8998 H   0  0  0  0  0  0
  -25.2752   -9.5691   22.4731 H   0  0  0  0  0  0
  -23.9998   -7.4647   22.7466 H   0  0  0  0  0  0
  -21.0816   -8.8764   19.8958 H   0  0  0  0  0  0
  -22.3675  -10.9655   19.6158 H   0  0  0  0  0  0
  -21.1985   -7.6121   23.9725 H   0  0  0  0  0  0
  -21.1497   -6.0490   25.9078 H   0  0  0  0  0  0
  -22.0600   -2.7597   23.2846 H   0  0  0  0  0  0
  -22.4052  -11.9923   22.4788 H   0  0  0  0  0  0
  -21.1115  -13.1380   22.2565 H   0  0  0  0  0  0
  -24.6800  -15.8465   20.5191 H   0  0  0  0  0  0
  -26.3028  -15.6265   20.1161 H   0  0  0  0  0  0
  -26.7068  -32.5556   23.1167 H   0  0  0  0  0  0
  -25.0109  -33.9815   25.0551 H   0  0  0  0  0  0
  -22.6894  -31.3167   21.4181 H   0  0  0  0  0  0
  -23.3772  -35.9618   23.3320 H   0  0  0  0  0  0
  -24.3601  -36.8888   22.2052 H   0  0  0  0  0  0
  -23.7196  -37.6505   23.6631 H   0  0  0  0  0  0
  -26.0449  -31.6032   20.5964 H   0  0  0  0  0  0
  -26.8141  -30.8877   21.9853 H   0  0  0  0  0  0
  -28.1037  -29.1441   21.1123 H   0  0  0  0  0  0
  -25.9969  -25.9670   19.0537 H   0  0  0  0  0  0
  -23.9549  -27.2864   19.0835 H   0  0  0  0  0  0
  -23.7128  -30.6052   19.4116 H   0  0  0  0  0  0
  -22.7240  -29.2542   19.8706 H   0  0  0  0  0  0
  -25.1273  -36.2015   25.0839 H   0  0  0  0  0  0
  -20.9987  -28.3275   24.1375 H   0  0  0  0  0  0
  -20.5672  -26.2289   23.3617 H   0  0  0  0  0  0
  -21.6638  -26.7428   22.1195 H   0  0  0  0  0  0
  -19.6909  -25.6294   21.1209 H   0  0  0  0  0  0
  -19.6674  -27.3227   20.6772 H   0  0  0  0  0  0
  -17.4180  -26.6677   21.4012 H   0  0  0  0  0  0
  -18.0312  -26.0079   22.9003 H   0  0  0  0  0  0
  -19.7947  -30.7213   24.2318 H   0  0  0  0  0  0
  -17.5030  -31.6262   24.5181 H   0  0  0  0  0  0
  -15.5359  -30.3010   23.7604 H   0  0  0  0  0  0
  -15.8664  -28.0810   22.7063 H   0  0  0  0  0  0
  -24.5891  -30.7081   25.7903 H   0  0  0  0  0  0
  -24.8970  -32.2897   26.4998 H   0  0  0  0  0  0
  -25.8126  -30.8899   27.0264 H   0  0  0  0  0  0
  -26.2738  -29.6869   24.1134 H   0  0  0  0  0  0
  -27.3975  -29.7235   25.4530 H   0  0  0  0  0  0
  -27.8612  -30.4363   23.9241 H   0  0  0  0  0  0
  -27.2651  -33.3638   26.2067 H   0  0  0  0  0  0
  -28.3835  -32.6866   25.0320 H   0  0  0  0  0  0
  -28.0697  -31.8469   26.5419 H   0  0  0  0  0  0
  -28.2599  -38.0111   24.7529 H   0  0  0  0  0  0
  -28.1092  -36.2630   24.6267 H   0  0  0  0  0  0
  -27.2311  -37.1435   25.8871 H   0  0  0  0  0  0
  -20.9279  -29.8815   21.6945 H   0  0  0  0  0  0
  -26.0210  -38.2875   24.1439 H   0  0  0  0  0  0
  -32.3432  -22.3140   20.7921 H   0  0  0  0  0  0
  -28.4748  -22.9058   26.0223 H   0  0  0  0  0  0
  -30.2618  -22.4687   25.9822 H   0  0  0  0  0  0
  -30.3252  -22.9735   23.5404 H   0  0  0  0  0  0
  -28.5410  -23.4003   23.5690 H   0  0  0  0  0  0
  -27.9612  -21.1088   24.4031 H   0  0  0  0  0  0
  -32.6867  -20.2228   17.7192 H   0  0  0  0  0  0
  -33.3216  -21.5972   18.5567 H   0  0  0  0  0  0
  -29.7982  -17.2791   19.6535 H   0  0  0  0  0  0
  -28.7380  -17.7164   20.9598 H   0  0  0  0  0  0
  -29.8178  -19.5382   25.1060 H   0  0  0  0  0  0
  -30.9975  -20.5891   24.3671 H   0  0  0  0  0  0
  -30.4386  -25.8365   18.5045 H   0  0  0  0  0  0
  -30.4867  -25.0656   20.0685 H   0  0  0  0  0  0
  -30.3750  -16.9191   22.6365 H   0  0  0  0  0  0
  -31.6253  -16.7629   21.4368 H   0  0  0  0  0  0
  -30.6014  -21.5722   17.1038 H   0  0  0  0  0  0
  -32.0947  -22.1483   16.4336 H   0  0  0  0  0  0
  -29.3228  -23.6876   17.5897 H   0  0  0  0  0  0
  -29.6963  -22.9356   19.1215 H   0  0  0  0  0  0
  -27.9640  -24.7903   19.9659 H   0  0  0  0  0  0
  -28.0155  -25.5910   18.3851 H   0  0  0  0  0  0
  -29.2058  -18.6604   23.0414 H   0  0  0  0  0  0
  -29.2327  -15.0145   21.8161 H   0  0  0  0  0  0
  -31.5407  -24.0407   17.1448 H   0  0  0  0  0  0
  -32.0760  -23.6056   18.6007 H   0  0  0  0  0  0
  1 25  1  0  0  0
  1 30  2  0  0  0
  1 89  1  0  0  0
  2  3  1  0  0  0
  2 25  1  0  0  0
  2 91  1  0  0  0
  2 92  1  0  0  0
  3  4  1  0  0  0
  3 93  1  0  0  0
  3 94  1  0  0  0
  4  5  1  0  0  0
  4 95  1  0  0  0
  4 96  1  0  0  0
  5  6  1  0  0  0
  5 26  1  0  0  0
  5 97  1  0  0  0
  6 25  1  0  0  0
  6 98  1  0  0  0
  6 99  1  0  0  0
  7  8  2  0  0  0
  7 26  1  0  0  0
  7 29  1  0  0  0
  8  9  1  0  0  0
  8 22  1  0  0  0
  9 10  1  0  0  0
  9 27  2  0  0  0
 10 11  2  0  0  0
 10 15  1  0  0  0
 11 12  1  0  0  0
 11100  1  0  0  0
 12 13  2  0  0  0
 12101  1  0  0  0
 13 14  1  0  0  0
 13 31  1  0  0  0
 14 15  2  0  0  0
 14102  1  0  0  0
 15103  1  0  0  0
 16 17  2  0  0  0
 16 21  1  0  0  0
 16 31  1  0  0  0
 17 18  1  0  0  0
 17104  1  0  0  0
 18 19  2  0  0  0
 18105  1  0  0  0
 19 20  1  0  0  0
 19 24  1  0  0  0
 20 21  2  0  0  0
 20106  1  0  0  0
 21 23  1  0  0  0
 22 28  1  0  0  0
 22 32  2  0  0  0
 26 27  1  0  0  0
 28107  1  0  0  0
 28108  1  0  0  0
 29109  1  0  0  0
 29110  1  0  0  0
 33 34  1  0  0  0
 33 66  1  0  0  0
 33 70  2  0  0  0
 34 36  1  0  0  0
 34 59  1  0  0  0
 34111  1  0  0  0
 35 44  2  0  0  0
 35 45  1  0  0  0
 35 68  1  0  0  0
 36 56  1  0  0  0
 36112  1  0  0  0
 37 39  1  0  0  0
 37 47  1  0  0  0
 37 66  1  0  0  0
 37113  1  0  0  0
 38 43  2  0  0  0
 38 46  1  0  0  0
 38 47  1  0  0  0
 39 64  1  0  0  0
 39 67  2  0  0  0
 40 52  1  0  0  0
 40 53  2  0  0  0
 40 58  1  0  0  0
 41114  1  0  0  0
 41115  1  0  0  0
 41116  1  0  0  0
 41 48  1  0  0  0
 42 43  1  0  0  0
 42 66  1  0  0  0
 42117  1  0  0  0
 42118  1  0  0  0
 43 44  1  0  0  0
 44119  1  0  0  0
 45 46  2  0  0  0
 45120  1  0  0  0
 46121  1  0  0  0
 47122  1  0  0  0
 47123  1  0  0  0
 48 56  1  0  0  0
 48 65  1  0  0  0
 48124  1  0  0  0
 49 50  1  0  0  0
 49 53  1  0  0  0
 49 64  1  0  0  0
 49125  1  0  0  0
 50 51  1  0  0  0
 50126  1  0  0  0
 50127  1  0  0  0
 51 52  1  0  0  0
 51128  1  0  0  0
 51129  1  0  0  0
 52130  1  0  0  0
 52131  1  0  0  0
 53 54  1  0  0  0
 54 55  2  0  0  0
 54132  1  0  0  0
 55 57  1  0  0  0
 55133  1  0  0  0
 56 69  2  0  0  0
 57 58  2  0  0  0
 57134  1  0  0  0
 58135  1  0  0  0
 59 60  1  0  0  0
 59 61  1  0  0  0
 59 62  1  0  0  0
 60136  1  0  0  0
 60137  1  0  0  0
 60138  1  0  0  0
 61139  1  0  0  0
 61140  1  0  0  0
 61141  1  0  0  0
 62142  1  0  0  0
 62143  1  0  0  0
 62144  1  0  0  0
 63 65  1  0  0  0
 63145  1  0  0  0
 63146  1  0  0  0
 63147  1  0  0  0
 64148  1  0  0  0
 65149  1  0  0  0
 68 85  1  0  0  0
 71 72  2  0  0  0
 71 86  1  0  0  0
 71150  1  0  0  0
 72 78  1  0  0  0
 72 87  1  0  0  0
 73 74  1  0  0  0
 73 79  1  0  0  0
 73 87  2  0  0  0
 74 86  2  0  0  0
 74 88  1  0  0  0
 75 76  1  0  0  0
 75 77  1  0  0  0
 75151  1  0  0  0
 75152  1  0  0  0
 76 77  1  0  0  0
 76153  1  0  0  0
 76154  1  0  0  0
 77 80  1  0  0  0
 77155  1  0  0  0
 78 83  1  0  0  0
 78156  1  0  0  0
 78157  1  0  0  0
 79 82  1  0  0  0
 79158  1  0  0  0
 79159  1  0  0  0
 80 88  1  0  0  0
 80160  1  0  0  0
 80161  1  0  0  0
 81 84  1  0  0  0
 81 85  1  0  0  0
 81162  1  0  0  0
 81163  1  0  0  0
 82 89  1  0  0  0
 82164  1  0  0  0
 82165  1  0  0  0
 83 90  1  0  0  0
 83166  1  0  0  0
 83167  1  0  0  0
 84 90  1  0  0  0
 84168  1  0  0  0
 84169  1  0  0  0
 85170  1  0  0  0
 85171  1  0  0  0
 88172  1  0  0  0
 89173  1  0  0  0
 90174  1  0  0  0
 90175  1  0  0  0
M  CHG  1  90   1
M  ISO  4   1 100  68 101  85 101  89 100
M  END
> <chiral flag>
0

> <version>
0

> <s_m_source_file>
/data/baiqing/PycharmProjects/Reinvent-master-3.2/result/LINK_invent/BTK/process_docking_weight1_custom_sum_contain_oxygen_bond_distance_aromatic_linkinvent_7_9_3/rearranged_h_0121.sdf

> <i_m_source_file_index>
20

> <r_mmod_Potential_Energy-OPLS-2005>
-259.057556152344

> <r_mmod_Stretch_Energy-OPLS-2005>
36.1002464294434

> <r_mmod_Bend_Energy-OPLS-2005>
110.617660522461

> <r_mmod_Torsional_Energy-OPLS-2005>
232.190185546875

> <r_mmod_Improper_Torsional_Energy-OPLS-2005>
2.71095728874207

> <r_mmod_Van_der_Waal_Energy-OPLS-2005>
159.969757080078

> <r_mmod_Electrostatic_Energy-OPLS-2005>
-299.866790771484

> <r_mmod_Solvation_Energy-OPLS-2005>
-509.192993164062

> <b_mmod_Minimization_Converged-OPLS-2005>
0

> <r_mmod_RMS_Derivative-OPLS-2005>
4.71538400650024

$$$$
20
                    3D
 Structure written by MMmdl.
172181  0  0  1  0            999 V2000
  -30.7365  -14.3970   20.6064 C   0  0  0  0  0  0
  -30.4265  -12.2670   19.4202 C   0  0  0  0  0  0
  -29.4975  -12.4926   18.2081 C   0  0  0  0  0  0
  -28.0194  -12.3489   18.6166 C   0  0  0  0  0  0
  -27.6668  -13.1802   19.8755 C   0  0  2  0  0  0
  -28.7062  -12.9526   21.0027 C   0  0  0  0  0  0
  -25.2641  -13.8092   20.5681 C   0  0  0  0  0  0
  -24.1867  -13.0429   20.9197 C   0  0  0  0  0  0
  -24.6377  -11.6883   20.8773 C   0  0  0  0  0  0
  -23.9034  -10.4285   21.0440 C   0  0  0  0  0  0
  -24.3583   -9.4201   21.9217 C   0  0  0  0  0  0
  -23.6255   -8.2238   22.0773 C   0  0  0  0  0  0
  -22.4246   -8.0283   21.3551 C   0  0  0  0  0  0
  -21.9874   -9.0260   20.4659 C   0  0  0  0  0  0
  -22.7203  -10.2143   20.3083 C   0  0  0  0  0  0
  -21.6839   -6.0726   22.5267 C   0  0  0  0  0  0
  -21.3995   -6.5626   23.8212 C   0  0  0  0  0  0
  -21.3659   -5.6782   24.9178 C   0  0  0  0  0  0
  -21.6041   -4.3038   24.7224 C   0  0  0  0  0  0
  -21.8822   -3.8141   23.4342 C   0  0  0  0  0  0
  -21.9179   -4.6956   22.3399 C   0  0  0  0  0  0
  -22.7887  -13.5285   21.1834 C   0  0  0  0  0  0
  -22.1676   -4.2153   21.0980 F   0  0  0  0  0  0
  -21.5622   -3.4527   25.7735 F   0  0  0  0  0  0
  -30.0582  -13.2276   20.4722 N   0  0  0  0  0  0
  -26.3038  -12.9196   20.3337 N   0  0  0  0  0  0
  -25.9280  -11.6399   20.5754 N   0  0  0  0  0  0
  -22.0463  -12.8335   22.0378 N   0  0  0  0  0  0
  -25.4422  -15.1803   20.4089 N   0  0  0  0  0  0
  -31.8167  -14.6317   20.0579 O   0  0  0  0  0  0
  -21.6619   -6.8873   21.4241 O   0  0  0  0  0  0
  -22.3619  -14.5584   20.6642 O   0  0  0  0  0  0
  -24.6059  -31.8729   23.2130 C   0  0  0  0  0  0
  -25.8981  -32.4856   23.8419 C   0  0  1  0  0  0
  -27.2500  -27.4834   20.0678 C   0  0  0  0  0  0
  -25.5854  -33.8654   24.2351 N   0  0  0  0  0  0
  -23.3919  -30.4885   21.5578 C   0  0  2  0  0  0
  -24.8397  -28.9620   20.1213 C   0  0  0  0  0  0
  -22.7386  -29.4609   22.5083 C   0  0  0  0  0  0
  -18.0246  -28.1350   22.8507 C   0  0  0  0  0  0
  -24.1484  -36.7317   23.2640 C   0  0  0  0  0  0
  -25.9158  -30.8501   21.3626 C   0  0  0  0  0  0
  -25.9956  -29.4853   20.7110 C   0  0  0  0  0  0
  -27.1968  -28.7486   20.6887 C   0  0  0  0  0  0
  -26.0660  -26.9550   19.5029 C   0  0  0  0  0  0
  -24.8653  -27.6897   19.5248 C   0  0  0  0  0  0
  -23.5970  -29.8188   20.1726 C   0  0  0  0  0  0
  -25.4108  -36.3128   24.0335 C   0  0  1  0  0  0
  -20.5831  -28.3588   23.1407 C   0  0  2  0  0  0
  -20.6750  -26.9339   22.5467 C   0  0  0  0  0  0
  -19.5731  -26.6360   21.5252 C   0  0  0  0  0  0
  -18.1891  -26.7905   22.1633 C   0  0  0  0  0  0
  -19.1497  -28.8797   23.2936 C   0  0  0  0  0  0
  -18.9430  -30.1414   23.8923 C   0  0  0  0  0  0
  -17.6433  -30.6567   24.0551 C   0  0  0  0  0  0
  -25.9018  -34.9489   23.5143 C   0  0  0  0  0  0
  -16.5320  -29.9065   23.6316 C   0  0  0  0  0  0
  -16.7237  -28.6474   23.0360 C   0  0  0  0  0  0
  -26.4448  -31.6617   25.0717 C   0  0  0  0  0  0
  -25.3727  -31.3717   26.1473 C   0  0  0  0  0  0
  -27.0280  -30.3063   24.6070 C   0  0  0  0  0  0
  -27.6044  -32.4324   25.7463 C   0  0  0  0  0  0
  -27.5584  -37.1805   24.8458 C   0  0  0  0  0  0
  -21.4119  -29.2956   22.3843 N   0  0  0  0  0  0
  -26.4303  -37.3801   23.9391 N   0  0  0  0  0  0
  -24.6553  -31.0843   22.1027 N   0  0  0  0  0  0
  -23.4199  -28.8177   23.3112 O   0  0  0  0  0  0
  -28.4708  -26.8434   20.0446 O   0  0  0  0  0  0
  -26.5595  -34.8924   22.4711 O   0  0  0  0  0  0
  -23.5259  -32.1477   23.7529 O   0  0  0  0  0  0
  -28.5887  -22.6407   16.8329 C   0  0  0  0  0  0
  -28.4709  -21.2956   17.2243 C   0  0  0  0  0  0
  -26.5783  -23.1726   18.0968 C   0  0  0  0  0  0
  -27.6471  -23.5880   17.2776 C   0  0  0  0  0  0
  -27.4238  -20.8821   18.0795 C   0  0  0  0  0  0
  -26.4737  -21.8371   18.5259 C   0  0  0  0  0  0
  -28.8245  -17.5471   21.4724 C   0  0  0  0  0  0
  -30.3106  -17.2623   19.5250 C   0  0  0  0  0  0
  -27.8248  -18.3780   20.6364 C   0  0  0  0  0  0
  -29.3370  -18.0461   18.6282 C   0  0  0  0  0  0
  -29.4710  -16.5013   20.5609 C   0  0  1  0  0  0
  -25.3362  -21.4768   19.4704 C   0  0  0  0  0  0
  -27.8039  -25.0559   16.9232 C   0  0  0  0  0  0
  -27.3109  -19.4084   18.4420 C   0  0  0  0  0  0
  -28.8252  -25.7797   17.8244 C   0  0  0  0  0  0
  -28.6316  -25.6082   19.3534 C   0  0  0  0  0  0
  -30.0680  -15.3569   21.2602 N   0  0  0  0  0  0
  -28.3875  -18.9399   19.3627 N   0  3  1  0  0  0
  -31.4703  -12.3600   19.1149 H   0  0  0  0  0  0
  -30.3194  -11.2495   19.8013 H   0  0  0  0  0  0
  -29.7313  -11.7784   17.4165 H   0  0  0  0  0  0
  -29.6691  -13.4841   17.7868 H   0  0  0  0  0  0
  -27.8291  -11.2907   18.7993 H   0  0  0  0  0  0
  -27.3743  -12.6322   17.7836 H   0  0  0  0  0  0
  -27.7040  -14.2180   19.5633 H   0  0  0  0  0  0
  -28.6628  -11.9206   21.3518 H   0  0  0  0  0  0
  -28.4534  -13.5557   21.8757 H   0  0  0  0  0  0
  -25.2737   -9.5669   22.4786 H   0  0  0  0  0  0
  -23.9936   -7.4616   22.7487 H   0  0  0  0  0  0
  -21.0799   -8.8788   19.8965 H   0  0  0  0  0  0
  -22.3666  -10.9681   19.6190 H   0  0  0  0  0  0
  -21.1996   -7.6128   23.9721 H   0  0  0  0  0  0
  -21.1485   -6.0510   25.9084 H   0  0  0  0  0  0
  -22.0603   -2.7598   23.2841 H   0  0  0  0  0  0
  -22.3998  -11.9989   22.4798 H   0  0  0  0  0  0
  -21.1095  -13.1447   22.2544 H   0  0  0  0  0  0
  -24.6695  -15.8296   20.5056 H   0  0  0  0  0  0
  -26.2813  -15.6040   20.0451 H   0  0  0  0  0  0
  -26.7051  -32.5605   23.1190 H   0  0  0  0  0  0
  -24.9968  -33.9847   25.0470 H   0  0  0  0  0  0
  -22.6705  -31.2967   21.4215 H   0  0  0  0  0  0
  -23.3750  -35.9648   23.3323 H   0  0  0  0  0  0
  -24.3581  -36.8911   22.2052 H   0  0  0  0  0  0
  -23.7232  -37.6519   23.6653 H   0  0  0  0  0  0
  -26.0218  -31.6231   20.6000 H   0  0  0  0  0  0
  -26.8068  -30.9054   21.9765 H   0  0  0  0  0  0
  -28.0945  -29.1572   21.1306 H   0  0  0  0  0  0
  -26.0497  -25.9855   19.0372 H   0  0  0  0  0  0
  -23.9703  -27.2744   19.0823 H   0  0  0  0  0  0
  -23.6917  -30.5937   19.4104 H   0  0  0  0  0  0
  -22.7267  -29.2256   19.8848 H   0  0  0  0  0  0
  -25.1284  -36.2001   25.0831 H   0  0  0  0  0  0
  -20.9866  -28.3116   24.1551 H   0  0  0  0  0  0
  -20.5691  -26.2158   23.3617 H   0  0  0  0  0  0
  -21.6620  -26.7420   22.1243 H   0  0  0  0  0  0
  -19.6880  -25.6287   21.1240 H   0  0  0  0  0  0
  -19.6687  -27.3216   20.6823 H   0  0  0  0  0  0
  -17.4180  -26.6674   21.4009 H   0  0  0  0  0  0
  -18.0228  -26.0047   22.9019 H   0  0  0  0  0  0
  -19.7910  -30.7222   24.2299 H   0  0  0  0  0  0
  -17.4984  -31.6252   24.5141 H   0  0  0  0  0  0
  -15.5315  -30.2972   23.7622 H   0  0  0  0  0  0
  -15.8637  -28.0784   22.7086 H   0  0  0  0  0  0
  -24.5885  -30.7082   25.7800 H   0  0  0  0  0  0
  -24.8945  -32.2888   26.4933 H   0  0  0  0  0  0
  -25.8089  -30.8867   27.0217 H   0  0  0  0  0  0
  -26.2827  -29.6812   24.1142 H   0  0  0  0  0  0
  -27.4075  -29.7289   25.4509 H   0  0  0  0  0  0
  -27.8645  -30.4372   23.9200 H   0  0  0  0  0  0
  -27.2685  -33.3605   26.2097 H   0  0  0  0  0  0
  -28.3833  -32.6916   25.0278 H   0  0  0  0  0  0
  -28.0750  -31.8418   26.5329 H   0  0  0  0  0  0
  -28.2609  -38.0096   24.7517 H   0  0  0  0  0  0
  -28.1075  -36.2630   24.6287 H   0  0  0  0  0  0
  -27.2298  -37.1454   25.8860 H   0  0  0  0  0  0
  -20.9253  -29.8695   21.7104 H   0  0  0  0  0  0
  -26.0192  -38.2871   24.1423 H   0  0  0  0  0  0
  -29.4103  -22.9402   16.1932 H   0  0  0  0  0  0
  -29.1971  -20.5831   16.8579 H   0  0  0  0  0  0
  -25.8446  -23.8947   18.4245 H   0  0  0  0  0  0
  -28.2934  -17.0661   22.2968 H   0  0  0  0  0  0
  -29.5840  -18.1864   21.9257 H   0  0  0  0  0  0
  -31.0421  -17.9155   19.9990 H   0  0  0  0  0  0
  -30.8700  -16.5919   18.8720 H   0  0  0  0  0  0
  -27.4188  -19.1889   21.2435 H   0  0  0  0  0  0
  -26.9809  -17.7279   20.4061 H   0  0  0  0  0  0
  -28.7665  -17.3119   18.0550 H   0  0  0  0  0  0
  -29.8996  -18.6282   17.8997 H   0  0  0  0  0  0
  -28.6555  -16.0372   20.0099 H   0  0  0  0  0  0
  -25.7300  -21.0689   20.4011 H   0  0  0  0  0  0
  -24.6558  -20.7507   19.0231 H   0  0  0  0  0  0
  -24.7452  -22.3560   19.7279 H   0  0  0  0  0  0
  -26.8354  -25.5506   16.9849 H   0  0  0  0  0  0
  -28.1089  -25.1386   15.8784 H   0  0  0  0  0  0
  -27.3240  -18.8548   17.5027 H   0  0  0  0  0  0
  -26.3278  -19.1892   18.8528 H   0  0  0  0  0  0
  -28.8572  -26.8361   17.5581 H   0  0  0  0  0  0
  -29.8145  -25.3928   17.5738 H   0  0  0  0  0  0
  -27.8567  -24.8987   19.6336 H   0  0  0  0  0  0
  -29.5461  -25.1698   19.7529 H   0  0  0  0  0  0
  -29.4442  -14.9550   21.9454 H   0  0  0  0  0  0
  -28.9098  -19.7650   19.6228 H   0  0  0  0  0  0
  1 25  1  0  0  0
  1 30  2  0  0  0
  1 87  1  0  0  0
  2  3  1  0  0  0
  2 25  1  0  0  0
  2 89  1  0  0  0
  2 90  1  0  0  0
  3  4  1  0  0  0
  3 91  1  0  0  0
  3 92  1  0  0  0
  4  5  1  0  0  0
  4 93  1  0  0  0
  4 94  1  0  0  0
  5  6  1  0  0  0
  5 26  1  0  0  0
  5 95  1  0  0  0
  6 25  1  0  0  0
  6 96  1  0  0  0
  6 97  1  0  0  0
  7  8  2  0  0  0
  7 26  1  0  0  0
  7 29  1  0  0  0
  8  9  1  0  0  0
  8 22  1  0  0  0
  9 10  1  0  0  0
  9 27  2  0  0  0
 10 11  2  0  0  0
 10 15  1  0  0  0
 11 12  1  0  0  0
 11 98  1  0  0  0
 12 13  2  0  0  0
 12 99  1  0  0  0
 13 14  1  0  0  0
 13 31  1  0  0  0
 14 15  2  0  0  0
 14100  1  0  0  0
 15101  1  0  0  0
 16 17  2  0  0  0
 16 21  1  0  0  0
 16 31  1  0  0  0
 17 18  1  0  0  0
 17102  1  0  0  0
 18 19  2  0  0  0
 18103  1  0  0  0
 19 20  1  0  0  0
 19 24  1  0  0  0
 20 21  2  0  0  0
 20104  1  0  0  0
 21 23  1  0  0  0
 22 28  1  0  0  0
 22 32  2  0  0  0
 26 27  1  0  0  0
 28105  1  0  0  0
 28106  1  0  0  0
 29107  1  0  0  0
 29108  1  0  0  0
 33 34  1  0  0  0
 33 66  1  0  0  0
 33 70  2  0  0  0
 34 36  1  0  0  0
 34 59  1  0  0  0
 34109  1  0  0  0
 35 44  2  0  0  0
 35 45  1  0  0  0
 35 68  1  0  0  0
 36 56  1  0  0  0
 36110  1  0  0  0
 37 39  1  0  0  0
 37 47  1  0  0  0
 37 66  1  0  0  0
 37111  1  0  0  0
 38 43  2  0  0  0
 38 46  1  0  0  0
 38 47  1  0  0  0
 39 64  1  0  0  0
 39 67  2  0  0  0
 40 52  1  0  0  0
 40 53  2  0  0  0
 40 58  1  0  0  0
 41112  1  0  0  0
 41113  1  0  0  0
 41114  1  0  0  0
 41 48  1  0  0  0
 42 43  1  0  0  0
 42 66  1  0  0  0
 42115  1  0  0  0
 42116  1  0  0  0
 43 44  1  0  0  0
 44117  1  0  0  0
 45 46  2  0  0  0
 45118  1  0  0  0
 46119  1  0  0  0
 47120  1  0  0  0
 47121  1  0  0  0
 48 56  1  0  0  0
 48 65  1  0  0  0
 48122  1  0  0  0
 49 50  1  0  0  0
 49 53  1  0  0  0
 49 64  1  0  0  0
 49123  1  0  0  0
 50 51  1  0  0  0
 50124  1  0  0  0
 50125  1  0  0  0
 51 52  1  0  0  0
 51126  1  0  0  0
 51127  1  0  0  0
 52128  1  0  0  0
 52129  1  0  0  0
 53 54  1  0  0  0
 54 55  2  0  0  0
 54130  1  0  0  0
 55 57  1  0  0  0
 55131  1  0  0  0
 56 69  2  0  0  0
 57 58  2  0  0  0
 57132  1  0  0  0
 58133  1  0  0  0
 59 60  1  0  0  0
 59 61  1  0  0  0
 59 62  1  0  0  0
 60134  1  0  0  0
 60135  1  0  0  0
 60136  1  0  0  0
 61137  1  0  0  0
 61138  1  0  0  0
 61139  1  0  0  0
 62140  1  0  0  0
 62141  1  0  0  0
 62142  1  0  0  0
 63 65  1  0  0  0
 63143  1  0  0  0
 63144  1  0  0  0
 63145  1  0  0  0
 64146  1  0  0  0
 65147  1  0  0  0
 68 86  1  0  0  0
 71 72  2  0  0  0
 71 74  1  0  0  0
 71148  1  0  0  0
 72 75  1  0  0  0
 72149  1  0  0  0
 73 74  2  0  0  0
 73 76  1  0  0  0
 73150  1  0  0  0
 74 83  1  0  0  0
 75 76  2  0  0  0
 75 84  1  0  0  0
 76 82  1  0  0  0
 77 79  1  0  0  0
 77 81  1  0  0  0
 77151  1  0  0  0
 77152  1  0  0  0
 78 80  1  0  0  0
 78 81  1  0  0  0
 78153  1  0  0  0
 78154  1  0  0  0
 79 88  1  0  0  0
 79155  1  0  0  0
 79156  1  0  0  0
 80 88  1  0  0  0
 80157  1  0  0  0
 80158  1  0  0  0
 81 87  1  0  0  0
 81159  1  0  0  0
 82160  1  0  0  0
 82161  1  0  0  0
 82162  1  0  0  0
 83 85  1  0  0  0
 83163  1  0  0  0
 83164  1  0  0  0
 84165  1  0  0  0
 84166  1  0  0  0
 84 88  1  0  0  0
 85 86  1  0  0  0
 85167  1  0  0  0
 85168  1  0  0  0
 86169  1  0  0  0
 86170  1  0  0  0
 87171  1  0  0  0
 88172  1  0  0  0
M  CHG  1  88   1
M  ISO  4   1 100  68 101  86 101  87 100
M  END
> <chiral flag>
0

> <version>
0

> <s_m_source_file>
/data/baiqing/PycharmProjects/Reinvent-master-3.2/result/LINK_invent/BTK/process_docking_weight1_custom_sum_contain_oxygen_bond_distance_aromatic_linkinvent_7_9_3/rearranged_h_0121.sdf

> <i_m_source_file_index>
21

> <r_mmod_Potential_Energy-OPLS-2005>
-80.320182800293

> <r_mmod_Stretch_Energy-OPLS-2005>
36.4736061096191

> <r_mmod_Bend_Energy-OPLS-2005>
128.600341796875

> <r_mmod_Torsional_Energy-OPLS-2005>
278.509063720703

> <r_mmod_Improper_Torsional_Energy-OPLS-2005>
8.00021553039551

> <r_mmod_Van_der_Waal_Energy-OPLS-2005>
163.305419921875

> <r_mmod_Electrostatic_Energy-OPLS-2005>
-250.202499389648

> <r_mmod_Solvation_Energy-OPLS-2005>
-454.520050048828

> <b_mmod_Minimization_Converged-OPLS-2005>
0

> <r_mmod_RMS_Derivative-OPLS-2005>
3.18241858482361

$$$$
21
                    3D
 Structure written by MMmdl.
173182  0  0  1  0            999 V2000
  -30.8673  -14.2026   20.7829 C   0  0  0  0  0  0
  -30.4056  -12.2629   19.3533 C   0  0  0  0  0  0
  -29.4651  -12.5394   18.1719 C   0  0  0  0  0  0
  -27.9991  -12.3791   18.6050 C   0  0  0  0  0  0
  -27.6695  -13.1988   19.8776 C   0  0  2  0  0  0
  -28.7087  -12.9362   20.9911 C   0  0  0  0  0  0
  -25.2626  -13.8153   20.5669 C   0  0  0  0  0  0
  -24.1862  -13.0436   20.9169 C   0  0  0  0  0  0
  -24.6400  -11.6903   20.8726 C   0  0  0  0  0  0
  -23.9051  -10.4293   21.0403 C   0  0  0  0  0  0
  -24.3610   -9.4208   21.9177 C   0  0  0  0  0  0
  -23.6287   -8.2244   22.0749 C   0  0  0  0  0  0
  -22.4269   -8.0281   21.3544 C   0  0  0  0  0  0
  -21.9899   -9.0255   20.4647 C   0  0  0  0  0  0
  -22.7223  -10.2133   20.3053 C   0  0  0  0  0  0
  -21.6855   -6.0733   22.5280 C   0  0  0  0  0  0
  -21.4013   -6.5637   23.8210 C   0  0  0  0  0  0
  -21.3658   -5.6793   24.9173 C   0  0  0  0  0  0
  -21.6045   -4.3056   24.7226 C   0  0  0  0  0  0
  -21.8818   -3.8143   23.4348 C   0  0  0  0  0  0
  -21.9191   -4.6960   22.3401 C   0  0  0  0  0  0
  -22.7886  -13.5251   21.1838 C   0  0  0  0  0  0
  -22.1661   -4.2145   21.0978 F   0  0  0  0  0  0
  -21.5630   -3.4538   25.7738 F   0  0  0  0  0  0
  -30.0679  -13.1638   20.4596 N   0  0  0  0  0  0
  -26.3068  -12.9317   20.3380 N   0  0  0  0  0  0
  -25.9326  -11.6482   20.5758 N   0  0  0  0  0  0
  -22.0518  -12.8244   22.0396 N   0  0  0  0  0  0
  -25.4355  -15.1861   20.4058 N   0  0  0  0  0  0
  -31.7407  -14.6621   20.0407 O   0  0  0  0  0  0
  -21.6639   -6.8875   21.4240 O   0  0  0  0  0  0
  -22.3572  -14.5566   20.6702 O   0  0  0  0  0  0
  -24.6072  -31.8729   23.2141 C   0  0  0  0  0  0
  -25.8987  -32.4857   23.8422 C   0  0  1  0  0  0
  -27.2418  -27.5015   20.0892 C   0  0  0  0  0  0
  -25.5880  -33.8651   24.2366 N   0  0  0  0  0  0
  -23.3918  -30.4951   21.5527 C   0  0  2  0  0  0
  -24.8390  -28.9647   20.1171 C   0  0  0  0  0  0
  -22.7369  -29.4685   22.5035 C   0  0  0  0  0  0
  -18.0267  -28.1374   22.8485 C   0  0  0  0  0  0
  -24.1482  -36.7346   23.2639 C   0  0  0  0  0  0
  -25.9104  -30.8607   21.3524 C   0  0  0  0  0  0
  -25.9919  -29.4968   20.7070 C   0  0  0  0  0  0
  -27.1965  -28.7712   20.6904 C   0  0  0  0  0  0
  -26.0779  -26.9666   19.4933 C   0  0  0  0  0  0
  -24.8730  -27.6959   19.5089 C   0  0  0  0  0  0
  -23.5963  -29.8221   20.1674 C   0  0  0  0  0  0
  -25.4103  -36.3143   24.0345 C   0  0  1  0  0  0
  -20.5853  -28.3649   23.1353 C   0  0  2  0  0  0
  -20.6759  -26.9391   22.5449 C   0  0  0  0  0  0
  -19.5755  -26.6385   21.5223 C   0  0  0  0  0  0
  -18.1913  -26.7932   22.1597 C   0  0  0  0  0  0
  -19.1509  -28.8827   23.2920 C   0  0  0  0  0  0
  -18.9435  -30.1436   23.8924 C   0  0  0  0  0  0
  -17.6435  -30.6568   24.0568 C   0  0  0  0  0  0
  -25.9018  -34.9496   23.5151 C   0  0  0  0  0  0
  -16.5332  -29.9068   23.6313 C   0  0  0  0  0  0
  -16.7258  -28.6493   23.0322 C   0  0  0  0  0  0
  -26.4467  -31.6599   25.0705 C   0  0  0  0  0  0
  -25.3782  -31.3689   26.1495 C   0  0  0  0  0  0
  -27.0261  -30.3046   24.6014 C   0  0  0  0  0  0
  -27.6092  -32.4294   25.7418 C   0  0  0  0  0  0
  -27.5587  -37.1820   24.8459 C   0  0  0  0  0  0
  -21.4110  -29.3030   22.3770 N   0  0  0  0  0  0
  -26.4294  -37.3810   23.9406 N   0  0  0  0  0  0
  -24.6547  -31.0888   22.1003 N   0  0  0  0  0  0
  -23.4175  -28.8239   23.3062 O   0  0  0  0  0  0
  -28.4343  -26.8315   20.0935 O   0  0  0  0  0  0
  -26.5575  -34.8934   22.4708 O   0  0  0  0  0  0
  -23.5288  -32.1450   23.7585 O   0  0  0  0  0  0
  -29.7827  -24.5946   18.5396 C   0  0  0  0  0  0
  -29.7908  -23.4594   17.7858 C   0  0  0  0  0  0
  -28.6696  -24.5284   19.4238 C   0  0  0  0  0  0
  -27.9673  -23.3971   19.1106 C   0  0  0  0  0  0
  -29.9680  -20.6273   19.7875 C   0  0  0  0  0  0
  -28.6577  -18.8675   18.5825 C   0  0  0  0  0  0
  -30.0041  -19.7509   21.0412 C   0  0  0  0  0  0
  -28.7187  -17.9930   19.8488 C   0  0  0  0  0  0
  -28.6878  -20.3508   18.9660 C   0  0  2  0  0  0
  -26.6839  -22.8839   19.6931 C   0  0  0  0  0  0
  -28.3710  -25.4901   20.5372 C   0  0  0  0  0  0
  -28.4940  -21.3087   17.7661 C   0  0  0  0  0  0
  -31.4491  -16.9759   22.1076 C   0  0  0  0  0  0
  -31.5494  -15.5859   22.7638 C   0  0  0  0  0  0
  -29.9990  -17.4520   21.8948 C   0  0  0  0  0  0
  -28.7171  -22.6838   18.1819 N   0  0  0  0  0  0
  -30.7596  -14.5714   22.0649 N   0  0  0  0  0  0
  -29.9007  -18.3140   20.6958 N   0  3  2  0  0  0
  -31.4466  -12.3629   19.0394 H   0  0  0  0  0  0
  -30.2975  -11.2296   19.6871 H   0  0  0  0  0  0
  -29.6869  -11.8593   17.3484 H   0  0  0  0  0  0
  -29.6316  -13.5484   17.7919 H   0  0  0  0  0  0
  -27.8182  -11.3191   18.7882 H   0  0  0  0  0  0
  -27.3329  -12.6643   17.7900 H   0  0  0  0  0  0
  -27.7321  -14.2525   19.6062 H   0  0  0  0  0  0
  -28.6374  -11.9062   21.3429 H   0  0  0  0  0  0
  -28.4730  -13.5631   21.8512 H   0  0  0  0  0  0
  -25.2760   -9.5684   22.4744 H   0  0  0  0  0  0
  -24.0001   -7.4633   22.7467 H   0  0  0  0  0  0
  -21.0829   -8.8772   19.8956 H   0  0  0  0  0  0
  -22.3684  -10.9673   19.6161 H   0  0  0  0  0  0
  -21.2005   -7.6141   23.9715 H   0  0  0  0  0  0
  -21.1482   -6.0519   25.9075 H   0  0  0  0  0  0
  -22.0597   -2.7604   23.2848 H   0  0  0  0  0  0
  -22.4126  -11.9895   22.4779 H   0  0  0  0  0  0
  -21.1136  -13.1276   22.2604 H   0  0  0  0  0  0
  -24.6678  -15.8418   20.5026 H   0  0  0  0  0  0
  -26.2849  -15.6155   20.0649 H   0  0  0  0  0  0
  -26.7063  -32.5599   23.1209 H   0  0  0  0  0  0
  -25.0018  -33.9834   25.0499 H   0  0  0  0  0  0
  -22.6770  -31.3081   21.4156 H   0  0  0  0  0  0
  -23.3748  -35.9679   23.3285 H   0  0  0  0  0  0
  -24.3574  -36.8968   22.2054 H   0  0  0  0  0  0
  -23.7213  -37.6541   23.6658 H   0  0  0  0  0  0
  -26.0004  -31.6237   20.5786 H   0  0  0  0  0  0
  -26.8065  -30.9277   21.9571 H   0  0  0  0  0  0
  -28.0899  -29.1798   21.1426 H   0  0  0  0  0  0
  -26.1069  -26.0032   19.0046 H   0  0  0  0  0  0
  -23.9874  -27.2834   19.0458 H   0  0  0  0  0  0
  -23.6972  -30.5943   19.4036 H   0  0  0  0  0  0
  -22.7239  -29.2346   19.8769 H   0  0  0  0  0  0
  -25.1276  -36.2027   25.0842 H   0  0  0  0  0  0
  -20.9944  -28.3210   24.1475 H   0  0  0  0  0  0
  -20.5637  -26.2264   23.3631 H   0  0  0  0  0  0
  -21.6632  -26.7428   22.1261 H   0  0  0  0  0  0
  -19.6908  -25.6300   21.1224 H   0  0  0  0  0  0
  -19.6710  -27.3230   20.6778 H   0  0  0  0  0  0
  -17.4216  -26.6732   21.3955 H   0  0  0  0  0  0
  -18.0267  -26.0050   22.8962 H   0  0  0  0  0  0
  -19.7915  -30.7251   24.2296 H   0  0  0  0  0  0
  -17.4979  -31.6243   24.5181 H   0  0  0  0  0  0
  -15.5327  -30.2966   23.7607 H   0  0  0  0  0  0
  -15.8672  -28.0812   22.7000 H   0  0  0  0  0  0
  -24.5961  -30.7017   25.7852 H   0  0  0  0  0  0
  -24.8978  -32.2839   26.4979 H   0  0  0  0  0  0
  -25.8187  -30.8844   27.0219 H   0  0  0  0  0  0
  -26.2740  -29.6793   24.1194 H   0  0  0  0  0  0
  -27.4177  -29.7301   25.4417 H   0  0  0  0  0  0
  -27.8517  -30.4373   23.9024 H   0  0  0  0  0  0
  -27.2770  -33.3598   26.2042 H   0  0  0  0  0  0
  -28.3860  -32.6834   25.0190 H   0  0  0  0  0  0
  -28.0816  -31.8380   26.5274 H   0  0  0  0  0  0
  -28.2643  -38.0081   24.7472 H   0  0  0  0  0  0
  -28.1046  -36.2615   24.6321 H   0  0  0  0  0  0
  -27.2311  -37.1526   25.8865 H   0  0  0  0  0  0
  -20.9265  -29.8747   21.6996 H   0  0  0  0  0  0
  -26.0202  -38.2900   24.1403 H   0  0  0  0  0  0
  -30.5344  -25.3723   18.5053 H   0  0  0  0  0  0
  -30.4994  -23.1063   17.0475 H   0  0  0  0  0  0
  -30.8544  -20.4576   19.1746 H   0  0  0  0  0  0
  -30.0196  -21.6652   20.1171 H   0  0  0  0  0  0
  -27.7455  -18.6416   18.0279 H   0  0  0  0  0  0
  -29.4906  -18.6317   17.9187 H   0  0  0  0  0  0
  -29.1853  -20.0308   21.7061 H   0  0  0  0  0  0
  -30.9287  -19.9333   21.5914 H   0  0  0  0  0  0
  -28.7564  -16.9428   19.5536 H   0  0  0  0  0  0
  -27.8070  -18.1214   20.4344 H   0  0  0  0  0  0
  -27.8402  -20.5069   19.6309 H   0  0  0  0  0  0
  -25.9973  -23.7033   19.9069 H   0  0  0  0  0  0
  -26.8616  -22.3546   20.6288 H   0  0  0  0  0  0
  -26.1655  -22.2110   19.0109 H   0  0  0  0  0  0
  -29.1373  -25.3592   21.3009 H   0  0  0  0  0  0
  -27.4283  -25.2440   21.0285 H   0  0  0  0  0  0
  -27.4954  -21.2174   17.3363 H   0  0  0  0  0  0
  -29.2023  -21.0637   16.9736 H   0  0  0  0  0  0
  -31.9776  -16.9469   21.1543 H   0  0  0  0  0  0
  -31.9936  -17.7068   22.7071 H   0  0  0  0  0  0
  -31.1965  -15.6422   23.7945 H   0  0  0  0  0  0
  -32.5917  -15.2657   22.8121 H   0  0  0  0  0  0
  -29.6295  -17.9582   22.7876 H   0  0  0  0  0  0
  -29.3291  -16.6028   21.7659 H   0  0  0  0  0  0
  -30.0919  -14.0503   22.6166 H   0  0  0  0  0  0
  -30.7077  -18.0938   20.1305 H   0  0  0  0  0  0
  1 25  1  0  0  0
  1 30  2  0  0  0
  1 87  1  0  0  0
  2  3  1  0  0  0
  2 25  1  0  0  0
  2 89  1  0  0  0
  2 90  1  0  0  0
  3  4  1  0  0  0
  3 91  1  0  0  0
  3 92  1  0  0  0
  4  5  1  0  0  0
  4 93  1  0  0  0
  4 94  1  0  0  0
  5  6  1  0  0  0
  5 26  1  0  0  0
  5 95  1  0  0  0
  6 25  1  0  0  0
  6 96  1  0  0  0
  6 97  1  0  0  0
  7  8  2  0  0  0
  7 26  1  0  0  0
  7 29  1  0  0  0
  8  9  1  0  0  0
  8 22  1  0  0  0
  9 10  1  0  0  0
  9 27  2  0  0  0
 10 11  2  0  0  0
 10 15  1  0  0  0
 11 12  1  0  0  0
 11 98  1  0  0  0
 12 13  2  0  0  0
 12 99  1  0  0  0
 13 14  1  0  0  0
 13 31  1  0  0  0
 14 15  2  0  0  0
 14100  1  0  0  0
 15101  1  0  0  0
 16 17  2  0  0  0
 16 21  1  0  0  0
 16 31  1  0  0  0
 17 18  1  0  0  0
 17102  1  0  0  0
 18 19  2  0  0  0
 18103  1  0  0  0
 19 20  1  0  0  0
 19 24  1  0  0  0
 20 21  2  0  0  0
 20104  1  0  0  0
 21 23  1  0  0  0
 22 28  1  0  0  0
 22 32  2  0  0  0
 26 27  1  0  0  0
 28105  1  0  0  0
 28106  1  0  0  0
 29107  1  0  0  0
 29108  1  0  0  0
 33 34  1  0  0  0
 33 66  1  0  0  0
 33 70  2  0  0  0
 34 36  1  0  0  0
 34 59  1  0  0  0
 34109  1  0  0  0
 35 44  2  0  0  0
 35 45  1  0  0  0
 35 68  1  0  0  0
 36 56  1  0  0  0
 36110  1  0  0  0
 37 39  1  0  0  0
 37 47  1  0  0  0
 37 66  1  0  0  0
 37111  1  0  0  0
 38 43  2  0  0  0
 38 46  1  0  0  0
 38 47  1  0  0  0
 39 64  1  0  0  0
 39 67  2  0  0  0
 40 52  1  0  0  0
 40 53  2  0  0  0
 40 58  1  0  0  0
 41112  1  0  0  0
 41113  1  0  0  0
 41114  1  0  0  0
 41 48  1  0  0  0
 42 43  1  0  0  0
 42 66  1  0  0  0
 42115  1  0  0  0
 42116  1  0  0  0
 43 44  1  0  0  0
 44117  1  0  0  0
 45 46  2  0  0  0
 45118  1  0  0  0
 46119  1  0  0  0
 47120  1  0  0  0
 47121  1  0  0  0
 48 56  1  0  0  0
 48 65  1  0  0  0
 48122  1  0  0  0
 49 50  1  0  0  0
 49 53  1  0  0  0
 49 64  1  0  0  0
 49123  1  0  0  0
 50 51  1  0  0  0
 50124  1  0  0  0
 50125  1  0  0  0
 51 52  1  0  0  0
 51126  1  0  0  0
 51127  1  0  0  0
 52128  1  0  0  0
 52129  1  0  0  0
 53 54  1  0  0  0
 54 55  2  0  0  0
 54130  1  0  0  0
 55 57  1  0  0  0
 55131  1  0  0  0
 56 69  2  0  0  0
 57 58  2  0  0  0
 57132  1  0  0  0
 58133  1  0  0  0
 59 60  1  0  0  0
 59 61  1  0  0  0
 59 62  1  0  0  0
 60134  1  0  0  0
 60135  1  0  0  0
 60136  1  0  0  0
 61137  1  0  0  0
 61138  1  0  0  0
 61139  1  0  0  0
 62140  1  0  0  0
 62141  1  0  0  0
 62142  1  0  0  0
 63 65  1  0  0  0
 63143  1  0  0  0
 63144  1  0  0  0
 63145  1  0  0  0
 64146  1  0  0  0
 65147  1  0  0  0
 68 81  1  0  0  0
 71 72  2  0  0  0
 71 73  1  0  0  0
 71148  1  0  0  0
 72 86  1  0  0  0
 72149  1  0  0  0
 73 74  2  0  0  0
 73 81  1  0  0  0
 74 80  1  0  0  0
 74 86  1  0  0  0
 75 77  1  0  0  0
 75 79  1  0  0  0
 75150  1  0  0  0
 75151  1  0  0  0
 76 78  1  0  0  0
 76 79  1  0  0  0
 76152  1  0  0  0
 76153  1  0  0  0
 77 88  1  0  0  0
 77154  1  0  0  0
 77155  1  0  0  0
 78 88  1  0  0  0
 78156  1  0  0  0
 78157  1  0  0  0
 79 82  1  0  0  0
 79158  1  0  0  0
 80159  1  0  0  0
 80160  1  0  0  0
 80161  1  0  0  0
 81162  1  0  0  0
 81163  1  0  0  0
 82 86  1  0  0  0
 82164  1  0  0  0
 82165  1  0  0  0
 83 84  1  0  0  0
 83 85  1  0  0  0
 83166  1  0  0  0
 83167  1  0  0  0
 84 87  1  0  0  0
 84168  1  0  0  0
 84169  1  0  0  0
 85170  1  0  0  0
 85171  1  0  0  0
 85 88  1  0  0  0
 87172  1  0  0  0
 88173  1  0  0  0
M  CHG  1  88   1
M  ISO  4   1 100  68 101  81 101  87 100
M  END
> <chiral flag>
0

> <version>
0

> <s_m_source_file>
/data/baiqing/PycharmProjects/Reinvent-master-3.2/result/LINK_invent/BTK/process_docking_weight1_custom_sum_contain_oxygen_bond_distance_aromatic_linkinvent_7_9_3/rearranged_h_0121.sdf

> <i_m_source_file_index>
22

> <r_mmod_Potential_Energy-OPLS-2005>
-94.8450088500977

> <r_mmod_Stretch_Energy-OPLS-2005>
29.8579521179199

> <r_mmod_Bend_Energy-OPLS-2005>
93.2785873413086

> <r_mmod_Torsional_Energy-OPLS-2005>
288.288970947266

> <r_mmod_Improper_Torsional_Energy-OPLS-2005>
4.49950885772705

> <r_mmod_Van_der_Waal_Energy-OPLS-2005>
137.178634643555

> <r_mmod_Electrostatic_Energy-OPLS-2005>
-221.56184387207

> <r_mmod_Solvation_Energy-OPLS-2005>
-439.163879394531

> <b_mmod_Minimization_Converged-OPLS-2005>
0

> <r_mmod_RMS_Derivative-OPLS-2005>
1.61671721935272

$$$$
22
                    3D
 Structure written by MMmdl.
161169  0  0  1  0            999 V2000
  -30.6571  -14.5010   20.6859 C   0  0  0  0  0  0
  -30.4424  -12.3607   19.4312 C   0  0  0  0  0  0
  -29.5099  -12.5563   18.2151 C   0  0  0  0  0  0
  -28.0284  -12.3933   18.6161 C   0  0  0  0  0  0
  -27.6651  -13.2041   19.8885 C   0  0  2  0  0  0
  -28.6973  -12.9431   21.0088 C   0  0  0  0  0  0
  -25.2549  -13.8133   20.5625 C   0  0  0  0  0  0
  -24.1807  -13.0398   20.9167 C   0  0  0  0  0  0
  -24.6373  -11.6885   20.8702 C   0  0  0  0  0  0
  -23.9037  -10.4282   21.0380 C   0  0  0  0  0  0
  -24.3590   -9.4207   21.9159 C   0  0  0  0  0  0
  -23.6271   -8.2244   22.0737 C   0  0  0  0  0  0
  -22.4256   -8.0267   21.3530 C   0  0  0  0  0  0
  -21.9879   -9.0244   20.4636 C   0  0  0  0  0  0
  -22.7204  -10.2125   20.3039 C   0  0  0  0  0  0
  -21.6854   -6.0711   22.5277 C   0  0  0  0  0  0
  -21.4014   -6.5618   23.8205 C   0  0  0  0  0  0
  -21.3665   -5.6773   24.9174 C   0  0  0  0  0  0
  -21.6061   -4.3041   24.7226 C   0  0  0  0  0  0
  -21.8819   -3.8121   23.4350 C   0  0  0  0  0  0
  -21.9196   -4.6940   22.3402 C   0  0  0  0  0  0
  -22.7841  -13.5215   21.1863 C   0  0  0  0  0  0
  -22.1664   -4.2120   21.0982 F   0  0  0  0  0  0
  -21.5642   -3.4527   25.7745 F   0  0  0  0  0  0
  -30.0334  -13.3002   20.4917 N   0  0  0  0  0  0
  -26.3003  -12.9303   20.3348 N   0  0  0  0  0  0
  -25.9298  -11.6466   20.5709 N   0  0  0  0  0  0
  -22.0484  -12.8203   22.0433 N   0  0  0  0  0  0
  -25.4225  -15.1845   20.4016 N   0  0  0  0  0  0
  -31.6919  -14.8204   20.0906 O   0  0  0  0  0  0
  -21.6638   -6.8849   21.4229 O   0  0  0  0  0  0
  -22.3533  -14.5538   20.6751 O   0  0  0  0  0  0
  -24.6128  -31.8691   23.2038 C   0  0  0  0  0  0
  -25.9003  -32.4830   23.8375 C   0  0  1  0  0  0
  -27.2585  -27.4125   20.1228 C   0  0  0  0  0  0
  -25.5869  -33.8628   24.2329 N   0  0  0  0  0  0
  -23.4099  -30.4820   21.5436 C   0  0  2  0  0  0
  -24.8687  -28.9388   20.1252 C   0  0  0  0  0  0
  -22.7427  -29.4646   22.4982 C   0  0  0  0  0  0
  -18.0289  -28.1372   22.8524 C   0  0  0  0  0  0
  -24.1478  -36.7272   23.2649 C   0  0  0  0  0  0
  -25.9390  -30.8237   21.3665 C   0  0  0  0  0  0
  -26.0248  -29.4465   20.7340 C   0  0  0  0  0  0
  -27.2237  -28.6889   20.7385 C   0  0  0  0  0  0
  -26.0891  -26.9275   19.5057 C   0  0  0  0  0  0
  -24.8959  -27.6754   19.5080 C   0  0  0  0  0  0
  -23.6269  -29.8033   20.1638 C   0  0  0  0  0  0
  -25.4091  -36.3101   24.0364 C   0  0  1  0  0  0
  -20.5871  -28.3640   23.1317 C   0  0  2  0  0  0
  -20.6743  -26.9373   22.5423 C   0  0  0  0  0  0
  -19.5724  -26.6381   21.5218 C   0  0  0  0  0  0
  -18.1913  -26.7927   22.1646 C   0  0  0  0  0  0
  -19.1541  -28.8822   23.2920 C   0  0  0  0  0  0
  -18.9482  -30.1442   23.8915 C   0  0  0  0  0  0
  -17.6483  -30.6585   24.0573 C   0  0  0  0  0  0
  -25.9023  -34.9475   23.5132 C   0  0  0  0  0  0
  -16.5365  -29.9097   23.6341 C   0  0  0  0  0  0
  -16.7282  -28.6507   23.0365 C   0  0  0  0  0  0
  -26.4415  -31.6611   25.0717 C   0  0  0  0  0  0
  -25.3688  -31.3738   26.1478 C   0  0  0  0  0  0
  -27.0216  -30.3067   24.6047 C   0  0  0  0  0  0
  -27.5995  -32.4301   25.7493 C   0  0  0  0  0  0
  -27.5569  -37.1779   24.8486 C   0  0  0  0  0  0
  -21.4153  -29.3002   22.3721 N   0  0  0  0  0  0
  -26.4285  -37.3779   23.9428 N   0  0  0  0  0  0
  -24.6713  -31.0735   22.0961 N   0  0  0  0  0  0
  -23.4186  -28.8217   23.3060 O   0  0  0  0  0  0
  -28.4116  -26.6657   19.9743 O   0  0  0  0  0  0
  -26.5595  -34.8929   22.4708 O   0  0  0  0  0  0
  -23.5325  -32.1479   23.7395 O   0  0  0  0  0  0
  -29.9967  -20.0107   22.9309 C   0  0  0  0  0  0
  -30.1068  -21.4145   22.8325 C   0  0  0  0  0  0
  -29.2742  -20.0032   20.6408 C   0  0  0  0  0  0
  -29.5684  -19.2608   21.8102 C   0  0  0  0  0  0
  -29.7949  -22.0630   21.6227 C   0  0  0  0  0  0
  -27.8553  -17.3954   21.5162 C   0  0  0  0  0  0
  -30.5043  -26.4662   21.0577 C   0  0  0  0  0  0
  -30.0372  -23.5760   21.4594 C   0  0  0  0  0  0
  -28.8190  -24.4797   21.0718 C   0  0  0  0  0  0
  -29.3061  -17.7308   21.9343 C   0  0  1  0  0  0
  -29.0270  -26.0395   21.1127 C   0  0  2  0  0  0
  -29.3997  -21.3551   20.5385 N   0  0  0  0  0  0
  -30.0324  -15.3187   21.5659 N   0  0  0  0  0  0
  -30.3187  -16.8027   21.3154 N   0  3  0  0  0  0
  -31.4844  -12.5006   19.1401 H   0  0  0  0  0  0
  -30.3751  -11.3349   19.7943 H   0  0  0  0  0  0
  -29.7674  -11.8514   17.4222 H   0  0  0  0  0  0
  -29.6656  -13.5518   17.7937 H   0  0  0  0  0  0
  -27.8479  -11.3325   18.7882 H   0  0  0  0  0  0
  -27.3812  -12.6837   17.7874 H   0  0  0  0  0  0
  -27.7185  -14.2611   19.6262 H   0  0  0  0  0  0
  -28.6865  -11.8880   21.2901 H   0  0  0  0  0  0
  -28.4207  -13.4805   21.9174 H   0  0  0  0  0  0
  -25.2735   -9.5707   22.4709 H   0  0  0  0  0  0
  -24.0004   -7.4637   22.7447 H   0  0  0  0  0  0
  -21.0811   -8.8746   19.8932 H   0  0  0  0  0  0
  -22.3647  -10.9652   19.6139 H   0  0  0  0  0  0
  -21.1988   -7.6120   23.9703 H   0  0  0  0  0  0
  -21.1499   -6.0503   25.9079 H   0  0  0  0  0  0
  -22.0589   -2.7577   23.2863 H   0  0  0  0  0  0
  -22.4098  -11.9865   22.4812 H   0  0  0  0  0  0
  -21.1096  -13.1228   22.2632 H   0  0  0  0  0  0
  -24.6450  -15.8293   20.4990 H   0  0  0  0  0  0
  -26.2637  -15.6265   20.0563 H   0  0  0  0  0  0
  -26.7089  -32.5551   23.1163 H   0  0  0  0  0  0
  -25.0010  -33.9811   25.0470 H   0  0  0  0  0  0
  -22.7009  -31.2987   21.3928 H   0  0  0  0  0  0
  -23.3753  -35.9597   23.3359 H   0  0  0  0  0  0
  -24.3585  -36.8827   22.2055 H   0  0  0  0  0  0
  -23.7227  -37.6488   23.6629 H   0  0  0  0  0  0
  -26.0506  -31.5798   20.5868 H   0  0  0  0  0  0
  -26.8279  -30.8916   21.9825 H   0  0  0  0  0  0
  -28.1219  -29.0956   21.1849 H   0  0  0  0  0  0
  -26.1134  -25.9715   19.0040 H   0  0  0  0  0  0
  -24.0157  -27.2775   19.0220 H   0  0  0  0  0  0
  -23.7273  -30.5726   19.3965 H   0  0  0  0  0  0
  -22.7547  -29.2104   19.8771 H   0  0  0  0  0  0
  -25.1271  -36.1954   25.0863 H   0  0  0  0  0  0
  -20.9998  -28.3171   24.1415 H   0  0  0  0  0  0
  -20.5602  -26.2234   23.3602 H   0  0  0  0  0  0
  -21.6606  -26.7377   22.1220 H   0  0  0  0  0  0
  -19.6861  -25.6303   21.1204 H   0  0  0  0  0  0
  -19.6643  -27.3215   20.6767 H   0  0  0  0  0  0
  -17.4159  -26.6720   21.4052 H   0  0  0  0  0  0
  -18.0307  -26.0076   22.9044 H   0  0  0  0  0  0
  -19.7964  -30.7275   24.2258 H   0  0  0  0  0  0
  -17.5042  -31.6270   24.5162 H   0  0  0  0  0  0
  -15.5365  -30.2996   23.7639 H   0  0  0  0  0  0
  -15.8692  -28.0819   22.7050 H   0  0  0  0  0  0
  -24.5844  -30.7097   25.7818 H   0  0  0  0  0  0
  -24.8890  -32.2913   26.4919 H   0  0  0  0  0  0
  -25.8050  -30.8912   27.0244 H   0  0  0  0  0  0
  -26.2767  -29.6899   24.1024 H   0  0  0  0  0  0
  -27.3927  -29.7205   25.4451 H   0  0  0  0  0  0
  -27.8610  -30.4401   23.9234 H   0  0  0  0  0  0
  -27.2622  -33.3574   26.2113 H   0  0  0  0  0  0
  -28.3774  -32.6902   25.0313 H   0  0  0  0  0  0
  -28.0691  -31.8408   26.5374 H   0  0  0  0  0  0
  -28.2592  -38.0058   24.7509 H   0  0  0  0  0  0
  -28.1058  -36.2598   24.6340 H   0  0  0  0  0  0
  -27.2309  -37.1451   25.8895 H   0  0  0  0  0  0
  -20.9305  -29.8730   21.6943 H   0  0  0  0  0  0
  -26.0179  -38.2861   24.1430 H   0  0  0  0  0  0
  -30.2260  -19.5322   23.8729 H   0  0  0  0  0  0
  -30.4612  -21.9796   23.6844 H   0  0  0  0  0  0
  -28.9015  -19.5049   19.7583 H   0  0  0  0  0  0
  -27.1505  -17.9919   22.1005 H   0  0  0  0  0  0
  -27.5962  -16.3511   21.6874 H   0  0  0  0  0  0
  -27.6696  -17.6119   20.4649 H   0  0  0  0  0  0
  -31.0334  -26.1591   21.9606 H   0  0  0  0  0  0
  -30.6030  -27.5486   20.9813 H   0  0  0  0  0  0
  -31.0182  -26.0373   20.1957 H   0  0  0  0  0  0
  -30.8204  -23.6876   20.7110 H   0  0  0  0  0  0
  -30.4673  -23.9398   22.3925 H   0  0  0  0  0  0
  -28.5060  -24.2025   20.0666 H   0  0  0  0  0  0
  -27.9802  -24.2320   21.7224 H   0  0  0  0  0  0
  -29.3568  -17.5091   23.0030 H   0  0  0  0  0  0
  -28.6046  -26.4436   22.0348 H   0  0  0  0  0  0
  -29.1860  -15.0677   22.0501 H   0  0  0  0  0  0
  -31.2315  -16.9968   21.6985 H   0  0  0  0  0  0
  -30.3917  -16.9461   20.3199 H   0  0  0  0  0  0
  1 25  1  0  0  0
  1 30  2  0  0  0
  1 83  1  0  0  0
  2  3  1  0  0  0
  2 25  1  0  0  0
  2 85  1  0  0  0
  2 86  1  0  0  0
  3  4  1  0  0  0
  3 87  1  0  0  0
  3 88  1  0  0  0
  4  5  1  0  0  0
  4 89  1  0  0  0
  4 90  1  0  0  0
  5  6  1  0  0  0
  5 26  1  0  0  0
  5 91  1  0  0  0
  6 25  1  0  0  0
  6 92  1  0  0  0
  6 93  1  0  0  0
  7  8  2  0  0  0
  7 26  1  0  0  0
  7 29  1  0  0  0
  8  9  1  0  0  0
  8 22  1  0  0  0
  9 10  1  0  0  0
  9 27  2  0  0  0
 10 11  2  0  0  0
 10 15  1  0  0  0
 11 12  1  0  0  0
 11 94  1  0  0  0
 12 13  2  0  0  0
 12 95  1  0  0  0
 13 14  1  0  0  0
 13 31  1  0  0  0
 14 15  2  0  0  0
 14 96  1  0  0  0
 15 97  1  0  0  0
 16 17  2  0  0  0
 16 21  1  0  0  0
 16 31  1  0  0  0
 17 18  1  0  0  0
 17 98  1  0  0  0
 18 19  2  0  0  0
 18 99  1  0  0  0
 19 20  1  0  0  0
 19 24  1  0  0  0
 20 21  2  0  0  0
 20100  1  0  0  0
 21 23  1  0  0  0
 22 28  1  0  0  0
 22 32  2  0  0  0
 26 27  1  0  0  0
 28101  1  0  0  0
 28102  1  0  0  0
 29103  1  0  0  0
 29104  1  0  0  0
 33 34  1  0  0  0
 33 66  1  0  0  0
 33 70  2  0  0  0
 34 36  1  0  0  0
 34 59  1  0  0  0
 34105  1  0  0  0
 35 44  2  0  0  0
 35 45  1  0  0  0
 35 68  1  0  0  0
 36 56  1  0  0  0
 36106  1  0  0  0
 37 39  1  0  0  0
 37 47  1  0  0  0
 37 66  1  0  0  0
 37107  1  0  0  0
 38 43  2  0  0  0
 38 46  1  0  0  0
 38 47  1  0  0  0
 39 64  1  0  0  0
 39 67  2  0  0  0
 40 52  1  0  0  0
 40 53  2  0  0  0
 40 58  1  0  0  0
 41108  1  0  0  0
 41109  1  0  0  0
 41110  1  0  0  0
 41 48  1  0  0  0
 42 43  1  0  0  0
 42 66  1  0  0  0
 42111  1  0  0  0
 42112  1  0  0  0
 43 44  1  0  0  0
 44113  1  0  0  0
 45 46  2  0  0  0
 45114  1  0  0  0
 46115  1  0  0  0
 47116  1  0  0  0
 47117  1  0  0  0
 48 56  1  0  0  0
 48 65  1  0  0  0
 48118  1  0  0  0
 49 50  1  0  0  0
 49 53  1  0  0  0
 49 64  1  0  0  0
 49119  1  0  0  0
 50 51  1  0  0  0
 50120  1  0  0  0
 50121  1  0  0  0
 51 52  1  0  0  0
 51122  1  0  0  0
 51123  1  0  0  0
 52124  1  0  0  0
 52125  1  0  0  0
 53 54  1  0  0  0
 54 55  2  0  0  0
 54126  1  0  0  0
 55 57  1  0  0  0
 55127  1  0  0  0
 56 69  2  0  0  0
 57 58  2  0  0  0
 57128  1  0  0  0
 58129  1  0  0  0
 59 60  1  0  0  0
 59 61  1  0  0  0
 59 62  1  0  0  0
 60130  1  0  0  0
 60131  1  0  0  0
 60132  1  0  0  0
 61133  1  0  0  0
 61134  1  0  0  0
 61135  1  0  0  0
 62136  1  0  0  0
 62137  1  0  0  0
 62138  1  0  0  0
 63 65  1  0  0  0
 63139  1  0  0  0
 63140  1  0  0  0
 63141  1  0  0  0
 64142  1  0  0  0
 65143  1  0  0  0
 68 81  1  0  0  0
 71 72  2  0  0  0
 71 74  1  0  0  0
 71144  1  0  0  0
 72 75  1  0  0  0
 72145  1  0  0  0
 73 74  2  0  0  0
 73 82  1  0  0  0
 73146  1  0  0  0
 74 80  1  0  0  0
 75 78  1  0  0  0
 75 82  2  0  0  0
 76147  1  0  0  0
 76148  1  0  0  0
 76149  1  0  0  0
 76 80  1  0  0  0
 77150  1  0  0  0
 77151  1  0  0  0
 77152  1  0  0  0
 77 81  1  0  0  0
 78 79  1  0  0  0
 78153  1  0  0  0
 78154  1  0  0  0
 79 81  1  0  0  0
 79155  1  0  0  0
 79156  1  0  0  0
 80 84  1  0  0  0
 80157  1  0  0  0
 81158  1  0  0  0
 83 84  1  0  0  0
 83159  1  0  0  0
 84160  1  0  0  0
 84161  1  0  0  0
M  CHG  1  84   1
M  ISO  4   1 100  68 101  81 101  83 100
M  END
> <chiral flag>
0

> <version>
0

> <s_m_source_file>
/data/baiqing/PycharmProjects/Reinvent-master-3.2/result/LINK_invent/BTK/process_docking_weight1_custom_sum_contain_oxygen_bond_distance_aromatic_linkinvent_7_9_3/rearranged_h_0121.sdf

> <i_m_source_file_index>
23

> <r_mmod_Potential_Energy-OPLS-2005>
-477.998382568359

> <r_mmod_Stretch_Energy-OPLS-2005>
50.4055099487305

> <r_mmod_Bend_Energy-OPLS-2005>
119.037162780762

> <r_mmod_Torsional_Energy-OPLS-2005>
227.031463623047

> <r_mmod_Improper_Torsional_Energy-OPLS-2005>
5.01231622695923

> <r_mmod_Van_der_Waal_Energy-OPLS-2005>
146.181869506836

> <r_mmod_Electrostatic_Energy-OPLS-2005>
-568.659545898438

> <r_mmod_Solvation_Energy-OPLS-2005>
-475.02490234375

> <b_mmod_Minimization_Converged-OPLS-2005>
0

> <r_mmod_RMS_Derivative-OPLS-2005>
3.95667099952698

$$$$
23
                    3D
 Structure written by MMmdl.
167176  0  0  1  0            999 V2000
  -30.7087  -14.4171   20.6664 C   0  0  0  0  0  0
  -30.4277  -12.3054   19.4050 C   0  0  0  0  0  0
  -29.4922  -12.5280   18.1999 C   0  0  0  0  0  0
  -28.0135  -12.3810   18.6118 C   0  0  0  0  0  0
  -27.6657  -13.1998   19.8833 C   0  0  2  0  0  0
  -28.7002  -12.9256   20.9962 C   0  0  0  0  0  0
  -25.2597  -13.8143   20.5670 C   0  0  0  0  0  0
  -24.1837  -13.0434   20.9165 C   0  0  0  0  0  0
  -24.6384  -11.6898   20.8735 C   0  0  0  0  0  0
  -23.9051  -10.4283   21.0402 C   0  0  0  0  0  0
  -24.3608   -9.4203   21.9183 C   0  0  0  0  0  0
  -23.6287   -8.2236   22.0755 C   0  0  0  0  0  0
  -22.4270   -8.0271   21.3546 C   0  0  0  0  0  0
  -21.9893   -9.0244   20.4655 C   0  0  0  0  0  0
  -22.7222  -10.2122   20.3056 C   0  0  0  0  0  0
  -21.6845   -6.0733   22.5281 C   0  0  0  0  0  0
  -21.4009   -6.5640   23.8214 C   0  0  0  0  0  0
  -21.3662   -5.6793   24.9177 C   0  0  0  0  0  0
  -21.6048   -4.3055   24.7223 C   0  0  0  0  0  0
  -21.8823   -3.8144   23.4344 C   0  0  0  0  0  0
  -21.9194   -4.6962   22.3403 C   0  0  0  0  0  0
  -22.7863  -13.5238   21.1840 C   0  0  0  0  0  0
  -22.1664   -4.2148   21.0977 F   0  0  0  0  0  0
  -21.5631   -3.4541   25.7734 F   0  0  0  0  0  0
  -30.0402  -13.2483   20.4665 N   0  0  0  0  0  0
  -26.3031  -12.9303   20.3375 N   0  0  0  0  0  0
  -25.9303  -11.6473   20.5757 N   0  0  0  0  0  0
  -22.0504  -12.8237   22.0403 N   0  0  0  0  0  0
  -25.4354  -15.1860   20.4097 N   0  0  0  0  0  0
  -31.7790  -14.6705   20.0975 O   0  0  0  0  0  0
  -21.6638   -6.8872   21.4238 O   0  0  0  0  0  0
  -22.3557  -14.5551   20.6699 O   0  0  0  0  0  0
  -24.6135  -31.8709   23.2106 C   0  0  0  0  0  0
  -25.9050  -32.4825   23.8404 C   0  0  1  0  0  0
  -27.2473  -27.4456   20.0908 C   0  0  0  0  0  0
  -25.5920  -33.8611   24.2353 N   0  0  0  0  0  0
  -23.3994  -30.4935   21.5494 C   0  0  2  0  0  0
  -24.8448  -28.9508   20.1260 C   0  0  0  0  0  0
  -22.7406  -29.4691   22.5012 C   0  0  0  0  0  0
  -18.0275  -28.1382   22.8513 C   0  0  0  0  0  0
  -24.1495  -36.7302   23.2633 C   0  0  0  0  0  0
  -25.9253  -30.8403   21.3580 C   0  0  0  0  0  0
  -26.0019  -29.4701   20.7139 C   0  0  0  0  0  0
  -27.1985  -28.7248   20.6937 C   0  0  0  0  0  0
  -26.0617  -26.9278   19.5194 C   0  0  0  0  0  0
  -24.8677  -27.6760   19.5334 C   0  0  0  0  0  0
  -23.6089  -29.8200   20.1660 C   0  0  0  0  0  0
  -25.4107  -36.3101   24.0361 C   0  0  1  0  0  0
  -20.5862  -28.3665   23.1337 C   0  0  2  0  0  0
  -20.6762  -26.9405   22.5425 C   0  0  0  0  0  0
  -19.5740  -26.6400   21.5222 C   0  0  0  0  0  0
  -18.1923  -26.7936   22.1632 C   0  0  0  0  0  0
  -19.1528  -28.8838   23.2922 C   0  0  0  0  0  0
  -18.9448  -30.1435   23.8936 C   0  0  0  0  0  0
  -17.6448  -30.6581   24.0577 C   0  0  0  0  0  0
  -25.9047  -34.9467   23.5154 C   0  0  0  0  0  0
  -16.5337  -29.9100   23.6307 C   0  0  0  0  0  0
  -16.7260  -28.6507   23.0354 C   0  0  0  0  0  0
  -26.4463  -31.6578   25.0717 C   0  0  0  0  0  0
  -25.3744  -31.3705   26.1487 C   0  0  0  0  0  0
  -27.0276  -30.3030   24.6065 C   0  0  0  0  0  0
  -27.6081  -32.4253   25.7455 C   0  0  0  0  0  0
  -27.5589  -37.1810   24.8465 C   0  0  0  0  0  0
  -21.4143  -29.3043   22.3760 N   0  0  0  0  0  0
  -26.4281  -37.3795   23.9440 N   0  0  0  0  0  0
  -24.6641  -31.0852   22.0972 N   0  0  0  0  0  0
  -23.4208  -28.8235   23.3042 O   0  0  0  0  0  0
  -28.4881  -26.8392   20.0692 O   0  0  0  0  0  0
  -26.5596  -34.8924   22.4705 O   0  0  0  0  0  0
  -23.5339  -32.1445   23.7526 O   0  0  0  0  0  0
  -30.6261  -19.3341   22.4036 C   0  0  0  0  0  0
  -29.2094  -17.3894   22.2171 C   0  0  0  0  0  0
  -31.6862  -18.5298   21.9602 C   0  0  0  0  0  0
  -29.3539  -18.7550   22.5391 C   0  0  0  0  0  0
  -30.3226  -16.6426   21.7684 C   0  0  0  0  0  0
  -25.9530  -21.9823   21.3459 C   0  0  0  0  0  0
  -26.2875  -20.9986   22.4669 C   0  0  0  0  0  0
  -28.3170  -21.5258   21.5291 C   0  0  0  0  0  0
  -27.3148  -22.5112   20.8787 C   0  0  2  0  0  0
  -28.2530  -24.9280   18.3698 C   0  0  0  0  0  0
  -28.1673  -19.5803   23.0284 C   0  0  0  0  0  0
  -28.8267  -24.5194   20.9057 C   0  0  0  0  0  0
  -28.7901  -25.4855   19.6992 C   0  0  2  0  0  0
  -31.5403  -17.2230   21.6545 N   0  0  0  0  0  0
  -27.5191  -20.3862   21.9869 N   0  0  0  0  0  0
  -30.0764  -15.2726   21.4933 N   0  0  0  0  0  0
  -27.5208  -23.9260   21.2904 N   0  3  0  0  0  0
  -31.4692  -12.4264   19.1029 H   0  0  0  0  0  0
  -30.3441  -11.2810   19.7703 H   0  0  0  0  0  0
  -29.7305  -11.8237   17.4023 H   0  0  0  0  0  0
  -29.6585  -13.5232   17.7860 H   0  0  0  0  0  0
  -27.8186  -11.3223   18.7916 H   0  0  0  0  0  0
  -27.3617  -12.6710   17.7864 H   0  0  0  0  0  0
  -27.7272  -14.2562   19.6188 H   0  0  0  0  0  0
  -28.6703  -11.8729   21.2816 H   0  0  0  0  0  0
  -28.4414  -13.4649   21.9074 H   0  0  0  0  0  0
  -25.2761   -9.5682   22.4751 H   0  0  0  0  0  0
  -24.0007   -7.4628   22.7467 H   0  0  0  0  0  0
  -21.0825   -8.8761   19.8962 H   0  0  0  0  0  0
  -22.3685  -10.9657   19.6158 H   0  0  0  0  0  0
  -21.1993   -7.6150   23.9712 H   0  0  0  0  0  0
  -21.1485   -6.0525   25.9083 H   0  0  0  0  0  0
  -22.0600   -2.7602   23.2842 H   0  0  0  0  0  0
  -22.4117  -11.9890   22.4779 H   0  0  0  0  0  0
  -21.1126  -13.1269   22.2618 H   0  0  0  0  0  0
  -24.6720  -15.8449   20.5195 H   0  0  0  0  0  0
  -26.2931  -15.6217   20.0941 H   0  0  0  0  0  0
  -26.7132  -32.5557   23.1188 H   0  0  0  0  0  0
  -25.0148  -33.9761   25.0553 H   0  0  0  0  0  0
  -22.6884  -31.3096   21.4082 H   0  0  0  0  0  0
  -23.3770  -35.9618   23.3254 H   0  0  0  0  0  0
  -24.3596  -36.8939   22.2050 H   0  0  0  0  0  0
  -23.7235  -37.6499   23.6652 H   0  0  0  0  0  0
  -26.0301  -31.6034   20.5846 H   0  0  0  0  0  0
  -26.8172  -30.9014   21.9703 H   0  0  0  0  0  0
  -28.0965  -29.1389   21.1317 H   0  0  0  0  0  0
  -26.0182  -25.9703   19.0366 H   0  0  0  0  0  0
  -23.9742  -27.2660   19.0838 H   0  0  0  0  0  0
  -23.7264  -30.5918   19.4052 H   0  0  0  0  0  0
  -22.7340  -29.2428   19.8651 H   0  0  0  0  0  0
  -25.1283  -36.1952   25.0856 H   0  0  0  0  0  0
  -20.9954  -28.3211   24.1456 H   0  0  0  0  0  0
  -20.5653  -26.2284   23.3622 H   0  0  0  0  0  0
  -21.6631  -26.7446   22.1198 H   0  0  0  0  0  0
  -19.6901  -25.6318   21.1239 H   0  0  0  0  0  0
  -19.6676  -27.3222   20.6759 H   0  0  0  0  0  0
  -17.4198  -26.6701   21.4027 H   0  0  0  0  0  0
  -18.0303  -26.0069   22.9009 H   0  0  0  0  0  0
  -19.7921  -30.7256   24.2329 H   0  0  0  0  0  0
  -17.5000  -31.6264   24.5179 H   0  0  0  0  0  0
  -15.5336  -30.3025   23.7593 H   0  0  0  0  0  0
  -15.8658  -28.0831   22.7061 H   0  0  0  0  0  0
  -24.5889  -30.7073   25.7844 H   0  0  0  0  0  0
  -24.8965  -32.2861   26.4968 H   0  0  0  0  0  0
  -25.8098  -30.8847   27.0220 H   0  0  0  0  0  0
  -26.2796  -29.6823   24.1115 H   0  0  0  0  0  0
  -27.4063  -29.7239   25.4496 H   0  0  0  0  0  0
  -27.8623  -30.4386   23.9187 H   0  0  0  0  0  0
  -27.2756  -33.3556   26.2061 H   0  0  0  0  0  0
  -28.3842  -32.6780   25.0222 H   0  0  0  0  0  0
  -28.0785  -31.8340   26.5324 H   0  0  0  0  0  0
  -28.2569  -38.0141   24.7532 H   0  0  0  0  0  0
  -28.1108  -36.2676   24.6217 H   0  0  0  0  0  0
  -27.2322  -37.1345   25.8866 H   0  0  0  0  0  0
  -20.9315  -29.8756   21.6966 H   0  0  0  0  0  0
  -26.0167  -38.2864   24.1462 H   0  0  0  0  0  0
  -30.7961  -20.3748   22.6406 H   0  0  0  0  0  0
  -28.2364  -16.9264   22.3110 H   0  0  0  0  0  0
  -32.6773  -18.9444   21.8486 H   0  0  0  0  0  0
  -25.2585  -22.7579   21.6703 H   0  0  0  0  0  0
  -25.4704  -21.4437   20.5283 H   0  0  0  0  0  0
  -25.4934  -20.2688   22.6339 H   0  0  0  0  0  0
  -26.4577  -21.5355   23.4040 H   0  0  0  0  0  0
  -28.8080  -21.9945   22.3841 H   0  0  0  0  0  0
  -29.0957  -21.2177   20.8298 H   0  0  0  0  0  0
  -27.3761  -22.4391   19.7923 H   0  0  0  0  0  0
  -28.9284  -24.1648   17.9835 H   0  0  0  0  0  0
  -28.1933  -25.7138   17.6175 H   0  0  0  0  0  0
  -27.2782  -24.4527   18.4571 H   0  0  0  0  0  0
  -28.4906  -20.2119   23.8588 H   0  0  0  0  0  0
  -27.4313  -18.8920   23.4476 H   0  0  0  0  0  0
  -29.2232  -25.0554   21.7694 H   0  0  0  0  0  0
  -29.5529  -23.7313   20.7047 H   0  0  0  0  0  0
  -29.8508  -25.6132   19.4718 H   0  0  0  0  0  0
  -29.2187  -14.9078   21.8735 H   0  0  0  0  0  0
  -27.4515  -23.9699   22.2957 H   0  0  0  0  0  0
  -26.7733  -24.4948   20.9256 H   0  0  0  0  0  0
  1 25  1  0  0  0
  1 30  2  0  0  0
  1 86  1  0  0  0
  2  3  1  0  0  0
  2 25  1  0  0  0
  2 88  1  0  0  0
  2 89  1  0  0  0
  3  4  1  0  0  0
  3 90  1  0  0  0
  3 91  1  0  0  0
  4  5  1  0  0  0
  4 92  1  0  0  0
  4 93  1  0  0  0
  5  6  1  0  0  0
  5 26  1  0  0  0
  5 94  1  0  0  0
  6 25  1  0  0  0
  6 95  1  0  0  0
  6 96  1  0  0  0
  7  8  2  0  0  0
  7 26  1  0  0  0
  7 29  1  0  0  0
  8  9  1  0  0  0
  8 22  1  0  0  0
  9 10  1  0  0  0
  9 27  2  0  0  0
 10 11  2  0  0  0
 10 15  1  0  0  0
 11 12  1  0  0  0
 11 97  1  0  0  0
 12 13  2  0  0  0
 12 98  1  0  0  0
 13 14  1  0  0  0
 13 31  1  0  0  0
 14 15  2  0  0  0
 14 99  1  0  0  0
 15100  1  0  0  0
 16 17  2  0  0  0
 16 21  1  0  0  0
 16 31  1  0  0  0
 17 18  1  0  0  0
 17101  1  0  0  0
 18 19  2  0  0  0
 18102  1  0  0  0
 19 20  1  0  0  0
 19 24  1  0  0  0
 20 21  2  0  0  0
 20103  1  0  0  0
 21 23  1  0  0  0
 22 28  1  0  0  0
 22 32  2  0  0  0
 26 27  1  0  0  0
 28104  1  0  0  0
 28105  1  0  0  0
 29106  1  0  0  0
 29107  1  0  0  0
 33 34  1  0  0  0
 33 66  1  0  0  0
 33 70  2  0  0  0
 34 36  1  0  0  0
 34 59  1  0  0  0
 34108  1  0  0  0
 35 44  2  0  0  0
 35 45  1  0  0  0
 35 68  1  0  0  0
 36 56  1  0  0  0
 36109  1  0  0  0
 37 39  1  0  0  0
 37 47  1  0  0  0
 37 66  1  0  0  0
 37110  1  0  0  0
 38 43  2  0  0  0
 38 46  1  0  0  0
 38 47  1  0  0  0
 39 64  1  0  0  0
 39 67  2  0  0  0
 40 52  1  0  0  0
 40 53  2  0  0  0
 40 58  1  0  0  0
 41111  1  0  0  0
 41112  1  0  0  0
 41113  1  0  0  0
 41 48  1  0  0  0
 42 43  1  0  0  0
 42 66  1  0  0  0
 42114  1  0  0  0
 42115  1  0  0  0
 43 44  1  0  0  0
 44116  1  0  0  0
 45 46  2  0  0  0
 45117  1  0  0  0
 46118  1  0  0  0
 47119  1  0  0  0
 47120  1  0  0  0
 48 56  1  0  0  0
 48 65  1  0  0  0
 48121  1  0  0  0
 49 50  1  0  0  0
 49 53  1  0  0  0
 49 64  1  0  0  0
 49122  1  0  0  0
 50 51  1  0  0  0
 50123  1  0  0  0
 50124  1  0  0  0
 51 52  1  0  0  0
 51125  1  0  0  0
 51126  1  0  0  0
 52127  1  0  0  0
 52128  1  0  0  0
 53 54  1  0  0  0
 54 55  2  0  0  0
 54129  1  0  0  0
 55 57  1  0  0  0
 55130  1  0  0  0
 56 69  2  0  0  0
 57 58  2  0  0  0
 57131  1  0  0  0
 58132  1  0  0  0
 59 60  1  0  0  0
 59 61  1  0  0  0
 59 62  1  0  0  0
 60133  1  0  0  0
 60134  1  0  0  0
 60135  1  0  0  0
 61136  1  0  0  0
 61137  1  0  0  0
 61138  1  0  0  0
 62139  1  0  0  0
 62140  1  0  0  0
 62141  1  0  0  0
 63 65  1  0  0  0
 63142  1  0  0  0
 63143  1  0  0  0
 63144  1  0  0  0
 64145  1  0  0  0
 65146  1  0  0  0
 68 83  1  0  0  0
 71 73  2  0  0  0
 71 74  1  0  0  0
 71147  1  0  0  0
 72 74  2  0  0  0
 72 75  1  0  0  0
 72148  1  0  0  0
 73 84  1  0  0  0
 73149  1  0  0  0
 74 81  1  0  0  0
 75 84  2  0  0  0
 75 86  1  0  0  0
 76 77  1  0  0  0
 76 79  1  0  0  0
 76150  1  0  0  0
 76151  1  0  0  0
 77 85  1  0  0  0
 77152  1  0  0  0
 77153  1  0  0  0
 78 79  1  0  0  0
 78 85  1  0  0  0
 78154  1  0  0  0
 78155  1  0  0  0
 79 87  1  0  0  0
 79156  1  0  0  0
 80157  1  0  0  0
 80158  1  0  0  0
 80159  1  0  0  0
 80 83  1  0  0  0
 81 85  1  0  0  0
 81160  1  0  0  0
 81161  1  0  0  0
 82 83  1  0  0  0
 82 87  1  0  0  0
 82162  1  0  0  0
 82163  1  0  0  0
 83164  1  0  0  0
 86165  1  0  0  0
 87166  1  0  0  0
 87167  1  0  0  0
M  CHG  1  87   1
M  ISO  4   1 100  68 101  83 101  86 100
M  END
> <chiral flag>
0

> <version>
0

> <s_m_source_file>
/data/baiqing/PycharmProjects/Reinvent-master-3.2/result/LINK_invent/BTK/process_docking_weight1_custom_sum_contain_oxygen_bond_distance_aromatic_linkinvent_7_9_3/rearranged_h_0121.sdf

> <i_m_source_file_index>
24

> <r_mmod_Potential_Energy-OPLS-2005>
-245.757675170898

> <r_mmod_Stretch_Energy-OPLS-2005>
36.2821159362793

> <r_mmod_Bend_Energy-OPLS-2005>
169.556106567383

> <r_mmod_Torsional_Energy-OPLS-2005>
275.207336425781

> <r_mmod_Improper_Torsional_Energy-OPLS-2005>
2.31124782562256

> <r_mmod_Van_der_Waal_Energy-OPLS-2005>
151.711135864258

> <r_mmod_Electrostatic_Energy-OPLS-2005>
-411.381378173828

> <r_mmod_Solvation_Energy-OPLS-2005>
-479.798248291016

> <b_mmod_Minimization_Converged-OPLS-2005>
0

> <r_mmod_RMS_Derivative-OPLS-2005>
2.23707914352417

$$$$
24
                    3D
 Structure written by MMmdl.
171180  0  0  1  0            999 V2000
  -30.8530  -14.3274   20.7341 C   0  0  0  0  0  0
  -30.3974  -12.2839   19.4271 C   0  0  0  0  0  0
  -29.4879  -12.5248   18.2095 C   0  0  0  0  0  0
  -28.0138  -12.3670   18.6124 C   0  0  0  0  0  0
  -27.6588  -13.2122   19.8593 C   0  0  2  0  0  0
  -28.6836  -13.0204   20.9947 C   0  0  0  0  0  0
  -25.2580  -13.8178   20.5640 C   0  0  0  0  0  0
  -24.1839  -13.0456   20.9149 C   0  0  0  0  0  0
  -24.6392  -11.6919   20.8701 C   0  0  0  0  0  0
  -23.9064  -10.4301   21.0389 C   0  0  0  0  0  0
  -24.3616   -9.4219   21.9174 C   0  0  0  0  0  0
  -23.6291   -8.2254   22.0752 C   0  0  0  0  0  0
  -22.4279   -8.0282   21.3543 C   0  0  0  0  0  0
  -21.9905   -9.0251   20.4648 C   0  0  0  0  0  0
  -22.7230  -10.2134   20.3048 C   0  0  0  0  0  0
  -21.6855   -6.0734   22.5278 C   0  0  0  0  0  0
  -21.4017   -6.5639   23.8211 C   0  0  0  0  0  0
  -21.3661   -5.6796   24.9175 C   0  0  0  0  0  0
  -21.6044   -4.3056   24.7229 C   0  0  0  0  0  0
  -21.8821   -3.8146   23.4349 C   0  0  0  0  0  0
  -21.9195   -4.6961   22.3404 C   0  0  0  0  0  0
  -22.7863  -13.5239   21.1836 C   0  0  0  0  0  0
  -22.1661   -4.2146   21.0982 F   0  0  0  0  0  0
  -21.5630   -3.4539   25.7741 F   0  0  0  0  0  0
  -30.0533  -13.2469   20.4909 N   0  0  0  0  0  0
  -26.3001  -12.9355   20.3243 N   0  0  0  0  0  0
  -25.9312  -11.6512   20.5683 N   0  0  0  0  0  0
  -22.0518  -12.8226   22.0401 N   0  0  0  0  0  0
  -25.4336  -15.1893   20.4083 N   0  0  0  0  0  0
  -31.7642  -14.6278   19.9542 O   0  0  0  0  0  0
  -21.6644   -6.8877   21.4244 O   0  0  0  0  0  0
  -22.3550  -14.5553   20.6699 O   0  0  0  0  0  0
  -24.6108  -31.8692   23.2133 C   0  0  0  0  0  0
  -25.9000  -32.4835   23.8425 C   0  0  1  0  0  0
  -27.2294  -27.4570   20.0944 C   0  0  0  0  0  0
  -25.5844  -33.8633   24.2337 N   0  0  0  0  0  0
  -23.4002  -30.4934   21.5507 C   0  0  2  0  0  0
  -24.8486  -28.9669   20.1119 C   0  0  0  0  0  0
  -22.7410  -29.4660   22.4978 C   0  0  0  0  0  0
  -18.0266  -28.1416   22.8473 C   0  0  0  0  0  0
  -24.1478  -36.7345   23.2635 C   0  0  0  0  0  0
  -25.9260  -30.8422   21.3661 C   0  0  0  0  0  0
  -26.0055  -29.4770   20.7168 C   0  0  0  0  0  0
  -27.2005  -28.7238   20.7167 C   0  0  0  0  0  0
  -26.0687  -26.9666   19.4645 C   0  0  0  0  0  0
  -24.8732  -27.7086   19.4851 C   0  0  0  0  0  0
  -23.6104  -29.8318   20.1621 C   0  0  0  0  0  0
  -25.4098  -36.3128   24.0335 C   0  0  1  0  0  0
  -20.5854  -28.3694   23.1315 C   0  0  2  0  0  0
  -20.6760  -26.9434   22.5424 C   0  0  0  0  0  0
  -19.5749  -26.6412   21.5212 C   0  0  0  0  0  0
  -18.1920  -26.7954   22.1621 C   0  0  0  0  0  0
  -19.1515  -28.8872   23.2883 C   0  0  0  0  0  0
  -18.9450  -30.1467   23.8906 C   0  0  0  0  0  0
  -17.6458  -30.6608   24.0580 C   0  0  0  0  0  0
  -25.9018  -34.9484   23.5144 C   0  0  0  0  0  0
  -16.5341  -29.9125   23.6317 C   0  0  0  0  0  0
  -16.7255  -28.6549   23.0307 C   0  0  0  0  0  0
  -26.4446  -31.6604   25.0734 C   0  0  0  0  0  0
  -25.3712  -31.3703   26.1473 C   0  0  0  0  0  0
  -27.0259  -30.3049   24.6093 C   0  0  0  0  0  0
  -27.6028  -32.4318   25.7483 C   0  0  0  0  0  0
  -27.5587  -37.1817   24.8462 C   0  0  0  0  0  0
  -21.4136  -29.3052   22.3721 N   0  0  0  0  0  0
  -26.4302  -37.3798   23.9401 N   0  0  0  0  0  0
  -24.6632  -31.0821   22.1024 N   0  0  0  0  0  0
  -23.4187  -28.8191   23.3008 O   0  0  0  0  0  0
  -28.3689  -26.6923   20.0723 O   0  0  0  0  0  0
  -26.5608  -34.8926   22.4723 O   0  0  0  0  0  0
  -23.5303  -32.1422   23.7540 O   0  0  0  0  0  0
  -28.7836  -20.1894   22.9777 C   0  0  0  0  0  0
  -28.0126  -21.3623   23.0832 C   0  0  0  0  0  0
  -29.9390  -20.1929   22.1648 C   0  0  0  0  0  0
  -28.4130  -22.5141   22.3841 C   0  0  0  0  0  0
  -30.2375  -21.3953   21.4674 C   0  0  0  0  0  0
  -32.3635  -16.6053   22.9809 C   0  0  0  0  0  0
  -30.1601  -17.5658   22.1755 C   0  0  0  0  0  0
  -32.9879  -18.0101   22.9111 C   0  0  0  0  0  0
  -30.8566  -18.9600   22.0767 C   0  0  2  0  0  0
  -31.2125  -16.4503   21.9558 C   0  0  2  0  0  0
  -31.4218  -21.5261   20.5242 C   0  0  0  0  0  0
  -30.4660  -14.4078   23.1762 C   0  0  0  0  0  0
  -27.6869  -23.8373   22.5907 C   0  0  0  0  0  0
  -27.5101  -24.7132   21.3305 C   0  0  0  0  0  0
  -28.5473  -25.8586   21.2229 C   0  0  0  0  0  0
  -29.5086  -22.5249   21.5988 N   0  0  0  0  0  0
  -30.6531  -15.0658   21.8678 N   0  0  0  0  0  0
  -31.9550  -19.0583   23.0710 N   0  3  0  0  0  0
  -31.4465  -12.3391   19.1305 H   0  0  0  0  0  0
  -30.2580  -11.2699   19.8044 H   0  0  0  0  0  0
  -29.7327  -11.8224   17.4118 H   0  0  0  0  0  0
  -29.6597  -13.5235   17.8046 H   0  0  0  0  0  0
  -27.8331  -11.3102   18.8134 H   0  0  0  0  0  0
  -27.3623  -12.6336   17.7793 H   0  0  0  0  0  0
  -27.7022  -14.2576   19.5531 H   0  0  0  0  0  0
  -28.6159  -12.0159   21.4143 H   0  0  0  0  0  0
  -28.4018  -13.7082   21.7902 H   0  0  0  0  0  0
  -25.2765   -9.5702   22.4736 H   0  0  0  0  0  0
  -24.0004   -7.4656   22.7471 H   0  0  0  0  0  0
  -21.0836   -8.8768   19.8951 H   0  0  0  0  0  0
  -22.3684  -10.9669   19.6150 H   0  0  0  0  0  0
  -21.2009   -7.6148   23.9714 H   0  0  0  0  0  0
  -21.1478   -6.0524   25.9079 H   0  0  0  0  0  0
  -22.0597   -2.7608   23.2852 H   0  0  0  0  0  0
  -22.4135  -11.9875   22.4762 H   0  0  0  0  0  0
  -21.1139  -13.1247   22.2621 H   0  0  0  0  0  0
  -24.6756  -15.8529   20.5245 H   0  0  0  0  0  0
  -26.2969  -15.6221   20.1047 H   0  0  0  0  0  0
  -26.7062  -32.5570   23.1185 H   0  0  0  0  0  0
  -24.9915  -33.9803   25.0427 H   0  0  0  0  0  0
  -22.6881  -31.3090   21.4136 H   0  0  0  0  0  0
  -23.3722  -35.9692   23.3314 H   0  0  0  0  0  0
  -24.3557  -36.8950   22.2045 H   0  0  0  0  0  0
  -23.7260  -37.6564   23.6645 H   0  0  0  0  0  0
  -26.0342  -31.6108   20.5984 H   0  0  0  0  0  0
  -26.8149  -30.8974   21.9830 H   0  0  0  0  0  0
  -28.0931  -29.1056   21.1932 H   0  0  0  0  0  0
  -26.0880  -26.0052   18.9688 H   0  0  0  0  0  0
  -23.9871  -27.3153   19.0078 H   0  0  0  0  0  0
  -23.7215  -30.6094   19.4066 H   0  0  0  0  0  0
  -22.7342  -29.2537   19.8626 H   0  0  0  0  0  0
  -25.1277  -36.2001   25.0828 H   0  0  0  0  0  0
  -20.9936  -28.3270   24.1438 H   0  0  0  0  0  0
  -20.5674  -26.2315   23.3617 H   0  0  0  0  0  0
  -21.6633  -26.7495   22.1211 H   0  0  0  0  0  0
  -19.6930  -25.6328   21.1229 H   0  0  0  0  0  0
  -19.6687  -27.3229   20.6749 H   0  0  0  0  0  0
  -17.4189  -26.6666   21.4026 H   0  0  0  0  0  0
  -18.0330  -26.0126   22.9058 H   0  0  0  0  0  0
  -19.7935  -30.7264   24.2293 H   0  0  0  0  0  0
  -17.5022  -31.6279   24.5214 H   0  0  0  0  0  0
  -15.5347  -30.3035   23.7659 H   0  0  0  0  0  0
  -15.8649  -28.0897   22.6995 H   0  0  0  0  0  0
  -24.5883  -30.7059   25.7805 H   0  0  0  0  0  0
  -24.8904  -32.2856   26.4942 H   0  0  0  0  0  0
  -25.8063  -30.8858   27.0216 H   0  0  0  0  0  0
  -26.2800  -29.6836   24.1117 H   0  0  0  0  0  0
  -27.3992  -29.7272   25.4554 H   0  0  0  0  0  0
  -27.8656  -30.4376   23.9260 H   0  0  0  0  0  0
  -27.2645  -33.3596   26.2109 H   0  0  0  0  0  0
  -28.3800  -32.6903   25.0280 H   0  0  0  0  0  0
  -28.0719  -31.8404   26.5352 H   0  0  0  0  0  0
  -28.2602  -38.0115   24.7488 H   0  0  0  0  0  0
  -28.1089  -36.2643   24.6313 H   0  0  0  0  0  0
  -27.2304  -37.1502   25.8866 H   0  0  0  0  0  0
  -20.9319  -29.8792   21.6940 H   0  0  0  0  0  0
  -26.0205  -38.2884   24.1384 H   0  0  0  0  0  0
  -28.4932  -19.3141   23.5420 H   0  0  0  0  0  0
  -27.1460  -21.3828   23.7312 H   0  0  0  0  0  0
  -32.0056  -16.4442   23.9981 H   0  0  0  0  0  0
  -33.1371  -15.8583   22.7974 H   0  0  0  0  0  0
  -29.3787  -17.4916   21.4177 H   0  0  0  0  0  0
  -29.6736  -17.4308   23.1419 H   0  0  0  0  0  0
  -33.5024  -18.1500   21.9588 H   0  0  0  0  0  0
  -33.7426  -18.1255   23.6910 H   0  0  0  0  0  0
  -31.3181  -18.9898   21.0891 H   0  0  0  0  0  0
  -31.6576  -16.7074   20.9928 H   0  0  0  0  0  0
  -32.3498  -21.2127   20.9998 H   0  0  0  0  0  0
  -31.5597  -22.5562   20.1942 H   0  0  0  0  0  0
  -31.2630  -20.9165   19.6348 H   0  0  0  0  0  0
  -29.7865  -14.9870   23.8008 H   0  0  0  0  0  0
  -31.4121  -14.3021   23.7054 H   0  0  0  0  0  0
  -30.0803  -13.3913   23.1271 H   0  0  0  0  0  0
  -28.1761  -24.3972   23.3882 H   0  0  0  0  0  0
  -26.6940  -23.5984   22.9740 H   0  0  0  0  0  0
  -26.5195  -25.1601   21.4012 H   0  0  0  0  0  0
  -27.4978  -24.1003   20.4287 H   0  0  0  0  0  0
  -29.5497  -25.4332   21.1702 H   0  0  0  0  0  0
  -28.5249  -26.4755   22.1232 H   0  0  0  0  0  0
  -32.4122  -19.9519   22.9864 H   0  0  0  0  0  0
  -31.5802  -19.0082   24.0050 H   0  0  0  0  0  0
  1 25  1  0  0  0
  1 30  2  0  0  0
  1 87  1  0  0  0
  2  3  1  0  0  0
  2 25  1  0  0  0
  2 89  1  0  0  0
  2 90  1  0  0  0
  3  4  1  0  0  0
  3 91  1  0  0  0
  3 92  1  0  0  0
  4  5  1  0  0  0
  4 93  1  0  0  0
  4 94  1  0  0  0
  5  6  1  0  0  0
  5 26  1  0  0  0
  5 95  1  0  0  0
  6 25  1  0  0  0
  6 96  1  0  0  0
  6 97  1  0  0  0
  7  8  2  0  0  0
  7 26  1  0  0  0
  7 29  1  0  0  0
  8  9  1  0  0  0
  8 22  1  0  0  0
  9 10  1  0  0  0
  9 27  2  0  0  0
 10 11  2  0  0  0
 10 15  1  0  0  0
 11 12  1  0  0  0
 11 98  1  0  0  0
 12 13  2  0  0  0
 12 99  1  0  0  0
 13 14  1  0  0  0
 13 31  1  0  0  0
 14 15  2  0  0  0
 14100  1  0  0  0
 15101  1  0  0  0
 16 17  2  0  0  0
 16 21  1  0  0  0
 16 31  1  0  0  0
 17 18  1  0  0  0
 17102  1  0  0  0
 18 19  2  0  0  0
 18103  1  0  0  0
 19 20  1  0  0  0
 19 24  1  0  0  0
 20 21  2  0  0  0
 20104  1  0  0  0
 21 23  1  0  0  0
 22 28  1  0  0  0
 22 32  2  0  0  0
 26 27  1  0  0  0
 28105  1  0  0  0
 28106  1  0  0  0
 29107  1  0  0  0
 29108  1  0  0  0
 33 34  1  0  0  0
 33 66  1  0  0  0
 33 70  2  0  0  0
 34 36  1  0  0  0
 34 59  1  0  0  0
 34109  1  0  0  0
 35 44  2  0  0  0
 35 45  1  0  0  0
 35 68  1  0  0  0
 36 56  1  0  0  0
 36110  1  0  0  0
 37 39  1  0  0  0
 37 47  1  0  0  0
 37 66  1  0  0  0
 37111  1  0  0  0
 38 43  2  0  0  0
 38 46  1  0  0  0
 38 47  1  0  0  0
 39 64  1  0  0  0
 39 67  2  0  0  0
 40 52  1  0  0  0
 40 53  2  0  0  0
 40 58  1  0  0  0
 41112  1  0  0  0
 41113  1  0  0  0
 41114  1  0  0  0
 41 48  1  0  0  0
 42 43  1  0  0  0
 42 66  1  0  0  0
 42115  1  0  0  0
 42116  1  0  0  0
 43 44  1  0  0  0
 44117  1  0  0  0
 45 46  2  0  0  0
 45118  1  0  0  0
 46119  1  0  0  0
 47120  1  0  0  0
 47121  1  0  0  0
 48 56  1  0  0  0
 48 65  1  0  0  0
 48122  1  0  0  0
 49 50  1  0  0  0
 49 53  1  0  0  0
 49 64  1  0  0  0
 49123  1  0  0  0
 50 51  1  0  0  0
 50124  1  0  0  0
 50125  1  0  0  0
 51 52  1  0  0  0
 51126  1  0  0  0
 51127  1  0  0  0
 52128  1  0  0  0
 52129  1  0  0  0
 53 54  1  0  0  0
 54 55  2  0  0  0
 54130  1  0  0  0
 55 57  1  0  0  0
 55131  1  0  0  0
 56 69  2  0  0  0
 57 58  2  0  0  0
 57132  1  0  0  0
 58133  1  0  0  0
 59 60  1  0  0  0
 59 61  1  0  0  0
 59 62  1  0  0  0
 60134  1  0  0  0
 60135  1  0  0  0
 60136  1  0  0  0
 61137  1  0  0  0
 61138  1  0  0  0
 61139  1  0  0  0
 62140  1  0  0  0
 62141  1  0  0  0
 62142  1  0  0  0
 63 65  1  0  0  0
 63143  1  0  0  0
 63144  1  0  0  0
 63145  1  0  0  0
 64146  1  0  0  0
 65147  1  0  0  0
 68 85  1  0  0  0
 71 72  2  0  0  0
 71 73  1  0  0  0
 71148  1  0  0  0
 72 74  1  0  0  0
 72149  1  0  0  0
 73 75  2  0  0  0
 73 79  1  0  0  0
 74 83  1  0  0  0
 74 86  2  0  0  0
 75 81  1  0  0  0
 75 86  1  0  0  0
 76 78  1  0  0  0
 76 80  1  0  0  0
 76150  1  0  0  0
 76151  1  0  0  0
 77 79  1  0  0  0
 77 80  1  0  0  0
 77152  1  0  0  0
 77153  1  0  0  0
 78 88  1  0  0  0
 78154  1  0  0  0
 78155  1  0  0  0
 79 88  1  0  0  0
 79156  1  0  0  0
 80 87  1  0  0  0
 80157  1  0  0  0
 81158  1  0  0  0
 81159  1  0  0  0
 81160  1  0  0  0
 82 87  1  0  0  0
 82161  1  0  0  0
 82162  1  0  0  0
 82163  1  0  0  0
 83 84  1  0  0  0
 83164  1  0  0  0
 83165  1  0  0  0
 84 85  1  0  0  0
 84166  1  0  0  0
 84167  1  0  0  0
 85168  1  0  0  0
 85169  1  0  0  0
 88170  1  0  0  0
 88171  1  0  0  0
M  CHG  1  88   1
M  ISO  4   1 100  68 101  85 101  87 100
M  END
> <chiral flag>
0

> <version>
0

> <s_m_source_file>
/data/baiqing/PycharmProjects/Reinvent-master-3.2/result/LINK_invent/BTK/process_docking_weight1_custom_sum_contain_oxygen_bond_distance_aromatic_linkinvent_7_9_3/rearranged_h_0121.sdf

> <i_m_source_file_index>
25

> <r_mmod_Potential_Energy-OPLS-2005>
-126.157341003418

> <r_mmod_Stretch_Energy-OPLS-2005>
43.0152626037598

> <r_mmod_Bend_Energy-OPLS-2005>
109.185043334961

> <r_mmod_Torsional_Energy-OPLS-2005>
323.419158935547

> <r_mmod_Improper_Torsional_Energy-OPLS-2005>
3.81495046615601

> <r_mmod_Van_der_Waal_Energy-OPLS-2005>
176.489395141602

> <r_mmod_Electrostatic_Energy-OPLS-2005>
-342.712310791016

> <r_mmod_Solvation_Energy-OPLS-2005>
-450.415405273438

> <b_mmod_Minimization_Converged-OPLS-2005>
0

> <r_mmod_RMS_Derivative-OPLS-2005>
1.74626326560974

$$$$
25
                    3D
 Structure written by MMmdl.
188198  0  0  1  0            999 V2000
  -30.6961  -14.4761   20.5570 C   0  0  0  0  0  0
  -30.4312  -12.3032   19.4273 C   0  0  0  0  0  0
  -29.5010  -12.5012   18.2114 C   0  0  0  0  0  0
  -28.0217  -12.3600   18.6220 C   0  0  0  0  0  0
  -27.6656  -13.2031   19.8761 C   0  0  2  0  0  0
  -28.7082  -12.9840   20.9991 C   0  0  0  0  0  0
  -25.2610  -13.8150   20.5678 C   0  0  0  0  0  0
  -24.1847  -13.0435   20.9163 C   0  0  0  0  0  0
  -24.6401  -11.6899   20.8726 C   0  0  0  0  0  0
  -23.9057  -10.4291   21.0396 C   0  0  0  0  0  0
  -24.3617   -9.4213   21.9172 C   0  0  0  0  0  0
  -23.6305   -8.2237   22.0743 C   0  0  0  0  0  0
  -22.4275   -8.0275   21.3548 C   0  0  0  0  0  0
  -21.9915   -9.0236   20.4638 C   0  0  0  0  0  0
  -22.7233  -10.2119   20.3051 C   0  0  0  0  0  0
  -21.6847   -6.0733   22.5281 C   0  0  0  0  0  0
  -21.3997   -6.5635   23.8216 C   0  0  0  0  0  0
  -21.3668   -5.6785   24.9180 C   0  0  0  0  0  0
  -21.6045   -4.3049   24.7221 C   0  0  0  0  0  0
  -21.8823   -3.8147   23.4342 C   0  0  0  0  0  0
  -21.9188   -4.6961   22.3406 C   0  0  0  0  0  0
  -22.7878  -13.5238   21.1836 C   0  0  0  0  0  0
  -22.1660   -4.2152   21.0978 F   0  0  0  0  0  0
  -21.5641   -3.4536   25.7734 F   0  0  0  0  0  0
  -30.0435  -13.2852   20.4527 N   0  0  0  0  0  0
  -26.3046  -12.9312   20.3361 N   0  0  0  0  0  0
  -25.9329  -11.6475   20.5768 N   0  0  0  0  0  0
  -22.0517  -12.8233   22.0391 N   0  0  0  0  0  0
  -25.4353  -15.1864   20.4094 N   0  0  0  0  0  0
  -31.8130  -14.6828   20.0782 O   0  0  0  0  0  0
  -21.6639   -6.8871   21.4244 O   0  0  0  0  0  0
  -22.3579  -14.5557   20.6692 O   0  0  0  0  0  0
  -24.6137  -31.8703   23.2101 C   0  0  0  0  0  0
  -25.9024  -32.4840   23.8400 C   0  0  1  0  0  0
  -27.2457  -27.4263   20.1172 C   0  0  0  0  0  0
  -25.5866  -33.8631   24.2332 N   0  0  0  0  0  0
  -23.4046  -30.4915   21.5506 C   0  0  2  0  0  0
  -24.8576  -28.9504   20.1288 C   0  0  0  0  0  0
  -22.7404  -29.4682   22.4994 C   0  0  0  0  0  0
  -18.0277  -28.1382   22.8491 C   0  0  0  0  0  0
  -24.1493  -36.7308   23.2645 C   0  0  0  0  0  0
  -25.9353  -30.8292   21.3714 C   0  0  0  0  0  0
  -26.0161  -29.4569   20.7343 C   0  0  0  0  0  0
  -27.2138  -28.6990   20.7399 C   0  0  0  0  0  0
  -26.0742  -26.9442   19.4996 C   0  0  0  0  0  0
  -24.8797  -27.6879   19.5125 C   0  0  0  0  0  0
  -23.6184  -29.8180   20.1688 C   0  0  0  0  0  0
  -25.4111  -36.3111   24.0352 C   0  0  1  0  0  0
  -20.5872  -28.3659   23.1319 C   0  0  2  0  0  0
  -20.6779  -26.9389   22.5428 C   0  0  0  0  0  0
  -19.5751  -26.6377   21.5231 C   0  0  0  0  0  0
  -18.1922  -26.7931   22.1624 C   0  0  0  0  0  0
  -19.1529  -28.8834   23.2913 C   0  0  0  0  0  0
  -18.9461  -30.1437   23.8913 C   0  0  0  0  0  0
  -17.6467  -30.6593   24.0557 C   0  0  0  0  0  0
  -25.9027  -34.9480   23.5148 C   0  0  0  0  0  0
  -16.5354  -29.9092   23.6332 C   0  0  0  0  0  0
  -16.7264  -28.6517   23.0345 C   0  0  0  0  0  0
  -26.4444  -31.6615   25.0719 C   0  0  0  0  0  0
  -25.3703  -31.3761   26.1463 C   0  0  0  0  0  0
  -27.0271  -30.3055   24.6099 C   0  0  0  0  0  0
  -27.6030  -32.4309   25.7481 C   0  0  0  0  0  0
  -27.5588  -37.1797   24.8456 C   0  0  0  0  0  0
  -21.4138  -29.3031   22.3718 N   0  0  0  0  0  0
  -26.4295  -37.3795   23.9419 N   0  0  0  0  0  0
  -24.6688  -31.0792   22.1018 N   0  0  0  0  0  0
  -23.4176  -28.8226   23.3045 O   0  0  0  0  0  0
  -28.3704  -26.6388   19.9809 O   0  0  0  0  0  0
  -26.5591  -34.8920   22.4707 O   0  0  0  0  0  0
  -23.5325  -32.1464   23.7467 O   0  0  0  0  0  0
  -28.8993  -23.8470   20.5880 C   0  0  0  0  0  0
  -30.4085  -24.5533   22.4466 C   0  0  0  0  0  0
  -28.7725  -22.4278   21.2080 C   0  0  0  0  0  0
  -30.3127  -23.1418   23.0733 C   0  0  0  0  0  0
  -30.9458  -19.8497   20.1018 C   0  0  0  0  0  0
  -32.4594  -19.7655   20.3861 C   0  0  0  0  0  0
  -32.0649  -17.8331   21.8939 C   0  0  0  0  0  0
  -29.0765  -20.9386   24.8402 C   0  0  0  0  0  0
  -29.1069  -18.9678   24.3391 C   0  0  0  0  0  0
  -29.1420  -24.9480   21.6493 C   0  0  1  0  0  0
  -30.0260  -22.0226   22.0280 C   0  0  1  0  0  0
  -30.0891  -19.4261   21.3326 C   0  0  1  0  0  0
  -30.5324  -17.9335   21.6509 C   0  0  1  0  0  0
  -28.5814  -19.6961   25.5700 C   0  0  1  0  0  0
  -30.0419  -16.9022   20.5824 C   0  0  0  0  0  0
  -29.1320  -19.3151   26.9526 C   0  0  0  0  0  0
  -29.2542  -26.4013   21.0796 C   0  0  0  0  0  0
  -30.0742  -20.5009   22.5302 C   0  0  2  0  0  0
  -29.9511  -15.4953   21.0272 N   0  0  0  0  0  0
  -32.8532  -18.3915   20.7703 N   0  3  0  0  0  0
  -29.0052  -20.2123   23.5602 N   0  3  2  0  0  0
  -28.7140  -20.2406   28.0210 N   0  3  0  0  0  0
  -31.4761  -12.4018   19.1277 H   0  0  0  0  0  0
  -30.3323  -11.2910   19.8233 H   0  0  0  0  0  0
  -29.7440  -11.7760   17.4324 H   0  0  0  0  0  0
  -29.6680  -13.4877   17.7773 H   0  0  0  0  0  0
  -27.8351  -11.3036   18.8214 H   0  0  0  0  0  0
  -27.3711  -12.6279   17.7887 H   0  0  0  0  0  0
  -27.7103  -14.2505   19.5754 H   0  0  0  0  0  0
  -28.6806  -11.9486   21.3418 H   0  0  0  0  0  0
  -28.4730  -13.5870   21.8772 H   0  0  0  0  0  0
  -25.2768   -9.5681   22.4745 H   0  0  0  0  0  0
  -24.0015   -7.4624   22.7464 H   0  0  0  0  0  0
  -21.0846   -8.8748   19.8951 H   0  0  0  0  0  0
  -22.3695  -10.9647   19.6157 H   0  0  0  0  0  0
  -21.1975   -7.6137   23.9721 H   0  0  0  0  0  0
  -21.1491   -6.0509   25.9078 H   0  0  0  0  0  0
  -22.0597   -2.7608   23.2835 H   0  0  0  0  0  0
  -22.4122  -11.9879   22.4760 H   0  0  0  0  0  0
  -21.1132  -13.1248   22.2588 H   0  0  0  0  0  0
  -24.6690  -15.8423   20.5101 H   0  0  0  0  0  0
  -26.2863  -15.6214   20.0773 H   0  0  0  0  0  0
  -26.7096  -32.5572   23.1174 H   0  0  0  0  0  0
  -24.9976  -33.9799   25.0445 H   0  0  0  0  0  0
  -22.6940  -31.3077   21.4059 H   0  0  0  0  0  0
  -23.3764  -35.9628   23.3280 H   0  0  0  0  0  0
  -24.3604  -36.8941   22.2065 H   0  0  0  0  0  0
  -23.7219  -37.6501   23.6655 H   0  0  0  0  0  0
  -26.0476  -31.5870   20.5946 H   0  0  0  0  0  0
  -26.8240  -30.8928   21.9881 H   0  0  0  0  0  0
  -28.1055  -29.1023   21.1966 H   0  0  0  0  0  0
  -26.0917  -25.9822   19.0058 H   0  0  0  0  0  0
  -23.9925  -27.2918   19.0379 H   0  0  0  0  0  0
  -23.7236  -30.5881   19.4038 H   0  0  0  0  0  0
  -22.7441  -29.2342   19.8752 H   0  0  0  0  0  0
  -25.1292  -36.1977   25.0845 H   0  0  0  0  0  0
  -20.9967  -28.3229   24.1441 H   0  0  0  0  0  0
  -20.5704  -26.2254   23.3615 H   0  0  0  0  0  0
  -21.6645  -26.7447   22.1196 H   0  0  0  0  0  0
  -19.6915  -25.6298   21.1233 H   0  0  0  0  0  0
  -19.6709  -27.3212   20.6781 H   0  0  0  0  0  0
  -17.4203  -26.6671   21.4014 H   0  0  0  0  0  0
  -18.0304  -26.0095   22.9028 H   0  0  0  0  0  0
  -19.7950  -30.7236   24.2285 H   0  0  0  0  0  0
  -17.5044  -31.6282   24.5131 H   0  0  0  0  0  0
  -15.5359  -30.3000   23.7689 H   0  0  0  0  0  0
  -15.8656  -28.0847   22.7049 H   0  0  0  0  0  0
  -24.5820  -30.7178   25.7792 H   0  0  0  0  0  0
  -24.8947  -32.2947   26.4912 H   0  0  0  0  0  0
  -25.8018  -30.8896   27.0217 H   0  0  0  0  0  0
  -26.2825  -29.6834   24.1116 H   0  0  0  0  0  0
  -27.4022  -29.7269   25.4551 H   0  0  0  0  0  0
  -27.8663  -30.4392   23.9272 H   0  0  0  0  0  0
  -27.2665  -33.3609   26.2078 H   0  0  0  0  0  0
  -28.3832  -32.6870   25.0299 H   0  0  0  0  0  0
  -28.0697  -31.8407   26.5382 H   0  0  0  0  0  0
  -28.2580  -38.0115   24.7535 H   0  0  0  0  0  0
  -28.1116  -36.2653   24.6245 H   0  0  0  0  0  0
  -27.2313  -37.1390   25.8857 H   0  0  0  0  0  0
  -20.9275  -29.8724   21.6929 H   0  0  0  0  0  0
  -26.0194  -38.2876   24.1431 H   0  0  0  0  0  0
  -27.9907  -24.0689   20.0270 H   0  0  0  0  0  0
  -29.7124  -23.8604   19.8598 H   0  0  0  0  0  0
  -31.2798  -24.5936   21.7905 H   0  0  0  0  0  0
  -30.5930  -25.2874   23.2326 H   0  0  0  0  0  0
  -28.5944  -21.7140   20.4033 H   0  0  0  0  0  0
  -27.8863  -22.3978   21.8431 H   0  0  0  0  0  0
  -29.5238  -23.2103   23.8143 H   0  0  0  0  0  0
  -31.2360  -22.9231   23.6126 H   0  0  0  0  0  0
  -30.7163  -19.2041   19.2537 H   0  0  0  0  0  0
  -30.6843  -20.8356   19.7229 H   0  0  0  0  0  0
  -32.7376  -20.4553   21.1840 H   0  0  0  0  0  0
  -33.0274  -20.0697   19.5064 H   0  0  0  0  0  0
  -32.3617  -16.7955   22.0558 H   0  0  0  0  0  0
  -32.3374  -18.3652   22.8057 H   0  0  0  0  0  0
  -30.0919  -21.2184   25.1287 H   0  0  0  0  0  0
  -28.3786  -21.7719   24.9209 H   0  0  0  0  0  0
  -28.4524  -18.1658   23.9931 H   0  0  0  0  0  0
  -30.1338  -18.6269   24.4843 H   0  0  0  0  0  0
  -28.2853  -24.9406   22.3247 H   0  0  0  0  0  0
  -30.8779  -22.1365   21.3619 H   0  0  0  0  0  0
  -29.0581  -19.3835   20.9780 H   0  0  0  0  0  0
  -30.0533  -17.5843   22.5541 H   0  0  0  0  0  0
  -27.4888  -19.6762   25.5588 H   0  0  0  0  0  0
  -30.6428  -16.9667   19.6743 H   0  0  0  0  0  0
  -29.0321  -17.1721   20.2701 H   0  0  0  0  0  0
  -30.2224  -19.2707   26.9364 H   0  0  0  0  0  0
  -28.7938  -18.3136   27.2217 H   0  0  0  0  0  0
  -30.2619  -26.5561   20.6921 H   0  0  0  0  0  0
  -29.1278  -27.1321   21.8787 H   0  0  0  0  0  0
  -31.0284  -20.3959   23.0465 H   0  0  0  0  0  0
  -29.0667  -15.2132   21.4244 H   0  0  0  0  0  0
  -33.8288  -18.3959   21.0282 H   0  0  0  0  0  0
  -32.7740  -17.7841   19.9694 H   0  0  0  0  0  0
  -28.0790  -20.2943   23.1663 H   0  0  0  0  0  0
  -29.0618  -21.1699   27.8646 H   0  0  0  0  0  0
  -29.0855  -19.9219   28.8993 H   0  0  0  0  0  0
  -27.7144  -20.2748   28.1098 H   0  0  0  0  0  0
  1 25  1  0  0  0
  1 30  2  0  0  0
  1 89  1  0  0  0
  2  3  1  0  0  0
  2 25  1  0  0  0
  2 93  1  0  0  0
  2 94  1  0  0  0
  3  4  1  0  0  0
  3 95  1  0  0  0
  3 96  1  0  0  0
  4  5  1  0  0  0
  4 97  1  0  0  0
  4 98  1  0  0  0
  5  6  1  0  0  0
  5 26  1  0  0  0
  5 99  1  0  0  0
  6 25  1  0  0  0
  6100  1  0  0  0
  6101  1  0  0  0
  7  8  2  0  0  0
  7 26  1  0  0  0
  7 29  1  0  0  0
  8  9  1  0  0  0
  8 22  1  0  0  0
  9 10  1  0  0  0
  9 27  2  0  0  0
 10 11  2  0  0  0
 10 15  1  0  0  0
 11 12  1  0  0  0
 11102  1  0  0  0
 12 13  2  0  0  0
 12103  1  0  0  0
 13 14  1  0  0  0
 13 31  1  0  0  0
 14 15  2  0  0  0
 14104  1  0  0  0
 15105  1  0  0  0
 16 17  2  0  0  0
 16 21  1  0  0  0
 16 31  1  0  0  0
 17 18  1  0  0  0
 17106  1  0  0  0
 18 19  2  0  0  0
 18107  1  0  0  0
 19 20  1  0  0  0
 19 24  1  0  0  0
 20 21  2  0  0  0
 20108  1  0  0  0
 21 23  1  0  0  0
 22 28  1  0  0  0
 22 32  2  0  0  0
 26 27  1  0  0  0
 28109  1  0  0  0
 28110  1  0  0  0
 29111  1  0  0  0
 29112  1  0  0  0
 33 34  1  0  0  0
 33 66  1  0  0  0
 33 70  2  0  0  0
 34 36  1  0  0  0
 34 59  1  0  0  0
 34113  1  0  0  0
 35 44  2  0  0  0
 35 45  1  0  0  0
 35 68  1  0  0  0
 36 56  1  0  0  0
 36114  1  0  0  0
 37 39  1  0  0  0
 37 47  1  0  0  0
 37 66  1  0  0  0
 37115  1  0  0  0
 38 43  2  0  0  0
 38 46  1  0  0  0
 38 47  1  0  0  0
 39 64  1  0  0  0
 39 67  2  0  0  0
 40 52  1  0  0  0
 40 53  2  0  0  0
 40 58  1  0  0  0
 41116  1  0  0  0
 41117  1  0  0  0
 41118  1  0  0  0
 41 48  1  0  0  0
 42 43  1  0  0  0
 42 66  1  0  0  0
 42119  1  0  0  0
 42120  1  0  0  0
 43 44  1  0  0  0
 44121  1  0  0  0
 45 46  2  0  0  0
 45122  1  0  0  0
 46123  1  0  0  0
 47124  1  0  0  0
 47125  1  0  0  0
 48 56  1  0  0  0
 48 65  1  0  0  0
 48126  1  0  0  0
 49 50  1  0  0  0
 49 53  1  0  0  0
 49 64  1  0  0  0
 49127  1  0  0  0
 50 51  1  0  0  0
 50128  1  0  0  0
 50129  1  0  0  0
 51 52  1  0  0  0
 51130  1  0  0  0
 51131  1  0  0  0
 52132  1  0  0  0
 52133  1  0  0  0
 53 54  1  0  0  0
 54 55  2  0  0  0
 54134  1  0  0  0
 55 57  1  0  0  0
 55135  1  0  0  0
 56 69  2  0  0  0
 57 58  2  0  0  0
 57136  1  0  0  0
 58137  1  0  0  0
 59 60  1  0  0  0
 59 61  1  0  0  0
 59 62  1  0  0  0
 60138  1  0  0  0
 60139  1  0  0  0
 60140  1  0  0  0
 61141  1  0  0  0
 61142  1  0  0  0
 61143  1  0  0  0
 62144  1  0  0  0
 62145  1  0  0  0
 62146  1  0  0  0
 63 65  1  0  0  0
 63147  1  0  0  0
 63148  1  0  0  0
 63149  1  0  0  0
 64150  1  0  0  0
 65151  1  0  0  0
 68 87  1  0  0  0
 71 73  1  0  0  0
 71 80  1  0  0  0
 71152  1  0  0  0
 71153  1  0  0  0
 72 74  1  0  0  0
 72 80  1  0  0  0
 72154  1  0  0  0
 72155  1  0  0  0
 73156  1  0  0  0
 73157  1  0  0  0
 73 81  1  0  0  0
 74 81  1  0  0  0
 74158  1  0  0  0
 74159  1  0  0  0
 75 76  1  0  0  0
 75160  1  0  0  0
 75161  1  0  0  0
 75 82  1  0  0  0
 76 90  1  0  0  0
 76162  1  0  0  0
 76163  1  0  0  0
 77 83  1  0  0  0
 77 90  1  0  0  0
 77164  1  0  0  0
 77165  1  0  0  0
 78 84  1  0  0  0
 78166  1  0  0  0
 78167  1  0  0  0
 78 91  1  0  0  0
 79 84  1  0  0  0
 79 91  1  0  0  0
 79168  1  0  0  0
 79169  1  0  0  0
 80 87  1  0  0  0
 80170  1  0  0  0
 81171  1  0  0  0
 81 88  1  0  0  0
 82 83  1  0  0  0
 82 88  1  0  0  0
 82172  1  0  0  0
 83 85  1  0  0  0
 83173  1  0  0  0
 84 86  1  0  0  0
 84174  1  0  0  0
 85 89  1  0  0  0
 85175  1  0  0  0
 85176  1  0  0  0
 86 92  1  0  0  0
 86177  1  0  0  0
 86178  1  0  0  0
 87179  1  0  0  0
 87180  1  0  0  0
 88 91  1  0  0  0
 88181  1  0  0  0
 89182  1  0  0  0
 90183  1  0  0  0
 90184  1  0  0  0
 91185  1  0  0  0
 92186  1  0  0  0
 92187  1  0  0  0
 92188  1  0  0  0
M  CHG  3  90   1  91   1  92   1
M  ISO  4   1 100  68 101  87 101  89 100
M  END
> <chiral flag>
0

> <version>
0

> <s_m_source_file>
/data/baiqing/PycharmProjects/Reinvent-master-3.2/result/LINK_invent/BTK/process_docking_weight1_custom_sum_contain_oxygen_bond_distance_aromatic_linkinvent_7_9_3/rearranged_h_0121.sdf

> <i_m_source_file_index>
26

> <r_mmod_Potential_Energy-OPLS-2005>
-368.444213867188

> <r_mmod_Stretch_Energy-OPLS-2005>
62.8756828308105

> <r_mmod_Bend_Energy-OPLS-2005>
155.483245849609

> <r_mmod_Torsional_Energy-OPLS-2005>
364.535278320312

> <r_mmod_Improper_Torsional_Energy-OPLS-2005>
6.60661172866821

> <r_mmod_Van_der_Waal_Energy-OPLS-2005>
139.451629638672

> <r_mmod_Electrostatic_Energy-OPLS-2005>
586.826904296875

> <r_mmod_Solvation_Energy-OPLS-2005>
-1697.13024902344

> <b_mmod_Minimization_Converged-OPLS-2005>
0

> <r_mmod_RMS_Derivative-OPLS-2005>
2.31744146347046

$$$$
26
                    3D
 Structure written by MMmdl.
162171  0  0  1  0            999 V2000
  -30.6760  -14.5616   20.5302 C   0  0  0  0  0  0
  -30.4301  -12.3517   19.4414 C   0  0  0  0  0  0
  -29.5021  -12.5006   18.2172 C   0  0  0  0  0  0
  -28.0242  -12.3519   18.6300 C   0  0  0  0  0  0
  -27.6575  -13.2149   19.8671 C   0  0  2  0  0  0
  -28.7022  -13.0502   20.9943 C   0  0  0  0  0  0
  -25.2575  -13.8173   20.5692 C   0  0  0  0  0  0
  -24.1839  -13.0438   20.9190 C   0  0  0  0  0  0
  -24.6400  -11.6909   20.8736 C   0  0  0  0  0  0
  -23.9064  -10.4292   21.0398 C   0  0  0  0  0  0
  -24.3610   -9.4211   21.9180 C   0  0  0  0  0  0
  -23.6290   -8.2243   22.0751 C   0  0  0  0  0  0
  -22.4273   -8.0277   21.3540 C   0  0  0  0  0  0
  -21.9906   -9.0250   20.4642 C   0  0  0  0  0  0
  -22.7232  -10.2133   20.3050 C   0  0  0  0  0  0
  -21.6856   -6.0730   22.5278 C   0  0  0  0  0  0
  -21.4015   -6.5635   23.8211 C   0  0  0  0  0  0
  -21.3661   -5.6788   24.9174 C   0  0  0  0  0  0
  -21.6045   -4.3051   24.7223 C   0  0  0  0  0  0
  -21.8822   -3.8143   23.4343 C   0  0  0  0  0  0
  -21.9195   -4.6960   22.3400 C   0  0  0  0  0  0
  -22.7859  -13.5234   21.1851 C   0  0  0  0  0  0
  -22.1665   -4.2145   21.0977 F   0  0  0  0  0  0
  -21.5629   -3.4534   25.7734 F   0  0  0  0  0  0
  -30.0243  -13.3655   20.4312 N   0  0  0  0  0  0
  -26.3014  -12.9354   20.3343 N   0  0  0  0  0  0
  -25.9332  -11.6512   20.5764 N   0  0  0  0  0  0
  -22.0496  -12.8226   22.0399 N   0  0  0  0  0  0
  -25.4281  -15.1891   20.4098 N   0  0  0  0  0  0
  -31.8279  -14.7163   20.1177 O   0  0  0  0  0  0
  -21.6640   -6.8874   21.4239 O   0  0  0  0  0  0
  -22.3549  -14.5542   20.6699 O   0  0  0  0  0  0
  -24.6229  -31.8649   23.2092 C   0  0  0  0  0  0
  -25.9096  -32.4805   23.8403 C   0  0  1  0  0  0
  -27.2163  -27.3595   20.0978 C   0  0  0  0  0  0
  -25.5932  -33.8606   24.2322 N   0  0  0  0  0  0
  -23.4132  -30.4935   21.5522 C   0  0  2  0  0  0
  -24.8559  -28.9633   20.1095 C   0  0  0  0  0  0
  -22.7455  -29.4652   22.4958 C   0  0  0  0  0  0
  -18.0282  -28.1385   22.8492 C   0  0  0  0  0  0
  -24.1486  -36.7294   23.2640 C   0  0  0  0  0  0
  -25.9536  -30.8070   21.3770 C   0  0  0  0  0  0
  -26.0258  -29.4409   20.7140 C   0  0  0  0  0  0
  -27.2085  -28.6486   20.7047 C   0  0  0  0  0  0
  -26.0221  -26.9388   19.4586 C   0  0  0  0  0  0
  -24.8538  -27.7151   19.4763 C   0  0  0  0  0  0
  -23.6237  -29.8382   20.1643 C   0  0  0  0  0  0
  -25.4112  -36.3099   24.0338 C   0  0  1  0  0  0
  -20.5882  -28.3680   23.1294 C   0  0  2  0  0  0
  -20.6770  -26.9409   22.5410 C   0  0  0  0  0  0
  -19.5744  -26.6390   21.5212 C   0  0  0  0  0  0
  -18.1925  -26.7932   22.1624 C   0  0  0  0  0  0
  -19.1536  -28.8851   23.2889 C   0  0  0  0  0  0
  -18.9458  -30.1456   23.8899 C   0  0  0  0  0  0
  -17.6459  -30.6586   24.0567 C   0  0  0  0  0  0
  -25.9049  -34.9464   23.5125 C   0  0  0  0  0  0
  -16.5350  -29.9086   23.6336 C   0  0  0  0  0  0
  -16.7270  -28.6505   23.0356 C   0  0  0  0  0  0
  -26.4493  -31.6603   25.0754 C   0  0  0  0  0  0
  -25.3734  -31.3735   26.1489 C   0  0  0  0  0  0
  -27.0336  -30.3034   24.6183 C   0  0  0  0  0  0
  -27.6063  -32.4329   25.7517 C   0  0  0  0  0  0
  -27.5581  -37.1809   24.8468 C   0  0  0  0  0  0
  -21.4174  -29.3041   22.3696 N   0  0  0  0  0  0
  -26.4295  -37.3790   23.9411 N   0  0  0  0  0  0
  -24.6822  -31.0699   22.1031 N   0  0  0  0  0  0
  -23.4199  -28.8180   23.3013 O   0  0  0  0  0  0
  -28.3316  -26.5150   20.1609 O   0  0  0  0  0  0
  -26.5598  -34.8922   22.4678 O   0  0  0  0  0  0
  -23.5403  -32.1434   23.7441 O   0  0  0  0  0  0
  -30.9652  -22.1394   21.1736 C   0  0  0  0  0  0
  -31.1790  -23.5286   21.2091 C   0  0  0  0  0  0
  -29.7402  -21.6221   20.7090 C   0  0  0  0  0  0
  -28.7823  -22.5908   20.2647 C   0  0  0  0  0  0
  -29.0777  -23.9973   20.3510 C   0  0  0  0  0  0
  -29.8668  -19.3744   22.0532 C   0  0  0  0  0  0
  -30.2321  -19.3110   19.5826 C   0  0  0  0  0  0
  -29.5731  -17.8445   22.0569 C   0  0  0  0  0  0
  -29.9590  -17.7725   19.5802 C   0  0  0  0  0  0
  -29.4984  -20.0731   20.7159 C   0  0  2  0  0  0
  -30.2970  -17.0696   20.9244 C   0  0  2  0  0  0
  -27.4470  -22.1088   19.7032 C   0  0  0  0  0  0
  -28.0592  -25.0905   19.9207 C   0  0  0  0  0  0
  -30.2634  -24.4394   20.8185 N   0  0  0  0  0  0
  -29.9297  -15.6234   20.9322 N   0  0  0  0  0  0
  -31.4734  -12.4590   19.1387 H   0  0  0  0  0  0
  -30.3458  -11.3522   19.8704 H   0  0  0  0  0  0
  -29.7551  -11.7572   17.4599 H   0  0  0  0  0  0
  -29.6581  -13.4755   17.7526 H   0  0  0  0  0  0
  -27.8481  -11.2984   18.8503 H   0  0  0  0  0  0
  -27.3714  -12.5991   17.7923 H   0  0  0  0  0  0
  -27.6845  -14.2538   19.5380 H   0  0  0  0  0  0
  -28.6970  -12.0283   21.3759 H   0  0  0  0  0  0
  -28.4600  -13.6865   21.8468 H   0  0  0  0  0  0
  -25.2756   -9.5691   22.4753 H   0  0  0  0  0  0
  -24.0002   -7.4636   22.7467 H   0  0  0  0  0  0
  -21.0839   -8.8762   19.8947 H   0  0  0  0  0  0
  -22.3685  -10.9665   19.6152 H   0  0  0  0  0  0
  -21.2006   -7.6143   23.9712 H   0  0  0  0  0  0
  -21.1480   -6.0517   25.9077 H   0  0  0  0  0  0
  -22.0600   -2.7606   23.2842 H   0  0  0  0  0  0
  -22.4105  -11.9879   22.4780 H   0  0  0  0  0  0
  -21.1117  -13.1258   22.2603 H   0  0  0  0  0  0
  -24.6581  -15.8409   20.5149 H   0  0  0  0  0  0
  -26.2756  -15.6294   20.0748 H   0  0  0  0  0  0
  -26.7164  -32.5487   23.1156 H   0  0  0  0  0  0
  -25.0118  -33.9764   25.0494 H   0  0  0  0  0  0
  -22.7053  -31.3140   21.4175 H   0  0  0  0  0  0
  -23.3754  -35.9621   23.3317 H   0  0  0  0  0  0
  -24.3580  -36.8888   22.2051 H   0  0  0  0  0  0
  -23.7229  -37.6501   23.6640 H   0  0  0  0  0  0
  -26.0843  -31.5755   20.6140 H   0  0  0  0  0  0
  -26.8348  -30.8495   22.0057 H   0  0  0  0  0  0
  -28.1040  -29.0079   21.1930 H   0  0  0  0  0  0
  -25.9456  -25.9949   18.9406 H   0  0  0  0  0  0
  -23.9580  -27.3463   18.9951 H   0  0  0  0  0  0
  -23.7395  -30.6190   19.4118 H   0  0  0  0  0  0
  -22.7436  -29.2678   19.8616 H   0  0  0  0  0  0
  -25.1290  -36.1966   25.0830 H   0  0  0  0  0  0
  -20.9983  -28.3245   24.1413 H   0  0  0  0  0  0
  -20.5681  -26.2287   23.3605 H   0  0  0  0  0  0
  -21.6639  -26.7447   22.1202 H   0  0  0  0  0  0
  -19.6902  -25.6302   21.1241 H   0  0  0  0  0  0
  -19.6683  -27.3202   20.6742 H   0  0  0  0  0  0
  -17.4202  -26.6695   21.4017 H   0  0  0  0  0  0
  -18.0311  -26.0068   22.9013 H   0  0  0  0  0  0
  -19.7934  -30.7272   24.2265 H   0  0  0  0  0  0
  -17.5017  -31.6268   24.5165 H   0  0  0  0  0  0
  -15.5351  -30.2989   23.7661 H   0  0  0  0  0  0
  -15.8672  -28.0826   22.7066 H   0  0  0  0  0  0
  -24.5902  -30.7086   25.7831 H   0  0  0  0  0  0
  -24.8930  -32.2901   26.4925 H   0  0  0  0  0  0
  -25.8070  -30.8919   27.0260 H   0  0  0  0  0  0
  -26.2907  -29.6792   24.1203 H   0  0  0  0  0  0
  -27.4046  -29.7281   25.4675 H   0  0  0  0  0  0
  -27.8772  -30.4343   23.9400 H   0  0  0  0  0  0
  -27.2687  -33.3634   26.2094 H   0  0  0  0  0  0
  -28.3874  -32.6878   25.0340 H   0  0  0  0  0  0
  -28.0730  -31.8451   26.5431 H   0  0  0  0  0  0
  -28.2614  -38.0093   24.7509 H   0  0  0  0  0  0
  -28.1061  -36.2625   24.6305 H   0  0  0  0  0  0
  -27.2299  -37.1471   25.8872 H   0  0  0  0  0  0
  -20.9337  -29.8789   21.6938 H   0  0  0  0  0  0
  -26.0181  -38.2869   24.1402 H   0  0  0  0  0  0
  -31.7533  -21.4817   21.5109 H   0  0  0  0  0  0
  -32.1171  -23.9237   21.5703 H   0  0  0  0  0  0
  -30.9235  -19.5226   22.2746 H   0  0  0  0  0  0
  -29.3175  -19.8482   22.8676 H   0  0  0  0  0  0
  -29.9362  -19.7298   18.6200 H   0  0  0  0  0  0
  -31.3054  -19.4852   19.6688 H   0  0  0  0  0  0
  -28.4957  -17.6951   21.9722 H   0  0  0  0  0  0
  -29.8592  -17.4292   23.0246 H   0  0  0  0  0  0
  -30.5303  -17.3099   18.7743 H   0  0  0  0  0  0
  -28.9089  -17.6037   19.3370 H   0  0  0  0  0  0
  -28.4321  -19.8995   20.5808 H   0  0  0  0  0  0
  -31.3727  -17.1498   21.0941 H   0  0  0  0  0  0
  -27.6082  -21.3336   18.9533 H   0  0  0  0  0  0
  -26.8650  -22.8883   19.2151 H   0  0  0  0  0  0
  -26.8323  -21.6884   20.4995 H   0  0  0  0  0  0
  -27.1382  -24.8230   20.4416 H   0  0  0  0  0  0
  -27.8938  -24.9549   18.8507 H   0  0  0  0  0  0
  -28.9908  -15.4005   21.2258 H   0  0  0  0  0  0
  1 25  1  0  0  0
  1 30  2  0  0  0
  1 85  1  0  0  0
  2  3  1  0  0  0
  2 25  1  0  0  0
  2 86  1  0  0  0
  2 87  1  0  0  0
  3  4  1  0  0  0
  3 88  1  0  0  0
  3 89  1  0  0  0
  4  5  1  0  0  0
  4 90  1  0  0  0
  4 91  1  0  0  0
  5  6  1  0  0  0
  5 26  1  0  0  0
  5 92  1  0  0  0
  6 25  1  0  0  0
  6 93  1  0  0  0
  6 94  1  0  0  0
  7  8  2  0  0  0
  7 26  1  0  0  0
  7 29  1  0  0  0
  8  9  1  0  0  0
  8 22  1  0  0  0
  9 10  1  0  0  0
  9 27  2  0  0  0
 10 11  2  0  0  0
 10 15  1  0  0  0
 11 12  1  0  0  0
 11 95  1  0  0  0
 12 13  2  0  0  0
 12 96  1  0  0  0
 13 14  1  0  0  0
 13 31  1  0  0  0
 14 15  2  0  0  0
 14 97  1  0  0  0
 15 98  1  0  0  0
 16 17  2  0  0  0
 16 21  1  0  0  0
 16 31  1  0  0  0
 17 18  1  0  0  0
 17 99  1  0  0  0
 18 19  2  0  0  0
 18100  1  0  0  0
 19 20  1  0  0  0
 19 24  1  0  0  0
 20 21  2  0  0  0
 20101  1  0  0  0
 21 23  1  0  0  0
 22 28  1  0  0  0
 22 32  2  0  0  0
 26 27  1  0  0  0
 28102  1  0  0  0
 28103  1  0  0  0
 29104  1  0  0  0
 29105  1  0  0  0
 33 34  1  0  0  0
 33 66  1  0  0  0
 33 70  2  0  0  0
 34 36  1  0  0  0
 34 59  1  0  0  0
 34106  1  0  0  0
 35 44  2  0  0  0
 35 45  1  0  0  0
 35 68  1  0  0  0
 36 56  1  0  0  0
 36107  1  0  0  0
 37 39  1  0  0  0
 37 47  1  0  0  0
 37 66  1  0  0  0
 37108  1  0  0  0
 38 43  2  0  0  0
 38 46  1  0  0  0
 38 47  1  0  0  0
 39 64  1  0  0  0
 39 67  2  0  0  0
 40 52  1  0  0  0
 40 53  2  0  0  0
 40 58  1  0  0  0
 41109  1  0  0  0
 41110  1  0  0  0
 41111  1  0  0  0
 41 48  1  0  0  0
 42 43  1  0  0  0
 42 66  1  0  0  0
 42112  1  0  0  0
 42113  1  0  0  0
 43 44  1  0  0  0
 44114  1  0  0  0
 45 46  2  0  0  0
 45115  1  0  0  0
 46116  1  0  0  0
 47117  1  0  0  0
 47118  1  0  0  0
 48 56  1  0  0  0
 48 65  1  0  0  0
 48119  1  0  0  0
 49 50  1  0  0  0
 49 53  1  0  0  0
 49 64  1  0  0  0
 49120  1  0  0  0
 50 51  1  0  0  0
 50121  1  0  0  0
 50122  1  0  0  0
 51 52  1  0  0  0
 51123  1  0  0  0
 51124  1  0  0  0
 52125  1  0  0  0
 52126  1  0  0  0
 53 54  1  0  0  0
 54 55  2  0  0  0
 54127  1  0  0  0
 55 57  1  0  0  0
 55128  1  0  0  0
 56 69  2  0  0  0
 57 58  2  0  0  0
 57129  1  0  0  0
 58130  1  0  0  0
 59 60  1  0  0  0
 59 61  1  0  0  0
 59 62  1  0  0  0
 60131  1  0  0  0
 60132  1  0  0  0
 60133  1  0  0  0
 61134  1  0  0  0
 61135  1  0  0  0
 61136  1  0  0  0
 62137  1  0  0  0
 62138  1  0  0  0
 62139  1  0  0  0
 63 65  1  0  0  0
 63140  1  0  0  0
 63141  1  0  0  0
 63142  1  0  0  0
 64143  1  0  0  0
 65144  1  0  0  0
 68 83  1  0  0  0
 71 72  2  0  0  0
 71 73  1  0  0  0
 71145  1  0  0  0
 72 84  1  0  0  0
 72146  1  0  0  0
 73 74  2  0  0  0
 73 80  1  0  0  0
 74 75  1  0  0  0
 74 82  1  0  0  0
 75 83  1  0  0  0
 75 84  2  0  0  0
 76 78  1  0  0  0
 76 80  1  0  0  0
 76147  1  0  0  0
 76148  1  0  0  0
 77 79  1  0  0  0
 77 80  1  0  0  0
 77149  1  0  0  0
 77150  1  0  0  0
 78 81  1  0  0  0
 78151  1  0  0  0
 78152  1  0  0  0
 79 81  1  0  0  0
 79153  1  0  0  0
 79154  1  0  0  0
 80155  1  0  0  0
 81 85  1  0  0  0
 81156  1  0  0  0
 82157  1  0  0  0
 82158  1  0  0  0
 82159  1  0  0  0
 83160  1  0  0  0
 83161  1  0  0  0
 85162  1  0  0  0
M  ISO  4   1 100  68 101  83 101  85 100
M  END
> <chiral flag>
0

> <version>
0

> <s_m_source_file>
/data/baiqing/PycharmProjects/Reinvent-master-3.2/result/LINK_invent/BTK/process_docking_weight1_custom_sum_contain_oxygen_bond_distance_aromatic_linkinvent_7_9_3/rearranged_h_0121.sdf

> <i_m_source_file_index>
27

> <r_mmod_Potential_Energy-OPLS-2005>
-131.261383056641

> <r_mmod_Stretch_Energy-OPLS-2005>
61.1455726623535

> <r_mmod_Bend_Energy-OPLS-2005>
112.317573547363

> <r_mmod_Torsional_Energy-OPLS-2005>
212.821929931641

> <r_mmod_Improper_Torsional_Energy-OPLS-2005>
4.07123851776123

> <r_mmod_Van_der_Waal_Energy-OPLS-2005>
161.067977905273

> <r_mmod_Electrostatic_Energy-OPLS-2005>
-485.216461181641

> <r_mmod_Solvation_Energy-OPLS-2005>
-230.073928833008

> <b_mmod_Minimization_Converged-OPLS-2005>
0

> <r_mmod_RMS_Derivative-OPLS-2005>
0.760830223560333

$$$$
27
                    3D
 Structure written by MMmdl.
174182  0  0  1  0            999 V2000
  -30.6777  -14.4538   20.6239 C   0  0  0  0  0  0
  -30.4390  -12.3200   19.3957 C   0  0  0  0  0  0
  -29.4866  -12.5016   18.1928 C   0  0  0  0  0  0
  -28.0119  -12.3507   18.6175 C   0  0  0  0  0  0
  -27.6645  -13.1896   19.8744 C   0  0  2  0  0  0
  -28.7051  -12.9293   20.9864 C   0  0  0  0  0  0
  -25.2625  -13.8138   20.5685 C   0  0  0  0  0  0
  -24.1851  -13.0445   20.9191 C   0  0  0  0  0  0
  -24.6373  -11.6897   20.8742 C   0  0  0  0  0  0
  -23.9046  -10.4298   21.0418 C   0  0  0  0  0  0
  -24.3600   -9.4214   21.9195 C   0  0  0  0  0  0
  -23.6286   -8.2246   22.0751 C   0  0  0  0  0  0
  -22.4273   -8.0277   21.3529 C   0  0  0  0  0  0
  -21.9906   -9.0264   20.4634 C   0  0  0  0  0  0
  -22.7231  -10.2142   20.3060 C   0  0  0  0  0  0
  -21.6843   -6.0742   22.5277 C   0  0  0  0  0  0
  -21.4006   -6.5642   23.8217 C   0  0  0  0  0  0
  -21.3651   -5.6792   24.9177 C   0  0  0  0  0  0
  -21.6050   -4.3051   24.7222 C   0  0  0  0  0  0
  -21.8819   -3.8154   23.4337 C   0  0  0  0  0  0
  -21.9195   -4.6976   22.3399 C   0  0  0  0  0  0
  -22.7880  -13.5262   21.1869 C   0  0  0  0  0  0
  -22.1663   -4.2163   21.0976 F   0  0  0  0  0  0
  -21.5633   -3.4535   25.7730 F   0  0  0  0  0  0
  -30.0363  -13.2671   20.4452 N   0  0  0  0  0  0
  -26.3031  -12.9264   20.3358 N   0  0  0  0  0  0
  -25.9284  -11.6445   20.5760 N   0  0  0  0  0  0
  -22.0501  -12.8231   22.0392 N   0  0  0  0  0  0
  -25.4450  -15.1848   20.4109 N   0  0  0  0  0  0
  -31.7690  -14.7259   20.1176 O   0  0  0  0  0  0
  -21.6623   -6.8885   21.4235 O   0  0  0  0  0  0
  -22.3582  -14.5579   20.6739 O   0  0  0  0  0  0
  -24.6128  -31.8676   23.2138 C   0  0  0  0  0  0
  -25.9029  -32.4820   23.8420 C   0  0  1  0  0  0
  -27.2417  -27.4269   20.0944 C   0  0  0  0  0  0
  -25.5910  -33.8627   24.2338 N   0  0  0  0  0  0
  -23.4025  -30.4872   21.5562 C   0  0  2  0  0  0
  -24.8554  -28.9505   20.1247 C   0  0  0  0  0  0
  -22.7411  -29.4593   22.5038 C   0  0  0  0  0  0
  -18.0256  -28.1298   22.8488 C   0  0  0  0  0  0
  -24.1479  -36.7300   23.2635 C   0  0  0  0  0  0
  -25.9338  -30.8252   21.3748 C   0  0  0  0  0  0
  -26.0141  -29.4569   20.7276 C   0  0  0  0  0  0
  -27.2134  -28.6988   20.7222 C   0  0  0  0  0  0
  -26.0695  -26.9460   19.4800 C   0  0  0  0  0  0
  -24.8758  -27.6914   19.5023 C   0  0  0  0  0  0
  -23.6135  -29.8155   20.1728 C   0  0  0  0  0  0
  -25.4110  -36.3116   24.0324 C   0  0  1  0  0  0
  -20.5843  -28.3588   23.1323 C   0  0  2  0  0  0
  -20.6727  -26.9325   22.5405 C   0  0  0  0  0  0
  -19.5719  -26.6331   21.5171 C   0  0  0  0  0  0
  -18.1906  -26.7853   22.1583 C   0  0  0  0  0  0
  -19.1509  -28.8760   23.2883 C   0  0  0  0  0  0
  -18.9436  -30.1381   23.8878 C   0  0  0  0  0  0
  -17.6444  -30.6546   24.0517 C   0  0  0  0  0  0
  -25.9040  -34.9480   23.5125 C   0  0  0  0  0  0
  -16.5335  -29.9039   23.6295 C   0  0  0  0  0  0
  -16.7239  -28.6421   23.0380 C   0  0  0  0  0  0
  -26.4476  -31.6627   25.0746 C   0  0  0  0  0  0
  -25.3748  -31.3713   26.1502 C   0  0  0  0  0  0
  -27.0328  -30.3074   24.6113 C   0  0  0  0  0  0
  -27.6024  -32.4369   25.7512 C   0  0  0  0  0  0
  -27.5604  -37.1784   24.8438 C   0  0  0  0  0  0
  -21.4135  -29.2970   22.3763 N   0  0  0  0  0  0
  -26.4283  -37.3816   23.9434 N   0  0  0  0  0  0
  -24.6676  -31.0764   22.1046 N   0  0  0  0  0  0
  -23.4188  -28.8107   23.3047 O   0  0  0  0  0  0
  -28.3702  -26.6428   19.9670 O   0  0  0  0  0  0
  -26.5607  -34.8919   22.4682 O   0  0  0  0  0  0
  -23.5325  -32.1456   23.7516 O   0  0  0  0  0  0
  -26.7586  -18.7357   17.0672 C   0  0  0  0  0  0
  -27.4046  -19.3457   18.3236 C   0  0  0  0  0  0
  -27.1198  -19.5459   15.8091 C   0  0  0  0  0  0
  -29.2592  -20.2563   16.8361 C   0  0  0  0  0  0
  -28.9356  -19.4921   18.1520 C   0  0  1  0  0  0
  -29.0467  -21.4857   19.8328 C   0  0  0  0  0  0
  -30.1992  -16.7943   21.5346 C   0  0  0  0  0  0
  -29.9845  -22.5311   20.5126 C   0  0  0  0  0  0
  -29.9158  -17.6690   20.2815 C   0  0  0  0  0  0
  -29.1303  -24.7707   21.3859 C   0  0  0  0  0  0
  -29.1292  -26.3080   21.1291 C   0  0  0  0  0  0
  -29.6539  -20.0854   19.4238 C   0  0  1  0  0  0
  -29.9561  -15.3625   21.3027 N   0  0  0  0  0  0
  -28.5869  -19.6539   15.6587 N   0  3  0  0  0  0
  -29.6302  -23.9609   20.2340 N   0  3  0  0  0  0
  -29.7067  -19.1229   20.5787 N   0  3  0  0  0  0
  -31.4731  -12.4688   19.0776 H   0  0  0  0  0  0
  -30.3866  -11.2984   19.7770 H   0  0  0  0  0  0
  -29.7222  -11.7714   17.4168 H   0  0  0  0  0  0
  -29.6389  -13.4848   17.7440 H   0  0  0  0  0  0
  -27.8360  -11.2940   18.8243 H   0  0  0  0  0  0
  -27.3485  -12.6130   17.7910 H   0  0  0  0  0  0
  -27.7226  -14.2405   19.5897 H   0  0  0  0  0  0
  -28.6873  -11.8762   21.2748 H   0  0  0  0  0  0
  -28.4498  -13.4720   21.8974 H   0  0  0  0  0  0
  -25.2748   -9.5685   22.4767 H   0  0  0  0  0  0
  -24.0003   -7.4627   22.7453 H   0  0  0  0  0  0
  -21.0858   -8.8788   19.8919 H   0  0  0  0  0  0
  -22.3713  -10.9688   19.6165 H   0  0  0  0  0  0
  -21.1988   -7.6148   23.9726 H   0  0  0  0  0  0
  -21.1470   -6.0512   25.9081 H   0  0  0  0  0  0
  -22.0603   -2.7613   23.2833 H   0  0  0  0  0  0
  -22.4112  -11.9881   22.4759 H   0  0  0  0  0  0
  -21.1108  -13.1233   22.2581 H   0  0  0  0  0  0
  -24.6930  -15.8529   20.5368 H   0  0  0  0  0  0
  -26.3054  -15.6079   20.0904 H   0  0  0  0  0  0
  -26.7093  -32.5527   23.1181 H   0  0  0  0  0  0
  -25.0127  -33.9788   25.0532 H   0  0  0  0  0  0
  -22.6855  -31.3006   21.4187 H   0  0  0  0  0  0
  -23.3767  -35.9600   23.3249 H   0  0  0  0  0  0
  -24.3605  -36.8973   22.2063 H   0  0  0  0  0  0
  -23.7176  -37.6457   23.6689 H   0  0  0  0  0  0
  -26.0539  -31.5916   20.6094 H   0  0  0  0  0  0
  -26.8145  -30.8776   22.0008 H   0  0  0  0  0  0
  -28.1108  -29.0993   21.1739 H   0  0  0  0  0  0
  -26.0781  -25.9880   18.9805 H   0  0  0  0  0  0
  -23.9863  -27.2986   19.0292 H   0  0  0  0  0  0
  -23.7148  -30.5879   19.4110 H   0  0  0  0  0  0
  -22.7399  -29.2295   19.8782 H   0  0  0  0  0  0
  -25.1275  -36.1987   25.0817 H   0  0  0  0  0  0
  -20.9880  -28.3134   24.1467 H   0  0  0  0  0  0
  -20.5586  -26.2196   23.3594 H   0  0  0  0  0  0
  -21.6622  -26.7369   22.1243 H   0  0  0  0  0  0
  -19.6888  -25.6241   21.1210 H   0  0  0  0  0  0
  -19.6667  -27.3127   20.6697 H   0  0  0  0  0  0
  -17.4174  -26.6581   21.3980 H   0  0  0  0  0  0
  -18.0297  -25.9975   22.8951 H   0  0  0  0  0  0
  -19.7939  -30.7149   24.2285 H   0  0  0  0  0  0
  -17.5031  -31.6249   24.5092 H   0  0  0  0  0  0
  -15.5339  -30.2934   23.7664 H   0  0  0  0  0  0
  -15.8629  -28.0730   22.7170 H   0  0  0  0  0  0
  -24.5904  -30.7080   25.7833 H   0  0  0  0  0  0
  -24.8969  -32.2873   26.4984 H   0  0  0  0  0  0
  -25.8117  -30.8861   27.0245 H   0  0  0  0  0  0
  -26.2878  -29.6810   24.1192 H   0  0  0  0  0  0
  -27.4142  -29.7325   25.4565 H   0  0  0  0  0  0
  -27.8688  -30.4399   23.9241 H   0  0  0  0  0  0
  -27.2621  -33.3676   26.2072 H   0  0  0  0  0  0
  -28.3840  -32.6955   25.0350 H   0  0  0  0  0  0
  -28.0686  -31.8535   26.5458 H   0  0  0  0  0  0
  -28.2528  -38.0191   24.7706 H   0  0  0  0  0  0
  -28.1208  -36.2737   24.6007 H   0  0  0  0  0  0
  -27.2347  -37.1111   25.8838 H   0  0  0  0  0  0
  -20.9302  -29.8785   21.7052 H   0  0  0  0  0  0
  -26.0160  -38.2859   24.1563 H   0  0  0  0  0  0
  -25.6741  -18.7031   17.1817 H   0  0  0  0  0  0
  -27.0813  -17.7003   16.9466 H   0  0  0  0  0  0
  -27.1669  -18.7277   19.1901 H   0  0  0  0  0  0
  -26.9468  -20.3174   18.5108 H   0  0  0  0  0  0
  -26.6851  -20.5456   15.8629 H   0  0  0  0  0  0
  -26.6954  -19.0743   14.9224 H   0  0  0  0  0  0
  -30.3352  -20.2560   16.6556 H   0  0  0  0  0  0
  -28.9624  -21.3021   16.8936 H   0  0  0  0  0  0
  -29.3382  -18.4993   17.9581 H   0  0  0  0  0  0
  -28.6643  -21.9613   18.9348 H   0  0  0  0  0  0
  -28.1596  -21.3407   20.4501 H   0  0  0  0  0  0
  -29.5368  -17.0922   22.3489 H   0  0  0  0  0  0
  -31.2189  -16.9432   21.8947 H   0  0  0  0  0  0
  -31.0016  -22.3900   20.1503 H   0  0  0  0  0  0
  -30.0346  -22.3462   21.5862 H   0  0  0  0  0  0
  -29.0258  -17.2782   19.7878 H   0  0  0  0  0  0
  -30.7471  -17.5493   19.5837 H   0  0  0  0  0  0
  -28.1303  -24.4331   21.6652 H   0  0  0  0  0  0
  -29.7679  -24.5905   22.2529 H   0  0  0  0  0  0
  -30.1470  -26.6661   20.9698 H   0  0  0  0  0  0
  -28.7550  -26.8221   22.0165 H   0  0  0  0  0  0
  -30.6944  -20.2464   19.1357 H   0  0  0  0  0  0
  -29.0777  -15.0101   21.6530 H   0  0  0  0  0  0
  -28.7865  -20.2134   14.8433 H   0  0  0  0  0  0
  -28.9655  -18.7371   15.4802 H   0  0  0  0  0  0
  -28.9638  -24.0143   19.4770 H   0  0  0  0  0  0
  -30.4730  -24.4023   19.8945 H   0  0  0  0  0  0
  -30.4420  -19.4203   21.2004 H   0  0  0  0  0  0
  -28.8434  -19.1975   21.0956 H   0  0  0  0  0  0
  1 25  1  0  0  0
  1 30  2  0  0  0
  1 83  1  0  0  0
  2  3  1  0  0  0
  2 25  1  0  0  0
  2 87  1  0  0  0
  2 88  1  0  0  0
  3  4  1  0  0  0
  3 89  1  0  0  0
  3 90  1  0  0  0
  4  5  1  0  0  0
  4 91  1  0  0  0
  4 92  1  0  0  0
  5  6  1  0  0  0
  5 26  1  0  0  0
  5 93  1  0  0  0
  6 25  1  0  0  0
  6 94  1  0  0  0
  6 95  1  0  0  0
  7  8  2  0  0  0
  7 26  1  0  0  0
  7 29  1  0  0  0
  8  9  1  0  0  0
  8 22  1  0  0  0
  9 10  1  0  0  0
  9 27  2  0  0  0
 10 11  2  0  0  0
 10 15  1  0  0  0
 11 12  1  0  0  0
 11 96  1  0  0  0
 12 13  2  0  0  0
 12 97  1  0  0  0
 13 14  1  0  0  0
 13 31  1  0  0  0
 14 15  2  0  0  0
 14 98  1  0  0  0
 15 99  1  0  0  0
 16 17  2  0  0  0
 16 21  1  0  0  0
 16 31  1  0  0  0
 17 18  1  0  0  0
 17100  1  0  0  0
 18 19  2  0  0  0
 18101  1  0  0  0
 19 20  1  0  0  0
 19 24  1  0  0  0
 20 21  2  0  0  0
 20102  1  0  0  0
 21 23  1  0  0  0
 22 28  1  0  0  0
 22 32  2  0  0  0
 26 27  1  0  0  0
 28103  1  0  0  0
 28104  1  0  0  0
 29105  1  0  0  0
 29106  1  0  0  0
 33 34  1  0  0  0
 33 66  1  0  0  0
 33 70  2  0  0  0
 34 36  1  0  0  0
 34 59  1  0  0  0
 34107  1  0  0  0
 35 44  2  0  0  0
 35 45  1  0  0  0
 35 68  1  0  0  0
 36 56  1  0  0  0
 36108  1  0  0  0
 37 39  1  0  0  0
 37 47  1  0  0  0
 37 66  1  0  0  0
 37109  1  0  0  0
 38 43  2  0  0  0
 38 46  1  0  0  0
 38 47  1  0  0  0
 39 64  1  0  0  0
 39 67  2  0  0  0
 40 52  1  0  0  0
 40 53  2  0  0  0
 40 58  1  0  0  0
 41110  1  0  0  0
 41111  1  0  0  0
 41112  1  0  0  0
 41 48  1  0  0  0
 42 43  1  0  0  0
 42 66  1  0  0  0
 42113  1  0  0  0
 42114  1  0  0  0
 43 44  1  0  0  0
 44115  1  0  0  0
 45 46  2  0  0  0
 45116  1  0  0  0
 46117  1  0  0  0
 47118  1  0  0  0
 47119  1  0  0  0
 48 56  1  0  0  0
 48 65  1  0  0  0
 48120  1  0  0  0
 49 50  1  0  0  0
 49 53  1  0  0  0
 49 64  1  0  0  0
 49121  1  0  0  0
 50 51  1  0  0  0
 50122  1  0  0  0
 50123  1  0  0  0
 51 52  1  0  0  0
 51124  1  0  0  0
 51125  1  0  0  0
 52126  1  0  0  0
 52127  1  0  0  0
 53 54  1  0  0  0
 54 55  2  0  0  0
 54128  1  0  0  0
 55 57  1  0  0  0
 55129  1  0  0  0
 56 69  2  0  0  0
 57 58  2  0  0  0
 57130  1  0  0  0
 58131  1  0  0  0
 59 60  1  0  0  0
 59 61  1  0  0  0
 59 62  1  0  0  0
 60132  1  0  0  0
 60133  1  0  0  0
 60134  1  0  0  0
 61135  1  0  0  0
 61136  1  0  0  0
 61137  1  0  0  0
 62138  1  0  0  0
 62139  1  0  0  0
 62140  1  0  0  0
 63 65  1  0  0  0
 63141  1  0  0  0
 63142  1  0  0  0
 63143  1  0  0  0
 64144  1  0  0  0
 65145  1  0  0  0
 68 81  1  0  0  0
 71 72  1  0  0  0
 71 73  1  0  0  0
 71146  1  0  0  0
 71147  1  0  0  0
 72148  1  0  0  0
 72149  1  0  0  0
 72 75  1  0  0  0
 73 84  1  0  0  0
 73150  1  0  0  0
 73151  1  0  0  0
 74 75  1  0  0  0
 74 84  1  0  0  0
 74152  1  0  0  0
 74153  1  0  0  0
 75 82  1  0  0  0
 75154  1  0  0  0
 76 78  1  0  0  0
 76155  1  0  0  0
 76156  1  0  0  0
 76 82  1  0  0  0
 77 79  1  0  0  0
 77 83  1  0  0  0
 77157  1  0  0  0
 77158  1  0  0  0
 78 85  1  0  0  0
 78159  1  0  0  0
 78160  1  0  0  0
 79 86  1  0  0  0
 79161  1  0  0  0
 79162  1  0  0  0
 80 81  1  0  0  0
 80 85  1  0  0  0
 80163  1  0  0  0
 80164  1  0  0  0
 81165  1  0  0  0
 81166  1  0  0  0
 82 86  1  0  0  0
 82167  1  0  0  0
 83168  1  0  0  0
 84169  1  0  0  0
 84170  1  0  0  0
 85171  1  0  0  0
 85172  1  0  0  0
 86173  1  0  0  0
 86174  1  0  0  0
M  CHG  3  84   1  85   1  86   1
M  ISO  4   1 100  68 101  81 101  83 100
M  END
> <chiral flag>
0

> <version>
0

> <s_m_source_file>
/data/baiqing/PycharmProjects/Reinvent-master-3.2/result/LINK_invent/BTK/process_docking_weight1_custom_sum_contain_oxygen_bond_distance_aromatic_linkinvent_7_9_3/rearranged_h_0121.sdf

> <i_m_source_file_index>
28

> <r_mmod_Potential_Energy-OPLS-2005>
-485.026519775391

> <r_mmod_Stretch_Energy-OPLS-2005>
46.644157409668

> <r_mmod_Bend_Energy-OPLS-2005>
118.230407714844

> <r_mmod_Torsional_Energy-OPLS-2005>
295.10205078125

> <r_mmod_Improper_Torsional_Energy-OPLS-2005>
2.96213364601135

> <r_mmod_Van_der_Waal_Energy-OPLS-2005>
132.002075195312

> <r_mmod_Electrostatic_Energy-OPLS-2005>
609.408752441406

> <r_mmod_Solvation_Energy-OPLS-2005>
-1701.69677734375

> <b_mmod_Minimization_Converged-OPLS-2005>
0

> <r_mmod_RMS_Derivative-OPLS-2005>
3.74427628517151

$$$$
28
                    3D
 Structure written by MMmdl.
174182  0  0  1  0            999 V2000
  -30.6726  -13.2399   21.3128 C   0  0  0  0  0  0
  -30.4275  -12.4459   19.1563 C   0  0  0  0  0  0
  -29.5280  -12.3940   17.9628 C   0  0  0  0  0  0
  -28.0807  -12.2985   18.3267 C   0  0  0  0  0  0
  -27.6924  -13.3018   19.3950 C   0  0  2  0  0  0
  -28.5654  -13.6430   20.5055 C   0  0  0  0  0  0
  -25.5056  -14.1413   19.9923 C   0  0  0  0  0  0
  -24.2610  -13.7551   20.7201 C   0  0  0  0  0  0
  -24.5943  -12.1347   20.5316 C   0  0  0  0  0  0
  -23.9200  -10.6954   20.8385 C   0  0  0  0  0  0
  -24.3547   -9.6634   21.7605 C   0  0  0  0  0  0
  -23.6515   -8.4389   22.0130 C   0  0  0  0  0  0
  -22.4654   -8.1310   21.3097 C   0  0  0  0  0  0
  -22.0626   -9.0675   20.3400 C   0  0  0  0  0  0
  -22.7854  -10.2648   20.0928 C   0  0  0  0  0  0
  -21.7341   -6.1258   22.5171 C   0  0  0  0  0  0
  -21.4349   -6.5986   23.8139 C   0  0  0  0  0  0
  -21.3759   -5.7037   24.9041 C   0  0  0  0  0  0
  -21.6053   -4.3286   24.7067 C   0  0  0  0  0  0
  -21.8823   -3.8464   23.4161 C   0  0  0  0  0  0
  -21.9373   -4.7377   22.3270 C   0  0  0  0  0  0
  -22.7267  -14.8077   22.2307 C   0  0  0  0  0  0
  -22.1723   -4.2481   21.0857 F   0  0  0  0  0  0
  -21.5551   -3.4707   25.7543 F   0  0  0  0  0  0
  -29.9053  -13.2295   20.2878 N   0  0  0  0  0  0
  -26.3689  -13.1175   19.8688 N   0  0  0  0  0  0
  -25.8776  -11.9246   20.2411 N   0  0  0  0  0  0
  -21.8412  -14.2581   23.1644 N   0  0  0  0  0  0
  -25.9161  -15.4130   19.6730 N   0  0  0  0  0  0
  -31.8039  -13.7453   21.3505 O   0  0  0  0  0  0
  -21.7235   -6.9597   21.4160 O   0  0  0  0  0  0
  -23.7107  -14.3333   21.1582 O   0  0  0  0  0  0
  -24.6789  -31.8088   23.1804 C   0  0  0  0  0  0
  -25.9469  -32.4426   23.8218 C   0  0  1  0  0  0
  -26.6688  -26.5688   20.2794 C   0  0  0  0  0  0
  -25.6098  -33.8289   24.2028 N   0  0  0  0  0  0
  -23.4760  -30.4645   21.5317 C   0  0  2  0  0  0
  -24.8426  -28.8535   20.0633 C   0  0  0  0  0  0
  -22.7657  -29.4434   22.4627 C   0  0  0  0  0  0
  -18.0328  -28.1412   22.8454 C   0  0  0  0  0  0
  -24.1502  -36.7081   23.2672 C   0  0  0  0  0  0
  -26.0587  -30.4755   21.4825 C   0  0  0  0  0  0
  -26.0183  -29.0642   20.7902 C   0  0  0  0  0  0
  -26.9651  -27.9255   20.8774 C   0  0  0  0  0  0
  -25.6240  -26.6367   19.3733 C   0  0  0  0  0  0
  -24.7077  -27.6921   19.3041 C   0  0  0  0  0  0
  -23.7094  -29.8657   20.1238 C   0  0  0  0  0  0
  -25.4181  -36.2870   24.0281 C   0  0  1  0  0  0
  -20.5960  -28.3764   23.1111 C   0  0  2  0  0  0
  -20.6796  -26.9426   22.5382 C   0  0  0  0  0  0
  -19.5766  -26.6357   21.5203 C   0  0  0  0  0  0
  -18.1952  -26.7940   22.1616 C   0  0  0  0  0  0
  -19.1596  -28.8906   23.2782 C   0  0  0  0  0  0
  -18.9514  -30.1490   23.8833 C   0  0  0  0  0  0
  -17.6508  -30.6595   24.0560 C   0  0  0  0  0  0
  -25.9167  -34.9253   23.4970 C   0  0  0  0  0  0
  -16.5393  -29.9086   23.6355 C   0  0  0  0  0  0
  -16.7312  -28.6509   23.0367 C   0  0  0  0  0  0
  -26.4626  -31.6542   25.0907 C   0  0  0  0  0  0
  -25.3666  -31.3952   26.1515 C   0  0  0  0  0  0
  -27.0595  -30.2814   24.7120 C   0  0  0  0  0  0
  -27.6082  -32.4472   25.7628 C   0  0  0  0  0  0
  -27.5528  -37.1780   24.8525 C   0  0  0  0  0  0
  -21.4326  -29.3036   22.3398 N   0  0  0  0  0  0
  -26.4317  -37.3612   23.9344 N   0  0  0  0  0  0
  -24.7644  -30.9579   22.1069 N   0  0  0  0  0  0
  -23.4189  -28.7935   23.2837 O   0  0  0  0  0  0
  -27.1404  -25.1249   20.4040 O   0  0  0  0  0  0
  -26.5771  -34.8801   22.4567 O   0  0  0  0  0  0
  -23.5852  -32.1268   23.6781 O   0  0  0  0  0  0
  -22.2279  -12.8352   21.2548 C   0  0  0  0  0  0
  -23.8206  -16.4146   20.9816 C   0  0  0  0  0  0
  -24.9344  -15.3637   22.5016 C   0  0  0  0  0  0
  -25.8026  -16.6012   24.5338 C   0  0  0  0  0  0
  -26.9182  -16.9245   22.3210 C   0  0  0  0  0  0
  -24.8580  -22.3034   18.8934 C   0  0  0  0  0  0
  -23.9898  -18.3484   20.7483 C   0  0  0  0  0  0
  -25.2060  -19.9125   20.4440 C   0  0  0  0  0  0
  -28.9293  -11.1929   21.9104 C   0  0  0  0  0  0
  -27.6614  -11.2768   23.0048 C   0  0  0  0  0  0
  -26.2783  -23.5943   20.8126 C   0  0  0  0  0  0
  -25.0588  -12.1926   23.5800 C   0  0  0  0  0  0
  -26.1490  -15.9259   23.2070 C   0  0  0  0  0  0
  -25.3276  -21.9179   20.3106 C   0  0  1  0  0  0
  -22.0373  -14.7849   20.0753 N   0  0  0  0  0  0
  -24.0567  -13.1092   22.8518 N   0  0  0  0  0  0
  -30.2939  -11.9979   21.8369 N   0  0  0  0  0  0
  -26.4767  -12.3035   22.9256 N   0  3  0  0  0  0
  -31.3457  -12.8909   18.8129 H   0  0  0  0  0  0
  -30.6618  -11.4393   19.4830 H   0  0  0  0  0  0
  -29.8136  -11.5318   17.3719 H   0  0  0  0  0  0
  -29.7976  -13.2390   17.3402 H   0  0  0  0  0  0
  -27.8295  -11.2837   18.6356 H   0  0  0  0  0  0
  -27.5057  -12.5730   17.4212 H   0  0  0  0  0  0
  -27.7862  -14.2247   18.8267 H   0  0  0  0  0  0
  -28.1435  -13.3740   21.4671 H   0  0  0  0  0  0
  -28.7630  -14.6930   20.4570 H   0  0  0  0  0  0
  -25.2588   -9.7947   22.3137 H   0  0  0  0  0  0
  -24.0366   -7.7459   22.7461 H   0  0  0  0  0  0
  -21.1959   -8.8512   19.7311 H   0  0  0  0  0  0
  -22.4215  -10.9094   19.3024 H   0  0  0  0  0  0
  -21.2393   -7.6493   23.9717 H   0  0  0  0  0  0
  -21.1505   -6.0732   25.8940 H   0  0  0  0  0  0
  -22.0461   -2.7914   23.2581 H   0  0  0  0  0  0
  -21.8074  -13.2692   23.3673 H   0  0  0  0  0  0
  -21.3662  -14.8873   23.7979 H   0  0  0  0  0  0
  -25.2200  -16.1397   19.5675 H   0  0  0  0  0  0
  -26.8253  -15.6862   19.3285 H   0  0  0  0  0  0
  -26.7503  -32.4721   23.0855 H   0  0  0  0  0  0
  -25.0180  -33.9375   25.0133 H   0  0  0  0  0  0
  -22.8003  -31.3131   21.4043 H   0  0  0  0  0  0
  -23.3768  -35.9420   23.3456 H   0  0  0  0  0  0
  -24.3502  -36.8613   22.2056 H   0  0  0  0  0  0
  -23.7295  -37.6309   23.6673 H   0  0  0  0  0  0
  -26.3786  -31.2147   20.7477 H   0  0  0  0  0  0
  -26.8664  -30.4273   22.1976 H   0  0  0  0  0  0
  -27.8194  -28.0239   21.5323 H   0  0  0  0  0  0
  -25.3881  -25.7521   18.7998 H   0  0  0  0  0  0
  -23.8383  -27.5727   18.6723 H   0  0  0  0  0  0
  -23.9590  -30.6745   19.4352 H   0  0  0  0  0  0
  -22.7868  -29.4279   19.7398 H   0  0  0  0  0  0
  -25.1420  -36.1670   25.0784 H   0  0  0  0  0  0
  -21.0086  -28.3411   24.1220 H   0  0  0  0  0  0
  -20.5659  -26.2397   23.3649 H   0  0  0  0  0  0
  -21.6659  -26.7370   22.1201 H   0  0  0  0  0  0
  -19.6918  -25.6247   21.1284 H   0  0  0  0  0  0
  -19.6707  -27.3123   20.6699 H   0  0  0  0  0  0
  -17.4216  -26.6679   21.4025 H   0  0  0  0  0  0
  -18.0346  -26.0101   22.9032 H   0  0  0  0  0  0
  -19.7995  -30.7316   24.2170 H   0  0  0  0  0  0
  -17.5068  -31.6266   24.5183 H   0  0  0  0  0  0
  -15.5394  -30.2974   23.7723 H   0  0  0  0  0  0
  -15.8709  -28.0812   22.7119 H   0  0  0  0  0  0
  -24.5850  -30.7290   25.7845 H   0  0  0  0  0  0
  -24.8866  -32.3206   26.4708 H   0  0  0  0  0  0
  -25.7808  -30.9270   27.0455 H   0  0  0  0  0  0
  -26.3265  -29.6175   24.2527 H   0  0  0  0  0  0
  -27.4197  -29.7619   25.6017 H   0  0  0  0  0  0
  -27.9243  -30.3769   24.0557 H   0  0  0  0  0  0
  -27.2648  -33.3902   26.1896 H   0  0  0  0  0  0
  -28.3992  -32.6827   25.0495 H   0  0  0  0  0  0
  -28.0650  -31.8851   26.5784 H   0  0  0  0  0  0
  -28.2732  -37.9874   24.7270 H   0  0  0  0  0  0
  -28.0831  -36.2402   24.6798 H   0  0  0  0  0  0
  -27.2173  -37.1947   25.8910 H   0  0  0  0  0  0
  -20.9549  -29.8777   21.6590 H   0  0  0  0  0  0
  -26.0152  -38.2701   24.1177 H   0  0  0  0  0  0
  -21.5524  -11.9906   21.1835 H   0  0  0  0  0  0
  -25.3876  -15.8924   25.2483 H   0  0  0  0  0  0
  -25.0838  -17.4093   24.3906 H   0  0  0  0  0  0
  -26.6936  -17.0401   24.9891 H   0  0  0  0  0  0
  -27.4031  -16.4371   21.4766 H   0  0  0  0  0  0
  -27.7104  -17.4427   22.8631 H   0  0  0  0  0  0
  -26.2556  -17.6927   21.9315 H   0  0  0  0  0  0
  -23.7969  -22.1081   18.7413 H   0  0  0  0  0  0
  -25.4273  -21.7856   18.1224 H   0  0  0  0  0  0
  -25.0022  -23.3702   18.7100 H   0  0  0  0  0  0
  -23.4908  -18.7028   21.6513 H   0  0  0  0  0  0
  -23.2338  -18.5470   19.9886 H   0  0  0  0  0  0
  -25.2696  -19.7388   19.3685 H   0  0  0  0  0  0
  -26.1995  -19.5942   20.7524 H   0  0  0  0  0  0
  -28.4813  -11.2632   20.9270 H   0  0  0  0  0  0
  -29.1439  -10.0999   21.8537 H   0  0  0  0  0  0
  -28.1156  -11.2601   23.9928 H   0  0  0  0  0  0
  -27.1665  -10.2976   22.9006 H   0  0  0  0  0  0
  -26.8414  -23.2800   21.6911 H   0  0  0  0  0  0
  -25.4247  -24.1073   21.2582 H   0  0  0  0  0  0
  -24.6433  -11.2012   23.7065 H   0  0  0  0  0  0
  -25.1549  -12.5730   24.5962 H   0  0  0  0  0  0
  -26.8377  -15.1104   23.4192 H   0  0  0  0  0  0
  -24.4558  -22.1150   20.9364 H   0  0  0  0  0  0
  -30.6893  -11.4645   21.0592 H   0  0  0  0  0  0
  -26.2631  -12.4467   21.9392 H   0  0  0  0  0  0
  -26.8657  -13.1595   23.2803 H   0  0  0  0  0  0
  1 25  1  0  0  0
  1 30  2  0  0  0
  1 87  1  0  0  0
  2  3  1  0  0  0
  2 25  1  0  0  0
  2 89  1  0  0  0
  2 90  1  0  0  0
  3  4  1  0  0  0
  3 91  1  0  0  0
  3 92  1  0  0  0
  4  5  1  0  0  0
  4 93  1  0  0  0
  4 94  1  0  0  0
  5  6  1  0  0  0
  5 26  1  0  0  0
  5 95  1  0  0  0
  6 25  1  0  0  0
  6 96  1  0  0  0
  6 97  1  0  0  0
  7  8  2  0  0  0
  7 26  1  0  0  0
  7 29  1  0  0  0
  8  9  1  0  0  0
  8 22  1  0  0  0
  9 10  1  0  0  0
  9 27  2  0  0  0
 10 11  2  0  0  0
 10 15  1  0  0  0
 11 12  1  0  0  0
 11 98  1  0  0  0
 12 13  2  0  0  0
 12 99  1  0  0  0
 13 14  1  0  0  0
 13 31  1  0  0  0
 14 15  2  0  0  0
 14100  1  0  0  0
 15101  1  0  0  0
 16 17  2  0  0  0
 16 21  1  0  0  0
 16 31  1  0  0  0
 17 18  1  0  0  0
 17102  1  0  0  0
 18 19  2  0  0  0
 18103  1  0  0  0
 19 20  1  0  0  0
 19 24  1  0  0  0
 20 21  2  0  0  0
 20104  1  0  0  0
 21 23  1  0  0  0
 22 28  1  0  0  0
 22 32  2  0  0  0
 26 27  1  0  0  0
 28105  1  0  0  0
 28106  1  0  0  0
 29107  1  0  0  0
 29108  1  0  0  0
 33 34  1  0  0  0
 33 66  1  0  0  0
 33 70  2  0  0  0
 34 36  1  0  0  0
 34 59  1  0  0  0
 34109  1  0  0  0
 35 44  2  0  0  0
 35 45  1  0  0  0
 35 68  1  0  0  0
 36 56  1  0  0  0
 36110  1  0  0  0
 37 39  1  0  0  0
 37 47  1  0  0  0
 37 66  1  0  0  0
 37111  1  0  0  0
 38 43  2  0  0  0
 38 46  1  0  0  0
 38 47  1  0  0  0
 39 64  1  0  0  0
 39 67  2  0  0  0
 40 52  1  0  0  0
 40 53  2  0  0  0
 40 58  1  0  0  0
 41112  1  0  0  0
 41113  1  0  0  0
 41114  1  0  0  0
 41 48  1  0  0  0
 42 43  1  0  0  0
 42 66  1  0  0  0
 42115  1  0  0  0
 42116  1  0  0  0
 43 44  1  0  0  0
 44117  1  0  0  0
 45 46  2  0  0  0
 45118  1  0  0  0
 46119  1  0  0  0
 47120  1  0  0  0
 47121  1  0  0  0
 48 56  1  0  0  0
 48 65  1  0  0  0
 48122  1  0  0  0
 49 50  1  0  0  0
 49 53  1  0  0  0
 49 64  1  0  0  0
 49123  1  0  0  0
 50 51  1  0  0  0
 50124  1  0  0  0
 50125  1  0  0  0
 51 52  1  0  0  0
 51126  1  0  0  0
 51127  1  0  0  0
 52128  1  0  0  0
 52129  1  0  0  0
 53 54  1  0  0  0
 54 55  2  0  0  0
 54130  1  0  0  0
 55 57  1  0  0  0
 55131  1  0  0  0
 56 69  2  0  0  0
 57 58  2  0  0  0
 57132  1  0  0  0
 58133  1  0  0  0
 59 60  1  0  0  0
 59 61  1  0  0  0
 59 62  1  0  0  0
 60134  1  0  0  0
 60135  1  0  0  0
 60136  1  0  0  0
 61137  1  0  0  0
 61138  1  0  0  0
 61139  1  0  0  0
 62140  1  0  0  0
 62141  1  0  0  0
 62142  1  0  0  0
 63 65  1  0  0  0
 63143  1  0  0  0
 63144  1  0  0  0
 63145  1  0  0  0
 64146  1  0  0  0
 65147  1  0  0  0
 68 81  1  0  0  0
 71 85  2  0  0  0
 71 86  1  0  0  0
 71148  1  0  0  0
 72 73  2  0  0  0
 72 77  1  0  0  0
 72 85  1  0  0  0
 73 83  1  0  0  0
 73 86  1  0  0  0
 74149  1  0  0  0
 74150  1  0  0  0
 74151  1  0  0  0
 74 83  1  0  0  0
 75 83  1  0  0  0
 75152  1  0  0  0
 75153  1  0  0  0
 75154  1  0  0  0
 76155  1  0  0  0
 76156  1  0  0  0
 76157  1  0  0  0
 76 84  1  0  0  0
 77 78  1  0  0  0
 77158  1  0  0  0
 77159  1  0  0  0
 78 84  1  0  0  0
 78160  1  0  0  0
 78161  1  0  0  0
 79 80  1  0  0  0
 79 87  1  0  0  0
 79162  1  0  0  0
 79163  1  0  0  0
 80 88  1  0  0  0
 80164  1  0  0  0
 80165  1  0  0  0
 81 84  1  0  0  0
 81166  1  0  0  0
 81167  1  0  0  0
 82 86  1  0  0  0
 82 88  1  0  0  0
 82168  1  0  0  0
 82169  1  0  0  0
 83170  1  0  0  0
 84171  1  0  0  0
 87172  1  0  0  0
 88173  1  0  0  0
 88174  1  0  0  0
M  CHG  1  88   1
M  ISO  4   1 100  68 101  81 101  87 100
M  END
> <chiral flag>
0

> <version>
0

> <s_m_source_file>
/data/baiqing/PycharmProjects/Reinvent-master-3.2/result/LINK_invent/BTK/process_docking_weight1_custom_sum_contain_oxygen_bond_distance_aromatic_linkinvent_7_9_3/rearranged_h_0121.sdf

> <i_m_source_file_index>
29

> <r_mmod_Potential_Energy-OPLS-2005>
22820.431640625

> <r_mmod_Stretch_Energy-OPLS-2005>
13327.4052734375

> <r_mmod_Bend_Energy-OPLS-2005>
2430.197265625

> <r_mmod_Torsional_Energy-OPLS-2005>
541.069396972656

> <r_mmod_Improper_Torsional_Energy-OPLS-2005>
58.447826385498

> <r_mmod_Van_der_Waal_Energy-OPLS-2005>
4910.42724609375

> <r_mmod_Electrostatic_Energy-OPLS-2005>
-383.235504150391

> <r_mmod_Solvation_Energy-OPLS-2005>
-491.436340332031

> <b_mmod_Minimization_Converged-OPLS-2005>
0

> <r_mmod_RMS_Derivative-OPLS-2005>
59.0870780944824

$$$$
29
                    3D
 Structure written by MMmdl.
177186  0  0  1  0            999 V2000
  -30.7084  -14.4995   20.6038 C   0  0  0  0  0  0
  -30.4227  -12.3448   19.4163 C   0  0  0  0  0  0
  -29.4889  -12.5090   18.2003 C   0  0  0  0  0  0
  -28.0138  -12.3554   18.6192 C   0  0  0  0  0  0
  -27.6530  -13.2084   19.8644 C   0  0  2  0  0  0
  -28.6966  -13.0195   20.9854 C   0  0  0  0  0  0
  -25.2563  -13.8154   20.5687 C   0  0  0  0  0  0
  -24.1823  -13.0428   20.9183 C   0  0  0  0  0  0
  -24.6380  -11.6898   20.8735 C   0  0  0  0  0  0
  -23.9051  -10.4290   21.0410 C   0  0  0  0  0  0
  -24.3612   -9.4207   21.9187 C   0  0  0  0  0  0
  -23.6293   -8.2239   22.0754 C   0  0  0  0  0  0
  -22.4272   -8.0279   21.3542 C   0  0  0  0  0  0
  -21.9907   -9.0247   20.4641 C   0  0  0  0  0  0
  -22.7228  -10.2127   20.3053 C   0  0  0  0  0  0
  -21.6855   -6.0734   22.5281 C   0  0  0  0  0  0
  -21.4017   -6.5645   23.8213 C   0  0  0  0  0  0
  -21.3655   -5.6795   24.9175 C   0  0  0  0  0  0
  -21.6036   -4.3055   24.7225 C   0  0  0  0  0  0
  -21.8818   -3.8146   23.4350 C   0  0  0  0  0  0
  -21.9196   -4.6962   22.3407 C   0  0  0  0  0  0
  -22.7851  -13.5236   21.1847 C   0  0  0  0  0  0
  -22.1663   -4.2149   21.0983 F   0  0  0  0  0  0
  -21.5623   -3.4537   25.7737 F   0  0  0  0  0  0
  -30.0185  -13.3389   20.4222 N   0  0  0  0  0  0
  -26.2980  -12.9323   20.3316 N   0  0  0  0  0  0
  -25.9304  -11.6481   20.5751 N   0  0  0  0  0  0
  -22.0495  -12.8219   22.0398 N   0  0  0  0  0  0
  -25.4309  -15.1873   20.4089 N   0  0  0  0  0  0
  -31.8451  -14.6782   20.1637 O   0  0  0  0  0  0
  -21.6638   -6.8875   21.4244 O   0  0  0  0  0  0
  -22.3541  -14.5551   20.6715 O   0  0  0  0  0  0
  -24.6162  -31.8643   23.2089 C   0  0  0  0  0  0
  -25.9046  -32.4803   23.8382 C   0  0  1  0  0  0
  -27.2294  -27.4052   20.1083 C   0  0  0  0  0  0
  -25.5892  -33.8599   24.2318 N   0  0  0  0  0  0
  -23.4050  -30.4893   21.5482 C   0  0  2  0  0  0
  -24.8499  -28.9480   20.1158 C   0  0  0  0  0  0
  -22.7413  -29.4645   22.4974 C   0  0  0  0  0  0
  -18.0278  -28.1366   22.8493 C   0  0  0  0  0  0
  -24.1480  -36.7301   23.2642 C   0  0  0  0  0  0
  -25.9353  -30.8216   21.3658 C   0  0  0  0  0  0
  -26.0097  -29.4505   20.7195 C   0  0  0  0  0  0
  -27.1995  -28.6840   20.7185 C   0  0  0  0  0  0
  -26.0538  -26.9286   19.4860 C   0  0  0  0  0  0
  -24.8669  -27.6852   19.4985 C   0  0  0  0  0  0
  -23.6133  -29.8190   20.1630 C   0  0  0  0  0  0
  -25.4103  -36.3098   24.0340 C   0  0  1  0  0  0
  -20.5867  -28.3639   23.1308 C   0  0  2  0  0  0
  -20.6761  -26.9369   22.5421 C   0  0  0  0  0  0
  -19.5745  -26.6368   21.5213 C   0  0  0  0  0  0
  -18.1922  -26.7922   22.1608 C   0  0  0  0  0  0
  -19.1529  -28.8819   23.2896 C   0  0  0  0  0  0
  -18.9459  -30.1434   23.8887 C   0  0  0  0  0  0
  -17.6461  -30.6573   24.0565 C   0  0  0  0  0  0
  -25.9030  -34.9462   23.5128 C   0  0  0  0  0  0
  -16.5354  -29.9079   23.6326 C   0  0  0  0  0  0
  -16.7262  -28.6497   23.0342 C   0  0  0  0  0  0
  -26.4474  -31.6593   25.0717 C   0  0  0  0  0  0
  -25.3744  -31.3714   26.1478 C   0  0  0  0  0  0
  -27.0309  -30.3034   24.6105 C   0  0  0  0  0  0
  -27.6050  -32.4310   25.7480 C   0  0  0  0  0  0
  -27.5577  -37.1804   24.8469 C   0  0  0  0  0  0
  -21.4145  -29.3013   22.3721 N   0  0  0  0  0  0
  -26.4282  -37.3789   23.9427 N   0  0  0  0  0  0
  -24.6705  -31.0745   22.0987 N   0  0  0  0  0  0
  -23.4184  -28.8167   23.3006 O   0  0  0  0  0  0
  -28.4054  -26.6751   20.0722 O   0  0  0  0  0  0
  -26.5598  -34.8927   22.4694 O   0  0  0  0  0  0
  -23.5349  -32.1379   23.7497 O   0  0  0  0  0  0
  -27.7735  -23.0984   20.9662 C   0  0  0  0  0  0
  -27.6244  -24.5026   20.9750 C   0  0  0  0  0  0
  -28.7190  -22.4782   20.1094 C   0  0  0  0  0  0
  -29.5131  -23.3641   19.3192 C   0  0  0  0  0  0
  -28.4235  -25.2848   20.1217 C   0  0  0  0  0  0
  -32.2921  -17.9173   20.7536 C   0  0  0  0  0  0
  -33.4490  -17.3592   21.6077 C   0  0  0  0  0  0
  -31.8616  -16.0511   22.9800 C   0  0  0  0  0  0
  -30.6440  -16.5493   22.1486 C   0  0  1  0  0  0
  -30.9718  -17.9761   21.5574 C   0  0  2  0  0  0
  -31.9994  -23.4772   18.7699 C   0  0  0  0  0  0
  -27.3842  -20.3008   19.9926 C   0  0  0  0  0  0
  -31.0721  -20.9641   21.2183 C   0  0  0  0  0  0
  -30.6229  -22.9203   18.3671 C   0  0  0  0  0  0
  -28.7978  -20.9172   20.0199 C   0  0  2  0  0  0
  -29.7308  -20.2002   21.0745 C   0  0  1  0  0  0
  -29.3527  -24.7117   19.3326 N   0  0  0  0  0  0
  -30.0704  -15.4755   21.2886 N   0  0  0  0  0  0
  -33.1061  -16.0389   22.1770 N   0  3  0  0  0  0
  -29.8858  -18.7101   20.8225 N   0  3  0  0  0  0
  -31.4643  -12.4588   19.1107 H   0  0  0  0  0  0
  -30.3391  -11.3383   19.8306 H   0  0  0  0  0  0
  -29.7403  -11.7786   17.4298 H   0  0  0  0  0  0
  -29.6398  -13.4907   17.7494 H   0  0  0  0  0  0
  -27.8398  -11.3004   18.8348 H   0  0  0  0  0  0
  -27.3562  -12.6066   17.7860 H   0  0  0  0  0  0
  -27.6884  -14.2520   19.5509 H   0  0  0  0  0  0
  -28.6861  -11.9883   21.3419 H   0  0  0  0  0  0
  -28.4444  -13.6283   21.8552 H   0  0  0  0  0  0
  -25.2761   -9.5684   22.4757 H   0  0  0  0  0  0
  -24.0002   -7.4633   22.7468 H   0  0  0  0  0  0
  -21.0844   -8.8756   19.8948 H   0  0  0  0  0  0
  -22.3689  -10.9663   19.6156 H   0  0  0  0  0  0
  -21.2016   -7.6153   23.9716 H   0  0  0  0  0  0
  -21.1475   -6.0525   25.9074 H   0  0  0  0  0  0
  -22.0603   -2.7611   23.2848 H   0  0  0  0  0  0
  -22.4117  -11.9869   22.4766 H   0  0  0  0  0  0
  -21.1108  -13.1222   22.2600 H   0  0  0  0  0  0
  -24.6629  -15.8416   20.5101 H   0  0  0  0  0  0
  -26.2706  -15.6181   20.0457 H   0  0  0  0  0  0
  -26.7110  -32.5493   23.1130 H   0  0  0  0  0  0
  -25.0074  -33.9766   25.0488 H   0  0  0  0  0  0
  -22.6962  -31.3081   21.4067 H   0  0  0  0  0  0
  -23.3742  -35.9631   23.3297 H   0  0  0  0  0  0
  -24.3586  -36.8927   22.2063 H   0  0  0  0  0  0
  -23.7231  -37.6506   23.6653 H   0  0  0  0  0  0
  -26.0560  -31.5845   20.5942 H   0  0  0  0  0  0
  -26.8237  -30.8748   21.9844 H   0  0  0  0  0  0
  -28.0953  -29.0711   21.1838 H   0  0  0  0  0  0
  -26.0502  -25.9698   18.9874 H   0  0  0  0  0  0
  -23.9760  -27.2942   19.0254 H   0  0  0  0  0  0
  -23.7288  -30.5930   19.4034 H   0  0  0  0  0  0
  -22.7356  -29.2432   19.8593 H   0  0  0  0  0  0
  -25.1285  -36.1958   25.0832 H   0  0  0  0  0  0
  -20.9962  -28.3194   24.1426 H   0  0  0  0  0  0
  -20.5677  -26.2234   23.3602 H   0  0  0  0  0  0
  -21.6631  -26.7425   22.1210 H   0  0  0  0  0  0
  -19.6916  -25.6285   21.1219 H   0  0  0  0  0  0
  -19.6705  -27.3210   20.6774 H   0  0  0  0  0  0
  -17.4206  -26.6671   21.3999 H   0  0  0  0  0  0
  -18.0302  -26.0074   22.9005 H   0  0  0  0  0  0
  -19.7937  -30.7252   24.2250 H   0  0  0  0  0  0
  -17.5022  -31.6258   24.5156 H   0  0  0  0  0  0
  -15.5352  -30.2982   23.7674 H   0  0  0  0  0  0
  -15.8655  -28.0838   22.7042 H   0  0  0  0  0  0
  -24.5913  -30.7054   25.7836 H   0  0  0  0  0  0
  -24.8939  -32.2878   26.4907 H   0  0  0  0  0  0
  -25.8106  -30.8908   27.0240 H   0  0  0  0  0  0
  -26.2858  -29.6792   24.1153 H   0  0  0  0  0  0
  -27.4090  -29.7272   25.4560 H   0  0  0  0  0  0
  -27.8680  -30.4378   23.9250 H   0  0  0  0  0  0
  -27.2670  -33.3610   26.2067 H   0  0  0  0  0  0
  -28.3847  -32.6866   25.0290 H   0  0  0  0  0  0
  -28.0713  -31.8418   26.5397 H   0  0  0  0  0  0
  -28.2588  -38.0102   24.7514 H   0  0  0  0  0  0
  -28.1063  -36.2636   24.6265 H   0  0  0  0  0  0
  -27.2296  -37.1434   25.8868 H   0  0  0  0  0  0
  -20.9297  -29.8740   21.6957 H   0  0  0  0  0  0
  -26.0156  -38.2857   24.1437 H   0  0  0  0  0  0
  -27.1411  -22.5096   21.6135 H   0  0  0  0  0  0
  -26.8995  -24.9702   21.6267 H   0  0  0  0  0  0
  -32.1621  -17.3090   19.8589 H   0  0  0  0  0  0
  -32.5849  -18.9017   20.3972 H   0  0  0  0  0  0
  -33.6932  -18.0513   22.4160 H   0  0  0  0  0  0
  -34.3493  -17.2662   20.9997 H   0  0  0  0  0  0
  -31.6747  -15.0552   23.3826 H   0  0  0  0  0  0
  -32.0145  -16.6977   23.8460 H   0  0  0  0  0  0
  -29.8485  -16.7105   22.8785 H   0  0  0  0  0  0
  -31.1618  -18.5679   22.4537 H   0  0  0  0  0  0
  -32.7838  -23.1024   18.1122 H   0  0  0  0  0  0
  -32.2610  -23.1994   19.7898 H   0  0  0  0  0  0
  -32.0139  -24.5662   18.7175 H   0  0  0  0  0  0
  -26.7666  -20.7869   19.2354 H   0  0  0  0  0  0
  -26.8711  -20.3912   20.9493 H   0  0  0  0  0  0
  -27.4055  -19.2412   19.7385 H   0  0  0  0  0  0
  -30.9008  -22.0071   21.4821 H   0  0  0  0  0  0
  -31.6419  -20.9526   20.2908 H   0  0  0  0  0  0
  -31.7135  -20.5806   22.0102 H   0  0  0  0  0  0
  -30.3715  -23.2610   17.3613 H   0  0  0  0  0  0
  -30.7066  -21.8410   18.2883 H   0  0  0  0  0  0
  -29.1899  -20.6759   19.0362 H   0  0  0  0  0  0
  -29.2437  -20.2899   22.0472 H   0  0  0  0  0  0
  -29.1093  -15.2433   21.4974 H   0  0  0  0  0  0
  -33.8735  -15.7022   22.7391 H   0  0  0  0  0  0
  -32.9706  -15.3893   21.4055 H   0  0  0  0  0  0
  -29.0090  -18.2801   21.0746 H   0  0  0  0  0  0
  -30.0098  -18.5468   19.8366 H   0  0  0  0  0  0
  1 25  1  0  0  0
  1 30  2  0  0  0
  1 88  1  0  0  0
  2  3  1  0  0  0
  2 25  1  0  0  0
  2 91  1  0  0  0
  2 92  1  0  0  0
  3  4  1  0  0  0
  3 93  1  0  0  0
  3 94  1  0  0  0
  4  5  1  0  0  0
  4 95  1  0  0  0
  4 96  1  0  0  0
  5  6  1  0  0  0
  5 26  1  0  0  0
  5 97  1  0  0  0
  6 25  1  0  0  0
  6 98  1  0  0  0
  6 99  1  0  0  0
  7  8  2  0  0  0
  7 26  1  0  0  0
  7 29  1  0  0  0
  8  9  1  0  0  0
  8 22  1  0  0  0
  9 10  1  0  0  0
  9 27  2  0  0  0
 10 11  2  0  0  0
 10 15  1  0  0  0
 11 12  1  0  0  0
 11100  1  0  0  0
 12 13  2  0  0  0
 12101  1  0  0  0
 13 14  1  0  0  0
 13 31  1  0  0  0
 14 15  2  0  0  0
 14102  1  0  0  0
 15103  1  0  0  0
 16 17  2  0  0  0
 16 21  1  0  0  0
 16 31  1  0  0  0
 17 18  1  0  0  0
 17104  1  0  0  0
 18 19  2  0  0  0
 18105  1  0  0  0
 19 20  1  0  0  0
 19 24  1  0  0  0
 20 21  2  0  0  0
 20106  1  0  0  0
 21 23  1  0  0  0
 22 28  1  0  0  0
 22 32  2  0  0  0
 26 27  1  0  0  0
 28107  1  0  0  0
 28108  1  0  0  0
 29109  1  0  0  0
 29110  1  0  0  0
 33 34  1  0  0  0
 33 66  1  0  0  0
 33 70  2  0  0  0
 34 36  1  0  0  0
 34 59  1  0  0  0
 34111  1  0  0  0
 35 44  2  0  0  0
 35 45  1  0  0  0
 35 68  1  0  0  0
 36 56  1  0  0  0
 36112  1  0  0  0
 37 39  1  0  0  0
 37 47  1  0  0  0
 37 66  1  0  0  0
 37113  1  0  0  0
 38 43  2  0  0  0
 38 46  1  0  0  0
 38 47  1  0  0  0
 39 64  1  0  0  0
 39 67  2  0  0  0
 40 52  1  0  0  0
 40 53  2  0  0  0
 40 58  1  0  0  0
 41114  1  0  0  0
 41115  1  0  0  0
 41116  1  0  0  0
 41 48  1  0  0  0
 42 43  1  0  0  0
 42 66  1  0  0  0
 42117  1  0  0  0
 42118  1  0  0  0
 43 44  1  0  0  0
 44119  1  0  0  0
 45 46  2  0  0  0
 45120  1  0  0  0
 46121  1  0  0  0
 47122  1  0  0  0
 47123  1  0  0  0
 48 56  1  0  0  0
 48 65  1  0  0  0
 48124  1  0  0  0
 49 50  1  0  0  0
 49 53  1  0  0  0
 49 64  1  0  0  0
 49125  1  0  0  0
 50 51  1  0  0  0
 50126  1  0  0  0
 50127  1  0  0  0
 51 52  1  0  0  0
 51128  1  0  0  0
 51129  1  0  0  0
 52130  1  0  0  0
 52131  1  0  0  0
 53 54  1  0  0  0
 54 55  2  0  0  0
 54132  1  0  0  0
 55 57  1  0  0  0
 55133  1  0  0  0
 56 69  2  0  0  0
 57 58  2  0  0  0
 57134  1  0  0  0
 58135  1  0  0  0
 59 60  1  0  0  0
 59 61  1  0  0  0
 59 62  1  0  0  0
 60136  1  0  0  0
 60137  1  0  0  0
 60138  1  0  0  0
 61139  1  0  0  0
 61140  1  0  0  0
 61141  1  0  0  0
 62142  1  0  0  0
 62143  1  0  0  0
 62144  1  0  0  0
 63 65  1  0  0  0
 63145  1  0  0  0
 63146  1  0  0  0
 63147  1  0  0  0
 64148  1  0  0  0
 65149  1  0  0  0
 68 75  1  0  0  0
 71 72  2  0  0  0
 71 73  1  0  0  0
 71150  1  0  0  0
 72 75  1  0  0  0
 72151  1  0  0  0
 73 74  2  0  0  0
 73 85  1  0  0  0
 74 84  1  0  0  0
 74 87  1  0  0  0
 75 87  2  0  0  0
 76 77  1  0  0  0
 76 80  1  0  0  0
 76152  1  0  0  0
 76153  1  0  0  0
 77 89  1  0  0  0
 77154  1  0  0  0
 77155  1  0  0  0
 78 79  1  0  0  0
 78 89  1  0  0  0
 78156  1  0  0  0
 78157  1  0  0  0
 79 80  1  0  0  0
 79 88  1  0  0  0
 79158  1  0  0  0
 80 90  1  0  0  0
 80159  1  0  0  0
 81 84  1  0  0  0
 81160  1  0  0  0
 81161  1  0  0  0
 81162  1  0  0  0
 82163  1  0  0  0
 82164  1  0  0  0
 82165  1  0  0  0
 82 85  1  0  0  0
 83166  1  0  0  0
 83167  1  0  0  0
 83168  1  0  0  0
 83 86  1  0  0  0
 84169  1  0  0  0
 84170  1  0  0  0
 85 86  1  0  0  0
 85171  1  0  0  0
 86 90  1  0  0  0
 86172  1  0  0  0
 88173  1  0  0  0
 89174  1  0  0  0
 89175  1  0  0  0
 90176  1  0  0  0
 90177  1  0  0  0
M  CHG  2  89   1  90   1
M  ISO  4   1 100  68 101  75 101  88 100
M  END
> <chiral flag>
0

> <version>
0

> <s_m_source_file>
/data/baiqing/PycharmProjects/Reinvent-master-3.2/result/LINK_invent/BTK/process_docking_weight1_custom_sum_contain_oxygen_bond_distance_aromatic_linkinvent_7_9_3/rearranged_h_0121.sdf

> <i_m_source_file_index>
30

> <r_mmod_Potential_Energy-OPLS-2005>
-544.900268554688

> <r_mmod_Stretch_Energy-OPLS-2005>
56.1601715087891

> <r_mmod_Bend_Energy-OPLS-2005>
144.492431640625

> <r_mmod_Torsional_Energy-OPLS-2005>
316.369323730469

> <r_mmod_Improper_Torsional_Energy-OPLS-2005>
3.38777995109558

> <r_mmod_Van_der_Waal_Energy-OPLS-2005>
168.611328125

> <r_mmod_Electrostatic_Energy-OPLS-2005>
-257.431396484375

> <r_mmod_Solvation_Energy-OPLS-2005>
-993.391418457031

> <b_mmod_Minimization_Converged-OPLS-2005>
0

> <r_mmod_RMS_Derivative-OPLS-2005>
2.20560956001282

$$$$
30
                    3D
 Structure written by MMmdl.
159167  0  0  1  0            999 V2000
  -30.5965  -14.7985   20.4628 C   0  0  0  0  0  0
  -30.4384  -12.4903   19.4822 C   0  0  0  0  0  0
  -29.5159  -12.5095   18.2434 C   0  0  0  0  0  0
  -28.0428  -12.3229   18.6573 C   0  0  0  0  0  0
  -27.6393  -13.2364   19.8462 C   0  0  2  0  0  0
  -28.6843  -13.1934   20.9829 C   0  0  0  0  0  0
  -25.2493  -13.8217   20.5720 C   0  0  0  0  0  0
  -24.1784  -13.0436   20.9225 C   0  0  0  0  0  0
  -24.6394  -11.6922   20.8755 C   0  0  0  0  0  0
  -23.9077  -10.4284   21.0388 C   0  0  0  0  0  0
  -24.3620   -9.4194   21.9163 C   0  0  0  0  0  0
  -23.6294   -8.2232   22.0739 C   0  0  0  0  0  0
  -22.4274   -8.0267   21.3530 C   0  0  0  0  0  0
  -21.9911   -9.0244   20.4635 C   0  0  0  0  0  0
  -22.7247  -10.2124   20.3037 C   0  0  0  0  0  0
  -21.6844   -6.0726   22.5284 C   0  0  0  0  0  0
  -21.4008   -6.5632   23.8220 C   0  0  0  0  0  0
  -21.3660   -5.6784   24.9183 C   0  0  0  0  0  0
  -21.6054   -4.3052   24.7230 C   0  0  0  0  0  0
  -21.8812   -3.8138   23.4350 C   0  0  0  0  0  0
  -21.9189   -4.6959   22.3407 C   0  0  0  0  0  0
  -22.7801  -13.5208   21.1880 C   0  0  0  0  0  0
  -22.1647   -4.2146   21.0980 F   0  0  0  0  0  0
  -21.5638   -3.4529   25.7736 F   0  0  0  0  0  0
  -29.9788  -13.5637   20.3981 N   0  0  0  0  0  0
  -26.2923  -12.9430   20.3275 N   0  0  0  0  0  0
  -25.9326  -11.6574   20.5750 N   0  0  0  0  0  0
  -22.0439  -12.8202   22.0441 N   0  0  0  0  0  0
  -25.4170  -15.1943   20.4153 N   0  0  0  0  0  0
  -31.7868  -14.8934   20.1500 O   0  0  0  0  0  0
  -21.6630   -6.8870   21.4242 O   0  0  0  0  0  0
  -22.3484  -14.5509   20.6732 O   0  0  0  0  0  0
  -24.6372  -31.8507   23.1956 C   0  0  0  0  0  0
  -25.9174  -32.4734   23.8317 C   0  0  1  0  0  0
  -27.2187  -27.2149   20.1372 C   0  0  0  0  0  0
  -25.5947  -33.8539   24.2247 N   0  0  0  0  0  0
  -23.4384  -30.4719   21.5397 C   0  0  2  0  0  0
  -24.8894  -28.9154   20.1052 C   0  0  0  0  0  0
  -22.7550  -29.4580   22.4897 C   0  0  0  0  0  0
  -18.0313  -28.1387   22.8473 C   0  0  0  0  0  0
  -24.1487  -36.7270   23.2638 C   0  0  0  0  0  0
  -25.9893  -30.7472   21.3855 C   0  0  0  0  0  0
  -26.0628  -29.3666   20.7255 C   0  0  0  0  0  0
  -27.2328  -28.5296   20.7294 C   0  0  0  0  0  0
  -26.0320  -26.8579   19.4604 C   0  0  0  0  0  0
  -24.8823  -27.6712   19.4575 C   0  0  0  0  0  0
  -23.6615  -29.8073   20.1556 C   0  0  0  0  0  0
  -25.4117  -36.3063   24.0329 C   0  0  1  0  0  0
  -20.5921  -28.3705   23.1241 C   0  0  2  0  0  0
  -20.6817  -26.9422   22.5373 C   0  0  0  0  0  0
  -19.5783  -26.6389   21.5191 C   0  0  0  0  0  0
  -18.1965  -26.7931   22.1611 C   0  0  0  0  0  0
  -19.1566  -28.8866   23.2852 C   0  0  0  0  0  0
  -18.9484  -30.1461   23.8882 C   0  0  0  0  0  0
  -17.6477  -30.6581   24.0564 C   0  0  0  0  0  0
  -25.9061  -34.9431   23.5096 C   0  0  0  0  0  0
  -16.5371  -29.9079   23.6329 C   0  0  0  0  0  0
  -16.7298  -28.6500   23.0346 C   0  0  0  0  0  0
  -26.4520  -31.6570   25.0721 C   0  0  0  0  0  0
  -25.3721  -31.3729   26.1423 C   0  0  0  0  0  0
  -27.0375  -30.2978   24.6245 C   0  0  0  0  0  0
  -27.6077  -32.4313   25.7494 C   0  0  0  0  0  0
  -27.5586  -37.1791   24.8462 C   0  0  0  0  0  0
  -21.4245  -29.3051   22.3632 N   0  0  0  0  0  0
  -26.4288  -37.3767   23.9416 N   0  0  0  0  0  0
  -24.7077  -31.0415   22.0965 N   0  0  0  0  0  0
  -23.4221  -28.8121   23.3015 O   0  0  0  0  0  0
  -28.2545  -26.2337   20.2081 O   0  0  0  0  0  0
  -26.5630  -34.8914   22.4661 O   0  0  0  0  0  0
  -23.5502  -32.1358   23.7208 O   0  0  0  0  0  0
  -29.6044  -22.6903   21.4600 C   0  0  0  0  0  0
  -29.5323  -21.1006   21.6067 C   0  0  0  0  0  0
  -28.3911  -22.5168   19.3254 C   0  0  0  0  0  0
  -28.3961  -23.3168   20.6755 C   0  0  2  0  0  0
  -29.3775  -20.2597   20.2834 C   0  0  1  0  0  0
  -27.9619  -25.2380   22.3615 C   0  0  0  0  0  0
  -29.0920  -18.6251   20.4200 C   0  0  0  0  0  0
  -30.2139  -17.4484   20.6667 C   0  0  0  0  0  0
  -27.8893  -24.9030   20.8604 C   0  0  2  0  0  0
  -29.8251  -15.9449   20.6804 N   0  0  0  0  0  0
  -28.3176  -20.9969   19.4863 N   0  3  0  0  0  0
  -31.4766  -12.6262   19.1753 H   0  0  0  0  0  0
  -30.4003  -11.5216   19.9832 H   0  0  0  0  0  0
  -29.8100  -11.7287   17.5412 H   0  0  0  0  0  0
  -29.6342  -13.4570   17.7142 H   0  0  0  0  0  0
  -27.9119  -11.2772   18.9397 H   0  0  0  0  0  0
  -27.3861  -12.4907   17.8034 H   0  0  0  0  0  0
  -27.6253  -14.2514   19.4490 H   0  0  0  0  0  0
  -28.7343  -12.1989   21.4304 H   0  0  0  0  0  0
  -28.4100  -13.8775   21.7870 H   0  0  0  0  0  0
  -25.2747   -9.5679   22.4763 H   0  0  0  0  0  0
  -23.9998   -7.4630   22.7472 H   0  0  0  0  0  0
  -21.0831   -8.8760   19.8960 H   0  0  0  0  0  0
  -22.3680  -10.9663   19.6160 H   0  0  0  0  0  0
  -21.1983   -7.6135   23.9719 H   0  0  0  0  0  0
  -21.1499   -6.0509   25.9092 H   0  0  0  0  0  0
  -22.0595   -2.7601   23.2850 H   0  0  0  0  0  0
  -22.4046  -11.9874   22.4850 H   0  0  0  0  0  0
  -21.1057  -13.1240   22.2635 H   0  0  0  0  0  0
  -24.6470  -15.8453   20.5278 H   0  0  0  0  0  0
  -26.2594  -15.6385   20.0726 H   0  0  0  0  0  0
  -26.7253  -32.5368   23.1059 H   0  0  0  0  0  0
  -25.0106  -33.9673   25.0403 H   0  0  0  0  0  0
  -22.7367  -31.2952   21.3905 H   0  0  0  0  0  0
  -23.3759  -35.9589   23.3283 H   0  0  0  0  0  0
  -24.3577  -36.8902   22.2054 H   0  0  0  0  0  0
  -23.7225  -37.6459   23.6668 H   0  0  0  0  0  0
  -26.1350  -31.5051   20.6143 H   0  0  0  0  0  0
  -26.8637  -30.7938   22.0228 H   0  0  0  0  0  0
  -28.1247  -28.8628   21.2404 H   0  0  0  0  0  0
  -25.9762  -25.9071   18.9496 H   0  0  0  0  0  0
  -23.9900  -27.3265   18.9532 H   0  0  0  0  0  0
  -23.7919  -30.5843   19.4017 H   0  0  0  0  0  0
  -22.7791  -29.2434   19.8497 H   0  0  0  0  0  0
  -25.1299  -36.1914   25.0822 H   0  0  0  0  0  0
  -21.0006  -28.3277   24.1363 H   0  0  0  0  0  0
  -20.5741  -26.2298   23.3565 H   0  0  0  0  0  0
  -21.6686  -26.7465   22.1158 H   0  0  0  0  0  0
  -19.6938  -25.6300   21.1221 H   0  0  0  0  0  0
  -19.6693  -27.3203   20.6725 H   0  0  0  0  0  0
  -17.4237  -26.6684   21.4014 H   0  0  0  0  0  0
  -18.0366  -26.0070   22.9009 H   0  0  0  0  0  0
  -19.7961  -30.7271   24.2253 H   0  0  0  0  0  0
  -17.5027  -31.6253   24.5178 H   0  0  0  0  0  0
  -15.5371  -30.2970   23.7668 H   0  0  0  0  0  0
  -15.8700  -28.0820   22.7064 H   0  0  0  0  0  0
  -24.5927  -30.7048   25.7745 H   0  0  0  0  0  0
  -24.8871  -32.2889   26.4804 H   0  0  0  0  0  0
  -25.8016  -30.8942   27.0231 H   0  0  0  0  0  0
  -26.2980  -29.6705   24.1253 H   0  0  0  0  0  0
  -27.4017  -29.7266   25.4795 H   0  0  0  0  0  0
  -27.8872  -30.4235   23.9533 H   0  0  0  0  0  0
  -27.2710  -33.3638   26.2036 H   0  0  0  0  0  0
  -28.3900  -32.6829   25.0322 H   0  0  0  0  0  0
  -28.0725  -31.8449   26.5427 H   0  0  0  0  0  0
  -28.2592  -38.0104   24.7542 H   0  0  0  0  0  0
  -28.1101  -36.2637   24.6254 H   0  0  0  0  0  0
  -27.2305  -37.1394   25.8865 H   0  0  0  0  0  0
  -20.9441  -29.8788   21.6841 H   0  0  0  0  0  0
  -26.0161  -38.2835   24.1430 H   0  0  0  0  0  0
  -30.5389  -22.9706   20.9717 H   0  0  0  0  0  0
  -29.6601  -23.1142   22.4615 H   0  0  0  0  0  0
  -28.6895  -20.8660   22.2584 H   0  0  0  0  0  0
  -30.4117  -20.7486   22.1466 H   0  0  0  0  0  0
  -29.2850  -22.7657   18.7506 H   0  0  0  0  0  0
  -27.5424  -22.8342   18.7188 H   0  0  0  0  0  0
  -27.5592  -22.8423   21.1913 H   0  0  0  0  0  0
  -30.3006  -20.3741   19.7134 H   0  0  0  0  0  0
  -28.9948  -25.4034   22.6693 H   0  0  0  0  0  0
  -27.5536  -24.4327   22.9732 H   0  0  0  0  0  0
  -27.3996  -26.1379   22.6127 H   0  0  0  0  0  0
  -28.6061  -18.3363   19.4877 H   0  0  0  0  0  0
  -28.3173  -18.4951   21.1766 H   0  0  0  0  0  0
  -31.0052  -17.5733   19.9273 H   0  0  0  0  0  0
  -30.6996  -17.6494   21.6225 H   0  0  0  0  0  0
  -26.8270  -24.7840   20.6557 H   0  0  0  0  0  0
  -28.8569  -15.7491   20.8885 H   0  0  0  0  0  0
  -28.3006  -20.6054   18.5577 H   0  0  0  0  0  0
  -27.4221  -20.7875   19.8947 H   0  0  0  0  0  0
  1 25  1  0  0  0
  1 30  2  0  0  0
  1 80  1  0  0  0
  2  3  1  0  0  0
  2 25  1  0  0  0
  2 82  1  0  0  0
  2 83  1  0  0  0
  3  4  1  0  0  0
  3 84  1  0  0  0
  3 85  1  0  0  0
  4  5  1  0  0  0
  4 86  1  0  0  0
  4 87  1  0  0  0
  5  6  1  0  0  0
  5 26  1  0  0  0
  5 88  1  0  0  0
  6 25  1  0  0  0
  6 89  1  0  0  0
  6 90  1  0  0  0
  7  8  2  0  0  0
  7 26  1  0  0  0
  7 29  1  0  0  0
  8  9  1  0  0  0
  8 22  1  0  0  0
  9 10  1  0  0  0
  9 27  2  0  0  0
 10 11  2  0  0  0
 10 15  1  0  0  0
 11 12  1  0  0  0
 11 91  1  0  0  0
 12 13  2  0  0  0
 12 92  1  0  0  0
 13 14  1  0  0  0
 13 31  1  0  0  0
 14 15  2  0  0  0
 14 93  1  0  0  0
 15 94  1  0  0  0
 16 17  2  0  0  0
 16 21  1  0  0  0
 16 31  1  0  0  0
 17 18  1  0  0  0
 17 95  1  0  0  0
 18 19  2  0  0  0
 18 96  1  0  0  0
 19 20  1  0  0  0
 19 24  1  0  0  0
 20 21  2  0  0  0
 20 97  1  0  0  0
 21 23  1  0  0  0
 22 28  1  0  0  0
 22 32  2  0  0  0
 26 27  1  0  0  0
 28 98  1  0  0  0
 28 99  1  0  0  0
 29100  1  0  0  0
 29101  1  0  0  0
 33 34  1  0  0  0
 33 66  1  0  0  0
 33 70  2  0  0  0
 34 36  1  0  0  0
 34 59  1  0  0  0
 34102  1  0  0  0
 35 44  2  0  0  0
 35 45  1  0  0  0
 35 68  1  0  0  0
 36 56  1  0  0  0
 36103  1  0  0  0
 37 39  1  0  0  0
 37 47  1  0  0  0
 37 66  1  0  0  0
 37104  1  0  0  0
 38 43  2  0  0  0
 38 46  1  0  0  0
 38 47  1  0  0  0
 39 64  1  0  0  0
 39 67  2  0  0  0
 40 52  1  0  0  0
 40 53  2  0  0  0
 40 58  1  0  0  0
 41105  1  0  0  0
 41106  1  0  0  0
 41107  1  0  0  0
 41 48  1  0  0  0
 42 43  1  0  0  0
 42 66  1  0  0  0
 42108  1  0  0  0
 42109  1  0  0  0
 43 44  1  0  0  0
 44110  1  0  0  0
 45 46  2  0  0  0
 45111  1  0  0  0
 46112  1  0  0  0
 47113  1  0  0  0
 47114  1  0  0  0
 48 56  1  0  0  0
 48 65  1  0  0  0
 48115  1  0  0  0
 49 50  1  0  0  0
 49 53  1  0  0  0
 49 64  1  0  0  0
 49116  1  0  0  0
 50 51  1  0  0  0
 50117  1  0  0  0
 50118  1  0  0  0
 51 52  1  0  0  0
 51119  1  0  0  0
 51120  1  0  0  0
 52121  1  0  0  0
 52122  1  0  0  0
 53 54  1  0  0  0
 54 55  2  0  0  0
 54123  1  0  0  0
 55 57  1  0  0  0
 55124  1  0  0  0
 56 69  2  0  0  0
 57 58  2  0  0  0
 57125  1  0  0  0
 58126  1  0  0  0
 59 60  1  0  0  0
 59 61  1  0  0  0
 59 62  1  0  0  0
 60127  1  0  0  0
 60128  1  0  0  0
 60129  1  0  0  0
 61130  1  0  0  0
 61131  1  0  0  0
 61132  1  0  0  0
 62133  1  0  0  0
 62134  1  0  0  0
 62135  1  0  0  0
 63 65  1  0  0  0
 63136  1  0  0  0
 63137  1  0  0  0
 63138  1  0  0  0
 64139  1  0  0  0
 65140  1  0  0  0
 68 79  1  0  0  0
 71 72  1  0  0  0
 71141  1  0  0  0
 71142  1  0  0  0
 71 74  1  0  0  0
 72 75  1  0  0  0
 72143  1  0  0  0
 72144  1  0  0  0
 73 74  1  0  0  0
 73 81  1  0  0  0
 73145  1  0  0  0
 73146  1  0  0  0
 74 79  1  0  0  0
 74147  1  0  0  0
 75 77  1  0  0  0
 75 81  1  0  0  0
 75148  1  0  0  0
 76149  1  0  0  0
 76150  1  0  0  0
 76151  1  0  0  0
 76 79  1  0  0  0
 77 78  1  0  0  0
 77152  1  0  0  0
 77153  1  0  0  0
 78 80  1  0  0  0
 78154  1  0  0  0
 78155  1  0  0  0
 79156  1  0  0  0
 80157  1  0  0  0
 81158  1  0  0  0
 81159  1  0  0  0
M  CHG  1  81   1
M  ISO  4   1 100  68 101  79 101  80 100
M  END
> <chiral flag>
0

> <version>
0

> <s_m_source_file>
/data/baiqing/PycharmProjects/Reinvent-master-3.2/result/LINK_invent/BTK/process_docking_weight1_custom_sum_contain_oxygen_bond_distance_aromatic_linkinvent_7_9_3/rearranged_h_0121.sdf

> <i_m_source_file_index>
31

> <r_mmod_Potential_Energy-OPLS-2005>
217.986419677734

> <r_mmod_Stretch_Energy-OPLS-2005>
171.406433105469

> <r_mmod_Bend_Energy-OPLS-2005>
257.760803222656

> <r_mmod_Torsional_Energy-OPLS-2005>
267.280944824219

> <r_mmod_Improper_Torsional_Energy-OPLS-2005>
4.30880975723267

> <r_mmod_Van_der_Waal_Energy-OPLS-2005>
123.251235961914

> <r_mmod_Electrostatic_Energy-OPLS-2005>
-246.236083984375

> <r_mmod_Solvation_Energy-OPLS-2005>
-480.109893798828

> <b_mmod_Minimization_Converged-OPLS-2005>
0

> <r_mmod_RMS_Derivative-OPLS-2005>
1.98643529415131

$$$$
31
                    3D
 Structure written by MMmdl.
170179  0  0  1  0            999 V2000
  -30.7787  -14.3774   20.6599 C   0  0  0  0  0  0
  -30.4115  -12.2895   19.4027 C   0  0  0  0  0  0
  -29.4832  -12.5203   18.1959 C   0  0  0  0  0  0
  -28.0079  -12.3802   18.6123 C   0  0  0  0  0  0
  -27.6653  -13.2075   19.8790 C   0  0  2  0  0  0
  -28.7057  -12.9704   20.9979 C   0  0  0  0  0  0
  -25.2601  -13.8160   20.5684 C   0  0  0  0  0  0
  -24.1849  -13.0436   20.9171 C   0  0  0  0  0  0
  -24.6401  -11.6901   20.8729 C   0  0  0  0  0  0
  -23.9067  -10.4288   21.0399 C   0  0  0  0  0  0
  -24.3618   -9.4205   21.9180 C   0  0  0  0  0  0
  -23.6289   -8.2243   22.0754 C   0  0  0  0  0  0
  -22.4272   -8.0281   21.3543 C   0  0  0  0  0  0
  -21.9908   -9.0256   20.4646 C   0  0  0  0  0  0
  -22.7239  -10.2133   20.3050 C   0  0  0  0  0  0
  -21.6853   -6.0735   22.5277 C   0  0  0  0  0  0
  -21.4016   -6.5640   23.8210 C   0  0  0  0  0  0
  -21.3657   -5.6793   24.9172 C   0  0  0  0  0  0
  -21.6043   -4.3054   24.7226 C   0  0  0  0  0  0
  -21.8820   -3.8147   23.4345 C   0  0  0  0  0  0
  -21.9194   -4.6964   22.3401 C   0  0  0  0  0  0
  -22.7868  -13.5234   21.1829 C   0  0  0  0  0  0
  -22.1661   -4.2149   21.0979 F   0  0  0  0  0  0
  -21.5627   -3.4537   25.7739 F   0  0  0  0  0  0
  -30.0481  -13.2501   20.4562 N   0  0  0  0  0  0
  -26.3045  -12.9335   20.3383 N   0  0  0  0  0  0
  -25.9330  -11.6491   20.5771 N   0  0  0  0  0  0
  -22.0504  -12.8229   22.0385 N   0  0  0  0  0  0
  -25.4339  -15.1875   20.4089 N   0  0  0  0  0  0
  -31.8079  -14.6367   20.0306 O   0  0  0  0  0  0
  -21.6636   -6.8878   21.4238 O   0  0  0  0  0  0
  -22.3555  -14.5542   20.6681 O   0  0  0  0  0  0
  -24.6143  -31.8696   23.2133 C   0  0  0  0  0  0
  -25.9044  -32.4828   23.8414 C   0  0  1  0  0  0
  -27.2285  -27.4429   20.0897 C   0  0  0  0  0  0
  -25.5913  -33.8626   24.2341 N   0  0  0  0  0  0
  -23.4018  -30.4966   21.5534 C   0  0  2  0  0  0
  -24.8467  -28.9734   20.1085 C   0  0  0  0  0  0
  -22.7413  -29.4670   22.4983 C   0  0  0  0  0  0
  -18.0275  -28.1380   22.8489 C   0  0  0  0  0  0
  -24.1491  -36.7319   23.2637 C   0  0  0  0  0  0
  -25.9318  -30.8387   21.3663 C   0  0  0  0  0  0
  -26.0084  -29.4773   20.7068 C   0  0  0  0  0  0
  -27.2031  -28.7200   20.6946 C   0  0  0  0  0  0
  -26.0491  -26.9686   19.4630 C   0  0  0  0  0  0
  -24.8618  -27.7183   19.4824 C   0  0  0  0  0  0
  -23.6082  -29.8374   20.1648 C   0  0  0  0  0  0
  -25.4109  -36.3113   24.0340 C   0  0  1  0  0  0
  -20.5868  -28.3666   23.1315 C   0  0  2  0  0  0
  -20.6773  -26.9403   22.5414 C   0  0  0  0  0  0
  -19.5750  -26.6389   21.5213 C   0  0  0  0  0  0
  -18.1923  -26.7928   22.1623 C   0  0  0  0  0  0
  -19.1527  -28.8838   23.2897 C   0  0  0  0  0  0
  -18.9457  -30.1445   23.8906 C   0  0  0  0  0  0
  -17.6460  -30.6584   24.0566 C   0  0  0  0  0  0
  -25.9038  -34.9477   23.5133 C   0  0  0  0  0  0
  -16.5349  -29.9086   23.6328 C   0  0  0  0  0  0
  -16.7266  -28.6509   23.0339 C   0  0  0  0  0  0
  -26.4476  -31.6599   25.0733 C   0  0  0  0  0  0
  -25.3749  -31.3701   26.1486 C   0  0  0  0  0  0
  -27.0303  -30.3045   24.6095 C   0  0  0  0  0  0
  -27.6053  -32.4315   25.7495 C   0  0  0  0  0  0
  -27.5581  -37.1813   24.8464 C   0  0  0  0  0  0
  -21.4141  -29.3036   22.3721 N   0  0  0  0  0  0
  -26.4295  -37.3795   23.9406 N   0  0  0  0  0  0
  -24.6675  -31.0813   22.1028 N   0  0  0  0  0  0
  -23.4190  -28.8197   23.3010 O   0  0  0  0  0  0
  -28.3795  -26.6767   20.1428 O   0  0  0  0  0  0
  -26.5590  -34.8924   22.4687 O   0  0  0  0  0  0
  -23.5338  -32.1442   23.7538 O   0  0  0  0  0  0
  -27.7626  -20.1859   21.2910 C   0  0  0  0  0  0
  -27.9375  -23.3552   22.8194 C   0  0  0  0  0  0
  -28.4680  -21.0171   23.5939 C   0  0  0  0  0  0
  -29.6087  -21.9077   21.5520 C   0  0  0  0  0  0
  -26.1593  -21.4773   22.7270 C   0  0  0  0  0  0
  -27.3691  -22.0779   23.4757 C   0  0  2  0  0  0
  -28.6240  -23.1089   21.4531 C   0  0  2  0  0  0
  -28.9617  -20.6261   22.1794 C   0  0  2  0  0  0
  -29.2338  -24.4219   20.8897 C   0  0  0  0  0  0
  -30.0174  -19.4775   22.2965 C   0  0  0  0  0  0
  -31.0909  -16.4017   22.0270 C   0  0  0  0  0  0
  -30.4471  -17.1650   23.2015 C   0  0  0  0  0  0
  -28.1521  -25.2589   20.1720 C   0  0  0  0  0  0
  -26.5329  -20.6328   21.5876 N   0  0  0  0  0  0
  -30.3427  -15.2067   21.6176 N   0  0  0  0  0  0
  -29.4573  -18.1811   22.7760 N   0  3  0  0  0  0
  -27.9443  -19.4375   20.3319 O   0  0  0  0  0  0
  -31.4558  -12.3766   19.0966 H   0  0  0  0  0  0
  -30.3010  -11.2714   19.7792 H   0  0  0  0  0  0
  -29.7150  -11.8099   17.4014 H   0  0  0  0  0  0
  -29.6568  -13.5139   17.7796 H   0  0  0  0  0  0
  -27.8124  -11.3228   18.7950 H   0  0  0  0  0  0
  -27.3563  -12.6706   17.7875 H   0  0  0  0  0  0
  -27.7177  -14.2592   19.5967 H   0  0  0  0  0  0
  -28.6660  -11.9336   21.3357 H   0  0  0  0  0  0
  -28.4599  -13.5703   21.8740 H   0  0  0  0  0  0
  -25.2766   -9.5678   22.4751 H   0  0  0  0  0  0
  -23.9999   -7.4635   22.7471 H   0  0  0  0  0  0
  -21.0841   -8.8775   19.8952 H   0  0  0  0  0  0
  -22.3700  -10.9671   19.6157 H   0  0  0  0  0  0
  -21.2009   -7.6147   23.9715 H   0  0  0  0  0  0
  -21.1477   -6.0521   25.9076 H   0  0  0  0  0  0
  -22.0601   -2.7608   23.2846 H   0  0  0  0  0  0
  -22.4115  -11.9892   22.4779 H   0  0  0  0  0  0
  -21.1120  -13.1257   22.2578 H   0  0  0  0  0  0
  -24.6670  -15.8444   20.5044 H   0  0  0  0  0  0
  -26.2860  -15.6198   20.0745 H   0  0  0  0  0  0
  -26.7114  -32.5544   23.1179 H   0  0  0  0  0  0
  -25.0082  -33.9791   25.0500 H   0  0  0  0  0  0
  -22.6896  -31.3133   21.4181 H   0  0  0  0  0  0
  -23.3746  -35.9659   23.3312 H   0  0  0  0  0  0
  -24.3589  -36.8923   22.2049 H   0  0  0  0  0  0
  -23.7248  -37.6532   23.6643 H   0  0  0  0  0  0
  -26.0458  -31.6099   20.6028 H   0  0  0  0  0  0
  -26.8193  -30.8862   21.9859 H   0  0  0  0  0  0
  -28.0955  -29.0997   21.1720 H   0  0  0  0  0  0
  -26.0233  -26.0135   18.9584 H   0  0  0  0  0  0
  -23.9722  -27.3285   19.0069 H   0  0  0  0  0  0
  -23.7141  -30.6166   19.4090 H   0  0  0  0  0  0
  -22.7318  -29.2588   19.8673 H   0  0  0  0  0  0
  -25.1279  -36.1989   25.0835 H   0  0  0  0  0  0
  -20.9956  -28.3238   24.1439 H   0  0  0  0  0  0
  -20.5698  -26.2269   23.3599 H   0  0  0  0  0  0
  -21.6639  -26.7465   22.1191 H   0  0  0  0  0  0
  -19.6921  -25.6306   21.1231 H   0  0  0  0  0  0
  -19.6697  -27.3208   20.6750 H   0  0  0  0  0  0
  -17.4198  -26.6679   21.4018 H   0  0  0  0  0  0
  -18.0321  -26.0069   22.9019 H   0  0  0  0  0  0
  -19.7936  -30.7253   24.2281 H   0  0  0  0  0  0
  -17.5019  -31.6267   24.5161 H   0  0  0  0  0  0
  -15.5351  -30.2986   23.7656 H   0  0  0  0  0  0
  -15.8668  -28.0835   22.7033 H   0  0  0  0  0  0
  -24.5927  -30.7039   25.7836 H   0  0  0  0  0  0
  -24.8930  -32.2852   26.4941 H   0  0  0  0  0  0
  -25.8112  -30.8879   27.0240 H   0  0  0  0  0  0
  -26.2843  -29.6810   24.1154 H   0  0  0  0  0  0
  -27.4085  -29.7279   25.4546 H   0  0  0  0  0  0
  -27.8675  -30.4370   23.9235 H   0  0  0  0  0  0
  -27.2674  -33.3603   26.2103 H   0  0  0  0  0  0
  -28.3849  -32.6891   25.0315 H   0  0  0  0  0  0
  -28.0734  -31.8419   26.5391 H   0  0  0  0  0  0
  -28.2598  -38.0108   24.7504 H   0  0  0  0  0  0
  -28.1075  -36.2638   24.6296 H   0  0  0  0  0  0
  -27.2297  -37.1466   25.8867 H   0  0  0  0  0  0
  -20.9297  -29.8767   21.6955 H   0  0  0  0  0  0
  -26.0192  -38.2879   24.1403 H   0  0  0  0  0  0
  -28.6631  -23.7964   23.5045 H   0  0  0  0  0  0
  -27.1418  -24.0944   22.7232 H   0  0  0  0  0  0
  -28.0766  -20.1518   24.1306 H   0  0  0  0  0  0
  -29.2921  -21.4011   24.1981 H   0  0  0  0  0  0
  -30.4754  -22.2053   22.1440 H   0  0  0  0  0  0
  -29.9967  -21.6757   20.5584 H   0  0  0  0  0  0
  -25.4794  -22.2636   22.3964 H   0  0  0  0  0  0
  -25.5864  -20.8544   23.4153 H   0  0  0  0  0  0
  -27.0350  -22.3496   24.4788 H   0  0  0  0  0  0
  -27.8544  -22.8187   20.7378 H   0  0  0  0  0  0
  -30.0376  -24.2057   20.1853 H   0  0  0  0  0  0
  -29.6872  -24.9975   21.6973 H   0  0  0  0  0  0
  -30.8086  -19.7964   22.9766 H   0  0  0  0  0  0
  -30.5014  -19.3174   21.3319 H   0  0  0  0  0  0
  -32.0817  -16.0713   22.3456 H   0  0  0  0  0  0
  -31.2601  -17.0577   21.1713 H   0  0  0  0  0  0
  -31.2238  -17.6550   23.7912 H   0  0  0  0  0  0
  -29.9674  -16.4604   23.8823 H   0  0  0  0  0  0
  -28.0274  -24.8889   19.1533 H   0  0  0  0  0  0
  -27.2111  -25.0646   20.6884 H   0  0  0  0  0  0
  -25.7795  -20.3377   20.9807 H   0  0  0  0  0  0
  -29.5167  -14.9340   22.1296 H   0  0  0  0  0  0
  -28.8581  -17.7838   22.0689 H   0  0  0  0  0  0
  -28.8888  -18.3734   23.5855 H   0  0  0  0  0  0
  1 25  1  0  0  0
  1 30  2  0  0  0
  1 85  1  0  0  0
  2  3  1  0  0  0
  2 25  1  0  0  0
  2 88  1  0  0  0
  2 89  1  0  0  0
  3  4  1  0  0  0
  3 90  1  0  0  0
  3 91  1  0  0  0
  4  5  1  0  0  0
  4 92  1  0  0  0
  4 93  1  0  0  0
  5  6  1  0  0  0
  5 26  1  0  0  0
  5 94  1  0  0  0
  6 25  1  0  0  0
  6 95  1  0  0  0
  6 96  1  0  0  0
  7  8  2  0  0  0
  7 26  1  0  0  0
  7 29  1  0  0  0
  8  9  1  0  0  0
  8 22  1  0  0  0
  9 10  1  0  0  0
  9 27  2  0  0  0
 10 11  2  0  0  0
 10 15  1  0  0  0
 11 12  1  0  0  0
 11 97  1  0  0  0
 12 13  2  0  0  0
 12 98  1  0  0  0
 13 14  1  0  0  0
 13 31  1  0  0  0
 14 15  2  0  0  0
 14 99  1  0  0  0
 15100  1  0  0  0
 16 17  2  0  0  0
 16 21  1  0  0  0
 16 31  1  0  0  0
 17 18  1  0  0  0
 17101  1  0  0  0
 18 19  2  0  0  0
 18102  1  0  0  0
 19 20  1  0  0  0
 19 24  1  0  0  0
 20 21  2  0  0  0
 20103  1  0  0  0
 21 23  1  0  0  0
 22 28  1  0  0  0
 22 32  2  0  0  0
 26 27  1  0  0  0
 28104  1  0  0  0
 28105  1  0  0  0
 29106  1  0  0  0
 29107  1  0  0  0
 33 34  1  0  0  0
 33 66  1  0  0  0
 33 70  2  0  0  0
 34 36  1  0  0  0
 34 59  1  0  0  0
 34108  1  0  0  0
 35 44  2  0  0  0
 35 45  1  0  0  0
 35 68  1  0  0  0
 36 56  1  0  0  0
 36109  1  0  0  0
 37 39  1  0  0  0
 37 47  1  0  0  0
 37 66  1  0  0  0
 37110  1  0  0  0
 38 43  2  0  0  0
 38 46  1  0  0  0
 38 47  1  0  0  0
 39 64  1  0  0  0
 39 67  2  0  0  0
 40 52  1  0  0  0
 40 53  2  0  0  0
 40 58  1  0  0  0
 41111  1  0  0  0
 41112  1  0  0  0
 41113  1  0  0  0
 41 48  1  0  0  0
 42 43  1  0  0  0
 42 66  1  0  0  0
 42114  1  0  0  0
 42115  1  0  0  0
 43 44  1  0  0  0
 44116  1  0  0  0
 45 46  2  0  0  0
 45117  1  0  0  0
 46118  1  0  0  0
 47119  1  0  0  0
 47120  1  0  0  0
 48 56  1  0  0  0
 48 65  1  0  0  0
 48121  1  0  0  0
 49 50  1  0  0  0
 49 53  1  0  0  0
 49 64  1  0  0  0
 49122  1  0  0  0
 50 51  1  0  0  0
 50123  1  0  0  0
 50124  1  0  0  0
 51 52  1  0  0  0
 51125  1  0  0  0
 51126  1  0  0  0
 52127  1  0  0  0
 52128  1  0  0  0
 53 54  1  0  0  0
 54 55  2  0  0  0
 54129  1  0  0  0
 55 57  1  0  0  0
 55130  1  0  0  0
 56 69  2  0  0  0
 57 58  2  0  0  0
 57131  1  0  0  0
 58132  1  0  0  0
 59 60  1  0  0  0
 59 61  1  0  0  0
 59 62  1  0  0  0
 60133  1  0  0  0
 60134  1  0  0  0
 60135  1  0  0  0
 61136  1  0  0  0
 61137  1  0  0  0
 61138  1  0  0  0
 62139  1  0  0  0
 62140  1  0  0  0
 62141  1  0  0  0
 63 65  1  0  0  0
 63142  1  0  0  0
 63143  1  0  0  0
 63144  1  0  0  0
 64145  1  0  0  0
 65146  1  0  0  0
 68 83  1  0  0  0
 71 78  1  0  0  0
 71 84  1  0  0  0
 71 87  2  0  0  0
 72 77  1  0  0  0
 72147  1  0  0  0
 72148  1  0  0  0
 72 76  1  0  0  0
 73 76  1  0  0  0
 73 78  1  0  0  0
 73149  1  0  0  0
 73150  1  0  0  0
 74 77  1  0  0  0
 74 78  1  0  0  0
 74151  1  0  0  0
 74152  1  0  0  0
 75 76  1  0  0  0
 75 84  1  0  0  0
 75153  1  0  0  0
 75154  1  0  0  0
 76155  1  0  0  0
 77 79  1  0  0  0
 77156  1  0  0  0
 78 80  1  0  0  0
 79 83  1  0  0  0
 79157  1  0  0  0
 79158  1  0  0  0
 80 86  1  0  0  0
 80159  1  0  0  0
 80160  1  0  0  0
 81 82  1  0  0  0
 81 85  1  0  0  0
 81161  1  0  0  0
 81162  1  0  0  0
 82 86  1  0  0  0
 82163  1  0  0  0
 82164  1  0  0  0
 83165  1  0  0  0
 83166  1  0  0  0
 84167  1  0  0  0
 85168  1  0  0  0
 86169  1  0  0  0
 86170  1  0  0  0
M  CHG  1  86   1
M  ISO  4   1 100  68 101  83 101  85 100
M  END
> <chiral flag>
0

> <version>
0

> <s_m_source_file>
/data/baiqing/PycharmProjects/Reinvent-master-3.2/result/LINK_invent/BTK/process_docking_weight1_custom_sum_contain_oxygen_bond_distance_aromatic_linkinvent_7_9_3/rearranged_h_0121.sdf

> <i_m_source_file_index>
32

> <r_mmod_Potential_Energy-OPLS-2005>
-236.382171630859

> <r_mmod_Stretch_Energy-OPLS-2005>
40.3180541992188

> <r_mmod_Bend_Energy-OPLS-2005>
105.78352355957

> <r_mmod_Torsional_Energy-OPLS-2005>
297.875366210938

> <r_mmod_Improper_Torsional_Energy-OPLS-2005>
1.92457962036133

> <r_mmod_Van_der_Waal_Energy-OPLS-2005>
166.101425170898

> <r_mmod_Electrostatic_Energy-OPLS-2005>
-375.382507324219

> <r_mmod_Solvation_Energy-OPLS-2005>
-483.1044921875

> <b_mmod_Minimization_Converged-OPLS-2005>
0

> <r_mmod_RMS_Derivative-OPLS-2005>
0.862429976463318

$$$$
32
                    3D
 Structure written by MMmdl.
175185  0  0  1  0            999 V2000
  -30.8194  -14.3326   20.6364 C   0  0  0  0  0  0
  -30.4155  -12.2578   19.3831 C   0  0  0  0  0  0
  -29.4731  -12.4907   18.1863 C   0  0  0  0  0  0
  -28.0037  -12.3369   18.6160 C   0  0  0  0  0  0
  -27.6623  -13.1804   19.8679 C   0  0  2  0  0  0
  -28.7134  -12.9659   20.9852 C   0  0  0  0  0  0
  -25.2650  -13.8083   20.5564 C   0  0  0  0  0  0
  -24.1898  -13.0425   20.9234 C   0  0  0  0  0  0
  -24.6399  -11.6894   20.8783 C   0  0  0  0  0  0
  -23.9066  -10.4304   21.0450 C   0  0  0  0  0  0
  -24.3623   -9.4208   21.9204 C   0  0  0  0  0  0
  -23.6296   -8.2250   22.0764 C   0  0  0  0  0  0
  -22.4292   -8.0297   21.3559 C   0  0  0  0  0  0
  -21.9927   -9.0274   20.4676 C   0  0  0  0  0  0
  -22.7239  -10.2169   20.3083 C   0  0  0  0  0  0
  -21.6831   -6.0770   22.5267 C   0  0  0  0  0  0
  -21.4011   -6.5668   23.8209 C   0  0  0  0  0  0
  -21.3639   -5.6799   24.9153 C   0  0  0  0  0  0
  -21.6028   -4.3056   24.7193 C   0  0  0  0  0  0
  -21.8837   -3.8190   23.4306 C   0  0  0  0  0  0
  -21.9183   -4.7011   22.3374 C   0  0  0  0  0  0
  -22.7934  -13.5321   21.1879 C   0  0  0  0  0  0
  -22.1682   -4.2219   21.0950 F   0  0  0  0  0  0
  -21.5630   -3.4520   25.7707 F   0  0  0  0  0  0
  -30.0615  -13.2223   20.4304 N   0  0  0  0  0  0
  -26.3059  -12.9180   20.3356 N   0  0  0  0  0  0
  -25.9309  -11.6374   20.5774 N   0  0  0  0  0  0
  -22.0514  -12.8334   22.0411 N   0  0  0  0  0  0
  -25.4242  -15.1744   20.3642 N   0  0  0  0  0  0
  -31.9236  -14.5282   20.1245 O   0  0  0  0  0  0
  -21.6631   -6.8908   21.4239 O   0  0  0  0  0  0
  -22.3676  -14.5643   20.6730 O   0  0  0  0  0  0
  -24.6112  -31.8796   23.2308 C   0  0  0  0  0  0
  -25.9034  -32.4907   23.8521 C   0  0  1  0  0  0
  -27.2162  -27.4911   20.0569 C   0  0  0  0  0  0
  -25.5922  -33.8692   24.2444 N   0  0  0  0  0  0
  -23.3959  -30.5147   21.5710 C   0  0  2  0  0  0
  -24.8341  -29.0157   20.1077 C   0  0  0  0  0  0
  -22.7411  -29.4749   22.5068 C   0  0  0  0  0  0
  -18.0357  -28.1366   22.8398 C   0  0  0  0  0  0
  -24.1496  -36.7363   23.2632 C   0  0  0  0  0  0
  -25.9255  -30.8480   21.3950 C   0  0  0  0  0  0
  -25.9921  -29.4892   20.7409 C   0  0  0  0  0  0
  -27.1784  -28.7210   20.7451 C   0  0  0  0  0  0
  -26.0805  -27.1258   19.3008 C   0  0  0  0  0  0
  -24.8725  -27.8218   19.3835 C   0  0  0  0  0  0
  -23.5949  -29.8754   20.1755 C   0  0  0  0  0  0
  -25.4104  -36.3180   24.0360 C   0  0  1  0  0  0
  -20.5894  -28.3728   23.1442 C   0  0  2  0  0  0
  -20.6894  -26.9484   22.5529 C   0  0  0  0  0  0
  -19.6017  -26.6494   21.5192 C   0  0  0  0  0  0
  -18.2113  -26.7969   22.1421 C   0  0  0  0  0  0
  -19.1539  -28.8830   23.2963 C   0  0  0  0  0  0
  -18.9365  -30.1363   23.9095 C   0  0  0  0  0  0
  -17.6337  -30.6428   24.0702 C   0  0  0  0  0  0
  -25.9022  -34.9525   23.5186 C   0  0  0  0  0  0
  -16.5298  -29.8947   23.6286 C   0  0  0  0  0  0
  -16.7326  -28.6441   23.0173 C   0  0  0  0  0  0
  -26.4448  -31.6665   25.0833 C   0  0  0  0  0  0
  -25.3707  -31.3759   26.1596 C   0  0  0  0  0  0
  -27.0251  -30.3100   24.6205 C   0  0  0  0  0  0
  -27.6073  -32.4344   25.7541 C   0  0  0  0  0  0
  -27.5604  -37.1861   24.8460 C   0  0  0  0  0  0
  -21.4135  -29.3150   22.3880 N   0  0  0  0  0  0
  -26.4309  -37.3841   23.9417 N   0  0  0  0  0  0
  -24.6617  -31.0926   22.1221 N   0  0  0  0  0  0
  -23.4233  -28.8186   23.2991 O   0  0  0  0  0  0
  -28.3526  -26.7077   20.0545 O   0  0  0  0  0  0
  -26.5552  -34.8940   22.4727 O   0  0  0  0  0  0
  -23.5324  -32.1485   23.7766 O   0  0  0  0  0  0
  -27.4615  -17.6722   18.9054 C   0  0  0  0  0  0
  -26.6320  -18.7151   20.9132 C   0  0  0  0  0  0
  -26.5933  -18.4933   18.1763 C   0  0  0  0  0  0
  -27.4861  -17.7723   20.3161 C   0  0  0  0  0  0
  -25.8784  -19.5791   20.1024 C   0  0  0  0  0  0
  -26.0128  -21.4594   21.8519 C   0  0  0  0  0  0
  -24.8818  -21.8750   19.6488 C   0  0  0  0  0  0
  -30.8616  -15.9967   22.4267 C   0  0  0  0  0  0
  -29.5351  -16.2651   20.4249 C   0  0  0  0  0  0
  -26.4506  -22.9143   21.5869 C   0  0  0  0  0  0
  -26.2068  -22.4767   19.1367 C   0  0  0  0  0  0
  -29.8053  -16.7933   23.2284 C   0  0  0  0  0  0
  -28.3737  -16.8926   21.1970 C   0  0  1  0  0  0
  -25.1692  -20.7985   20.7093 C   0  0  1  0  0  0
  -27.2140  -24.5209   19.8761 C   0  0  0  0  0  0
  -28.2334  -25.3910   20.6409 C   0  0  0  0  0  0
  -25.8167  -19.4239   18.7603 N   0  0  0  0  0  0
  -30.2139  -15.3193   21.2999 N   0  0  0  0  0  0
  -28.9450  -17.6284   22.3497 N   0  3  0  0  0  0
  -27.0342  -23.0989   20.2219 N   0  3  1  0  0  0
  -31.4536  -12.3466   19.0590 H   0  0  0  0  0  0
  -30.3095  -11.2430   19.7672 H   0  0  0  0  0  0
  -29.6940  -11.7848   17.3863 H   0  0  0  0  0  0
  -29.6321  -13.4850   17.7638 H   0  0  0  0  0  0
  -27.8284  -11.2796   18.8180 H   0  0  0  0  0  0
  -27.3350  -12.5891   17.7908 H   0  0  0  0  0  0
  -27.6908  -14.2190   19.5552 H   0  0  0  0  0  0
  -28.6723  -11.9376   21.3451 H   0  0  0  0  0  0
  -28.4726  -13.5857   21.8495 H   0  0  0  0  0  0
  -25.2773   -9.5678   22.4774 H   0  0  0  0  0  0
  -23.9987   -7.4672   22.7500 H   0  0  0  0  0  0
  -21.0825   -8.8790   19.9039 H   0  0  0  0  0  0
  -22.3659  -10.9721   19.6214 H   0  0  0  0  0  0
  -21.2040   -7.6176   23.9741 H   0  0  0  0  0  0
  -21.1412   -6.0508   25.9038 H   0  0  0  0  0  0
  -22.0635   -2.7666   23.2761 H   0  0  0  0  0  0
  -22.3922  -11.9866   22.4697 H   0  0  0  0  0  0
  -21.1241  -13.1600   22.2688 H   0  0  0  0  0  0
  -24.5795  -15.7334   20.3006 H   0  0  0  0  0  0
  -26.1433  -15.5259   19.7473 H   0  0  0  0  0  0
  -26.7117  -32.5624   23.1307 H   0  0  0  0  0  0
  -25.0131  -33.9836   25.0634 H   0  0  0  0  0  0
  -22.6820  -31.3309   21.4540 H   0  0  0  0  0  0
  -23.3766  -35.9691   23.3306 H   0  0  0  0  0  0
  -24.3604  -36.8940   22.2048 H   0  0  0  0  0  0
  -23.7239  -37.6586   23.6582 H   0  0  0  0  0  0
  -26.0395  -31.6203   20.6315 H   0  0  0  0  0  0
  -26.8108  -30.8855   22.0158 H   0  0  0  0  0  0
  -28.0569  -29.0765   21.2655 H   0  0  0  0  0  0
  -26.1060  -26.3138   18.5946 H   0  0  0  0  0  0
  -24.0182  -27.4906   18.8091 H   0  0  0  0  0  0
  -23.6857  -30.6646   19.4262 H   0  0  0  0  0  0
  -22.7151  -29.2957   19.8913 H   0  0  0  0  0  0
  -25.1278  -36.2069   25.0851 H   0  0  0  0  0  0
  -20.9947  -28.3314   24.1592 H   0  0  0  0  0  0
  -20.5706  -26.2369   23.3714 H   0  0  0  0  0  0
  -21.6860  -26.7511   22.1521 H   0  0  0  0  0  0
  -19.7287  -25.6452   21.1165 H   0  0  0  0  0  0
  -19.7058  -27.3400   20.6811 H   0  0  0  0  0  0
  -17.4497  -26.6856   21.3699 H   0  0  0  0  0  0
  -18.0436  -25.9967   22.8648 H   0  0  0  0  0  0
  -19.7783  -30.7136   24.2682 H   0  0  0  0  0  0
  -17.4805  -31.6025   24.5430 H   0  0  0  0  0  0
  -15.5265  -30.2786   23.7504 H   0  0  0  0  0  0
  -15.8797  -28.0821   22.6642 H   0  0  0  0  0  0
  -24.5879  -30.7084   25.7985 H   0  0  0  0  0  0
  -24.8871  -32.2889   26.5057 H   0  0  0  0  0  0
  -25.8056  -30.8957   27.0363 H   0  0  0  0  0  0
  -26.2797  -29.6932   24.1179 H   0  0  0  0  0  0
  -27.3917  -29.7284   25.4678 H   0  0  0  0  0  0
  -27.8686  -30.4450   23.9433 H   0  0  0  0  0  0
  -27.2749  -33.3626   26.2188 H   0  0  0  0  0  0
  -28.3815  -32.6929   25.0306 H   0  0  0  0  0  0
  -28.0809  -31.8418   26.5378 H   0  0  0  0  0  0
  -28.2659  -38.0137   24.7518 H   0  0  0  0  0  0
  -28.1071  -36.2677   24.6257 H   0  0  0  0  0  0
  -27.2326  -37.1499   25.8865 H   0  0  0  0  0  0
  -20.9196  -29.9058   21.7333 H   0  0  0  0  0  0
  -26.0241  -38.2948   24.1343 H   0  0  0  0  0  0
  -28.0712  -16.9840   18.3395 H   0  0  0  0  0  0
  -26.5770  -18.8068   21.9860 H   0  0  0  0  0  0
  -26.5428  -18.4266   17.0981 H   0  0  0  0  0  0
  -25.4487  -21.4109   22.7853 H   0  0  0  0  0  0
  -26.9339  -20.9190   22.0510 H   0  0  0  0  0  0
  -24.2959  -21.4692   18.8247 H   0  0  0  0  0  0
  -24.2528  -22.6616   20.0643 H   0  0  0  0  0  0
  -31.3489  -15.2672   23.0807 H   0  0  0  0  0  0
  -31.6566  -16.6531   22.0672 H   0  0  0  0  0  0
  -30.2314  -17.0288   20.0741 H   0  0  0  0  0  0
  -29.1860  -15.7560   19.5299 H   0  0  0  0  0  0
  -27.1702  -23.2267   22.3458 H   0  0  0  0  0  0
  -25.5858  -23.5703   21.7077 H   0  0  0  0  0  0
  -25.9371  -23.1871   18.3536 H   0  0  0  0  0  0
  -26.8326  -21.7504   18.6228 H   0  0  0  0  0  0
  -30.2836  -17.4168   23.9840 H   0  0  0  0  0  0
  -29.1666  -16.0917   23.7700 H   0  0  0  0  0  0
  -27.7289  -16.1006   21.5847 H   0  0  0  0  0  0
  -24.2171  -20.4465   21.1110 H   0  0  0  0  0  0
  -27.4618  -24.6156   18.8179 H   0  0  0  0  0  0
  -26.2059  -24.8831   20.0530 H   0  0  0  0  0  0
  -27.9692  -25.4819   21.6947 H   0  0  0  0  0  0
  -29.2183  -24.9255   20.5898 H   0  0  0  0  0  0
  -29.4925  -18.3975   22.0004 H   0  0  0  0  0  0
  -28.1876  -18.0192   22.8854 H   0  0  0  0  0  0
  -27.9411  -22.6499   20.2012 H   0  0  0  0  0  0
  1 25  1  0  0  0
  1 30  2  0  0  0
  1 88  1  0  0  0
  2  3  1  0  0  0
  2 25  1  0  0  0
  2 91  1  0  0  0
  2 92  1  0  0  0
  3  4  1  0  0  0
  3 93  1  0  0  0
  3 94  1  0  0  0
  4  5  1  0  0  0
  4 95  1  0  0  0
  4 96  1  0  0  0
  5  6  1  0  0  0
  5 26  1  0  0  0
  5 97  1  0  0  0
  6 25  1  0  0  0
  6 98  1  0  0  0
  6 99  1  0  0  0
  7  8  2  0  0  0
  7 26  1  0  0  0
  7 29  1  0  0  0
  8  9  1  0  0  0
  8 22  1  0  0  0
  9 10  1  0  0  0
  9 27  2  0  0  0
 10 11  2  0  0  0
 10 15  1  0  0  0
 11 12  1  0  0  0
 11100  1  0  0  0
 12 13  2  0  0  0
 12101  1  0  0  0
 13 14  1  0  0  0
 13 31  1  0  0  0
 14 15  2  0  0  0
 14102  1  0  0  0
 15103  1  0  0  0
 16 17  2  0  0  0
 16 21  1  0  0  0
 16 31  1  0  0  0
 17 18  1  0  0  0
 17104  1  0  0  0
 18 19  2  0  0  0
 18105  1  0  0  0
 19 20  1  0  0  0
 19 24  1  0  0  0
 20 21  2  0  0  0
 20106  1  0  0  0
 21 23  1  0  0  0
 22 28  1  0  0  0
 22 32  2  0  0  0
 26 27  1  0  0  0
 28107  1  0  0  0
 28108  1  0  0  0
 29109  1  0  0  0
 29110  1  0  0  0
 33 34  1  0  0  0
 33 66  1  0  0  0
 33 70  2  0  0  0
 34 36  1  0  0  0
 34 59  1  0  0  0
 34111  1  0  0  0
 35 44  2  0  0  0
 35 45  1  0  0  0
 35 68  1  0  0  0
 36 56  1  0  0  0
 36112  1  0  0  0
 37 39  1  0  0  0
 37 47  1  0  0  0
 37 66  1  0  0  0
 37113  1  0  0  0
 38 43  2  0  0  0
 38 46  1  0  0  0
 38 47  1  0  0  0
 39 64  1  0  0  0
 39 67  2  0  0  0
 40 52  1  0  0  0
 40 53  2  0  0  0
 40 58  1  0  0  0
 41114  1  0  0  0
 41115  1  0  0  0
 41116  1  0  0  0
 41 48  1  0  0  0
 42 43  1  0  0  0
 42 66  1  0  0  0
 42117  1  0  0  0
 42118  1  0  0  0
 43 44  1  0  0  0
 44119  1  0  0  0
 45 46  2  0  0  0
 45120  1  0  0  0
 46121  1  0  0  0
 47122  1  0  0  0
 47123  1  0  0  0
 48 56  1  0  0  0
 48 65  1  0  0  0
 48124  1  0  0  0
 49 50  1  0  0  0
 49 53  1  0  0  0
 49 64  1  0  0  0
 49125  1  0  0  0
 50 51  1  0  0  0
 50126  1  0  0  0
 50127  1  0  0  0
 51 52  1  0  0  0
 51128  1  0  0  0
 51129  1  0  0  0
 52130  1  0  0  0
 52131  1  0  0  0
 53 54  1  0  0  0
 54 55  2  0  0  0
 54132  1  0  0  0
 55 57  1  0  0  0
 55133  1  0  0  0
 56 69  2  0  0  0
 57 58  2  0  0  0
 57134  1  0  0  0
 58135  1  0  0  0
 59 60  1  0  0  0
 59 61  1  0  0  0
 59 62  1  0  0  0
 60136  1  0  0  0
 60137  1  0  0  0
 60138  1  0  0  0
 61139  1  0  0  0
 61140  1  0  0  0
 61141  1  0  0  0
 62142  1  0  0  0
 62143  1  0  0  0
 62144  1  0  0  0
 63 65  1  0  0  0
 63145  1  0  0  0
 63146  1  0  0  0
 63147  1  0  0  0
 64148  1  0  0  0
 65149  1  0  0  0
 68 86  1  0  0  0
 71 73  2  0  0  0
 71 74  1  0  0  0
 71150  1  0  0  0
 72 74  2  0  0  0
 72 75  1  0  0  0
 72151  1  0  0  0
 73 87  1  0  0  0
 73152  1  0  0  0
 74 83  1  0  0  0
 75 87  2  0  0  0
 75 84  1  0  0  0
 76 80  1  0  0  0
 76 84  1  0  0  0
 76153  1  0  0  0
 76154  1  0  0  0
 77 81  1  0  0  0
 77 84  1  0  0  0
 77155  1  0  0  0
 77156  1  0  0  0
 78 82  1  0  0  0
 78 88  1  0  0  0
 78157  1  0  0  0
 78158  1  0  0  0
 79 83  1  0  0  0
 79 88  1  0  0  0
 79159  1  0  0  0
 79160  1  0  0  0
 80 90  1  0  0  0
 80161  1  0  0  0
 80162  1  0  0  0
 81 90  1  0  0  0
 81163  1  0  0  0
 81164  1  0  0  0
 82 89  1  0  0  0
 82165  1  0  0  0
 82166  1  0  0  0
 83 89  1  0  0  0
 83167  1  0  0  0
 84168  1  0  0  0
 85 86  1  0  0  0
 85169  1  0  0  0
 85170  1  0  0  0
 85 90  1  0  0  0
 86171  1  0  0  0
 86172  1  0  0  0
 89173  1  0  0  0
 89174  1  0  0  0
 90175  1  0  0  0
M  CHG  2  89   1  90   1
M  ISO  4   1 100  68 101  86 101  88 100
M  END
> <chiral flag>
0

> <version>
0

> <s_m_source_file>
/data/baiqing/PycharmProjects/Reinvent-master-3.2/result/LINK_invent/BTK/process_docking_weight1_custom_sum_contain_oxygen_bond_distance_aromatic_linkinvent_7_9_3/rearranged_h_0121.sdf

> <i_m_source_file_index>
33

> <r_mmod_Potential_Energy-OPLS-2005>
-221.839813232422

> <r_mmod_Stretch_Energy-OPLS-2005>
37.2372436523438

> <r_mmod_Bend_Energy-OPLS-2005>
120.763465881348

> <r_mmod_Torsional_Energy-OPLS-2005>
467.191192626953

> <r_mmod_Improper_Torsional_Energy-OPLS-2005>
11.3890104293823

> <r_mmod_Van_der_Waal_Energy-OPLS-2005>
226.730865478516

> <r_mmod_Electrostatic_Energy-OPLS-2005>
-218.707214355469

> <r_mmod_Solvation_Energy-OPLS-2005>
-891.477722167969

> <b_mmod_Minimization_Converged-OPLS-2005>
0

> <r_mmod_RMS_Derivative-OPLS-2005>
5.24296140670776

$$$$
33
                    3D
 Structure written by MMmdl.
159167  0  0  1  0            999 V2000
  -30.7749  -14.3304   20.7272 C   0  0  0  0  0  0
  -30.4204  -12.2912   19.3844 C   0  0  0  0  0  0
  -29.4822  -12.5312   18.1874 C   0  0  0  0  0  0
  -28.0064  -12.3813   18.6028 C   0  0  0  0  0  0
  -27.6648  -13.1983   19.8755 C   0  0  2  0  0  0
  -28.6994  -12.9240   20.9882 C   0  0  0  0  0  0
  -25.2592  -13.8149   20.5652 C   0  0  0  0  0  0
  -24.1836  -13.0437   20.9154 C   0  0  0  0  0  0
  -24.6369  -11.6895   20.8702 C   0  0  0  0  0  0
  -23.9030  -10.4290   21.0385 C   0  0  0  0  0  0
  -24.3590   -9.4217   21.9173 C   0  0  0  0  0  0
  -23.6273   -8.2247   22.0753 C   0  0  0  0  0  0
  -22.4260   -8.0269   21.3537 C   0  0  0  0  0  0
  -21.9884   -9.0235   20.4639 C   0  0  0  0  0  0
  -22.7201  -10.2118   20.3041 C   0  0  0  0  0  0
  -21.6854   -6.0722   22.5276 C   0  0  0  0  0  0
  -21.4012   -6.5633   23.8201 C   0  0  0  0  0  0
  -21.3661   -5.6789   24.9169 C   0  0  0  0  0  0
  -21.6046   -4.3053   24.7225 C   0  0  0  0  0  0
  -21.8820   -3.8135   23.4351 C   0  0  0  0  0  0
  -21.9190   -4.6950   22.3399 C   0  0  0  0  0  0
  -22.7858  -13.5240   21.1819 C   0  0  0  0  0  0
  -22.1659   -4.2131   21.0979 F   0  0  0  0  0  0
  -21.5634   -3.4536   25.7743 F   0  0  0  0  0  0
  -30.0483  -13.2165   20.4631 N   0  0  0  0  0  0
  -26.3021  -12.9297   20.3334 N   0  0  0  0  0  0
  -25.9289  -11.6466   20.5721 N   0  0  0  0  0  0
  -22.0484  -12.8227   22.0354 N   0  0  0  0  0  0
  -25.4334  -15.1863   20.4031 N   0  0  0  0  0  0
  -31.7665  -14.6738   20.0749 O   0  0  0  0  0  0
  -21.6638   -6.8858   21.4232 O   0  0  0  0  0  0
  -22.3547  -14.5555   20.6669 O   0  0  0  0  0  0
  -24.6108  -31.8738   23.2151 C   0  0  0  0  0  0
  -25.9027  -32.4841   23.8442 C   0  0  1  0  0  0
  -27.2403  -27.4749   20.0599 C   0  0  0  0  0  0
  -25.5921  -33.8646   24.2377 N   0  0  0  0  0  0
  -23.3964  -30.4962   21.5570 C   0  0  2  0  0  0
  -24.8397  -28.9646   20.1210 C   0  0  0  0  0  0
  -22.7390  -29.4688   22.5046 C   0  0  0  0  0  0
  -18.0282  -28.1393   22.8469 C   0  0  0  0  0  0
  -24.1497  -36.7328   23.2622 C   0  0  0  0  0  0
  -25.9211  -30.8419   21.3684 C   0  0  0  0  0  0
  -25.9967  -29.4772   20.7192 C   0  0  0  0  0  0
  -27.1935  -28.7299   20.7030 C   0  0  0  0  0  0
  -26.0602  -26.9690   19.4658 C   0  0  0  0  0  0
  -24.8625  -27.7042   19.5020 C   0  0  0  0  0  0
  -23.6017  -29.8281   20.1727 C   0  0  0  0  0  0
  -25.4117  -36.3135   24.0336 C   0  0  1  0  0  0
  -20.5859  -28.3662   23.1336 C   0  0  2  0  0  0
  -20.6764  -26.9417   22.5404 C   0  0  0  0  0  0
  -19.5754  -26.6425   21.5182 C   0  0  0  0  0  0
  -18.1932  -26.7959   22.1593 C   0  0  0  0  0  0
  -19.1517  -28.8847   23.2902 C   0  0  0  0  0  0
  -18.9426  -30.1447   23.8911 C   0  0  0  0  0  0
  -17.6416  -30.6573   24.0578 C   0  0  0  0  0  0
  -25.9041  -34.9488   23.5151 C   0  0  0  0  0  0
  -16.5318  -29.9063   23.6323 C   0  0  0  0  0  0
  -16.7265  -28.6506   23.0311 C   0  0  0  0  0  0
  -26.4485  -31.6590   25.0739 C   0  0  0  0  0  0
  -25.3767  -31.3646   26.1484 C   0  0  0  0  0  0
  -27.0309  -30.3039   24.6083 C   0  0  0  0  0  0
  -27.6107  -32.4259   25.7496 C   0  0  0  0  0  0
  -27.5604  -37.1826   24.8456 C   0  0  0  0  0  0
  -21.4126  -29.3045   22.3767 N   0  0  0  0  0  0
  -26.4318  -37.3800   23.9392 N   0  0  0  0  0  0
  -24.6610  -31.0832   22.1059 N   0  0  0  0  0  0
  -23.4167  -28.8226   23.3085 O   0  0  0  0  0  0
  -28.4459  -26.8098   20.0393 O   0  0  0  0  0  0
  -26.5566  -34.8922   22.4693 O   0  0  0  0  0  0
  -23.5311  -32.1513   23.7543 O   0  0  0  0  0  0
  -27.6771  -21.9540   20.8753 C   0  0  0  0  0  0
  -27.0220  -20.7552   20.8332 C   0  0  0  0  0  0
  -26.9737  -22.7437   19.9278 C   0  0  0  0  0  0
  -27.2623  -19.4517   21.5211 C   0  0  0  0  0  0
  -30.5478  -17.4859   21.7439 C   0  0  0  0  0  0
  -31.0263  -16.1766   22.3949 C   0  0  0  0  0  0
  -29.0572  -17.7935   21.9845 C   0  0  0  0  0  0
  -28.6997  -25.8564   19.0094 C   0  0  0  0  0  0
  -28.5623  -24.4233   19.5355 C   0  0  0  0  0  0
  -25.9502  -22.1025   19.3917 N   0  0  0  0  0  0
  -30.3787  -15.0022   21.8150 N   0  0  0  0  0  0
  -28.6513  -19.0275   21.2868 N   0  3  0  0  0  0
  -25.9827  -20.8204   19.9545 O   0  0  0  0  0  0
  -27.1995  -24.0276   19.5230 O   0  0  0  0  0  0
  -31.4617  -12.4091   19.0764 H   0  0  0  0  0  0
  -30.3350  -11.2623   19.7391 H   0  0  0  0  0  0
  -29.7162  -11.8349   17.3809 H   0  0  0  0  0  0
  -29.6490  -13.5325   17.7881 H   0  0  0  0  0  0
  -27.8113  -11.3220   18.7763 H   0  0  0  0  0  0
  -27.3536  -12.6782   17.7810 H   0  0  0  0  0  0
  -27.7270  -14.2543   19.6103 H   0  0  0  0  0  0
  -28.6583  -11.8754   21.2856 H   0  0  0  0  0  0
  -28.4374  -13.4845   21.8846 H   0  0  0  0  0  0
  -25.2737   -9.5700   22.4737 H   0  0  0  0  0  0
  -23.9984   -7.4646   22.7481 H   0  0  0  0  0  0
  -21.0815   -8.8730   19.8952 H   0  0  0  0  0  0
  -22.3648  -10.9639   19.6136 H   0  0  0  0  0  0
  -21.2002   -7.6138   23.9697 H   0  0  0  0  0  0
  -21.1485   -6.0526   25.9069 H   0  0  0  0  0  0
  -22.0598   -2.7598   23.2857 H   0  0  0  0  0  0
  -22.4080  -11.9876   22.4741 H   0  0  0  0  0  0
  -21.1084  -13.1228   22.2515 H   0  0  0  0  0  0
  -24.6584  -15.8359   20.4787 H   0  0  0  0  0  0
  -26.2687  -15.6058   20.0163 H   0  0  0  0  0  0
  -26.7097  -32.5574   23.1217 H   0  0  0  0  0  0
  -25.0176  -33.9859   25.0587 H   0  0  0  0  0  0
  -22.6856  -31.3134   21.4201 H   0  0  0  0  0  0
  -23.3773  -35.9643   23.3274 H   0  0  0  0  0  0
  -24.3617  -36.8954   22.2040 H   0  0  0  0  0  0
  -23.7215  -37.6526   23.6626 H   0  0  0  0  0  0
  -26.0266  -31.6066   20.5978 H   0  0  0  0  0  0
  -26.8107  -30.9000   21.9826 H   0  0  0  0  0  0
  -28.0921  -29.1242   21.1580 H   0  0  0  0  0  0
  -26.0382  -26.0172   18.9608 H   0  0  0  0  0  0
  -23.9712  -27.3033   19.0383 H   0  0  0  0  0  0
  -23.7076  -30.6019   19.4130 H   0  0  0  0  0  0
  -22.7261  -29.2461   19.8795 H   0  0  0  0  0  0
  -25.1284  -36.2042   25.0825 H   0  0  0  0  0  0
  -20.9929  -28.3219   24.1460 H   0  0  0  0  0  0
  -20.5654  -26.2272   23.3578 H   0  0  0  0  0  0
  -21.6639  -26.7507   22.1184 H   0  0  0  0  0  0
  -19.6922  -25.6354   21.1162 H   0  0  0  0  0  0
  -19.6694  -27.3268   20.6739 H   0  0  0  0  0  0
  -17.4211  -26.6725   21.3982 H   0  0  0  0  0  0
  -18.0328  -26.0099   22.8980 H   0  0  0  0  0  0
  -19.7892  -30.7266   24.2295 H   0  0  0  0  0  0
  -17.4963  -31.6243   24.5196 H   0  0  0  0  0  0
  -15.5305  -30.2926   23.7678 H   0  0  0  0  0  0
  -15.8693  -28.0821   22.6975 H   0  0  0  0  0  0
  -24.5952  -30.6999   25.7786 H   0  0  0  0  0  0
  -24.8938  -32.2770   26.4990 H   0  0  0  0  0  0
  -25.8124  -30.8761   27.0211 H   0  0  0  0  0  0
  -26.2844  -29.6779   24.1178 H   0  0  0  0  0  0
  -27.4151  -29.7286   25.4521 H   0  0  0  0  0  0
  -27.8649  -30.4377   23.9187 H   0  0  0  0  0  0
  -27.2823  -33.3593   26.2083 H   0  0  0  0  0  0
  -28.3932  -32.6743   25.0307 H   0  0  0  0  0  0
  -28.0750  -31.8341   26.5401 H   0  0  0  0  0  0
  -28.2597  -38.0148   24.7526 H   0  0  0  0  0  0
  -28.1129  -36.2679   24.6250 H   0  0  0  0  0  0
  -27.2334  -37.1443   25.8863 H   0  0  0  0  0  0
  -20.9276  -29.8787   21.7008 H   0  0  0  0  0  0
  -26.0230  -38.2897   24.1356 H   0  0  0  0  0  0
  -28.5320  -22.2197   21.4798 H   0  0  0  0  0  0
  -26.5778  -18.6894   21.1458 H   0  0  0  0  0  0
  -27.0741  -19.5554   22.5904 H   0  0  0  0  0  0
  -30.7531  -17.4511   20.6727 H   0  0  0  0  0  0
  -31.1504  -18.3063   22.1371 H   0  0  0  0  0  0
  -30.8215  -16.1954   23.4671 H   0  0  0  0  0  0
  -32.1102  -16.0891   22.2987 H   0  0  0  0  0  0
  -28.8732  -17.8998   23.0555 H   0  0  0  0  0  0
  -28.4366  -16.9664   21.6361 H   0  0  0  0  0  0
  -29.7384  -26.0090   18.7156 H   0  0  0  0  0  0
  -28.1209  -26.0177   18.0994 H   0  0  0  0  0  0
  -29.0028  -24.3483   20.5296 H   0  0  0  0  0  0
  -29.1204  -23.7518   18.8807 H   0  0  0  0  0  0
  -29.5902  -14.6115   22.3111 H   0  0  0  0  0  0
  -29.2473  -19.7830   21.5809 H   0  0  0  0  0  0
  -28.7691  -18.9106   20.2937 H   0  0  0  0  0  0
  1 25  1  0  0  0
  1 30  2  0  0  0
  1 81  1  0  0  0
  2  3  1  0  0  0
  2 25  1  0  0  0
  2 85  1  0  0  0
  2 86  1  0  0  0
  3  4  1  0  0  0
  3 87  1  0  0  0
  3 88  1  0  0  0
  4  5  1  0  0  0
  4 89  1  0  0  0
  4 90  1  0  0  0
  5  6  1  0  0  0
  5 26  1  0  0  0
  5 91  1  0  0  0
  6 25  1  0  0  0
  6 92  1  0  0  0
  6 93  1  0  0  0
  7  8  2  0  0  0
  7 26  1  0  0  0
  7 29  1  0  0  0
  8  9  1  0  0  0
  8 22  1  0  0  0
  9 10  1  0  0  0
  9 27  2  0  0  0
 10 11  2  0  0  0
 10 15  1  0  0  0
 11 12  1  0  0  0
 11 94  1  0  0  0
 12 13  2  0  0  0
 12 95  1  0  0  0
 13 14  1  0  0  0
 13 31  1  0  0  0
 14 15  2  0  0  0
 14 96  1  0  0  0
 15 97  1  0  0  0
 16 17  2  0  0  0
 16 21  1  0  0  0
 16 31  1  0  0  0
 17 18  1  0  0  0
 17 98  1  0  0  0
 18 19  2  0  0  0
 18 99  1  0  0  0
 19 20  1  0  0  0
 19 24  1  0  0  0
 20 21  2  0  0  0
 20100  1  0  0  0
 21 23  1  0  0  0
 22 28  1  0  0  0
 22 32  2  0  0  0
 26 27  1  0  0  0
 28101  1  0  0  0
 28102  1  0  0  0
 29103  1  0  0  0
 29104  1  0  0  0
 33 34  1  0  0  0
 33 66  1  0  0  0
 33 70  2  0  0  0
 34 36  1  0  0  0
 34 59  1  0  0  0
 34105  1  0  0  0
 35 44  2  0  0  0
 35 45  1  0  0  0
 35 68  1  0  0  0
 36 56  1  0  0  0
 36106  1  0  0  0
 37 39  1  0  0  0
 37 47  1  0  0  0
 37 66  1  0  0  0
 37107  1  0  0  0
 38 43  2  0  0  0
 38 46  1  0  0  0
 38 47  1  0  0  0
 39 64  1  0  0  0
 39 67  2  0  0  0
 40 52  1  0  0  0
 40 53  2  0  0  0
 40 58  1  0  0  0
 41108  1  0  0  0
 41109  1  0  0  0
 41110  1  0  0  0
 41 48  1  0  0  0
 42 43  1  0  0  0
 42 66  1  0  0  0
 42111  1  0  0  0
 42112  1  0  0  0
 43 44  1  0  0  0
 44113  1  0  0  0
 45 46  2  0  0  0
 45114  1  0  0  0
 46115  1  0  0  0
 47116  1  0  0  0
 47117  1  0  0  0
 48 56  1  0  0  0
 48 65  1  0  0  0
 48118  1  0  0  0
 49 50  1  0  0  0
 49 53  1  0  0  0
 49 64  1  0  0  0
 49119  1  0  0  0
 50 51  1  0  0  0
 50120  1  0  0  0
 50121  1  0  0  0
 51 52  1  0  0  0
 51122  1  0  0  0
 51123  1  0  0  0
 52124  1  0  0  0
 52125  1  0  0  0
 53 54  1  0  0  0
 54 55  2  0  0  0
 54126  1  0  0  0
 55 57  1  0  0  0
 55127  1  0  0  0
 56 69  2  0  0  0
 57 58  2  0  0  0
 57128  1  0  0  0
 58129  1  0  0  0
 59 60  1  0  0  0
 59 61  1  0  0  0
 59 62  1  0  0  0
 60130  1  0  0  0
 60131  1  0  0  0
 60132  1  0  0  0
 61133  1  0  0  0
 61134  1  0  0  0
 61135  1  0  0  0
 62136  1  0  0  0
 62137  1  0  0  0
 62138  1  0  0  0
 63 65  1  0  0  0
 63139  1  0  0  0
 63140  1  0  0  0
 63141  1  0  0  0
 64142  1  0  0  0
 65143  1  0  0  0
 68 78  1  0  0  0
 71 72  2  0  0  0
 71 73  1  0  0  0
 71144  1  0  0  0
 72 74  1  0  0  0
 72 83  1  0  0  0
 73 80  2  0  0  0
 73 84  1  0  0  0
 74 82  1  0  0  0
 74145  1  0  0  0
 74146  1  0  0  0
 75 76  1  0  0  0
 75 77  1  0  0  0
 75147  1  0  0  0
 75148  1  0  0  0
 76 81  1  0  0  0
 76149  1  0  0  0
 76150  1  0  0  0
 77 82  1  0  0  0
 77151  1  0  0  0
 77152  1  0  0  0
 78 79  1  0  0  0
 78153  1  0  0  0
 78154  1  0  0  0
 79 84  1  0  0  0
 79155  1  0  0  0
 79156  1  0  0  0
 80 83  1  0  0  0
 81157  1  0  0  0
 82158  1  0  0  0
 82159  1  0  0  0
M  CHG  1  82   1
M  ISO  4   1 100  68 101  78 101  81 100
M  END
> <chiral flag>
0

> <version>
0

> <s_m_source_file>
/data/baiqing/PycharmProjects/Reinvent-master-3.2/result/LINK_invent/BTK/process_docking_weight1_custom_sum_contain_oxygen_bond_distance_aromatic_linkinvent_7_9_3/rearranged_h_0121.sdf

> <i_m_source_file_index>
34

> <r_mmod_Potential_Energy-OPLS-2005>
-443.072845458984

> <r_mmod_Stretch_Energy-OPLS-2005>
29.2447452545166

> <r_mmod_Bend_Energy-OPLS-2005>
93.7596206665039

> <r_mmod_Torsional_Energy-OPLS-2005>
194.381042480469

> <r_mmod_Improper_Torsional_Energy-OPLS-2005>
2.38806581497192

> <r_mmod_Van_der_Waal_Energy-OPLS-2005>
131.58659362793

> <r_mmod_Electrostatic_Energy-OPLS-2005>
-367.366027832031

> <r_mmod_Solvation_Energy-OPLS-2005>
-535.264343261719

> <b_mmod_Minimization_Converged-OPLS-2005>
0

> <r_mmod_RMS_Derivative-OPLS-2005>
1.91405844688416

$$$$
34
                    3D
 Structure written by MMmdl.
167176  0  0  1  0            999 V2000
  -30.7425  -14.4074   20.6516 C   0  0  0  0  0  0
  -30.4184  -12.3019   19.4044 C   0  0  0  0  0  0
  -29.4860  -12.5191   18.1972 C   0  0  0  0  0  0
  -28.0100  -12.3736   18.6138 C   0  0  0  0  0  0
  -27.6630  -13.2035   19.8780 C   0  0  2  0  0  0
  -28.7020  -12.9613   20.9953 C   0  0  0  0  0  0
  -25.2590  -13.8155   20.5673 C   0  0  0  0  0  0
  -24.1841  -13.0438   20.9186 C   0  0  0  0  0  0
  -24.6388  -11.6905   20.8739 C   0  0  0  0  0  0
  -23.9055  -10.4291   21.0407 C   0  0  0  0  0  0
  -24.3610   -9.4209   21.9185 C   0  0  0  0  0  0
  -23.6286   -8.2244   22.0754 C   0  0  0  0  0  0
  -22.4271   -8.0280   21.3543 C   0  0  0  0  0  0
  -21.9905   -9.0250   20.4643 C   0  0  0  0  0  0
  -22.7229  -10.2132   20.3052 C   0  0  0  0  0  0
  -21.6853   -6.0736   22.5279 C   0  0  0  0  0  0
  -21.4010   -6.5637   23.8212 C   0  0  0  0  0  0
  -21.3659   -5.6790   24.9172 C   0  0  0  0  0  0
  -21.6044   -4.3053   24.7223 C   0  0  0  0  0  0
  -21.8820   -3.8144   23.4345 C   0  0  0  0  0  0
  -21.9192   -4.6962   22.3404 C   0  0  0  0  0  0
  -22.7862  -13.5246   21.1843 C   0  0  0  0  0  0
  -22.1661   -4.2150   21.0982 F   0  0  0  0  0  0
  -21.5628   -3.4537   25.7735 F   0  0  0  0  0  0
  -30.0396  -13.2615   20.4528 N   0  0  0  0  0  0
  -26.3025  -12.9322   20.3372 N   0  0  0  0  0  0
  -25.9313  -11.6483   20.5768 N   0  0  0  0  0  0
  -22.0495  -12.8230   22.0388 N   0  0  0  0  0  0
  -25.4318  -15.1872   20.4045 N   0  0  0  0  0  0
  -31.8009  -14.6623   20.0703 O   0  0  0  0  0  0
  -21.6637   -6.8877   21.4240 O   0  0  0  0  0  0
  -22.3562  -14.5563   20.6703 O   0  0  0  0  0  0
  -24.6136  -31.8675   23.2115 C   0  0  0  0  0  0
  -25.9032  -32.4823   23.8405 C   0  0  1  0  0  0
  -27.2355  -27.4498   20.0967 C   0  0  0  0  0  0
  -25.5899  -33.8621   24.2347 N   0  0  0  0  0  0
  -23.4011  -30.4907   21.5513 C   0  0  2  0  0  0
  -24.8488  -28.9530   20.1200 C   0  0  0  0  0  0
  -22.7402  -29.4658   22.5003 C   0  0  0  0  0  0
  -18.0266  -28.1378   22.8489 C   0  0  0  0  0  0
  -24.1480  -36.7310   23.2639 C   0  0  0  0  0  0
  -25.9271  -30.8370   21.3622 C   0  0  0  0  0  0
  -26.0060  -29.4689   20.7184 C   0  0  0  0  0  0
  -27.2044  -28.7218   20.7100 C   0  0  0  0  0  0
  -26.0684  -26.9421   19.4943 C   0  0  0  0  0  0
  -24.8724  -27.6857   19.5091 C   0  0  0  0  0  0
  -23.6100  -29.8188   20.1669 C   0  0  0  0  0  0
  -25.4100  -36.3111   24.0342 C   0  0  1  0  0  0
  -20.5857  -28.3655   23.1322 C   0  0  2  0  0  0
  -20.6758  -26.9393   22.5422 C   0  0  0  0  0  0
  -19.5741  -26.6383   21.5213 C   0  0  0  0  0  0
  -18.1913  -26.7929   22.1612 C   0  0  0  0  0  0
  -19.1516  -28.8833   23.2905 C   0  0  0  0  0  0
  -18.9446  -30.1442   23.8914 C   0  0  0  0  0  0
  -17.6448  -30.6584   24.0568 C   0  0  0  0  0  0
  -25.9027  -34.9475   23.5140 C   0  0  0  0  0  0
  -16.5337  -29.9086   23.6331 C   0  0  0  0  0  0
  -16.7254  -28.6505   23.0345 C   0  0  0  0  0  0
  -26.4477  -31.6589   25.0717 C   0  0  0  0  0  0
  -25.3760  -31.3660   26.1474 C   0  0  0  0  0  0
  -27.0314  -30.3045   24.6058 C   0  0  0  0  0  0
  -27.6057  -32.4304   25.7479 C   0  0  0  0  0  0
  -27.5582  -37.1805   24.8462 C   0  0  0  0  0  0
  -21.4131  -29.3025   22.3736 N   0  0  0  0  0  0
  -26.4285  -37.3799   23.9418 N   0  0  0  0  0  0
  -24.6658  -31.0792   22.1008 N   0  0  0  0  0  0
  -23.4180  -28.8195   23.3038 O   0  0  0  0  0  0
  -28.3952  -26.7183   20.0269 O   0  0  0  0  0  0
  -26.5583  -34.8924   22.4698 O   0  0  0  0  0  0
  -23.5334  -32.1410   23.7522 O   0  0  0  0  0  0
  -28.2216  -23.7920   19.9239 C   0  0  0  0  0  0
  -28.1940  -23.7382   22.2947 C   0  0  0  0  0  0
  -28.3563  -24.4949   21.1280 C   0  0  0  0  0  0
  -27.7811  -21.8418   21.0640 C   0  0  0  0  0  0
  -27.5137  -19.5744   22.2753 C   0  0  0  0  0  0
  -27.5568  -19.5959   19.8016 C   0  0  0  0  0  0
  -28.9830  -19.1024   22.2797 C   0  0  0  0  0  0
  -29.0228  -19.1116   19.8425 C   0  0  0  0  0  0
  -27.1299  -20.4381   21.0383 C   0  0  2  0  0  0
  -25.5993  -20.6298   21.0190 C   0  0  0  0  0  0
  -28.7226  -25.9754   21.2013 C   0  0  0  0  0  0
  -30.8582  -16.5056   21.9990 C   0  0  0  0  0  0
  -30.6786  -17.7348   21.0689 C   0  0  0  0  0  0
  -27.9173  -22.4767   19.9020 N   0  0  0  0  0  0
  -27.8936  -22.4254   22.2534 N   0  0  0  0  0  0
  -30.2054  -15.2781   21.5216 N   0  0  0  0  0  0
  -29.3021  -18.3075   21.0629 N   0  3  1  0  0  0
  -31.4620  -12.4038   19.1002 H   0  0  0  0  0  0
  -30.3220  -11.2828   19.7826 H   0  0  0  0  0  0
  -29.7219  -11.8060   17.4064 H   0  0  0  0  0  0
  -29.6530  -13.5115   17.7759 H   0  0  0  0  0  0
  -27.8201  -11.3161   18.8017 H   0  0  0  0  0  0
  -27.3562  -12.6558   17.7879 H   0  0  0  0  0  0
  -27.7154  -14.2554   19.5960 H   0  0  0  0  0  0
  -28.6715  -11.9195   21.3180 H   0  0  0  0  0  0
  -28.4515  -13.5419   21.8834 H   0  0  0  0  0  0
  -25.2759   -9.5689   22.4756 H   0  0  0  0  0  0
  -24.0000   -7.4636   22.7472 H   0  0  0  0  0  0
  -21.0841   -8.8762   19.8943 H   0  0  0  0  0  0
  -22.3692  -10.9667   19.6159 H   0  0  0  0  0  0
  -21.1998   -7.6140   23.9716 H   0  0  0  0  0  0
  -21.1481   -6.0517   25.9076 H   0  0  0  0  0  0
  -22.0601   -2.7608   23.2844 H   0  0  0  0  0  0
  -22.4093  -11.9878   22.4763 H   0  0  0  0  0  0
  -21.1112  -13.1258   22.2588 H   0  0  0  0  0  0
  -24.6547  -15.8345   20.4811 H   0  0  0  0  0  0
  -26.2633  -15.6081   20.0129 H   0  0  0  0  0  0
  -26.7104  -32.5544   23.1176 H   0  0  0  0  0  0
  -25.0102  -33.9791   25.0527 H   0  0  0  0  0  0
  -22.6898  -31.3070   21.4108 H   0  0  0  0  0  0
  -23.3751  -35.9636   23.3295 H   0  0  0  0  0  0
  -24.3588  -36.8927   22.2057 H   0  0  0  0  0  0
  -23.7212  -37.6505   23.6654 H   0  0  0  0  0  0
  -26.0314  -31.5984   20.5877 H   0  0  0  0  0  0
  -26.8187  -30.8983   21.9745 H   0  0  0  0  0  0
  -28.1034  -29.1218   21.1584 H   0  0  0  0  0  0
  -26.0872  -25.9746   19.0126 H   0  0  0  0  0  0
  -23.9831  -27.2828   19.0438 H   0  0  0  0  0  0
  -23.7178  -30.5916   19.4051 H   0  0  0  0  0  0
  -22.7348  -29.2366   19.8714 H   0  0  0  0  0  0
  -25.1279  -36.1978   25.0836 H   0  0  0  0  0  0
  -20.9944  -28.3213   24.1442 H   0  0  0  0  0  0
  -20.5655  -26.2261   23.3608 H   0  0  0  0  0  0
  -21.6628  -26.7434   22.1213 H   0  0  0  0  0  0
  -19.6899  -25.6296   21.1236 H   0  0  0  0  0  0
  -19.6695  -27.3206   20.6757 H   0  0  0  0  0  0
  -17.4195  -26.6689   21.4004 H   0  0  0  0  0  0
  -18.0301  -26.0063   22.8995 H   0  0  0  0  0  0
  -19.7923  -30.7258   24.2287 H   0  0  0  0  0  0
  -17.5000  -31.6270   24.5158 H   0  0  0  0  0  0
  -15.5339  -30.2992   23.7652 H   0  0  0  0  0  0
  -15.8651  -28.0836   22.7047 H   0  0  0  0  0  0
  -24.5964  -30.6970   25.7813 H   0  0  0  0  0  0
  -24.8921  -32.2797   26.4932 H   0  0  0  0  0  0
  -25.8143  -30.8838   27.0219 H   0  0  0  0  0  0
  -26.2842  -29.6791   24.1160 H   0  0  0  0  0  0
  -27.4162  -29.7289   25.4484 H   0  0  0  0  0  0
  -27.8639  -30.4397   23.9149 H   0  0  0  0  0  0
  -27.2690  -33.3605   26.2070 H   0  0  0  0  0  0
  -28.3863  -32.6853   25.0299 H   0  0  0  0  0  0
  -28.0724  -31.8411   26.5381 H   0  0  0  0  0  0
  -28.2583  -38.0120   24.7541 H   0  0  0  0  0  0
  -28.1096  -36.2654   24.6249 H   0  0  0  0  0  0
  -27.2309  -37.1403   25.8866 H   0  0  0  0  0  0
  -20.9290  -29.8755   21.6967 H   0  0  0  0  0  0
  -26.0174  -38.2872   24.1448 H   0  0  0  0  0  0
  -28.3435  -24.2800   18.9678 H   0  0  0  0  0  0
  -28.2951  -24.1854   23.2729 H   0  0  0  0  0  0
  -27.2973  -20.1070   23.2020 H   0  0  0  0  0  0
  -26.8759  -18.6906   22.3064 H   0  0  0  0  0  0
  -26.9159  -18.7165   19.7322 H   0  0  0  0  0  0
  -27.3760  -20.1476   18.8786 H   0  0  0  0  0  0
  -29.1538  -18.5064   23.1760 H   0  0  0  0  0  0
  -29.6547  -19.9594   22.3500 H   0  0  0  0  0  0
  -29.7050  -19.9617   19.7927 H   0  0  0  0  0  0
  -29.2176  -18.5080   18.9546 H   0  0  0  0  0  0
  -25.2598  -21.1646   21.9066 H   0  0  0  0  0  0
  -25.0701  -19.6776   20.9874 H   0  0  0  0  0  0
  -25.2856  -21.2096   20.1502 H   0  0  0  0  0  0
  -29.8007  -26.0465   21.3483 H   0  0  0  0  0  0
  -28.2679  -26.4174   22.0910 H   0  0  0  0  0  0
  -30.5103  -16.7196   23.0088 H   0  0  0  0  0  0
  -31.9271  -16.3111   22.1101 H   0  0  0  0  0  0
  -30.9638  -17.4436   20.0567 H   0  0  0  0  0  0
  -31.3843  -18.5165   21.3548 H   0  0  0  0  0  0
  -29.3557  -14.9827   21.9813 H   0  0  0  0  0  0
  -28.6794  -17.5138   21.0388 H   0  0  0  0  0  0
  1 25  1  0  0  0
  1 30  2  0  0  0
  1 86  1  0  0  0
  2  3  1  0  0  0
  2 25  1  0  0  0
  2 88  1  0  0  0
  2 89  1  0  0  0
  3  4  1  0  0  0
  3 90  1  0  0  0
  3 91  1  0  0  0
  4  5  1  0  0  0
  4 92  1  0  0  0
  4 93  1  0  0  0
  5  6  1  0  0  0
  5 26  1  0  0  0
  5 94  1  0  0  0
  6 25  1  0  0  0
  6 95  1  0  0  0
  6 96  1  0  0  0
  7  8  2  0  0  0
  7 26  1  0  0  0
  7 29  1  0  0  0
  8  9  1  0  0  0
  8 22  1  0  0  0
  9 10  1  0  0  0
  9 27  2  0  0  0
 10 11  2  0  0  0
 10 15  1  0  0  0
 11 12  1  0  0  0
 11 97  1  0  0  0
 12 13  2  0  0  0
 12 98  1  0  0  0
 13 14  1  0  0  0
 13 31  1  0  0  0
 14 15  2  0  0  0
 14 99  1  0  0  0
 15100  1  0  0  0
 16 17  2  0  0  0
 16 21  1  0  0  0
 16 31  1  0  0  0
 17 18  1  0  0  0
 17101  1  0  0  0
 18 19  2  0  0  0
 18102  1  0  0  0
 19 20  1  0  0  0
 19 24  1  0  0  0
 20 21  2  0  0  0
 20103  1  0  0  0
 21 23  1  0  0  0
 22 28  1  0  0  0
 22 32  2  0  0  0
 26 27  1  0  0  0
 28104  1  0  0  0
 28105  1  0  0  0
 29106  1  0  0  0
 29107  1  0  0  0
 33 34  1  0  0  0
 33 66  1  0  0  0
 33 70  2  0  0  0
 34 36  1  0  0  0
 34 59  1  0  0  0
 34108  1  0  0  0
 35 44  2  0  0  0
 35 45  1  0  0  0
 35 68  1  0  0  0
 36 56  1  0  0  0
 36109  1  0  0  0
 37 39  1  0  0  0
 37 47  1  0  0  0
 37 66  1  0  0  0
 37110  1  0  0  0
 38 43  2  0  0  0
 38 46  1  0  0  0
 38 47  1  0  0  0
 39 64  1  0  0  0
 39 67  2  0  0  0
 40 52  1  0  0  0
 40 53  2  0  0  0
 40 58  1  0  0  0
 41111  1  0  0  0
 41112  1  0  0  0
 41113  1  0  0  0
 41 48  1  0  0  0
 42 43  1  0  0  0
 42 66  1  0  0  0
 42114  1  0  0  0
 42115  1  0  0  0
 43 44  1  0  0  0
 44116  1  0  0  0
 45 46  2  0  0  0
 45117  1  0  0  0
 46118  1  0  0  0
 47119  1  0  0  0
 47120  1  0  0  0
 48 56  1  0  0  0
 48 65  1  0  0  0
 48121  1  0  0  0
 49 50  1  0  0  0
 49 53  1  0  0  0
 49 64  1  0  0  0
 49122  1  0  0  0
 50 51  1  0  0  0
 50123  1  0  0  0
 50124  1  0  0  0
 51 52  1  0  0  0
 51125  1  0  0  0
 51126  1  0  0  0
 52127  1  0  0  0
 52128  1  0  0  0
 53 54  1  0  0  0
 54 55  2  0  0  0
 54129  1  0  0  0
 55 57  1  0  0  0
 55130  1  0  0  0
 56 69  2  0  0  0
 57 58  2  0  0  0
 57131  1  0  0  0
 58132  1  0  0  0
 59 60  1  0  0  0
 59 61  1  0  0  0
 59 62  1  0  0  0
 60133  1  0  0  0
 60134  1  0  0  0
 60135  1  0  0  0
 61136  1  0  0  0
 61137  1  0  0  0
 61138  1  0  0  0
 62139  1  0  0  0
 62140  1  0  0  0
 62141  1  0  0  0
 63 65  1  0  0  0
 63142  1  0  0  0
 63143  1  0  0  0
 63144  1  0  0  0
 64145  1  0  0  0
 65146  1  0  0  0
 68 81  1  0  0  0
 71 73  2  0  0  0
 71 84  1  0  0  0
 71147  1  0  0  0
 72 73  1  0  0  0
 72 85  2  0  0  0
 72148  1  0  0  0
 73 81  1  0  0  0
 74 79  1  0  0  0
 74 84  2  0  0  0
 74 85  1  0  0  0
 75 77  1  0  0  0
 75 79  1  0  0  0
 75149  1  0  0  0
 75150  1  0  0  0
 76 78  1  0  0  0
 76 79  1  0  0  0
 76151  1  0  0  0
 76152  1  0  0  0
 77 87  1  0  0  0
 77153  1  0  0  0
 77154  1  0  0  0
 78 87  1  0  0  0
 78155  1  0  0  0
 78156  1  0  0  0
 79 80  1  0  0  0
 80157  1  0  0  0
 80158  1  0  0  0
 80159  1  0  0  0
 81160  1  0  0  0
 81161  1  0  0  0
 82 83  1  0  0  0
 82 86  1  0  0  0
 82162  1  0  0  0
 82163  1  0  0  0
 83164  1  0  0  0
 83165  1  0  0  0
 83 87  1  0  0  0
 86166  1  0  0  0
 87167  1  0  0  0
M  CHG  1  87   1
M  ISO  4   1 100  68 101  81 101  86 100
M  END
> <chiral flag>
0

> <version>
0

> <s_m_source_file>
/data/baiqing/PycharmProjects/Reinvent-master-3.2/result/LINK_invent/BTK/process_docking_weight1_custom_sum_contain_oxygen_bond_distance_aromatic_linkinvent_7_9_3/rearranged_h_0121.sdf

> <i_m_source_file_index>
35

> <r_mmod_Potential_Energy-OPLS-2005>
-629.587585449219

> <r_mmod_Stretch_Energy-OPLS-2005>
37.1341590881348

> <r_mmod_Bend_Energy-OPLS-2005>
102.725624084473

> <r_mmod_Torsional_Energy-OPLS-2005>
287.488739013672

> <r_mmod_Improper_Torsional_Energy-OPLS-2005>
4.75196123123169

> <r_mmod_Van_der_Waal_Energy-OPLS-2005>
163.224868774414

> <r_mmod_Electrostatic_Energy-OPLS-2005>
-782.437927246094

> <r_mmod_Solvation_Energy-OPLS-2005>
-449.729553222656

> <b_mmod_Minimization_Converged-OPLS-2005>
0

> <r_mmod_RMS_Derivative-OPLS-2005>
0.833462774753571

$$$$
35
                    3D
 Structure written by MMmdl.
162170  0  0  1  0            999 V2000
  -30.7178  -14.4430   20.6274 C   0  0  0  0  0  0
  -30.4245  -12.3137   19.4071 C   0  0  0  0  0  0
  -29.4898  -12.5155   18.1976 C   0  0  0  0  0  0
  -28.0127  -12.3693   18.6135 C   0  0  0  0  0  0
  -27.6625  -13.2024   19.8750 C   0  0  2  0  0  0
  -28.7032  -12.9662   20.9916 C   0  0  0  0  0  0
  -25.2592  -13.8146   20.5666 C   0  0  0  0  0  0
  -24.1841  -13.0433   20.9171 C   0  0  0  0  0  0
  -24.6386  -11.6897   20.8726 C   0  0  0  0  0  0
  -23.9050  -10.4289   21.0400 C   0  0  0  0  0  0
  -24.3607   -9.4208   21.9178 C   0  0  0  0  0  0
  -23.6286   -8.2242   22.0751 C   0  0  0  0  0  0
  -22.4268   -8.0277   21.3544 C   0  0  0  0  0  0
  -21.9901   -9.0247   20.4645 C   0  0  0  0  0  0
  -22.7224  -10.2128   20.3052 C   0  0  0  0  0  0
  -21.6852   -6.0731   22.5279 C   0  0  0  0  0  0
  -21.4011   -6.5637   23.8211 C   0  0  0  0  0  0
  -21.3660   -5.6791   24.9173 C   0  0  0  0  0  0
  -21.6045   -4.3054   24.7225 C   0  0  0  0  0  0
  -21.8820   -3.8145   23.4347 C   0  0  0  0  0  0
  -21.9192   -4.6961   22.3402 C   0  0  0  0  0  0
  -22.7867  -13.5239   21.1836 C   0  0  0  0  0  0
  -22.1662   -4.2147   21.0981 F   0  0  0  0  0  0
  -21.5630   -3.4539   25.7738 F   0  0  0  0  0  0
  -30.0355  -13.2805   20.4450 N   0  0  0  0  0  0
  -26.3024  -12.9308   20.3354 N   0  0  0  0  0  0
  -25.9311  -11.6473   20.5752 N   0  0  0  0  0  0
  -22.0504  -12.8235   22.0393 N   0  0  0  0  0  0
  -25.4328  -15.1861   20.4063 N   0  0  0  0  0  0
  -31.8069  -14.6783   20.0970 O   0  0  0  0  0  0
  -21.6637   -6.8873   21.4240 O   0  0  0  0  0  0
  -22.3561  -14.5550   20.6686 O   0  0  0  0  0  0
  -24.6139  -31.8682   23.2096 C   0  0  0  0  0  0
  -25.9030  -32.4826   23.8395 C   0  0  1  0  0  0
  -27.2391  -27.4367   20.1006 C   0  0  0  0  0  0
  -25.5890  -33.8624   24.2328 N   0  0  0  0  0  0
  -23.4024  -30.4898   21.5503 C   0  0  2  0  0  0
  -24.8496  -28.9492   20.1221 C   0  0  0  0  0  0
  -22.7406  -29.4662   22.5004 C   0  0  0  0  0  0
  -18.0272  -28.1376   22.8491 C   0  0  0  0  0  0
  -24.1487  -36.7316   23.2640 C   0  0  0  0  0  0
  -25.9295  -30.8344   21.3611 C   0  0  0  0  0  0
  -26.0084  -29.4659   20.7146 C   0  0  0  0  0  0
  -27.2074  -28.7180   20.6971 C   0  0  0  0  0  0
  -26.0643  -26.9304   19.5061 C   0  0  0  0  0  0
  -24.8719  -27.6802   19.5162 C   0  0  0  0  0  0
  -23.6112  -29.8167   20.1675 C   0  0  0  0  0  0
  -25.4107  -36.3113   24.0338 C   0  0  1  0  0  0
  -20.5859  -28.3662   23.1324 C   0  0  2  0  0  0
  -20.6764  -26.9402   22.5423 C   0  0  0  0  0  0
  -19.5742  -26.6385   21.5220 C   0  0  0  0  0  0
  -18.1918  -26.7923   22.1623 C   0  0  0  0  0  0
  -19.1521  -28.8834   23.2905 C   0  0  0  0  0  0
  -18.9450  -30.1439   23.8915 C   0  0  0  0  0  0
  -17.6451  -30.6584   24.0565 C   0  0  0  0  0  0
  -25.9033  -34.9477   23.5134 C   0  0  0  0  0  0
  -16.5343  -29.9089   23.6325 C   0  0  0  0  0  0
  -16.7263  -28.6503   23.0344 C   0  0  0  0  0  0
  -26.4463  -31.6598   25.0719 C   0  0  0  0  0  0
  -25.3732  -31.3695   26.1469 C   0  0  0  0  0  0
  -27.0292  -30.3047   24.6075 C   0  0  0  0  0  0
  -27.6049  -32.4310   25.7471 C   0  0  0  0  0  0
  -27.5578  -37.1812   24.8467 C   0  0  0  0  0  0
  -21.4135  -29.3033   22.3734 N   0  0  0  0  0  0
  -26.4296  -37.3796   23.9408 N   0  0  0  0  0  0
  -24.6671  -31.0780   22.0996 N   0  0  0  0  0  0
  -23.4182  -28.8206   23.3047 O   0  0  0  0  0  0
  -28.4221  -26.7329   20.0476 O   0  0  0  0  0  0
  -26.5602  -34.8927   22.4701 O   0  0  0  0  0  0
  -23.5333  -32.1431   23.7490 O   0  0  0  0  0  0
  -29.3916  -20.5422   19.6206 C   0  0  0  0  0  0
  -28.2865  -21.0168   21.8403 C   0  0  0  0  0  0
  -28.6486  -21.8577   19.2508 C   0  0  0  0  0  0
  -28.4328  -22.5482   21.6318 C   0  0  0  0  0  0
  -29.3946  -20.2070   21.1355 C   0  0  1  0  0  0
  -30.6564  -16.6483   21.8392 C   0  0  0  0  0  0
  -28.2243  -24.2462   19.7836 C   0  0  0  0  0  0
  -30.3671  -17.8608   20.9088 C   0  0  0  0  0  0
  -28.4721  -25.4624   20.7178 C   0  0  0  0  0  0
  -30.0992  -15.3632   21.3882 N   0  0  0  0  0  0
  -28.8294  -22.9526   20.2471 N   0  3  2  0  0  0
  -29.2928  -18.7447   21.4371 N   0  3  0  0  0  0
  -31.4667  -12.4252   19.1023 H   0  0  0  0  0  0
  -30.3370  -11.2970   19.7936 H   0  0  0  0  0  0
  -29.7293  -11.7962   17.4132 H   0  0  0  0  0  0
  -29.6537  -13.5042   17.7660 H   0  0  0  0  0  0
  -27.8253  -11.3119   18.8045 H   0  0  0  0  0  0
  -27.3595  -12.6474   17.7855 H   0  0  0  0  0  0
  -27.7125  -14.2531   19.5880 H   0  0  0  0  0  0
  -28.6811  -11.9236   21.3124 H   0  0  0  0  0  0
  -28.4532  -13.5430   21.8826 H   0  0  0  0  0  0
  -25.2755   -9.5684   22.4746 H   0  0  0  0  0  0
  -23.9998   -7.4635   22.7473 H   0  0  0  0  0  0
  -21.0831   -8.8762   19.8953 H   0  0  0  0  0  0
  -22.3681  -10.9663   19.6158 H   0  0  0  0  0  0
  -21.2002   -7.6143   23.9712 H   0  0  0  0  0  0
  -21.1480   -6.0521   25.9075 H   0  0  0  0  0  0
  -22.0600   -2.7607   23.2848 H   0  0  0  0  0  0
  -22.4113  -11.9891   22.4778 H   0  0  0  0  0  0
  -21.1121  -13.1262   22.2592 H   0  0  0  0  0  0
  -24.6630  -15.8400   20.4993 H   0  0  0  0  0  0
  -26.2789  -15.6167   20.0560 H   0  0  0  0  0  0
  -26.7101  -32.5545   23.1158 H   0  0  0  0  0  0
  -25.0043  -33.9792   25.0475 H   0  0  0  0  0  0
  -22.6916  -31.3066   21.4077 H   0  0  0  0  0  0
  -23.3745  -35.9655   23.3322 H   0  0  0  0  0  0
  -24.3581  -36.8915   22.2052 H   0  0  0  0  0  0
  -23.7245  -37.6529   23.6644 H   0  0  0  0  0  0
  -26.0361  -31.5964   20.5879 H   0  0  0  0  0  0
  -26.8193  -30.8936   21.9763 H   0  0  0  0  0  0
  -28.1069  -29.1200   21.1417 H   0  0  0  0  0  0
  -26.0676  -25.9709   19.0118 H   0  0  0  0  0  0
  -23.9818  -27.2788   19.0521 H   0  0  0  0  0  0
  -23.7205  -30.5885   19.4047 H   0  0  0  0  0  0
  -22.7358  -29.2350   19.8732 H   0  0  0  0  0  0
  -25.1282  -36.1988   25.0830 H   0  0  0  0  0  0
  -20.9943  -28.3225   24.1447 H   0  0  0  0  0  0
  -20.5672  -26.2269   23.3608 H   0  0  0  0  0  0
  -21.6633  -26.7455   22.1206 H   0  0  0  0  0  0
  -19.6911  -25.6306   21.1228 H   0  0  0  0  0  0
  -19.6680  -27.3215   20.6765 H   0  0  0  0  0  0
  -17.4192  -26.6679   21.4022 H   0  0  0  0  0  0
  -18.0308  -26.0063   22.9015 H   0  0  0  0  0  0
  -19.7930  -30.7246   24.2294 H   0  0  0  0  0  0
  -17.5014  -31.6267   24.5164 H   0  0  0  0  0  0
  -15.5346  -30.2993   23.7642 H   0  0  0  0  0  0
  -15.8661  -28.0830   22.7047 H   0  0  0  0  0  0
  -24.5907  -30.7036   25.7808 H   0  0  0  0  0  0
  -24.8907  -32.2839   26.4930 H   0  0  0  0  0  0
  -25.8077  -30.8857   27.0225 H   0  0  0  0  0  0
  -26.2826  -29.6808   24.1142 H   0  0  0  0  0  0
  -27.4097  -29.7281   25.4519 H   0  0  0  0  0  0
  -27.8643  -30.4381   23.9194 H   0  0  0  0  0  0
  -27.2686  -33.3604   26.2078 H   0  0  0  0  0  0
  -28.3835  -32.6881   25.0278 H   0  0  0  0  0  0
  -28.0743  -31.8412   26.5356 H   0  0  0  0  0  0
  -28.2612  -38.0096   24.7508 H   0  0  0  0  0  0
  -28.1055  -36.2627   24.6299 H   0  0  0  0  0  0
  -27.2295  -37.1480   25.8872 H   0  0  0  0  0  0
  -20.9297  -29.8757   21.6955 H   0  0  0  0  0  0
  -26.0189  -38.2879   24.1397 H   0  0  0  0  0  0
  -30.4241  -20.5956   19.2722 H   0  0  0  0  0  0
  -28.9345  -19.7337   19.0495 H   0  0  0  0  0  0
  -27.3110  -20.6967   21.4714 H   0  0  0  0  0  0
  -28.2814  -20.8076   22.9109 H   0  0  0  0  0  0
  -27.5805  -21.6554   19.1520 H   0  0  0  0  0  0
  -28.9799  -22.1897   18.2655 H   0  0  0  0  0  0
  -29.1785  -22.9442   22.3225 H   0  0  0  0  0  0
  -27.4859  -23.0151   21.9074 H   0  0  0  0  0  0
  -30.3447  -20.5498   21.5509 H   0  0  0  0  0  0
  -30.3122  -16.8429   22.8561 H   0  0  0  0  0  0
  -31.7387  -16.5368   21.9337 H   0  0  0  0  0  0
  -28.6460  -24.4827   18.8058 H   0  0  0  0  0  0
  -27.1540  -24.1094   19.6310 H   0  0  0  0  0  0
  -30.1425  -17.5484   19.8880 H   0  0  0  0  0  0
  -31.2846  -18.4481   20.8436 H   0  0  0  0  0  0
  -29.4769  -25.3913   21.1348 H   0  0  0  0  0  0
  -27.7927  -25.4446   21.5717 H   0  0  0  0  0  0
  -29.2050  -15.0894   21.7690 H   0  0  0  0  0  0
  -29.8270  -23.1171   20.2819 H   0  0  0  0  0  0
  -28.4019  -18.3840   21.1335 H   0  0  0  0  0  0
  -29.3151  -18.6503   22.4400 H   0  0  0  0  0  0
  1 25  1  0  0  0
  1 30  2  0  0  0
  1 80  1  0  0  0
  2  3  1  0  0  0
  2 25  1  0  0  0
  2 83  1  0  0  0
  2 84  1  0  0  0
  3  4  1  0  0  0
  3 85  1  0  0  0
  3 86  1  0  0  0
  4  5  1  0  0  0
  4 87  1  0  0  0
  4 88  1  0  0  0
  5  6  1  0  0  0
  5 26  1  0  0  0
  5 89  1  0  0  0
  6 25  1  0  0  0
  6 90  1  0  0  0
  6 91  1  0  0  0
  7  8  2  0  0  0
  7 26  1  0  0  0
  7 29  1  0  0  0
  8  9  1  0  0  0
  8 22  1  0  0  0
  9 10  1  0  0  0
  9 27  2  0  0  0
 10 11  2  0  0  0
 10 15  1  0  0  0
 11 12  1  0  0  0
 11 92  1  0  0  0
 12 13  2  0  0  0
 12 93  1  0  0  0
 13 14  1  0  0  0
 13 31  1  0  0  0
 14 15  2  0  0  0
 14 94  1  0  0  0
 15 95  1  0  0  0
 16 17  2  0  0  0
 16 21  1  0  0  0
 16 31  1  0  0  0
 17 18  1  0  0  0
 17 96  1  0  0  0
 18 19  2  0  0  0
 18 97  1  0  0  0
 19 20  1  0  0  0
 19 24  1  0  0  0
 20 21  2  0  0  0
 20 98  1  0  0  0
 21 23  1  0  0  0
 22 28  1  0  0  0
 22 32  2  0  0  0
 26 27  1  0  0  0
 28 99  1  0  0  0
 28100  1  0  0  0
 29101  1  0  0  0
 29102  1  0  0  0
 33 34  1  0  0  0
 33 66  1  0  0  0
 33 70  2  0  0  0
 34 36  1  0  0  0
 34 59  1  0  0  0
 34103  1  0  0  0
 35 44  2  0  0  0
 35 45  1  0  0  0
 35 68  1  0  0  0
 36 56  1  0  0  0
 36104  1  0  0  0
 37 39  1  0  0  0
 37 47  1  0  0  0
 37 66  1  0  0  0
 37105  1  0  0  0
 38 43  2  0  0  0
 38 46  1  0  0  0
 38 47  1  0  0  0
 39 64  1  0  0  0
 39 67  2  0  0  0
 40 52  1  0  0  0
 40 53  2  0  0  0
 40 58  1  0  0  0
 41106  1  0  0  0
 41107  1  0  0  0
 41108  1  0  0  0
 41 48  1  0  0  0
 42 43  1  0  0  0
 42 66  1  0  0  0
 42109  1  0  0  0
 42110  1  0  0  0
 43 44  1  0  0  0
 44111  1  0  0  0
 45 46  2  0  0  0
 45112  1  0  0  0
 46113  1  0  0  0
 47114  1  0  0  0
 47115  1  0  0  0
 48 56  1  0  0  0
 48 65  1  0  0  0
 48116  1  0  0  0
 49 50  1  0  0  0
 49 53  1  0  0  0
 49 64  1  0  0  0
 49117  1  0  0  0
 50 51  1  0  0  0
 50118  1  0  0  0
 50119  1  0  0  0
 51 52  1  0  0  0
 51120  1  0  0  0
 51121  1  0  0  0
 52122  1  0  0  0
 52123  1  0  0  0
 53 54  1  0  0  0
 54 55  2  0  0  0
 54124  1  0  0  0
 55 57  1  0  0  0
 55125  1  0  0  0
 56 69  2  0  0  0
 57 58  2  0  0  0
 57126  1  0  0  0
 58127  1  0  0  0
 59 60  1  0  0  0
 59 61  1  0  0  0
 59 62  1  0  0  0
 60128  1  0  0  0
 60129  1  0  0  0
 60130  1  0  0  0
 61131  1  0  0  0
 61132  1  0  0  0
 61133  1  0  0  0
 62134  1  0  0  0
 62135  1  0  0  0
 62136  1  0  0  0
 63 65  1  0  0  0
 63137  1  0  0  0
 63138  1  0  0  0
 63139  1  0  0  0
 64140  1  0  0  0
 65141  1  0  0  0
 68 79  1  0  0  0
 71 73  1  0  0  0
 71 75  1  0  0  0
 71142  1  0  0  0
 71143  1  0  0  0
 72 74  1  0  0  0
 72 75  1  0  0  0
 72144  1  0  0  0
 72145  1  0  0  0
 73 81  1  0  0  0
 73146  1  0  0  0
 73147  1  0  0  0
 74 81  1  0  0  0
 74148  1  0  0  0
 74149  1  0  0  0
 75 82  1  0  0  0
 75150  1  0  0  0
 76 78  1  0  0  0
 76 80  1  0  0  0
 76151  1  0  0  0
 76152  1  0  0  0
 77 79  1  0  0  0
 77153  1  0  0  0
 77154  1  0  0  0
 77 81  1  0  0  0
 78 82  1  0  0  0
 78155  1  0  0  0
 78156  1  0  0  0
 79157  1  0  0  0
 79158  1  0  0  0
 80159  1  0  0  0
 81160  1  0  0  0
 82161  1  0  0  0
 82162  1  0  0  0
M  CHG  2  81   1  82   1
M  ISO  4   1 100  68 101  79 101  80 100
M  END
> <chiral flag>
0

> <version>
0

> <s_m_source_file>
/data/baiqing/PycharmProjects/Reinvent-master-3.2/result/LINK_invent/BTK/process_docking_weight1_custom_sum_contain_oxygen_bond_distance_aromatic_linkinvent_7_9_3/rearranged_h_0121.sdf

> <i_m_source_file_index>
36

> <r_mmod_Potential_Energy-OPLS-2005>
-288.316284179688

> <r_mmod_Stretch_Energy-OPLS-2005>
39.2982406616211

> <r_mmod_Bend_Energy-OPLS-2005>
104.072113037109

> <r_mmod_Torsional_Energy-OPLS-2005>
317.156402587891

> <r_mmod_Improper_Torsional_Energy-OPLS-2005>
2.31872081756592

> <r_mmod_Van_der_Waal_Energy-OPLS-2005>
138.873031616211

> <r_mmod_Electrostatic_Energy-OPLS-2005>
91.6398315429688

> <r_mmod_Solvation_Energy-OPLS-2005>
-991.015625

> <b_mmod_Minimization_Converged-OPLS-2005>
0

> <r_mmod_RMS_Derivative-OPLS-2005>
0.749745070934296

$$$$
36
                    3D
 Structure written by MMmdl.
159167  0  0  1  0            999 V2000
  -30.6016  -14.6943   20.4487 C   0  0  0  0  0  0
  -30.4330  -12.4139   19.4756 C   0  0  0  0  0  0
  -29.5089  -12.4812   18.2391 C   0  0  0  0  0  0
  -28.0321  -12.3129   18.6527 C   0  0  0  0  0  0
  -27.6392  -13.2177   19.8520 C   0  0  2  0  0  0
  -28.6826  -13.1277   20.9904 C   0  0  0  0  0  0
  -25.2495  -13.8175   20.5697 C   0  0  0  0  0  0
  -24.1785  -13.0455   20.9237 C   0  0  0  0  0  0
  -24.6330  -11.6923   20.8747 C   0  0  0  0  0  0
  -23.8993  -10.4307   21.0401 C   0  0  0  0  0  0
  -24.3555   -9.4222   21.9179 C   0  0  0  0  0  0
  -23.6262   -8.2248   22.0734 C   0  0  0  0  0  0
  -22.4253   -8.0260   21.3535 C   0  0  0  0  0  0
  -21.9878   -9.0239   20.4637 C   0  0  0  0  0  0
  -22.7167  -10.2131   20.3049 C   0  0  0  0  0  0
  -21.6840   -6.0699   22.5268 C   0  0  0  0  0  0
  -21.4030   -6.5622   23.8193 C   0  0  0  0  0  0
  -21.3657   -5.6778   24.9171 C   0  0  0  0  0  0
  -21.6044   -4.3043   24.7229 C   0  0  0  0  0  0
  -21.8821   -3.8125   23.4361 C   0  0  0  0  0  0
  -21.9204   -4.6937   22.3403 C   0  0  0  0  0  0
  -22.7781  -13.5220   21.1902 C   0  0  0  0  0  0
  -22.1655   -4.2117   21.0979 F   0  0  0  0  0  0
  -21.5625   -3.4528   25.7748 F   0  0  0  0  0  0
  -29.9921  -13.4631   20.4177 N   0  0  0  0  0  0
  -26.2882  -12.9364   20.3270 N   0  0  0  0  0  0
  -25.9270  -11.6526   20.5765 N   0  0  0  0  0  0
  -22.0448  -12.8204   22.0469 N   0  0  0  0  0  0
  -25.4225  -15.1905   20.4043 N   0  0  0  0  0  0
  -31.7800  -14.8224   20.1173 O   0  0  0  0  0  0
  -21.6627   -6.8854   21.4223 O   0  0  0  0  0  0
  -22.3491  -14.5548   20.6762 O   0  0  0  0  0  0
  -24.6377  -31.8540   23.1959 C   0  0  0  0  0  0
  -25.9196  -32.4740   23.8312 C   0  0  1  0  0  0
  -27.2030  -27.2455   20.1367 C   0  0  0  0  0  0
  -25.5977  -33.8549   24.2243 N   0  0  0  0  0  0
  -23.4361  -30.4812   21.5384 C   0  0  2  0  0  0
  -24.8717  -28.9271   20.1034 C   0  0  0  0  0  0
  -22.7507  -29.4633   22.4856 C   0  0  0  0  0  0
  -18.0334  -28.1407   22.8495 C   0  0  0  0  0  0
  -24.1511  -36.7301   23.2643 C   0  0  0  0  0  0
  -25.9798  -30.7642   21.3700 C   0  0  0  0  0  0
  -26.0431  -29.3876   20.7122 C   0  0  0  0  0  0
  -27.2092  -28.5597   20.7193 C   0  0  0  0  0  0
  -26.0007  -26.8467   19.5123 C   0  0  0  0  0  0
  -24.8549  -27.6650   19.4918 C   0  0  0  0  0  0
  -23.6471  -29.8185   20.1516 C   0  0  0  0  0  0
  -25.4118  -36.3053   24.0320 C   0  0  1  0  0  0
  -20.5938  -28.3737   23.1236 C   0  0  2  0  0  0
  -20.6814  -26.9440   22.5391 C   0  0  0  0  0  0
  -19.5785  -26.6405   21.5205 C   0  0  0  0  0  0
  -18.1981  -26.7953   22.1642 C   0  0  0  0  0  0
  -19.1595  -28.8876   23.2881 C   0  0  0  0  0  0
  -18.9488  -30.1464   23.8908 C   0  0  0  0  0  0
  -17.6490  -30.6595   24.0561 C   0  0  0  0  0  0
  -25.9063  -34.9439   23.5079 C   0  0  0  0  0  0
  -16.5376  -29.9077   23.6346 C   0  0  0  0  0  0
  -16.7317  -28.6503   23.0357 C   0  0  0  0  0  0
  -26.4519  -31.6590   25.0718 C   0  0  0  0  0  0
  -25.3749  -31.3764   26.1441 C   0  0  0  0  0  0
  -27.0350  -30.3003   24.6218 C   0  0  0  0  0  0
  -27.6049  -32.4329   25.7515 C   0  0  0  0  0  0
  -27.5572  -37.1808   24.8453 C   0  0  0  0  0  0
  -21.4201  -29.3127   22.3616 N   0  0  0  0  0  0
  -26.4274  -37.3737   23.9421 N   0  0  0  0  0  0
  -24.7061  -31.0481   22.0933 N   0  0  0  0  0  0
  -23.4176  -28.8155   23.2976 O   0  0  0  0  0  0
  -28.3110  -26.3697   20.2143 O   0  0  0  0  0  0
  -26.5616  -34.8931   22.4641 O   0  0  0  0  0  0
  -23.5514  -32.1351   23.7264 O   0  0  0  0  0  0
  -27.8753  -18.3746   21.1898 C   0  0  0  0  0  0
  -27.2568  -19.7767   20.9391 C   0  0  0  0  0  0
  -29.3723  -18.4815   20.8536 C   0  0  2  0  0  0
  -28.4293  -20.7813   20.7208 C   0  0  2  0  0  0
  -26.7189  -22.1253   19.2553 C   0  0  0  0  0  0
  -30.0244  -17.2154   20.0983 C   0  0  0  0  0  0
  -28.2710  -23.6369   20.6060 C   0  0  0  0  0  0
  -28.3130  -24.9659   19.6768 C   0  0  0  0  0  0
  -28.1321  -22.1754   19.8990 C   0  0  1  0  0  0
  -29.7889  -15.7971   20.6015 N   0  0  0  0  0  0
  -29.5001  -19.8499   20.1980 N   0  3  0  0  0  0
  -31.4700  -12.5403   19.1697 H   0  0  0  0  0  0
  -30.3798  -11.4305   19.9446 H   0  0  0  0  0  0
  -29.7774  -11.7070   17.5189 H   0  0  0  0  0  0
  -29.6419  -13.4343   17.7281 H   0  0  0  0  0  0
  -27.8856  -11.2659   18.9262 H   0  0  0  0  0  0
  -27.3726  -12.4964   17.8042 H   0  0  0  0  0  0
  -27.6433  -14.2386   19.4709 H   0  0  0  0  0  0
  -28.7011  -12.1232   21.4174 H   0  0  0  0  0  0
  -28.4244  -13.8036   21.8071 H   0  0  0  0  0  0
  -25.2700   -9.5717   22.4750 H   0  0  0  0  0  0
  -23.9972   -7.4638   22.7438 H   0  0  0  0  0  0
  -21.0808   -8.8743   19.8932 H   0  0  0  0  0  0
  -22.3614  -10.9661   19.6158 H   0  0  0  0  0  0
  -21.2007   -7.6130   23.9691 H   0  0  0  0  0  0
  -21.1474   -6.0510   25.9063 H   0  0  0  0  0  0
  -22.0604   -2.7580   23.2870 H   0  0  0  0  0  0
  -22.4073  -11.9848   22.4825 H   0  0  0  0  0  0
  -21.1061  -13.1244   22.2698 H   0  0  0  0  0  0
  -24.6524  -15.8439   20.4903 H   0  0  0  0  0  0
  -26.2494  -15.6058   19.9967 H   0  0  0  0  0  0
  -26.7284  -32.5359   23.1077 H   0  0  0  0  0  0
  -25.0127  -33.9667   25.0388 H   0  0  0  0  0  0
  -22.7403  -31.3076   21.3958 H   0  0  0  0  0  0
  -23.3737  -35.9665   23.3285 H   0  0  0  0  0  0
  -24.3589  -36.8927   22.2050 H   0  0  0  0  0  0
  -23.7295  -37.6525   23.6665 H   0  0  0  0  0  0
  -26.1139  -31.5185   20.5932 H   0  0  0  0  0  0
  -26.8550  -30.8070   22.0040 H   0  0  0  0  0  0
  -28.1001  -28.9109   21.2195 H   0  0  0  0  0  0
  -25.8836  -25.8723   19.0721 H   0  0  0  0  0  0
  -23.9535  -27.2975   19.0207 H   0  0  0  0  0  0
  -23.7773  -30.6005   19.4014 H   0  0  0  0  0  0
  -22.7593  -29.2629   19.8437 H   0  0  0  0  0  0
  -25.1311  -36.1897   25.0790 H   0  0  0  0  0  0
  -21.0080  -28.3382   24.1329 H   0  0  0  0  0  0
  -21.6691  -26.7454   22.1234 H   0  0  0  0  0  0
  -20.5713  -26.2382   23.3631 H   0  0  0  0  0  0
  -19.6965  -25.6313   21.1253 H   0  0  0  0  0  0
  -19.6729  -27.3212   20.6730 H   0  0  0  0  0  0
  -17.4255  -26.6706   21.4036 H   0  0  0  0  0  0
  -18.0379  -26.0073   22.9032 H   0  0  0  0  0  0
  -19.7953  -30.7290   24.2293 H   0  0  0  0  0  0
  -17.5025  -31.6275   24.5163 H   0  0  0  0  0  0
  -15.5380  -30.2976   23.7624 H   0  0  0  0  0  0
  -15.8725  -28.0795   22.7059 H   0  0  0  0  0  0
  -24.5908  -30.7101   25.7823 H   0  0  0  0  0  0
  -24.8949  -32.2936   26.4870 H   0  0  0  0  0  0
  -25.8057  -30.8975   27.0243 H   0  0  0  0  0  0
  -26.2924  -29.6746   24.1234 H   0  0  0  0  0  0
  -27.4015  -29.7254   25.4739 H   0  0  0  0  0  0
  -27.8821  -30.4253   23.9455 H   0  0  0  0  0  0
  -27.2631  -33.3612   26.2114 H   0  0  0  0  0  0
  -28.3877  -32.6922   25.0374 H   0  0  0  0  0  0
  -28.0726  -31.8459   26.5436 H   0  0  0  0  0  0
  -28.2590  -38.0105   24.7475 H   0  0  0  0  0  0
  -28.1076  -36.2635   24.6314 H   0  0  0  0  0  0
  -27.2300  -37.1497   25.8855 H   0  0  0  0  0  0
  -20.9347  -29.8917   21.6885 H   0  0  0  0  0  0
  -26.0172  -38.2827   24.1361 H   0  0  0  0  0  0
  -27.3914  -17.6166   20.5728 H   0  0  0  0  0  0
  -27.7384  -18.0655   22.2263 H   0  0  0  0  0  0
  -26.5814  -20.0736   21.7424 H   0  0  0  0  0  0
  -26.6428  -19.6690   20.0494 H   0  0  0  0  0  0
  -29.8924  -18.5931   21.8054 H   0  0  0  0  0  0
  -28.7531  -21.0545   21.7253 H   0  0  0  0  0  0
  -25.9288  -21.8842   19.9732 H   0  0  0  0  0  0
  -26.6777  -21.3788   18.4633 H   0  0  0  0  0  0
  -26.4154  -23.0712   18.8164 H   0  0  0  0  0  0
  -29.6675  -17.2310   19.0667 H   0  0  0  0  0  0
  -31.1001  -17.3814   20.0288 H   0  0  0  0  0  0
  -27.4620  -23.7418   21.3287 H   0  0  0  0  0  0
  -29.1866  -23.6363   21.1951 H   0  0  0  0  0  0
  -27.6110  -24.8572   18.8556 H   0  0  0  0  0  0
  -29.2657  -24.9003   19.1463 H   0  0  0  0  0  0
  -28.8531  -22.2067   19.0807 H   0  0  0  0  0  0
  -28.8380  -15.5835   20.8529 H   0  0  0  0  0  0
  -30.4153  -20.2358   20.3732 H   0  0  0  0  0  0
  -29.3870  -19.7551   19.2017 H   0  0  0  0  0  0
  1 25  1  0  0  0
  1 30  2  0  0  0
  1 80  1  0  0  0
  2  3  1  0  0  0
  2 25  1  0  0  0
  2 82  1  0  0  0
  2 83  1  0  0  0
  3  4  1  0  0  0
  3 84  1  0  0  0
  3 85  1  0  0  0
  4  5  1  0  0  0
  4 86  1  0  0  0
  4 87  1  0  0  0
  5  6  1  0  0  0
  5 26  1  0  0  0
  5 88  1  0  0  0
  6 25  1  0  0  0
  6 89  1  0  0  0
  6 90  1  0  0  0
  7  8  2  0  0  0
  7 26  1  0  0  0
  7 29  1  0  0  0
  8  9  1  0  0  0
  8 22  1  0  0  0
  9 10  1  0  0  0
  9 27  2  0  0  0
 10 11  2  0  0  0
 10 15  1  0  0  0
 11 12  1  0  0  0
 11 91  1  0  0  0
 12 13  2  0  0  0
 12 92  1  0  0  0
 13 14  1  0  0  0
 13 31  1  0  0  0
 14 15  2  0  0  0
 14 93  1  0  0  0
 15 94  1  0  0  0
 16 17  2  0  0  0
 16 21  1  0  0  0
 16 31  1  0  0  0
 17 18  1  0  0  0
 17 95  1  0  0  0
 18 19  2  0  0  0
 18 96  1  0  0  0
 19 20  1  0  0  0
 19 24  1  0  0  0
 20 21  2  0  0  0
 20 97  1  0  0  0
 21 23  1  0  0  0
 22 28  1  0  0  0
 22 32  2  0  0  0
 26 27  1  0  0  0
 28 98  1  0  0  0
 28 99  1  0  0  0
 29100  1  0  0  0
 29101  1  0  0  0
 33 34  1  0  0  0
 33 66  1  0  0  0
 33 70  2  0  0  0
 34 36  1  0  0  0
 34 59  1  0  0  0
 34102  1  0  0  0
 35 44  2  0  0  0
 35 45  1  0  0  0
 35 68  1  0  0  0
 36 56  1  0  0  0
 36103  1  0  0  0
 37 39  1  0  0  0
 37 47  1  0  0  0
 37 66  1  0  0  0
 37104  1  0  0  0
 38 43  2  0  0  0
 38 46  1  0  0  0
 38 47  1  0  0  0
 39 64  1  0  0  0
 39 67  2  0  0  0
 40 52  1  0  0  0
 40 53  2  0  0  0
 40 58  1  0  0  0
 41105  1  0  0  0
 41106  1  0  0  0
 41107  1  0  0  0
 41 48  1  0  0  0
 42 43  1  0  0  0
 42 66  1  0  0  0
 42108  1  0  0  0
 42109  1  0  0  0
 43 44  1  0  0  0
 44110  1  0  0  0
 45 46  2  0  0  0
 45111  1  0  0  0
 46112  1  0  0  0
 47113  1  0  0  0
 47114  1  0  0  0
 48 56  1  0  0  0
 48 65  1  0  0  0
 48115  1  0  0  0
 49 50  1  0  0  0
 49 53  1  0  0  0
 49 64  1  0  0  0
 49116  1  0  0  0
 50 51  1  0  0  0
 50117  1  0  0  0
 50118  1  0  0  0
 51 52  1  0  0  0
 51119  1  0  0  0
 51120  1  0  0  0
 52121  1  0  0  0
 52122  1  0  0  0
 53 54  1  0  0  0
 54 55  2  0  0  0
 54123  1  0  0  0
 55 57  1  0  0  0
 55124  1  0  0  0
 56 69  2  0  0  0
 57 58  2  0  0  0
 57125  1  0  0  0
 58126  1  0  0  0
 59 60  1  0  0  0
 59 61  1  0  0  0
 59 62  1  0  0  0
 60127  1  0  0  0
 60128  1  0  0  0
 60129  1  0  0  0
 61130  1  0  0  0
 61131  1  0  0  0
 61132  1  0  0  0
 62133  1  0  0  0
 62134  1  0  0  0
 62135  1  0  0  0
 63 65  1  0  0  0
 63136  1  0  0  0
 63137  1  0  0  0
 63138  1  0  0  0
 64139  1  0  0  0
 65140  1  0  0  0
 68 78  1  0  0  0
 71 72  1  0  0  0
 71 73  1  0  0  0
 71141  1  0  0  0
 71142  1  0  0  0
 72143  1  0  0  0
 72144  1  0  0  0
 72 74  1  0  0  0
 73 76  1  0  0  0
 73 81  1  0  0  0
 73145  1  0  0  0
 74 79  1  0  0  0
 74 81  1  0  0  0
 74146  1  0  0  0
 75147  1  0  0  0
 75148  1  0  0  0
 75149  1  0  0  0
 75 79  1  0  0  0
 76 80  1  0  0  0
 76150  1  0  0  0
 76151  1  0  0  0
 77 78  1  0  0  0
 77 79  1  0  0  0
 77152  1  0  0  0
 77153  1  0  0  0
 78154  1  0  0  0
 78155  1  0  0  0
 79156  1  0  0  0
 80157  1  0  0  0
 81158  1  0  0  0
 81159  1  0  0  0
M  CHG  1  81   1
M  ISO  4   1 100  68 101  78 101  80 100
M  END
> <chiral flag>
0

> <version>
0

> <s_m_source_file>
/data/baiqing/PycharmProjects/Reinvent-master-3.2/result/LINK_invent/BTK/process_docking_weight1_custom_sum_contain_oxygen_bond_distance_aromatic_linkinvent_7_9_3/rearranged_h_0121.sdf

> <i_m_source_file_index>
37

> <r_mmod_Potential_Energy-OPLS-2005>
43.705753326416

> <r_mmod_Stretch_Energy-OPLS-2005>
118.090866088867

> <r_mmod_Bend_Energy-OPLS-2005>
196.476715087891

> <r_mmod_Torsional_Energy-OPLS-2005>
300.693054199219

> <r_mmod_Improper_Torsional_Energy-OPLS-2005>
7.42040395736694

> <r_mmod_Van_der_Waal_Energy-OPLS-2005>
123.754692077637

> <r_mmod_Electrostatic_Energy-OPLS-2005>
-303.679748535156

> <r_mmod_Solvation_Energy-OPLS-2005>
-478.684509277344

> <b_mmod_Minimization_Converged-OPLS-2005>
0

> <r_mmod_RMS_Derivative-OPLS-2005>
5.82184791564941

$$$$
37
                    3D
 Structure written by MMmdl.
173182  0  0  1  0            999 V2000
  -29.7684  -14.5035   19.3109 C   0  0  0  0  0  0
  -30.7962  -12.3956   19.4305 C   0  0  0  0  0  0
  -29.7765  -11.8266   18.4619 C   0  0  0  0  0  0
  -28.5366  -11.6009   19.3997 C   0  0  0  0  0  0
  -28.0784  -12.7640   20.5704 C   0  0  2  0  0  0
  -29.3061  -13.1799   21.2531 C   0  0  0  0  0  0
  -25.3340  -14.4316   20.0605 C   0  0  0  0  0  0
  -24.1266  -13.4791   20.5049 C   0  0  0  0  0  0
  -24.7026  -12.2217   21.2410 C   0  0  0  0  0  0
  -23.8045  -10.8179   21.3310 C   0  0  0  0  0  0
  -23.9066   -9.7843   22.3225 C   0  0  0  0  0  0
  -23.4126   -8.4649   22.2679 C   0  0  0  0  0  0
  -22.4239   -8.1412   21.3352 C   0  0  0  0  0  0
  -22.1495   -9.1404   20.3680 C   0  0  0  0  0  0
  -22.8600  -10.3920   20.3303 C   0  0  0  0  0  0
  -21.6942   -6.1165   22.4864 C   0  0  0  0  0  0
  -21.3884   -6.5874   23.7872 C   0  0  0  0  0  0
  -21.3482   -5.7012   24.8854 C   0  0  0  0  0  0
  -21.5976   -4.3287   24.6975 C   0  0  0  0  0  0
  -21.8803   -3.8457   23.4085 C   0  0  0  0  0  0
  -21.9241   -4.7311   22.3128 C   0  0  0  0  0  0
  -22.7063  -13.8128   20.8808 C   0  0  0  0  0  0
  -22.1764   -4.2383   21.0787 F   0  0  0  0  0  0
  -21.5587   -3.4740   25.7499 F   0  0  0  0  0  0
  -30.1269  -13.4941   20.1228 N   0  0  0  0  0  0
  -26.9588  -13.9060   20.5526 N   0  0  0  0  0  0
  -26.7133  -12.6542   21.2783 N   0  0  0  0  0  0
  -22.0500  -13.0509   21.7748 N   0  0  0  0  0  0
  -25.2511  -15.7212   19.6735 N   0  0  0  0  0  0
  -30.7454  -15.2832   19.2974 O   0  0  0  0  0  0
  -21.7069   -6.9499   21.3739 O   0  0  0  0  0  0
  -22.1961  -14.8290   20.4591 O   0  0  0  0  0  0
  -24.6841  -31.7944   23.1561 C   0  0  0  0  0  0
  -25.9456  -32.4389   23.8056 C   0  0  1  0  0  0
  -26.8126  -26.4450   20.4595 C   0  0  0  0  0  0
  -25.6041  -33.8240   24.1916 N   0  0  0  0  0  0
  -23.4979  -30.4185   21.5068 C   0  0  2  0  0  0
  -24.9024  -28.7453   20.0982 C   0  0  0  0  0  0
  -22.7706  -29.4322   22.4623 C   0  0  0  0  0  0
  -18.0327  -28.1414   22.8454 C   0  0  0  0  0  0
  -24.1500  -36.7103   23.2654 C   0  0  0  0  0  0
  -26.0743  -30.4492   21.4574 C   0  0  0  0  0  0
  -26.0656  -28.9975   20.8295 C   0  0  0  0  0  0
  -27.0281  -27.8659   20.9766 C   0  0  0  0  0  0
  -25.7613  -26.4821   19.5267 C   0  0  0  0  0  0
  -24.8207  -27.5372   19.3900 C   0  0  0  0  0  0
  -23.7476  -29.7517   20.1214 C   0  0  0  0  0  0
  -25.4158  -36.2845   24.0270 C   0  0  1  0  0  0
  -20.5953  -28.3769   23.1116 C   0  0  2  0  0  0
  -20.6787  -26.9427   22.5392 C   0  0  0  0  0  0
  -19.5765  -26.6360   21.5204 C   0  0  0  0  0  0
  -18.1949  -26.7941   22.1617 C   0  0  0  0  0  0
  -19.1593  -28.8914   23.2772 C   0  0  0  0  0  0
  -18.9510  -30.1495   23.8823 C   0  0  0  0  0  0
  -17.6504  -30.6598   24.0549 C   0  0  0  0  0  0
  -25.9151  -34.9240   23.4925 C   0  0  0  0  0  0
  -16.5388  -29.9085   23.6351 C   0  0  0  0  0  0
  -16.7309  -28.6504   23.0370 C   0  0  0  0  0  0
  -26.4620  -31.6487   25.0733 C   0  0  0  0  0  0
  -25.3676  -31.3851   26.1347 C   0  0  0  0  0  0
  -27.0585  -30.2804   24.6770 C   0  0  0  0  0  0
  -27.6032  -32.4400   25.7549 C   0  0  0  0  0  0
  -27.5553  -37.1717   24.8466 C   0  0  0  0  0  0
  -21.4358  -29.3023   22.3407 N   0  0  0  0  0  0
  -26.4260  -37.3626   23.9408 N   0  0  0  0  0  0
  -24.7789  -30.9309   22.0871 N   0  0  0  0  0  0
  -23.4165  -28.7894   23.2942 O   0  0  0  0  0  0
  -27.3987  -25.0362   20.8342 O   0  0  0  0  0  0
  -26.5788  -34.8826   22.4544 O   0  0  0  0  0  0
  -23.5875  -32.1120   23.6484 O   0  0  0  0  0  0
  -25.6479  -15.6885   22.6197 C   0  0  0  0  0  0
  -29.1172  -18.8851   22.5169 C   0  0  0  0  0  0
  -28.1839  -19.5808   21.5352 C   0  0  0  0  0  0
  -26.2670  -10.5403   20.4661 C   0  0  0  0  0  0
  -25.7512  -12.5996   23.4044 C   0  0  0  0  0  0
  -28.8656  -17.3861   22.4968 C   0  0  0  0  0  0
  -26.3860  -17.3847   21.9155 C   0  0  1  0  0  0
  -26.6806  -19.4689   21.9052 C   0  0  2  0  0  0
  -26.3475  -10.7960   22.5404 C   0  0  2  0  0  0
  -25.8590  -12.3329   19.3588 C   0  0  2  0  0  0
  -27.0507  -23.0582   19.2108 C   0  0  0  0  0  0
  -26.2947  -21.4114   21.3665 C   0  0  0  0  0  0
  -27.0185  -13.4108   18.1200 C   0  0  0  0  0  0
  -27.0908  -23.2025   20.7358 C   0  0  2  0  0  0
  -25.4871  -14.0812   22.2934 N   0  0  0  0  0  0
  -28.4806  -14.4271   18.4563 N   0  0  0  0  0  0
  -27.4768  -17.1124   22.8849 N   0  3  0  0  0  0
  -25.2611  -15.8979   23.7735 O   0  0  0  0  0  0
  -27.6577  -10.7444   22.8191 F   0  0  0  0  0  0
  -31.6887  -12.7392   18.9046 H   0  0  0  0  0  0
  -31.1276  -11.6414   20.1455 H   0  0  0  0  0  0
  -30.1287  -10.8659   18.0833 H   0  0  0  0  0  0
  -29.5979  -12.4253   17.5699 H   0  0  0  0  0  0
  -28.9039  -10.7697   20.0103 H   0  0  0  0  0  0
  -27.8214  -11.1182   18.7161 H   0  0  0  0  0  0
  -28.2299  -12.6966   19.6255 H   0  0  0  0  0  0
  -29.7307  -12.3657   21.8423 H   0  0  0  0  0  0
  -29.1639  -14.0363   21.9149 H   0  0  0  0  0  0
  -24.2686  -10.0343   23.3015 H   0  0  0  0  0  0
  -23.6465   -7.7916   23.0788 H   0  0  0  0  0  0
  -21.4150   -8.9342   19.6030 H   0  0  0  0  0  0
  -22.6527  -11.0634   19.5093 H   0  0  0  0  0  0
  -21.1822   -7.6365   23.9446 H   0  0  0  0  0  0
  -21.1205   -6.0767   25.8733 H   0  0  0  0  0  0
  -22.0640   -2.7935   23.2575 H   0  0  0  0  0  0
  -22.4427  -12.1954   22.1363 H   0  0  0  0  0  0
  -21.1137  -13.3112   22.0538 H   0  0  0  0  0  0
  -24.3694  -16.0263   19.2784 H   0  0  0  0  0  0
  -26.0363  -16.0946   19.1556 H   0  0  0  0  0  0
  -26.7498  -32.4754   23.0706 H   0  0  0  0  0  0
  -25.0114  -33.9278   25.0018 H   0  0  0  0  0  0
  -22.8279  -31.2640   21.3386 H   0  0  0  0  0  0
  -23.3786  -35.9405   23.3264 H   0  0  0  0  0  0
  -24.3554  -36.8828   22.2076 H   0  0  0  0  0  0
  -23.7237  -37.6254   23.6777 H   0  0  0  0  0  0
  -26.3188  -31.1486   20.6565 H   0  0  0  0  0  0
  -26.9207  -30.4962   22.1292 H   0  0  0  0  0  0
  -27.8610  -28.0222   21.6477 H   0  0  0  0  0  0
  -25.5302  -25.5642   19.0064 H   0  0  0  0  0  0
  -23.9593  -27.3629   18.7600 H   0  0  0  0  0  0
  -23.9746  -30.5257   19.3873 H   0  0  0  0  0  0
  -22.8346  -29.2699   19.7662 H   0  0  0  0  0  0
  -25.1374  -36.1586   25.0757 H   0  0  0  0  0  0
  -21.0059  -28.3416   24.1231 H   0  0  0  0  0  0
  -20.5634  -26.2404   23.3660 H   0  0  0  0  0  0
  -21.6651  -26.7361   22.1216 H   0  0  0  0  0  0
  -19.6919  -25.6248   21.1283 H   0  0  0  0  0  0
  -19.6702  -27.3129   20.6698 H   0  0  0  0  0  0
  -17.4211  -26.6673   21.4025 H   0  0  0  0  0  0
  -18.0348  -26.0096   22.9029 H   0  0  0  0  0  0
  -19.7989  -30.7323   24.2160 H   0  0  0  0  0  0
  -17.5061  -31.6275   24.5166 H   0  0  0  0  0  0
  -15.5385  -30.2974   23.7714 H   0  0  0  0  0  0
  -15.8705  -28.0801   22.7135 H   0  0  0  0  0  0
  -24.5867  -30.7184   25.7672 H   0  0  0  0  0  0
  -24.8871  -32.3096   26.4556 H   0  0  0  0  0  0
  -25.7850  -30.9163   27.0269 H   0  0  0  0  0  0
  -26.3311  -29.6328   24.1866 H   0  0  0  0  0  0
  -27.4031  -29.7358   25.5572 H   0  0  0  0  0  0
  -27.9301  -30.3881   24.0310 H   0  0  0  0  0  0
  -27.2526  -33.3770   26.1888 H   0  0  0  0  0  0
  -28.3962  -32.6859   25.0477 H   0  0  0  0  0  0
  -28.0574  -31.8716   26.5674 H   0  0  0  0  0  0
  -28.2527  -38.0052   24.7519 H   0  0  0  0  0  0
  -28.1091  -36.2569   24.6296 H   0  0  0  0  0  0
  -27.2257  -37.1349   25.8864 H   0  0  0  0  0  0
  -20.9626  -29.8722   21.6531 H   0  0  0  0  0  0
  -26.0067  -38.2659   24.1444 H   0  0  0  0  0  0
  -28.9749  -19.2902   23.5208 H   0  0  0  0  0  0
  -30.1565  -19.0883   22.2553 H   0  0  0  0  0  0
  -28.3406  -19.1996   20.5256 H   0  0  0  0  0  0
  -28.5086  -20.6198   21.5016 H   0  0  0  0  0  0
  -25.5482   -9.7820   20.1621 H   0  0  0  0  0  0
  -27.0882   -9.8940   20.1826 H   0  0  0  0  0  0
  -26.4748  -12.8835   24.1700 H   0  0  0  0  0  0
  -24.8133  -12.4439   23.9426 H   0  0  0  0  0  0
  -29.5272  -16.9044   23.2171 H   0  0  0  0  0  0
  -29.0923  -16.9518   21.5227 H   0  0  0  0  0  0
  -26.7679  -17.1003   20.9409 H   0  0  0  0  0  0
  -26.5806  -19.6321   22.9794 H   0  0  0  0  0  0
  -26.1739   -9.8936   23.1218 H   0  0  0  0  0  0
  -24.9789  -12.0905   18.7449 H   0  0  0  0  0  0
  -27.3390  -22.0509   18.9106 H   0  0  0  0  0  0
  -27.7313  -23.7542   18.7204 H   0  0  0  0  0  0
  -26.0475  -23.2419   18.8263 H   0  0  0  0  0  0
  -25.7188  -21.7453   22.2303 H   0  0  0  0  0  0
  -25.5062  -21.2640   20.6271 H   0  0  0  0  0  0
  -26.3429  -14.1097   17.6252 H   0  0  0  0  0  0
  -27.2924  -12.7595   17.2887 H   0  0  0  0  0  0
  -28.1147  -22.9663   21.0259 H   0  0  0  0  0  0
  -28.4777  -15.2251   17.8374 H   0  0  0  0  0  0
  -27.2499  -17.5859   23.7453 H   0  0  0  0  0  0
  -27.3959  -16.1309   23.1070 H   0  0  0  0  0  0
  1 25  1  0  0  0
  1 30  2  0  0  0
  1 86  1  0  0  0
  2  3  1  0  0  0
  2 25  1  0  0  0
  2 90  1  0  0  0
  2 91  1  0  0  0
  3  4  1  0  0  0
  3 92  1  0  0  0
  3 93  1  0  0  0
  4  5  1  0  0  0
  4 94  1  0  0  0
  4 95  1  0  0  0
  5  6  1  0  0  0
  5 26  1  0  0  0
  5 96  1  0  0  0
  6 25  1  0  0  0
  6 97  1  0  0  0
  6 98  1  0  0  0
  7  8  2  0  0  0
  7 26  1  0  0  0
  7 29  1  0  0  0
  8  9  1  0  0  0
  8 22  1  0  0  0
  9 10  1  0  0  0
  9 27  2  0  0  0
 10 11  2  0  0  0
 10 15  1  0  0  0
 11 12  1  0  0  0
 11 99  1  0  0  0
 12 13  2  0  0  0
 12100  1  0  0  0
 13 14  1  0  0  0
 13 31  1  0  0  0
 14 15  2  0  0  0
 14101  1  0  0  0
 15102  1  0  0  0
 16 17  2  0  0  0
 16 21  1  0  0  0
 16 31  1  0  0  0
 17 18  1  0  0  0
 17103  1  0  0  0
 18 19  2  0  0  0
 18104  1  0  0  0
 19 20  1  0  0  0
 19 24  1  0  0  0
 20 21  2  0  0  0
 20105  1  0  0  0
 21 23  1  0  0  0
 22 28  1  0  0  0
 22 32  2  0  0  0
 26 27  1  0  0  0
 28106  1  0  0  0
 28107  1  0  0  0
 29108  1  0  0  0
 29109  1  0  0  0
 33 34  1  0  0  0
 33 66  1  0  0  0
 33 70  2  0  0  0
 34 36  1  0  0  0
 34 59  1  0  0  0
 34110  1  0  0  0
 35 44  2  0  0  0
 35 45  1  0  0  0
 35 68  1  0  0  0
 36 56  1  0  0  0
 36111  1  0  0  0
 37 39  1  0  0  0
 37 47  1  0  0  0
 37 66  1  0  0  0
 37112  1  0  0  0
 38 43  2  0  0  0
 38 46  1  0  0  0
 38 47  1  0  0  0
 39 64  1  0  0  0
 39 67  2  0  0  0
 40 52  1  0  0  0
 40 53  2  0  0  0
 40 58  1  0  0  0
 41113  1  0  0  0
 41114  1  0  0  0
 41115  1  0  0  0
 41 48  1  0  0  0
 42 43  1  0  0  0
 42 66  1  0  0  0
 42116  1  0  0  0
 42117  1  0  0  0
 43 44  1  0  0  0
 44118  1  0  0  0
 45 46  2  0  0  0
 45119  1  0  0  0
 46120  1  0  0  0
 47121  1  0  0  0
 47122  1  0  0  0
 48 56  1  0  0  0
 48 65  1  0  0  0
 48123  1  0  0  0
 49 50  1  0  0  0
 49 53  1  0  0  0
 49 64  1  0  0  0
 49124  1  0  0  0
 50 51  1  0  0  0
 50125  1  0  0  0
 50126  1  0  0  0
 51 52  1  0  0  0
 51127  1  0  0  0
 51128  1  0  0  0
 52129  1  0  0  0
 52130  1  0  0  0
 53 54  1  0  0  0
 54 55  2  0  0  0
 54131  1  0  0  0
 55 57  1  0  0  0
 55132  1  0  0  0
 56 69  2  0  0  0
 57 58  2  0  0  0
 57133  1  0  0  0
 58134  1  0  0  0
 59 60  1  0  0  0
 59 61  1  0  0  0
 59 62  1  0  0  0
 60135  1  0  0  0
 60136  1  0  0  0
 60137  1  0  0  0
 61138  1  0  0  0
 61139  1  0  0  0
 61140  1  0  0  0
 62141  1  0  0  0
 62142  1  0  0  0
 62143  1  0  0  0
 63 65  1  0  0  0
 63144  1  0  0  0
 63145  1  0  0  0
 63146  1  0  0  0
 64147  1  0  0  0
 65148  1  0  0  0
 68 84  1  0  0  0
 71 85  1  0  0  0
 71 88  2  0  0  0
 71 77  1  0  0  0
 72 73  1  0  0  0
 72 76  1  0  0  0
 72149  1  0  0  0
 72150  1  0  0  0
 73 78  1  0  0  0
 73151  1  0  0  0
 73152  1  0  0  0
 74 79  1  0  0  0
 74 80  1  0  0  0
 74153  1  0  0  0
 74154  1  0  0  0
 75 79  1  0  0  0
 75 85  1  0  0  0
 75155  1  0  0  0
 75156  1  0  0  0
 76 87  1  0  0  0
 76157  1  0  0  0
 76158  1  0  0  0
 77 78  1  0  0  0
 77 87  1  0  0  0
 77159  1  0  0  0
 78 82  1  0  0  0
 78160  1  0  0  0
 79 89  1  0  0  0
 79161  1  0  0  0
 80 83  1  0  0  0
 80 85  1  0  0  0
 80162  1  0  0  0
 81163  1  0  0  0
 81164  1  0  0  0
 81165  1  0  0  0
 81 84  1  0  0  0
 82 84  1  0  0  0
 82166  1  0  0  0
 82167  1  0  0  0
 83 86  1  0  0  0
 83168  1  0  0  0
 83169  1  0  0  0
 84170  1  0  0  0
 86171  1  0  0  0
 87172  1  0  0  0
 87173  1  0  0  0
M  CHG  1  87   1
M  ISO  4   1 100  68 101  84 101  86 100
M  END
> <chiral flag>
0

> <version>
0

> <s_m_source_file>
/data/baiqing/PycharmProjects/Reinvent-master-3.2/result/LINK_invent/BTK/process_docking_weight1_custom_sum_contain_oxygen_bond_distance_aromatic_linkinvent_7_9_3/rearranged_h_0121.sdf

> <i_m_source_file_index>
38

> <r_mmod_Potential_Energy-OPLS-2005>
19192.404296875

> <r_mmod_Stretch_Energy-OPLS-2005>
10989.228515625

> <r_mmod_Bend_Energy-OPLS-2005>
2155.1640625

> <r_mmod_Torsional_Energy-OPLS-2005>
623.061096191406

> <r_mmod_Improper_Torsional_Energy-OPLS-2005>
43.3547439575195

> <r_mmod_Van_der_Waal_Energy-OPLS-2005>
3825.07153320312

> <r_mmod_Electrostatic_Energy-OPLS-2005>
-418.831695556641

> <r_mmod_Solvation_Energy-OPLS-2005>
-437.218505859375

> <b_mmod_Minimization_Converged-OPLS-2005>
0

> <r_mmod_RMS_Derivative-OPLS-2005>
5.28350162506104

$$$$
38
                    3D
 Structure written by MMmdl.
151159  0  0  1  0            999 V2000
  -30.4356  -15.3461   20.3067 C   0  0  0  0  0  0
  -30.4442  -12.8587   19.5104 C   0  0  0  0  0  0
  -29.5372  -12.5601   18.2891 C   0  0  0  0  0  0
  -28.0988  -12.2405   18.7370 C   0  0  0  0  0  0
  -27.5996  -13.2300   19.8128 C   0  0  2  0  0  0
  -28.6450  -13.5053   20.9244 C   0  0  0  0  0  0
  -25.2336  -13.8047   20.5798 C   0  0  0  0  0  0
  -24.1680  -13.0297   20.9314 C   0  0  0  0  0  0
  -24.6329  -11.6804   20.8830 C   0  0  0  0  0  0
  -23.9024  -10.4214   21.0452 C   0  0  0  0  0  0
  -24.3585   -9.4137   21.9217 C   0  0  0  0  0  0
  -23.6264   -8.2180   22.0767 C   0  0  0  0  0  0
  -22.4250   -8.0239   21.3546 C   0  0  0  0  0  0
  -21.9884   -9.0213   20.4651 C   0  0  0  0  0  0
  -22.7213  -10.2083   20.3075 C   0  0  0  0  0  0
  -21.6833   -6.0717   22.5281 C   0  0  0  0  0  0
  -21.4001   -6.5626   23.8214 C   0  0  0  0  0  0
  -21.3656   -5.6780   24.9177 C   0  0  0  0  0  0
  -21.6048   -4.3044   24.7229 C   0  0  0  0  0  0
  -21.8820   -3.8134   23.4351 C   0  0  0  0  0  0
  -21.9188   -4.6948   22.3406 C   0  0  0  0  0  0
  -22.7708  -13.5116   21.1919 C   0  0  0  0  0  0
  -22.1657   -4.2138   21.0982 F   0  0  0  0  0  0
  -21.5632   -3.4531   25.7743 F   0  0  0  0  0  0
  -29.8660  -14.0273   20.2724 N   0  0  0  0  0  0
  -26.2762  -12.9256   20.3291 N   0  0  0  0  0  0
  -25.9254  -11.6413   20.5803 N   0  0  0  0  0  0
  -22.0334  -12.8151   22.0482 N   0  0  0  0  0  0
  -25.3788  -15.1779   20.4216 N   0  0  0  0  0  0
  -31.6735  -15.3125   20.2350 O   0  0  0  0  0  0
  -21.6609   -6.8849   21.4242 O   0  0  0  0  0  0
  -22.3430  -14.5431   20.6740 O   0  0  0  0  0  0
  -24.6628  -31.8223   23.1680 C   0  0  0  0  0  0
  -25.9307  -32.4583   23.8152 C   0  0  1  0  0  0
  -27.2382  -26.9300   20.1838 C   0  0  0  0  0  0
  -25.5968  -33.8396   24.2061 N   0  0  0  0  0  0
  -23.4791  -30.4302   21.5173 C   0  0  2  0  0  0
  -24.9370  -28.8141   20.1104 C   0  0  0  0  0  0
  -22.7670  -29.4425   22.4781 C   0  0  0  0  0  0
  -18.0322  -28.1409   22.8466 C   0  0  0  0  0  0
  -24.1495  -36.7209   23.2647 C   0  0  0  0  0  0
  -26.0469  -30.6284   21.3988 C   0  0  0  0  0  0
  -26.1179  -29.2172   20.7452 C   0  0  0  0  0  0
  -27.2585  -28.2952   20.7593 C   0  0  0  0  0  0
  -26.0291  -26.6792   19.4946 C   0  0  0  0  0  0
  -24.9181  -27.5656   19.4649 C   0  0  0  0  0  0
  -23.7197  -29.7396   20.1451 C   0  0  0  0  0  0
  -25.4136  -36.2967   24.0299 C   0  0  1  0  0  0
  -20.5946  -28.3753   23.1190 C   0  0  2  0  0  0
  -20.6798  -26.9433   22.5407 C   0  0  0  0  0  0
  -19.5773  -26.6372   21.5219 C   0  0  0  0  0  0
  -18.1954  -26.7940   22.1624 C   0  0  0  0  0  0
  -19.1583  -28.8903   23.2812 C   0  0  0  0  0  0
  -18.9494  -30.1492   23.8846 C   0  0  0  0  0  0
  -17.6486  -30.6598   24.0555 C   0  0  0  0  0  0
  -25.9099  -34.9349   23.5008 C   0  0  0  0  0  0
  -16.5376  -29.9085   23.6341 C   0  0  0  0  0  0
  -16.7304  -28.6506   23.0360 C   0  0  0  0  0  0
  -26.4557  -31.6529   25.0684 C   0  0  0  0  0  0
  -25.3676  -31.3782   26.1335 C   0  0  0  0  0  0
  -27.0458  -30.2895   24.6420 C   0  0  0  0  0  0
  -27.6045  -32.4339   25.7488 C   0  0  0  0  0  0
  -27.5572  -37.1760   24.8465 C   0  0  0  0  0  0
  -21.4337  -29.3038   22.3534 N   0  0  0  0  0  0
  -26.4283  -37.3702   23.9405 N   0  0  0  0  0  0
  -24.7507  -30.9876   22.0820 N   0  0  0  0  0  0
  -23.4212  -28.8007   23.3036 O   0  0  0  0  0  0
  -28.2584  -25.8428   20.2977 O   0  0  0  0  0  0
  -26.5719  -34.8890   22.4610 O   0  0  0  0  0  0
  -23.5694  -32.1198   23.6767 O   0  0  0  0  0  0
  -29.3814  -19.7970   20.6341 C   0  0  0  0  0  0
  -28.0473  -17.6993   18.6333 C   0  0  0  0  0  0
  -29.3699  -18.4080   18.4492 C   0  0  0  0  0  0
  -28.4731  -16.4161   19.3431 C   0  0  0  0  0  0
  -29.9053  -18.2965   19.8731 C   0  0  2  0  0  0
  -28.9136  -22.7207   20.6321 C   0  0  0  0  0  0
  -28.1668  -24.2248   19.9539 C   0  0  0  0  0  0
  -29.6777  -16.6430   20.1563 N   0  0  0  0  0  0
  -29.1543  -21.1563   20.0699 N   0  0  0  0  0  0
  -29.2079  -19.6993   21.8486 O   0  0  0  0  0  0
  -31.4548  -13.0774   19.1630 H   0  0  0  0  0  0
  -30.5384  -11.9806   20.1512 H   0  0  0  0  0  0
  -29.9422  -11.7291   17.7095 H   0  0  0  0  0  0
  -29.5315  -13.4239   17.6226 H   0  0  0  0  0  0
  -28.0936  -11.2289   19.1444 H   0  0  0  0  0  0
  -27.4240  -12.2290   17.8798 H   0  0  0  0  0  0
  -27.4401  -14.1229   19.2307 H   0  0  0  0  0  0
  -28.8475  -12.6080   21.5109 H   0  0  0  0  0  0
  -28.2640  -14.2511   21.6234 H   0  0  0  0  0  0
  -25.2728   -9.5616   22.4794 H   0  0  0  0  0  0
  -23.9971   -7.4566   22.7480 H   0  0  0  0  0  0
  -21.0816   -8.8736   19.8953 H   0  0  0  0  0  0
  -22.3690  -10.9631   19.6188 H   0  0  0  0  0  0
  -21.1987   -7.6133   23.9715 H   0  0  0  0  0  0
  -21.1479   -6.0508   25.9079 H   0  0  0  0  0  0
  -22.0607   -2.7598   23.2849 H   0  0  0  0  0  0
  -22.3922  -11.9821   22.4906 H   0  0  0  0  0  0
  -21.0958  -13.1209   22.2667 H   0  0  0  0  0  0
  -24.5989  -15.8149   20.5433 H   0  0  0  0  0  0
  -26.2151  -15.6368   20.0912 H   0  0  0  0  0  0
  -26.7378  -32.5126   23.0868 H   0  0  0  0  0  0
  -25.0044  -33.9469   25.0164 H   0  0  0  0  0  0
  -22.7924  -31.2612   21.3433 H   0  0  0  0  0  0
  -23.3769  -35.9529   23.3281 H   0  0  0  0  0  0
  -24.3568  -36.8886   22.2067 H   0  0  0  0  0  0
  -23.7244  -37.6385   23.6724 H   0  0  0  0  0  0
  -26.2253  -31.3681   20.6172 H   0  0  0  0  0  0
  -26.9075  -30.6879   22.0534 H   0  0  0  0  0  0
  -28.1498  -28.6010   21.2891 H   0  0  0  0  0  0
  -25.9075  -25.7257   19.0014 H   0  0  0  0  0  0
  -24.0219  -27.2499   18.9487 H   0  0  0  0  0  0
  -23.8709  -30.5058   19.3839 H   0  0  0  0  0  0
  -22.8307  -29.1897   19.8312 H   0  0  0  0  0  0
  -25.1335  -36.1764   25.0791 H   0  0  0  0  0  0
  -21.0034  -28.3366   24.1314 H   0  0  0  0  0  0
  -20.5680  -26.2372   23.3650 H   0  0  0  0  0  0
  -21.6660  -26.7408   22.1213 H   0  0  0  0  0  0
  -19.6932  -25.6270   21.1278 H   0  0  0  0  0  0
  -19.6713  -27.3156   20.6730 H   0  0  0  0  0  0
  -17.4224  -26.6684   21.4026 H   0  0  0  0  0  0
  -18.0348  -26.0094   22.9031 H   0  0  0  0  0  0
  -19.7968  -30.7324   24.2189 H   0  0  0  0  0  0
  -17.5037  -31.6271   24.5170 H   0  0  0  0  0  0
  -15.5374  -30.2972   23.7693 H   0  0  0  0  0  0
  -15.8704  -28.0810   22.7102 H   0  0  0  0  0  0
  -24.5869  -30.7126   25.7633 H   0  0  0  0  0  0
  -24.8852  -32.2985   26.4634 H   0  0  0  0  0  0
  -25.7896  -30.9019   27.0194 H   0  0  0  0  0  0
  -26.3128  -29.6561   24.1413 H   0  0  0  0  0  0
  -27.3980  -29.7270   25.5077 H   0  0  0  0  0  0
  -27.9071  -30.4079   23.9843 H   0  0  0  0  0  0
  -27.2611  -33.3684   26.1939 H   0  0  0  0  0  0
  -28.3919  -32.6830   25.0362 H   0  0  0  0  0  0
  -28.0643  -31.8547   26.5506 H   0  0  0  0  0  0
  -28.2571  -38.0072   24.7511 H   0  0  0  0  0  0
  -28.1087  -36.2597   24.6298 H   0  0  0  0  0  0
  -27.2285  -37.1408   25.8867 H   0  0  0  0  0  0
  -20.9602  -29.8714   21.6643 H   0  0  0  0  0  0
  -26.0133  -38.2764   24.1404 H   0  0  0  0  0  0
  -27.5433  -17.4999   17.6861 H   0  0  0  0  0  0
  -27.3622  -18.2827   19.2518 H   0  0  0  0  0  0
  -29.2529  -19.4235   18.0703 H   0  0  0  0  0  0
  -30.0097  -17.8721   17.7458 H   0  0  0  0  0  0
  -28.6640  -15.6788   18.5605 H   0  0  0  0  0  0
  -27.6813  -16.0873   20.0027 H   0  0  0  0  0  0
  -30.9890  -18.4141   19.8299 H   0  0  0  0  0  0
  -28.4474  -22.5864   21.6084 H   0  0  0  0  0  0
  -29.9299  -23.0291   20.8778 H   0  0  0  0  0  0
  -27.0987  -24.0104   19.9529 H   0  0  0  0  0  0
  -28.4353  -24.2007   18.8978 H   0  0  0  0  0  0
  -29.2758  -21.1503   19.0653 H   0  0  0  0  0  0
  1 25  1  0  0  0
  1 30  2  0  0  0
  1 78  1  0  0  0
  2  3  1  0  0  0
  2 25  1  0  0  0
  2 81  1  0  0  0
  2 82  1  0  0  0
  3  4  1  0  0  0
  3 83  1  0  0  0
  3 84  1  0  0  0
  4  5  1  0  0  0
  4 85  1  0  0  0
  4 86  1  0  0  0
  5  6  1  0  0  0
  5 26  1  0  0  0
  5 87  1  0  0  0
  6 25  1  0  0  0
  6 88  1  0  0  0
  6 89  1  0  0  0
  7  8  2  0  0  0
  7 26  1  0  0  0
  7 29  1  0  0  0
  8  9  1  0  0  0
  8 22  1  0  0  0
  9 10  1  0  0  0
  9 27  2  0  0  0
 10 11  2  0  0  0
 10 15  1  0  0  0
 11 12  1  0  0  0
 11 90  1  0  0  0
 12 13  2  0  0  0
 12 91  1  0  0  0
 13 14  1  0  0  0
 13 31  1  0  0  0
 14 15  2  0  0  0
 14 92  1  0  0  0
 15 93  1  0  0  0
 16 17  2  0  0  0
 16 21  1  0  0  0
 16 31  1  0  0  0
 17 18  1  0  0  0
 17 94  1  0  0  0
 18 19  2  0  0  0
 18 95  1  0  0  0
 19 20  1  0  0  0
 19 24  1  0  0  0
 20 21  2  0  0  0
 20 96  1  0  0  0
 21 23  1  0  0  0
 22 28  1  0  0  0
 22 32  2  0  0  0
 26 27  1  0  0  0
 28 97  1  0  0  0
 28 98  1  0  0  0
 29 99  1  0  0  0
 29100  1  0  0  0
 33 34  1  0  0  0
 33 66  1  0  0  0
 33 70  2  0  0  0
 34 36  1  0  0  0
 34 59  1  0  0  0
 34101  1  0  0  0
 35 44  2  0  0  0
 35 45  1  0  0  0
 35 68  1  0  0  0
 36 56  1  0  0  0
 36102  1  0  0  0
 37 39  1  0  0  0
 37 47  1  0  0  0
 37 66  1  0  0  0
 37103  1  0  0  0
 38 43  2  0  0  0
 38 46  1  0  0  0
 38 47  1  0  0  0
 39 64  1  0  0  0
 39 67  2  0  0  0
 40 52  1  0  0  0
 40 53  2  0  0  0
 40 58  1  0  0  0
 41104  1  0  0  0
 41105  1  0  0  0
 41106  1  0  0  0
 41 48  1  0  0  0
 42 43  1  0  0  0
 42 66  1  0  0  0
 42107  1  0  0  0
 42108  1  0  0  0
 43 44  1  0  0  0
 44109  1  0  0  0
 45 46  2  0  0  0
 45110  1  0  0  0
 46111  1  0  0  0
 47112  1  0  0  0
 47113  1  0  0  0
 48 56  1  0  0  0
 48 65  1  0  0  0
 48114  1  0  0  0
 49 50  1  0  0  0
 49 53  1  0  0  0
 49 64  1  0  0  0
 49115  1  0  0  0
 50 51  1  0  0  0
 50116  1  0  0  0
 50117  1  0  0  0
 51 52  1  0  0  0
 51118  1  0  0  0
 51119  1  0  0  0
 52120  1  0  0  0
 52121  1  0  0  0
 53 54  1  0  0  0
 54 55  2  0  0  0
 54122  1  0  0  0
 55 57  1  0  0  0
 55123  1  0  0  0
 56 69  2  0  0  0
 57 58  2  0  0  0
 57124  1  0  0  0
 58125  1  0  0  0
 59 60  1  0  0  0
 59 61  1  0  0  0
 59 62  1  0  0  0
 60126  1  0  0  0
 60127  1  0  0  0
 60128  1  0  0  0
 61129  1  0  0  0
 61130  1  0  0  0
 61131  1  0  0  0
 62132  1  0  0  0
 62133  1  0  0  0
 62134  1  0  0  0
 63 65  1  0  0  0
 63135  1  0  0  0
 63136  1  0  0  0
 63137  1  0  0  0
 64138  1  0  0  0
 65139  1  0  0  0
 68 77  1  0  0  0
 71 79  1  0  0  0
 71 80  2  0  0  0
 71 75  1  0  0  0
 72 73  1  0  0  0
 72 74  1  0  0  0
 72140  1  0  0  0
 72141  1  0  0  0
 73 75  1  0  0  0
 73142  1  0  0  0
 73143  1  0  0  0
 74 78  1  0  0  0
 74144  1  0  0  0
 74145  1  0  0  0
 75 78  1  0  0  0
 75146  1  0  0  0
 76 77  1  0  0  0
 76 79  1  0  0  0
 76147  1  0  0  0
 76148  1  0  0  0
 77149  1  0  0  0
 77150  1  0  0  0
 79151  1  0  0  0
M  ISO  4   1 100  68 101  77 101  78 100
M  END
> <chiral flag>
0

> <version>
0

> <s_m_source_file>
/data/baiqing/PycharmProjects/Reinvent-master-3.2/result/LINK_invent/BTK/process_docking_weight1_custom_sum_contain_oxygen_bond_distance_aromatic_linkinvent_7_9_3/rearranged_h_0121.sdf

> <i_m_source_file_index>
39

> <r_mmod_Potential_Energy-OPLS-2005>
1428.60339355469

> <r_mmod_Stretch_Energy-OPLS-2005>
636.473327636719

> <r_mmod_Bend_Energy-OPLS-2005>
507.500549316406

> <r_mmod_Torsional_Energy-OPLS-2005>
270.4462890625

> <r_mmod_Improper_Torsional_Energy-OPLS-2005>
10.1523065567017

> <r_mmod_Van_der_Waal_Energy-OPLS-2005>
120.580345153809

> <r_mmod_Electrostatic_Energy-OPLS-2005>
-379.536407470703

> <r_mmod_Solvation_Energy-OPLS-2005>
-247.910186767578

> <b_mmod_Minimization_Converged-OPLS-2005>
0

> <r_mmod_RMS_Derivative-OPLS-2005>
0.772704601287842

$$$$
39
                    3D
 Structure written by MMmdl.
169177  0  0  1  0            999 V2000
  -30.8224  -14.0298   21.0738 C   0  0  0  0  0  0
  -30.4396  -12.2864   19.4011 C   0  0  0  0  0  0
  -29.6163  -12.4016   18.1185 C   0  0  0  0  0  0
  -28.1447  -12.3161   18.4606 C   0  0  0  0  0  0
  -27.7765  -13.5645   19.2645 C   0  0  2  0  0  0
  -28.6436  -13.7873   20.4506 C   0  0  0  0  0  0
  -25.4144  -14.6094   19.7742 C   0  0  0  0  0  0
  -24.2021  -13.9934   19.7941 C   0  0  0  0  0  0
  -24.8958  -12.9754   20.4885 C   0  0  0  0  0  0
  -24.0057  -11.1613   22.6794 C   0  0  0  0  0  0
  -24.4977   -9.7013   22.8783 C   0  0  0  0  0  0
  -24.0028   -8.3733   22.3902 C   0  0  0  0  0  0
  -22.7410   -8.1995   21.7422 C   0  0  0  0  0  0
  -22.0920   -9.4074   21.6671 C   0  0  0  0  0  0
  -22.6193  -10.4215   22.6045 C   0  0  0  0  0  0
  -21.8114   -6.1311   22.5266 C   0  0  0  0  0  0
  -21.4672   -6.5908   23.8208 C   0  0  0  0  0  0
  -21.3628   -5.6905   24.9018 C   0  0  0  0  0  0
  -21.5804   -4.3158   24.6995 C   0  0  0  0  0  0
  -21.8477   -3.8375   23.4047 C   0  0  0  0  0  0
  -21.9476   -4.7365   22.3228 C   0  0  0  0  0  0
  -22.7463  -14.5801   19.9831 C   0  0  0  0  0  0
  -22.2022   -4.2508   21.0839 F   0  0  0  0  0  0
  -21.5280   -3.4569   25.7457 F   0  0  0  0  0  0
  -29.9857  -13.2023   20.4606 N   0  0  0  0  0  0
  -26.3977  -13.6487   19.6084 N   0  0  0  0  0  0
  -25.7461  -12.6096   19.4950 N   0  0  0  0  0  0
  -21.6106  -13.8948   20.2526 N   0  0  0  0  0  0
  -25.7576  -15.9082   19.8446 N   0  0  0  0  0  0
  -31.7356  -14.6171   20.4661 O   0  0  0  0  0  0
  -22.0500   -7.0113   21.4802 O   0  0  0  0  0  0
  -22.5944  -15.7394   20.1891 O   0  0  0  0  0  0
  -24.7400  -31.7041   23.1100 C   0  0  0  0  0  0
  -25.9714  -32.3933   23.7795 C   0  0  1  0  0  0
  -26.4266  -25.5849   20.7205 C   0  0  0  0  0  0
  -25.6040  -33.7853   24.1528 N   0  0  0  0  0  0
  -23.5697  -30.3072   21.4778 C   0  0  2  0  0  0
  -24.9126  -28.4326   20.1661 C   0  0  0  0  0  0
  -22.7841  -29.3870   22.4525 C   0  0  0  0  0  0
  -18.0330  -28.1440   22.8430 C   0  0  0  0  0  0
  -24.1506  -36.6932   23.2671 C   0  0  0  0  0  0
  -26.1274  -30.0384   21.5690 C   0  0  0  0  0  0
  -26.0223  -28.4921   21.0009 C   0  0  0  0  0  0
  -26.7659  -27.1156   21.2206 C   0  0  0  0  0  0
  -25.5675  -26.0159   19.6365 C   0  0  0  0  0  0
  -24.8211  -27.2448   19.4178 C   0  0  0  0  0  0
  -23.8520  -29.5712   20.1213 C   0  0  0  0  0  0
  -25.4183  -36.2599   24.0223 C   0  0  1  0  0  0
  -20.5963  -28.3786   23.1058 C   0  0  2  0  0  0
  -20.6754  -26.9397   22.5429 C   0  0  0  0  0  0
  -19.5747  -26.6332   21.5231 C   0  0  0  0  0  0
  -18.1930  -26.7960   22.1608 C   0  0  0  0  0  0
  -19.1604  -28.8954   23.2718 C   0  0  0  0  0  0
  -18.9517  -30.1535   23.8777 C   0  0  0  0  0  0
  -17.6504  -30.6613   24.0545 C   0  0  0  0  0  0
  -25.9212  -34.9003   23.4770 C   0  0  0  0  0  0
  -16.5390  -29.9092   23.6363 C   0  0  0  0  0  0
  -16.7314  -28.6519   23.0370 C   0  0  0  0  0  0
  -26.4697  -31.6414   25.0783 C   0  0  0  0  0  0
  -25.3561  -31.3986   26.1252 C   0  0  0  0  0  0
  -27.0791  -30.2670   24.7419 C   0  0  0  0  0  0
  -27.6004  -32.4532   25.7545 C   0  0  0  0  0  0
  -27.5540  -37.1616   24.8463 C   0  0  0  0  0  0
  -21.4465  -29.2913   22.3269 N   0  0  0  0  0  0
  -26.4236  -37.3452   23.9405 N   0  0  0  0  0  0
  -24.8557  -30.7554   22.0938 N   0  0  0  0  0  0
  -23.3996  -28.7538   23.3136 O   0  0  0  0  0  0
  -26.7336  -23.8099   20.9851 O   0  0  0  0  0  0
  -26.5965  -34.8728   22.4471 O   0  0  0  0  0  0
  -23.6323  -32.0694   23.5511 O   0  0  0  0  0  0
  -23.0033  -11.9120   20.8143 C   0  0  0  0  0  0
  -24.5455  -10.7716   20.5481 C   0  0  0  0  0  0
  -23.3334  -13.3826   22.1695 C   0  0  0  0  0  0
  -24.8632  -14.3467   22.4722 C   0  0  0  0  0  0
  -25.9720  -12.8935   22.5390 C   0  0  0  0  0  0
  -20.8242  -13.1653   23.1369 C   0  0  0  0  0  0
  -21.8825  -15.3814   23.0950 C   0  0  0  0  0  0
  -22.7689  -13.6555   24.6072 C   0  0  0  0  0  0
  -25.2705  -16.7327   22.4497 C   0  0  0  0  0  0
  -25.8056  -19.1113   21.5959 C   0  0  0  0  0  0
  -28.4540  -12.4421   23.1142 C   0  0  0  0  0  0
  -29.7671  -13.3097   23.4042 C   0  0  0  0  0  0
  -26.0321  -21.6865   21.5134 C   0  0  0  0  0  0
  -22.2094  -13.8737   23.1798 C   0  0  0  0  0  0
  -26.0029  -11.3545   21.6041 N   0  0  0  0  0  0
  -27.1480  -13.1344   23.3063 N   0  0  0  0  0  0
  -30.5188  -14.1615   22.3975 N   0  0  0  0  0  0
  -31.4978  -12.4237   19.1667 H   0  0  0  0  0  0
  -30.3542  -11.2734   19.7974 H   0  0  0  0  0  0
  -29.8898  -11.5971   17.4354 H   0  0  0  0  0  0
  -29.8435  -13.3358   17.6019 H   0  0  0  0  0  0
  -27.9520  -11.3990   19.0214 H   0  0  0  0  0  0
  -27.5582  -12.2656   17.5407 H   0  0  0  0  0  0
  -27.9357  -14.3948   18.5724 H   0  0  0  0  0  0
  -28.7811  -14.8706   20.3395 H   0  0  0  0  0  0
  -28.0801  -13.8744   21.3356 H   0  0  0  0  0  0
  -25.4983   -9.6263   23.2826 H   0  0  0  0  0  0
  -24.5993   -7.4955   22.5989 H   0  0  0  0  0  0
  -21.0434   -9.3974   21.4060 H   0  0  0  0  0  0
  -21.8030  -11.0465   22.8601 H   0  0  0  0  0  0
  -21.3308   -7.6467   24.0027 H   0  0  0  0  0  0
  -21.1397   -6.0593   25.8920 H   0  0  0  0  0  0
  -21.9867   -2.7792   23.2418 H   0  0  0  0  0  0
  -21.7110  -12.8945   20.3512 H   0  0  0  0  0  0
  -20.7494  -14.3697   20.4701 H   0  0  0  0  0  0
  -25.0646  -16.6284   20.0049 H   0  0  0  0  0  0
  -26.7083  -16.2510   19.8240 H   0  0  0  0  0  0
  -26.7830  -32.4141   23.0504 H   0  0  0  0  0  0
  -24.9949  -33.8788   24.9519 H   0  0  0  0  0  0
  -22.9476  -31.1766   21.2558 H   0  0  0  0  0  0
  -23.3805  -35.9218   23.3198 H   0  0  0  0  0  0
  -24.3551  -36.8782   22.2114 H   0  0  0  0  0  0
  -23.7232  -37.6028   23.6905 H   0  0  0  0  0  0
  -26.4731  -30.6414   20.7276 H   0  0  0  0  0  0
  -26.9591  -30.0883   22.2528 H   0  0  0  0  0  0
  -27.5444  -27.1658   21.9686 H   0  0  0  0  0  0
  -25.2608  -25.2099   18.9849 H   0  0  0  0  0  0
  -24.0557  -27.2019   18.6550 H   0  0  0  0  0  0
  -24.1852  -30.3017   19.3835 H   0  0  0  0  0  0
  -22.9198  -29.1638   19.7273 H   0  0  0  0  0  0
  -25.1427  -36.1253   25.0709 H   0  0  0  0  0  0
  -21.0043  -28.3471   24.1188 H   0  0  0  0  0  0
  -20.5563  -26.2429   23.3737 H   0  0  0  0  0  0
  -21.6613  -26.7249   22.1286 H   0  0  0  0  0  0
  -19.6879  -25.6212   21.1336 H   0  0  0  0  0  0
  -19.6724  -27.3082   20.6718 H   0  0  0  0  0  0
  -17.4211  -26.6736   21.3998 H   0  0  0  0  0  0
  -18.0265  -26.0139   22.9029 H   0  0  0  0  0  0
  -19.8003  -30.7380   24.2084 H   0  0  0  0  0  0
  -17.5057  -31.6277   24.5172 H   0  0  0  0  0  0
  -15.5387  -30.2954   23.7760 H   0  0  0  0  0  0
  -15.8715  -28.0806   22.7136 H   0  0  0  0  0  0
  -24.5820  -30.7262   25.7536 H   0  0  0  0  0  0
  -24.8684  -32.3285   26.4189 H   0  0  0  0  0  0
  -25.7548  -30.9463   27.0340 H   0  0  0  0  0  0
  -26.3536  -29.5837   24.3005 H   0  0  0  0  0  0
  -27.4342  -29.7716   25.6465 H   0  0  0  0  0  0
  -27.9516  -30.3574   24.0949 H   0  0  0  0  0  0
  -27.2454  -33.4026   26.1563 H   0  0  0  0  0  0
  -28.4021  -32.6780   25.0498 H   0  0  0  0  0  0
  -28.0446  -31.9093   26.5889 H   0  0  0  0  0  0
  -28.2459  -37.9997   24.7524 H   0  0  0  0  0  0
  -28.1134  -36.2506   24.6278 H   0  0  0  0  0  0
  -27.2253  -37.1211   25.8863 H   0  0  0  0  0  0
  -20.9881  -29.8480   21.6190 H   0  0  0  0  0  0
  -25.9987  -38.2463   24.1430 H   0  0  0  0  0  0
  -22.0428  -11.5453   20.4682 H   0  0  0  0  0  0
  -24.5749   -9.8603   19.9664 H   0  0  0  0  0  0
  -20.5739  -12.7192   22.1786 H   0  0  0  0  0  0
  -20.0106  -13.8536   23.3685 H   0  0  0  0  0  0
  -20.7271  -12.3953   23.9026 H   0  0  0  0  0  0
  -22.7696  -15.9911   23.0502 H   0  0  0  0  0  0
  -21.3180  -15.7142   23.9673 H   0  0  0  0  0  0
  -21.2607  -15.6333   22.2405 H   0  0  0  0  0  0
  -23.0305  -12.6126   24.7863 H   0  0  0  0  0  0
  -22.0498  -13.9408   25.3763 H   0  0  0  0  0  0
  -23.6667  -14.2444   24.7927 H   0  0  0  0  0  0
  -26.1711  -16.6431   23.0569 H   0  0  0  0  0  0
  -24.5315  -17.0245   23.1895 H   0  0  0  0  0  0
  -25.2316  -19.0296   20.6731 H   0  0  0  0  0  0
  -26.8278  -18.8937   21.2870 H   0  0  0  0  0  0
  -28.4362  -11.6418   23.8544 H   0  0  0  0  0  0
  -28.5080  -11.9048   22.1679 H   0  0  0  0  0  0
  -30.5193  -12.5925   23.7380 H   0  0  0  0  0  0
  -29.5848  -13.9329   24.2807 H   0  0  0  0  0  0
  -26.3269  -21.7901   22.5567 H   0  0  0  0  0  0
  -24.9674  -21.9213   21.5123 H   0  0  0  0  0  0
  -27.1783  -14.0079   23.8203 H   0  0  0  0  0  0
  -31.0762  -14.8803   22.8364 H   0  0  0  0  0  0
  1 25  1  0  0  0
  1 30  2  0  0  0
  1 87  1  0  0  0
  2  3  1  0  0  0
  2 25  1  0  0  0
  2 88  1  0  0  0
  2 89  1  0  0  0
  3  4  1  0  0  0
  3 90  1  0  0  0
  3 91  1  0  0  0
  4  5  1  0  0  0
  4 92  1  0  0  0
  4 93  1  0  0  0
  5  6  1  0  0  0
  5 26  1  0  0  0
  5 94  1  0  0  0
  6 25  1  0  0  0
  6 95  1  0  0  0
  6 96  1  0  0  0
  7  8  2  0  0  0
  7 26  1  0  0  0
  7 29  1  0  0  0
  8  9  1  0  0  0
  8 22  1  0  0  0
  9 10  1  0  0  0
  9 27  2  0  0  0
 10 11  2  0  0  0
 10 15  1  0  0  0
 11 12  1  0  0  0
 11 97  1  0  0  0
 12 13  2  0  0  0
 12 98  1  0  0  0
 13 14  1  0  0  0
 13 31  1  0  0  0
 14 15  2  0  0  0
 14 99  1  0  0  0
 15100  1  0  0  0
 16 17  2  0  0  0
 16 21  1  0  0  0
 16 31  1  0  0  0
 17 18  1  0  0  0
 17101  1  0  0  0
 18 19  2  0  0  0
 18102  1  0  0  0
 19 20  1  0  0  0
 19 24  1  0  0  0
 20 21  2  0  0  0
 20103  1  0  0  0
 21 23  1  0  0  0
 22 28  1  0  0  0
 22 32  2  0  0  0
 26 27  1  0  0  0
 28104  1  0  0  0
 28105  1  0  0  0
 29106  1  0  0  0
 29107  1  0  0  0
 33 34  1  0  0  0
 33 66  1  0  0  0
 33 70  2  0  0  0
 34 36  1  0  0  0
 34 59  1  0  0  0
 34108  1  0  0  0
 35 44  2  0  0  0
 35 45  1  0  0  0
 35 68  1  0  0  0
 36 56  1  0  0  0
 36109  1  0  0  0
 37 39  1  0  0  0
 37 47  1  0  0  0
 37 66  1  0  0  0
 37110  1  0  0  0
 38 43  2  0  0  0
 38 46  1  0  0  0
 38 47  1  0  0  0
 39 64  1  0  0  0
 39 67  2  0  0  0
 40 52  1  0  0  0
 40 53  2  0  0  0
 40 58  1  0  0  0
 41111  1  0  0  0
 41112  1  0  0  0
 41113  1  0  0  0
 41 48  1  0  0  0
 42 43  1  0  0  0
 42 66  1  0  0  0
 42114  1  0  0  0
 42115  1  0  0  0
 43 44  1  0  0  0
 44116  1  0  0  0
 45 46  2  0  0  0
 45117  1  0  0  0
 46118  1  0  0  0
 47119  1  0  0  0
 47120  1  0  0  0
 48 56  1  0  0  0
 48 65  1  0  0  0
 48121  1  0  0  0
 49 50  1  0  0  0
 49 53  1  0  0  0
 49 64  1  0  0  0
 49122  1  0  0  0
 50 51  1  0  0  0
 50123  1  0  0  0
 50124  1  0  0  0
 51 52  1  0  0  0
 51125  1  0  0  0
 51126  1  0  0  0
 52127  1  0  0  0
 52128  1  0  0  0
 53 54  1  0  0  0
 54 55  2  0  0  0
 54129  1  0  0  0
 55 57  1  0  0  0
 55130  1  0  0  0
 56 69  2  0  0  0
 57 58  2  0  0  0
 57131  1  0  0  0
 58132  1  0  0  0
 59 60  1  0  0  0
 59 61  1  0  0  0
 59 62  1  0  0  0
 60133  1  0  0  0
 60134  1  0  0  0
 60135  1  0  0  0
 61136  1  0  0  0
 61137  1  0  0  0
 61138  1  0  0  0
 62139  1  0  0  0
 62140  1  0  0  0
 62141  1  0  0  0
 63 65  1  0  0  0
 63142  1  0  0  0
 63143  1  0  0  0
 63144  1  0  0  0
 64145  1  0  0  0
 65146  1  0  0  0
 68 83  1  0  0  0
 71 72  2  0  0  0
 71 73  1  0  0  0
 71147  1  0  0  0
 72 85  1  0  0  0
 72148  1  0  0  0
 73 74  2  0  0  0
 73 84  1  0  0  0
 74 75  1  0  0  0
 74 79  1  0  0  0
 75 85  2  0  0  0
 75 86  1  0  0  0
 76149  1  0  0  0
 76150  1  0  0  0
 76151  1  0  0  0
 76 84  1  0  0  0
 77 84  1  0  0  0
 77152  1  0  0  0
 77153  1  0  0  0
 77154  1  0  0  0
 78 84  1  0  0  0
 78155  1  0  0  0
 78156  1  0  0  0
 78157  1  0  0  0
 79 80  1  0  0  0
 79158  1  0  0  0
 79159  1  0  0  0
 80 83  1  0  0  0
 80160  1  0  0  0
 80161  1  0  0  0
 81 82  1  0  0  0
 81 86  1  0  0  0
 81162  1  0  0  0
 81163  1  0  0  0
 82 87  1  0  0  0
 82164  1  0  0  0
 82165  1  0  0  0
 83166  1  0  0  0
 83167  1  0  0  0
 86168  1  0  0  0
 87169  1  0  0  0
M  ISO  4   1 100  68 101  83 101  87 100
M  END
> <chiral flag>
0

> <version>
0

> <s_m_source_file>
/data/baiqing/PycharmProjects/Reinvent-master-3.2/result/LINK_invent/BTK/process_docking_weight1_custom_sum_contain_oxygen_bond_distance_aromatic_linkinvent_7_9_3/rearranged_h_0121.sdf

> <i_m_source_file_index>
40

> <r_mmod_Potential_Energy-OPLS-2005>
22488.375

> <r_mmod_Stretch_Energy-OPLS-2005>
11873.62109375

> <r_mmod_Bend_Energy-OPLS-2005>
1700.94750976562

> <r_mmod_Torsional_Energy-OPLS-2005>
853.822265625

> <r_mmod_Improper_Torsional_Energy-OPLS-2005>
75.4326782226562

> <r_mmod_Van_der_Waal_Energy-OPLS-2005>
3246.94262695312

> <r_mmod_Electrostatic_Energy-OPLS-2005>
-691.375854492188

> <r_mmod_Solvation_Energy-OPLS-2005>
-223.540908813477

> <b_mmod_Minimization_Converged-OPLS-2005>
0

> <r_mmod_RMS_Derivative-OPLS-2005>
3.27409529685974

$$$$
40
                    3D
 Structure written by MMmdl.
173182  0  0  1  0            999 V2000
  -28.6093  -16.4779   20.7773 C   0  0  0  0  0  0
  -29.9619  -14.0019   19.7597 C   0  0  0  0  0  0
  -29.4821  -13.0320   18.5772 C   0  0  0  0  0  0
  -28.1813  -12.3076   18.9332 C   0  0  0  0  0  0
  -27.4157  -13.2756   19.8310 C   0  0  2  0  0  0
  -28.1628  -13.7708   21.0706 C   0  0  0  0  0  0
  -25.1358  -13.8013   20.5594 C   0  0  0  0  0  0
  -24.0967  -13.0192   20.9357 C   0  0  0  0  0  0
  -24.5736  -11.6715   20.8843 C   0  0  0  0  0  0
  -23.8658  -10.4123   21.0525 C   0  0  0  0  0  0
  -24.3382   -9.4110   21.9267 C   0  0  0  0  0  0
  -23.6165   -8.2105   22.0779 C   0  0  0  0  0  0
  -22.4163   -8.0129   21.3541 C   0  0  0  0  0  0
  -21.9704   -9.0054   20.4651 C   0  0  0  0  0  0
  -22.6912  -10.1970   20.3103 C   0  0  0  0  0  0
  -21.6804   -6.0651   22.5291 C   0  0  0  0  0  0
  -21.3974   -6.5591   23.8212 C   0  0  0  0  0  0
  -21.3642   -5.6763   24.9186 C   0  0  0  0  0  0
  -21.6036   -4.3026   24.7253 C   0  0  0  0  0  0
  -21.8826   -3.8095   23.4387 C   0  0  0  0  0  0
  -21.9186   -4.6892   22.3429 C   0  0  0  0  0  0
  -22.7127  -13.5050   21.2094 C   0  0  0  0  0  0
  -22.1662   -4.2081   21.1009 F   0  0  0  0  0  0
  -21.5637   -3.4529   25.7780 F   0  0  0  0  0  0
  -28.8517  -14.9293   20.5301 N   0  0  0  0  0  0
  -26.1366  -12.9062   20.2654 N   0  0  0  0  0  0
  -25.8478  -11.6254   20.5429 N   0  0  0  0  0  0
  -21.9817  -12.8094   22.0695 N   0  0  0  0  0  0
  -25.3102  -15.1809   20.4141 N   0  0  0  0  0  0
  -29.8877  -16.6440   20.5710 O   0  0  0  0  0  0
  -21.6562   -6.8733   21.4232 O   0  0  0  0  0  0
  -22.2941  -14.5423   20.6951 O   0  0  0  0  0  0
  -24.6723  -32.0080   23.0365 C   0  0  0  0  0  0
  -25.9414  -32.5535   23.7630 C   0  0  1  0  0  0
  -26.7456  -27.3783   20.8149 C   0  0  0  0  0  0
  -25.6018  -33.9202   24.1675 N   0  0  0  0  0  0
  -23.5634  -30.5239   21.3013 C   0  0  2  0  0  0
  -25.0100  -29.1710   19.7931 C   0  0  0  0  0  0
  -23.6107  -29.2223   22.0798 C   0  0  0  0  0  0
  -18.3060  -26.8227   22.9664 C   0  0  0  0  0  0
  -24.1454  -36.7730   23.2571 C   0  0  0  0  0  0
  -26.0373  -31.0416   21.1379 C   0  0  0  0  0  0
  -26.1136  -29.6388   20.5430 C   0  0  0  0  0  0
  -27.0839  -28.7233   20.9811 C   0  0  0  0  0  0
  -25.9702  -26.9496   19.7229 C   0  0  0  0  0  0
  -24.9746  -27.8447   19.3139 C   0  0  0  0  0  0
  -23.7538  -30.0372   19.8622 C   0  0  0  0  0  0
  -25.4189  -36.3663   24.0142 C   0  0  1  0  0  0
  -22.2245  -26.9325   23.0035 C   0  0  2  0  0  0
  -21.9064  -26.2855   21.0436 C   0  0  0  0  0  0
  -20.0580  -25.8644   20.3187 C   0  0  0  0  0  0
  -18.4234  -26.1261   21.3441 C   0  0  0  0  0  0
  -20.0045  -27.4149   24.2943 C   0  0  0  0  0  0
  -19.5441  -28.9729   25.0290 C   0  0  0  0  0  0
  -18.1223  -29.7577   24.7375 C   0  0  0  0  0  0
  -25.9197  -35.0134   23.4747 C   0  0  0  0  0  0
  -16.9489  -29.2431   23.7927 C   0  0  0  0  0  0
  -16.9764  -27.8656   22.9585 C   0  0  0  0  0  0
  -26.4332  -31.7448   25.0399 C   0  0  0  0  0  0
  -25.3062  -31.5027   26.0860 C   0  0  0  0  0  0
  -27.0135  -30.3700   24.6550 C   0  0  0  0  0  0
  -27.6023  -32.5173   25.7187 C   0  0  0  0  0  0
  -27.5625  -37.2065   24.8484 C   0  0  0  0  0  0
  -22.9614  -28.0015   21.9626 N   0  0  0  0  0  0
  -26.4313  -37.4440   23.9517 N   0  0  0  0  0  0
  -24.7460  -31.3580   21.8105 N   0  0  0  0  0  0
  -24.3389  -29.3831   22.9771 O   0  0  0  0  0  0
  -26.4508  -26.6875   21.9923 O   0  0  0  0  0  0
  -26.5852  -34.9757   22.4399 O   0  0  0  0  0  0
  -23.5855  -32.1432   23.6248 O   0  0  0  0  0  0
  -22.1265  -23.7701   22.6020 C   0  0  0  0  0  0
  -24.7962  -20.2895   20.3931 C   0  0  0  0  0  0
  -19.1294  -28.8454   22.7327 C   0  0  0  0  0  0
  -23.8694  -21.8160   20.6475 C   0  0  0  0  0  0
  -24.5857  -20.9314   22.3466 C   0  0  0  0  0  0
  -17.8789  -27.3187   25.0988 C   0  0  0  0  0  0
  -19.3465  -24.8548   24.0947 C   0  0  0  0  0  0
  -20.4511  -25.4827   22.6617 C   0  0  1  0  0  0
  -26.0303  -19.5758   21.3439 C   0  0  1  0  0  0
  -20.3377  -27.6770   22.1596 C   0  0  1  0  0  0
  -24.1455  -27.6262   24.5012 C   0  0  0  0  0  0
  -22.5005  -28.7841   24.4880 C   0  0  0  0  0  0
  -25.6990  -27.2913   23.3842 C   0  0  0  0  0  0
  -23.2704  -22.4107   21.9969 N   0  0  0  0  0  0
  -27.2008  -17.6765   21.0914 N   0  0  0  0  0  0
  -18.4502  -25.7249   25.2296 N   0  3  0  0  0  0
  -21.2403  -29.0640   23.1712 N   0  3  0  0  0  0
  -22.3914  -23.7280   23.8054 O   0  0  0  0  0  0
  -30.6901  -14.6842   19.3154 H   0  0  0  0  0  0
  -30.5636  -13.4464   20.4820 H   0  0  0  0  0  0
  -30.2645  -12.3185   18.3127 H   0  0  0  0  0  0
  -29.3056  -13.6373   17.6867 H   0  0  0  0  0  0
  -28.4112  -11.3992   19.4913 H   0  0  0  0  0  0
  -27.6167  -12.0124   18.0471 H   0  0  0  0  0  0
  -27.2132  -14.1045   19.1459 H   0  0  0  0  0  0
  -28.7682  -13.0036   21.5569 H   0  0  0  0  0  0
  -27.4944  -14.1459   21.8499 H   0  0  0  0  0  0
  -25.2524   -9.5676   22.4828 H   0  0  0  0  0  0
  -23.9911   -7.4498   22.7486 H   0  0  0  0  0  0
  -21.0644   -8.8494   19.8966 H   0  0  0  0  0  0
  -22.3334  -10.9503   19.6223 H   0  0  0  0  0  0
  -21.1943   -7.6100   23.9675 H   0  0  0  0  0  0
  -21.1462   -6.0521   25.9081 H   0  0  0  0  0  0
  -22.0628   -2.7558   23.2908 H   0  0  0  0  0  0
  -22.3399  -11.9741   22.5072 H   0  0  0  0  0  0
  -21.0458  -13.1176   22.2950 H   0  0  0  0  0  0
  -24.4607  -15.7357   20.4393 H   0  0  0  0  0  0
  -25.9626  -15.5118   19.7169 H   0  0  0  0  0  0
  -26.7884  -32.6296   23.0847 H   0  0  0  0  0  0
  -24.9877  -34.0400   24.9561 H   0  0  0  0  0  0
  -22.6253  -31.0455   21.4882 H   0  0  0  0  0  0
  -23.3890  -35.9904   23.3350 H   0  0  0  0  0  0
  -24.3364  -36.9344   22.1948 H   0  0  0  0  0  0
  -23.6989  -37.6857   23.6561 H   0  0  0  0  0  0
  -26.1349  -31.7248   20.3001 H   0  0  0  0  0  0
  -26.9562  -31.1861   21.6902 H   0  0  0  0  0  0
  -27.7340  -28.9837   21.8057 H   0  0  0  0  0  0
  -25.7762  -25.8974   19.5391 H   0  0  0  0  0  0
  -24.1265  -27.4771   18.7517 H   0  0  0  0  0  0
  -23.8142  -30.8938   19.1881 H   0  0  0  0  0  0
  -22.8857  -29.4499   19.5590 H   0  0  0  0  0  0
  -25.1394  -36.2395   25.0584 H   0  0  0  0  0  0
  -22.8179  -26.1195   23.3952 H   0  0  0  0  0  0
  -22.6356  -25.5249   20.7789 H   0  0  0  0  0  0
  -22.1318  -27.0000   20.2412 H   0  0  0  0  0  0
  -20.0734  -24.8276   19.9783 H   0  0  0  0  0  0
  -19.9335  -26.4358   19.3955 H   0  0  0  0  0  0
  -17.8012  -26.7804   20.7305 H   0  0  0  0  0  0
  -17.8757  -25.1837   21.3348 H   0  0  0  0  0  0
  -20.2502  -29.5056   25.6528 H   0  0  0  0  0  0
  -18.0151  -30.7322   25.1934 H   0  0  0  0  0  0
  -16.1342  -29.9208   23.6114 H   0  0  0  0  0  0
  -16.2138  -27.7256   22.2043 H   0  0  0  0  0  0
  -25.7000  -31.3769   27.0966 H   0  0  0  0  0  0
  -24.6989  -30.6236   25.8589 H   0  0  0  0  0  0
  -24.6197  -32.3512   26.1078 H   0  0  0  0  0  0
  -26.2509  -29.6187   24.7981 H   0  0  0  0  0  0
  -27.8454  -30.0603   25.2886 H   0  0  0  0  0  0
  -27.3658  -30.3255   23.6312 H   0  0  0  0  0  0
  -27.3127  -33.5175   26.0408 H   0  0  0  0  0  0
  -28.4453  -32.6468   25.0380 H   0  0  0  0  0  0
  -27.9779  -32.0081   26.6075 H   0  0  0  0  0  0
  -28.2809  -38.0282   24.7954 H   0  0  0  0  0  0
  -28.1009  -36.2941   24.5880 H   0  0  0  0  0  0
  -27.2381  -37.1267   25.8890 H   0  0  0  0  0  0
  -22.8163  -27.7086   21.0120 H   0  0  0  0  0  0
  -26.0258  -38.3472   24.1933 H   0  0  0  0  0  0
  -25.1982  -20.3653   19.3840 H   0  0  0  0  0  0
  -24.0304  -19.5152   20.3136 H   0  0  0  0  0  0
  -19.3252  -29.9329   22.7324 H   0  0  0  0  0  0
  -18.5853  -28.9611   21.7843 H   0  0  0  0  0  0
  -23.0318  -21.8043   19.9467 H   0  0  0  0  0  0
  -24.5086  -22.6250   20.2880 H   0  0  0  0  0  0
  -25.1947  -21.3808   23.1292 H   0  0  0  0  0  0
  -23.9790  -20.2348   22.9286 H   0  0  0  0  0  0
  -16.7880  -27.1906   25.1595 H   0  0  0  0  0  0
  -18.0071  -27.6780   26.1239 H   0  0  0  0  0  0
  -19.9328  -24.1479   24.6798 H   0  0  0  0  0  0
  -18.6034  -24.1932   23.6374 H   0  0  0  0  0  0
  -20.2019  -27.0052   21.8643 H   0  0  0  0  0  0
  -26.8898  -20.2426   21.2630 H   0  0  0  0  0  0
  -20.4479  -26.1192   22.9603 H   0  0  0  0  0  0
  -23.9042  -26.6749   24.9663 H   0  0  0  0  0  0
  -24.6356  -28.0538   25.3691 H   0  0  0  0  0  0
  -22.7960  -29.7975   24.7703 H   0  0  0  0  0  0
  -22.0362  -28.4790   25.4218 H   0  0  0  0  0  0
  -26.3636  -28.1357   23.4808 H   0  0  0  0  0  0
  -26.1991  -26.5964   24.0498 H   0  0  0  0  0  0
  -26.4617  -16.9875   21.1664 H   0  0  0  0  0  0
  -17.7319  -25.1429   25.6262 H   0  0  0  0  0  0
  -19.1221  -25.8237   25.9736 H   0  0  0  0  0  0
  -20.4923  -29.4898   23.7125 H   0  0  0  0  0  0
  -21.5794  -29.7648   22.5357 H   0  0  0  0  0  0
  1 25  1  0  0  0
  1 30  2  0  0  0
  1 85  1  0  0  0
  2  3  1  0  0  0
  2 25  1  0  0  0
  2 89  1  0  0  0
  2 90  1  0  0  0
  3  4  1  0  0  0
  3 91  1  0  0  0
  3 92  1  0  0  0
  4  5  1  0  0  0
  4 93  1  0  0  0
  4 94  1  0  0  0
  5  6  1  0  0  0
  5 26  1  0  0  0
  5 95  1  0  0  0
  6 25  1  0  0  0
  6 96  1  0  0  0
  6 97  1  0  0  0
  7  8  2  0  0  0
  7 26  1  0  0  0
  7 29  1  0  0  0
  8  9  1  0  0  0
  8 22  1  0  0  0
  9 10  1  0  0  0
  9 27  2  0  0  0
 10 11  2  0  0  0
 10 15  1  0  0  0
 11 12  1  0  0  0
 11 98  1  0  0  0
 12 13  2  0  0  0
 12 99  1  0  0  0
 13 14  1  0  0  0
 13 31  1  0  0  0
 14 15  2  0  0  0
 14100  1  0  0  0
 15101  1  0  0  0
 16 17  2  0  0  0
 16 21  1  0  0  0
 16 31  1  0  0  0
 17 18  1  0  0  0
 17102  1  0  0  0
 18 19  2  0  0  0
 18103  1  0  0  0
 19 20  1  0  0  0
 19 24  1  0  0  0
 20 21  2  0  0  0
 20104  1  0  0  0
 21 23  1  0  0  0
 22 28  1  0  0  0
 22 32  2  0  0  0
 26 27  1  0  0  0
 28105  1  0  0  0
 28106  1  0  0  0
 29107  1  0  0  0
 29108  1  0  0  0
 33 34  1  0  0  0
 33 66  1  0  0  0
 33 70  2  0  0  0
 34 36  1  0  0  0
 34 59  1  0  0  0
 34109  1  0  0  0
 35 44  2  0  0  0
 35 45  1  0  0  0
 35 68  1  0  0  0
 36 56  1  0  0  0
 36110  1  0  0  0
 37 39  1  0  0  0
 37 47  1  0  0  0
 37 66  1  0  0  0
 37111  1  0  0  0
 38 43  2  0  0  0
 38 46  1  0  0  0
 38 47  1  0  0  0
 39 64  1  0  0  0
 39 67  2  0  0  0
 40 52  1  0  0  0
 40 53  2  0  0  0
 40 58  1  0  0  0
 41112  1  0  0  0
 41113  1  0  0  0
 41114  1  0  0  0
 41 48  1  0  0  0
 42 43  1  0  0  0
 42 66  1  0  0  0
 42115  1  0  0  0
 42116  1  0  0  0
 43 44  1  0  0  0
 44117  1  0  0  0
 45 46  2  0  0  0
 45118  1  0  0  0
 46119  1  0  0  0
 47120  1  0  0  0
 47121  1  0  0  0
 48 56  1  0  0  0
 48 65  1  0  0  0
 48122  1  0  0  0
 49 50  1  0  0  0
 49 53  1  0  0  0
 49 64  1  0  0  0
 49123  1  0  0  0
 50 51  1  0  0  0
 50124  1  0  0  0
 50125  1  0  0  0
 51 52  1  0  0  0
 51126  1  0  0  0
 51127  1  0  0  0
 52128  1  0  0  0
 52129  1  0  0  0
 53 54  1  0  0  0
 54 55  2  0  0  0
 54130  1  0  0  0
 55 57  1  0  0  0
 55131  1  0  0  0
 56 69  2  0  0  0
 57 58  2  0  0  0
 57132  1  0  0  0
 58133  1  0  0  0
 59 60  1  0  0  0
 59 61  1  0  0  0
 59 62  1  0  0  0
 60134  1  0  0  0
 60135  1  0  0  0
 60136  1  0  0  0
 61137  1  0  0  0
 61138  1  0  0  0
 61139  1  0  0  0
 62140  1  0  0  0
 62141  1  0  0  0
 62142  1  0  0  0
 63 65  1  0  0  0
 63143  1  0  0  0
 63144  1  0  0  0
 63145  1  0  0  0
 64146  1  0  0  0
 65147  1  0  0  0
 68 83  1  0  0  0
 71 84  1  0  0  0
 71 88  2  0  0  0
 71 78  1  0  0  0
 72 74  1  0  0  0
 72 79  1  0  0  0
 72148  1  0  0  0
 72149  1  0  0  0
 73 76  1  0  0  0
 73 80  1  0  0  0
 73150  1  0  0  0
 73151  1  0  0  0
 74 84  1  0  0  0
 74152  1  0  0  0
 74153  1  0  0  0
 75 79  1  0  0  0
 75 84  1  0  0  0
 75154  1  0  0  0
 75155  1  0  0  0
 76 86  1  0  0  0
 76156  1  0  0  0
 76157  1  0  0  0
 77 78  1  0  0  0
 77 86  1  0  0  0
 77158  1  0  0  0
 77159  1  0  0  0
 78 80  1  0  0  0
 78160  1  0  0  0
 79 85  1  0  0  0
 79161  1  0  0  0
 80 87  1  0  0  0
 80162  1  0  0  0
 81 82  1  0  0  0
 81 83  1  0  0  0
 81163  1  0  0  0
 81164  1  0  0  0
 82 87  1  0  0  0
 82165  1  0  0  0
 82166  1  0  0  0
 83167  1  0  0  0
 83168  1  0  0  0
 85169  1  0  0  0
 86170  1  0  0  0
 86171  1  0  0  0
 87172  1  0  0  0
 87173  1  0  0  0
M  CHG  2  86   1  87   1
M  ISO  4   1 100  68 101  83 101  85 100
M  END
> <chiral flag>
0

> <version>
0

> <s_m_source_file>
/data/baiqing/PycharmProjects/Reinvent-master-3.2/result/LINK_invent/BTK/process_docking_weight1_custom_sum_contain_oxygen_bond_distance_aromatic_linkinvent_7_9_3/rearranged_h_0121.sdf

> <i_m_source_file_index>
41

> <r_mmod_Potential_Energy-OPLS-2005>
30746.349609375

> <r_mmod_Stretch_Energy-OPLS-2005>
15212.041015625

> <r_mmod_Bend_Energy-OPLS-2005>
3663.56469726562

> <r_mmod_Torsional_Energy-OPLS-2005>
702.051635742188

> <r_mmod_Improper_Torsional_Energy-OPLS-2005>
61.6255493164062

> <r_mmod_Van_der_Waal_Energy-OPLS-2005>
5453.640625

> <r_mmod_Electrostatic_Energy-OPLS-2005>
-102.182083129883

> <r_mmod_Solvation_Energy-OPLS-2005>
-920.783142089844

> <b_mmod_Minimization_Converged-OPLS-2005>
0

> <r_mmod_RMS_Derivative-OPLS-2005>
20.3896408081055

$$$$
41
                    3D
 Structure written by MMmdl.
168176  0  0  1  0            999 V2000
  -30.7032  -14.4605   20.5559 C   0  0  0  0  0  0
  -30.4179  -12.2979   19.4175 C   0  0  0  0  0  0
  -29.4963  -12.5129   18.2005 C   0  0  0  0  0  0
  -28.0143  -12.3689   18.6057 C   0  0  0  0  0  0
  -27.6529  -13.1897   19.8741 C   0  0  2  0  0  0
  -28.7020  -12.9887   20.9926 C   0  0  0  0  0  0
  -25.2580  -13.8074   20.5724 C   0  0  0  0  0  0
  -24.1808  -13.0378   20.9192 C   0  0  0  0  0  0
  -24.6346  -11.6846   20.8753 C   0  0  0  0  0  0
  -23.8991  -10.4250   21.0404 C   0  0  0  0  0  0
  -24.3550   -9.4179   21.9168 C   0  0  0  0  0  0
  -23.6260   -8.2203   22.0727 C   0  0  0  0  0  0
  -22.4248   -8.0223   21.3513 C   0  0  0  0  0  0
  -21.9855   -9.0191   20.4626 C   0  0  0  0  0  0
  -22.7166  -10.2086   20.3057 C   0  0  0  0  0  0
  -21.6845   -6.0703   22.5268 C   0  0  0  0  0  0
  -21.4013   -6.5612   23.8199 C   0  0  0  0  0  0
  -21.3685   -5.6772   24.9161 C   0  0  0  0  0  0
  -21.6058   -4.3028   24.7216 C   0  0  0  0  0  0
  -21.8820   -3.8115   23.4335 C   0  0  0  0  0  0
  -21.9192   -4.6934   22.3400 C   0  0  0  0  0  0
  -22.7843  -13.5227   21.1815 C   0  0  0  0  0  0
  -22.1655   -4.2118   21.0974 F   0  0  0  0  0  0
  -21.5641   -3.4521   25.7735 F   0  0  0  0  0  0
  -30.0295  -13.2855   20.4312 N   0  0  0  0  0  0
  -26.2978  -12.9195   20.3394 N   0  0  0  0  0  0
  -25.9262  -11.6386   20.5775 N   0  0  0  0  0  0
  -22.0436  -12.8275   22.0379 N   0  0  0  0  0  0
  -25.4317  -15.1791   20.4194 N   0  0  0  0  0  0
  -31.8631  -14.6220   20.1636 O   0  0  0  0  0  0
  -21.6621   -6.8812   21.4216 O   0  0  0  0  0  0
  -22.3567  -14.5527   20.6618 O   0  0  0  0  0  0
  -24.6147  -31.8677   23.2122 C   0  0  0  0  0  0
  -25.9029  -32.4824   23.8402 C   0  0  1  0  0  0
  -27.2231  -27.4547   20.0813 C   0  0  0  0  0  0
  -25.5889  -33.8627   24.2329 N   0  0  0  0  0  0
  -23.3979  -30.4963   21.5538 C   0  0  2  0  0  0
  -24.8386  -28.9710   20.1096 C   0  0  0  0  0  0
  -22.7386  -29.4657   22.4990 C   0  0  0  0  0  0
  -18.0266  -28.1394   22.8514 C   0  0  0  0  0  0
  -24.1469  -36.7329   23.2637 C   0  0  0  0  0  0
  -25.9247  -30.8432   21.3565 C   0  0  0  0  0  0
  -25.9990  -29.4793   20.7044 C   0  0  0  0  0  0
  -27.1957  -28.7288   20.6863 C   0  0  0  0  0  0
  -26.0436  -26.9623   19.4716 C   0  0  0  0  0  0
  -24.8532  -27.7105   19.4906 C   0  0  0  0  0  0
  -23.6034  -29.8400   20.1636 C   0  0  0  0  0  0
  -25.4086  -36.3115   24.0341 C   0  0  1  0  0  0
  -20.5836  -28.3655   23.1346 C   0  0  2  0  0  0
  -20.6745  -26.9392   22.5424 C   0  0  0  0  0  0
  -19.5719  -26.6388   21.5225 C   0  0  0  0  0  0
  -18.1898  -26.7949   22.1635 C   0  0  0  0  0  0
  -19.1506  -28.8846   23.2937 C   0  0  0  0  0  0
  -18.9447  -30.1459   23.8931 C   0  0  0  0  0  0
  -17.6447  -30.6597   24.0584 C   0  0  0  0  0  0
  -25.9016  -34.9484   23.5125 C   0  0  0  0  0  0
  -16.5339  -29.9101   23.6339 C   0  0  0  0  0  0
  -16.7257  -28.6525   23.0349 C   0  0  0  0  0  0
  -26.4484  -31.6601   25.0720 C   0  0  0  0  0  0
  -25.3808  -31.3711   26.1515 C   0  0  0  0  0  0
  -27.0290  -30.3056   24.6046 C   0  0  0  0  0  0
  -27.6042  -32.4328   25.7513 C   0  0  0  0  0  0
  -27.5564  -37.1823   24.8473 C   0  0  0  0  0  0
  -21.4112  -29.3028   22.3769 N   0  0  0  0  0  0
  -26.4269  -37.3796   23.9421 N   0  0  0  0  0  0
  -24.6654  -31.0805   22.1012 N   0  0  0  0  0  0
  -23.4200  -28.8141   23.2944 O   0  0  0  0  0  0
  -28.4003  -26.7381   20.0996 O   0  0  0  0  0  0
  -26.5575  -34.8929   22.4682 O   0  0  0  0  0  0
  -23.5342  -32.1392   23.7539 O   0  0  0  0  0  0
  -30.1483  -17.4714   19.3117 C   0  0  0  0  0  0
  -30.1698  -17.8992   21.8105 C   0  0  0  0  0  0
  -29.3039  -16.2818   19.8112 C   0  0  0  0  0  0
  -30.3353  -16.3766   22.0613 C   0  0  0  0  0  0
  -30.7861  -18.2961   20.4496 C   0  0  0  0  0  0
  -33.0027  -20.5573   19.8789 C   0  0  0  0  0  0
  -31.1895  -22.1141   20.6906 C   0  0  0  0  0  0
  -30.1538  -22.4511   21.7918 C   0  0  0  0  0  0
  -29.3918  -24.6829   20.9280 C   0  0  0  0  0  0
  -28.2845  -25.3132   20.0700 C   0  0  0  0  0  0
  -31.6985  -20.6522   20.7006 C   0  0  1  0  0  0
  -29.9505  -15.5333   20.9060 N   0  0  0  0  0  0
  -30.6587  -19.7428   20.1503 N   0  3  0  0  0  0
  -29.0428  -23.2882   21.2927 N   0  3  0  0  0  0
  -31.4668  -12.3912   19.1284 H   0  0  0  0  0  0
  -30.2990  -11.2875   19.8141 H   0  0  0  0  0  0
  -29.7415  -11.8039   17.4073 H   0  0  0  0  0  0
  -29.6681  -13.5051   17.7768 H   0  0  0  0  0  0
  -27.8199  -11.3102   18.7811 H   0  0  0  0  0  0
  -27.3717  -12.6626   17.7750 H   0  0  0  0  0  0
  -27.6575  -14.2310   19.5769 H   0  0  0  0  0  0
  -28.6805  -11.9578   21.3532 H   0  0  0  0  0  0
  -28.4797  -13.6172   21.8542 H   0  0  0  0  0  0
  -25.2683   -9.5691   22.4735 H   0  0  0  0  0  0
  -23.9981   -7.4614   22.7458 H   0  0  0  0  0  0
  -21.0773   -8.8712   19.8943 H   0  0  0  0  0  0
  -22.3600  -10.9622   19.6175 H   0  0  0  0  0  0
  -21.1994   -7.6121   23.9698 H   0  0  0  0  0  0
  -21.1521   -6.0491   25.9068 H   0  0  0  0  0  0
  -22.0579   -2.7571   23.2851 H   0  0  0  0  0  0
  -22.4022  -12.0019   22.4954 H   0  0  0  0  0  0
  -21.1022  -13.1309   22.2433 H   0  0  0  0  0  0
  -24.6657  -15.8325   20.5384 H   0  0  0  0  0  0
  -26.2956  -15.6212   20.1331 H   0  0  0  0  0  0
  -26.7107  -32.5545   23.1179 H   0  0  0  0  0  0
  -25.0102  -33.9798   25.0513 H   0  0  0  0  0  0
  -22.6896  -31.3157   21.4223 H   0  0  0  0  0  0
  -23.3709  -35.9688   23.3327 H   0  0  0  0  0  0
  -24.3573  -36.8907   22.2046 H   0  0  0  0  0  0
  -23.7242  -37.6553   23.6634 H   0  0  0  0  0  0
  -26.0208  -31.6095   20.5857 H   0  0  0  0  0  0
  -26.8203  -30.9028   21.9629 H   0  0  0  0  0  0
  -28.0938  -29.1146   21.1478 H   0  0  0  0  0  0
  -26.0191  -26.0088   18.9642 H   0  0  0  0  0  0
  -23.9622  -27.3203   19.0168 H   0  0  0  0  0  0
  -23.7214  -30.6231   19.4141 H   0  0  0  0  0  0
  -22.7244  -29.2730   19.8527 H   0  0  0  0  0  0
  -25.1256  -36.1984   25.0836 H   0  0  0  0  0  0
  -20.9960  -28.3189   24.1449 H   0  0  0  0  0  0
  -20.5625  -26.2251   23.3591 H   0  0  0  0  0  0
  -21.6620  -26.7417   22.1209 H   0  0  0  0  0  0
  -19.6850  -25.6297   21.1235 H   0  0  0  0  0  0
  -19.6652  -27.3235   20.6778 H   0  0  0  0  0  0
  -17.4151  -26.6724   21.4035 H   0  0  0  0  0  0
  -18.0279  -26.0092   22.9025 H   0  0  0  0  0  0
  -19.7920  -30.7278   24.2298 H   0  0  0  0  0  0
  -17.5000  -31.6277   24.5186 H   0  0  0  0  0  0
  -15.5343  -30.3020   23.7644 H   0  0  0  0  0  0
  -15.8658  -28.0869   22.7035 H   0  0  0  0  0  0
  -24.5961  -30.7050   25.7923 H   0  0  0  0  0  0
  -24.9029  -32.2865   26.5005 H   0  0  0  0  0  0
  -25.8224  -30.8898   27.0244 H   0  0  0  0  0  0
  -26.2790  -29.6847   24.1132 H   0  0  0  0  0  0
  -27.4117  -29.7273   25.4455 H   0  0  0  0  0  0
  -27.8601  -30.4387   23.9126 H   0  0  0  0  0  0
  -27.2620  -33.3592   26.2148 H   0  0  0  0  0  0
  -28.3862  -32.6948   25.0376 H   0  0  0  0  0  0
  -28.0712  -31.8428   26.5412 H   0  0  0  0  0  0
  -28.2601  -38.0100   24.7496 H   0  0  0  0  0  0
  -28.1033  -36.2633   24.6316 H   0  0  0  0  0  0
  -27.2298  -37.1502   25.8882 H   0  0  0  0  0  0
  -20.9241  -29.8879   21.7123 H   0  0  0  0  0  0
  -26.0156  -38.2869   24.1450 H   0  0  0  0  0  0
  -29.5063  -18.0884   18.6810 H   0  0  0  0  0  0
  -30.9413  -17.1094   18.6545 H   0  0  0  0  0  0
  -30.6302  -18.4522   22.6298 H   0  0  0  0  0  0
  -29.1083  -18.1602   21.8380 H   0  0  0  0  0  0
  -29.0911  -15.6522   18.9499 H   0  0  0  0  0  0
  -28.3331  -16.6336   20.1695 H   0  0  0  0  0  0
  -29.7585  -16.0819   22.9403 H   0  0  0  0  0  0
  -31.3783  -16.1918   22.3215 H   0  0  0  0  0  0
  -31.8446  -18.0359   20.4875 H   0  0  0  0  0  0
  -33.3570  -19.5331   19.7739 H   0  0  0  0  0  0
  -33.8014  -21.1209   20.3635 H   0  0  0  0  0  0
  -32.8835  -20.9623   18.8728 H   0  0  0  0  0  0
  -32.0339  -22.7931   20.8190 H   0  0  0  0  0  0
  -30.8005  -22.3516   19.6996 H   0  0  0  0  0  0
  -30.6361  -22.9363   22.6424 H   0  0  0  0  0  0
  -29.7117  -21.5343   22.1835 H   0  0  0  0  0  0
  -29.5170  -25.2503   21.8508 H   0  0  0  0  0  0
  -30.3386  -24.7375   20.3910 H   0  0  0  0  0  0
  -28.3389  -24.9551   19.0413 H   0  0  0  0  0  0
  -27.3248  -24.9809   20.4730 H   0  0  0  0  0  0
  -31.9201  -20.3645   21.7312 H   0  0  0  0  0  0
  -29.7416  -20.0204   20.4582 H   0  0  0  0  0  0
  -30.6753  -19.8470   19.1467 H   0  0  0  0  0  0
  -28.3306  -23.3240   22.0095 H   0  0  0  0  0  0
  -28.6209  -22.8315   20.4980 H   0  0  0  0  0  0
  1 25  1  0  0  0
  1 30  2  0  0  0
  1 82  1  0  0  0
  2  3  1  0  0  0
  2 25  1  0  0  0
  2 85  1  0  0  0
  2 86  1  0  0  0
  3  4  1  0  0  0
  3 87  1  0  0  0
  3 88  1  0  0  0
  4  5  1  0  0  0
  4 89  1  0  0  0
  4 90  1  0  0  0
  5  6  1  0  0  0
  5 26  1  0  0  0
  5 91  1  0  0  0
  6 25  1  0  0  0
  6 92  1  0  0  0
  6 93  1  0  0  0
  7  8  2  0  0  0
  7 26  1  0  0  0
  7 29  1  0  0  0
  8  9  1  0  0  0
  8 22  1  0  0  0
  9 10  1  0  0  0
  9 27  2  0  0  0
 10 11  2  0  0  0
 10 15  1  0  0  0
 11 12  1  0  0  0
 11 94  1  0  0  0
 12 13  2  0  0  0
 12 95  1  0  0  0
 13 14  1  0  0  0
 13 31  1  0  0  0
 14 15  2  0  0  0
 14 96  1  0  0  0
 15 97  1  0  0  0
 16 17  2  0  0  0
 16 21  1  0  0  0
 16 31  1  0  0  0
 17 18  1  0  0  0
 17 98  1  0  0  0
 18 19  2  0  0  0
 18 99  1  0  0  0
 19 20  1  0  0  0
 19 24  1  0  0  0
 20 21  2  0  0  0
 20100  1  0  0  0
 21 23  1  0  0  0
 22 28  1  0  0  0
 22 32  2  0  0  0
 26 27  1  0  0  0
 28101  1  0  0  0
 28102  1  0  0  0
 29103  1  0  0  0
 29104  1  0  0  0
 33 34  1  0  0  0
 33 66  1  0  0  0
 33 70  2  0  0  0
 34 36  1  0  0  0
 34 59  1  0  0  0
 34105  1  0  0  0
 35 44  2  0  0  0
 35 45  1  0  0  0
 35 68  1  0  0  0
 36 56  1  0  0  0
 36106  1  0  0  0
 37 39  1  0  0  0
 37 47  1  0  0  0
 37 66  1  0  0  0
 37107  1  0  0  0
 38 43  2  0  0  0
 38 46  1  0  0  0
 38 47  1  0  0  0
 39 64  1  0  0  0
 39 67  2  0  0  0
 40 52  1  0  0  0
 40 53  2  0  0  0
 40 58  1  0  0  0
 41108  1  0  0  0
 41109  1  0  0  0
 41110  1  0  0  0
 41 48  1  0  0  0
 42 43  1  0  0  0
 42 66  1  0  0  0
 42111  1  0  0  0
 42112  1  0  0  0
 43 44  1  0  0  0
 44113  1  0  0  0
 45 46  2  0  0  0
 45114  1  0  0  0
 46115  1  0  0  0
 47116  1  0  0  0
 47117  1  0  0  0
 48 56  1  0  0  0
 48 65  1  0  0  0
 48118  1  0  0  0
 49 50  1  0  0  0
 49 53  1  0  0  0
 49 64  1  0  0  0
 49119  1  0  0  0
 50 51  1  0  0  0
 50120  1  0  0  0
 50121  1  0  0  0
 51 52  1  0  0  0
 51122  1  0  0  0
 51123  1  0  0  0
 52124  1  0  0  0
 52125  1  0  0  0
 53 54  1  0  0  0
 54 55  2  0  0  0
 54126  1  0  0  0
 55 57  1  0  0  0
 55127  1  0  0  0
 56 69  2  0  0  0
 57 58  2  0  0  0
 57128  1  0  0  0
 58129  1  0  0  0
 59 60  1  0  0  0
 59 61  1  0  0  0
 59 62  1  0  0  0
 60130  1  0  0  0
 60131  1  0  0  0
 60132  1  0  0  0
 61133  1  0  0  0
 61134  1  0  0  0
 61135  1  0  0  0
 62136  1  0  0  0
 62137  1  0  0  0
 62138  1  0  0  0
 63 65  1  0  0  0
 63139  1  0  0  0
 63140  1  0  0  0
 63141  1  0  0  0
 64142  1  0  0  0
 65143  1  0  0  0
 68 80  1  0  0  0
 71 73  1  0  0  0
 71 75  1  0  0  0
 71144  1  0  0  0
 71145  1  0  0  0
 72 74  1  0  0  0
 72 75  1  0  0  0
 72146  1  0  0  0
 72147  1  0  0  0
 73 82  1  0  0  0
 73148  1  0  0  0
 73149  1  0  0  0
 74 82  1  0  0  0
 74150  1  0  0  0
 74151  1  0  0  0
 75 83  1  0  0  0
 75152  1  0  0  0
 76153  1  0  0  0
 76154  1  0  0  0
 76155  1  0  0  0
 76 81  1  0  0  0
 77 78  1  0  0  0
 77 81  1  0  0  0
 77156  1  0  0  0
 77157  1  0  0  0
 78 84  1  0  0  0
 78158  1  0  0  0
 78159  1  0  0  0
 79 80  1  0  0  0
 79 84  1  0  0  0
 79160  1  0  0  0
 79161  1  0  0  0
 80162  1  0  0  0
 80163  1  0  0  0
 81 83  1  0  0  0
 81164  1  0  0  0
 83165  1  0  0  0
 83166  1  0  0  0
 84167  1  0  0  0
 84168  1  0  0  0
M  CHG  2  83   1  84   1
M  ISO  4   1 100  68 101  80 101  82 100
M  END
> <chiral flag>
0

> <version>
0

> <s_m_source_file>
/data/baiqing/PycharmProjects/Reinvent-master-3.2/result/LINK_invent/BTK/process_docking_weight1_custom_sum_contain_oxygen_bond_distance_aromatic_linkinvent_7_9_3/rearranged_h_0121.sdf

> <i_m_source_file_index>
42

> <r_mmod_Potential_Energy-OPLS-2005>
-37.4762573242188

> <r_mmod_Stretch_Energy-OPLS-2005>
35.793041229248

> <r_mmod_Bend_Energy-OPLS-2005>
101.467987060547

> <r_mmod_Torsional_Energy-OPLS-2005>
375.057739257812

> <r_mmod_Improper_Torsional_Energy-OPLS-2005>
8.08513736724854

> <r_mmod_Van_der_Waal_Energy-OPLS-2005>
146.653533935547

> <r_mmod_Electrostatic_Energy-OPLS-2005>
262.871215820312

> <r_mmod_Solvation_Energy-OPLS-2005>
-981.399841308594

> <b_mmod_Minimization_Converged-OPLS-2005>
0

> <r_mmod_RMS_Derivative-OPLS-2005>
4.13546752929688

$$$$
42
                    3D
 Structure written by MMmdl.
150158  0  0  1  0            999 V2000
  -30.4020  -15.3234   20.3622 C   0  0  0  0  0  0
  -30.4420  -12.8569   19.5044 C   0  0  0  0  0  0
  -29.5319  -12.5708   18.2824 C   0  0  0  0  0  0
  -28.0872  -12.2809   18.7271 C   0  0  0  0  0  0
  -27.6064  -13.2723   19.8146 C   0  0  2  0  0  0
  -28.6437  -13.4754   20.9375 C   0  0  0  0  0  0
  -25.2380  -13.8235   20.5757 C   0  0  0  0  0  0
  -24.1734  -13.0429   20.9274 C   0  0  0  0  0  0
  -24.6389  -11.6926   20.8780 C   0  0  0  0  0  0
  -23.9087  -10.4287   21.0423 C   0  0  0  0  0  0
  -24.3635   -9.4198   21.9195 C   0  0  0  0  0  0
  -23.6304   -8.2237   22.0756 C   0  0  0  0  0  0
  -22.4285   -8.0283   21.3548 C   0  0  0  0  0  0
  -21.9928   -9.0257   20.4647 C   0  0  0  0  0  0
  -22.7261  -10.2131   20.3065 C   0  0  0  0  0  0
  -21.6851   -6.0738   22.5278 C   0  0  0  0  0  0
  -21.4009   -6.5643   23.8212 C   0  0  0  0  0  0
  -21.3656   -5.6796   24.9175 C   0  0  0  0  0  0
  -21.6048   -4.3059   24.7228 C   0  0  0  0  0  0
  -21.8817   -3.8148   23.4347 C   0  0  0  0  0  0
  -21.9191   -4.6966   22.3403 C   0  0  0  0  0  0
  -22.7753  -13.5179   21.1922 C   0  0  0  0  0  0
  -22.1661   -4.2149   21.0981 F   0  0  0  0  0  0
  -21.5631   -3.4544   25.7739 F   0  0  0  0  0  0
  -29.8552  -14.0060   20.2885 N   0  0  0  0  0  0
  -26.2799  -12.9503   20.3218 N   0  0  0  0  0  0
  -25.9326  -11.6611   20.5737 N   0  0  0  0  0  0
  -22.0414  -12.8160   22.0474 N   0  0  0  0  0  0
  -25.4010  -15.1968   20.4178 N   0  0  0  0  0  0
  -31.6369  -15.3243   20.2467 O   0  0  0  0  0  0
  -21.6644   -6.8885   21.4243 O   0  0  0  0  0  0
  -22.3437  -14.5486   20.6764 O   0  0  0  0  0  0
  -24.6662  -31.8198   23.1668 C   0  0  0  0  0  0
  -25.9327  -32.4571   23.8141 C   0  0  1  0  0  0
  -27.2147  -26.8889   20.1990 C   0  0  0  0  0  0
  -25.5994  -33.8388   24.2052 N   0  0  0  0  0  0
  -23.4821  -30.4300   21.5172 C   0  0  2  0  0  0
  -24.9324  -28.8039   20.1219 C   0  0  0  0  0  0
  -22.7682  -29.4428   22.4777 C   0  0  0  0  0  0
  -18.0327  -28.1421   22.8475 C   0  0  0  0  0  0
  -24.1481  -36.7184   23.2653 C   0  0  0  0  0  0
  -26.0527  -30.6158   21.3991 C   0  0  0  0  0  0
  -26.1188  -29.1986   20.7526 C   0  0  0  0  0  0
  -27.2554  -28.2669   20.7564 C   0  0  0  0  0  0
  -25.9939  -26.6485   19.5297 C   0  0  0  0  0  0
  -24.8968  -27.5497   19.4899 C   0  0  0  0  0  0
  -23.7240  -29.7396   20.1463 C   0  0  0  0  0  0
  -25.4125  -36.2943   24.0300 C   0  0  1  0  0  0
  -20.5952  -28.3758   23.1186 C   0  0  2  0  0  0
  -20.6798  -26.9438   22.5401 C   0  0  0  0  0  0
  -19.5768  -26.6381   21.5218 C   0  0  0  0  0  0
  -18.1948  -26.7956   22.1622 C   0  0  0  0  0  0
  -19.1589  -28.8911   23.2815 C   0  0  0  0  0  0
  -18.9507  -30.1502   23.8849 C   0  0  0  0  0  0
  -17.6501  -30.6609   24.0561 C   0  0  0  0  0  0
  -25.9098  -34.9337   23.4988 C   0  0  0  0  0  0
  -16.5387  -29.9096   23.6352 C   0  0  0  0  0  0
  -16.7308  -28.6518   23.0368 C   0  0  0  0  0  0
  -26.4569  -31.6542   25.0690 C   0  0  0  0  0  0
  -25.3683  -31.3813   26.1339 C   0  0  0  0  0  0
  -27.0484  -30.2914   24.6443 C   0  0  0  0  0  0
  -27.6058  -32.4361   25.7489 C   0  0  0  0  0  0
  -27.5547  -37.1742   24.8474 C   0  0  0  0  0  0
  -21.4346  -29.3050   22.3541 N   0  0  0  0  0  0
  -26.4252  -37.3693   23.9420 N   0  0  0  0  0  0
  -24.7558  -30.9835   22.0817 N   0  0  0  0  0  0
  -23.4220  -28.7997   23.3020 O   0  0  0  0  0  0
  -28.2537  -25.8086   20.1668 O   0  0  0  0  0  0
  -26.5704  -34.8887   22.4581 O   0  0  0  0  0  0
  -23.5722  -32.1178   23.6740 O   0  0  0  0  0  0
  -26.9654  -23.2590   20.4088 C   0  0  0  0  0  0
  -27.3112  -21.7211   20.7823 C   0  0  0  0  0  0
  -29.1823  -22.8024   19.9901 C   0  0  0  0  0  0
  -28.2266  -24.1625   20.4937 C   0  0  1  0  0  0
  -29.7086  -18.2520   20.6965 C   0  0  0  0  0  0
  -29.0343  -19.7728   19.9434 C   0  0  0  0  0  0
  -29.6057  -16.5913   20.3644 N   0  0  0  0  0  0
  -28.7530  -21.3385   20.5374 N   0  3  2  0  0  0
  -31.4471  -13.0927   19.1524 H   0  0  0  0  0  0
  -30.5497  -11.9696   20.1304 H   0  0  0  0  0  0
  -29.9222  -11.7307   17.7059 H   0  0  0  0  0  0
  -29.5398  -13.4326   17.6140 H   0  0  0  0  0  0
  -28.0662  -11.2668   19.1289 H   0  0  0  0  0  0
  -27.4103  -12.2848   17.8720 H   0  0  0  0  0  0
  -27.5108  -14.2275   19.2967 H   0  0  0  0  0  0
  -28.8379  -12.5493   21.4806 H   0  0  0  0  0  0
  -28.2753  -14.1963   21.6693 H   0  0  0  0  0  0
  -25.2776   -9.5672   22.4778 H   0  0  0  0  0  0
  -24.0004   -7.4627   22.7477 H   0  0  0  0  0  0
  -21.0857   -8.8782   19.8955 H   0  0  0  0  0  0
  -22.3722  -10.9677   19.6180 H   0  0  0  0  0  0
  -21.1997   -7.6151   23.9715 H   0  0  0  0  0  0
  -21.1479   -6.0528   25.9077 H   0  0  0  0  0  0
  -22.0598   -2.7610   23.2848 H   0  0  0  0  0  0
  -22.4039  -11.9817   22.4845 H   0  0  0  0  0  0
  -21.1031  -13.1172   22.2699 H   0  0  0  0  0  0
  -24.6284  -15.8448   20.5302 H   0  0  0  0  0  0
  -26.2390  -15.6391   20.0659 H   0  0  0  0  0  0
  -26.7399  -32.5086   23.0853 H   0  0  0  0  0  0
  -25.0137  -33.9471   25.0199 H   0  0  0  0  0  0
  -22.7984  -31.2633   21.3408 H   0  0  0  0  0  0
  -23.3755  -35.9501   23.3291 H   0  0  0  0  0  0
  -24.3554  -36.8851   22.2073 H   0  0  0  0  0  0
  -23.7234  -37.6359   23.6727 H   0  0  0  0  0  0
  -26.2338  -31.3515   20.6139 H   0  0  0  0  0  0
  -26.9139  -30.6783   22.0532 H   0  0  0  0  0  0
  -28.1631  -28.5788   21.2536 H   0  0  0  0  0  0
  -25.8694  -25.6965   19.0338 H   0  0  0  0  0  0
  -23.9965  -27.2432   18.9748 H   0  0  0  0  0  0
  -23.8891  -30.5046   19.3869 H   0  0  0  0  0  0
  -22.8318  -29.1991   19.8242 H   0  0  0  0  0  0
  -25.1326  -36.1713   25.0789 H   0  0  0  0  0  0
  -21.0042  -28.3354   24.1305 H   0  0  0  0  0  0
  -20.5689  -26.2376   23.3640 H   0  0  0  0  0  0
  -21.6657  -26.7414   22.1197 H   0  0  0  0  0  0
  -19.6929  -25.6280   21.1277 H   0  0  0  0  0  0
  -19.6708  -27.3175   20.6737 H   0  0  0  0  0  0
  -17.4220  -26.6716   21.4024 H   0  0  0  0  0  0
  -18.0327  -26.0114   22.9031 H   0  0  0  0  0  0
  -19.7984  -30.7331   24.2190 H   0  0  0  0  0  0
  -17.5054  -31.6286   24.5166 H   0  0  0  0  0  0
  -15.5387  -30.2985   23.7713 H   0  0  0  0  0  0
  -15.8705  -28.0820   22.7114 H   0  0  0  0  0  0
  -24.5879  -30.7153   25.7638 H   0  0  0  0  0  0
  -24.8863  -32.3026   26.4614 H   0  0  0  0  0  0
  -25.7899  -30.9069   27.0211 H   0  0  0  0  0  0
  -26.3163  -29.6581   24.1426 H   0  0  0  0  0  0
  -27.4003  -29.7287   25.5096 H   0  0  0  0  0  0
  -27.9098  -30.4114   23.9875 H   0  0  0  0  0  0
  -27.2634  -33.3725   26.1904 H   0  0  0  0  0  0
  -28.3950  -32.6822   25.0373 H   0  0  0  0  0  0
  -28.0638  -31.8597   26.5536 H   0  0  0  0  0  0
  -28.2550  -38.0047   24.7495 H   0  0  0  0  0  0
  -28.1042  -36.2568   24.6312 H   0  0  0  0  0  0
  -27.2261  -37.1397   25.8877 H   0  0  0  0  0  0
  -20.9605  -29.8737   21.6666 H   0  0  0  0  0  0
  -26.0081  -38.2735   24.1459 H   0  0  0  0  0  0
  -26.1648  -23.6432   21.0408 H   0  0  0  0  0  0
  -26.5873  -23.2900   19.3866 H   0  0  0  0  0  0
  -26.6345  -21.0602   20.2407 H   0  0  0  0  0  0
  -27.1096  -21.5517   21.8408 H   0  0  0  0  0  0
  -30.2300  -22.9769   20.2353 H   0  0  0  0  0  0
  -29.1422  -22.7564   18.9007 H   0  0  0  0  0  0
  -28.4380  -24.2134   21.5619 H   0  0  0  0  0  0
  -29.3348  -18.2920   21.7194 H   0  0  0  0  0  0
  -30.7771  -18.4369   20.8107 H   0  0  0  0  0  0
  -28.0734  -19.4682   19.5309 H   0  0  0  0  0  0
  -29.6406  -19.9392   19.0531 H   0  0  0  0  0  0
  -28.6338  -16.3374   20.2636 H   0  0  0  0  0  0
  -29.1618  -21.3034   21.4601 H   0  0  0  0  0  0
  1 25  1  0  0  0
  1 30  2  0  0  0
  1 77  1  0  0  0
  2  3  1  0  0  0
  2 25  1  0  0  0
  2 79  1  0  0  0
  2 80  1  0  0  0
  3  4  1  0  0  0
  3 81  1  0  0  0
  3 82  1  0  0  0
  4  5  1  0  0  0
  4 83  1  0  0  0
  4 84  1  0  0  0
  5  6  1  0  0  0
  5 26  1  0  0  0
  5 85  1  0  0  0
  6 25  1  0  0  0
  6 86  1  0  0  0
  6 87  1  0  0  0
  7  8  2  0  0  0
  7 26  1  0  0  0
  7 29  1  0  0  0
  8  9  1  0  0  0
  8 22  1  0  0  0
  9 10  1  0  0  0
  9 27  2  0  0  0
 10 11  2  0  0  0
 10 15  1  0  0  0
 11 12  1  0  0  0
 11 88  1  0  0  0
 12 13  2  0  0  0
 12 89  1  0  0  0
 13 14  1  0  0  0
 13 31  1  0  0  0
 14 15  2  0  0  0
 14 90  1  0  0  0
 15 91  1  0  0  0
 16 17  2  0  0  0
 16 21  1  0  0  0
 16 31  1  0  0  0
 17 18  1  0  0  0
 17 92  1  0  0  0
 18 19  2  0  0  0
 18 93  1  0  0  0
 19 20  1  0  0  0
 19 24  1  0  0  0
 20 21  2  0  0  0
 20 94  1  0  0  0
 21 23  1  0  0  0
 22 28  1  0  0  0
 22 32  2  0  0  0
 26 27  1  0  0  0
 28 95  1  0  0  0
 28 96  1  0  0  0
 29 97  1  0  0  0
 29 98  1  0  0  0
 33 34  1  0  0  0
 33 66  1  0  0  0
 33 70  2  0  0  0
 34 36  1  0  0  0
 34 59  1  0  0  0
 34 99  1  0  0  0
 35 44  2  0  0  0
 35 45  1  0  0  0
 35 68  1  0  0  0
 36 56  1  0  0  0
 36100  1  0  0  0
 37 39  1  0  0  0
 37 47  1  0  0  0
 37 66  1  0  0  0
 37101  1  0  0  0
 38 43  2  0  0  0
 38 46  1  0  0  0
 38 47  1  0  0  0
 39 64  1  0  0  0
 39 67  2  0  0  0
 40 52  1  0  0  0
 40 53  2  0  0  0
 40 58  1  0  0  0
 41102  1  0  0  0
 41103  1  0  0  0
 41104  1  0  0  0
 41 48  1  0  0  0
 42 43  1  0  0  0
 42 66  1  0  0  0
 42105  1  0  0  0
 42106  1  0  0  0
 43 44  1  0  0  0
 44107  1  0  0  0
 45 46  2  0  0  0
 45108  1  0  0  0
 46109  1  0  0  0
 47110  1  0  0  0
 47111  1  0  0  0
 48 56  1  0  0  0
 48 65  1  0  0  0
 48112  1  0  0  0
 49 50  1  0  0  0
 49 53  1  0  0  0
 49 64  1  0  0  0
 49113  1  0  0  0
 50 51  1  0  0  0
 50114  1  0  0  0
 50115  1  0  0  0
 51 52  1  0  0  0
 51116  1  0  0  0
 51117  1  0  0  0
 52118  1  0  0  0
 52119  1  0  0  0
 53 54  1  0  0  0
 54 55  2  0  0  0
 54120  1  0  0  0
 55 57  1  0  0  0
 55121  1  0  0  0
 56 69  2  0  0  0
 57 58  2  0  0  0
 57122  1  0  0  0
 58123  1  0  0  0
 59 60  1  0  0  0
 59 61  1  0  0  0
 59 62  1  0  0  0
 60124  1  0  0  0
 60125  1  0  0  0
 60126  1  0  0  0
 61127  1  0  0  0
 61128  1  0  0  0
 61129  1  0  0  0
 62130  1  0  0  0
 62131  1  0  0  0
 62132  1  0  0  0
 63 65  1  0  0  0
 63133  1  0  0  0
 63134  1  0  0  0
 63135  1  0  0  0
 64136  1  0  0  0
 65137  1  0  0  0
 68 74  1  0  0  0
 71 72  1  0  0  0
 71 74  1  0  0  0
 71138  1  0  0  0
 71139  1  0  0  0
 72 78  1  0  0  0
 72140  1  0  0  0
 72141  1  0  0  0
 73 74  1  0  0  0
 73 78  1  0  0  0
 73142  1  0  0  0
 73143  1  0  0  0
 74144  1  0  0  0
 75 76  1  0  0  0
 75 77  1  0  0  0
 75145  1  0  0  0
 75146  1  0  0  0
 76147  1  0  0  0
 76148  1  0  0  0
 76 78  1  0  0  0
 77149  1  0  0  0
 78150  1  0  0  0
M  CHG  1  78   1
M  ISO  4   1 100  68 101  74 101  77 100
M  END
> <chiral flag>
0

> <version>
0

> <s_m_source_file>
/data/baiqing/PycharmProjects/Reinvent-master-3.2/result/LINK_invent/BTK/process_docking_weight1_custom_sum_contain_oxygen_bond_distance_aromatic_linkinvent_7_9_3/rearranged_h_0121.sdf

> <i_m_source_file_index>
43

> <r_mmod_Potential_Energy-OPLS-2005>
1364.32092285156

> <r_mmod_Stretch_Energy-OPLS-2005>
629.640319824219

> <r_mmod_Bend_Energy-OPLS-2005>
547.645690917969

> <r_mmod_Torsional_Energy-OPLS-2005>
292.380310058594

> <r_mmod_Improper_Torsional_Energy-OPLS-2005>
4.52775096893311

> <r_mmod_Van_der_Waal_Energy-OPLS-2005>
105.590087890625

> <r_mmod_Electrostatic_Energy-OPLS-2005>
-259.139251708984

> <r_mmod_Solvation_Energy-OPLS-2005>
-469.081207275391

> <b_mmod_Minimization_Converged-OPLS-2005>
0

> <r_mmod_RMS_Derivative-OPLS-2005>
1.39129829406738

$$$$
43
                    3D
 Structure written by MMmdl.
164172  0  0  1  0            999 V2000
  -30.6840  -14.5627   20.5303 C   0  0  0  0  0  0
  -30.4385  -12.3461   19.4559 C   0  0  0  0  0  0
  -29.5164  -12.4991   18.2245 C   0  0  0  0  0  0
  -28.0379  -12.3478   18.6372 C   0  0  0  0  0  0
  -27.6646  -13.2129   19.8718 C   0  0  2  0  0  0
  -28.7072  -13.0601   21.0052 C   0  0  0  0  0  0
  -25.2613  -13.8175   20.5709 C   0  0  0  0  0  0
  -24.1852  -13.0437   20.9173 C   0  0  0  0  0  0
  -24.6395  -11.6909   20.8690 C   0  0  0  0  0  0
  -23.9063  -10.4292   21.0350 C   0  0  0  0  0  0
  -24.3588   -9.4216   21.9147 C   0  0  0  0  0  0
  -23.6254   -8.2260   22.0756 C   0  0  0  0  0  0
  -22.4241   -8.0278   21.3544 C   0  0  0  0  0  0
  -21.9875   -9.0270   20.4663 C   0  0  0  0  0  0
  -22.7215  -10.2139   20.3039 C   0  0  0  0  0  0
  -21.6864   -6.0704   22.5265 C   0  0  0  0  0  0
  -21.4020   -6.5623   23.8202 C   0  0  0  0  0  0
  -21.3660   -5.6777   24.9175 C   0  0  0  0  0  0
  -21.6027   -4.3049   24.7210 C   0  0  0  0  0  0
  -21.8832   -3.8122   23.4343 C   0  0  0  0  0  0
  -21.9197   -4.6935   22.3384 C   0  0  0  0  0  0
  -22.7874  -13.5249   21.1801 C   0  0  0  0  0  0
  -22.1679   -4.2124   21.0967 F   0  0  0  0  0  0
  -21.5629   -3.4535   25.7719 F   0  0  0  0  0  0
  -30.0357  -13.3604   20.4498 N   0  0  0  0  0  0
  -26.3043  -12.9341   20.3350 N   0  0  0  0  0  0
  -25.9327  -11.6507   20.5742 N   0  0  0  0  0  0
  -22.0509  -12.8273   22.0377 N   0  0  0  0  0  0
  -25.4344  -15.1913   20.4166 N   0  0  0  0  0  0
  -31.8133  -14.7358   20.0749 O   0  0  0  0  0  0
  -21.6649   -6.8865   21.4225 O   0  0  0  0  0  0
  -22.3586  -14.5554   20.6664 O   0  0  0  0  0  0
  -24.6216  -31.8646   23.2073 C   0  0  0  0  0  0
  -25.9089  -32.4806   23.8367 C   0  0  1  0  0  0
  -27.1927  -27.3443   20.0763 C   0  0  0  0  0  0
  -25.5927  -33.8609   24.2288 N   0  0  0  0  0  0
  -23.4110  -30.4944   21.5529 C   0  0  2  0  0  0
  -24.8449  -28.9675   20.1025 C   0  0  0  0  0  0
  -22.7442  -29.4664   22.4969 C   0  0  0  0  0  0
  -18.0261  -28.1387   22.8476 C   0  0  0  0  0  0
  -24.1479  -36.7312   23.2634 C   0  0  0  0  0  0
  -25.9504  -30.8000   21.3779 C   0  0  0  0  0  0
  -26.0153  -29.4324   20.7155 C   0  0  0  0  0  0
  -27.1918  -28.6264   20.7052 C   0  0  0  0  0  0
  -26.0018  -26.9534   19.4140 C   0  0  0  0  0  0
  -24.8392  -27.7346   19.4433 C   0  0  0  0  0  0
  -23.6135  -29.8427   20.1638 C   0  0  0  0  0  0
  -25.4105  -36.3097   24.0328 C   0  0  1  0  0  0
  -20.5863  -28.3705   23.1304 C   0  0  2  0  0  0
  -20.6753  -26.9443   22.5426 C   0  0  0  0  0  0
  -19.5734  -26.6383   21.5210 C   0  0  0  0  0  0
  -18.1904  -26.7920   22.1622 C   0  0  0  0  0  0
  -19.1516  -28.8865   23.2867 C   0  0  0  0  0  0
  -18.9439  -30.1458   23.8883 C   0  0  0  0  0  0
  -17.6444  -30.6595   24.0560 C   0  0  0  0  0  0
  -25.9042  -34.9475   23.5108 C   0  0  0  0  0  0
  -16.5334  -29.9096   23.6331 C   0  0  0  0  0  0
  -16.7249  -28.6519   23.0348 C   0  0  0  0  0  0
  -26.4463  -31.6627   25.0747 C   0  0  0  0  0  0
  -25.3715  -31.3807   26.1500 C   0  0  0  0  0  0
  -27.0281  -30.3013   24.6246 C   0  0  0  0  0  0
  -27.6013  -32.4384   25.7532 C   0  0  0  0  0  0
  -27.5566  -37.1813   24.8457 C   0  0  0  0  0  0
  -21.4163  -29.3040   22.3694 N   0  0  0  0  0  0
  -26.4276  -37.3796   23.9412 N   0  0  0  0  0  0
  -24.6791  -31.0714   22.0999 N   0  0  0  0  0  0
  -23.4189  -28.8189   23.3024 O   0  0  0  0  0  0
  -28.3050  -26.4942   20.1283 O   0  0  0  0  0  0
  -26.5614  -34.8942   22.4673 O   0  0  0  0  0  0
  -23.5398  -32.1462   23.7426 O   0  0  0  0  0  0
  -29.8548  -20.6408   20.2699 C   0  0  0  0  0  0
  -28.2498  -19.6997   21.4913 C   0  0  0  0  0  0
  -29.5223  -19.4703   21.0420 C   0  0  0  0  0  0
  -28.7916  -21.5192   20.2966 C   0  0  0  0  0  0
  -26.1415  -21.4787   22.7499 C   0  0  0  0  0  0
  -25.3529  -20.4708   20.5892 C   0  0  0  0  0  0
  -30.0134  -17.0052   20.3657 C   0  0  0  0  0  0
  -28.1538  -25.1182   19.6239 C   0  0  0  0  0  0
  -28.9472  -23.9455   20.2930 C   0  0  0  0  0  0
  -30.3361  -18.1894   21.3456 C   0  0  2  0  0  0
  -26.4073  -21.3915   21.2402 C   0  0  0  0  0  0
  -27.7682  -20.9091   21.0089 N   0  0  0  0  0  0
  -29.9382  -15.6233   20.9234 N   0  0  0  0  0  0
  -31.7671  -18.5266   21.3544 N   0  3  0  0  0  0
  -28.6060  -22.6993   19.6298 O   0  0  0  0  0  0
  -31.4869  -12.4474   19.1619 H   0  0  0  0  0  0
  -30.3464  -11.3477   19.8832 H   0  0  0  0  0  0
  -29.7632  -11.7532   17.4652 H   0  0  0  0  0  0
  -29.6797  -13.4736   17.7605 H   0  0  0  0  0  0
  -27.8841  -11.2952   18.8717 H   0  0  0  0  0  0
  -27.3820  -12.5694   17.7939 H   0  0  0  0  0  0
  -27.6928  -14.2514   19.5414 H   0  0  0  0  0  0
  -28.7001  -12.0433   21.4053 H   0  0  0  0  0  0
  -28.4551  -13.7170   21.8398 H   0  0  0  0  0  0
  -25.2748   -9.5700   22.4725 H   0  0  0  0  0  0
  -23.9978   -7.4659   22.7478 H   0  0  0  0  0  0
  -21.0815   -8.8763   19.8990 H   0  0  0  0  0  0
  -22.3646  -10.9656   19.6160 H   0  0  0  0  0  0
  -21.2034   -7.6132   23.9698 H   0  0  0  0  0  0
  -21.1470   -6.0506   25.9077 H   0  0  0  0  0  0
  -22.0601   -2.7571   23.2835 H   0  0  0  0  0  0
  -22.4120  -11.9964   22.4836 H   0  0  0  0  0  0
  -21.1142  -13.1361   22.2597 H   0  0  0  0  0  0
  -24.6649  -15.8421   20.5278 H   0  0  0  0  0  0
  -26.2768  -15.6259   20.0604 H   0  0  0  0  0  0
  -26.7187  -32.5469   23.1140 H   0  0  0  0  0  0
  -25.0016  -33.9762   25.0393 H   0  0  0  0  0  0
  -22.7007  -31.3142   21.4193 H   0  0  0  0  0  0
  -23.3725  -35.9656   23.3311 H   0  0  0  0  0  0
  -24.3527  -36.8921   22.2035 H   0  0  0  0  0  0
  -23.7274  -37.6546   23.6646 H   0  0  0  0  0  0
  -26.0869  -31.5676   20.6163 H   0  0  0  0  0  0
  -26.8361  -30.8394   22.0058 H   0  0  0  0  0  0
  -28.0924  -28.9693   21.1959 H   0  0  0  0  0  0
  -25.9070  -26.0444   18.8425 H   0  0  0  0  0  0
  -23.9497  -27.3870   18.9336 H   0  0  0  0  0  0
  -23.7187  -30.6229   19.4086 H   0  0  0  0  0  0
  -22.7341  -29.2675   19.8677 H   0  0  0  0  0  0
  -25.1282  -36.1927   25.0823 H   0  0  0  0  0  0
  -20.9932  -28.3270   24.1428 H   0  0  0  0  0  0
  -20.5617  -26.2323   23.3615 H   0  0  0  0  0  0
  -21.6622  -26.7415   22.1250 H   0  0  0  0  0  0
  -19.6887  -25.6278   21.1258 H   0  0  0  0  0  0
  -19.6680  -27.3180   20.6733 H   0  0  0  0  0  0
  -17.4177  -26.6661   21.4024 H   0  0  0  0  0  0
  -18.0300  -26.0061   22.9028 H   0  0  0  0  0  0
  -19.7924  -30.7258   24.2254 H   0  0  0  0  0  0
  -17.5018  -31.6270   24.5166 H   0  0  0  0  0  0
  -15.5350  -30.3008   23.7655 H   0  0  0  0  0  0
  -15.8638  -28.0829   22.7096 H   0  0  0  0  0  0
  -24.5841  -30.7186   25.7871 H   0  0  0  0  0  0
  -24.8956  -32.3004   26.4927 H   0  0  0  0  0  0
  -25.8039  -30.8993   27.0284 H   0  0  0  0  0  0
  -26.2844  -29.6821   24.1191 H   0  0  0  0  0  0
  -27.3835  -29.7224   25.4794 H   0  0  0  0  0  0
  -27.8803  -30.4238   23.9544 H   0  0  0  0  0  0
  -27.2551  -33.3651   26.2138 H   0  0  0  0  0  0
  -28.3803  -32.7032   25.0366 H   0  0  0  0  0  0
  -28.0717  -31.8520   26.5450 H   0  0  0  0  0  0
  -28.2609  -38.0081   24.7458 H   0  0  0  0  0  0
  -28.1035  -36.2616   24.6318 H   0  0  0  0  0  0
  -27.2272  -37.1514   25.8857 H   0  0  0  0  0  0
  -20.9321  -29.8801   21.6943 H   0  0  0  0  0  0
  -26.0145  -38.2869   24.1422 H   0  0  0  0  0  0
  -30.7726  -20.8133   19.7240 H   0  0  0  0  0  0
  -27.6105  -19.0760   22.0987 H   0  0  0  0  0  0
  -25.1706  -21.9259   22.9550 H   0  0  0  0  0  0
  -26.9034  -22.0761   23.2434 H   0  0  0  0  0  0
  -26.1315  -20.4946   23.2200 H   0  0  0  0  0  0
  -25.4815  -19.4291   20.8876 H   0  0  0  0  0  0
  -25.3888  -20.5149   19.4995 H   0  0  0  0  0  0
  -24.3462  -20.7602   20.8905 H   0  0  0  0  0  0
  -30.6366  -17.0620   19.4698 H   0  0  0  0  0  0
  -29.0020  -17.1719   20.0008 H   0  0  0  0  0  0
  -27.1353  -24.7523   19.7235 H   0  0  0  0  0  0
  -28.3729  -25.1371   18.5553 H   0  0  0  0  0  0
  -28.7063  -23.8952   21.3565 H   0  0  0  0  0  0
  -30.0220  -24.1114   20.2152 H   0  0  0  0  0  0
  -30.0776  -17.8882   22.3634 H   0  0  0  0  0  0
  -26.3152  -22.3862   20.8018 H   0  0  0  0  0  0
  -29.0528  -15.3889   21.3491 H   0  0  0  0  0  0
  -32.3237  -17.7501   21.6616 H   0  0  0  0  0  0
  -31.9195  -19.2952   21.9818 H   0  0  0  0  0  0
  -32.0599  -18.8049   20.4344 H   0  0  0  0  0  0
  1 25  1  0  0  0
  1 30  2  0  0  0
  1 83  1  0  0  0
  2  3  1  0  0  0
  2 25  1  0  0  0
  2 86  1  0  0  0
  2 87  1  0  0  0
  3  4  1  0  0  0
  3 88  1  0  0  0
  3 89  1  0  0  0
  4  5  1  0  0  0
  4 90  1  0  0  0
  4 91  1  0  0  0
  5  6  1  0  0  0
  5 26  1  0  0  0
  5 92  1  0  0  0
  6 25  1  0  0  0
  6 93  1  0  0  0
  6 94  1  0  0  0
  7  8  2  0  0  0
  7 26  1  0  0  0
  7 29  1  0  0  0
  8  9  1  0  0  0
  8 22  1  0  0  0
  9 10  1  0  0  0
  9 27  2  0  0  0
 10 11  2  0  0  0
 10 15  1  0  0  0
 11 12  1  0  0  0
 11 95  1  0  0  0
 12 13  2  0  0  0
 12 96  1  0  0  0
 13 14  1  0  0  0
 13 31  1  0  0  0
 14 15  2  0  0  0
 14 97  1  0  0  0
 15 98  1  0  0  0
 16 17  2  0  0  0
 16 21  1  0  0  0
 16 31  1  0  0  0
 17 18  1  0  0  0
 17 99  1  0  0  0
 18 19  2  0  0  0
 18100  1  0  0  0
 19 20  1  0  0  0
 19 24  1  0  0  0
 20 21  2  0  0  0
 20101  1  0  0  0
 21 23  1  0  0  0
 22 28  1  0  0  0
 22 32  2  0  0  0
 26 27  1  0  0  0
 28102  1  0  0  0
 28103  1  0  0  0
 29104  1  0  0  0
 29105  1  0  0  0
 33 34  1  0  0  0
 33 66  1  0  0  0
 33 70  2  0  0  0
 34 36  1  0  0  0
 34 59  1  0  0  0
 34106  1  0  0  0
 35 44  2  0  0  0
 35 45  1  0  0  0
 35 68  1  0  0  0
 36 56  1  0  0  0
 36107  1  0  0  0
 37 39  1  0  0  0
 37 47  1  0  0  0
 37 66  1  0  0  0
 37108  1  0  0  0
 38 43  2  0  0  0
 38 46  1  0  0  0
 38 47  1  0  0  0
 39 64  1  0  0  0
 39 67  2  0  0  0
 40 52  1  0  0  0
 40 53  2  0  0  0
 40 58  1  0  0  0
 41109  1  0  0  0
 41110  1  0  0  0
 41111  1  0  0  0
 41 48  1  0  0  0
 42 43  1  0  0  0
 42 66  1  0  0  0
 42112  1  0  0  0
 42113  1  0  0  0
 43 44  1  0  0  0
 44114  1  0  0  0
 45 46  2  0  0  0
 45115  1  0  0  0
 46116  1  0  0  0
 47117  1  0  0  0
 47118  1  0  0  0
 48 56  1  0  0  0
 48 65  1  0  0  0
 48119  1  0  0  0
 49 50  1  0  0  0
 49 53  1  0  0  0
 49 64  1  0  0  0
 49120  1  0  0  0
 50 51  1  0  0  0
 50121  1  0  0  0
 50122  1  0  0  0
 51 52  1  0  0  0
 51123  1  0  0  0
 51124  1  0  0  0
 52125  1  0  0  0
 52126  1  0  0  0
 53 54  1  0  0  0
 54 55  2  0  0  0
 54127  1  0  0  0
 55 57  1  0  0  0
 55128  1  0  0  0
 56 69  2  0  0  0
 57 58  2  0  0  0
 57129  1  0  0  0
 58130  1  0  0  0
 59 60  1  0  0  0
 59 61  1  0  0  0
 59 62  1  0  0  0
 60131  1  0  0  0
 60132  1  0  0  0
 60133  1  0  0  0
 61134  1  0  0  0
 61135  1  0  0  0
 61136  1  0  0  0
 62137  1  0  0  0
 62138  1  0  0  0
 62139  1  0  0  0
 63 65  1  0  0  0
 63140  1  0  0  0
 63141  1  0  0  0
 63142  1  0  0  0
 64143  1  0  0  0
 65144  1  0  0  0
 68 78  1  0  0  0
 71 73  1  0  0  0
 71 74  2  0  0  0
 71145  1  0  0  0
 72 73  2  0  0  0
 72 82  1  0  0  0
 72146  1  0  0  0
 73 80  1  0  0  0
 74 82  1  0  0  0
 74 85  1  0  0  0
 75147  1  0  0  0
 75148  1  0  0  0
 75149  1  0  0  0
 75 81  1  0  0  0
 76 81  1  0  0  0
 76150  1  0  0  0
 76151  1  0  0  0
 76152  1  0  0  0
 77 80  1  0  0  0
 77 83  1  0  0  0
 77153  1  0  0  0
 77154  1  0  0  0
 78 79  1  0  0  0
 78155  1  0  0  0
 78156  1  0  0  0
 79 85  1  0  0  0
 79157  1  0  0  0
 79158  1  0  0  0
 80 84  1  0  0  0
 80159  1  0  0  0
 81 82  1  0  0  0
 81160  1  0  0  0
 83161  1  0  0  0
 84162  1  0  0  0
 84163  1  0  0  0
 84164  1  0  0  0
M  CHG  1  84   1
M  ISO  4   1 100  68 101  78 101  83 100
M  END
> <chiral flag>
0

> <version>
0

> <s_m_source_file>
/data/baiqing/PycharmProjects/Reinvent-master-3.2/result/LINK_invent/BTK/process_docking_weight1_custom_sum_contain_oxygen_bond_distance_aromatic_linkinvent_7_9_3/rearranged_h_0121.sdf

> <i_m_source_file_index>
44

> <r_mmod_Potential_Energy-OPLS-2005>
-301.224304199219

> <r_mmod_Stretch_Energy-OPLS-2005>
56.0510063171387

> <r_mmod_Bend_Energy-OPLS-2005>
130.221054077148

> <r_mmod_Torsional_Energy-OPLS-2005>
295.703948974609

> <r_mmod_Improper_Torsional_Energy-OPLS-2005>
7.89704895019531

> <r_mmod_Van_der_Waal_Energy-OPLS-2005>
127.800308227539

> <r_mmod_Electrostatic_Energy-OPLS-2005>
-474.406707763672

> <r_mmod_Solvation_Energy-OPLS-2005>
-481.013000488281

> <b_mmod_Minimization_Converged-OPLS-2005>
0

> <r_mmod_RMS_Derivative-OPLS-2005>
5.92326831817627

$$$$
44
                    3D
 Structure written by MMmdl.
168177  0  0  1  0            999 V2000
  -30.5209  -15.0197   20.3995 C   0  0  0  0  0  0
  -30.4373  -12.6304   19.5121 C   0  0  0  0  0  0
  -29.5243  -12.5335   18.2674 C   0  0  0  0  0  0
  -28.0621  -12.3051   18.6891 C   0  0  0  0  0  0
  -27.6256  -13.2533   19.8367 C   0  0  2  0  0  0
  -28.6648  -13.3178   20.9763 C   0  0  0  0  0  0
  -25.2445  -13.8225   20.5723 C   0  0  0  0  0  0
  -24.1763  -13.0444   20.9228 C   0  0  0  0  0  0
  -24.6393  -11.6931   20.8761 C   0  0  0  0  0  0
  -23.9078  -10.4291   21.0407 C   0  0  0  0  0  0
  -24.3623   -9.4211   21.9191 C   0  0  0  0  0  0
  -23.6286   -8.2250   22.0765 C   0  0  0  0  0  0
  -22.4270   -8.0284   21.3549 C   0  0  0  0  0  0
  -21.9914   -9.0262   20.4651 C   0  0  0  0  0  0
  -22.7251  -10.2137   20.3058 C   0  0  0  0  0  0
  -21.6858   -6.0730   22.5268 C   0  0  0  0  0  0
  -21.4015   -6.5634   23.8201 C   0  0  0  0  0  0
  -21.3660   -5.6791   24.9167 C   0  0  0  0  0  0
  -21.6040   -4.3053   24.7221 C   0  0  0  0  0  0
  -21.8819   -3.8143   23.4344 C   0  0  0  0  0  0
  -21.9190   -4.6954   22.3397 C   0  0  0  0  0  0
  -22.7785  -13.5207   21.1881 C   0  0  0  0  0  0
  -22.1658   -4.2143   21.0976 F   0  0  0  0  0  0
  -21.5633   -3.4541   25.7734 F   0  0  0  0  0  0
  -29.9319  -13.7474   20.3716 N   0  0  0  0  0  0
  -26.2870  -12.9462   20.3250 N   0  0  0  0  0  0
  -25.9328  -11.6587   20.5750 N   0  0  0  0  0  0
  -22.0427  -12.8198   22.0429 N   0  0  0  0  0  0
  -25.4099  -15.1957   20.4152 N   0  0  0  0  0  0
  -31.7321  -15.0356   20.1413 O   0  0  0  0  0  0
  -21.6640   -6.8879   21.4232 O   0  0  0  0  0  0
  -22.3480  -14.5513   20.6720 O   0  0  0  0  0  0
  -24.6448  -31.8387   23.1810 C   0  0  0  0  0  0
  -25.9213  -32.4655   23.8230 C   0  0  1  0  0  0
  -27.2143  -27.1002   20.1505 C   0  0  0  0  0  0
  -25.5953  -33.8472   24.2134 N   0  0  0  0  0  0
  -23.4492  -30.4526   21.5269 C   0  0  2  0  0  0
  -24.8996  -28.8699   20.0963 C   0  0  0  0  0  0
  -22.7580  -29.4500   22.4841 C   0  0  0  0  0  0
  -18.0299  -28.1383   22.8471 C   0  0  0  0  0  0
  -24.1492  -36.7245   23.2645 C   0  0  0  0  0  0
  -26.0033  -30.6983   21.3832 C   0  0  0  0  0  0
  -26.0713  -29.3062   20.7250 C   0  0  0  0  0  0
  -27.2208  -28.4302   20.7434 C   0  0  0  0  0  0
  -26.0257  -26.7689   19.4700 C   0  0  0  0  0  0
  -24.8909  -27.6185   19.4557 C   0  0  0  0  0  0
  -23.6744  -29.7744   20.1460 C   0  0  0  0  0  0
  -25.4123  -36.3007   24.0303 C   0  0  1  0  0  0
  -20.5916  -28.3707   23.1242 C   0  0  2  0  0  0
  -20.6774  -26.9406   22.5412 C   0  0  0  0  0  0
  -19.5751  -26.6368   21.5220 C   0  0  0  0  0  0
  -18.1929  -26.7915   22.1619 C   0  0  0  0  0  0
  -19.1561  -28.8867   23.2843 C   0  0  0  0  0  0
  -18.9485  -30.1458   23.8869 C   0  0  0  0  0  0
  -17.6487  -30.6582   24.0559 C   0  0  0  0  0  0
  -25.9092  -34.9390   23.5040 C   0  0  0  0  0  0
  -16.5374  -29.9073   23.6341 C   0  0  0  0  0  0
  -16.7291  -28.6494   23.0364 C   0  0  0  0  0  0
  -26.4525  -31.6549   25.0706 C   0  0  0  0  0  0
  -25.3698  -31.3759   26.1405 C   0  0  0  0  0  0
  -27.0387  -30.2940   24.6297 C   0  0  0  0  0  0
  -27.6055  -32.4327   25.7487 C   0  0  0  0  0  0
  -27.5564  -37.1757   24.8454 C   0  0  0  0  0  0
  -21.4274  -29.3023   22.3603 N   0  0  0  0  0  0
  -26.4263  -37.3735   23.9416 N   0  0  0  0  0  0
  -24.7191  -31.0196   22.0853 N   0  0  0  0  0  0
  -23.4211  -28.8068   23.3022 O   0  0  0  0  0  0
  -28.2615  -26.1175   20.3233 O   0  0  0  0  0  0
  -26.5702  -34.8898   22.4626 O   0  0  0  0  0  0
  -23.5555  -32.1299   23.6999 O   0  0  0  0  0  0
  -30.7229  -20.4915   19.7610 C   0  0  0  0  0  0
  -29.1084  -18.9088   20.5649 C   0  0  0  0  0  0
  -29.4362  -20.3496   20.3006 C   0  0  0  0  0  0
  -31.5840  -19.3852   19.5996 C   0  0  0  0  0  0
  -30.0198  -17.7407   20.3205 C   0  0  0  0  0  0
  -35.1134  -18.4615   18.6221 C   0  0  0  0  0  0
  -33.6707  -18.7677   18.1846 C   0  0  0  0  0  0
  -35.3644  -19.2609   19.9042 C   0  0  0  0  0  0
  -33.0585  -19.6498   19.2899 C   0  0  2  0  0  0
  -33.9799  -19.4969   20.5139 C   0  0  2  0  0  0
  -33.9519  -20.6900   21.4852 C   0  0  0  0  0  0
  -27.6716  -21.4347   21.8546 C   0  0  0  0  0  0
  -28.1017  -23.0651   19.8604 C   0  0  0  0  0  0
  -28.4906  -24.7232   19.6468 C   0  0  0  0  0  0
  -28.7236  -21.7809   20.7910 C   0  0  2  0  0  0
  -31.2401  -18.0964   19.8585 N   0  0  0  0  0  0
  -29.7459  -16.2293   20.5458 N   0  0  0  0  0  0
  -31.4711  -12.7878   19.1983 H   0  0  0  0  0  0
  -30.4393  -11.6900   20.0657 H   0  0  0  0  0  0
  -29.8580  -11.7252   17.6151 H   0  0  0  0  0  0
  -29.6003  -13.4514   17.6833 H   0  0  0  0  0  0
  -27.9765  -11.2694   19.0209 H   0  0  0  0  0  0
  -27.3950  -12.4063   17.8319 H   0  0  0  0  0  0
  -27.5782  -14.2463   19.3891 H   0  0  0  0  0  0
  -28.7711  -12.3527   21.4732 H   0  0  0  0  0  0
  -28.3525  -14.0286   21.7437 H   0  0  0  0  0  0
  -25.2765   -9.5688   22.4773 H   0  0  0  0  0  0
  -23.9986   -7.4650   22.7505 H   0  0  0  0  0  0
  -21.0840   -8.8782   19.8967 H   0  0  0  0  0  0
  -22.3706  -10.9674   19.6165 H   0  0  0  0  0  0
  -21.2008   -7.6144   23.9699 H   0  0  0  0  0  0
  -21.1483   -6.0527   25.9068 H   0  0  0  0  0  0
  -22.0598   -2.7604   23.2842 H   0  0  0  0  0  0
  -22.4032  -11.9851   22.4800 H   0  0  0  0  0  0
  -21.1056  -13.1238   22.2639 H   0  0  0  0  0  0
  -24.6361  -15.8422   20.5285 H   0  0  0  0  0  0
  -26.2433  -15.6402   20.0536 H   0  0  0  0  0  0
  -26.7278  -32.5240   23.0946 H   0  0  0  0  0  0
  -25.0053  -33.9591   25.0249 H   0  0  0  0  0  0
  -22.7533  -31.2785   21.3662 H   0  0  0  0  0  0
  -23.3765  -35.9562   23.3262 H   0  0  0  0  0  0
  -24.3590  -36.8944   22.2071 H   0  0  0  0  0  0
  -23.7234  -37.6417   23.6731 H   0  0  0  0  0  0
  -26.1616  -31.4488   20.6072 H   0  0  0  0  0  0
  -26.8726  -30.7515   22.0264 H   0  0  0  0  0  0
  -28.1063  -28.7450   21.2758 H   0  0  0  0  0  0
  -25.9426  -25.8028   18.9930 H   0  0  0  0  0  0
  -23.9929  -27.2802   18.9574 H   0  0  0  0  0  0
  -23.8039  -30.5460   19.3865 H   0  0  0  0  0  0
  -22.7889  -29.2143   19.8411 H   0  0  0  0  0  0
  -25.1297  -36.1817   25.0788 H   0  0  0  0  0  0
  -20.9993  -28.3285   24.1374 H   0  0  0  0  0  0
  -20.5671  -26.2312   23.3627 H   0  0  0  0  0  0
  -21.6634  -26.7402   22.1203 H   0  0  0  0  0  0
  -19.6924  -25.6284   21.1248 H   0  0  0  0  0  0
  -19.6697  -27.3176   20.6750 H   0  0  0  0  0  0
  -17.4201  -26.6697   21.4014 H   0  0  0  0  0  0
  -18.0302  -26.0053   22.9008 H   0  0  0  0  0  0
  -19.7981  -30.7271   24.2216 H   0  0  0  0  0  0
  -17.5053  -31.6263   24.5155 H   0  0  0  0  0  0
  -15.5377  -30.2970   23.7677 H   0  0  0  0  0  0
  -15.8689  -28.0802   22.7098 H   0  0  0  0  0  0
  -24.5903  -30.7068   25.7738 H   0  0  0  0  0  0
  -24.8861  -32.2947   26.4745 H   0  0  0  0  0  0
  -25.7976  -30.9018   27.0246 H   0  0  0  0  0  0
  -26.3002  -29.6661   24.1299 H   0  0  0  0  0  0
  -27.3993  -29.7254   25.4876 H   0  0  0  0  0  0
  -27.8904  -30.4185   23.9604 H   0  0  0  0  0  0
  -27.2676  -33.3694   26.1930 H   0  0  0  0  0  0
  -28.3927  -32.6770   25.0344 H   0  0  0  0  0  0
  -28.0631  -31.8536   26.5518 H   0  0  0  0  0  0
  -28.2521  -38.0107   24.7548 H   0  0  0  0  0  0
  -28.1115  -36.2638   24.6202 H   0  0  0  0  0  0
  -27.2306  -37.1304   25.8862 H   0  0  0  0  0  0
  -20.9476  -29.8772   21.6814 H   0  0  0  0  0  0
  -26.0126  -38.2784   24.1476 H   0  0  0  0  0  0
  -31.1094  -21.4882   19.5867 H   0  0  0  0  0  0
  -28.1462  -18.6978   21.0108 H   0  0  0  0  0  0
  -35.8393  -18.7085   17.8468 H   0  0  0  0  0  0
  -35.2136  -17.3952   18.8304 H   0  0  0  0  0  0
  -33.1315  -17.8263   18.0729 H   0  0  0  0  0  0
  -33.6279  -19.2701   17.2175 H   0  0  0  0  0  0
  -35.8283  -20.2165   19.6525 H   0  0  0  0  0  0
  -36.0370  -18.7457   20.5914 H   0  0  0  0  0  0
  -33.1494  -20.6800   18.9393 H   0  0  0  0  0  0
  -33.6931  -18.5919   21.0529 H   0  0  0  0  0  0
  -34.2933  -21.6062   21.0035 H   0  0  0  0  0  0
  -34.5937  -20.5107   22.3483 H   0  0  0  0  0  0
  -32.9438  -20.8700   21.8603 H   0  0  0  0  0  0
  -28.1022  -20.8362   22.6569 H   0  0  0  0  0  0
  -26.8499  -20.8662   21.4180 H   0  0  0  0  0  0
  -27.2532  -22.3350   22.3057 H   0  0  0  0  0  0
  -28.2233  -22.6659   18.8534 H   0  0  0  0  0  0
  -27.0182  -23.0401   19.9806 H   0  0  0  0  0  0
  -28.1350  -24.9262   18.6362 H   0  0  0  0  0  0
  -29.5734  -24.7085   19.5210 H   0  0  0  0  0  0
  -29.5312  -22.2615   21.3452 H   0  0  0  0  0  0
  -28.7895  -16.0352   20.7922 H   0  0  0  0  0  0
  1 25  1  0  0  0
  1 30  2  0  0  0
  1 87  1  0  0  0
  2  3  1  0  0  0
  2 25  1  0  0  0
  2 88  1  0  0  0
  2 89  1  0  0  0
  3  4  1  0  0  0
  3 90  1  0  0  0
  3 91  1  0  0  0
  4  5  1  0  0  0
  4 92  1  0  0  0
  4 93  1  0  0  0
  5  6  1  0  0  0
  5 26  1  0  0  0
  5 94  1  0  0  0
  6 25  1  0  0  0
  6 95  1  0  0  0
  6 96  1  0  0  0
  7  8  2  0  0  0
  7 26  1  0  0  0
  7 29  1  0  0  0
  8  9  1  0  0  0
  8 22  1  0  0  0
  9 10  1  0  0  0
  9 27  2  0  0  0
 10 11  2  0  0  0
 10 15  1  0  0  0
 11 12  1  0  0  0
 11 97  1  0  0  0
 12 13  2  0  0  0
 12 98  1  0  0  0
 13 14  1  0  0  0
 13 31  1  0  0  0
 14 15  2  0  0  0
 14 99  1  0  0  0
 15100  1  0  0  0
 16 17  2  0  0  0
 16 21  1  0  0  0
 16 31  1  0  0  0
 17 18  1  0  0  0
 17101  1  0  0  0
 18 19  2  0  0  0
 18102  1  0  0  0
 19 20  1  0  0  0
 19 24  1  0  0  0
 20 21  2  0  0  0
 20103  1  0  0  0
 21 23  1  0  0  0
 22 28  1  0  0  0
 22 32  2  0  0  0
 26 27  1  0  0  0
 28104  1  0  0  0
 28105  1  0  0  0
 29106  1  0  0  0
 29107  1  0  0  0
 33 34  1  0  0  0
 33 66  1  0  0  0
 33 70  2  0  0  0
 34 36  1  0  0  0
 34 59  1  0  0  0
 34108  1  0  0  0
 35 44  2  0  0  0
 35 45  1  0  0  0
 35 68  1  0  0  0
 36 56  1  0  0  0
 36109  1  0  0  0
 37 39  1  0  0  0
 37 47  1  0  0  0
 37 66  1  0  0  0
 37110  1  0  0  0
 38 43  2  0  0  0
 38 46  1  0  0  0
 38 47  1  0  0  0
 39 64  1  0  0  0
 39 67  2  0  0  0
 40 52  1  0  0  0
 40 53  2  0  0  0
 40 58  1  0  0  0
 41111  1  0  0  0
 41112  1  0  0  0
 41113  1  0  0  0
 41 48  1  0  0  0
 42 43  1  0  0  0
 42 66  1  0  0  0
 42114  1  0  0  0
 42115  1  0  0  0
 43 44  1  0  0  0
 44116  1  0  0  0
 45 46  2  0  0  0
 45117  1  0  0  0
 46118  1  0  0  0
 47119  1  0  0  0
 47120  1  0  0  0
 48 56  1  0  0  0
 48 65  1  0  0  0
 48121  1  0  0  0
 49 50  1  0  0  0
 49 53  1  0  0  0
 49 64  1  0  0  0
 49122  1  0  0  0
 50 51  1  0  0  0
 50123  1  0  0  0
 50124  1  0  0  0
 51 52  1  0  0  0
 51125  1  0  0  0
 51126  1  0  0  0
 52127  1  0  0  0
 52128  1  0  0  0
 53 54  1  0  0  0
 54 55  2  0  0  0
 54129  1  0  0  0
 55 57  1  0  0  0
 55130  1  0  0  0
 56 69  2  0  0  0
 57 58  2  0  0  0
 57131  1  0  0  0
 58132  1  0  0  0
 59 60  1  0  0  0
 59 61  1  0  0  0
 59 62  1  0  0  0
 60133  1  0  0  0
 60134  1  0  0  0
 60135  1  0  0  0
 61136  1  0  0  0
 61137  1  0  0  0
 61138  1  0  0  0
 62139  1  0  0  0
 62140  1  0  0  0
 62141  1  0  0  0
 63 65  1  0  0  0
 63142  1  0  0  0
 63143  1  0  0  0
 63144  1  0  0  0
 64145  1  0  0  0
 65146  1  0  0  0
 68 84  1  0  0  0
 71 73  2  0  0  0
 71 74  1  0  0  0
 71147  1  0  0  0
 72 73  1  0  0  0
 72 75  2  0  0  0
 72148  1  0  0  0
 73 85  1  0  0  0
 74 86  2  0  0  0
 74 79  1  0  0  0
 75 86  1  0  0  0
 75 87  1  0  0  0
 76 77  1  0  0  0
 76 78  1  0  0  0
 76149  1  0  0  0
 76150  1  0  0  0
 77 79  1  0  0  0
 77151  1  0  0  0
 77152  1  0  0  0
 78 80  1  0  0  0
 78153  1  0  0  0
 78154  1  0  0  0
 79 80  1  0  0  0
 79155  1  0  0  0
 80 81  1  0  0  0
 80156  1  0  0  0
 81157  1  0  0  0
 81158  1  0  0  0
 81159  1  0  0  0
 82160  1  0  0  0
 82161  1  0  0  0
 82162  1  0  0  0
 82 85  1  0  0  0
 83 84  1  0  0  0
 83 85  1  0  0  0
 83163  1  0  0  0
 83164  1  0  0  0
 84165  1  0  0  0
 84166  1  0  0  0
 85167  1  0  0  0
 87168  1  0  0  0
M  ISO  4   1 100  68 101  84 101  87 100
M  END
> <chiral flag>
0

> <version>
0

> <s_m_source_file>
/data/baiqing/PycharmProjects/Reinvent-master-3.2/result/LINK_invent/BTK/process_docking_weight1_custom_sum_contain_oxygen_bond_distance_aromatic_linkinvent_7_9_3/rearranged_h_0121.sdf

> <i_m_source_file_index>
45

> <r_mmod_Potential_Energy-OPLS-2005>
645.685180664062

> <r_mmod_Stretch_Energy-OPLS-2005>
309.140350341797

> <r_mmod_Bend_Energy-OPLS-2005>
404.753326416016

> <r_mmod_Torsional_Energy-OPLS-2005>
271.789428710938

> <r_mmod_Improper_Torsional_Energy-OPLS-2005>
6.81283092498779

> <r_mmod_Van_der_Waal_Energy-OPLS-2005>
124.75659942627

> <r_mmod_Electrostatic_Energy-OPLS-2005>
-483.234375

> <r_mmod_Solvation_Energy-OPLS-2005>
-226.078857421875

> <b_mmod_Minimization_Converged-OPLS-2005>
0

> <r_mmod_RMS_Derivative-OPLS-2005>
2.19327425956726

$$$$
45
                    3D
 Structure written by MMmdl.
160168  0  0  1  0            999 V2000
  -30.7463  -14.4050   20.6801 C   0  0  0  0  0  0
  -30.4274  -12.3125   19.4053 C   0  0  0  0  0  0
  -29.4903  -12.5283   18.2013 C   0  0  0  0  0  0
  -28.0162  -12.3752   18.6183 C   0  0  0  0  0  0
  -27.6674  -13.2034   19.8827 C   0  0  2  0  0  0
  -28.7046  -12.9527   21.0001 C   0  0  0  0  0  0
  -25.2602  -13.8137   20.5667 C   0  0  0  0  0  0
  -24.1850  -13.0423   20.9169 C   0  0  0  0  0  0
  -24.6394  -11.6891   20.8723 C   0  0  0  0  0  0
  -23.9060  -10.4283   21.0406 C   0  0  0  0  0  0
  -24.3620   -9.4206   21.9181 C   0  0  0  0  0  0
  -23.6310   -8.2236   22.0748 C   0  0  0  0  0  0
  -22.4288   -8.0278   21.3539 C   0  0  0  0  0  0
  -21.9925   -9.0249   20.4637 C   0  0  0  0  0  0
  -22.7240  -10.2133   20.3055 C   0  0  0  0  0  0
  -21.6858   -6.0754   22.5283 C   0  0  0  0  0  0
  -21.4012   -6.5655   23.8218 C   0  0  0  0  0  0
  -21.3652   -5.6807   24.9181 C   0  0  0  0  0  0
  -21.6046   -4.3066   24.7226 C   0  0  0  0  0  0
  -21.8822   -3.8161   23.4340 C   0  0  0  0  0  0
  -21.9192   -4.6984   22.3402 C   0  0  0  0  0  0
  -22.7872  -13.5234   21.1842 C   0  0  0  0  0  0
  -22.1660   -4.2173   21.0971 F   0  0  0  0  0  0
  -21.5628   -3.4539   25.7732 F   0  0  0  0  0  0
  -30.0460  -13.2588   20.4665 N   0  0  0  0  0  0
  -26.3051  -12.9316   20.3389 N   0  0  0  0  0  0
  -25.9322  -11.6473   20.5764 N   0  0  0  0  0  0
  -22.0521  -12.8222   22.0397 N   0  0  0  0  0  0
  -25.4310  -15.1853   20.4030 N   0  0  0  0  0  0
  -31.7812  -14.6876   20.0708 O   0  0  0  0  0  0
  -21.6637   -6.8897   21.4245 O   0  0  0  0  0  0
  -22.3561  -14.5557   20.6718 O   0  0  0  0  0  0
  -24.6094  -31.8706   23.2134 C   0  0  0  0  0  0
  -25.9001  -32.4838   23.8405 C   0  0  1  0  0  0
  -27.2445  -27.4733   20.0947 C   0  0  0  0  0  0
  -25.5882  -33.8642   24.2336 N   0  0  0  0  0  0
  -23.3967  -30.4920   21.5526 C   0  0  2  0  0  0
  -24.8475  -28.9608   20.1180 C   0  0  0  0  0  0
  -22.7388  -29.4658   22.5014 C   0  0  0  0  0  0
  -18.0265  -28.1377   22.8495 C   0  0  0  0  0  0
  -24.1487  -36.7327   23.2637 C   0  0  0  0  0  0
  -25.9202  -30.8467   21.3635 C   0  0  0  0  0  0
  -26.0011  -29.4805   20.7193 C   0  0  0  0  0  0
  -27.2025  -28.7418   20.7139 C   0  0  0  0  0  0
  -26.0820  -26.9630   19.4849 C   0  0  0  0  0  0
  -24.8797  -27.6969   19.5015 C   0  0  0  0  0  0
  -23.6053  -29.8214   20.1677 C   0  0  0  0  0  0
  -25.4111  -36.3127   24.0334 C   0  0  1  0  0  0
  -20.5851  -28.3651   23.1345 C   0  0  2  0  0  0
  -20.6762  -26.9394   22.5431 C   0  0  0  0  0  0
  -19.5746  -26.6384   21.5219 C   0  0  0  0  0  0
  -18.1921  -26.7925   22.1619 C   0  0  0  0  0  0
  -19.1511  -28.8830   23.2914 C   0  0  0  0  0  0
  -18.9442  -30.1439   23.8918 C   0  0  0  0  0  0
  -17.6449  -30.6584   24.0569 C   0  0  0  0  0  0
  -25.9032  -34.9488   23.5129 C   0  0  0  0  0  0
  -16.5338  -29.9089   23.6325 C   0  0  0  0  0  0
  -16.7253  -28.6510   23.0341 C   0  0  0  0  0  0
  -26.4460  -31.6606   25.0712 C   0  0  0  0  0  0
  -25.3749  -31.3702   26.1478 C   0  0  0  0  0  0
  -27.0305  -30.3058   24.6060 C   0  0  0  0  0  0
  -27.6031  -32.4334   25.7473 C   0  0  0  0  0  0
  -27.5582  -37.1824   24.8465 C   0  0  0  0  0  0
  -21.4121  -29.3017   22.3754 N   0  0  0  0  0  0
  -26.4302  -37.3803   23.9396 N   0  0  0  0  0  0
  -24.6595  -31.0840   22.1019 N   0  0  0  0  0  0
  -23.4173  -28.8202   23.3044 O   0  0  0  0  0  0
  -28.3951  -26.7277   20.0240 O   0  0  0  0  0  0
  -26.5596  -34.8930   22.4690 O   0  0  0  0  0  0
  -23.5299  -32.1442   23.7553 O   0  0  0  0  0  0
  -27.7811  -24.1221   21.5670 C   0  0  0  0  0  0
  -28.1215  -22.8205   21.8023 C   0  0  0  0  0  0
  -30.0091  -24.0189   21.6699 C   0  0  0  0  0  0
  -28.9719  -24.8996   21.4876 C   0  0  0  0  0  0
  -30.4367  -26.9863   21.2509 C   0  0  0  0  0  0
  -30.3088  -21.5438   22.1278 C   0  0  0  0  0  0
  -30.7859  -16.5237   22.0354 C   0  0  0  0  0  0
  -29.6697  -20.2091   21.6649 C   0  0  0  0  0  0
  -29.9659  -17.7281   21.5138 C   0  0  0  0  0  0
  -29.0193  -26.4017   21.2641 C   0  0  1  0  0  0
  -29.5032  -22.7375   21.8524 N   0  0  0  0  0  0
  -30.2357  -15.2290   21.6085 N   0  0  0  0  0  0
  -30.5113  -19.0278   21.9818 N   0  3  0  0  0  0
  -31.4678  -12.4303   19.0982 H   0  0  0  0  0  0
  -30.3457  -11.2891   19.7761 H   0  0  0  0  0  0
  -29.7284  -11.8216   17.4066 H   0  0  0  0  0  0
  -29.6498  -13.5242   17.7851 H   0  0  0  0  0  0
  -27.8307  -11.3174   18.8052 H   0  0  0  0  0  0
  -27.3615  -12.6552   17.7923 H   0  0  0  0  0  0
  -27.7256  -14.2561   19.6064 H   0  0  0  0  0  0
  -28.6767  -11.9086   21.3154 H   0  0  0  0  0  0
  -28.4448  -13.5254   21.8895 H   0  0  0  0  0  0
  -25.2770   -9.5687   22.4750 H   0  0  0  0  0  0
  -24.0041   -7.4623   22.7448 H   0  0  0  0  0  0
  -21.0873   -8.8758   19.8929 H   0  0  0  0  0  0
  -22.3703  -10.9676   19.6163 H   0  0  0  0  0  0
  -21.2007   -7.6163   23.9735 H   0  0  0  0  0  0
  -21.1467   -6.0525   25.9089 H   0  0  0  0  0  0
  -22.0609   -2.7624   23.2824 H   0  0  0  0  0  0
  -22.4161  -11.9900   22.4798 H   0  0  0  0  0  0
  -21.1115  -13.1200   22.2576 H   0  0  0  0  0  0
  -24.6597  -15.8381   20.4934 H   0  0  0  0  0  0
  -26.2834  -15.6196   20.0726 H   0  0  0  0  0  0
  -26.7072  -32.5579   23.1182 H   0  0  0  0  0  0
  -25.0047  -33.9819   25.0489 H   0  0  0  0  0  0
  -22.6820  -31.3066   21.4146 H   0  0  0  0  0  0
  -23.3740  -35.9672   23.3339 H   0  0  0  0  0  0
  -24.3563  -36.8905   22.2043 H   0  0  0  0  0  0
  -23.7260  -37.6550   23.6630 H   0  0  0  0  0  0
  -26.0247  -31.6102   20.5915 H   0  0  0  0  0  0
  -26.8105  -30.9055   21.9774 H   0  0  0  0  0  0
  -28.0944  -29.1512   21.1672 H   0  0  0  0  0  0
  -26.1107  -25.9958   19.0030 H   0  0  0  0  0  0
  -23.9949  -27.2907   19.0307 H   0  0  0  0  0  0
  -23.7083  -30.5955   19.4068 H   0  0  0  0  0  0
  -22.7322  -29.2367   19.8742 H   0  0  0  0  0  0
  -25.1295  -36.2000   25.0831 H   0  0  0  0  0  0
  -20.9934  -28.3209   24.1469 H   0  0  0  0  0  0
  -20.5681  -26.2249   23.3604 H   0  0  0  0  0  0
  -21.6631  -26.7457   22.1215 H   0  0  0  0  0  0
  -19.6912  -25.6305   21.1228 H   0  0  0  0  0  0
  -19.6695  -27.3214   20.6767 H   0  0  0  0  0  0
  -17.4196  -26.6680   21.4011 H   0  0  0  0  0  0
  -18.0308  -26.0058   22.9007 H   0  0  0  0  0  0
  -19.7921  -30.7249   24.2290 H   0  0  0  0  0  0
  -17.5008  -31.6265   24.5172 H   0  0  0  0  0  0
  -15.5344  -30.3001   23.7645 H   0  0  0  0  0  0
  -15.8651  -28.0846   22.7034 H   0  0  0  0  0  0
  -24.5889  -30.7086   25.7822 H   0  0  0  0  0  0
  -24.8983  -32.2864   26.4972 H   0  0  0  0  0  0
  -25.8119  -30.8833   27.0204 H   0  0  0  0  0  0
  -26.2842  -29.6800   24.1149 H   0  0  0  0  0  0
  -27.4139  -29.7304   25.4498 H   0  0  0  0  0  0
  -27.8643  -30.4402   23.9164 H   0  0  0  0  0  0
  -27.2621  -33.3600   26.2103 H   0  0  0  0  0  0
  -28.3804  -32.6955   25.0284 H   0  0  0  0  0  0
  -28.0737  -31.8438   26.5349 H   0  0  0  0  0  0
  -28.2627  -38.0094   24.7489 H   0  0  0  0  0  0
  -28.1051  -36.2630   24.6331 H   0  0  0  0  0  0
  -27.2291  -37.1526   25.8865 H   0  0  0  0  0  0
  -20.9274  -29.8732   21.6979 H   0  0  0  0  0  0
  -26.0201  -38.2887   24.1382 H   0  0  0  0  0  0
  -26.7685  -24.4915   21.4704 H   0  0  0  0  0  0
  -27.4860  -21.9561   21.9422 H   0  0  0  0  0  0
  -31.0777  -24.1951   21.6933 H   0  0  0  0  0  0
  -30.9518  -26.7919   22.1920 H   0  0  0  0  0  0
  -30.4061  -28.0685   21.1147 H   0  0  0  0  0  0
  -31.0344  -26.5662   20.4422 H   0  0  0  0  0  0
  -31.2770  -21.6753   21.6413 H   0  0  0  0  0  0
  -30.5020  -21.5161   23.2002 H   0  0  0  0  0  0
  -30.7873  -16.5323   23.1258 H   0  0  0  0  0  0
  -31.8296  -16.6213   21.7340 H   0  0  0  0  0  0
  -29.4801  -20.2441   20.5915 H   0  0  0  0  0  0
  -28.7047  -20.0736   22.1526 H   0  0  0  0  0  0
  -28.9312  -17.6332   21.8467 H   0  0  0  0  0  0
  -29.9471  -17.7242   20.4236 H   0  0  0  0  0  0
  -28.4814  -26.8448   22.1058 H   0  0  0  0  0  0
  -29.4062  -14.9046   22.0843 H   0  0  0  0  0  0
  -30.6232  -18.9827   22.9825 H   0  0  0  0  0  0
  -31.4257  -19.1603   21.5787 H   0  0  0  0  0  0
  1 25  1  0  0  0
  1 30  2  0  0  0
  1 82  1  0  0  0
  2  3  1  0  0  0
  2 25  1  0  0  0
  2 84  1  0  0  0
  2 85  1  0  0  0
  3  4  1  0  0  0
  3 86  1  0  0  0
  3 87  1  0  0  0
  4  5  1  0  0  0
  4 88  1  0  0  0
  4 89  1  0  0  0
  5  6  1  0  0  0
  5 26  1  0  0  0
  5 90  1  0  0  0
  6 25  1  0  0  0
  6 91  1  0  0  0
  6 92  1  0  0  0
  7  8  2  0  0  0
  7 26  1  0  0  0
  7 29  1  0  0  0
  8  9  1  0  0  0
  8 22  1  0  0  0
  9 10  1  0  0  0
  9 27  2  0  0  0
 10 11  2  0  0  0
 10 15  1  0  0  0
 11 12  1  0  0  0
 11 93  1  0  0  0
 12 13  2  0  0  0
 12 94  1  0  0  0
 13 14  1  0  0  0
 13 31  1  0  0  0
 14 15  2  0  0  0
 14 95  1  0  0  0
 15 96  1  0  0  0
 16 17  2  0  0  0
 16 21  1  0  0  0
 16 31  1  0  0  0
 17 18  1  0  0  0
 17 97  1  0  0  0
 18 19  2  0  0  0
 18 98  1  0  0  0
 19 20  1  0  0  0
 19 24  1  0  0  0
 20 21  2  0  0  0
 20 99  1  0  0  0
 21 23  1  0  0  0
 22 28  1  0  0  0
 22 32  2  0  0  0
 26 27  1  0  0  0
 28100  1  0  0  0
 28101  1  0  0  0
 29102  1  0  0  0
 29103  1  0  0  0
 33 34  1  0  0  0
 33 66  1  0  0  0
 33 70  2  0  0  0
 34 36  1  0  0  0
 34 59  1  0  0  0
 34104  1  0  0  0
 35 44  2  0  0  0
 35 45  1  0  0  0
 35 68  1  0  0  0
 36 56  1  0  0  0
 36105  1  0  0  0
 37 39  1  0  0  0
 37 47  1  0  0  0
 37 66  1  0  0  0
 37106  1  0  0  0
 38 43  2  0  0  0
 38 46  1  0  0  0
 38 47  1  0  0  0
 39 64  1  0  0  0
 39 67  2  0  0  0
 40 52  1  0  0  0
 40 53  2  0  0  0
 40 58  1  0  0  0
 41107  1  0  0  0
 41108  1  0  0  0
 41109  1  0  0  0
 41 48  1  0  0  0
 42 43  1  0  0  0
 42 66  1  0  0  0
 42110  1  0  0  0
 42111  1  0  0  0
 43 44  1  0  0  0
 44112  1  0  0  0
 45 46  2  0  0  0
 45113  1  0  0  0
 46114  1  0  0  0
 47115  1  0  0  0
 47116  1  0  0  0
 48 56  1  0  0  0
 48 65  1  0  0  0
 48117  1  0  0  0
 49 50  1  0  0  0
 49 53  1  0  0  0
 49 64  1  0  0  0
 49118  1  0  0  0
 50 51  1  0  0  0
 50119  1  0  0  0
 50120  1  0  0  0
 51 52  1  0  0  0
 51121  1  0  0  0
 51122  1  0  0  0
 52123  1  0  0  0
 52124  1  0  0  0
 53 54  1  0  0  0
 54 55  2  0  0  0
 54125  1  0  0  0
 55 57  1  0  0  0
 55126  1  0  0  0
 56 69  2  0  0  0
 57 58  2  0  0  0
 57127  1  0  0  0
 58128  1  0  0  0
 59 60  1  0  0  0
 59 61  1  0  0  0
 59 62  1  0  0  0
 60129  1  0  0  0
 60130  1  0  0  0
 60131  1  0  0  0
 61132  1  0  0  0
 61133  1  0  0  0
 61134  1  0  0  0
 62135  1  0  0  0
 62136  1  0  0  0
 62137  1  0  0  0
 63 65  1  0  0  0
 63138  1  0  0  0
 63139  1  0  0  0
 63140  1  0  0  0
 64141  1  0  0  0
 65142  1  0  0  0
 68 80  1  0  0  0
 71 72  2  0  0  0
 71 74  1  0  0  0
 71143  1  0  0  0
 72 81  1  0  0  0
 72144  1  0  0  0
 73 74  2  0  0  0
 73 81  1  0  0  0
 73145  1  0  0  0
 74 80  1  0  0  0
 75146  1  0  0  0
 75147  1  0  0  0
 75148  1  0  0  0
 75 80  1  0  0  0
 76 78  1  0  0  0
 76 81  1  0  0  0
 76149  1  0  0  0
 76150  1  0  0  0
 77 79  1  0  0  0
 77 82  1  0  0  0
 77151  1  0  0  0
 77152  1  0  0  0
 78 83  1  0  0  0
 78153  1  0  0  0
 78154  1  0  0  0
 79 83  1  0  0  0
 79155  1  0  0  0
 79156  1  0  0  0
 80157  1  0  0  0
 82158  1  0  0  0
 83159  1  0  0  0
 83160  1  0  0  0
M  CHG  1  83   1
M  ISO  4   1 100  68 101  80 101  82 100
M  END
> <chiral flag>
0

> <version>
0

> <s_m_source_file>
/data/baiqing/PycharmProjects/Reinvent-master-3.2/result/LINK_invent/BTK/process_docking_weight1_custom_sum_contain_oxygen_bond_distance_aromatic_linkinvent_7_9_3/rearranged_h_0121.sdf

> <i_m_source_file_index>
46

> <r_mmod_Potential_Energy-OPLS-2005>
-330.298645019531

> <r_mmod_Stretch_Energy-OPLS-2005>
32.4471054077148

> <r_mmod_Bend_Energy-OPLS-2005>
91.2950592041016

> <r_mmod_Torsional_Energy-OPLS-2005>
227.927871704102

> <r_mmod_Improper_Torsional_Energy-OPLS-2005>
2.04543399810791

> <r_mmod_Van_der_Waal_Energy-OPLS-2005>
126.55867767334

> <r_mmod_Electrostatic_Energy-OPLS-2005>
-307.5546875

> <r_mmod_Solvation_Energy-OPLS-2005>
-509.583404541016

> <b_mmod_Minimization_Converged-OPLS-2005>
0

> <r_mmod_RMS_Derivative-OPLS-2005>
1.91803872585297

$$$$
46
                    3D
 Structure written by MMmdl.
176184  0  0  1  0            999 V2000
  -30.5238  -14.9576   20.4213 C   0  0  0  0  0  0
  -30.4456  -12.5978   19.4806 C   0  0  0  0  0  0
  -29.5178  -12.5217   18.2460 C   0  0  0  0  0  0
  -28.0529  -12.3037   18.6726 C   0  0  0  0  0  0
  -27.6275  -13.2423   19.8314 C   0  0  2  0  0  0
  -28.6739  -13.2724   20.9635 C   0  0  0  0  0  0
  -25.2463  -13.8201   20.5705 C   0  0  0  0  0  0
  -24.1785  -13.0435   20.9240 C   0  0  0  0  0  0
  -24.6394  -11.6915   20.8766 C   0  0  0  0  0  0
  -23.9079  -10.4290   21.0420 C   0  0  0  0  0  0
  -24.3628   -9.4204   21.9194 C   0  0  0  0  0  0
  -23.6300   -8.2241   22.0760 C   0  0  0  0  0  0
  -22.4282   -8.0284   21.3547 C   0  0  0  0  0  0
  -21.9921   -9.0259   20.4650 C   0  0  0  0  0  0
  -22.7254  -10.2136   20.3064 C   0  0  0  0  0  0
  -21.6850   -6.0742   22.5281 C   0  0  0  0  0  0
  -21.4013   -6.5646   23.8217 C   0  0  0  0  0  0
  -21.3659   -5.6795   24.9178 C   0  0  0  0  0  0
  -21.6041   -4.3057   24.7229 C   0  0  0  0  0  0
  -21.8818   -3.8152   23.4347 C   0  0  0  0  0  0
  -21.9192   -4.6969   22.3402 C   0  0  0  0  0  0
  -22.7804  -13.5209   21.1893 C   0  0  0  0  0  0
  -22.1661   -4.2155   21.0978 F   0  0  0  0  0  0
  -21.5629   -3.4538   25.7741 F   0  0  0  0  0  0
  -29.9419  -13.6935   20.3538 N   0  0  0  0  0  0
  -26.2879  -12.9419   20.3222 N   0  0  0  0  0  0
  -25.9321  -11.6558   20.5742 N   0  0  0  0  0  0
  -22.0447  -12.8194   22.0437 N   0  0  0  0  0  0
  -25.4108  -15.1933   20.4117 N   0  0  0  0  0  0
  -31.7405  -15.0358   20.2235 O   0  0  0  0  0  0
  -21.6638   -6.8885   21.4247 O   0  0  0  0  0  0
  -22.3492  -14.5517   20.6738 O   0  0  0  0  0  0
  -24.6426  -31.8426   23.1850 C   0  0  0  0  0  0
  -25.9193  -32.4687   23.8251 C   0  0  1  0  0  0
  -27.2286  -27.1330   20.1653 C   0  0  0  0  0  0
  -25.5933  -33.8488   24.2174 N   0  0  0  0  0  0
  -23.4473  -30.4573   21.5312 C   0  0  2  0  0  0
  -24.8976  -28.8689   20.1226 C   0  0  0  0  0  0
  -22.7564  -29.4540   22.4876 C   0  0  0  0  0  0
  -18.0301  -28.1394   22.8476 C   0  0  0  0  0  0
  -24.1492  -36.7260   23.2645 C   0  0  0  0  0  0
  -26.0010  -30.7156   21.3821 C   0  0  0  0  0  0
  -26.0745  -29.3210   20.7342 C   0  0  0  0  0  0
  -27.2423  -28.4716   20.7295 C   0  0  0  0  0  0
  -26.0243  -26.7668   19.5327 C   0  0  0  0  0  0
  -24.8843  -27.6044   19.5082 C   0  0  0  0  0  0
  -23.6751  -29.7747   20.1555 C   0  0  0  0  0  0
  -25.4123  -36.3026   24.0311 C   0  0  1  0  0  0
  -20.5913  -28.3725   23.1241 C   0  0  2  0  0  0
  -20.6787  -26.9430   22.5409 C   0  0  0  0  0  0
  -19.5767  -26.6386   21.5209 C   0  0  0  0  0  0
  -18.1944  -26.7935   22.1612 C   0  0  0  0  0  0
  -19.1556  -28.8875   23.2848 C   0  0  0  0  0  0
  -18.9475  -30.1466   23.8881 C   0  0  0  0  0  0
  -17.6471  -30.6592   24.0558 C   0  0  0  0  0  0
  -25.9072  -34.9399   23.5062 C   0  0  0  0  0  0
  -16.5361  -29.9086   23.6331 C   0  0  0  0  0  0
  -16.7285  -28.6501   23.0357 C   0  0  0  0  0  0
  -26.4517  -31.6558   25.0697 C   0  0  0  0  0  0
  -25.3695  -31.3730   26.1390 C   0  0  0  0  0  0
  -27.0388  -30.2956   24.6275 C   0  0  0  0  0  0
  -27.6054  -32.4327   25.7471 C   0  0  0  0  0  0
  -27.5578  -37.1777   24.8463 C   0  0  0  0  0  0
  -21.4258  -29.3046   22.3615 N   0  0  0  0  0  0
  -26.4288  -37.3739   23.9410 N   0  0  0  0  0  0
  -24.7169  -31.0275   22.0883 N   0  0  0  0  0  0
  -23.4201  -28.8103   23.3043 O   0  0  0  0  0  0
  -28.3348  -26.2144   20.1109 O   0  0  0  0  0  0
  -26.5673  -34.8901   22.4654 O   0  0  0  0  0  0
  -23.5549  -32.1307   23.7068 O   0  0  0  0  0  0
  -28.5673  -23.2838   18.4535 C   0  0  0  0  0  0
  -29.0482  -21.8212   18.4144 C   0  0  2  0  0  0
  -28.2936  -23.2515   19.9613 C   0  0  1  0  0  0
  -29.2923  -21.8706   19.9400 C   0  0  1  0  0  0
  -27.6681  -24.7721   22.0218 C   0  0  0  0  0  0
  -32.4790  -19.4768   10.7442 C   0  0  0  0  0  0
  -30.2027  -21.4969   17.4555 C   0  0  0  0  0  0
  -29.9029  -17.6586   20.8621 C   0  0  0  0  0  0
  -31.7110  -20.2355   12.8729 C   0  0  0  0  0  0
  -29.7467  -21.3040   15.9957 C   0  0  0  0  0  0
  -29.3061  -19.0017   20.0120 C   0  0  0  0  0  0
  -30.4898  -20.6550   13.7153 C   0  0  0  0  0  0
  -28.4339  -24.7664   20.6918 C   0  0  2  0  0  0
  -29.7052  -16.1205   20.5067 N   0  0  0  0  0  0
  -31.3035  -19.8217   11.5344 N   0  0  0  0  0  0
  -29.0678  -20.4515   20.6452 N   0  3  0  0  0  0
  -30.8794  -20.9786   15.1022 N   0  3  0  0  0  0
  -31.4736  -12.7755   19.1612 H   0  0  0  0  0  0
  -30.4575  -11.6499   20.0202 H   0  0  0  0  0  0
  -29.8371  -11.7186   17.5807 H   0  0  0  0  0  0
  -29.5965  -13.4456   17.6711 H   0  0  0  0  0  0
  -27.9561  -11.2646   18.9893 H   0  0  0  0  0  0
  -27.3849  -12.4235   17.8191 H   0  0  0  0  0  0
  -27.5875  -14.2411   19.3969 H   0  0  0  0  0  0
  -28.7699  -12.2957   21.4401 H   0  0  0  0  0  0
  -28.3746  -13.9717   21.7460 H   0  0  0  0  0  0
  -25.2772   -9.5674   22.4773 H   0  0  0  0  0  0
  -24.0002   -7.4631   22.7481 H   0  0  0  0  0  0
  -21.0850   -8.8790   19.8953 H   0  0  0  0  0  0
  -22.3721  -10.9682   19.6176 H   0  0  0  0  0  0
  -21.2004   -7.6153   23.9724 H   0  0  0  0  0  0
  -21.1479   -6.0523   25.9080 H   0  0  0  0  0  0
  -22.0596   -2.7614   23.2847 H   0  0  0  0  0  0
  -22.4062  -11.9847   22.4812 H   0  0  0  0  0  0
  -21.1067  -13.1220   22.2655 H   0  0  0  0  0  0
  -24.6343  -15.8368   20.5200 H   0  0  0  0  0  0
  -26.2403  -15.6360   20.0403 H   0  0  0  0  0  0
  -26.7263  -32.5298   23.0983 H   0  0  0  0  0  0
  -25.0023  -33.9603   25.0280 H   0  0  0  0  0  0
  -22.7489  -31.2811   21.3704 H   0  0  0  0  0  0
  -23.3752  -35.9593   23.3291 H   0  0  0  0  0  0
  -24.3583  -36.8919   22.2067 H   0  0  0  0  0  0
  -23.7248  -37.6446   23.6705 H   0  0  0  0  0  0
  -26.1523  -31.4631   20.6024 H   0  0  0  0  0  0
  -26.8730  -30.7728   22.0220 H   0  0  0  0  0  0
  -28.1514  -28.8253   21.1963 H   0  0  0  0  0  0
  -25.9637  -25.7998   19.0536 H   0  0  0  0  0  0
  -23.9851  -27.2525   19.0215 H   0  0  0  0  0  0
  -23.8125  -30.5417   19.3927 H   0  0  0  0  0  0
  -22.7900  -29.2144   19.8497 H   0  0  0  0  0  0
  -25.1306  -36.1854   25.0799 H   0  0  0  0  0  0
  -20.9989  -28.3324   24.1368 H   0  0  0  0  0  0
  -20.5684  -26.2339   23.3628 H   0  0  0  0  0  0
  -21.6658  -26.7446   22.1210 H   0  0  0  0  0  0
  -19.6935  -25.6291   21.1256 H   0  0  0  0  0  0
  -19.6708  -27.3179   20.6729 H   0  0  0  0  0  0
  -17.4218  -26.6680   21.4010 H   0  0  0  0  0  0
  -18.0335  -26.0072   22.9004 H   0  0  0  0  0  0
  -19.7951  -30.7274   24.2261 H   0  0  0  0  0  0
  -17.5030  -31.6274   24.5160 H   0  0  0  0  0  0
  -15.5362  -30.2982   23.7677 H   0  0  0  0  0  0
  -15.8682  -28.0816   22.7094 H   0  0  0  0  0  0
  -24.5911  -30.7037   25.7711 H   0  0  0  0  0  0
  -24.8828  -32.2889   26.4742 H   0  0  0  0  0  0
  -25.7972  -30.8965   27.0220 H   0  0  0  0  0  0
  -26.3004  -29.6659   24.1296 H   0  0  0  0  0  0
  -27.4019  -29.7273   25.4848 H   0  0  0  0  0  0
  -27.8900  -30.4195   23.9577 H   0  0  0  0  0  0
  -27.2673  -33.3671   26.1962 H   0  0  0  0  0  0
  -28.3894  -32.6815   25.0307 H   0  0  0  0  0  0
  -28.0682  -31.8500   26.5446 H   0  0  0  0  0  0
  -28.2576  -38.0094   24.7525 H   0  0  0  0  0  0
  -28.1092  -36.2617   24.6269 H   0  0  0  0  0  0
  -27.2297  -37.1409   25.8866 H   0  0  0  0  0  0
  -20.9478  -29.8743   21.6772 H   0  0  0  0  0  0
  -26.0151  -38.2806   24.1411 H   0  0  0  0  0  0
  -27.6857  -23.4849   17.8433 H   0  0  0  0  0  0
  -29.3603  -23.9928   18.2088 H   0  0  0  0  0  0
  -28.1853  -21.1795   18.2260 H   0  0  0  0  0  0
  -27.2682  -22.8987   20.0824 H   0  0  0  0  0  0
  -30.3236  -22.1787   20.1254 H   0  0  0  0  0  0
  -27.8718  -23.8686   22.5956 H   0  0  0  0  0  0
  -26.5917  -24.8238   21.8580 H   0  0  0  0  0  0
  -27.9539  -25.6230   22.6406 H   0  0  0  0  0  0
  -32.1812  -19.1401    9.7499 H   0  0  0  0  0  0
  -33.0506  -18.6706   11.2081 H   0  0  0  0  0  0
  -33.1402  -20.3357   10.6187 H   0  0  0  0  0  0
  -30.7351  -20.6058   17.7820 H   0  0  0  0  0  0
  -30.9429  -22.2973   17.4918 H   0  0  0  0  0  0
  -29.4976  -17.7415   21.8701 H   0  0  0  0  0  0
  -30.9755  -17.8100   20.9911 H   0  0  0  0  0  0
  -32.2317  -19.4083   13.3600 H   0  0  0  0  0  0
  -32.4175  -21.0649   12.8040 H   0  0  0  0  0  0
  -29.2478  -22.2047   15.6344 H   0  0  0  0  0  0
  -29.0132  -20.4977   15.9501 H   0  0  0  0  0  0
  -28.3483  -18.7187   19.5760 H   0  0  0  0  0  0
  -29.9653  -19.1266   19.1583 H   0  0  0  0  0  0
  -29.7548  -19.8488   13.7319 H   0  0  0  0  0  0
  -30.0013  -21.5207   13.2648 H   0  0  0  0  0  0
  -29.4812  -24.7828   20.9942 H   0  0  0  0  0  0
  -28.7297  -15.8651   20.4947 H   0  0  0  0  0  0
  -30.7016  -19.0009   11.6050 H   0  0  0  0  0  0
  -28.1183  -20.4370   20.9785 H   0  0  0  0  0  0
  -29.6281  -20.4817   21.4814 H   0  0  0  0  0  0
  -31.3741  -20.1867   15.4785 H   0  0  0  0  0  0
  -31.5158  -21.7593   15.0818 H   0  0  0  0  0  0
  1 25  1  0  0  0
  1 30  2  0  0  0
  1 84  1  0  0  0
  2  3  1  0  0  0
  2 25  1  0  0  0
  2 88  1  0  0  0
  2 89  1  0  0  0
  3  4  1  0  0  0
  3 90  1  0  0  0
  3 91  1  0  0  0
  4  5  1  0  0  0
  4 92  1  0  0  0
  4 93  1  0  0  0
  5  6  1  0  0  0
  5 26  1  0  0  0
  5 94  1  0  0  0
  6 25  1  0  0  0
  6 95  1  0  0  0
  6 96  1  0  0  0
  7  8  2  0  0  0
  7 26  1  0  0  0
  7 29  1  0  0  0
  8  9  1  0  0  0
  8 22  1  0  0  0
  9 10  1  0  0  0
  9 27  2  0  0  0
 10 11  2  0  0  0
 10 15  1  0  0  0
 11 12  1  0  0  0
 11 97  1  0  0  0
 12 13  2  0  0  0
 12 98  1  0  0  0
 13 14  1  0  0  0
 13 31  1  0  0  0
 14 15  2  0  0  0
 14 99  1  0  0  0
 15100  1  0  0  0
 16 17  2  0  0  0
 16 21  1  0  0  0
 16 31  1  0  0  0
 17 18  1  0  0  0
 17101  1  0  0  0
 18 19  2  0  0  0
 18102  1  0  0  0
 19 20  1  0  0  0
 19 24  1  0  0  0
 20 21  2  0  0  0
 20103  1  0  0  0
 21 23  1  0  0  0
 22 28  1  0  0  0
 22 32  2  0  0  0
 26 27  1  0  0  0
 28104  1  0  0  0
 28105  1  0  0  0
 29106  1  0  0  0
 29107  1  0  0  0
 33 34  1  0  0  0
 33 66  1  0  0  0
 33 70  2  0  0  0
 34 36  1  0  0  0
 34 59  1  0  0  0
 34108  1  0  0  0
 35 44  2  0  0  0
 35 45  1  0  0  0
 35 68  1  0  0  0
 36 56  1  0  0  0
 36109  1  0  0  0
 37 39  1  0  0  0
 37 47  1  0  0  0
 37 66  1  0  0  0
 37110  1  0  0  0
 38 43  2  0  0  0
 38 46  1  0  0  0
 38 47  1  0  0  0
 39 64  1  0  0  0
 39 67  2  0  0  0
 40 52  1  0  0  0
 40 53  2  0  0  0
 40 58  1  0  0  0
 41111  1  0  0  0
 41112  1  0  0  0
 41113  1  0  0  0
 41 48  1  0  0  0
 42 43  1  0  0  0
 42 66  1  0  0  0
 42114  1  0  0  0
 42115  1  0  0  0
 43 44  1  0  0  0
 44116  1  0  0  0
 45 46  2  0  0  0
 45117  1  0  0  0
 46118  1  0  0  0
 47119  1  0  0  0
 47120  1  0  0  0
 48 56  1  0  0  0
 48 65  1  0  0  0
 48121  1  0  0  0
 49 50  1  0  0  0
 49 53  1  0  0  0
 49 64  1  0  0  0
 49122  1  0  0  0
 50 51  1  0  0  0
 50123  1  0  0  0
 50124  1  0  0  0
 51 52  1  0  0  0
 51125  1  0  0  0
 51126  1  0  0  0
 52127  1  0  0  0
 52128  1  0  0  0
 53 54  1  0  0  0
 54 55  2  0  0  0
 54129  1  0  0  0
 55 57  1  0  0  0
 55130  1  0  0  0
 56 69  2  0  0  0
 57 58  2  0  0  0
 57131  1  0  0  0
 58132  1  0  0  0
 59 60  1  0  0  0
 59 61  1  0  0  0
 59 62  1  0  0  0
 60133  1  0  0  0
 60134  1  0  0  0
 60135  1  0  0  0
 61136  1  0  0  0
 61137  1  0  0  0
 61138  1  0  0  0
 62139  1  0  0  0
 62140  1  0  0  0
 62141  1  0  0  0
 63 65  1  0  0  0
 63142  1  0  0  0
 63143  1  0  0  0
 63144  1  0  0  0
 64145  1  0  0  0
 65146  1  0  0  0
 68 83  1  0  0  0
 71 72  1  0  0  0
 71147  1  0  0  0
 71148  1  0  0  0
 71 73  1  0  0  0
 72 74  1  0  0  0
 72 77  1  0  0  0
 72149  1  0  0  0
 73 74  1  0  0  0
 73 83  1  0  0  0
 73150  1  0  0  0
 74 86  1  0  0  0
 74151  1  0  0  0
 75152  1  0  0  0
 75153  1  0  0  0
 75154  1  0  0  0
 75 83  1  0  0  0
 76 85  1  0  0  0
 76155  1  0  0  0
 76156  1  0  0  0
 76157  1  0  0  0
 77 80  1  0  0  0
 77158  1  0  0  0
 77159  1  0  0  0
 78 81  1  0  0  0
 78 84  1  0  0  0
 78160  1  0  0  0
 78161  1  0  0  0
 79 82  1  0  0  0
 79 85  1  0  0  0
 79162  1  0  0  0
 79163  1  0  0  0
 80 87  1  0  0  0
 80164  1  0  0  0
 80165  1  0  0  0
 81 86  1  0  0  0
 81166  1  0  0  0
 81167  1  0  0  0
 82 87  1  0  0  0
 82168  1  0  0  0
 82169  1  0  0  0
 83170  1  0  0  0
 84171  1  0  0  0
 85172  1  0  0  0
 86173  1  0  0  0
 86174  1  0  0  0
 87175  1  0  0  0
 87176  1  0  0  0
M  CHG  2  86   1  87   1
M  ISO  4   1 100  68 101  83 101  84 100
M  END
> <chiral flag>
0

> <version>
0

> <s_m_source_file>
/data/baiqing/PycharmProjects/Reinvent-master-3.2/result/LINK_invent/BTK/process_docking_weight1_custom_sum_contain_oxygen_bond_distance_aromatic_linkinvent_7_9_3/rearranged_h_0121.sdf

> <i_m_source_file_index>
47

> <r_mmod_Potential_Energy-OPLS-2005>
291.815673828125

> <r_mmod_Stretch_Energy-OPLS-2005>
286.595520019531

> <r_mmod_Bend_Energy-OPLS-2005>
337.993438720703

> <r_mmod_Torsional_Energy-OPLS-2005>
303.683197021484

> <r_mmod_Improper_Torsional_Energy-OPLS-2005>
4.88014650344849

> <r_mmod_Van_der_Waal_Energy-OPLS-2005>
102.59455871582

> <r_mmod_Electrostatic_Energy-OPLS-2005>
77.5925064086914

> <r_mmod_Solvation_Energy-OPLS-2005>
-1011.609375

> <b_mmod_Minimization_Converged-OPLS-2005>
0

> <r_mmod_RMS_Derivative-OPLS-2005>
1.10807168483734

$$$$
47
                    3D
 Structure written by MMmdl.
177187  0  0  1  0            999 V2000
  -30.7889  -14.5829   20.4291 C   0  0  0  0  0  0
  -30.3915  -12.3740   19.4090 C   0  0  0  0  0  0
  -29.4652  -12.4673   18.1821 C   0  0  0  0  0  0
  -28.0007  -12.3213   18.6286 C   0  0  0  0  0  0
  -27.6312  -13.2444   19.8236 C   0  0  2  0  0  0
  -28.7028  -13.2140   20.9351 C   0  0  0  0  0  0
  -25.2451  -13.8209   20.5743 C   0  0  0  0  0  0
  -24.1765  -13.0458   20.9189 C   0  0  0  0  0  0
  -24.6358  -11.6914   20.8777 C   0  0  0  0  0  0
  -23.9025  -10.4276   21.0445 C   0  0  0  0  0  0
  -24.3558   -9.4185   21.9247 C   0  0  0  0  0  0
  -23.6233   -8.2236   22.0768 C   0  0  0  0  0  0
  -22.4227   -8.0254   21.3529 C   0  0  0  0  0  0
  -21.9886   -9.0235   20.4664 C   0  0  0  0  0  0
  -22.7204  -10.2132   20.3103 C   0  0  0  0  0  0
  -21.6868   -6.0721   22.5283 C   0  0  0  0  0  0
  -21.4038   -6.5636   23.8213 C   0  0  0  0  0  0
  -21.3658   -5.6801   24.9178 C   0  0  0  0  0  0
  -21.6050   -4.3054   24.7237 C   0  0  0  0  0  0
  -21.8794   -3.8125   23.4364 C   0  0  0  0  0  0
  -21.9146   -4.6943   22.3399 C   0  0  0  0  0  0
  -22.7767  -13.5235   21.1826 C   0  0  0  0  0  0
  -22.1601   -4.2136   21.0982 F   0  0  0  0  0  0
  -21.5594   -3.4515   25.7729 F   0  0  0  0  0  0
  -29.9939  -13.4803   20.2933 N   0  0  0  0  0  0
  -26.2920  -12.9503   20.3293 N   0  0  0  0  0  0
  -25.9313  -11.6620   20.5765 N   0  0  0  0  0  0
  -22.0393  -12.8286   22.0416 N   0  0  0  0  0  0
  -25.4099  -15.1945   20.4093 N   0  0  0  0  0  0
  -31.9962  -14.4117   20.5222 O   0  0  0  0  0  0
  -21.6583   -6.8886   21.4265 O   0  0  0  0  0  0
  -22.3465  -14.5545   20.6659 O   0  0  0  0  0  0
  -24.6239  -31.8662   23.2013 C   0  0  0  0  0  0
  -25.9093  -32.4774   23.8400 C   0  0  1  0  0  0
  -27.1945  -27.3338   20.1194 C   0  0  0  0  0  0
  -25.5945  -33.8573   24.2321 N   0  0  0  0  0  0
  -23.4165  -30.4908   21.5440 C   0  0  2  0  0  0
  -24.8572  -28.9516   20.1024 C   0  0  0  0  0  0
  -22.7441  -29.4670   22.4900 C   0  0  0  0  0  0
  -18.0281  -28.1373   22.8482 C   0  0  0  0  0  0
  -24.1502  -36.7283   23.2696 C   0  0  0  0  0  0
  -25.9576  -30.7948   21.3721 C   0  0  0  0  0  0
  -26.0250  -29.4245   20.7164 C   0  0  0  0  0  0
  -27.2015  -28.6254   20.7134 C   0  0  0  0  0  0
  -26.0122  -26.9131   19.4704 C   0  0  0  0  0  0
  -24.8497  -27.6996   19.4734 C   0  0  0  0  0  0
  -23.6302  -29.8361   20.1560 C   0  0  0  0  0  0
  -25.4140  -36.3088   24.0401 C   0  0  1  0  0  0
  -20.5885  -28.3715   23.1270 C   0  0  2  0  0  0
  -20.6809  -26.9449   22.5398 C   0  0  0  0  0  0
  -19.5786  -26.6390   21.5208 C   0  0  0  0  0  0
  -18.1961  -26.7934   22.1598 C   0  0  0  0  0  0
  -19.1544  -28.8864   23.2877 C   0  0  0  0  0  0
  -18.9443  -30.1457   23.8896 C   0  0  0  0  0  0
  -17.6444  -30.6566   24.0586 C   0  0  0  0  0  0
  -25.9085  -34.9447   23.5164 C   0  0  0  0  0  0
  -16.5332  -29.9074   23.6296 C   0  0  0  0  0  0
  -16.7281  -28.6502   23.0307 C   0  0  0  0  0  0
  -26.4473  -31.6545   25.0733 C   0  0  0  0  0  0
  -25.3657  -31.3665   26.1396 C   0  0  0  0  0  0
  -27.0356  -30.3016   24.6161 C   0  0  0  0  0  0
  -27.6006  -32.4258   25.7522 C   0  0  0  0  0  0
  -27.5615  -37.1801   24.8507 C   0  0  0  0  0  0
  -21.4155  -29.3069   22.3627 N   0  0  0  0  0  0
  -26.4312  -37.3794   23.9470 N   0  0  0  0  0  0
  -24.6850  -31.0726   22.0940 N   0  0  0  0  0  0
  -23.4165  -28.8215   23.2990 O   0  0  0  0  0  0
  -28.2816  -26.4676   20.1629 O   0  0  0  0  0  0
  -26.5609  -34.8918   22.4712 O   0  0  0  0  0  0
  -23.5375  -32.1461   23.7314 O   0  0  0  0  0  0
  -32.1418  -19.8026   20.5650 C   0  0  0  0  0  0
  -32.6963  -16.4758   18.7243 C   0  0  0  0  0  0
  -32.8526  -17.4021   19.9423 C   0  0  0  0  0  0
  -30.5498  -21.3162   23.4294 C   0  0  0  0  0  0
  -32.0258  -21.4597   23.1762 C   0  0  0  0  0  0
  -31.2371  -15.9912   18.4735 C   0  0  0  0  0  0
  -29.6146  -16.8966   20.0843 C   0  0  0  0  0  0
  -31.7553  -18.4680   19.9344 C   0  0  1  0  0  0
  -30.4200  -18.1372   20.6651 C   0  0  1  0  0  0
  -31.0555  -21.4780   22.0080 C   0  0  0  0  0  0
  -29.8666  -19.6252   20.6376 C   0  0  1  0  0  0
  -28.5838  -21.7063   18.4210 C   0  0  0  0  0  0
  -28.4714  -20.1311   21.1534 C   0  0  0  0  0  0
  -28.1089  -21.6853   21.0181 C   0  0  0  0  0  0
  -28.6240  -23.9481   19.6339 C   0  0  0  0  0  0
  -27.9944  -25.0676   20.5337 C   0  0  0  0  0  0
  -28.0324  -22.4738   19.6473 C   0  0  1  0  0  0
  -31.0477  -20.3635   21.1075 N   0  0  0  0  0  0
  -30.4324  -15.6938   19.6889 N   0  0  0  0  0  0
  -33.2930  -20.2409   20.6032 O   0  0  0  0  0  0
  -30.2818  -11.4130   19.9173 H   0  0  0  0  0  0
  -31.4320  -12.4494   19.0827 H   0  0  0  0  0  0
  -29.7167  -11.6952   17.4524 H   0  0  0  0  0  0
  -29.5970  -13.4315   17.6865 H   0  0  0  0  0  0
  -27.8468  -11.2790   18.9084 H   0  0  0  0  0  0
  -27.3365  -12.5212   17.7873 H   0  0  0  0  0  0
  -27.6130  -14.2591   19.4231 H   0  0  0  0  0  0
  -28.7204  -12.2476   21.4414 H   0  0  0  0  0  0
  -28.4961  -13.9671   21.6952 H   0  0  0  0  0  0
  -25.2718   -9.5598   22.4851 H   0  0  0  0  0  0
  -23.9870   -7.4626   22.7524 H   0  0  0  0  0  0
  -21.0792   -8.8807   19.8997 H   0  0  0  0  0  0
  -22.3686  -10.9662   19.6205 H   0  0  0  0  0  0
  -21.2099   -7.6163   23.9694 H   0  0  0  0  0  0
  -21.1512   -6.0554   25.9077 H   0  0  0  0  0  0
  -22.0573   -2.7583   23.2859 H   0  0  0  0  0  0
  -22.3896  -11.9925   22.4832 H   0  0  0  0  0  0
  -21.1034  -13.1422   22.2653 H   0  0  0  0  0  0
  -24.6424  -15.8489   20.5140 H   0  0  0  0  0  0
  -26.2638  -15.6264   20.0842 H   0  0  0  0  0  0
  -26.7167  -32.5530   23.1176 H   0  0  0  0  0  0
  -25.0081  -33.9722   25.0443 H   0  0  0  0  0  0
  -22.7083  -31.3082   21.4066 H   0  0  0  0  0  0
  -23.3780  -35.9614   23.3312 H   0  0  0  0  0  0
  -24.3584  -36.8862   22.2112 H   0  0  0  0  0  0
  -23.7204  -37.6478   23.6660 H   0  0  0  0  0  0
  -26.0900  -31.5605   20.6093 H   0  0  0  0  0  0
  -26.8400  -30.8397   22.0024 H   0  0  0  0  0  0
  -28.0971  -28.9804   21.2070 H   0  0  0  0  0  0
  -25.9735  -25.9540   18.9787 H   0  0  0  0  0  0
  -23.9575  -27.3253   18.9907 H   0  0  0  0  0  0
  -23.7660  -30.6210   19.4095 H   0  0  0  0  0  0
  -22.7435  -29.2799   19.8459 H   0  0  0  0  0  0
  -25.1299  -36.1971   25.0895 H   0  0  0  0  0  0
  -21.0015  -28.3358   24.1392 H   0  0  0  0  0  0
  -20.5755  -26.2354   23.3593 H   0  0  0  0  0  0
  -21.6666  -26.7518   22.1165 H   0  0  0  0  0  0
  -19.6976  -25.6312   21.1233 H   0  0  0  0  0  0
  -19.6712  -27.3206   20.6738 H   0  0  0  0  0  0
  -17.4220  -26.6645   21.3998 H   0  0  0  0  0  0
  -18.0372  -26.0087   22.9004 H   0  0  0  0  0  0
  -19.7908  -30.7309   24.2250 H   0  0  0  0  0  0
  -17.4949  -31.6239   24.5197 H   0  0  0  0  0  0
  -15.5315  -30.2938   23.7633 H   0  0  0  0  0  0
  -15.8673  -28.0812   22.6978 H   0  0  0  0  0  0
  -24.5857  -30.7035   25.7637 H   0  0  0  0  0  0
  -24.8836  -32.2790   26.4832 H   0  0  0  0  0  0
  -25.7909  -30.8792   27.0193 H   0  0  0  0  0  0
  -27.4112  -29.7279   25.4651 H   0  0  0  0  0  0
  -26.2937  -29.6744   24.1211 H   0  0  0  0  0  0
  -27.8706  -30.4320   23.9317 H   0  0  0  0  0  0
  -27.2654  -33.3652   26.1979 H   0  0  0  0  0  0
  -28.3945  -32.6651   25.0443 H   0  0  0  0  0  0
  -28.0466  -31.8384   26.5561 H   0  0  0  0  0  0
  -28.2611  -38.0102   24.7590 H   0  0  0  0  0  0
  -28.1106  -36.2622   24.6328 H   0  0  0  0  0  0
  -27.2331  -37.1456   25.8900 H   0  0  0  0  0  0
  -20.9306  -29.8779   21.6840 H   0  0  0  0  0  0
  -26.0179  -38.2870   24.1447 H   0  0  0  0  0  0
  -33.0532  -16.9928   17.8322 H   0  0  0  0  0  0
  -33.3742  -15.6294   18.8435 H   0  0  0  0  0  0
  -33.8397  -17.8579   19.8630 H   0  0  0  0  0  0
  -32.8520  -16.8525   20.8834 H   0  0  0  0  0  0
  -30.0361  -22.1666   23.8788 H   0  0  0  0  0  0
  -30.1935  -20.3381   23.7532 H   0  0  0  0  0  0
  -32.6456  -20.5780   23.3355 H   0  0  0  0  0  0
  -32.5013  -22.3996   23.4433 H   0  0  0  0  0  0
  -31.2768  -15.1055   17.8363 H   0  0  0  0  0  0
  -30.7294  -16.7387   17.8621 H   0  0  0  0  0  0
  -29.0490  -17.2275   19.2140 H   0  0  0  0  0  0
  -28.8577  -16.5888   20.8036 H   0  0  0  0  0  0
  -31.5419  -18.7115   18.8872 H   0  0  0  0  0  0
  -30.6506  -17.8834   21.7029 H   0  0  0  0  0  0
  -30.9121  -22.4571   21.5538 H   0  0  0  0  0  0
  -29.8164  -19.8414   19.5837 H   0  0  0  0  0  0
  -29.6618  -21.8445   18.3043 H   0  0  0  0  0  0
  -28.1267  -22.0494   17.4920 H   0  0  0  0  0  0
  -28.3491  -20.6425   18.4450 H   0  0  0  0  0  0
  -28.4020  -19.8672   22.2109 H   0  0  0  0  0  0
  -27.6827  -19.5428   20.6714 H   0  0  0  0  0  0
  -28.6942  -22.2724   21.7180 H   0  0  0  0  0  0
  -27.1123  -21.7827   21.4556 H   0  0  0  0  0  0
  -29.6939  -23.8932   19.8384 H   0  0  0  0  0  0
  -28.5476  -24.3041   18.6048 H   0  0  0  0  0  0
  -28.3586  -24.9175   21.5508 H   0  0  0  0  0  0
  -26.9286  -24.8608   20.6078 H   0  0  0  0  0  0
  -26.9637  -22.5706   19.4262 H   0  0  0  0  0  0
  1 25  1  0  0  0
  1 30  2  0  0  0
  1 89  1  0  0  0
  2  3  1  0  0  0
  2 25  1  0  0  0
  2 91  1  0  0  0
  2 92  1  0  0  0
  3  4  1  0  0  0
  3 93  1  0  0  0
  3 94  1  0  0  0
  4  5  1  0  0  0
  4 95  1  0  0  0
  4 96  1  0  0  0
  5  6  1  0  0  0
  5 26  1  0  0  0
  5 97  1  0  0  0
  6 25  1  0  0  0
  6 98  1  0  0  0
  6 99  1  0  0  0
  7  8  2  0  0  0
  7 26  1  0  0  0
  7 29  1  0  0  0
  8  9  1  0  0  0
  8 22  1  0  0  0
  9 10  1  0  0  0
  9 27  2  0  0  0
 10 11  2  0  0  0
 10 15  1  0  0  0
 11 12  1  0  0  0
 11100  1  0  0  0
 12 13  2  0  0  0
 12101  1  0  0  0
 13 14  1  0  0  0
 13 31  1  0  0  0
 14 15  2  0  0  0
 14102  1  0  0  0
 15103  1  0  0  0
 16 17  2  0  0  0
 16 21  1  0  0  0
 16 31  1  0  0  0
 17 18  1  0  0  0
 17104  1  0  0  0
 18 19  2  0  0  0
 18105  1  0  0  0
 19 20  1  0  0  0
 19 24  1  0  0  0
 20 21  2  0  0  0
 20106  1  0  0  0
 21 23  1  0  0  0
 22 28  1  0  0  0
 22 32  2  0  0  0
 26 27  1  0  0  0
 28107  1  0  0  0
 28108  1  0  0  0
 29109  1  0  0  0
 29110  1  0  0  0
 33 34  1  0  0  0
 33 66  1  0  0  0
 33 70  2  0  0  0
 34 36  1  0  0  0
 34 59  1  0  0  0
 34111  1  0  0  0
 35 44  2  0  0  0
 35 45  1  0  0  0
 35 68  1  0  0  0
 36 56  1  0  0  0
 36112  1  0  0  0
 37 39  1  0  0  0
 37 47  1  0  0  0
 37 66  1  0  0  0
 37113  1  0  0  0
 38 43  2  0  0  0
 38 46  1  0  0  0
 38 47  1  0  0  0
 39 64  1  0  0  0
 39 67  2  0  0  0
 40 52  1  0  0  0
 40 53  2  0  0  0
 40 58  1  0  0  0
 41114  1  0  0  0
 41115  1  0  0  0
 41116  1  0  0  0
 41 48  1  0  0  0
 42 43  1  0  0  0
 42 66  1  0  0  0
 42117  1  0  0  0
 42118  1  0  0  0
 43 44  1  0  0  0
 44119  1  0  0  0
 45 46  2  0  0  0
 45120  1  0  0  0
 46121  1  0  0  0
 47122  1  0  0  0
 47123  1  0  0  0
 48 56  1  0  0  0
 48 65  1  0  0  0
 48124  1  0  0  0
 49 50  1  0  0  0
 49 53  1  0  0  0
 49 64  1  0  0  0
 49125  1  0  0  0
 50 51  1  0  0  0
 50126  1  0  0  0
 50127  1  0  0  0
 51 52  1  0  0  0
 51128  1  0  0  0
 51129  1  0  0  0
 52130  1  0  0  0
 52131  1  0  0  0
 53 54  1  0  0  0
 54 55  2  0  0  0
 54132  1  0  0  0
 55 57  1  0  0  0
 55133  1  0  0  0
 56 69  2  0  0  0
 57 58  2  0  0  0
 57134  1  0  0  0
 58135  1  0  0  0
 59 60  1  0  0  0
 59 61  1  0  0  0
 59 62  1  0  0  0
 60136  1  0  0  0
 60137  1  0  0  0
 60138  1  0  0  0
 61139  1  0  0  0
 61140  1  0  0  0
 61141  1  0  0  0
 62142  1  0  0  0
 62143  1  0  0  0
 62144  1  0  0  0
 63 65  1  0  0  0
 63145  1  0  0  0
 63146  1  0  0  0
 63147  1  0  0  0
 64148  1  0  0  0
 65149  1  0  0  0
 68 86  1  0  0  0
 71 78  1  0  0  0
 71 88  1  0  0  0
 71 90  2  0  0  0
 72 73  1  0  0  0
 72 76  1  0  0  0
 72150  1  0  0  0
 72151  1  0  0  0
 73152  1  0  0  0
 73153  1  0  0  0
 73 78  1  0  0  0
 74 75  1  0  0  0
 74 80  1  0  0  0
 74154  1  0  0  0
 74155  1  0  0  0
 75 80  1  0  0  0
 75156  1  0  0  0
 75157  1  0  0  0
 76 89  1  0  0  0
 76158  1  0  0  0
 76159  1  0  0  0
 77 89  1  0  0  0
 77160  1  0  0  0
 77161  1  0  0  0
 77 79  1  0  0  0
 78 79  1  0  0  0
 78162  1  0  0  0
 79 81  1  0  0  0
 79163  1  0  0  0
 80 88  1  0  0  0
 80164  1  0  0  0
 81 83  1  0  0  0
 81 88  1  0  0  0
 81165  1  0  0  0
 82166  1  0  0  0
 82167  1  0  0  0
 82168  1  0  0  0
 82 87  1  0  0  0
 83 84  1  0  0  0
 83169  1  0  0  0
 83170  1  0  0  0
 84 87  1  0  0  0
 84171  1  0  0  0
 84172  1  0  0  0
 85 86  1  0  0  0
 85 87  1  0  0  0
 85173  1  0  0  0
 85174  1  0  0  0
 86175  1  0  0  0
 86176  1  0  0  0
 87177  1  0  0  0
M  ISO  4   1 100  68 101  86 101  89 100
M  END
> <chiral flag>
0

> <version>
0

> <s_m_source_file>
/data/baiqing/PycharmProjects/Reinvent-master-3.2/result/LINK_invent/BTK/process_docking_weight1_custom_sum_contain_oxygen_bond_distance_aromatic_linkinvent_7_9_3/rearranged_h_0121.sdf

> <i_m_source_file_index>
48

> <r_mmod_Potential_Energy-OPLS-2005>
689.637878417969

> <r_mmod_Stretch_Energy-OPLS-2005>
79.3594284057617

> <r_mmod_Bend_Energy-OPLS-2005>
262.941741943359

> <r_mmod_Torsional_Energy-OPLS-2005>
509.476501464844

> <r_mmod_Improper_Torsional_Energy-OPLS-2005>
34.6529998779297

> <r_mmod_Van_der_Waal_Energy-OPLS-2005>
148.828506469727

> <r_mmod_Electrostatic_Energy-OPLS-2005>
-234.801040649414

> <r_mmod_Solvation_Energy-OPLS-2005>
-201.672225952148

> <b_mmod_Minimization_Converged-OPLS-2005>
0

> <r_mmod_RMS_Derivative-OPLS-2005>
8.49326992034912

$$$$
48
                    3D
 Structure written by MMmdl.
170179  0  0  1  0            999 V2000
  -30.7621  -14.6167   20.4746 C   0  0  0  0  0  0
  -30.4034  -12.4034   19.4299 C   0  0  0  0  0  0
  -29.4687  -12.4701   18.2084 C   0  0  0  0  0  0
  -28.0104  -12.2839   18.6587 C   0  0  0  0  0  0
  -27.6367  -13.2009   19.8498 C   0  0  2  0  0  0
  -28.7022  -13.1399   20.9703 C   0  0  0  0  0  0
  -25.2508  -13.8131   20.5750 C   0  0  0  0  0  0
  -24.1773  -13.0412   20.9272 C   0  0  0  0  0  0
  -24.6353  -11.6885   20.8848 C   0  0  0  0  0  0
  -23.9039  -10.4282   21.0491 C   0  0  0  0  0  0
  -24.3616   -9.4177   21.9225 C   0  0  0  0  0  0
  -23.6301   -8.2213   22.0764 C   0  0  0  0  0  0
  -22.4273   -8.0286   21.3547 C   0  0  0  0  0  0
  -21.9925   -9.0263   20.4644 C   0  0  0  0  0  0
  -22.7258  -10.2138   20.3096 C   0  0  0  0  0  0
  -21.6821   -6.0743   22.5286 C   0  0  0  0  0  0
  -21.4003   -6.5648   23.8215 C   0  0  0  0  0  0
  -21.3649   -5.6801   24.9177 C   0  0  0  0  0  0
  -21.6041   -4.3079   24.7227 C   0  0  0  0  0  0
  -21.8807   -3.8159   23.4348 C   0  0  0  0  0  0
  -21.9175   -4.6974   22.3409 C   0  0  0  0  0  0
  -22.7797  -13.5198   21.1889 C   0  0  0  0  0  0
  -22.1642   -4.2159   21.0986 F   0  0  0  0  0  0
  -21.5642   -3.4565   25.7736 F   0  0  0  0  0  0
  -29.9877  -13.4871   20.3517 N   0  0  0  0  0  0
  -26.2911  -12.9287   20.3382 N   0  0  0  0  0  0
  -25.9283  -11.6468   20.5923 N   0  0  0  0  0  0
  -22.0423  -12.8195   22.0447 N   0  0  0  0  0  0
  -25.4186  -15.1851   20.4158 N   0  0  0  0  0  0
  -31.9680  -14.5090   20.2470 O   0  0  0  0  0  0
  -21.6623   -6.8898   21.4249 O   0  0  0  0  0  0
  -22.3467  -14.5477   20.6698 O   0  0  0  0  0  0
  -24.6214  -31.8647   23.2101 C   0  0  0  0  0  0
  -25.9089  -32.4802   23.8399 C   0  0  1  0  0  0
  -27.2190  -27.3659   20.0956 C   0  0  0  0  0  0
  -25.5925  -33.8605   24.2321 N   0  0  0  0  0  0
  -23.4131  -30.4941   21.5497 C   0  0  2  0  0  0
  -24.8564  -28.9609   20.1113 C   0  0  0  0  0  0
  -22.7461  -29.4649   22.4923 C   0  0  0  0  0  0
  -18.0289  -28.1378   22.8487 C   0  0  0  0  0  0
  -24.1489  -36.7305   23.2642 C   0  0  0  0  0  0
  -25.9531  -30.8070   21.3789 C   0  0  0  0  0  0
  -26.0239  -29.4406   20.7168 C   0  0  0  0  0  0
  -27.2081  -28.6521   20.7060 C   0  0  0  0  0  0
  -26.0298  -26.9383   19.4549 C   0  0  0  0  0  0
  -24.8578  -27.7123   19.4751 C   0  0  0  0  0  0
  -23.6278  -29.8415   20.1602 C   0  0  0  0  0  0
  -25.4113  -36.3094   24.0331 C   0  0  1  0  0  0
  -20.5891  -28.3683   23.1277 C   0  0  2  0  0  0
  -20.6775  -26.9408   22.5404 C   0  0  0  0  0  0
  -19.5743  -26.6380   21.5211 C   0  0  0  0  0  0
  -18.1926  -26.7925   22.1623 C   0  0  0  0  0  0
  -19.1548  -28.8844   23.2883 C   0  0  0  0  0  0
  -18.9466  -30.1443   23.8907 C   0  0  0  0  0  0
  -17.6469  -30.6582   24.0560 C   0  0  0  0  0  0
  -25.9055  -34.9462   23.5125 C   0  0  0  0  0  0
  -16.5362  -29.9093   23.6310 C   0  0  0  0  0  0
  -16.7279  -28.6501   23.0349 C   0  0  0  0  0  0
  -26.4503  -31.6593   25.0745 C   0  0  0  0  0  0
  -25.3762  -31.3688   26.1482 C   0  0  0  0  0  0
  -27.0353  -30.3029   24.6159 C   0  0  0  0  0  0
  -27.6052  -32.4335   25.7526 C   0  0  0  0  0  0
  -27.5583  -37.1817   24.8470 C   0  0  0  0  0  0
  -21.4179  -29.3047   22.3680 N   0  0  0  0  0  0
  -26.4291  -37.3787   23.9417 N   0  0  0  0  0  0
  -24.6809  -31.0711   22.1024 N   0  0  0  0  0  0
  -23.4204  -28.8169   23.2972 O   0  0  0  0  0  0
  -28.3472  -26.5434   20.1475 O   0  0  0  0  0  0
  -26.5618  -34.8922   22.4685 O   0  0  0  0  0  0
  -23.5393  -32.1424   23.7461 O   0  0  0  0  0  0
  -29.5848  -21.4152   20.4690 C   0  0  0  0  0  0
  -27.8335  -22.1397   19.3203 C   0  0  0  0  0  0
  -28.8791  -22.6065   20.0693 C   0  0  0  0  0  0
  -28.9813  -20.2871   19.9459 C   0  0  0  0  0  0
  -30.8186  -18.4840   20.2915 C   0  0  0  0  0  0
  -28.5934  -17.8852   20.9410 C   0  0  0  0  0  0
  -31.1861  -16.9969   20.0343 C   0  0  0  0  0  0
  -28.8398  -16.3611   20.6904 C   0  0  0  0  0  0
  -29.3598  -18.7931   19.9632 C   0  0  0  0  0  0
  -30.6205  -24.4392   19.8615 C   0  0  0  0  0  0
  -27.3128  -19.8082   17.0405 C   0  0  0  0  0  0
  -25.4538  -20.4815   18.6277 C   0  0  0  0  0  0
  -28.1526  -25.1203   19.8553 C   0  0  0  0  0  0
  -29.2171  -24.0907   20.3799 C   0  0  1  0  0  0
  -26.8904  -19.9404   18.5087 C   0  0  0  0  0  0
  -27.8568  -20.7507   19.2595 N   0  0  0  0  0  0
  -30.2443  -15.9125   20.4794 N   0  0  0  0  0  0
  -31.4378  -12.4819   19.0919 H   0  0  0  0  0  0
  -30.3331  -11.4335   19.9230 H   0  0  0  0  0  0
  -29.7371  -11.6980   17.4865 H   0  0  0  0  0  0
  -29.5727  -13.4278   17.6960 H   0  0  0  0  0  0
  -27.8964  -11.2415   18.9607 H   0  0  0  0  0  0
  -27.3253  -12.4364   17.8226 H   0  0  0  0  0  0
  -27.6209  -14.1986   19.4284 H   0  0  0  0  0  0
  -28.7465  -12.1354   21.3942 H   0  0  0  0  0  0
  -28.4594  -13.7810   21.8136 H   0  0  0  0  0  0
  -25.2764   -9.5649   22.4795 H   0  0  0  0  0  0
  -24.0010   -7.4585   22.7473 H   0  0  0  0  0  0
  -21.0853   -8.8805   19.8933 H   0  0  0  0  0  0
  -22.3748  -10.9698   19.6220 H   0  0  0  0  0  0
  -21.2001   -7.6151   23.9730 H   0  0  0  0  0  0
  -21.1476   -6.0532   25.9072 H   0  0  0  0  0  0
  -22.0595   -2.7629   23.2844 H   0  0  0  0  0  0
  -22.4035  -11.9853   22.4829 H   0  0  0  0  0  0
  -21.1028  -13.1198   22.2607 H   0  0  0  0  0  0
  -24.6517  -15.8389   20.5334 H   0  0  0  0  0  0
  -26.2741  -15.6291   20.1105 H   0  0  0  0  0  0
  -26.7164  -32.5482   23.1159 H   0  0  0  0  0  0
  -25.0079  -33.9764   25.0471 H   0  0  0  0  0  0
  -22.7008  -31.3109   21.4143 H   0  0  0  0  0  0
  -23.3748  -35.9644   23.3301 H   0  0  0  0  0  0
  -24.3575  -36.8932   22.2059 H   0  0  0  0  0  0
  -23.7249  -37.6508   23.6666 H   0  0  0  0  0  0
  -26.0917  -31.5737   20.6155 H   0  0  0  0  0  0
  -26.8314  -30.8459   22.0110 H   0  0  0  0  0  0
  -28.1050  -29.0146   21.1898 H   0  0  0  0  0  0
  -25.9735  -25.9962   18.9303 H   0  0  0  0  0  0
  -23.9640  -27.3454   18.9899 H   0  0  0  0  0  0
  -23.7634  -30.6283   19.4167 H   0  0  0  0  0  0
  -22.7454  -29.2829   19.8422 H   0  0  0  0  0  0
  -25.1299  -36.1951   25.0824 H   0  0  0  0  0  0
  -20.9992  -28.3272   24.1393 H   0  0  0  0  0  0
  -20.5681  -26.2303   23.3612 H   0  0  0  0  0  0
  -21.6643  -26.7438   22.1196 H   0  0  0  0  0  0
  -19.6904  -25.6290   21.1244 H   0  0  0  0  0  0
  -19.6675  -27.3187   20.6738 H   0  0  0  0  0  0
  -17.4201  -26.6679   21.4019 H   0  0  0  0  0  0
  -18.0316  -26.0059   22.9008 H   0  0  0  0  0  0
  -19.7948  -30.7245   24.2294 H   0  0  0  0  0  0
  -17.5032  -31.6269   24.5151 H   0  0  0  0  0  0
  -15.5368  -30.3005   23.7607 H   0  0  0  0  0  0
  -15.8681  -28.0820   22.7059 H   0  0  0  0  0  0
  -24.5932  -30.7047   25.7814 H   0  0  0  0  0  0
  -24.8965  -32.2834   26.4964 H   0  0  0  0  0  0
  -25.8109  -30.8830   27.0224 H   0  0  0  0  0  0
  -26.2911  -29.6771   24.1216 H   0  0  0  0  0  0
  -27.4122  -29.7278   25.4628 H   0  0  0  0  0  0
  -27.8754  -30.4347   23.9336 H   0  0  0  0  0  0
  -27.2641  -33.3620   26.2116 H   0  0  0  0  0  0
  -28.3857  -32.6921   25.0361 H   0  0  0  0  0  0
  -28.0729  -31.8461   26.5438 H   0  0  0  0  0  0
  -28.2601  -38.0117   24.7517 H   0  0  0  0  0  0
  -28.1078  -36.2643   24.6295 H   0  0  0  0  0  0
  -27.2296  -37.1475   25.8872 H   0  0  0  0  0  0
  -20.9339  -29.8807   21.6938 H   0  0  0  0  0  0
  -26.0170  -38.2866   24.1399 H   0  0  0  0  0  0
  -30.4877  -21.3903   21.0652 H   0  0  0  0  0  0
  -27.0561  -22.6865   18.8060 H   0  0  0  0  0  0
  -31.4703  -19.1149   19.6855 H   0  0  0  0  0  0
  -31.0366  -18.7452   21.3285 H   0  0  0  0  0  0
  -28.8719  -18.1465   21.9629 H   0  0  0  0  0  0
  -27.5240  -18.0803   20.8764 H   0  0  0  0  0  0
  -32.1751  -16.8615   20.4759 H   0  0  0  0  0  0
  -31.3281  -16.8742   18.9580 H   0  0  0  0  0  0
  -28.2990  -16.1208   19.7807 H   0  0  0  0  0  0
  -28.3750  -15.8294   21.5146 H   0  0  0  0  0  0
  -29.1846  -18.4127   18.9553 H   0  0  0  0  0  0
  -31.3804  -23.7852   20.2915 H   0  0  0  0  0  0
  -30.8910  -25.4640   20.1181 H   0  0  0  0  0  0
  -30.6749  -24.3429   18.7770 H   0  0  0  0  0  0
  -26.6554  -19.1182   16.5106 H   0  0  0  0  0  0
  -28.3303  -19.4289   16.9453 H   0  0  0  0  0  0
  -27.2691  -20.7702   16.5315 H   0  0  0  0  0  0
  -24.7319  -19.7725   18.2183 H   0  0  0  0  0  0
  -25.3234  -21.4184   18.0843 H   0  0  0  0  0  0
  -25.1880  -20.6553   19.6710 H   0  0  0  0  0  0
  -27.2075  -24.7965   20.2926 H   0  0  0  0  0  0
  -28.0610  -25.0107   18.7731 H   0  0  0  0  0  0
  -29.2297  -24.1703   21.4676 H   0  0  0  0  0  0
  -26.8759  -18.9403   18.9375 H   0  0  0  0  0  0
  1 25  1  0  0  0
  1 30  2  0  0  0
  1 87  1  0  0  0
  2  3  1  0  0  0
  2 25  1  0  0  0
  2 88  1  0  0  0
  2 89  1  0  0  0
  3  4  1  0  0  0
  3 90  1  0  0  0
  3 91  1  0  0  0
  4  5  1  0  0  0
  4 92  1  0  0  0
  4 93  1  0  0  0
  5  6  1  0  0  0
  5 26  1  0  0  0
  5 94  1  0  0  0
  6 25  1  0  0  0
  6 95  1  0  0  0
  6 96  1  0  0  0
  7  8  2  0  0  0
  7 26  1  0  0  0
  7 29  1  0  0  0
  8  9  1  0  0  0
  8 22  1  0  0  0
  9 10  1  0  0  0
  9 27  2  0  0  0
 10 11  2  0  0  0
 10 15  1  0  0  0
 11 12  1  0  0  0
 11 97  1  0  0  0
 12 13  2  0  0  0
 12 98  1  0  0  0
 13 14  1  0  0  0
 13 31  1  0  0  0
 14 15  2  0  0  0
 14 99  1  0  0  0
 15100  1  0  0  0
 16 17  2  0  0  0
 16 21  1  0  0  0
 16 31  1  0  0  0
 17 18  1  0  0  0
 17101  1  0  0  0
 18 19  2  0  0  0
 18102  1  0  0  0
 19 20  1  0  0  0
 19 24  1  0  0  0
 20 21  2  0  0  0
 20103  1  0  0  0
 21 23  1  0  0  0
 22 28  1  0  0  0
 22 32  2  0  0  0
 26 27  1  0  0  0
 28104  1  0  0  0
 28105  1  0  0  0
 29106  1  0  0  0
 29107  1  0  0  0
 33 34  1  0  0  0
 33 66  1  0  0  0
 33 70  2  0  0  0
 34 36  1  0  0  0
 34 59  1  0  0  0
 34108  1  0  0  0
 35 44  2  0  0  0
 35 45  1  0  0  0
 35 68  1  0  0  0
 36 56  1  0  0  0
 36109  1  0  0  0
 37 39  1  0  0  0
 37 47  1  0  0  0
 37 66  1  0  0  0
 37110  1  0  0  0
 38 43  2  0  0  0
 38 46  1  0  0  0
 38 47  1  0  0  0
 39 64  1  0  0  0
 39 67  2  0  0  0
 40 52  1  0  0  0
 40 53  2  0  0  0
 40 58  1  0  0  0
 41111  1  0  0  0
 41112  1  0  0  0
 41113  1  0  0  0
 41 48  1  0  0  0
 42 43  1  0  0  0
 42 66  1  0  0  0
 42114  1  0  0  0
 42115  1  0  0  0
 43 44  1  0  0  0
 44116  1  0  0  0
 45 46  2  0  0  0
 45117  1  0  0  0
 46118  1  0  0  0
 47119  1  0  0  0
 47120  1  0  0  0
 48 56  1  0  0  0
 48 65  1  0  0  0
 48121  1  0  0  0
 49 50  1  0  0  0
 49 53  1  0  0  0
 49 64  1  0  0  0
 49122  1  0  0  0
 50 51  1  0  0  0
 50123  1  0  0  0
 50124  1  0  0  0
 51 52  1  0  0  0
 51125  1  0  0  0
 51126  1  0  0  0
 52127  1  0  0  0
 52128  1  0  0  0
 53 54  1  0  0  0
 54 55  2  0  0  0
 54129  1  0  0  0
 55 57  1  0  0  0
 55130  1  0  0  0
 56 69  2  0  0  0
 57 58  2  0  0  0
 57131  1  0  0  0
 58132  1  0  0  0
 59 60  1  0  0  0
 59 61  1  0  0  0
 59 62  1  0  0  0
 60133  1  0  0  0
 60134  1  0  0  0
 60135  1  0  0  0
 61136  1  0  0  0
 61137  1  0  0  0
 61138  1  0  0  0
 62139  1  0  0  0
 62140  1  0  0  0
 62141  1  0  0  0
 63 65  1  0  0  0
 63142  1  0  0  0
 63143  1  0  0  0
 63144  1  0  0  0
 64145  1  0  0  0
 65146  1  0  0  0
 68 83  1  0  0  0
 71 73  1  0  0  0
 71 74  2  0  0  0
 71147  1  0  0  0
 72 73  2  0  0  0
 72 86  1  0  0  0
 72148  1  0  0  0
 73 84  1  0  0  0
 74 86  1  0  0  0
 74 79  1  0  0  0
 75 77  1  0  0  0
 75 79  1  0  0  0
 75149  1  0  0  0
 75150  1  0  0  0
 76 78  1  0  0  0
 76 79  1  0  0  0
 76151  1  0  0  0
 76152  1  0  0  0
 77 87  1  0  0  0
 77153  1  0  0  0
 77154  1  0  0  0
 78 87  1  0  0  0
 78155  1  0  0  0
 78156  1  0  0  0
 79157  1  0  0  0
 80158  1  0  0  0
 80159  1  0  0  0
 80160  1  0  0  0
 80 84  1  0  0  0
 81161  1  0  0  0
 81162  1  0  0  0
 81163  1  0  0  0
 81 85  1  0  0  0
 82 85  1  0  0  0
 82164  1  0  0  0
 82165  1  0  0  0
 82166  1  0  0  0
 83 84  1  0  0  0
 83167  1  0  0  0
 83168  1  0  0  0
 84169  1  0  0  0
 85 86  1  0  0  0
 85170  1  0  0  0
M  ISO  4   1 100  68 101  83 101  87 100
M  END
> <chiral flag>
0

> <version>
0

> <s_m_source_file>
/data/baiqing/PycharmProjects/Reinvent-master-3.2/result/LINK_invent/BTK/process_docking_weight1_custom_sum_contain_oxygen_bond_distance_aromatic_linkinvent_7_9_3/rearranged_h_0121.sdf

> <i_m_source_file_index>
49

> <r_mmod_Potential_Energy-OPLS-2005>
263.284973144531

> <r_mmod_Stretch_Energy-OPLS-2005>
66.6770858764648

> <r_mmod_Bend_Energy-OPLS-2005>
164.388107299805

> <r_mmod_Torsional_Energy-OPLS-2005>
326.653167724609

> <r_mmod_Improper_Torsional_Energy-OPLS-2005>
9.95077228546143

> <r_mmod_Van_der_Waal_Energy-OPLS-2005>
147.660705566406

> <r_mmod_Electrostatic_Energy-OPLS-2005>
-312.296264648438

> <r_mmod_Solvation_Energy-OPLS-2005>
-195.13899230957

> <b_mmod_Minimization_Converged-OPLS-2005>
0

> <r_mmod_RMS_Derivative-OPLS-2005>
2.92452096939087

$$$$
49
                    3D
 Structure written by MMmdl.
168177  0  0  1  0            999 V2000
  -30.6799  -14.4922   20.5604 C   0  0  0  0  0  0
  -30.4318  -12.3156   19.4233 C   0  0  0  0  0  0
  -29.4974  -12.5089   18.2094 C   0  0  0  0  0  0
  -28.0182  -12.3608   18.6197 C   0  0  0  0  0  0
  -27.6625  -13.1935   19.8785 C   0  0  2  0  0  0
  -28.7073  -12.9763   20.9977 C   0  0  0  0  0  0
  -25.2602  -13.8124   20.5695 C   0  0  0  0  0  0
  -24.1835  -13.0422   20.9181 C   0  0  0  0  0  0
  -24.6377  -11.6882   20.8749 C   0  0  0  0  0  0
  -23.9036  -10.4278   21.0416 C   0  0  0  0  0  0
  -24.3591   -9.4194   21.9193 C   0  0  0  0  0  0
  -23.6277   -8.2225   22.0752 C   0  0  0  0  0  0
  -22.4262   -8.0269   21.3538 C   0  0  0  0  0  0
  -21.9892   -9.0244   20.4642 C   0  0  0  0  0  0
  -22.7215  -10.2127   20.3060 C   0  0  0  0  0  0
  -21.6837   -6.0732   22.5279 C   0  0  0  0  0  0
  -21.4003   -6.5641   23.8215 C   0  0  0  0  0  0
  -21.3662   -5.6789   24.9176 C   0  0  0  0  0  0
  -21.6050   -4.3053   24.7224 C   0  0  0  0  0  0
  -21.8821   -3.8146   23.4345 C   0  0  0  0  0  0
  -21.9183   -4.6961   22.3401 C   0  0  0  0  0  0
  -22.7862  -13.5240   21.1833 C   0  0  0  0  0  0
  -22.1652   -4.2150   21.0977 F   0  0  0  0  0  0
  -21.5633   -3.4540   25.7738 F   0  0  0  0  0  0
  -30.0394  -13.2936   20.4498 N   0  0  0  0  0  0
  -26.3026  -12.9264   20.3394 N   0  0  0  0  0  0
  -25.9298  -11.6437   20.5782 N   0  0  0  0  0  0
  -22.0475  -12.8258   22.0393 N   0  0  0  0  0  0
  -25.4332  -15.1846   20.4133 N   0  0  0  0  0  0
  -31.8042  -14.6946   20.0886 O   0  0  0  0  0  0
  -21.6621   -6.8873   21.4239 O   0  0  0  0  0  0
  -22.3570  -14.5553   20.6683 O   0  0  0  0  0  0
  -24.6145  -31.8681   23.2118 C   0  0  0  0  0  0
  -25.9042  -32.4823   23.8408 C   0  0  1  0  0  0
  -27.2418  -27.4450   20.0794 C   0  0  0  0  0  0
  -25.5901  -33.8624   24.2341 N   0  0  0  0  0  0
  -23.4029  -30.4908   21.5517 C   0  0  2  0  0  0
  -24.8515  -28.9584   20.1133 C   0  0  0  0  0  0
  -22.7415  -29.4655   22.5001 C   0  0  0  0  0  0
  -18.0267  -28.1374   22.8498 C   0  0  0  0  0  0
  -24.1485  -36.7319   23.2640 C   0  0  0  0  0  0
  -25.9320  -30.8318   21.3677 C   0  0  0  0  0  0
  -26.0101  -29.4679   20.7126 C   0  0  0  0  0  0
  -27.2056  -28.7132   20.7039 C   0  0  0  0  0  0
  -26.0611  -26.9408   19.4928 C   0  0  0  0  0  0
  -24.8701  -27.6915   19.5054 C   0  0  0  0  0  0
  -23.6117  -29.8228   20.1661 C   0  0  0  0  0  0
  -25.4107  -36.3122   24.0342 C   0  0  1  0  0  0
  -20.5861  -28.3659   23.1329 C   0  0  2  0  0  0
  -20.6761  -26.9397   22.5424 C   0  0  0  0  0  0
  -19.5740  -26.6383   21.5221 C   0  0  0  0  0  0
  -18.1916  -26.7924   22.1625 C   0  0  0  0  0  0
  -19.1517  -28.8834   23.2907 C   0  0  0  0  0  0
  -18.9445  -30.1442   23.8909 C   0  0  0  0  0  0
  -17.6447  -30.6584   24.0562 C   0  0  0  0  0  0
  -25.9033  -34.9479   23.5142 C   0  0  0  0  0  0
  -16.5338  -29.9080   23.6331 C   0  0  0  0  0  0
  -16.7256  -28.6497   23.0354 C   0  0  0  0  0  0
  -26.4478  -31.6601   25.0731 C   0  0  0  0  0  0
  -25.3750  -31.3698   26.1481 C   0  0  0  0  0  0
  -27.0309  -30.3043   24.6115 C   0  0  0  0  0  0
  -27.6058  -32.4321   25.7488 C   0  0  0  0  0  0
  -27.5588  -37.1815   24.8466 C   0  0  0  0  0  0
  -21.4142  -29.3025   22.3739 N   0  0  0  0  0  0
  -26.4302  -37.3802   23.9406 N   0  0  0  0  0  0
  -24.6678  -31.0776   22.1020 N   0  0  0  0  0  0
  -23.4186  -28.8195   23.3046 O   0  0  0  0  0  0
  -28.3947  -26.6891   20.1091 O   0  0  0  0  0  0
  -26.5589  -34.8931   22.4696 O   0  0  0  0  0  0
  -23.5339  -32.1434   23.7514 O   0  0  0  0  0  0
  -28.8524  -17.0818   19.7214 C   0  0  0  0  0  0
  -30.3119  -19.1048   20.8351 C   0  0  0  0  0  0
  -29.3204  -19.4618   19.8924 C   0  0  0  0  0  0
  -28.5836  -18.4008   19.3101 C   0  0  0  0  0  0
  -29.8486  -16.8120   20.6803 C   0  0  0  0  0  0
  -29.1483  -21.9997   20.5917 C   0  0  0  0  0  0
  -29.9296  -21.4036   18.3273 C   0  0  0  0  0  0
  -28.6348  -23.3708   20.0661 C   0  0  0  0  0  0
  -29.4193  -22.7550   17.7873 C   0  0  0  0  0  0
  -29.0495  -20.9278   19.4884 C   0  0  1  0  0  0
  -27.5054  -18.6316   18.2624 C   0  0  0  0  0  0
  -30.5498  -26.6248   19.0711 C   0  0  0  0  0  0
  -28.6980  -25.0553   18.2178 C   0  0  0  0  0  0
  -29.0445  -26.4270   18.8623 C   0  0  1  0  0  0
  -30.5628  -17.8275   21.2236 N   0  0  0  0  0  0
  -29.9519  -15.4683   21.1367 N   0  0  0  0  0  0
  -29.3223  -23.8316   18.8204 N   0  3  1  0  0  0
  -31.4747  -12.4275   19.1201 H   0  0  0  0  0  0
  -30.3442  -11.3021   19.8182 H   0  0  0  0  0  0
  -29.7411  -11.7865   17.4295 H   0  0  0  0  0  0
  -29.6580  -13.4956   17.7725 H   0  0  0  0  0  0
  -27.8294  -11.3039   18.8108 H   0  0  0  0  0  0
  -27.3670  -12.6394   17.7900 H   0  0  0  0  0  0
  -27.7005  -14.2363   19.5776 H   0  0  0  0  0  0
  -28.6905  -11.9376   21.3328 H   0  0  0  0  0  0
  -28.4615  -13.5641   21.8831 H   0  0  0  0  0  0
  -25.2731   -9.5672   22.4771 H   0  0  0  0  0  0
  -23.9981   -7.4617   22.7478 H   0  0  0  0  0  0
  -21.0815   -8.8770   19.8958 H   0  0  0  0  0  0
  -22.3675  -10.9669   19.6173 H   0  0  0  0  0  0
  -21.1996   -7.6149   23.9719 H   0  0  0  0  0  0
  -21.1483   -6.0519   25.9080 H   0  0  0  0  0  0
  -22.0600   -2.7609   23.2838 H   0  0  0  0  0  0
  -22.4056  -11.9908   22.4787 H   0  0  0  0  0  0
  -21.1114  -13.1336   22.2598 H   0  0  0  0  0  0
  -24.6659  -15.8369   20.5306 H   0  0  0  0  0  0
  -26.2908  -15.6334   20.1208 H   0  0  0  0  0  0
  -26.7106  -32.5538   23.1169 H   0  0  0  0  0  0
  -25.0059  -33.9785   25.0493 H   0  0  0  0  0  0
  -22.6913  -31.3076   21.4136 H   0  0  0  0  0  0
  -23.3749  -35.9652   23.3317 H   0  0  0  0  0  0
  -24.3580  -36.8918   22.2054 H   0  0  0  0  0  0
  -23.7238  -37.6529   23.6637 H   0  0  0  0  0  0
  -26.0487  -31.5987   20.6009 H   0  0  0  0  0  0
  -26.8182  -30.8824   21.9885 H   0  0  0  0  0  0
  -28.0985  -29.0997   21.1759 H   0  0  0  0  0  0
  -26.0349  -25.9589   19.0490 H   0  0  0  0  0  0
  -23.9746  -27.2867   19.0542 H   0  0  0  0  0  0
  -23.7171  -30.5969   19.4055 H   0  0  0  0  0  0
  -22.7372  -29.2395   19.8723 H   0  0  0  0  0  0
  -25.1288  -36.1998   25.0839 H   0  0  0  0  0  0
  -20.9945  -28.3216   24.1453 H   0  0  0  0  0  0
  -20.5675  -26.2264   23.3606 H   0  0  0  0  0  0
  -21.6630  -26.7448   22.1210 H   0  0  0  0  0  0
  -19.6899  -25.6297   21.1239 H   0  0  0  0  0  0
  -19.6686  -27.3204   20.6760 H   0  0  0  0  0  0
  -17.4198  -26.6689   21.4011 H   0  0  0  0  0  0
  -18.0299  -26.0054   22.9006 H   0  0  0  0  0  0
  -19.7919  -30.7257   24.2286 H   0  0  0  0  0  0
  -17.5000  -31.6265   24.5159 H   0  0  0  0  0  0
  -15.5338  -30.2981   23.7656 H   0  0  0  0  0  0
  -15.8654  -28.0817   22.7066 H   0  0  0  0  0  0
  -24.5919  -30.7054   25.7810 H   0  0  0  0  0  0
  -24.8941  -32.2846   26.4953 H   0  0  0  0  0  0
  -25.8107  -30.8844   27.0223 H   0  0  0  0  0  0
  -26.2844  -29.6801   24.1186 H   0  0  0  0  0  0
  -27.4088  -29.7294   25.4581 H   0  0  0  0  0  0
  -27.8683  -30.4358   23.9260 H   0  0  0  0  0  0
  -27.2678  -33.3606   26.2102 H   0  0  0  0  0  0
  -28.3843  -32.6905   25.0296 H   0  0  0  0  0  0
  -28.0753  -31.8422   26.5372 H   0  0  0  0  0  0
  -28.2619  -38.0100   24.7511 H   0  0  0  0  0  0
  -28.1072  -36.2636   24.6296 H   0  0  0  0  0  0
  -27.2303  -37.1473   25.8868 H   0  0  0  0  0  0
  -20.9311  -29.8743   21.6953 H   0  0  0  0  0  0
  -26.0203  -38.2893   24.1378 H   0  0  0  0  0  0
  -28.2786  -16.2782   19.2901 H   0  0  0  0  0  0
  -30.9192  -19.8642   21.3042 H   0  0  0  0  0  0
  -28.5465  -21.7055   21.4523 H   0  0  0  0  0  0
  -30.1735  -22.0962   20.9514 H   0  0  0  0  0  0
  -30.9720  -21.4820   18.6396 H   0  0  0  0  0  0
  -29.9073  -20.6743   17.5171 H   0  0  0  0  0  0
  -28.7492  -24.1273   20.8434 H   0  0  0  0  0  0
  -27.5634  -23.2929   19.8733 H   0  0  0  0  0  0
  -28.4358  -22.6051   17.3391 H   0  0  0  0  0  0
  -30.0749  -23.0831   16.9794 H   0  0  0  0  0  0
  -28.0122  -20.9669   19.1553 H   0  0  0  0  0  0
  -27.1661  -17.6925   17.8246 H   0  0  0  0  0  0
  -27.8785  -19.2517   17.4478 H   0  0  0  0  0  0
  -26.6368  -19.1193   18.7051 H   0  0  0  0  0  0
  -31.1022  -26.4654   18.1445 H   0  0  0  0  0  0
  -30.9437  -25.9464   19.8273 H   0  0  0  0  0  0
  -30.7586  -27.6413   19.4046 H   0  0  0  0  0  0
  -29.0512  -25.1313   17.1878 H   0  0  0  0  0  0
  -27.6241  -24.9149   18.1210 H   0  0  0  0  0  0
  -28.7277  -27.1957   18.1535 H   0  0  0  0  0  0
  -29.1048  -15.1101   21.5460 H   0  0  0  0  0  0
  -30.2716  -24.0692   19.0727 H   0  0  0  0  0  0
  1 25  1  0  0  0
  1 30  2  0  0  0
  1 86  1  0  0  0
  2  3  1  0  0  0
  2 25  1  0  0  0
  2 88  1  0  0  0
  2 89  1  0  0  0
  3  4  1  0  0  0
  3 90  1  0  0  0
  3 91  1  0  0  0
  4  5  1  0  0  0
  4 92  1  0  0  0
  4 93  1  0  0  0
  5  6  1  0  0  0
  5 26  1  0  0  0
  5 94  1  0  0  0
  6 25  1  0  0  0
  6 95  1  0  0  0
  6 96  1  0  0  0
  7  8  2  0  0  0
  7 26  1  0  0  0
  7 29  1  0  0  0
  8  9  1  0  0  0
  8 22  1  0  0  0
  9 10  1  0  0  0
  9 27  2  0  0  0
 10 11  2  0  0  0
 10 15  1  0  0  0
 11 12  1  0  0  0
 11 97  1  0  0  0
 12 13  2  0  0  0
 12 98  1  0  0  0
 13 14  1  0  0  0
 13 31  1  0  0  0
 14 15  2  0  0  0
 14 99  1  0  0  0
 15100  1  0  0  0
 16 17  2  0  0  0
 16 21  1  0  0  0
 16 31  1  0  0  0
 17 18  1  0  0  0
 17101  1  0  0  0
 18 19  2  0  0  0
 18102  1  0  0  0
 19 20  1  0  0  0
 19 24  1  0  0  0
 20 21  2  0  0  0
 20103  1  0  0  0
 21 23  1  0  0  0
 22 28  1  0  0  0
 22 32  2  0  0  0
 26 27  1  0  0  0
 28104  1  0  0  0
 28105  1  0  0  0
 29106  1  0  0  0
 29107  1  0  0  0
 33 34  1  0  0  0
 33 66  1  0  0  0
 33 70  2  0  0  0
 34 36  1  0  0  0
 34 59  1  0  0  0
 34108  1  0  0  0
 35 44  2  0  0  0
 35 45  1  0  0  0
 35 68  1  0  0  0
 36 56  1  0  0  0
 36109  1  0  0  0
 37 39  1  0  0  0
 37 47  1  0  0  0
 37 66  1  0  0  0
 37110  1  0  0  0
 38 43  2  0  0  0
 38 46  1  0  0  0
 38 47  1  0  0  0
 39 64  1  0  0  0
 39 67  2  0  0  0
 40 52  1  0  0  0
 40 53  2  0  0  0
 40 58  1  0  0  0
 41111  1  0  0  0
 41112  1  0  0  0
 41113  1  0  0  0
 41 48  1  0  0  0
 42 43  1  0  0  0
 42 66  1  0  0  0
 42114  1  0  0  0
 42115  1  0  0  0
 43 44  1  0  0  0
 44116  1  0  0  0
 45 46  2  0  0  0
 45117  1  0  0  0
 46118  1  0  0  0
 47119  1  0  0  0
 47120  1  0  0  0
 48 56  1  0  0  0
 48 65  1  0  0  0
 48121  1  0  0  0
 49 50  1  0  0  0
 49 53  1  0  0  0
 49 64  1  0  0  0
 49122  1  0  0  0
 50 51  1  0  0  0
 50123  1  0  0  0
 50124  1  0  0  0
 51 52  1  0  0  0
 51125  1  0  0  0
 51126  1  0  0  0
 52127  1  0  0  0
 52128  1  0  0  0
 53 54  1  0  0  0
 54 55  2  0  0  0
 54129  1  0  0  0
 55 57  1  0  0  0
 55130  1  0  0  0
 56 69  2  0  0  0
 57 58  2  0  0  0
 57131  1  0  0  0
 58132  1  0  0  0
 59 60  1  0  0  0
 59 61  1  0  0  0
 59 62  1  0  0  0
 60133  1  0  0  0
 60134  1  0  0  0
 60135  1  0  0  0
 61136  1  0  0  0
 61137  1  0  0  0
 61138  1  0  0  0
 62139  1  0  0  0
 62140  1  0  0  0
 62141  1  0  0  0
 63 65  1  0  0  0
 63142  1  0  0  0
 63143  1  0  0  0
 63144  1  0  0  0
 64145  1  0  0  0
 65146  1  0  0  0
 68 84  1  0  0  0
 71 74  2  0  0  0
 71 75  1  0  0  0
 71147  1  0  0  0
 72 73  2  0  0  0
 72 85  1  0  0  0
 72148  1  0  0  0
 73 74  1  0  0  0
 73 80  1  0  0  0
 74 81  1  0  0  0
 75 85  2  0  0  0
 75 86  1  0  0  0
 76 78  1  0  0  0
 76 80  1  0  0  0
 76149  1  0  0  0
 76150  1  0  0  0
 77 79  1  0  0  0
 77 80  1  0  0  0
 77151  1  0  0  0
 77152  1  0  0  0
 78 87  1  0  0  0
 78153  1  0  0  0
 78154  1  0  0  0
 79 87  1  0  0  0
 79155  1  0  0  0
 79156  1  0  0  0
 80157  1  0  0  0
 81158  1  0  0  0
 81159  1  0  0  0
 81160  1  0  0  0
 82161  1  0  0  0
 82162  1  0  0  0
 82163  1  0  0  0
 82 84  1  0  0  0
 83 84  1  0  0  0
 83164  1  0  0  0
 83165  1  0  0  0
 83 87  1  0  0  0
 84166  1  0  0  0
 86167  1  0  0  0
 87168  1  0  0  0
M  CHG  1  87   1
M  ISO  4   1 100  68 101  84 101  86 100
M  END
> <chiral flag>
0

> <version>
0

> <s_m_source_file>
/data/baiqing/PycharmProjects/Reinvent-master-3.2/result/LINK_invent/BTK/process_docking_weight1_custom_sum_contain_oxygen_bond_distance_aromatic_linkinvent_7_9_3/rearranged_h_0121.sdf

> <i_m_source_file_index>
50

> <r_mmod_Potential_Energy-OPLS-2005>
-189.754119873047

> <r_mmod_Stretch_Energy-OPLS-2005>
40.7364044189453

> <r_mmod_Bend_Energy-OPLS-2005>
113.922271728516

> <r_mmod_Torsional_Energy-OPLS-2005>
305.715515136719

> <r_mmod_Improper_Torsional_Energy-OPLS-2005>
5.83399057388306

> <r_mmod_Van_der_Waal_Energy-OPLS-2005>
150.341796875

> <r_mmod_Electrostatic_Energy-OPLS-2005>
-371.771270751953

> <r_mmod_Solvation_Energy-OPLS-2005>
-448.031158447266

> <b_mmod_Minimization_Converged-OPLS-2005>
0

> <r_mmod_RMS_Derivative-OPLS-2005>
1.09673273563385

$$$$
50
                    3D
 Structure written by MMmdl.
172181  0  0  1  0            999 V2000
  -30.7088  -14.4490   20.5909 C   0  0  0  0  0  0
  -30.4253  -12.3068   19.4056 C   0  0  0  0  0  0
  -29.4892  -12.5117   18.1968 C   0  0  0  0  0  0
  -28.0110  -12.3736   18.6130 C   0  0  0  0  0  0
  -27.6617  -13.2063   19.8755 C   0  0  2  0  0  0
  -28.7058  -12.9698   20.9897 C   0  0  0  0  0  0
  -25.2599  -13.8169   20.5716 C   0  0  0  0  0  0
  -24.1836  -13.0443   20.9160 C   0  0  0  0  0  0
  -24.6393  -11.6908   20.8720 C   0  0  0  0  0  0
  -23.9059  -10.4299   21.0391 C   0  0  0  0  0  0
  -24.3611   -9.4222   21.9175 C   0  0  0  0  0  0
  -23.6291   -8.2255   22.0754 C   0  0  0  0  0  0
  -22.4275   -8.0287   21.3545 C   0  0  0  0  0  0
  -21.9900   -9.0257   20.4643 C   0  0  0  0  0  0
  -22.7227  -10.2138   20.3045 C   0  0  0  0  0  0
  -21.6858   -6.0742   22.5279 C   0  0  0  0  0  0
  -21.4011   -6.5642   23.8212 C   0  0  0  0  0  0
  -21.3656   -5.6795   24.9172 C   0  0  0  0  0  0
  -21.6044   -4.3058   24.7222 C   0  0  0  0  0  0
  -21.8821   -3.8149   23.4343 C   0  0  0  0  0  0
  -21.9195   -4.6968   22.3402 C   0  0  0  0  0  0
  -22.7861  -13.5246   21.1825 C   0  0  0  0  0  0
  -22.1663   -4.2156   21.0980 F   0  0  0  0  0  0
  -21.5629   -3.4538   25.7734 F   0  0  0  0  0  0
  -30.0368  -13.2781   20.4366 N   0  0  0  0  0  0
  -26.3030  -12.9335   20.3379 N   0  0  0  0  0  0
  -25.9317  -11.6492   20.5749 N   0  0  0  0  0  0
  -22.0490  -12.8244   22.0381 N   0  0  0  0  0  0
  -25.4348  -15.1897   20.4259 N   0  0  0  0  0  0
  -31.8253  -14.6602   20.1108 O   0  0  0  0  0  0
  -21.6642   -6.8885   21.4241 O   0  0  0  0  0  0
  -22.3550  -14.5557   20.6681 O   0  0  0  0  0  0
  -24.6144  -31.8689   23.2104 C   0  0  0  0  0  0
  -25.9044  -32.4830   23.8393 C   0  0  1  0  0  0
  -27.2368  -27.4499   20.0908 C   0  0  0  0  0  0
  -25.5911  -33.8630   24.2338 N   0  0  0  0  0  0
  -23.3998  -30.4914   21.5515 C   0  0  2  0  0  0
  -24.8458  -28.9529   20.1228 C   0  0  0  0  0  0
  -22.7403  -29.4660   22.5010 C   0  0  0  0  0  0
  -18.0264  -28.1385   22.8478 C   0  0  0  0  0  0
  -24.1492  -36.7309   23.2636 C   0  0  0  0  0  0
  -25.9267  -30.8382   21.3608 C   0  0  0  0  0  0
  -26.0046  -29.4702   20.7152 C   0  0  0  0  0  0
  -27.2040  -28.7264   20.6941 C   0  0  0  0  0  0
  -26.0644  -26.9396   19.4961 C   0  0  0  0  0  0
  -24.8696  -27.6850   19.5141 C   0  0  0  0  0  0
  -23.6076  -29.8202   20.1675 C   0  0  0  0  0  0
  -25.4104  -36.3113   24.0344 C   0  0  1  0  0  0
  -20.5857  -28.3658   23.1333 C   0  0  2  0  0  0
  -20.6762  -26.9397   22.5425 C   0  0  0  0  0  0
  -19.5754  -26.6383   21.5220 C   0  0  0  0  0  0
  -18.1918  -26.7937   22.1603 C   0  0  0  0  0  0
  -19.1514  -28.8835   23.2908 C   0  0  0  0  0  0
  -18.9451  -30.1447   23.8914 C   0  0  0  0  0  0
  -17.6454  -30.6590   24.0565 C   0  0  0  0  0  0
  -25.9027  -34.9479   23.5129 C   0  0  0  0  0  0
  -16.5339  -29.9097   23.6326 C   0  0  0  0  0  0
  -16.7252  -28.6516   23.0330 C   0  0  0  0  0  0
  -26.4468  -31.6596   25.0710 C   0  0  0  0  0  0
  -25.3737  -31.3722   26.1472 C   0  0  0  0  0  0
  -27.0271  -30.3029   24.6063 C   0  0  0  0  0  0
  -27.6057  -32.4296   25.7471 C   0  0  0  0  0  0
  -27.5586  -37.1807   24.8461 C   0  0  0  0  0  0
  -21.4129  -29.3037   22.3756 N   0  0  0  0  0  0
  -26.4289  -37.3795   23.9412 N   0  0  0  0  0  0
  -24.6649  -31.0804   22.1000 N   0  0  0  0  0  0
  -23.4191  -28.8192   23.3027 O   0  0  0  0  0  0
  -28.4211  -26.7588   20.0040 O   0  0  0  0  0  0
  -26.5579  -34.8936   22.4689 O   0  0  0  0  0  0
  -23.5336  -32.1417   23.7519 O   0  0  0  0  0  0
  -27.4066  -19.0811   18.9337 C   0  0  0  0  0  0
  -28.5391  -17.1550   18.8410 C   0  0  0  0  0  0
  -27.3852  -17.7528   18.4235 C   0  0  0  0  0  0
  -28.5670  -19.2710   19.6421 C   0  0  0  0  0  0
  -26.3937  -17.0411   17.5830 C   0  0  0  0  0  0
  -29.4352  -21.6471   22.5956 C   0  0  0  0  0  0
  -28.9930  -20.3631   21.8819 C   0  0  0  0  0  0
  -28.6141  -22.8579   22.1256 C   0  0  0  0  0  0
  -28.2867  -21.8110   19.9292 C   0  0  0  0  0  0
  -29.0575  -20.5209   20.3508 C   0  0  2  0  0  0
  -25.0556  -17.7320   17.3657 C   0  0  0  0  0  0
  -30.5549  -17.7146   20.2083 C   0  0  0  0  0  0
  -30.4689  -16.7968   21.4578 C   0  0  0  0  0  0
  -28.0846  -24.2857   20.1367 C   0  0  0  0  0  0
  -28.5579  -25.5949   20.8232 C   0  0  0  0  0  0
  -29.2603  -18.0508   19.6127 N   0  0  0  0  0  0
  -30.0199  -15.4211   21.2049 N   0  0  0  0  0  0
  -28.7354  -23.0386   20.6540 N   0  3  1  0  0  0
  -26.6126  -15.9318   17.0895 O   0  0  0  0  0  0
  -31.4673  -12.4174   19.0996 H   0  0  0  0  0  0
  -30.3357  -11.2923   19.7960 H   0  0  0  0  0  0
  -29.7252  -11.7904   17.4135 H   0  0  0  0  0  0
  -29.6565  -13.4991   17.7631 H   0  0  0  0  0  0
  -27.8173  -11.3168   18.8002 H   0  0  0  0  0  0
  -27.3604  -12.6584   17.7857 H   0  0  0  0  0  0
  -27.7081  -14.2562   19.5874 H   0  0  0  0  0  0
  -28.6823  -11.9285   21.3136 H   0  0  0  0  0  0
  -28.4673  -13.5523   21.8802 H   0  0  0  0  0  0
  -25.2756   -9.5711   22.4742 H   0  0  0  0  0  0
  -24.0010   -7.4652   22.7470 H   0  0  0  0  0  0
  -21.0836   -8.8768   19.8947 H   0  0  0  0  0  0
  -22.3684  -10.9673   19.6150 H   0  0  0  0  0  0
  -21.2000   -7.6149   23.9719 H   0  0  0  0  0  0
  -21.1469   -6.0521   25.9078 H   0  0  0  0  0  0
  -22.0602   -2.7609   23.2840 H   0  0  0  0  0  0
  -22.4088  -11.9897   22.4769 H   0  0  0  0  0  0
  -21.1108  -13.1277   22.2568 H   0  0  0  0  0  0
  -24.6767  -15.8474   20.5657 H   0  0  0  0  0  0
  -26.3047  -15.6319   20.1592 H   0  0  0  0  0  0
  -26.7114  -32.5532   23.1152 H   0  0  0  0  0  0
  -25.0120  -33.9787   25.0528 H   0  0  0  0  0  0
  -22.6875  -31.3066   21.4109 H   0  0  0  0  0  0
  -23.3763  -35.9637   23.3297 H   0  0  0  0  0  0
  -24.3581  -36.8912   22.2051 H   0  0  0  0  0  0
  -23.7245  -37.6520   23.6632 H   0  0  0  0  0  0
  -26.0313  -31.6010   20.5886 H   0  0  0  0  0  0
  -26.8181  -30.8948   21.9741 H   0  0  0  0  0  0
  -28.1079  -29.1324   21.1283 H   0  0  0  0  0  0
  -26.0762  -25.9826   18.9957 H   0  0  0  0  0  0
  -23.9801  -27.2860   19.0480 H   0  0  0  0  0  0
  -23.7167  -30.5932   19.4062 H   0  0  0  0  0  0
  -22.7316  -29.2395   19.8710 H   0  0  0  0  0  0
  -25.1279  -36.1974   25.0837 H   0  0  0  0  0  0
  -20.9916  -28.3218   24.1468 H   0  0  0  0  0  0
  -20.5673  -26.2257   23.3601 H   0  0  0  0  0  0
  -21.6631  -26.7452   22.1211 H   0  0  0  0  0  0
  -19.6920  -25.6300   21.1231 H   0  0  0  0  0  0
  -19.6718  -27.3210   20.6773 H   0  0  0  0  0  0
  -17.4193  -26.6698   21.3992 H   0  0  0  0  0  0
  -18.0297  -26.0069   22.8987 H   0  0  0  0  0  0
  -19.7932  -30.7257   24.2277 H   0  0  0  0  0  0
  -17.5017  -31.6268   24.5173 H   0  0  0  0  0  0
  -15.5347  -30.3010   23.7663 H   0  0  0  0  0  0
  -15.8639  -28.0864   22.7024 H   0  0  0  0  0  0
  -24.5939  -30.7010   25.7846 H   0  0  0  0  0  0
  -24.8893  -32.2888   26.4851 H   0  0  0  0  0  0
  -25.8104  -30.8973   27.0267 H   0  0  0  0  0  0
  -26.2794  -29.6829   24.1093 H   0  0  0  0  0  0
  -27.4026  -29.7218   25.4497 H   0  0  0  0  0  0
  -27.8639  -30.4343   23.9196 H   0  0  0  0  0  0
  -27.2684  -33.3590   26.2068 H   0  0  0  0  0  0
  -28.3864  -32.6855   25.0294 H   0  0  0  0  0  0
  -28.0722  -31.8402   26.5378 H   0  0  0  0  0  0
  -28.2600  -38.0109   24.7497 H   0  0  0  0  0  0
  -28.1085  -36.2635   24.6276 H   0  0  0  0  0  0
  -27.2300  -37.1438   25.8867 H   0  0  0  0  0  0
  -20.9290  -29.8762   21.6979 H   0  0  0  0  0  0
  -26.0187  -38.2875   24.1429 H   0  0  0  0  0  0
  -26.6405  -19.8273   18.7739 H   0  0  0  0  0  0
  -28.9120  -16.1573   18.6534 H   0  0  0  0  0  0
  -30.4964  -21.8252   22.4145 H   0  0  0  0  0  0
  -29.3274  -21.5260   23.6743 H   0  0  0  0  0  0
  -27.9762  -20.1071   22.1824 H   0  0  0  0  0  0
  -29.6267  -19.5422   22.2108 H   0  0  0  0  0  0
  -28.9704  -23.7361   22.6614 H   0  0  0  0  0  0
  -27.5644  -22.7293   22.3968 H   0  0  0  0  0  0
  -27.2189  -21.6811   20.1119 H   0  0  0  0  0  0
  -28.4017  -21.9639   18.8549 H   0  0  0  0  0  0
  -30.1003  -20.6766   20.0702 H   0  0  0  0  0  0
  -24.4846  -17.7312   18.2938 H   0  0  0  0  0  0
  -24.4764  -17.2132   16.6020 H   0  0  0  0  0  0
  -25.2040  -18.7632   17.0481 H   0  0  0  0  0  0
  -31.1758  -17.2540   19.4398 H   0  0  0  0  0  0
  -31.0704  -18.6360   20.4757 H   0  0  0  0  0  0
  -29.7993  -17.2384   22.1959 H   0  0  0  0  0  0
  -31.4513  -16.7543   21.9320 H   0  0  0  0  0  0
  -28.3102  -24.3600   19.0723 H   0  0  0  0  0  0
  -27.0011  -24.2027   20.2183 H   0  0  0  0  0  0
  -29.6223  -25.5186   21.0444 H   0  0  0  0  0  0
  -28.0588  -25.7409   21.7828 H   0  0  0  0  0  0
  -29.0998  -15.1756   21.5385 H   0  0  0  0  0  0
  -29.7218  -23.1345   20.4587 H   0  0  0  0  0  0
  1 25  1  0  0  0
  1 30  2  0  0  0
  1 87  1  0  0  0
  2  3  1  0  0  0
  2 25  1  0  0  0
  2 90  1  0  0  0
  2 91  1  0  0  0
  3  4  1  0  0  0
  3 92  1  0  0  0
  3 93  1  0  0  0
  4  5  1  0  0  0
  4 94  1  0  0  0
  4 95  1  0  0  0
  5  6  1  0  0  0
  5 26  1  0  0  0
  5 96  1  0  0  0
  6 25  1  0  0  0
  6 97  1  0  0  0
  6 98  1  0  0  0
  7  8  2  0  0  0
  7 26  1  0  0  0
  7 29  1  0  0  0
  8  9  1  0  0  0
  8 22  1  0  0  0
  9 10  1  0  0  0
  9 27  2  0  0  0
 10 11  2  0  0  0
 10 15  1  0  0  0
 11 12  1  0  0  0
 11 99  1  0  0  0
 12 13  2  0  0  0
 12100  1  0  0  0
 13 14  1  0  0  0
 13 31  1  0  0  0
 14 15  2  0  0  0
 14101  1  0  0  0
 15102  1  0  0  0
 16 17  2  0  0  0
 16 21  1  0  0  0
 16 31  1  0  0  0
 17 18  1  0  0  0
 17103  1  0  0  0
 18 19  2  0  0  0
 18104  1  0  0  0
 19 20  1  0  0  0
 19 24  1  0  0  0
 20 21  2  0  0  0
 20105  1  0  0  0
 21 23  1  0  0  0
 22 28  1  0  0  0
 22 32  2  0  0  0
 26 27  1  0  0  0
 28106  1  0  0  0
 28107  1  0  0  0
 29108  1  0  0  0
 29109  1  0  0  0
 33 34  1  0  0  0
 33 66  1  0  0  0
 33 70  2  0  0  0
 34 36  1  0  0  0
 34 59  1  0  0  0
 34110  1  0  0  0
 35 44  2  0  0  0
 35 45  1  0  0  0
 35 68  1  0  0  0
 36 56  1  0  0  0
 36111  1  0  0  0
 37 39  1  0  0  0
 37 47  1  0  0  0
 37 66  1  0  0  0
 37112  1  0  0  0
 38 43  2  0  0  0
 38 46  1  0  0  0
 38 47  1  0  0  0
 39 64  1  0  0  0
 39 67  2  0  0  0
 40 52  1  0  0  0
 40 53  2  0  0  0
 40 58  1  0  0  0
 41113  1  0  0  0
 41114  1  0  0  0
 41115  1  0  0  0
 41 48  1  0  0  0
 42 43  1  0  0  0
 42 66  1  0  0  0
 42116  1  0  0  0
 42117  1  0  0  0
 43 44  1  0  0  0
 44118  1  0  0  0
 45 46  2  0  0  0
 45119  1  0  0  0
 46120  1  0  0  0
 47121  1  0  0  0
 47122  1  0  0  0
 48 56  1  0  0  0
 48 65  1  0  0  0
 48123  1  0  0  0
 49 50  1  0  0  0
 49 53  1  0  0  0
 49 64  1  0  0  0
 49124  1  0  0  0
 50 51  1  0  0  0
 50125  1  0  0  0
 50126  1  0  0  0
 51 52  1  0  0  0
 51127  1  0  0  0
 51128  1  0  0  0
 52129  1  0  0  0
 52130  1  0  0  0
 53 54  1  0  0  0
 54 55  2  0  0  0
 54131  1  0  0  0
 55 57  1  0  0  0
 55132  1  0  0  0
 56 69  2  0  0  0
 57 58  2  0  0  0
 57133  1  0  0  0
 58134  1  0  0  0
 59 60  1  0  0  0
 59 61  1  0  0  0
 59 62  1  0  0  0
 60135  1  0  0  0
 60136  1  0  0  0
 60137  1  0  0  0
 61138  1  0  0  0
 61139  1  0  0  0
 61140  1  0  0  0
 62141  1  0  0  0
 62142  1  0  0  0
 62143  1  0  0  0
 63 65  1  0  0  0
 63144  1  0  0  0
 63145  1  0  0  0
 63146  1  0  0  0
 64147  1  0  0  0
 65148  1  0  0  0
 68 85  1  0  0  0
 71 73  1  0  0  0
 71 74  2  0  0  0
 71149  1  0  0  0
 72 73  2  0  0  0
 72 86  1  0  0  0
 72150  1  0  0  0
 73 75  1  0  0  0
 74 86  1  0  0  0
 74 80  1  0  0  0
 75 81  1  0  0  0
 75 89  2  0  0  0
 76 77  1  0  0  0
 76 78  1  0  0  0
 76151  1  0  0  0
 76152  1  0  0  0
 77 80  1  0  0  0
 77153  1  0  0  0
 77154  1  0  0  0
 78 88  1  0  0  0
 78155  1  0  0  0
 78156  1  0  0  0
 79 80  1  0  0  0
 79 88  1  0  0  0
 79157  1  0  0  0
 79158  1  0  0  0
 80159  1  0  0  0
 81160  1  0  0  0
 81161  1  0  0  0
 81162  1  0  0  0
 82 83  1  0  0  0
 82 86  1  0  0  0
 82163  1  0  0  0
 82164  1  0  0  0
 83 87  1  0  0  0
 83165  1  0  0  0
 83166  1  0  0  0
 84 85  1  0  0  0
 84167  1  0  0  0
 84168  1  0  0  0
 84 88  1  0  0  0
 85169  1  0  0  0
 85170  1  0  0  0
 87171  1  0  0  0
 88172  1  0  0  0
M  CHG  1  88   1
M  ISO  4   1 100  68 101  85 101  87 100
M  END
> <chiral flag>
0

> <version>
0

> <s_m_source_file>
/data/baiqing/PycharmProjects/Reinvent-master-3.2/result/LINK_invent/BTK/process_docking_weight1_custom_sum_contain_oxygen_bond_distance_aromatic_linkinvent_7_9_3/rearranged_h_0121.sdf

> <i_m_source_file_index>
51

> <r_mmod_Potential_Energy-OPLS-2005>
-148.564865112305

> <r_mmod_Stretch_Energy-OPLS-2005>
37.9429054260254

> <r_mmod_Bend_Energy-OPLS-2005>
102.039428710938

> <r_mmod_Torsional_Energy-OPLS-2005>
286.830200195312

> <r_mmod_Improper_Torsional_Energy-OPLS-2005>
2.94920110702515

> <r_mmod_Van_der_Waal_Energy-OPLS-2005>
112.934898376465

> <r_mmod_Electrostatic_Energy-OPLS-2005>
-253.021636962891

> <r_mmod_Solvation_Energy-OPLS-2005>
-448.024658203125

> <b_mmod_Minimization_Converged-OPLS-2005>
0

> <r_mmod_RMS_Derivative-OPLS-2005>
1.73713612556458

$$$$
51
                    3D
 Structure written by MMmdl.
166174  0  0  1  0            999 V2000
  -30.7335  -14.5392   20.6184 C   0  0  0  0  0  0
  -30.4162  -12.3621   19.4601 C   0  0  0  0  0  0
  -29.5025  -12.5306   18.2317 C   0  0  0  0  0  0
  -28.0258  -12.3725   18.6375 C   0  0  0  0  0  0
  -27.6554  -13.2315   19.8767 C   0  0  2  0  0  0
  -28.6898  -13.0692   21.0134 C   0  0  0  0  0  0
  -25.2516  -13.8213   20.5745 C   0  0  0  0  0  0
  -24.1823  -13.0442   20.9191 C   0  0  0  0  0  0
  -24.6422  -11.6921   20.8753 C   0  0  0  0  0  0
  -23.9139  -10.4259   21.0441 C   0  0  0  0  0  0
  -24.3670   -9.4156   21.9211 C   0  0  0  0  0  0
  -23.6315   -8.2207   22.0762 C   0  0  0  0  0  0
  -22.4288   -8.0277   21.3553 C   0  0  0  0  0  0
  -21.9948   -9.0251   20.4645 C   0  0  0  0  0  0
  -22.7318  -10.2115   20.3079 C   0  0  0  0  0  0
  -21.6853   -6.0748   22.5281 C   0  0  0  0  0  0
  -21.3985   -6.5649   23.8206 C   0  0  0  0  0  0
  -21.3655   -5.6816   24.9189 C   0  0  0  0  0  0
  -21.6064   -4.3068   24.7242 C   0  0  0  0  0  0
  -21.8803   -3.8149   23.4345 C   0  0  0  0  0  0
  -21.9164   -4.6974   22.3407 C   0  0  0  0  0  0
  -22.7812  -13.5153   21.1815 C   0  0  0  0  0  0
  -22.1642   -4.2178   21.0985 F   0  0  0  0  0  0
  -21.5650   -3.4528   25.7730 F   0  0  0  0  0  0
  -30.0208  -13.3783   20.4624 N   0  0  0  0  0  0
  -26.3003  -12.9458   20.3382 N   0  0  0  0  0  0
  -25.9357  -11.6596   20.5780 N   0  0  0  0  0  0
  -22.0499  -12.8168   22.0449 N   0  0  0  0  0  0
  -25.4149  -15.1955   20.4177 N   0  0  0  0  0  0
  -31.8002  -14.7197   20.0211 O   0  0  0  0  0  0
  -21.6618   -6.8913   21.4267 O   0  0  0  0  0  0
  -22.3497  -14.5461   20.6643 O   0  0  0  0  0  0
  -24.6268  -31.8656   23.2020 C   0  0  0  0  0  0
  -25.9111  -32.4787   23.8376 C   0  0  1  0  0  0
  -27.2507  -27.4054   20.0741 C   0  0  0  0  0  0
  -25.5934  -33.8597   24.2322 N   0  0  0  0  0  0
  -23.4182  -30.4867   21.5400 C   0  0  2  0  0  0
  -24.8641  -28.9369   20.1151 C   0  0  0  0  0  0
  -22.7498  -29.4644   22.4915 C   0  0  0  0  0  0
  -18.0302  -28.1364   22.8449 C   0  0  0  0  0  0
  -24.1477  -36.7305   23.2643 C   0  0  0  0  0  0
  -25.9553  -30.8103   21.3666 C   0  0  0  0  0  0
  -26.0254  -29.4391   20.7172 C   0  0  0  0  0  0
  -27.2167  -28.6740   20.7050 C   0  0  0  0  0  0
  -26.0580  -26.9103   19.4972 C   0  0  0  0  0  0
  -24.8715  -27.6649   19.5178 C   0  0  0  0  0  0
  -23.6350  -29.8136   20.1573 C   0  0  0  0  0  0
  -25.4109  -36.3125   24.0346 C   0  0  1  0  0  0
  -20.5892  -28.3700   23.1225 C   0  0  2  0  0  0
  -20.6785  -26.9433   22.5384 C   0  0  0  0  0  0
  -19.5783  -26.6381   21.5174 C   0  0  0  0  0  0
  -18.1958  -26.7910   22.1573 C   0  0  0  0  0  0
  -19.1545  -28.8868   23.2823 C   0  0  0  0  0  0
  -18.9491  -30.1439   23.8883 C   0  0  0  0  0  0
  -17.6493  -30.6578   24.0549 C   0  0  0  0  0  0
  -25.9055  -34.9477   23.5168 C   0  0  0  0  0  0
  -16.5369  -29.9099   23.6303 C   0  0  0  0  0  0
  -16.7292  -28.6516   23.0335 C   0  0  0  0  0  0
  -26.4523  -31.6578   25.0733 C   0  0  0  0  0  0
  -25.3788  -31.3685   26.1482 C   0  0  0  0  0  0
  -27.0391  -30.3019   24.6170 C   0  0  0  0  0  0
  -27.6111  -32.4301   25.7471 C   0  0  0  0  0  0
  -27.5589  -37.1824   24.8493 C   0  0  0  0  0  0
  -21.4222  -29.3056   22.3646 N   0  0  0  0  0  0
  -26.4312  -37.3809   23.9428 N   0  0  0  0  0  0
  -24.6844  -31.0713   22.0902 N   0  0  0  0  0  0
  -23.4249  -28.8217   23.2979 O   0  0  0  0  0  0
  -28.4130  -26.6512   20.0674 O   0  0  0  0  0  0
  -26.5602  -34.8948   22.4700 O   0  0  0  0  0  0
  -23.5453  -32.1390   23.7407 O   0  0  0  0  0  0
  -29.8025  -18.9439   19.8901 C   0  0  0  0  0  0
  -28.0200  -18.5398   21.4603 C   0  0  0  0  0  0
  -30.3057  -17.6348   20.1506 C   0  0  0  0  0  0
  -28.4975  -17.2269   21.6937 C   0  0  0  0  0  0
  -28.6545  -19.4314   20.5594 C   0  0  0  0  0  0
  -29.6643  -16.7423   21.0553 C   0  0  0  0  0  0
  -32.2147  -16.4681   22.7675 C   0  0  0  0  0  0
  -31.1660  -14.2936   23.5695 C   0  0  0  0  0  0
  -28.0544  -20.8604   20.3714 C   0  0  0  0  0  0
  -28.2724  -23.3118   19.6512 C   0  0  0  0  0  0
  -28.7522  -25.9083   18.8733 C   0  0  0  0  0  0
  -30.9239  -15.6175   22.8259 C   0  0  0  0  0  0
  -29.2226  -24.4058   19.0420 C   0  0  1  0  0  0
  -30.2663  -15.4908   21.4955 N   0  0  0  0  0  0
  -28.8756  -21.9269   19.7025 N   0  3  0  0  0  0
  -30.4415  -24.3747   19.7745 O   0  0  0  0  0  0
  -31.4648  -12.4446   19.1670 H   0  0  0  0  0  0
  -30.3169  -11.3567   19.8761 H   0  0  0  0  0  0
  -29.7574  -11.7946   17.4692 H   0  0  0  0  0  0
  -29.6663  -13.5141   17.7867 H   0  0  0  0  0  0
  -27.8506  -11.3200   18.8651 H   0  0  0  0  0  0
  -27.3721  -12.6116   17.7991 H   0  0  0  0  0  0
  -27.6798  -14.2728   19.5558 H   0  0  0  0  0  0
  -28.6681  -12.0464   21.3978 H   0  0  0  0  0  0
  -28.4290  -13.7159   21.8546 H   0  0  0  0  0  0
  -25.2828   -9.5570   22.4801 H   0  0  0  0  0  0
  -23.9978   -7.4594   22.7465 H   0  0  0  0  0  0
  -21.0874   -8.8811   19.8934 H   0  0  0  0  0  0
  -22.3832  -10.9667   19.6165 H   0  0  0  0  0  0
  -21.1983   -7.6153   23.9755 H   0  0  0  0  0  0
  -21.1501   -6.0516   25.9113 H   0  0  0  0  0  0
  -22.0596   -2.7610   23.2827 H   0  0  0  0  0  0
  -22.4074  -11.9838   22.4873 H   0  0  0  0  0  0
  -21.1114  -13.1183   22.2673 H   0  0  0  0  0  0
  -24.6443  -15.8427   20.5450 H   0  0  0  0  0  0
  -26.2771  -15.6517   20.1576 H   0  0  0  0  0  0
  -26.7238  -32.5504   23.1195 H   0  0  0  0  0  0
  -25.0180  -33.9703   25.0551 H   0  0  0  0  0  0
  -22.7120  -31.3054   21.3866 H   0  0  0  0  0  0
  -23.3768  -35.9618   23.3360 H   0  0  0  0  0  0
  -24.3619  -36.8871   22.2064 H   0  0  0  0  0  0
  -23.7198  -37.6521   23.6612 H   0  0  0  0  0  0
  -26.0938  -31.5677   20.5925 H   0  0  0  0  0  0
  -26.8390  -30.8561   21.9955 H   0  0  0  0  0  0
  -28.1174  -29.0586   21.1688 H   0  0  0  0  0  0
  -26.0348  -25.9264   19.0466 H   0  0  0  0  0  0
  -23.9760  -27.2622   19.0578 H   0  0  0  0  0  0
  -23.7610  -30.5799   19.3918 H   0  0  0  0  0  0
  -22.7599  -29.2415   19.8510 H   0  0  0  0  0  0
  -25.1287  -36.2016   25.0845 H   0  0  0  0  0  0
  -20.9959  -28.3314   24.1341 H   0  0  0  0  0  0
  -20.5629  -26.2381   23.3620 H   0  0  0  0  0  0
  -21.6667  -26.7430   22.1206 H   0  0  0  0  0  0
  -19.6938  -25.6304   21.1230 H   0  0  0  0  0  0
  -19.6651  -27.3172   20.6694 H   0  0  0  0  0  0
  -17.4191  -26.6617   21.3994 H   0  0  0  0  0  0
  -18.0351  -26.0036   22.8970 H   0  0  0  0  0  0
  -19.7991  -30.7212   24.2259 H   0  0  0  0  0  0
  -17.5088  -31.6253   24.5169 H   0  0  0  0  0  0
  -15.5386  -30.3008   23.7660 H   0  0  0  0  0  0
  -15.8675  -28.0849   22.7034 H   0  0  0  0  0  0
  -24.5937  -30.7030   25.7850 H   0  0  0  0  0  0
  -24.8987  -32.2829   26.4990 H   0  0  0  0  0  0
  -25.8141  -30.8841   27.0233 H   0  0  0  0  0  0
  -26.2959  -29.6711   24.1255 H   0  0  0  0  0  0
  -27.4217  -29.7318   25.4664 H   0  0  0  0  0  0
  -27.8788  -30.4404   23.9339 H   0  0  0  0  0  0
  -27.2742  -33.3583   26.2126 H   0  0  0  0  0  0
  -28.3842  -32.6874   25.0212 H   0  0  0  0  0  0
  -28.0862  -31.8370   26.5311 H   0  0  0  0  0  0
  -28.2635  -38.0085   24.7521 H   0  0  0  0  0  0
  -28.1015  -36.2613   24.6322 H   0  0  0  0  0  0
  -27.2310  -37.1535   25.8896 H   0  0  0  0  0  0
  -20.9473  -29.8827   21.6850 H   0  0  0  0  0  0
  -26.0210  -38.2905   24.1370 H   0  0  0  0  0  0
  -30.3530  -19.5830   19.2127 H   0  0  0  0  0  0
  -27.1564  -18.8659   22.0152 H   0  0  0  0  0  0
  -31.2392  -17.3478   19.6886 H   0  0  0  0  0  0
  -27.9764  -16.6147   22.4210 H   0  0  0  0  0  0
  -32.5637  -16.7675   23.7584 H   0  0  0  0  0  0
  -32.0661  -17.3930   22.2124 H   0  0  0  0  0  0
  -33.0267  -15.9226   22.2825 H   0  0  0  0  0  0
  -31.8863  -13.6591   23.0547 H   0  0  0  0  0  0
  -30.2348  -13.7421   23.7069 H   0  0  0  0  0  0
  -31.5765  -14.4952   24.5609 H   0  0  0  0  0  0
  -27.7716  -21.2175   21.3665 H   0  0  0  0  0  0
  -27.1180  -20.7367   19.8216 H   0  0  0  0  0  0
  -27.3409  -23.2708   19.0854 H   0  0  0  0  0  0
  -28.0114  -23.6173   20.6621 H   0  0  0  0  0  0
  -27.9827  -25.9866   18.1038 H   0  0  0  0  0  0
  -29.5733  -26.4664   18.4157 H   0  0  0  0  0  0
  -30.2247  -16.1647   23.4599 H   0  0  0  0  0  0
  -29.4740  -24.0885   18.0271 H   0  0  0  0  0  0
  -29.0440  -21.6355   18.7558 H   0  0  0  0  0  0
  -29.7668  -21.9912   20.1723 H   0  0  0  0  0  0
  -30.8189  -25.2461   19.7429 H   0  0  0  0  0  0
  1 25  1  0  0  0
  1 30  2  0  0  0
  1 84  1  0  0  0
  2  3  1  0  0  0
  2 25  1  0  0  0
  2 87  1  0  0  0
  2 88  1  0  0  0
  3  4  1  0  0  0
  3 89  1  0  0  0
  3 90  1  0  0  0
  4  5  1  0  0  0
  4 91  1  0  0  0
  4 92  1  0  0  0
  5  6  1  0  0  0
  5 26  1  0  0  0
  5 93  1  0  0  0
  6 25  1  0  0  0
  6 94  1  0  0  0
  6 95  1  0  0  0
  7  8  2  0  0  0
  7 26  1  0  0  0
  7 29  1  0  0  0
  8  9  1  0  0  0
  8 22  1  0  0  0
  9 10  1  0  0  0
  9 27  2  0  0  0
 10 11  2  0  0  0
 10 15  1  0  0  0
 11 12  1  0  0  0
 11 96  1  0  0  0
 12 13  2  0  0  0
 12 97  1  0  0  0
 13 14  1  0  0  0
 13 31  1  0  0  0
 14 15  2  0  0  0
 14 98  1  0  0  0
 15 99  1  0  0  0
 16 17  2  0  0  0
 16 21  1  0  0  0
 16 31  1  0  0  0
 17 18  1  0  0  0
 17100  1  0  0  0
 18 19  2  0  0  0
 18101  1  0  0  0
 19 20  1  0  0  0
 19 24  1  0  0  0
 20 21  2  0  0  0
 20102  1  0  0  0
 21 23  1  0  0  0
 22 28  1  0  0  0
 22 32  2  0  0  0
 26 27  1  0  0  0
 28103  1  0  0  0
 28104  1  0  0  0
 29105  1  0  0  0
 29106  1  0  0  0
 33 34  1  0  0  0
 33 66  1  0  0  0
 33 70  2  0  0  0
 34 36  1  0  0  0
 34 59  1  0  0  0
 34107  1  0  0  0
 35 44  2  0  0  0
 35 45  1  0  0  0
 35 68  1  0  0  0
 36 56  1  0  0  0
 36108  1  0  0  0
 37 39  1  0  0  0
 37 47  1  0  0  0
 37 66  1  0  0  0
 37109  1  0  0  0
 38 43  2  0  0  0
 38 46  1  0  0  0
 38 47  1  0  0  0
 39 64  1  0  0  0
 39 67  2  0  0  0
 40 52  1  0  0  0
 40 53  2  0  0  0
 40 58  1  0  0  0
 41110  1  0  0  0
 41111  1  0  0  0
 41112  1  0  0  0
 41 48  1  0  0  0
 42 43  1  0  0  0
 42 66  1  0  0  0
 42113  1  0  0  0
 42114  1  0  0  0
 43 44  1  0  0  0
 44115  1  0  0  0
 45 46  2  0  0  0
 45116  1  0  0  0
 46117  1  0  0  0
 47118  1  0  0  0
 47119  1  0  0  0
 48 56  1  0  0  0
 48 65  1  0  0  0
 48120  1  0  0  0
 49 50  1  0  0  0
 49 53  1  0  0  0
 49 64  1  0  0  0
 49121  1  0  0  0
 50 51  1  0  0  0
 50122  1  0  0  0
 50123  1  0  0  0
 51 52  1  0  0  0
 51124  1  0  0  0
 51125  1  0  0  0
 52126  1  0  0  0
 52127  1  0  0  0
 53 54  1  0  0  0
 54 55  2  0  0  0
 54128  1  0  0  0
 55 57  1  0  0  0
 55129  1  0  0  0
 56 69  2  0  0  0
 57 58  2  0  0  0
 57130  1  0  0  0
 58131  1  0  0  0
 59 60  1  0  0  0
 59 61  1  0  0  0
 59 62  1  0  0  0
 60132  1  0  0  0
 60133  1  0  0  0
 60134  1  0  0  0
 61135  1  0  0  0
 61136  1  0  0  0
 61137  1  0  0  0
 62138  1  0  0  0
 62139  1  0  0  0
 62140  1  0  0  0
 63 65  1  0  0  0
 63141  1  0  0  0
 63142  1  0  0  0
 63143  1  0  0  0
 64144  1  0  0  0
 65145  1  0  0  0
 68 81  1  0  0  0
 71 73  2  0  0  0
 71 75  1  0  0  0
 71146  1  0  0  0
 72 74  1  0  0  0
 72 75  2  0  0  0
 72147  1  0  0  0
 73 76  1  0  0  0
 73148  1  0  0  0
 74 76  2  0  0  0
 74149  1  0  0  0
 75 79  1  0  0  0
 76 84  1  0  0  0
 77150  1  0  0  0
 77151  1  0  0  0
 77152  1  0  0  0
 77 82  1  0  0  0
 78 82  1  0  0  0
 78153  1  0  0  0
 78154  1  0  0  0
 78155  1  0  0  0
 79 85  1  0  0  0
 79156  1  0  0  0
 79157  1  0  0  0
 80 83  1  0  0  0
 80 85  1  0  0  0
 80158  1  0  0  0
 80159  1  0  0  0
 81 83  1  0  0  0
 81160  1  0  0  0
 81161  1  0  0  0
 82 84  1  0  0  0
 82162  1  0  0  0
 83 86  1  0  0  0
 83163  1  0  0  0
 85164  1  0  0  0
 85165  1  0  0  0
 86166  1  0  0  0
M  CHG  1  85   1
M  ISO  4   1 100  68 101  81 101  84 100
M  END
> <chiral flag>
0

> <version>
0

> <s_m_source_file>
/data/baiqing/PycharmProjects/Reinvent-master-3.2/result/LINK_invent/BTK/process_docking_weight1_custom_sum_contain_oxygen_bond_distance_aromatic_linkinvent_7_9_3/rearranged_h_0121.sdf

> <i_m_source_file_index>
52

> <r_mmod_Potential_Energy-OPLS-2005>
1.33506560325623

> <r_mmod_Stretch_Energy-OPLS-2005>
64.0338516235352

> <r_mmod_Bend_Energy-OPLS-2005>
138.850296020508

> <r_mmod_Torsional_Energy-OPLS-2005>
324.747467041016

> <r_mmod_Improper_Torsional_Energy-OPLS-2005>
5.13831758499146

> <r_mmod_Van_der_Waal_Energy-OPLS-2005>
139.253021240234

> <r_mmod_Electrostatic_Energy-OPLS-2005>
-245.584106445312

> <r_mmod_Solvation_Energy-OPLS-2005>
-446.561706542969

> <b_mmod_Minimization_Converged-OPLS-2005>
0

> <r_mmod_RMS_Derivative-OPLS-2005>
8.85193252563477

$$$$
52
                    3D
 Structure written by MMmdl.
162171  0  0  1  0            999 V2000
  -30.6255  -14.6463   20.3791 C   0  0  0  0  0  0
  -30.4232  -12.3677   19.4617 C   0  0  0  0  0  0
  -29.5019  -12.4588   18.2263 C   0  0  0  0  0  0
  -28.0183  -12.3280   18.6360 C   0  0  0  0  0  0
  -27.6328  -13.1783   19.8829 C   0  0  2  0  0  0
  -28.6977  -13.1231   20.9980 C   0  0  0  0  0  0
  -25.2503  -13.7968   20.5886 C   0  0  0  0  0  0
  -24.1727  -13.0294   20.9284 C   0  0  0  0  0  0
  -24.6294  -11.6763   20.8832 C   0  0  0  0  0  0
  -23.9003  -10.4199   21.0467 C   0  0  0  0  0  0
  -24.3579   -9.4107   21.9223 C   0  0  0  0  0  0
  -23.6266   -8.2146   22.0773 C   0  0  0  0  0  0
  -22.4243   -8.0238   21.3543 C   0  0  0  0  0  0
  -21.9869   -9.0228   20.4657 C   0  0  0  0  0  0
  -22.7200  -10.2092   20.3087 C   0  0  0  0  0  0
  -21.6819   -6.0735   22.5284 C   0  0  0  0  0  0
  -21.4014   -6.5639   23.8226 C   0  0  0  0  0  0
  -21.3654   -5.6783   24.9185 C   0  0  0  0  0  0
  -21.6047   -4.3048   24.7217 C   0  0  0  0  0  0
  -21.8826   -3.8148   23.4340 C   0  0  0  0  0  0
  -21.9177   -4.6970   22.3402 C   0  0  0  0  0  0
  -22.7751  -13.5179   21.1840 C   0  0  0  0  0  0
  -22.1642   -4.2173   21.0969 F   0  0  0  0  0  0
  -21.5607   -3.4513   25.7724 F   0  0  0  0  0  0
  -29.9983  -13.4297   20.3845 N   0  0  0  0  0  0
  -26.2888  -12.9054   20.3601 N   0  0  0  0  0  0
  -25.9207  -11.6251   20.5914 N   0  0  0  0  0  0
  -22.0331  -12.8275   22.0411 N   0  0  0  0  0  0
  -25.4148  -15.1706   20.4322 N   0  0  0  0  0  0
  -31.8481  -14.7372   20.2303 O   0  0  0  0  0  0
  -21.6579   -6.8855   21.4249 O   0  0  0  0  0  0
  -22.3501  -14.5480   20.6633 O   0  0  0  0  0  0
  -24.6279  -31.8585   23.1957 C   0  0  0  0  0  0
  -25.9131  -32.4775   23.8320 C   0  0  1  0  0  0
  -27.2297  -27.3002   20.0926 C   0  0  0  0  0  0
  -25.5921  -33.8555   24.2230 N   0  0  0  0  0  0
  -23.4223  -30.4779   21.5444 C   0  0  2  0  0  0
  -24.8619  -28.9177   20.1137 C   0  0  0  0  0  0
  -22.7493  -29.4626   22.4964 C   0  0  0  0  0  0
  -18.0288  -28.1404   22.8498 C   0  0  0  0  0  0
  -24.1463  -36.7304   23.2638 C   0  0  0  0  0  0
  -25.9618  -30.7773   21.3682 C   0  0  0  0  0  0
  -26.0327  -29.4002   20.7124 C   0  0  0  0  0  0
  -27.2125  -28.6027   20.6857 C   0  0  0  0  0  0
  -26.0262  -26.8542   19.5011 C   0  0  0  0  0  0
  -24.8635  -27.6517   19.5040 C   0  0  0  0  0  0
  -23.6348  -29.8063   20.1615 C   0  0  0  0  0  0
  -25.4106  -36.3086   24.0310 C   0  0  1  0  0  0
  -20.5887  -28.3715   23.1288 C   0  0  2  0  0  0
  -20.6770  -26.9447   22.5412 C   0  0  0  0  0  0
  -19.5752  -26.6412   21.5210 C   0  0  0  0  0  0
  -18.1938  -26.7947   22.1631 C   0  0  0  0  0  0
  -19.1532  -28.8885   23.2882 C   0  0  0  0  0  0
  -18.9455  -30.1488   23.8911 C   0  0  0  0  0  0
  -17.6457  -30.6601   24.0586 C   0  0  0  0  0  0
  -25.9070  -34.9456   23.5083 C   0  0  0  0  0  0
  -16.5346  -29.9121   23.6346 C   0  0  0  0  0  0
  -16.7285  -28.6536   23.0367 C   0  0  0  0  0  0
  -26.4463  -31.6620   25.0735 C   0  0  0  0  0  0
  -25.3665  -31.3813   26.1467 C   0  0  0  0  0  0
  -27.0276  -30.3024   24.6227 C   0  0  0  0  0  0
  -27.5990  -32.4398   25.7522 C   0  0  0  0  0  0
  -27.5579  -37.1824   24.8478 C   0  0  0  0  0  0
  -21.4203  -29.3048   22.3688 N   0  0  0  0  0  0
  -26.4286  -37.3798   23.9420 N   0  0  0  0  0  0
  -24.6916  -31.0564   22.0928 N   0  0  0  0  0  0
  -23.4218  -28.8200   23.3091 O   0  0  0  0  0  0
  -28.3913  -26.5123   20.1141 O   0  0  0  0  0  0
  -26.5666  -34.8936   22.4678 O   0  0  0  0  0  0
  -23.5450  -32.1389   23.7284 O   0  0  0  0  0  0
  -30.1422  -20.4017   21.1034 C   0  0  0  0  0  0
  -29.7990  -21.7640   21.3223 C   0  0  0  0  0  0
  -28.7700  -20.4905   19.1564 C   0  0  0  0  0  0
  -29.6062  -19.7056   20.0007 C   0  0  0  0  0  0
  -28.9304  -22.4743   20.4401 C   0  0  0  0  0  0
  -29.0016  -17.5270   18.7286 C   0  0  0  0  0  0
  -29.3810  -16.0498   18.8113 C   0  0  0  0  0  0
  -30.1012  -17.1122   20.7878 C   0  0  0  0  0  0
  -29.9722  -18.2135   19.6680 C   0  0  2  0  0  0
  -28.9946  -24.4687   22.0656 C   0  0  0  0  0  0
  -26.8439  -23.7358   21.0786 C   0  0  0  0  0  0
  -28.4785  -25.0862   19.6829 C   0  0  0  0  0  0
  -28.3419  -23.9238   20.7785 C   0  0  0  0  0  0
  -28.4409  -21.8019   19.3647 N   0  0  0  0  0  0
  -29.8306  -15.7568   20.1928 N   0  0  0  0  0  0
  -31.4693  -12.4690   19.1662 H   0  0  0  0  0  0
  -30.3359  -11.3935   19.9436 H   0  0  0  0  0  0
  -29.7676  -11.6813   17.5072 H   0  0  0  0  0  0
  -29.6642  -13.4070   17.7109 H   0  0  0  0  0  0
  -27.8245  -11.2736   18.8388 H   0  0  0  0  0  0
  -27.3826  -12.5881   17.7892 H   0  0  0  0  0  0
  -27.5776  -14.2007   19.5678 H   0  0  0  0  0  0
  -28.7223  -12.1494   21.4873 H   0  0  0  0  0  0
  -28.4579  -13.8569   21.7715 H   0  0  0  0  0  0
  -25.2720   -9.5552   22.4824 H   0  0  0  0  0  0
  -23.9966   -7.4501   22.7473 H   0  0  0  0  0  0
  -21.0802   -8.8782   19.8950 H   0  0  0  0  0  0
  -22.3703  -10.9677   19.6208 H   0  0  0  0  0  0
  -21.2046   -7.6158   23.9748 H   0  0  0  0  0  0
  -21.1440   -6.0498   25.9087 H   0  0  0  0  0  0
  -22.0613   -2.7625   23.2807 H   0  0  0  0  0  0
  -22.3908  -12.0026   22.4995 H   0  0  0  0  0  0
  -21.0941  -13.1329   22.2495 H   0  0  0  0  0  0
  -24.6404  -15.8142   20.5638 H   0  0  0  0  0  0
  -26.2732  -15.6273   20.1502 H   0  0  0  0  0  0
  -26.7196  -32.5423   23.1053 H   0  0  0  0  0  0
  -24.9953  -33.9681   25.0305 H   0  0  0  0  0  0
  -22.7176  -31.3000   21.4022 H   0  0  0  0  0  0
  -23.3709  -35.9663   23.3329 H   0  0  0  0  0  0
  -24.3526  -36.8918   22.2052 H   0  0  0  0  0  0
  -23.7214  -37.6504   23.6654 H   0  0  0  0  0  0
  -26.0950  -31.5354   20.5956 H   0  0  0  0  0  0
  -26.8410  -30.8276   21.9996 H   0  0  0  0  0  0
  -28.1202  -28.9730   21.1407 H   0  0  0  0  0  0
  -25.9622  -25.8801   19.0426 H   0  0  0  0  0  0
  -23.9634  -27.2685   19.0400 H   0  0  0  0  0  0
  -23.7588  -30.5832   19.4058 H   0  0  0  0  0  0
  -22.7499  -29.2413   19.8627 H   0  0  0  0  0  0
  -25.1271  -36.1939   25.0794 H   0  0  0  0  0  0
  -20.9954  -28.3280   24.1424 H   0  0  0  0  0  0
  -20.5661  -26.2337   23.3606 H   0  0  0  0  0  0
  -21.6644  -26.7504   22.1211 H   0  0  0  0  0  0
  -19.6904  -25.6327   21.1256 H   0  0  0  0  0  0
  -19.6653  -27.3201   20.6719 H   0  0  0  0  0  0
  -17.4191  -26.6702   21.4043 H   0  0  0  0  0  0
  -18.0357  -26.0082   22.9021 H   0  0  0  0  0  0
  -19.7923  -30.7296   24.2279 H   0  0  0  0  0  0
  -17.5016  -31.6283   24.5188 H   0  0  0  0  0  0
  -15.5356  -30.3026   23.7640 H   0  0  0  0  0  0
  -15.8678  -28.0843   22.7086 H   0  0  0  0  0  0
  -24.5825  -30.7161   25.7822 H   0  0  0  0  0  0
  -24.8857  -32.2990   26.4861 H   0  0  0  0  0  0
  -25.7970  -30.9027   27.0278 H   0  0  0  0  0  0
  -26.2854  -29.6851   24.1138 H   0  0  0  0  0  0
  -27.3785  -29.7225   25.4776 H   0  0  0  0  0  0
  -27.8811  -30.4257   23.9554 H   0  0  0  0  0  0
  -27.2553  -33.3711   26.2047 H   0  0  0  0  0  0
  -28.3821  -32.6977   25.0375 H   0  0  0  0  0  0
  -28.0629  -31.8577   26.5497 H   0  0  0  0  0  0
  -28.2622  -38.0099   24.7516 H   0  0  0  0  0  0
  -28.1036  -36.2636   24.6288 H   0  0  0  0  0  0
  -27.2321  -37.1486   25.8889 H   0  0  0  0  0  0
  -20.9395  -29.8745   21.6834 H   0  0  0  0  0  0
  -26.0161  -38.2879   24.1391 H   0  0  0  0  0  0
  -30.8126  -19.8956   21.7861 H   0  0  0  0  0  0
  -30.2017  -22.2223   22.2123 H   0  0  0  0  0  0
  -28.3291  -20.0534   18.2722 H   0  0  0  0  0  0
  -27.9853  -17.6587   19.1039 H   0  0  0  0  0  0
  -29.0326  -17.9080   17.7055 H   0  0  0  0  0  0
  -30.1896  -15.8304   18.1110 H   0  0  0  0  0  0
  -28.5430  -15.4725   18.4439 H   0  0  0  0  0  0
  -29.3635  -17.2769   21.5731 H   0  0  0  0  0  0
  -31.0838  -17.1487   21.2589 H   0  0  0  0  0  0
  -30.9352  -18.2444   19.1505 H   0  0  0  0  0  0
  -28.8916  -23.7787   22.9035 H   0  0  0  0  0  0
  -28.5302  -25.4000   22.3883 H   0  0  0  0  0  0
  -30.0565  -24.6669   21.9078 H   0  0  0  0  0  0
  -26.6912  -22.9991   21.8690 H   0  0  0  0  0  0
  -26.3100  -23.3804   20.1950 H   0  0  0  0  0  0
  -26.3816  -24.6716   21.3929 H   0  0  0  0  0  0
  -27.8336  -24.8754   18.8293 H   0  0  0  0  0  0
  -29.4859  -25.0004   19.2730 H   0  0  0  0  0  0
  1 25  1  0  0  0
  1 30  2  0  0  0
  1 85  1  0  0  0
  2  3  1  0  0  0
  2 25  1  0  0  0
  2 86  1  0  0  0
  2 87  1  0  0  0
  3  4  1  0  0  0
  3 88  1  0  0  0
  3 89  1  0  0  0
  4  5  1  0  0  0
  4 90  1  0  0  0
  4 91  1  0  0  0
  5  6  1  0  0  0
  5 26  1  0  0  0
  5 92  1  0  0  0
  6 25  1  0  0  0
  6 93  1  0  0  0
  6 94  1  0  0  0
  7  8  2  0  0  0
  7 26  1  0  0  0
  7 29  1  0  0  0
  8  9  1  0  0  0
  8 22  1  0  0  0
  9 10  1  0  0  0
  9 27  2  0  0  0
 10 11  2  0  0  0
 10 15  1  0  0  0
 11 12  1  0  0  0
 11 95  1  0  0  0
 12 13  2  0  0  0
 12 96  1  0  0  0
 13 14  1  0  0  0
 13 31  1  0  0  0
 14 15  2  0  0  0
 14 97  1  0  0  0
 15 98  1  0  0  0
 16 17  2  0  0  0
 16 21  1  0  0  0
 16 31  1  0  0  0
 17 18  1  0  0  0
 17 99  1  0  0  0
 18 19  2  0  0  0
 18100  1  0  0  0
 19 20  1  0  0  0
 19 24  1  0  0  0
 20 21  2  0  0  0
 20101  1  0  0  0
 21 23  1  0  0  0
 22 28  1  0  0  0
 22 32  2  0  0  0
 26 27  1  0  0  0
 28102  1  0  0  0
 28103  1  0  0  0
 29104  1  0  0  0
 29105  1  0  0  0
 33 34  1  0  0  0
 33 66  1  0  0  0
 33 70  2  0  0  0
 34 36  1  0  0  0
 34 59  1  0  0  0
 34106  1  0  0  0
 35 44  2  0  0  0
 35 45  1  0  0  0
 35 68  1  0  0  0
 36 56  1  0  0  0
 36107  1  0  0  0
 37 39  1  0  0  0
 37 47  1  0  0  0
 37 66  1  0  0  0
 37108  1  0  0  0
 38 43  2  0  0  0
 38 46  1  0  0  0
 38 47  1  0  0  0
 39 64  1  0  0  0
 39 67  2  0  0  0
 40 52  1  0  0  0
 40 53  2  0  0  0
 40 58  1  0  0  0
 41109  1  0  0  0
 41110  1  0  0  0
 41111  1  0  0  0
 41 48  1  0  0  0
 42 43  1  0  0  0
 42 66  1  0  0  0
 42112  1  0  0  0
 42113  1  0  0  0
 43 44  1  0  0  0
 44114  1  0  0  0
 45 46  2  0  0  0
 45115  1  0  0  0
 46116  1  0  0  0
 47117  1  0  0  0
 47118  1  0  0  0
 48 56  1  0  0  0
 48 65  1  0  0  0
 48119  1  0  0  0
 49 50  1  0  0  0
 49 53  1  0  0  0
 49 64  1  0  0  0
 49120  1  0  0  0
 50 51  1  0  0  0
 50121  1  0  0  0
 50122  1  0  0  0
 51 52  1  0  0  0
 51123  1  0  0  0
 51124  1  0  0  0
 52125  1  0  0  0
 52126  1  0  0  0
 53 54  1  0  0  0
 54 55  2  0  0  0
 54127  1  0  0  0
 55 57  1  0  0  0
 55128  1  0  0  0
 56 69  2  0  0  0
 57 58  2  0  0  0
 57129  1  0  0  0
 58130  1  0  0  0
 59 60  1  0  0  0
 59 61  1  0  0  0
 59 62  1  0  0  0
 60131  1  0  0  0
 60132  1  0  0  0
 60133  1  0  0  0
 61134  1  0  0  0
 61135  1  0  0  0
 61136  1  0  0  0
 62137  1  0  0  0
 62138  1  0  0  0
 62139  1  0  0  0
 63 65  1  0  0  0
 63140  1  0  0  0
 63141  1  0  0  0
 63142  1  0  0  0
 64143  1  0  0  0
 65144  1  0  0  0
 68 82  1  0  0  0
 71 72  2  0  0  0
 71 74  1  0  0  0
 71145  1  0  0  0
 72 75  1  0  0  0
 72146  1  0  0  0
 73 74  2  0  0  0
 73 84  1  0  0  0
 73147  1  0  0  0
 74 79  1  0  0  0
 75 83  1  0  0  0
 75 84  2  0  0  0
 76 77  1  0  0  0
 76 79  1  0  0  0
 76148  1  0  0  0
 76149  1  0  0  0
 77 85  1  0  0  0
 77150  1  0  0  0
 77151  1  0  0  0
 78 79  1  0  0  0
 78 85  1  0  0  0
 78152  1  0  0  0
 78153  1  0  0  0
 79154  1  0  0  0
 80155  1  0  0  0
 80156  1  0  0  0
 80157  1  0  0  0
 80 83  1  0  0  0
 81 83  1  0  0  0
 81158  1  0  0  0
 81159  1  0  0  0
 81160  1  0  0  0
 82 83  1  0  0  0
 82161  1  0  0  0
 82162  1  0  0  0
M  ISO  4   1 100  68 101  82 101  85 100
M  END
> <chiral flag>
0

> <version>
0

> <s_m_source_file>
/data/baiqing/PycharmProjects/Reinvent-master-3.2/result/LINK_invent/BTK/process_docking_weight1_custom_sum_contain_oxygen_bond_distance_aromatic_linkinvent_7_9_3/rearranged_h_0121.sdf

> <i_m_source_file_index>
53

> <r_mmod_Potential_Energy-OPLS-2005>
165.051025390625

> <r_mmod_Stretch_Energy-OPLS-2005>
87.6245193481445

> <r_mmod_Bend_Energy-OPLS-2005>
187.733856201172

> <r_mmod_Torsional_Energy-OPLS-2005>
329.153778076172

> <r_mmod_Improper_Torsional_Energy-OPLS-2005>
14.0932817459106

> <r_mmod_Van_der_Waal_Energy-OPLS-2005>
148.579971313477

> <r_mmod_Electrostatic_Energy-OPLS-2005>
-462.582763671875

> <r_mmod_Solvation_Energy-OPLS-2005>
-199.051055908203

> <b_mmod_Minimization_Converged-OPLS-2005>
0

> <r_mmod_RMS_Derivative-OPLS-2005>
6.20939588546753

$$$$
53
                    3D
 Structure written by MMmdl.
151159  0  0  1  0            999 V2000
  -30.6308  -14.6771   20.4929 C   0  0  0  0  0  0
  -30.4327  -12.4164   19.4650 C   0  0  0  0  0  0
  -29.5024  -12.4832   18.2355 C   0  0  0  0  0  0
  -28.0302  -12.3121   18.6585 C   0  0  0  0  0  0
  -27.6455  -13.2174   19.8581 C   0  0  2  0  0  0
  -28.6901  -13.1305   20.9914 C   0  0  0  0  0  0
  -25.2533  -13.8182   20.5702 C   0  0  0  0  0  0
  -24.1813  -13.0449   20.9213 C   0  0  0  0  0  0
  -24.6384  -11.6920   20.8787 C   0  0  0  0  0  0
  -23.9066  -10.4300   21.0442 C   0  0  0  0  0  0
  -24.3605   -9.4207   21.9212 C   0  0  0  0  0  0
  -23.6283   -8.2241   22.0765 C   0  0  0  0  0  0
  -22.4275   -8.0275   21.3544 C   0  0  0  0  0  0
  -21.9914   -9.0261   20.4650 C   0  0  0  0  0  0
  -22.7249  -10.2144   20.3078 C   0  0  0  0  0  0
  -21.6850   -6.0739   22.5275 C   0  0  0  0  0  0
  -21.4013   -6.5638   23.8208 C   0  0  0  0  0  0
  -21.3656   -5.6792   24.9165 C   0  0  0  0  0  0
  -21.6039   -4.3058   24.7226 C   0  0  0  0  0  0
  -21.8817   -3.8157   23.4346 C   0  0  0  0  0  0
  -21.9187   -4.6967   22.3400 C   0  0  0  0  0  0
  -22.7837  -13.5231   21.1863 C   0  0  0  0  0  0
  -22.1661   -4.2152   21.0980 F   0  0  0  0  0  0
  -21.5626   -3.4542   25.7741 F   0  0  0  0  0  0
  -29.9954  -13.4657   20.4075 N   0  0  0  0  0  0
  -26.2951  -12.9360   20.3340 N   0  0  0  0  0  0
  -25.9309  -11.6523   20.5814 N   0  0  0  0  0  0
  -22.0484  -12.8213   22.0423 N   0  0  0  0  0  0
  -25.4276  -15.1891   20.4097 N   0  0  0  0  0  0
  -31.8179  -14.7917   20.1771 O   0  0  0  0  0  0
  -21.6631   -6.8885   21.4237 O   0  0  0  0  0  0
  -22.3530  -14.5545   20.6726 O   0  0  0  0  0  0
  -24.6286  -31.8576   23.2031 C   0  0  0  0  0  0
  -25.9138  -32.4759   23.8381 C   0  0  1  0  0  0
  -27.2326  -27.3111   20.1140 C   0  0  0  0  0  0
  -25.5935  -33.8559   24.2296 N   0  0  0  0  0  0
  -23.4224  -30.4840   21.5435 C   0  0  2  0  0  0
  -24.8697  -28.9352   20.1130 C   0  0  0  0  0  0
  -22.7476  -29.4632   22.4889 C   0  0  0  0  0  0
  -18.0291  -28.1394   22.8478 C   0  0  0  0  0  0
  -24.1474  -36.7282   23.2629 C   0  0  0  0  0  0
  -25.9656  -30.7853   21.3771 C   0  0  0  0  0  0
  -26.0393  -29.4126   20.7165 C   0  0  0  0  0  0
  -27.2170  -28.6100   20.7140 C   0  0  0  0  0  0
  -26.0308  -26.8767   19.5068 C   0  0  0  0  0  0
  -24.8665  -27.6704   19.5066 C   0  0  0  0  0  0
  -23.6398  -29.8195   20.1598 C   0  0  0  0  0  0
  -25.4090  -36.3068   24.0332 C   0  0  1  0  0  0
  -20.5900  -28.3712   23.1250 C   0  0  2  0  0  0
  -20.6782  -26.9420   22.5397 C   0  0  0  0  0  0
  -19.5755  -26.6384   21.5205 C   0  0  0  0  0  0
  -18.1920  -26.7941   22.1602 C   0  0  0  0  0  0
  -19.1552  -28.8860   23.2858 C   0  0  0  0  0  0
  -18.9482  -30.1459   23.8871 C   0  0  0  0  0  0
  -17.6487  -30.6585   24.0577 C   0  0  0  0  0  0
  -25.9030  -34.9441   23.5112 C   0  0  0  0  0  0
  -16.5376  -29.9085   23.6352 C   0  0  0  0  0  0
  -16.7287  -28.6518   23.0349 C   0  0  0  0  0  0
  -26.4535  -31.6603   25.0761 C   0  0  0  0  0  0
  -25.3780  -31.3718   26.1500 C   0  0  0  0  0  0
  -27.0438  -30.3034   24.6244 C   0  0  0  0  0  0
  -27.6086  -32.4391   25.7509 C   0  0  0  0  0  0
  -27.5612  -37.1720   24.8411 C   0  0  0  0  0  0
  -21.4188  -29.3058   22.3631 N   0  0  0  0  0  0
  -26.4238  -37.3804   23.9478 N   0  0  0  0  0  0
  -24.6910  -31.0581   22.0970 N   0  0  0  0  0  0
  -23.4192  -28.8158   23.2968 O   0  0  0  0  0  0
  -28.3646  -26.4828   20.1961 O   0  0  0  0  0  0
  -26.5596  -34.8906   22.4671 O   0  0  0  0  0  0
  -23.5453  -32.1405   23.7336 O   0  0  0  0  0  0
  -29.8955  -22.2188   21.4449 C   0  0  0  0  0  0
  -29.5657  -23.5611   21.1008 C   0  0  0  0  0  0
  -28.5492  -21.4788   19.6238 C   0  0  0  0  0  0
  -29.4174  -21.1087   20.6891 C   0  0  0  0  0  0
  -28.7303  -23.8290   19.9942 C   0  0  0  0  0  0
  -28.5273  -25.2673   19.3677 C   0  0  0  0  0  0
  -29.4158  -18.4440   20.4820 C   0  0  0  0  0  0
  -30.3150  -17.2119   20.9775 C   0  0  0  0  0  0
  -28.2284  -22.7705   19.2907 N   0  0  0  0  0  0
  -29.8456  -19.7725   21.0315 N   0  0  0  0  0  0
  -29.8607  -15.7879   20.7557 N   0  0  0  0  0  0
  -31.4720  -12.5417   19.1586 H   0  0  0  0  0  0
  -30.3794  -11.4375   19.9435 H   0  0  0  0  0  0
  -29.7743  -11.7097   17.5163 H   0  0  0  0  0  0
  -29.6281  -13.4391   17.7247 H   0  0  0  0  0  0
  -27.8900  -11.2652   18.9320 H   0  0  0  0  0  0
  -27.3647  -12.4959   17.8136 H   0  0  0  0  0  0
  -27.6506  -14.2394   19.4779 H   0  0  0  0  0  0
  -28.7139  -12.1307   21.4260 H   0  0  0  0  0  0
  -28.4324  -13.8084   21.8071 H   0  0  0  0  0  0
  -25.2741   -9.5672   22.4800 H   0  0  0  0  0  0
  -23.9985   -7.4630   22.7487 H   0  0  0  0  0  0
  -21.0845   -8.8791   19.8954 H   0  0  0  0  0  0
  -22.3714  -10.9687   19.6191 H   0  0  0  0  0  0
  -21.2016   -7.6142   23.9708 H   0  0  0  0  0  0
  -21.1474   -6.0526   25.9065 H   0  0  0  0  0  0
  -22.0601   -2.7623   23.2846 H   0  0  0  0  0  0
  -22.4089  -11.9832   22.4738 H   0  0  0  0  0  0
  -21.1128  -13.1259   22.2689 H   0  0  0  0  0  0
  -24.6649  -15.8487   20.5173 H   0  0  0  0  0  0
  -26.2720  -15.6205   20.0571 H   0  0  0  0  0  0
  -26.7210  -32.5436   23.1132 H   0  0  0  0  0  0
  -25.0148  -33.9715   25.0502 H   0  0  0  0  0  0
  -22.7199  -31.3066   21.3991 H   0  0  0  0  0  0
  -23.3779  -35.9556   23.3143 H   0  0  0  0  0  0
  -24.3610  -36.9076   22.2077 H   0  0  0  0  0  0
  -23.7171  -37.6409   23.6759 H   0  0  0  0  0  0
  -26.1008  -31.5462   20.6078 H   0  0  0  0  0  0
  -26.8442  -30.8334   22.0092 H   0  0  0  0  0  0
  -28.1134  -28.9677   21.2016 H   0  0  0  0  0  0
  -25.9372  -25.8968   19.0683 H   0  0  0  0  0  0
  -23.9607  -27.2861   19.0552 H   0  0  0  0  0  0
  -23.7726  -30.5989   19.4088 H   0  0  0  0  0  0
  -22.7581  -29.2565   19.8488 H   0  0  0  0  0  0
  -25.1245  -36.1873   25.0815 H   0  0  0  0  0  0
  -21.0015  -28.3321   24.1364 H   0  0  0  0  0  0
  -20.5709  -26.2305   23.3601 H   0  0  0  0  0  0
  -21.6638  -26.7437   22.1189 H   0  0  0  0  0  0
  -19.6901  -25.6295   21.1238 H   0  0  0  0  0  0
  -19.6707  -27.3179   20.6718 H   0  0  0  0  0  0
  -17.4208  -26.6721   21.3971 H   0  0  0  0  0  0
  -18.0295  -26.0070   22.8970 H   0  0  0  0  0  0
  -19.7965  -30.7276   24.2223 H   0  0  0  0  0  0
  -17.5048  -31.6262   24.5181 H   0  0  0  0  0  0
  -15.5375  -30.2977   23.7693 H   0  0  0  0  0  0
  -15.8690  -28.0842   22.7057 H   0  0  0  0  0  0
  -24.5930  -30.7091   25.7852 H   0  0  0  0  0  0
  -24.8980  -32.2856   26.5003 H   0  0  0  0  0  0
  -25.8125  -30.8868   27.0247 H   0  0  0  0  0  0
  -26.3046  -29.6685   24.1341 H   0  0  0  0  0  0
  -27.4251  -29.7389   25.4774 H   0  0  0  0  0  0
  -27.8841  -30.4362   23.9424 H   0  0  0  0  0  0
  -27.2713  -33.3734   26.2029 H   0  0  0  0  0  0
  -28.3899  -32.6918   25.0324 H   0  0  0  0  0  0
  -28.0747  -31.8566   26.5473 H   0  0  0  0  0  0
  -28.2406  -38.0226   24.7819 H   0  0  0  0  0  0
  -28.1348  -36.2809   24.5805 H   0  0  0  0  0  0
  -27.2393  -37.0838   25.8799 H   0  0  0  0  0  0
  -20.9363  -29.8811   21.6871 H   0  0  0  0  0  0
  -26.0094  -38.2818   24.1716 H   0  0  0  0  0  0
  -30.5512  -22.0548   22.2894 H   0  0  0  0  0  0
  -29.9940  -24.3802   21.6609 H   0  0  0  0  0  0
  -28.1159  -20.7210   18.9875 H   0  0  0  0  0  0
  -27.8013  -25.2034   18.5611 H   0  0  0  0  0  0
  -29.4572  -25.4469   18.8286 H   0  0  0  0  0  0
  -28.3773  -18.2805   20.7798 H   0  0  0  0  0  0
  -29.4164  -18.4879   19.3908 H   0  0  0  0  0  0
  -30.4206  -17.3015   22.0585 H   0  0  0  0  0  0
  -31.3245  -17.3339   20.5795 H   0  0  0  0  0  0
  -30.5677  -19.7172   21.7481 H   0  0  0  0  0  0
  -28.8785  -15.6083   20.9033 H   0  0  0  0  0  0
  1 25  1  0  0  0
  1 30  2  0  0  0
  1 81  1  0  0  0
  2  3  1  0  0  0
  2 25  1  0  0  0
  2 82  1  0  0  0
  2 83  1  0  0  0
  3  4  1  0  0  0
  3 84  1  0  0  0
  3 85  1  0  0  0
  4  5  1  0  0  0
  4 86  1  0  0  0
  4 87  1  0  0  0
  5  6  1  0  0  0
  5 26  1  0  0  0
  5 88  1  0  0  0
  6 25  1  0  0  0
  6 89  1  0  0  0
  6 90  1  0  0  0
  7  8  2  0  0  0
  7 26  1  0  0  0
  7 29  1  0  0  0
  8  9  1  0  0  0
  8 22  1  0  0  0
  9 10  1  0  0  0
  9 27  2  0  0  0
 10 11  2  0  0  0
 10 15  1  0  0  0
 11 12  1  0  0  0
 11 91  1  0  0  0
 12 13  2  0  0  0
 12 92  1  0  0  0
 13 14  1  0  0  0
 13 31  1  0  0  0
 14 15  2  0  0  0
 14 93  1  0  0  0
 15 94  1  0  0  0
 16 17  2  0  0  0
 16 21  1  0  0  0
 16 31  1  0  0  0
 17 18  1  0  0  0
 17 95  1  0  0  0
 18 19  2  0  0  0
 18 96  1  0  0  0
 19 20  1  0  0  0
 19 24  1  0  0  0
 20 21  2  0  0  0
 20 97  1  0  0  0
 21 23  1  0  0  0
 22 28  1  0  0  0
 22 32  2  0  0  0
 26 27  1  0  0  0
 28 98  1  0  0  0
 28 99  1  0  0  0
 29100  1  0  0  0
 29101  1  0  0  0
 33 34  1  0  0  0
 33 66  1  0  0  0
 33 70  2  0  0  0
 34 36  1  0  0  0
 34 59  1  0  0  0
 34102  1  0  0  0
 35 44  2  0  0  0
 35 45  1  0  0  0
 35 68  1  0  0  0
 36 56  1  0  0  0
 36103  1  0  0  0
 37 39  1  0  0  0
 37 47  1  0  0  0
 37 66  1  0  0  0
 37104  1  0  0  0
 38 43  2  0  0  0
 38 46  1  0  0  0
 38 47  1  0  0  0
 39 64  1  0  0  0
 39 67  2  0  0  0
 40 52  1  0  0  0
 40 53  2  0  0  0
 40 58  1  0  0  0
 41105  1  0  0  0
 41106  1  0  0  0
 41107  1  0  0  0
 41 48  1  0  0  0
 42 43  1  0  0  0
 42 66  1  0  0  0
 42108  1  0  0  0
 42109  1  0  0  0
 43 44  1  0  0  0
 44110  1  0  0  0
 45 46  2  0  0  0
 45111  1  0  0  0
 46112  1  0  0  0
 47113  1  0  0  0
 47114  1  0  0  0
 48 56  1  0  0  0
 48 65  1  0  0  0
 48115  1  0  0  0
 49 50  1  0  0  0
 49 53  1  0  0  0
 49 64  1  0  0  0
 49116  1  0  0  0
 50 51  1  0  0  0
 50117  1  0  0  0
 50118  1  0  0  0
 51 52  1  0  0  0
 51119  1  0  0  0
 51120  1  0  0  0
 52121  1  0  0  0
 52122  1  0  0  0
 53 54  1  0  0  0
 54 55  2  0  0  0
 54123  1  0  0  0
 55 57  1  0  0  0
 55124  1  0  0  0
 56 69  2  0  0  0
 57 58  2  0  0  0
 57125  1  0  0  0
 58126  1  0  0  0
 59 60  1  0  0  0
 59 61  1  0  0  0
 59 62  1  0  0  0
 60127  1  0  0  0
 60128  1  0  0  0
 60129  1  0  0  0
 61130  1  0  0  0
 61131  1  0  0  0
 61132  1  0  0  0
 62133  1  0  0  0
 62134  1  0  0  0
 62135  1  0  0  0
 63 65  1  0  0  0
 63136  1  0  0  0
 63137  1  0  0  0
 63138  1  0  0  0
 64139  1  0  0  0
 65140  1  0  0  0
 68 76  1  0  0  0
 71 72  2  0  0  0
 71 74  1  0  0  0
 71141  1  0  0  0
 72 75  1  0  0  0
 72142  1  0  0  0
 73 74  2  0  0  0
 73 79  1  0  0  0
 73143  1  0  0  0
 74 80  1  0  0  0
 75 76  1  0  0  0
 75 79  2  0  0  0
 76144  1  0  0  0
 76145  1  0  0  0
 77 78  1  0  0  0
 77 80  1  0  0  0
 77146  1  0  0  0
 77147  1  0  0  0
 78 81  1  0  0  0
 78148  1  0  0  0
 78149  1  0  0  0
 80150  1  0  0  0
 81151  1  0  0  0
M  ISO  4   1 100  68 101  76 101  81 100
M  END
> <chiral flag>
0

> <version>
0

> <s_m_source_file>
/data/baiqing/PycharmProjects/Reinvent-master-3.2/result/LINK_invent/BTK/process_docking_weight1_custom_sum_contain_oxygen_bond_distance_aromatic_linkinvent_7_9_3/rearranged_h_0121.sdf

> <i_m_source_file_index>
54

> <r_mmod_Potential_Energy-OPLS-2005>
-26.3264942169189

> <r_mmod_Stretch_Energy-OPLS-2005>
83.3218994140625

> <r_mmod_Bend_Energy-OPLS-2005>
169.710510253906

> <r_mmod_Torsional_Energy-OPLS-2005>
200.112640380859

> <r_mmod_Improper_Torsional_Energy-OPLS-2005>
5.22166347503662

> <r_mmod_Van_der_Waal_Energy-OPLS-2005>
143.583999633789

> <r_mmod_Electrostatic_Energy-OPLS-2005>
-451.024017333984

> <r_mmod_Solvation_Energy-OPLS-2005>
-237.070678710938

> <b_mmod_Minimization_Converged-OPLS-2005>
0

> <r_mmod_RMS_Derivative-OPLS-2005>
3.18300986289978

$$$$
54
                    3D
 Structure written by MMmdl.
171179  0  0  1  0            999 V2000
  -30.3190  -14.8319   19.8284 C   0  0  0  0  0  0
  -31.1331  -12.5973   19.2248 C   0  0  0  0  0  0
  -30.1624  -12.2838   18.1123 C   0  0  0  0  0  0
  -28.9356  -11.8355   18.8765 C   0  0  0  0  0  0
  -28.3083  -12.8621   20.0994 C   0  0  2  0  0  0
  -29.6040  -12.9316   20.9696 C   0  0  0  0  0  0
  -24.9715  -14.0189   20.5730 C   0  0  0  0  0  0
  -23.8676  -13.2263   20.8300 C   0  0  0  0  0  0
  -24.2743  -11.9130   20.9056 C   0  0  0  0  0  0
  -23.7290  -10.5426   21.0642 C   0  0  0  0  0  0
  -24.2265   -9.5561   21.9627 C   0  0  0  0  0  0
  -23.5865   -8.3019   22.0892 C   0  0  0  0  0  0
  -22.4183   -8.0301   21.3349 C   0  0  0  0  0  0
  -21.9592   -8.9934   20.4206 C   0  0  0  0  0  0
  -22.6178  -10.2224   20.2709 C   0  0  0  0  0  0
  -21.6998   -6.0666   22.5200 C   0  0  0  0  0  0
  -21.4101   -6.5627   23.8111 C   0  0  0  0  0  0
  -21.3676   -5.6823   24.9129 C   0  0  0  0  0  0
  -21.6030   -4.3074   24.7225 C   0  0  0  0  0  0
  -21.8835   -3.8097   23.4390 C   0  0  0  0  0  0
  -21.9269   -4.6874   22.3414 C   0  0  0  0  0  0
  -22.4973  -13.6595   21.1050 C   0  0  0  0  0  0
  -22.1707   -4.2024   21.1008 F   0  0  0  0  0  0
  -21.5616   -3.4582   25.7761 F   0  0  0  0  0  0
  -30.4754  -13.5379   20.1199 N   0  0  0  0  0  0
  -26.1204  -13.1947   20.7079 N   0  0  0  0  0  0
  -25.3275  -12.2804   21.4483 N   0  0  0  0  0  0
  -21.8255  -12.9326   21.9895 N   0  0  0  0  0  0
  -24.9604  -15.3720   20.2675 N   0  0  0  0  0  0
  -31.4012  -15.4185   19.8198 O   0  0  0  0  0  0
  -21.6880   -6.8678   21.4067 O   0  0  0  0  0  0
  -22.0716  -14.6919   20.6124 O   0  0  0  0  0  0
  -24.6663  -31.8250   23.1694 C   0  0  0  0  0  0
  -25.9379  -32.4589   23.8147 C   0  0  1  0  0  0
  -27.1209  -26.9390   20.1917 C   0  0  0  0  0  0
  -25.6007  -33.8391   24.2075 N   0  0  0  0  0  0
  -23.4740  -30.4436   21.5232 C   0  0  2  0  0  0
  -24.8988  -28.8410   20.0992 C   0  0  0  0  0  0
  -22.7690  -29.4457   22.4815 C   0  0  0  0  0  0
  -18.0304  -28.1405   22.8457 C   0  0  0  0  0  0
  -24.1491  -36.7221   23.2647 C   0  0  0  0  0  0
  -26.0398  -30.6344   21.3905 C   0  0  0  0  0  0
  -26.0852  -29.2310   20.7330 C   0  0  0  0  0  0
  -27.2036  -28.2970   20.7519 C   0  0  0  0  0  0
  -25.9427  -26.7166   19.4499 C   0  0  0  0  0  0
  -24.8525  -27.6118   19.4275 C   0  0  0  0  0  0
  -23.6960  -29.7712   20.1418 C   0  0  0  0  0  0
  -25.4130  -36.2971   24.0303 C   0  0  1  0  0  0
  -20.5935  -28.3750   23.1193 C   0  0  2  0  0  0
  -20.6795  -26.9445   22.5398 C   0  0  0  0  0  0
  -19.5774  -26.6389   21.5208 C   0  0  0  0  0  0
  -18.1948  -26.7938   22.1609 C   0  0  0  0  0  0
  -19.1565  -28.8906   23.2800 C   0  0  0  0  0  0
  -18.9485  -30.1491   23.8855 C   0  0  0  0  0  0
  -17.6483  -30.6604   24.0554 C   0  0  0  0  0  0
  -25.9102  -34.9348   23.4995 C   0  0  0  0  0  0
  -16.5371  -29.9106   23.6331 C   0  0  0  0  0  0
  -16.7292  -28.6512   23.0372 C   0  0  0  0  0  0
  -26.4576  -31.6523   25.0686 C   0  0  0  0  0  0
  -25.3699  -31.3764   26.1356 C   0  0  0  0  0  0
  -27.0477  -30.2896   24.6392 C   0  0  0  0  0  0
  -27.6072  -32.4325   25.7495 C   0  0  0  0  0  0
  -27.5566  -37.1760   24.8468 C   0  0  0  0  0  0
  -21.4367  -29.3037   22.3579 N   0  0  0  0  0  0
  -26.4278  -37.3717   23.9407 N   0  0  0  0  0  0
  -24.7496  -30.9963   22.0791 N   0  0  0  0  0  0
  -23.4238  -28.8015   23.3058 O   0  0  0  0  0  0
  -28.0364  -25.7958   20.3603 O   0  0  0  0  0  0
  -26.5726  -34.8885   22.4595 O   0  0  0  0  0  0
  -23.5730  -32.1197   23.6804 O   0  0  0  0  0  0
  -27.6556  -12.9948   22.4245 C   0  0  0  0  0  0
  -27.3576  -11.1377   21.2354 C   0  0  0  0  0  0
  -26.6235  -13.0711   18.4576 C   0  0  0  0  0  0
  -27.4619  -14.8933   19.4400 C   0  0  1  0  0  0
  -27.6518  -14.9060   21.3875 C   0  0  2  0  0  0
  -28.3977  -19.7363   22.8739 C   0  0  0  0  0  0
  -29.7925  -22.6149   20.4718 C   0  0  0  0  0  0
  -27.6853  -21.0201   20.6894 C   0  0  0  0  0  0
  -27.6571  -17.8454   21.1510 C   0  0  0  0  0  0
  -27.5973  -24.2278   20.2481 C   0  0  0  0  0  0
  -28.2704  -19.4882   21.3638 C   0  0  2  0  0  0
  -28.2819  -22.6870   20.8282 C   0  0  2  0  0  0
  -29.0518  -15.3016   19.2816 N   0  0  0  0  0  0
  -26.6173  -11.3346   19.4220 N   0  3  0  0  0  0
  -28.1660  -16.4152   21.8056 N   0  3  0  0  0  0
  -32.0482  -13.0351   18.8172 H   0  0  0  0  0  0
  -31.4531  -11.6922   19.7449 H   0  0  0  0  0  0
  -30.5547  -11.4884   17.4761 H   0  0  0  0  0  0
  -29.9779  -13.1433   17.4653 H   0  0  0  0  0  0
  -29.2322  -10.8853   19.3225 H   0  0  0  0  0  0
  -28.3731  -11.5015   17.9999 H   0  0  0  0  0  0
  -28.5975  -13.1761   19.1463 H   0  0  0  0  0  0
  -29.9698  -11.9632   21.3185 H   0  0  0  0  0  0
  -29.7541  -13.6136   21.8139 H   0  0  0  0  0  0
  -25.0464   -9.7749   22.6282 H   0  0  0  0  0  0
  -23.9669   -7.5789   22.7955 H   0  0  0  0  0  0
  -21.0835   -8.7894   19.8248 H   0  0  0  0  0  0
  -22.2325  -10.9457   19.5656 H   0  0  0  0  0  0
  -21.2095   -7.6145   23.9565 H   0  0  0  0  0  0
  -21.1444   -6.0592   25.9021 H   0  0  0  0  0  0
  -22.0578   -2.7513   23.2942 H   0  0  0  0  0  0
  -22.2374  -12.1187   22.4152 H   0  0  0  0  0  0
  -20.8833  -13.1991   22.2482 H   0  0  0  0  0  0
  -24.0593  -15.8345   20.1898 H   0  0  0  0  0  0
  -25.7101  -15.9335   19.8954 H   0  0  0  0  0  0
  -26.7467  -32.5058   23.0859 H   0  0  0  0  0  0
  -25.0093  -33.9451   25.0187 H   0  0  0  0  0  0
  -22.7888  -31.2740   21.3632 H   0  0  0  0  0  0
  -23.3755  -35.9548   23.3280 H   0  0  0  0  0  0
  -24.3572  -36.8897   22.2069 H   0  0  0  0  0  0
  -23.7242  -37.6396   23.6717 H   0  0  0  0  0  0
  -26.2291  -31.3736   20.6103 H   0  0  0  0  0  0
  -26.9043  -30.6709   22.0413 H   0  0  0  0  0  0
  -28.1084  -28.5692   21.2752 H   0  0  0  0  0  0
  -25.8134  -25.7885   18.9125 H   0  0  0  0  0  0
  -23.9578  -27.3359   18.8833 H   0  0  0  0  0  0
  -23.8586  -30.5400   19.3871 H   0  0  0  0  0  0
  -22.7982  -29.2326   19.8276 H   0  0  0  0  0  0
  -25.1316  -36.1778   25.0799 H   0  0  0  0  0  0
  -20.9972  -28.3337   24.1332 H   0  0  0  0  0  0
  -20.5675  -26.2369   23.3628 H   0  0  0  0  0  0
  -21.6656  -26.7433   22.1199 H   0  0  0  0  0  0
  -19.6938  -25.6293   21.1261 H   0  0  0  0  0  0
  -19.6704  -27.3173   20.6715 H   0  0  0  0  0  0
  -17.4216  -26.6661   21.4023 H   0  0  0  0  0  0
  -18.0355  -26.0097   22.9017 H   0  0  0  0  0  0
  -19.7968  -30.7303   24.2220 H   0  0  0  0  0  0
  -17.5045  -31.6276   24.5173 H   0  0  0  0  0  0
  -15.5375  -30.3003   23.7696 H   0  0  0  0  0  0
  -15.8676  -28.0827   22.7132 H   0  0  0  0  0  0
  -24.5893  -30.7109   25.7646 H   0  0  0  0  0  0
  -24.8891  -32.2975   26.4678 H   0  0  0  0  0  0
  -25.7949  -30.8989   27.0210 H   0  0  0  0  0  0
  -26.3136  -29.6575   24.1398 H   0  0  0  0  0  0
  -27.4029  -29.7255   25.5032 H   0  0  0  0  0  0
  -27.9064  -30.4101   23.9783 H   0  0  0  0  0  0
  -27.2646  -33.3666   26.1965 H   0  0  0  0  0  0
  -28.3943  -32.6831   25.0366 H   0  0  0  0  0  0
  -28.0691  -31.8533   26.5511 H   0  0  0  0  0  0
  -28.2568  -38.0068   24.7517 H   0  0  0  0  0  0
  -28.1070  -36.2596   24.6290 H   0  0  0  0  0  0
  -27.2283  -37.1404   25.8871 H   0  0  0  0  0  0
  -20.9668  -29.8732   21.6696 H   0  0  0  0  0  0
  -26.0124  -38.2770   24.1427 H   0  0  0  0  0  0
  -28.4480  -12.8731   23.1628 H   0  0  0  0  0  0
  -26.8459  -13.0708   23.1579 H   0  0  0  0  0  0
  -26.8093  -10.3910   21.8046 H   0  0  0  0  0  0
  -28.2936  -10.5845   21.1856 H   0  0  0  0  0  0
  -27.0438  -12.9824   17.4502 H   0  0  0  0  0  0
  -25.5839  -13.2714   18.1924 H   0  0  0  0  0  0
  -26.9816  -15.7789   19.0199 H   0  0  0  0  0  0
  -26.7292  -15.2389   21.8514 H   0  0  0  0  0  0
  -28.9293  -20.6649   23.0750 H   0  0  0  0  0  0
  -28.9434  -18.9328   23.3688 H   0  0  0  0  0  0
  -27.4111  -19.8091   23.3332 H   0  0  0  0  0  0
  -30.2707  -21.8521   21.0947 H   0  0  0  0  0  0
  -30.2984  -23.5570   20.6982 H   0  0  0  0  0  0
  -30.0038  -22.3622   19.4374 H   0  0  0  0  0  0
  -26.6614  -21.0958   21.0540 H   0  0  0  0  0  0
  -27.5706  -20.8279   19.6235 H   0  0  0  0  0  0
  -27.6681  -17.6894   20.0684 H   0  0  0  0  0  0
  -26.5965  -17.8887   21.4023 H   0  0  0  0  0  0
  -26.5749  -24.2238   20.6235 H   0  0  0  0  0  0
  -27.4814  -24.0867   19.1655 H   0  0  0  0  0  0
  -29.2918  -19.4162   20.9895 H   0  0  0  0  0  0
  -28.2706  -22.8374   21.9082 H   0  0  0  0  0  0
  -29.1707  -16.1868   18.8131 H   0  0  0  0  0  0
  -25.6494  -11.0751   19.5141 H   0  0  0  0  0  0
  -27.0294  -10.6326   18.8298 H   0  0  0  0  0  0
  -29.1674  -16.4260   21.7203 H   0  0  0  0  0  0
  -27.9873  -16.4997   22.7975 H   0  0  0  0  0  0
  1 25  1  0  0  0
  1 30  2  0  0  0
  1 83  1  0  0  0
  2  3  1  0  0  0
  2 25  1  0  0  0
  2 86  1  0  0  0
  2 87  1  0  0  0
  3  4  1  0  0  0
  3 88  1  0  0  0
  3 89  1  0  0  0
  4  5  1  0  0  0
  4 90  1  0  0  0
  4 91  1  0  0  0
  5  6  1  0  0  0
  5 26  1  0  0  0
  5 92  1  0  0  0
  6 25  1  0  0  0
  6 93  1  0  0  0
  6 94  1  0  0  0
  7  8  2  0  0  0
  7 26  1  0  0  0
  7 29  1  0  0  0
  8  9  1  0  0  0
  8 22  1  0  0  0
  9 10  1  0  0  0
  9 27  2  0  0  0
 10 11  2  0  0  0
 10 15  1  0  0  0
 11 12  1  0  0  0
 11 95  1  0  0  0
 12 13  2  0  0  0
 12 96  1  0  0  0
 13 14  1  0  0  0
 13 31  1  0  0  0
 14 15  2  0  0  0
 14 97  1  0  0  0
 15 98  1  0  0  0
 16 17  2  0  0  0
 16 21  1  0  0  0
 16 31  1  0  0  0
 17 18  1  0  0  0
 17 99  1  0  0  0
 18 19  2  0  0  0
 18100  1  0  0  0
 19 20  1  0  0  0
 19 24  1  0  0  0
 20 21  2  0  0  0
 20101  1  0  0  0
 21 23  1  0  0  0
 22 28  1  0  0  0
 22 32  2  0  0  0
 26 27  1  0  0  0
 28102  1  0  0  0
 28103  1  0  0  0
 29104  1  0  0  0
 29105  1  0  0  0
 33 34  1  0  0  0
 33 66  1  0  0  0
 33 70  2  0  0  0
 34 36  1  0  0  0
 34 59  1  0  0  0
 34106  1  0  0  0
 35 44  2  0  0  0
 35 45  1  0  0  0
 35 68  1  0  0  0
 36 56  1  0  0  0
 36107  1  0  0  0
 37 39  1  0  0  0
 37 47  1  0  0  0
 37 66  1  0  0  0
 37108  1  0  0  0
 38 43  2  0  0  0
 38 46  1  0  0  0
 38 47  1  0  0  0
 39 64  1  0  0  0
 39 67  2  0  0  0
 40 52  1  0  0  0
 40 53  2  0  0  0
 40 58  1  0  0  0
 41109  1  0  0  0
 41110  1  0  0  0
 41111  1  0  0  0
 41 48  1  0  0  0
 42 43  1  0  0  0
 42 66  1  0  0  0
 42112  1  0  0  0
 42113  1  0  0  0
 43 44  1  0  0  0
 44114  1  0  0  0
 45 46  2  0  0  0
 45115  1  0  0  0
 46116  1  0  0  0
 47117  1  0  0  0
 47118  1  0  0  0
 48 56  1  0  0  0
 48 65  1  0  0  0
 48119  1  0  0  0
 49 50  1  0  0  0
 49 53  1  0  0  0
 49 64  1  0  0  0
 49120  1  0  0  0
 50 51  1  0  0  0
 50121  1  0  0  0
 50122  1  0  0  0
 51 52  1  0  0  0
 51123  1  0  0  0
 51124  1  0  0  0
 52125  1  0  0  0
 52126  1  0  0  0
 53 54  1  0  0  0
 54 55  2  0  0  0
 54127  1  0  0  0
 55 57  1  0  0  0
 55128  1  0  0  0
 56 69  2  0  0  0
 57 58  2  0  0  0
 57129  1  0  0  0
 58130  1  0  0  0
 59 60  1  0  0  0
 59 61  1  0  0  0
 59 62  1  0  0  0
 60131  1  0  0  0
 60132  1  0  0  0
 60133  1  0  0  0
 61134  1  0  0  0
 61135  1  0  0  0
 61136  1  0  0  0
 62137  1  0  0  0
 62138  1  0  0  0
 62139  1  0  0  0
 63 65  1  0  0  0
 63140  1  0  0  0
 63141  1  0  0  0
 63142  1  0  0  0
 64143  1  0  0  0
 65144  1  0  0  0
 68 80  1  0  0  0
 71 72  1  0  0  0
 71 75  1  0  0  0
 71145  1  0  0  0
 71146  1  0  0  0
 72 84  1  0  0  0
 72147  1  0  0  0
 72148  1  0  0  0
 73 74  1  0  0  0
 73 84  1  0  0  0
 73149  1  0  0  0
 73150  1  0  0  0
 74 75  1  0  0  0
 74 83  1  0  0  0
 74151  1  0  0  0
 75 85  1  0  0  0
 75152  1  0  0  0
 76153  1  0  0  0
 76154  1  0  0  0
 76155  1  0  0  0
 76 81  1  0  0  0
 77156  1  0  0  0
 77157  1  0  0  0
 77158  1  0  0  0
 77 82  1  0  0  0
 78 81  1  0  0  0
 78 82  1  0  0  0
 78159  1  0  0  0
 78160  1  0  0  0
 79 81  1  0  0  0
 79 85  1  0  0  0
 79161  1  0  0  0
 79162  1  0  0  0
 80 82  1  0  0  0
 80163  1  0  0  0
 80164  1  0  0  0
 81165  1  0  0  0
 82166  1  0  0  0
 83167  1  0  0  0
 84168  1  0  0  0
 84169  1  0  0  0
 85170  1  0  0  0
 85171  1  0  0  0
M  CHG  2  84   1  85   1
M  ISO  4   1 100  68 101  80 101  83 100
M  END
> <chiral flag>
0

> <version>
0

> <s_m_source_file>
/data/baiqing/PycharmProjects/Reinvent-master-3.2/result/LINK_invent/BTK/process_docking_weight1_custom_sum_contain_oxygen_bond_distance_aromatic_linkinvent_7_9_3/rearranged_h_0121.sdf

> <i_m_source_file_index>
55

> <r_mmod_Potential_Energy-OPLS-2005>
8147.45166015625

> <r_mmod_Stretch_Energy-OPLS-2005>
4212.74853515625

> <r_mmod_Bend_Energy-OPLS-2005>
1019.62310791016

> <r_mmod_Torsional_Energy-OPLS-2005>
566.823608398438

> <r_mmod_Improper_Torsional_Energy-OPLS-2005>
17.0808410644531

> <r_mmod_Van_der_Waal_Energy-OPLS-2005>
2206.25219726562

> <r_mmod_Electrostatic_Energy-OPLS-2005>
-74.5072784423828

> <r_mmod_Solvation_Energy-OPLS-2005>
-914.411499023438

> <b_mmod_Minimization_Converged-OPLS-2005>
0

> <r_mmod_RMS_Derivative-OPLS-2005>
12.3144025802612

$$$$
55
                    3D
 Structure written by MMmdl.
171180  0  0  1  0            999 V2000
  -30.6684  -14.5687   20.4352 C   0  0  0  0  0  0
  -30.4240  -12.3226   19.4431 C   0  0  0  0  0  0
  -29.4954  -12.4065   18.2126 C   0  0  0  0  0  0
  -28.0138  -12.2949   18.6324 C   0  0  0  0  0  0
  -27.6404  -13.1838   19.8490 C   0  0  2  0  0  0
  -28.6959  -13.0906   20.9731 C   0  0  0  0  0  0
  -25.2557  -13.8088   20.5711 C   0  0  0  0  0  0
  -24.1802  -13.0401   20.9223 C   0  0  0  0  0  0
  -24.6338  -11.6862   20.8800 C   0  0  0  0  0  0
  -23.9019  -10.4261   21.0451 C   0  0  0  0  0  0
  -24.3579   -9.4170   21.9211 C   0  0  0  0  0  0
  -23.6256   -8.2206   22.0762 C   0  0  0  0  0  0
  -22.4239   -8.0269   21.3546 C   0  0  0  0  0  0
  -21.9881   -9.0244   20.4646 C   0  0  0  0  0  0
  -22.7213  -10.2119   20.3071 C   0  0  0  0  0  0
  -21.6823   -6.0730   22.5274 C   0  0  0  0  0  0
  -21.3990   -6.5636   23.8212 C   0  0  0  0  0  0
  -21.3659   -5.6795   24.9175 C   0  0  0  0  0  0
  -21.6049   -4.3057   24.7231 C   0  0  0  0  0  0
  -21.8814   -3.8148   23.4347 C   0  0  0  0  0  0
  -21.9179   -4.6960   22.3401 C   0  0  0  0  0  0
  -22.7837  -13.5232   21.1870 C   0  0  0  0  0  0
  -22.1646   -4.2149   21.0975 F   0  0  0  0  0  0
  -21.5641   -3.4542   25.7747 F   0  0  0  0  0  0
  -30.0097  -13.3759   20.3813 N   0  0  0  0  0  0
  -26.2926  -12.9186   20.3329 N   0  0  0  0  0  0
  -25.9246  -11.6392   20.5827 N   0  0  0  0  0  0
  -22.0458  -12.8234   22.0412 N   0  0  0  0  0  0
  -25.4324  -15.1799   20.4091 N   0  0  0  0  0  0
  -31.8789  -14.6658   20.2193 O   0  0  0  0  0  0
  -21.6595   -6.8872   21.4241 O   0  0  0  0  0  0
  -22.3552  -14.5555   20.6724 O   0  0  0  0  0  0
  -24.6148  -31.8655   23.2081 C   0  0  0  0  0  0
  -25.9037  -32.4808   23.8382 C   0  0  1  0  0  0
  -27.2428  -27.4189   20.0959 C   0  0  0  0  0  0
  -25.5887  -33.8608   24.2311 N   0  0  0  0  0  0
  -23.4026  -30.4871   21.5487 C   0  0  2  0  0  0
  -24.8504  -28.9475   20.1138 C   0  0  0  0  0  0
  -22.7403  -29.4643   22.4994 C   0  0  0  0  0  0
  -18.0266  -28.1366   22.8499 C   0  0  0  0  0  0
  -24.1479  -36.7311   23.2640 C   0  0  0  0  0  0
  -25.9312  -30.8261   21.3616 C   0  0  0  0  0  0
  -26.0079  -29.4574   20.7127 C   0  0  0  0  0  0
  -27.2007  -28.6975   20.7043 C   0  0  0  0  0  0
  -26.0601  -26.9203   19.5012 C   0  0  0  0  0  0
  -24.8727  -27.6793   19.5062 C   0  0  0  0  0  0
  -23.6106  -29.8139   20.1643 C   0  0  0  0  0  0
  -25.4101  -36.3109   24.0339 C   0  0  1  0  0  0
  -20.5852  -28.3653   23.1319 C   0  0  2  0  0  0
  -20.6744  -26.9386   22.5417 C   0  0  0  0  0  0
  -19.5725  -26.6377   21.5208 C   0  0  0  0  0  0
  -18.1904  -26.7914   22.1623 C   0  0  0  0  0  0
  -19.1514  -28.8828   23.2905 C   0  0  0  0  0  0
  -18.9443  -30.1436   23.8910 C   0  0  0  0  0  0
  -17.6447  -30.6576   24.0565 C   0  0  0  0  0  0
  -25.9028  -34.9472   23.5125 C   0  0  0  0  0  0
  -16.5339  -29.9078   23.6330 C   0  0  0  0  0  0
  -16.7256  -28.6493   23.0353 C   0  0  0  0  0  0
  -26.4468  -31.6603   25.0718 C   0  0  0  0  0  0
  -25.3740  -31.3694   26.1474 C   0  0  0  0  0  0
  -27.0313  -30.3057   24.6096 C   0  0  0  0  0  0
  -27.6034  -32.4343   25.7478 C   0  0  0  0  0  0
  -27.5575  -37.1804   24.8464 C   0  0  0  0  0  0
  -21.4129  -29.3028   22.3740 N   0  0  0  0  0  0
  -26.4285  -37.3796   23.9419 N   0  0  0  0  0  0
  -24.6677  -31.0747   22.0982 N   0  0  0  0  0  0
  -23.4179  -28.8187   23.3033 O   0  0  0  0  0  0
  -28.4354  -26.7166   20.1265 O   0  0  0  0  0  0
  -26.5602  -34.8923   22.4693 O   0  0  0  0  0  0
  -23.5344  -32.1413   23.7482 O   0  0  0  0  0  0
  -28.8076  -23.9559   21.2973 C   0  0  0  0  0  0
  -28.1306  -21.9108   19.6106 C   0  0  0  0  0  0
  -28.7576  -22.6393   21.8272 C   0  0  0  0  0  0
  -28.4089  -21.5691   20.9528 C   0  0  0  0  0  0
  -28.5068  -24.1865   19.9399 C   0  0  0  0  0  0
  -31.1839  -17.9273   20.5857 C   0  0  0  0  0  0
  -30.3635  -19.2241   20.4474 C   0  0  0  0  0  0
  -29.0002  -17.7469   21.6876 C   0  0  0  0  0  0
  -30.2289  -16.9035   21.2420 C   0  0  1  0  0  0
  -30.4241  -22.9996   23.7186 C   0  0  0  0  0  0
  -29.2661  -16.0712   19.1498 C   0  0  0  0  0  0
  -28.1794  -20.0979   21.3905 C   0  0  0  0  0  0
  -28.6516  -25.5708   19.2801 C   0  0  0  0  0  0
  -29.0483  -22.4385   23.3146 C   0  0  1  0  0  0
  -28.1778  -23.1677   19.1170 N   0  0  0  0  0  0
  -29.8873  -15.6934   20.4384 N   0  0  0  0  0  0
  -29.3644  -19.1862   21.5368 N   0  3  2  0  0  0
  -27.9614  -23.0283   24.1083 N   0  3  0  0  0  0
  -31.4676  -12.4206   19.1387 H   0  0  0  0  0  0
  -30.3382  -11.3448   19.9202 H   0  0  0  0  0  0
  -29.7361  -11.5993   17.5193 H   0  0  0  0  0  0
  -29.6708  -13.3234   17.6541 H   0  0  0  0  0  0
  -27.8316  -11.2496   18.8815 H   0  0  0  0  0  0
  -27.3620  -12.5175   17.7866 H   0  0  0  0  0  0
  -27.6181  -14.1950   19.4707 H   0  0  0  0  0  0
  -28.6959  -12.0971   21.4232 H   0  0  0  0  0  0
  -28.4652  -13.7919   21.7768 H   0  0  0  0  0  0
  -25.2725   -9.5629   22.4786 H   0  0  0  0  0  0
  -23.9960   -7.4586   22.7474 H   0  0  0  0  0  0
  -21.0817   -8.8778   19.8940 H   0  0  0  0  0  0
  -22.3704  -10.9664   19.6174 H   0  0  0  0  0  0
  -21.1966   -7.6144   23.9720 H   0  0  0  0  0  0
  -21.1493   -6.0519   25.9080 H   0  0  0  0  0  0
  -22.0595   -2.7610   23.2843 H   0  0  0  0  0  0
  -22.4041  -11.9863   22.4765 H   0  0  0  0  0  0
  -21.1088  -13.1288   22.2643 H   0  0  0  0  0  0
  -24.6656  -15.8366   20.5044 H   0  0  0  0  0  0
  -26.2822  -15.6045   20.0641 H   0  0  0  0  0  0
  -26.7103  -32.5510   23.1142 H   0  0  0  0  0  0
  -25.0038  -33.9767   25.0459 H   0  0  0  0  0  0
  -22.6912  -31.3036   21.4075 H   0  0  0  0  0  0
  -23.3742  -35.9640   23.3298 H   0  0  0  0  0  0
  -24.3570  -36.8938   22.2053 H   0  0  0  0  0  0
  -23.7225  -37.6511   23.6658 H   0  0  0  0  0  0
  -26.0406  -31.5883   20.5893 H   0  0  0  0  0  0
  -26.8207  -30.8847   21.9767 H   0  0  0  0  0  0
  -28.0948  -29.0911   21.1671 H   0  0  0  0  0  0
  -26.0298  -25.9419   19.0447 H   0  0  0  0  0  0
  -23.9807  -27.2766   19.0463 H   0  0  0  0  0  0
  -23.7112  -30.5851   19.3995 H   0  0  0  0  0  0
  -22.7349  -29.2293   19.8757 H   0  0  0  0  0  0
  -25.1277  -36.1970   25.0831 H   0  0  0  0  0  0
  -20.9946  -28.3210   24.1439 H   0  0  0  0  0  0
  -20.5622  -26.2262   23.3606 H   0  0  0  0  0  0
  -21.6617  -26.7401   22.1224 H   0  0  0  0  0  0
  -19.6875  -25.6298   21.1215 H   0  0  0  0  0  0
  -19.6657  -27.3204   20.6750 H   0  0  0  0  0  0
  -17.4171  -26.6681   21.4021 H   0  0  0  0  0  0
  -18.0294  -26.0044   22.9003 H   0  0  0  0  0  0
  -19.7915  -30.7248   24.2284 H   0  0  0  0  0  0
  -17.4997  -31.6253   24.5164 H   0  0  0  0  0  0
  -15.5339  -30.2979   23.7639 H   0  0  0  0  0  0
  -15.8656  -28.0812   22.7064 H   0  0  0  0  0  0
  -24.5911  -30.7041   25.7814 H   0  0  0  0  0  0
  -24.8927  -32.2836   26.4956 H   0  0  0  0  0  0
  -25.8110  -30.8843   27.0212 H   0  0  0  0  0  0
  -26.2858  -29.6809   24.1164 H   0  0  0  0  0  0
  -27.4108  -29.7309   25.4554 H   0  0  0  0  0  0
  -27.8673  -30.4399   23.9230 H   0  0  0  0  0  0
  -27.2640  -33.3633   26.2077 H   0  0  0  0  0  0
  -28.3819  -32.6936   25.0289 H   0  0  0  0  0  0
  -28.0728  -31.8462   26.5376 H   0  0  0  0  0  0
  -28.2589  -38.0105   24.7533 H   0  0  0  0  0  0
  -28.1073  -36.2642   24.6262 H   0  0  0  0  0  0
  -27.2293  -37.1426   25.8865 H   0  0  0  0  0  0
  -20.9285  -29.8784   21.6995 H   0  0  0  0  0  0
  -26.0171  -38.2870   24.1433 H   0  0  0  0  0  0
  -29.0879  -24.7988   21.9141 H   0  0  0  0  0  0
  -27.8363  -21.1501   18.9020 H   0  0  0  0  0  0
  -32.0244  -18.1104   21.2569 H   0  0  0  0  0  0
  -31.6165  -17.6005   19.6394 H   0  0  0  0  0  0
  -29.8509  -19.2351   19.4843 H   0  0  0  0  0  0
  -30.9879  -20.1171   20.4981 H   0  0  0  0  0  0
  -28.7204  -17.5289   22.7194 H   0  0  0  0  0  0
  -28.1222  -17.5244   21.0829 H   0  0  0  0  0  0
  -30.7195  -16.5464   22.1509 H   0  0  0  0  0  0
  -31.2126  -22.5772   23.0952 H   0  0  0  0  0  0
  -30.6593  -22.7499   24.7534 H   0  0  0  0  0  0
  -30.4741  -24.0838   23.6223 H   0  0  0  0  0  0
  -29.7067  -16.9566   18.6971 H   0  0  0  0  0  0
  -28.2032  -16.2784   19.2642 H   0  0  0  0  0  0
  -29.3565  -15.3010   18.3886 H   0  0  0  0  0  0
  -27.5094  -19.6551   20.6518 H   0  0  0  0  0  0
  -27.6027  -20.0814   22.3159 H   0  0  0  0  0  0
  -28.0727  -25.6243   18.3581 H   0  0  0  0  0  0
  -29.6879  -25.6360   18.9485 H   0  0  0  0  0  0
  -29.0643  -21.3741   23.5430 H   0  0  0  0  0  0
  -29.8590  -19.4369   22.3796 H   0  0  0  0  0  0
  -27.8967  -24.0143   23.9352 H   0  0  0  0  0  0
  -28.1163  -22.8767   25.0879 H   0  0  0  0  0  0
  -27.0849  -22.6100   23.8555 H   0  0  0  0  0  0
  1 25  1  0  0  0
  1 30  2  0  0  0
  1 86  1  0  0  0
  2  3  1  0  0  0
  2 25  1  0  0  0
  2 89  1  0  0  0
  2 90  1  0  0  0
  3  4  1  0  0  0
  3 91  1  0  0  0
  3 92  1  0  0  0
  4  5  1  0  0  0
  4 93  1  0  0  0
  4 94  1  0  0  0
  5  6  1  0  0  0
  5 26  1  0  0  0
  5 95  1  0  0  0
  6 25  1  0  0  0
  6 96  1  0  0  0
  6 97  1  0  0  0
  7  8  2  0  0  0
  7 26  1  0  0  0
  7 29  1  0  0  0
  8  9  1  0  0  0
  8 22  1  0  0  0
  9 10  1  0  0  0
  9 27  2  0  0  0
 10 11  2  0  0  0
 10 15  1  0  0  0
 11 12  1  0  0  0
 11 98  1  0  0  0
 12 13  2  0  0  0
 12 99  1  0  0  0
 13 14  1  0  0  0
 13 31  1  0  0  0
 14 15  2  0  0  0
 14100  1  0  0  0
 15101  1  0  0  0
 16 17  2  0  0  0
 16 21  1  0  0  0
 16 31  1  0  0  0
 17 18  1  0  0  0
 17102  1  0  0  0
 18 19  2  0  0  0
 18103  1  0  0  0
 19 20  1  0  0  0
 19 24  1  0  0  0
 20 21  2  0  0  0
 20104  1  0  0  0
 21 23  1  0  0  0
 22 28  1  0  0  0
 22 32  2  0  0  0
 26 27  1  0  0  0
 28105  1  0  0  0
 28106  1  0  0  0
 29107  1  0  0  0
 29108  1  0  0  0
 33 34  1  0  0  0
 33 66  1  0  0  0
 33 70  2  0  0  0
 34 36  1  0  0  0
 34 59  1  0  0  0
 34109  1  0  0  0
 35 44  2  0  0  0
 35 45  1  0  0  0
 35 68  1  0  0  0
 36 56  1  0  0  0
 36110  1  0  0  0
 37 39  1  0  0  0
 37 47  1  0  0  0
 37 66  1  0  0  0
 37111  1  0  0  0
 38 43  2  0  0  0
 38 46  1  0  0  0
 38 47  1  0  0  0
 39 64  1  0  0  0
 39 67  2  0  0  0
 40 52  1  0  0  0
 40 53  2  0  0  0
 40 58  1  0  0  0
 41112  1  0  0  0
 41113  1  0  0  0
 41114  1  0  0  0
 41 48  1  0  0  0
 42 43  1  0  0  0
 42 66  1  0  0  0
 42115  1  0  0  0
 42116  1  0  0  0
 43 44  1  0  0  0
 44117  1  0  0  0
 45 46  2  0  0  0
 45118  1  0  0  0
 46119  1  0  0  0
 47120  1  0  0  0
 47121  1  0  0  0
 48 56  1  0  0  0
 48 65  1  0  0  0
 48122  1  0  0  0
 49 50  1  0  0  0
 49 53  1  0  0  0
 49 64  1  0  0  0
 49123  1  0  0  0
 50 51  1  0  0  0
 50124  1  0  0  0
 50125  1  0  0  0
 51 52  1  0  0  0
 51126  1  0  0  0
 51127  1  0  0  0
 52128  1  0  0  0
 52129  1  0  0  0
 53 54  1  0  0  0
 54 55  2  0  0  0
 54130  1  0  0  0
 55 57  1  0  0  0
 55131  1  0  0  0
 56 69  2  0  0  0
 57 58  2  0  0  0
 57132  1  0  0  0
 58133  1  0  0  0
 59 60  1  0  0  0
 59 61  1  0  0  0
 59 62  1  0  0  0
 60134  1  0  0  0
 60135  1  0  0  0
 60136  1  0  0  0
 61137  1  0  0  0
 61138  1  0  0  0
 61139  1  0  0  0
 62140  1  0  0  0
 62141  1  0  0  0
 62142  1  0  0  0
 63 65  1  0  0  0
 63143  1  0  0  0
 63144  1  0  0  0
 63145  1  0  0  0
 64146  1  0  0  0
 65147  1  0  0  0
 68 83  1  0  0  0
 71 73  2  0  0  0
 71 75  1  0  0  0
 71148  1  0  0  0
 72 74  2  0  0  0
 72 85  1  0  0  0
 72149  1  0  0  0
 73 74  1  0  0  0
 73 84  1  0  0  0
 74 82  1  0  0  0
 75 83  1  0  0  0
 75 85  2  0  0  0
 76 77  1  0  0  0
 76 79  1  0  0  0
 76150  1  0  0  0
 76151  1  0  0  0
 77 87  1  0  0  0
 77152  1  0  0  0
 77153  1  0  0  0
 78 79  1  0  0  0
 78 87  1  0  0  0
 78154  1  0  0  0
 78155  1  0  0  0
 79 86  1  0  0  0
 79156  1  0  0  0
 80157  1  0  0  0
 80158  1  0  0  0
 80159  1  0  0  0
 80 84  1  0  0  0
 81 86  1  0  0  0
 81160  1  0  0  0
 81161  1  0  0  0
 81162  1  0  0  0
 82163  1  0  0  0
 82164  1  0  0  0
 82 87  1  0  0  0
 83165  1  0  0  0
 83166  1  0  0  0
 84 88  1  0  0  0
 84167  1  0  0  0
 87168  1  0  0  0
 88169  1  0  0  0
 88170  1  0  0  0
 88171  1  0  0  0
M  CHG  2  87   1  88   1
M  ISO  4   1 100  68 101  83 101  86 100
M  END
> <chiral flag>
0

> <version>
0

> <s_m_source_file>
/data/baiqing/PycharmProjects/Reinvent-master-3.2/result/LINK_invent/BTK/process_docking_weight1_custom_sum_contain_oxygen_bond_distance_aromatic_linkinvent_7_9_3/rearranged_h_0121.sdf

> <i_m_source_file_index>
56

> <r_mmod_Potential_Energy-OPLS-2005>
-321.577545166016

> <r_mmod_Stretch_Energy-OPLS-2005>
49.0517807006836

> <r_mmod_Bend_Energy-OPLS-2005>
147.132080078125

> <r_mmod_Torsional_Energy-OPLS-2005>
371.167083740234

> <r_mmod_Improper_Torsional_Energy-OPLS-2005>
10.8185024261475

> <r_mmod_Van_der_Waal_Energy-OPLS-2005>
151.143035888672

> <r_mmod_Electrostatic_Energy-OPLS-2005>
-75.8947982788086

> <r_mmod_Solvation_Energy-OPLS-2005>
-1007.78668212891

> <b_mmod_Minimization_Converged-OPLS-2005>
0

> <r_mmod_RMS_Derivative-OPLS-2005>
1.15472757816315

$$$$
56
                    3D
 Structure written by MMmdl.
165174  0  0  1  0            999 V2000
  -30.6413  -14.6774   20.5406 C   0  0  0  0  0  0
  -30.4322  -12.4280   19.4652 C   0  0  0  0  0  0
  -29.5125  -12.5418   18.2282 C   0  0  0  0  0  0
  -28.0326  -12.3688   18.6236 C   0  0  0  0  0  0
  -27.6503  -13.2288   19.8576 C   0  0  2  0  0  0
  -28.6904  -13.0852   20.9909 C   0  0  0  0  0  0
  -25.2526  -13.8209   20.5689 C   0  0  0  0  0  0
  -24.1802  -13.0453   20.9199 C   0  0  0  0  0  0
  -24.6391  -11.6935   20.8734 C   0  0  0  0  0  0
  -23.9062  -10.4310   21.0376 C   0  0  0  0  0  0
  -24.3625   -9.4221   21.9124 C   0  0  0  0  0  0
  -23.6311   -8.2258   22.0718 C   0  0  0  0  0  0
  -22.4296   -8.0283   21.3537 C   0  0  0  0  0  0
  -21.9920   -9.0241   20.4621 C   0  0  0  0  0  0
  -22.7245  -10.2123   20.3014 C   0  0  0  0  0  0
  -21.6873   -6.0739   22.5268 C   0  0  0  0  0  0
  -21.4016   -6.5634   23.8209 C   0  0  0  0  0  0
  -21.3657   -5.6787   24.9164 C   0  0  0  0  0  0
  -21.6034   -4.3047   24.7214 C   0  0  0  0  0  0
  -21.8822   -3.8143   23.4337 C   0  0  0  0  0  0
  -21.9201   -4.6966   22.3387 C   0  0  0  0  0  0
  -22.7803  -13.5216   21.1846 C   0  0  0  0  0  0
  -22.1664   -4.2145   21.0965 F   0  0  0  0  0  0
  -21.5639   -3.4518   25.7723 F   0  0  0  0  0  0
  -30.0055  -13.4566   20.4433 N   0  0  0  0  0  0
  -26.2963  -12.9408   20.3263 N   0  0  0  0  0  0
  -25.9322  -11.6557   20.5701 N   0  0  0  0  0  0
  -22.0474  -12.8232   22.0419 N   0  0  0  0  0  0
  -25.4237  -15.1924   20.4135 N   0  0  0  0  0  0
  -31.7569  -14.8333   20.0333 O   0  0  0  0  0  0
  -21.6675   -6.8879   21.4229 O   0  0  0  0  0  0
  -22.3465  -14.5506   20.6677 O   0  0  0  0  0  0
  -24.6289  -31.8568   23.1997 C   0  0  0  0  0  0
  -25.9117  -32.4764   23.8343 C   0  0  1  0  0  0
  -27.2319  -27.2797   20.1422 C   0  0  0  0  0  0
  -25.5918  -33.8571   24.2269 N   0  0  0  0  0  0
  -23.4274  -30.4764   21.5410 C   0  0  2  0  0  0
  -24.8803  -28.9249   20.1097 C   0  0  0  0  0  0
  -22.7497  -29.4593   22.4915 C   0  0  0  0  0  0
  -18.0290  -28.1380   22.8493 C   0  0  0  0  0  0
  -24.1487  -36.7293   23.2641 C   0  0  0  0  0  0
  -25.9718  -30.7743   21.3805 C   0  0  0  0  0  0
  -26.0476  -29.3963   20.7262 C   0  0  0  0  0  0
  -27.2256  -28.5842   20.7380 C   0  0  0  0  0  0
  -26.0525  -26.8812   19.4780 C   0  0  0  0  0  0
  -24.8853  -27.6714   19.4760 C   0  0  0  0  0  0
  -23.6476  -29.8069   20.1577 C   0  0  0  0  0  0
  -25.4112  -36.3082   24.0333 C   0  0  1  0  0  0
  -20.5892  -28.3679   23.1275 C   0  0  2  0  0  0
  -20.6775  -26.9394   22.5410 C   0  0  0  0  0  0
  -19.5747  -26.6367   21.5218 C   0  0  0  0  0  0
  -18.1929  -26.7922   22.1627 C   0  0  0  0  0  0
  -19.1544  -28.8852   23.2876 C   0  0  0  0  0  0
  -18.9464  -30.1452   23.8886 C   0  0  0  0  0  0
  -17.6465  -30.6586   24.0556 C   0  0  0  0  0  0
  -25.9053  -34.9447   23.5094 C   0  0  0  0  0  0
  -16.5357  -29.9071   23.6327 C   0  0  0  0  0  0
  -16.7278  -28.6488   23.0356 C   0  0  0  0  0  0
  -26.4483  -31.6595   25.0739 C   0  0  0  0  0  0
  -25.3703  -31.3763   26.1463 C   0  0  0  0  0  0
  -27.0328  -30.3004   24.6238 C   0  0  0  0  0  0
  -27.6026  -32.4346   25.7519 C   0  0  0  0  0  0
  -27.5584  -37.1804   24.8458 C   0  0  0  0  0  0
  -21.4208  -29.3018   22.3661 N   0  0  0  0  0  0
  -26.4294  -37.3778   23.9407 N   0  0  0  0  0  0
  -24.6946  -31.0538   22.0959 N   0  0  0  0  0  0
  -23.4204  -28.8141   23.3019 O   0  0  0  0  0  0
  -28.3266  -26.3819   20.1698 O   0  0  0  0  0  0
  -26.5623  -34.8920   22.4668 O   0  0  0  0  0  0
  -23.5432  -32.1388   23.7277 O   0  0  0  0  0  0
  -27.7744  -22.4605   21.6976 C   0  0  0  0  0  0
  -28.8844  -22.5853   20.8435 C   0  0  0  0  0  0
  -29.0850  -23.9186   20.2872 C   0  0  0  0  0  0
  -26.9558  -23.5717   21.9714 C   0  0  0  0  0  0
  -28.2003  -25.0251   20.6195 C   0  0  0  0  0  0
  -30.5074  -17.0861   23.0520 C   0  0  0  0  0  0
  -29.9672  -18.4105   22.4848 C   0  0  0  0  0  0
  -29.7465  -15.8759   22.4851 C   0  0  0  0  0  0
  -29.6089  -17.0735   20.3088 C   0  0  0  0  0  0
  -30.0409  -18.4964   20.9465 C   0  0  1  0  0  0
  -30.2547  -24.1730   19.3516 C   0  0  0  0  0  0
  -25.7591  -23.4521   22.8919 C   0  0  0  0  0  0
  -29.8454  -21.3205   20.7159 C   0  0  0  0  0  0
  -29.2686  -19.8330   20.4278 C   0  0  0  0  0  0
  -27.1697  -24.8027   21.4651 N   0  0  0  0  0  0
  -29.9357  -15.7691   21.0345 N   0  0  0  0  0  0
  -31.4755  -12.5462   19.1699 H   0  0  0  0  0  0
  -30.3629  -11.4317   19.9040 H   0  0  0  0  0  0
  -29.7942  -11.8041   17.4768 H   0  0  0  0  0  0
  -29.6496  -13.5159   17.7570 H   0  0  0  0  0  0
  -27.8695  -11.3142   18.8420 H   0  0  0  0  0  0
  -27.3826  -12.6054   17.7783 H   0  0  0  0  0  0
  -27.6657  -14.2683   19.5287 H   0  0  0  0  0  0
  -28.7107  -12.0595   21.3594 H   0  0  0  0  0  0
  -28.4011  -13.7014   21.8416 H   0  0  0  0  0  0
  -25.2773   -9.5717   22.4678 H   0  0  0  0  0  0
  -24.0040   -7.4652   22.7427 H   0  0  0  0  0  0
  -21.0851   -8.8749   19.8930 H   0  0  0  0  0  0
  -22.3695  -10.9638   19.6104 H   0  0  0  0  0  0
  -21.2006   -7.6143   23.9725 H   0  0  0  0  0  0
  -21.1468   -6.0500   25.9078 H   0  0  0  0  0  0
  -22.0608   -2.7604   23.2840 H   0  0  0  0  0  0
  -22.4141  -11.9957   22.4888 H   0  0  0  0  0  0
  -21.1011  -13.1154   22.2500 H   0  0  0  0  0  0
  -24.6694  -15.8574   20.5415 H   0  0  0  0  0  0
  -26.2928  -15.6311   20.1362 H   0  0  0  0  0  0
  -26.7196  -32.5428   23.1101 H   0  0  0  0  0  0
  -25.0067  -33.9717   25.0413 H   0  0  0  0  0  0
  -22.7239  -31.2981   21.3921 H   0  0  0  0  0  0
  -23.3757  -35.9616   23.3291 H   0  0  0  0  0  0
  -24.3581  -36.8926   22.2057 H   0  0  0  0  0  0
  -23.7235  -37.6491   23.6671 H   0  0  0  0  0  0
  -26.1113  -31.5357   20.6114 H   0  0  0  0  0  0
  -26.8482  -30.8232   22.0154 H   0  0  0  0  0  0
  -28.1187  -28.9367   21.2333 H   0  0  0  0  0  0
  -26.0208  -25.9165   18.9919 H   0  0  0  0  0  0
  -23.9947  -27.3033   18.9851 H   0  0  0  0  0  0
  -23.7669  -30.5819   19.3996 H   0  0  0  0  0  0
  -22.7692  -29.2345   19.8547 H   0  0  0  0  0  0
  -25.1298  -36.1929   25.0830 H   0  0  0  0  0  0
  -21.0010  -28.3247   24.1387 H   0  0  0  0  0  0
  -20.5649  -26.2299   23.3618 H   0  0  0  0  0  0
  -21.6644  -26.7394   22.1208 H   0  0  0  0  0  0
  -19.6893  -25.6274   21.1251 H   0  0  0  0  0  0
  -19.6687  -27.3163   20.6740 H   0  0  0  0  0  0
  -17.4207  -26.6692   21.4018 H   0  0  0  0  0  0
  -18.0305  -26.0055   22.9007 H   0  0  0  0  0  0
  -19.7948  -30.7269   24.2247 H   0  0  0  0  0  0
  -17.5019  -31.6262   24.5144 H   0  0  0  0  0  0
  -15.5357  -30.2958   23.7657 H   0  0  0  0  0  0
  -15.8685  -28.0790   22.7075 H   0  0  0  0  0  0
  -24.5857  -30.7135   25.7799 H   0  0  0  0  0  0
  -24.8921  -32.2944   26.4890 H   0  0  0  0  0  0
  -25.8011  -30.8941   27.0248 H   0  0  0  0  0  0
  -26.2923  -29.6765   24.1224 H   0  0  0  0  0  0
  -27.3955  -29.7261   25.4774 H   0  0  0  0  0  0
  -27.8821  -30.4271   23.9523 H   0  0  0  0  0  0
  -27.2619  -33.3651   26.2077 H   0  0  0  0  0  0
  -28.3850  -32.6911   25.0361 H   0  0  0  0  0  0
  -28.0681  -31.8494   26.5462 H   0  0  0  0  0  0
  -28.2584  -38.0119   24.7525 H   0  0  0  0  0  0
  -28.1106  -36.2654   24.6257 H   0  0  0  0  0  0
  -27.2314  -37.1406   25.8864 H   0  0  0  0  0  0
  -20.9395  -29.8789   21.6904 H   0  0  0  0  0  0
  -26.0175  -38.2855   24.1408 H   0  0  0  0  0  0
  -27.5674  -21.5110   22.1735 H   0  0  0  0  0  0
  -30.4144  -17.0881   24.1401 H   0  0  0  0  0  0
  -31.5745  -16.9935   22.8393 H   0  0  0  0  0  0
  -30.5213  -19.2392   22.9277 H   0  0  0  0  0  0
  -28.9325  -18.5317   22.8056 H   0  0  0  0  0  0
  -28.6802  -15.9650   22.6961 H   0  0  0  0  0  0
  -30.0792  -14.9695   22.9980 H   0  0  0  0  0  0
  -29.9816  -17.0109   19.2852 H   0  0  0  0  0  0
  -28.5243  -17.0776   20.2073 H   0  0  0  0  0  0
  -31.0948  -18.6198   20.6903 H   0  0  0  0  0  0
  -31.1992  -23.9424   19.8424 H   0  0  0  0  0  0
  -30.2944  -25.2135   19.0289 H   0  0  0  0  0  0
  -30.1743  -23.5540   18.4576 H   0  0  0  0  0  0
  -25.7270  -22.4858   23.3960 H   0  0  0  0  0  0
  -24.8385  -23.5625   22.3185 H   0  0  0  0  0  0
  -25.7813  -24.2284   23.6586 H   0  0  0  0  0  0
  -30.3772  -21.2823   21.6678 H   0  0  0  0  0  0
  -30.6223  -21.5335   19.9828 H   0  0  0  0  0  0
  -28.2555  -19.7782   20.8249 H   0  0  0  0  0  0
  -29.1375  -19.7530   19.3486 H   0  0  0  0  0  0
  1 25  1  0  0  0
  1 30  2  0  0  0
  1 86  1  0  0  0
  2  3  1  0  0  0
  2 25  1  0  0  0
  2 87  1  0  0  0
  2 88  1  0  0  0
  3  4  1  0  0  0
  3 89  1  0  0  0
  3 90  1  0  0  0
  4  5  1  0  0  0
  4 91  1  0  0  0
  4 92  1  0  0  0
  5  6  1  0  0  0
  5 26  1  0  0  0
  5 93  1  0  0  0
  6 25  1  0  0  0
  6 94  1  0  0  0
  6 95  1  0  0  0
  7  8  2  0  0  0
  7 26  1  0  0  0
  7 29  1  0  0  0
  8  9  1  0  0  0
  8 22  1  0  0  0
  9 10  1  0  0  0
  9 27  2  0  0  0
 10 11  2  0  0  0
 10 15  1  0  0  0
 11 12  1  0  0  0
 11 96  1  0  0  0
 12 13  2  0  0  0
 12 97  1  0  0  0
 13 14  1  0  0  0
 13 31  1  0  0  0
 14 15  2  0  0  0
 14 98  1  0  0  0
 15 99  1  0  0  0
 16 17  2  0  0  0
 16 21  1  0  0  0
 16 31  1  0  0  0
 17 18  1  0  0  0
 17100  1  0  0  0
 18 19  2  0  0  0
 18101  1  0  0  0
 19 20  1  0  0  0
 19 24  1  0  0  0
 20 21  2  0  0  0
 20102  1  0  0  0
 21 23  1  0  0  0
 22 28  1  0  0  0
 22 32  2  0  0  0
 26 27  1  0  0  0
 28103  1  0  0  0
 28104  1  0  0  0
 29105  1  0  0  0
 29106  1  0  0  0
 33 34  1  0  0  0
 33 66  1  0  0  0
 33 70  2  0  0  0
 34 36  1  0  0  0
 34 59  1  0  0  0
 34107  1  0  0  0
 35 44  2  0  0  0
 35 45  1  0  0  0
 35 68  1  0  0  0
 36 56  1  0  0  0
 36108  1  0  0  0
 37 39  1  0  0  0
 37 47  1  0  0  0
 37 66  1  0  0  0
 37109  1  0  0  0
 38 43  2  0  0  0
 38 46  1  0  0  0
 38 47  1  0  0  0
 39 64  1  0  0  0
 39 67  2  0  0  0
 40 52  1  0  0  0
 40 53  2  0  0  0
 40 58  1  0  0  0
 41110  1  0  0  0
 41111  1  0  0  0
 41112  1  0  0  0
 41 48  1  0  0  0
 42 43  1  0  0  0
 42 66  1  0  0  0
 42113  1  0  0  0
 42114  1  0  0  0
 43 44  1  0  0  0
 44115  1  0  0  0
 45 46  2  0  0  0
 45116  1  0  0  0
 46117  1  0  0  0
 47118  1  0  0  0
 47119  1  0  0  0
 48 56  1  0  0  0
 48 65  1  0  0  0
 48120  1  0  0  0
 49 50  1  0  0  0
 49 53  1  0  0  0
 49 64  1  0  0  0
 49121  1  0  0  0
 50 51  1  0  0  0
 50122  1  0  0  0
 50123  1  0  0  0
 51 52  1  0  0  0
 51124  1  0  0  0
 51125  1  0  0  0
 52126  1  0  0  0
 52127  1  0  0  0
 53 54  1  0  0  0
 54 55  2  0  0  0
 54128  1  0  0  0
 55 57  1  0  0  0
 55129  1  0  0  0
 56 69  2  0  0  0
 57 58  2  0  0  0
 57130  1  0  0  0
 58131  1  0  0  0
 59 60  1  0  0  0
 59 61  1  0  0  0
 59 62  1  0  0  0
 60132  1  0  0  0
 60133  1  0  0  0
 60134  1  0  0  0
 61135  1  0  0  0
 61136  1  0  0  0
 61137  1  0  0  0
 62138  1  0  0  0
 62139  1  0  0  0
 62140  1  0  0  0
 63 65  1  0  0  0
 63141  1  0  0  0
 63142  1  0  0  0
 63143  1  0  0  0
 64144  1  0  0  0
 65145  1  0  0  0
 68 75  1  0  0  0
 71 72  2  0  0  0
 71 74  1  0  0  0
 71146  1  0  0  0
 72 73  1  0  0  0
 72 83  1  0  0  0
 73 75  2  0  0  0
 73 81  1  0  0  0
 74 82  1  0  0  0
 74 85  2  0  0  0
 75 85  1  0  0  0
 76 77  1  0  0  0
 76 78  1  0  0  0
 76147  1  0  0  0
 76148  1  0  0  0
 77 80  1  0  0  0
 77149  1  0  0  0
 77150  1  0  0  0
 78 86  1  0  0  0
 78151  1  0  0  0
 78152  1  0  0  0
 79 80  1  0  0  0
 79 86  1  0  0  0
 79153  1  0  0  0
 79154  1  0  0  0
 80 84  1  0  0  0
 80155  1  0  0  0
 81156  1  0  0  0
 81157  1  0  0  0
 81158  1  0  0  0
 82159  1  0  0  0
 82160  1  0  0  0
 82161  1  0  0  0
 83 84  1  0  0  0
 83162  1  0  0  0
 83163  1  0  0  0
 84164  1  0  0  0
 84165  1  0  0  0
M  ISO  4   1 100  68 101  75 101  86 100
M  END
> <chiral flag>
0

> <version>
0

> <s_m_source_file>
/data/baiqing/PycharmProjects/Reinvent-master-3.2/result/LINK_invent/BTK/process_docking_weight1_custom_sum_contain_oxygen_bond_distance_aromatic_linkinvent_7_9_3/rearranged_h_0121.sdf

> <i_m_source_file_index>
57

> <r_mmod_Potential_Energy-OPLS-2005>
197.079299926758

> <r_mmod_Stretch_Energy-OPLS-2005>
121.204689025879

> <r_mmod_Bend_Energy-OPLS-2005>
155.235275268555

> <r_mmod_Torsional_Energy-OPLS-2005>
334.534698486328

> <r_mmod_Improper_Torsional_Energy-OPLS-2005>
5.41106510162354

> <r_mmod_Van_der_Waal_Energy-OPLS-2005>
139.097396850586

> <r_mmod_Electrostatic_Energy-OPLS-2005>
-423.741607666016

> <r_mmod_Solvation_Energy-OPLS-2005>
-198.485961914062

> <b_mmod_Minimization_Converged-OPLS-2005>
0

> <r_mmod_RMS_Derivative-OPLS-2005>
3.5081958770752

$$$$
57
                    3D
 Structure written by MMmdl.
169177  0  0  1  0            999 V2000
  -30.6426  -14.6041   20.5869 C   0  0  0  0  0  0
  -30.4416  -12.3953   19.4406 C   0  0  0  0  0  0
  -29.4999  -12.5279   18.2214 C   0  0  0  0  0  0
  -28.0244  -12.3516   18.6369 C   0  0  0  0  0  0
  -27.6552  -13.1986   19.8820 C   0  0  2  0  0  0
  -28.7061  -13.0064   20.9985 C   0  0  0  0  0  0
  -25.2448  -13.7873   20.5553 C   0  0  0  0  0  0
  -24.1803  -13.0243   20.9314 C   0  0  0  0  0  0
  -24.6402  -11.6748   20.8875 C   0  0  0  0  0  0
  -23.9062  -10.4178   21.0488 C   0  0  0  0  0  0
  -24.3607   -9.4092   21.9240 C   0  0  0  0  0  0
  -23.6263   -8.2149   22.0781 C   0  0  0  0  0  0
  -22.4248   -8.0233   21.3552 C   0  0  0  0  0  0
  -21.9908   -9.0219   20.4656 C   0  0  0  0  0  0
  -22.7257  -10.2074   20.3094 C   0  0  0  0  0  0
  -21.6835   -6.0698   22.5270 C   0  0  0  0  0  0
  -21.3997   -6.5620   23.8200 C   0  0  0  0  0  0
  -21.3660   -5.6789   24.9180 C   0  0  0  0  0  0
  -21.6045   -4.3049   24.7234 C   0  0  0  0  0  0
  -21.8825   -3.8123   23.4358 C   0  0  0  0  0  0
  -21.9202   -4.6929   22.3404 C   0  0  0  0  0  0
  -22.7818  -13.5088   21.1922 C   0  0  0  0  0  0
  -22.1658   -4.2107   21.0980 F   0  0  0  0  0  0
  -21.5660   -3.4540   25.7751 F   0  0  0  0  0  0
  -30.0193  -13.3863   20.4495 N   0  0  0  0  0  0
  -26.2997  -12.9153   20.3428 N   0  0  0  0  0  0
  -25.9346  -11.6335   20.5915 N   0  0  0  0  0  0
  -22.0426  -12.8111   22.0450 N   0  0  0  0  0  0
  -25.3811  -15.1432   20.3227 N   0  0  0  0  0  0
  -31.7709  -14.7807   20.1158 O   0  0  0  0  0  0
  -21.6614   -6.8833   21.4226 O   0  0  0  0  0  0
  -22.3595  -14.5450   20.6791 O   0  0  0  0  0  0
  -24.6161  -31.8644   23.2059 C   0  0  0  0  0  0
  -25.9047  -32.4798   23.8353 C   0  0  1  0  0  0
  -27.2495  -27.3979   20.1091 C   0  0  0  0  0  0
  -25.5916  -33.8605   24.2283 N   0  0  0  0  0  0
  -23.4062  -30.4800   21.5525 C   0  0  2  0  0  0
  -24.8574  -28.9440   20.1159 C   0  0  0  0  0  0
  -22.7447  -29.4584   22.5039 C   0  0  0  0  0  0
  -18.0260  -28.1377   22.8481 C   0  0  0  0  0  0
  -24.1496  -36.7299   23.2637 C   0  0  0  0  0  0
  -25.9372  -30.8210   21.3626 C   0  0  0  0  0  0
  -26.0192  -29.4506   20.7126 C   0  0  0  0  0  0
  -27.2116  -28.6838   20.7083 C   0  0  0  0  0  0
  -26.0666  -26.9197   19.4963 C   0  0  0  0  0  0
  -24.8790  -27.6788   19.5047 C   0  0  0  0  0  0
  -23.6182  -29.8126   20.1666 C   0  0  0  0  0  0
  -25.4120  -36.3101   24.0324 C   0  0  1  0  0  0
  -20.5857  -28.3649   23.1360 C   0  0  2  0  0  0
  -20.6778  -26.9390   22.5456 C   0  0  0  0  0  0
  -19.5749  -26.6377   21.5258 C   0  0  0  0  0  0
  -18.1911  -26.7921   22.1625 C   0  0  0  0  0  0
  -19.1513  -28.8840   23.2889 C   0  0  0  0  0  0
  -18.9439  -30.1456   23.8859 C   0  0  0  0  0  0
  -17.6441  -30.6591   24.0554 C   0  0  0  0  0  0
  -25.9069  -34.9463   23.5098 C   0  0  0  0  0  0
  -16.5335  -29.9090   23.6314 C   0  0  0  0  0  0
  -16.7251  -28.6524   23.0310 C   0  0  0  0  0  0
  -26.4486  -31.6566   25.0662 C   0  0  0  0  0  0
  -25.3747  -31.3636   26.1389 C   0  0  0  0  0  0
  -27.0299  -30.3003   24.5997 C   0  0  0  0  0  0
  -27.6020  -32.4316   25.7451 C   0  0  0  0  0  0
  -27.5575  -37.1806   24.8458 C   0  0  0  0  0  0
  -21.4174  -29.2984   22.3776 N   0  0  0  0  0  0
  -26.4291  -37.3799   23.9421 N   0  0  0  0  0  0
  -24.6717  -31.0713   22.0987 N   0  0  0  0  0  0
  -23.4201  -28.8143   23.3110 O   0  0  0  0  0  0
  -28.4240  -26.6500   20.1431 O   0  0  0  0  0  0
  -26.5646  -34.8920   22.4675 O   0  0  0  0  0  0
  -23.5336  -32.1451   23.7425 O   0  0  0  0  0  0
  -29.7239  -21.9734   20.9921 C   0  0  0  0  0  0
  -27.5468  -17.5311   20.0990 C   0  0  0  0  0  0
  -26.2560  -18.1585   20.6520 C   0  0  0  0  0  0
  -27.4192  -20.2674   20.7190 C   0  0  0  0  0  0
  -28.7347  -19.5805   20.2053 C   0  0  1  0  0  0
  -29.9845  -20.5023   20.5083 C   0  0  0  0  0  0
  -29.8997  -17.2269   20.4151 C   0  0  0  0  0  0
  -29.6149  -24.4585   20.4642 C   0  0  0  0  0  0
  -30.3119  -16.0034   22.7581 C   0  0  0  0  0  0
  -28.3648  -25.2176   19.9062 C   0  0  0  0  0  0
  -29.9175  -15.8496   21.2520 C   0  0  2  0  0  0
  -28.7495  -18.1464   20.7049 N   0  0  0  0  0  0
  -29.7197  -23.0112   20.1192 N   0  0  0  0  0  0
  -26.2045  -19.5714   20.2801 N   0  3  0  0  0  0
  -31.3306  -17.0341   23.0660 N   0  3  0  0  0  0
  -29.5229  -22.1626   22.1933 O   0  0  0  0  0  0
  -31.4792  -12.5316   19.1327 H   0  0  0  0  0  0
  -30.3891  -11.3898   19.8597 H   0  0  0  0  0  0
  -29.7615  -11.7939   17.4593 H   0  0  0  0  0  0
  -29.6327  -13.5067   17.7598 H   0  0  0  0  0  0
  -27.8660  -11.2940   18.8511 H   0  0  0  0  0  0
  -27.3624  -12.5939   17.8062 H   0  0  0  0  0  0
  -27.6844  -14.2416   19.5753 H   0  0  0  0  0  0
  -28.7266  -11.9595   21.3087 H   0  0  0  0  0  0
  -28.4476  -13.5537   21.9034 H   0  0  0  0  0  0
  -25.2739   -9.5558   22.4819 H   0  0  0  0  0  0
  -23.9962   -7.4527   22.7497 H   0  0  0  0  0  0
  -21.0854   -8.8756   19.8926 H   0  0  0  0  0  0
  -22.3759  -10.9632   19.6209 H   0  0  0  0  0  0
  -21.1935   -7.6120   23.9683 H   0  0  0  0  0  0
  -21.1506   -6.0525   25.9089 H   0  0  0  0  0  0
  -22.0606   -2.7577   23.2887 H   0  0  0  0  0  0
  -22.4035  -11.9738   22.4757 H   0  0  0  0  0  0
  -21.1055  -13.1141   22.2682 H   0  0  0  0  0  0
  -24.4714  -15.5895   20.2919 H   0  0  0  0  0  0
  -25.8828  -15.3054   19.4575 H   0  0  0  0  0  0
  -26.7113  -32.5526   23.1110 H   0  0  0  0  0  0
  -25.0028  -33.9768   25.0401 H   0  0  0  0  0  0
  -22.6921  -31.2926   21.4147 H   0  0  0  0  0  0
  -23.3757  -35.9624   23.3280 H   0  0  0  0  0  0
  -24.3605  -36.8960   22.2053 H   0  0  0  0  0  0
  -23.7233  -37.6482   23.6695 H   0  0  0  0  0  0
  -26.0455  -31.5830   20.5889 H   0  0  0  0  0  0
  -26.8266  -30.8850   21.9783 H   0  0  0  0  0  0
  -28.1033  -29.0707   21.1841 H   0  0  0  0  0  0
  -26.0398  -25.9566   19.0101 H   0  0  0  0  0  0
  -23.9897  -27.2791   19.0376 H   0  0  0  0  0  0
  -23.7294  -30.5908   19.4116 H   0  0  0  0  0  0
  -22.7406  -29.2361   19.8642 H   0  0  0  0  0  0
  -25.1292  -36.1949   25.0814 H   0  0  0  0  0  0
  -20.9878  -28.3221   24.1508 H   0  0  0  0  0  0
  -20.5796  -26.2226   23.3631 H   0  0  0  0  0  0
  -21.6646  -26.7531   22.1191 H   0  0  0  0  0  0
  -19.6933  -25.6299   21.1269 H   0  0  0  0  0  0
  -19.6694  -27.3201   20.6795 H   0  0  0  0  0  0
  -17.4206  -26.6663   21.3991 H   0  0  0  0  0  0
  -18.0260  -26.0084   22.9021 H   0  0  0  0  0  0
  -19.7919  -30.7282   24.2211 H   0  0  0  0  0  0
  -17.5003  -31.6261   24.5167 H   0  0  0  0  0  0
  -15.5336  -30.2974   23.7697 H   0  0  0  0  0  0
  -15.8645  -28.0878   22.6987 H   0  0  0  0  0  0
  -24.5971  -30.6920   25.7726 H   0  0  0  0  0  0
  -24.8856  -32.2756   26.4799 H   0  0  0  0  0  0
  -25.8105  -30.8847   27.0163 H   0  0  0  0  0  0
  -26.2789  -29.6773   24.1098 H   0  0  0  0  0  0
  -27.4130  -29.7206   25.4408 H   0  0  0  0  0  0
  -27.8618  -30.4297   23.9064 H   0  0  0  0  0  0
  -27.2578  -33.3615   26.1983 H   0  0  0  0  0  0
  -28.3839  -32.6895   25.0301 H   0  0  0  0  0  0
  -28.0669  -31.8479   26.5404 H   0  0  0  0  0  0
  -28.2570  -38.0127   24.7574 H   0  0  0  0  0  0
  -28.1108  -36.2662   24.6233 H   0  0  0  0  0  0
  -27.2306  -37.1390   25.8864 H   0  0  0  0  0  0
  -20.9379  -29.8659   21.6934 H   0  0  0  0  0  0
  -26.0151  -38.2862   24.1474 H   0  0  0  0  0  0
  -27.5758  -17.6110   19.0095 H   0  0  0  0  0  0
  -27.4911  -16.4672   20.2891 H   0  0  0  0  0  0
  -26.2042  -18.0363   21.7350 H   0  0  0  0  0  0
  -25.3672  -17.6872   20.2366 H   0  0  0  0  0  0
  -27.3079  -21.2815   20.3342 H   0  0  0  0  0  0
  -27.4204  -20.3309   21.8093 H   0  0  0  0  0  0
  -28.6786  -19.5399   19.1148 H   0  0  0  0  0  0
  -30.5875  -20.0378   21.2863 H   0  0  0  0  0  0
  -30.6302  -20.5347   19.6295 H   0  0  0  0  0  0
  -29.9198  -17.0020   19.3459 H   0  0  0  0  0  0
  -30.8329  -17.7583   20.5976 H   0  0  0  0  0  0
  -29.6396  -24.5948   21.5468 H   0  0  0  0  0  0
  -30.5172  -24.9483   20.0968 H   0  0  0  0  0  0
  -30.6625  -15.0476   23.1559 H   0  0  0  0  0  0
  -29.4155  -16.2354   23.3349 H   0  0  0  0  0  0
  -27.4762  -24.7978   20.3799 H   0  0  0  0  0  0
  -28.2754  -25.0489   18.8326 H   0  0  0  0  0  0
  -28.8889  -15.5301   21.3118 H   0  0  0  0  0  0
  -29.9148  -22.7992   19.1477 H   0  0  0  0  0  0
  -25.4011  -19.9984   20.7110 H   0  0  0  0  0  0
  -26.1053  -19.6527   19.2813 H   0  0  0  0  0  0
  -32.1971  -16.8724   22.5827 H   0  0  0  0  0  0
  -31.5278  -17.0319   24.0534 H   0  0  0  0  0  0
  -30.9878  -17.9521   22.8424 H   0  0  0  0  0  0
  1 25  1  0  0  0
  1 30  2  0  0  0
  1 81  1  0  0  0
  2  3  1  0  0  0
  2 25  1  0  0  0
  2 87  1  0  0  0
  2 88  1  0  0  0
  3  4  1  0  0  0
  3 89  1  0  0  0
  3 90  1  0  0  0
  4  5  1  0  0  0
  4 91  1  0  0  0
  4 92  1  0  0  0
  5  6  1  0  0  0
  5 26  1  0  0  0
  5 93  1  0  0  0
  6 25  1  0  0  0
  6 94  1  0  0  0
  6 95  1  0  0  0
  7  8  2  0  0  0
  7 26  1  0  0  0
  7 29  1  0  0  0
  8  9  1  0  0  0
  8 22  1  0  0  0
  9 10  1  0  0  0
  9 27  2  0  0  0
 10 11  2  0  0  0
 10 15  1  0  0  0
 11 12  1  0  0  0
 11 96  1  0  0  0
 12 13  2  0  0  0
 12 97  1  0  0  0
 13 14  1  0  0  0
 13 31  1  0  0  0
 14 15  2  0  0  0
 14 98  1  0  0  0
 15 99  1  0  0  0
 16 17  2  0  0  0
 16 21  1  0  0  0
 16 31  1  0  0  0
 17 18  1  0  0  0
 17100  1  0  0  0
 18 19  2  0  0  0
 18101  1  0  0  0
 19 20  1  0  0  0
 19 24  1  0  0  0
 20 21  2  0  0  0
 20102  1  0  0  0
 21 23  1  0  0  0
 22 28  1  0  0  0
 22 32  2  0  0  0
 26 27  1  0  0  0
 28103  1  0  0  0
 28104  1  0  0  0
 29105  1  0  0  0
 29106  1  0  0  0
 33 34  1  0  0  0
 33 66  1  0  0  0
 33 70  2  0  0  0
 34 36  1  0  0  0
 34 59  1  0  0  0
 34107  1  0  0  0
 35 44  2  0  0  0
 35 45  1  0  0  0
 35 68  1  0  0  0
 36 56  1  0  0  0
 36108  1  0  0  0
 37 39  1  0  0  0
 37 47  1  0  0  0
 37 66  1  0  0  0
 37109  1  0  0  0
 38 43  2  0  0  0
 38 46  1  0  0  0
 38 47  1  0  0  0
 39 64  1  0  0  0
 39 67  2  0  0  0
 40 52  1  0  0  0
 40 53  2  0  0  0
 40 58  1  0  0  0
 41110  1  0  0  0
 41111  1  0  0  0
 41112  1  0  0  0
 41 48  1  0  0  0
 42 43  1  0  0  0
 42 66  1  0  0  0
 42113  1  0  0  0
 42114  1  0  0  0
 43 44  1  0  0  0
 44115  1  0  0  0
 45 46  2  0  0  0
 45116  1  0  0  0
 46117  1  0  0  0
 47118  1  0  0  0
 47119  1  0  0  0
 48 56  1  0  0  0
 48 65  1  0  0  0
 48120  1  0  0  0
 49 50  1  0  0  0
 49 53  1  0  0  0
 49 64  1  0  0  0
 49121  1  0  0  0
 50 51  1  0  0  0
 50122  1  0  0  0
 50123  1  0  0  0
 51 52  1  0  0  0
 51124  1  0  0  0
 51125  1  0  0  0
 52126  1  0  0  0
 52127  1  0  0  0
 53 54  1  0  0  0
 54 55  2  0  0  0
 54128  1  0  0  0
 55 57  1  0  0  0
 55129  1  0  0  0
 56 69  2  0  0  0
 57 58  2  0  0  0
 57130  1  0  0  0
 58131  1  0  0  0
 59 60  1  0  0  0
 59 61  1  0  0  0
 59 62  1  0  0  0
 60132  1  0  0  0
 60133  1  0  0  0
 60134  1  0  0  0
 61135  1  0  0  0
 61136  1  0  0  0
 61137  1  0  0  0
 62138  1  0  0  0
 62139  1  0  0  0
 62140  1  0  0  0
 63 65  1  0  0  0
 63141  1  0  0  0
 63142  1  0  0  0
 63143  1  0  0  0
 64144  1  0  0  0
 65145  1  0  0  0
 68 80  1  0  0  0
 71 76  1  0  0  0
 71 83  1  0  0  0
 71 86  2  0  0  0
 72 73  1  0  0  0
 72 82  1  0  0  0
 72146  1  0  0  0
 72147  1  0  0  0
 73 84  1  0  0  0
 73148  1  0  0  0
 73149  1  0  0  0
 74 75  1  0  0  0
 74 84  1  0  0  0
 74150  1  0  0  0
 74151  1  0  0  0
 75 76  1  0  0  0
 75 82  1  0  0  0
 75152  1  0  0  0
 76153  1  0  0  0
 76154  1  0  0  0
 77 82  1  0  0  0
 77155  1  0  0  0
 77156  1  0  0  0
 77 81  1  0  0  0
 78 80  1  0  0  0
 78 83  1  0  0  0
 78157  1  0  0  0
 78158  1  0  0  0
 79 81  1  0  0  0
 79 85  1  0  0  0
 79159  1  0  0  0
 79160  1  0  0  0
 80161  1  0  0  0
 80162  1  0  0  0
 81163  1  0  0  0
 83164  1  0  0  0
 84165  1  0  0  0
 84166  1  0  0  0
 85167  1  0  0  0
 85168  1  0  0  0
 85169  1  0  0  0
M  CHG  2  84   1  85   1
M  ISO  4   1 100  68 101  80 101  81 100
M  END
> <chiral flag>
0

> <version>
0

> <s_m_source_file>
/data/baiqing/PycharmProjects/Reinvent-master-3.2/result/LINK_invent/BTK/process_docking_weight1_custom_sum_contain_oxygen_bond_distance_aromatic_linkinvent_7_9_3/rearranged_h_0121.sdf

> <i_m_source_file_index>
58

> <r_mmod_Potential_Energy-OPLS-2005>
-340.847259521484

> <r_mmod_Stretch_Energy-OPLS-2005>
79.3818206787109

> <r_mmod_Bend_Energy-OPLS-2005>
143.080459594727

> <r_mmod_Torsional_Energy-OPLS-2005>
208.846450805664

> <r_mmod_Improper_Torsional_Energy-OPLS-2005>
8.75958824157715

> <r_mmod_Van_der_Waal_Energy-OPLS-2005>
155.9931640625

> <r_mmod_Electrostatic_Energy-OPLS-2005>
-17.8347721099854

> <r_mmod_Solvation_Energy-OPLS-2005>
-947.753784179688

> <b_mmod_Minimization_Converged-OPLS-2005>
0

> <r_mmod_RMS_Derivative-OPLS-2005>
3.85015988349915

$$$$
58
                    3D
 Structure written by MMmdl.
176185  0  0  1  0            999 V2000
  -30.8064  -14.3093   20.7950 C   0  0  0  0  0  0
  -30.4108  -12.3047   19.4012 C   0  0  0  0  0  0
  -29.4853  -12.5705   18.2014 C   0  0  0  0  0  0
  -28.0072  -12.4074   18.6093 C   0  0  0  0  0  0
  -27.6683  -13.2075   19.8957 C   0  0  2  0  0  0
  -28.7004  -12.9299   21.0091 C   0  0  0  0  0  0
  -25.2583  -13.8158   20.5677 C   0  0  0  0  0  0
  -24.1817  -13.0453   20.9096 C   0  0  0  0  0  0
  -24.6329  -11.6913   20.8643 C   0  0  0  0  0  0
  -23.9006  -10.4311   21.0337 C   0  0  0  0  0  0
  -24.3576   -9.4261   21.9136 C   0  0  0  0  0  0
  -23.6250   -8.2303   22.0742 C   0  0  0  0  0  0
  -22.4247   -8.0301   21.3528 C   0  0  0  0  0  0
  -21.9852   -9.0274   20.4627 C   0  0  0  0  0  0
  -22.7160  -10.2147   20.2993 C   0  0  0  0  0  0
  -21.6862   -6.0706   22.5270 C   0  0  0  0  0  0
  -21.4061   -6.5604   23.8202 C   0  0  0  0  0  0
  -21.3661   -5.6753   24.9143 C   0  0  0  0  0  0
  -21.6062   -4.3021   24.7225 C   0  0  0  0  0  0
  -21.8826   -3.8103   23.4352 C   0  0  0  0  0  0
  -21.9210   -4.6925   22.3399 C   0  0  0  0  0  0
  -22.7828  -13.5255   21.1777 C   0  0  0  0  0  0
  -22.1645   -4.2076   21.0974 F   0  0  0  0  0  0
  -21.5598   -3.4533   25.7759 F   0  0  0  0  0  0
  -30.0503  -13.2203   20.4906 N   0  0  0  0  0  0
  -26.3041  -12.9342   20.3450 N   0  0  0  0  0  0
  -25.9300  -11.6497   20.5789 N   0  0  0  0  0  0
  -22.0498  -12.8284   22.0346 N   0  0  0  0  0  0
  -25.4326  -15.1868   20.4059 N   0  0  0  0  0  0
  -31.7647  -14.6754   20.1039 O   0  0  0  0  0  0
  -21.6614   -6.8887   21.4250 O   0  0  0  0  0  0
  -22.3545  -14.5577   20.6617 O   0  0  0  0  0  0
  -24.6054  -31.8715   23.2134 C   0  0  0  0  0  0
  -25.8980  -32.4840   23.8416 C   0  0  1  0  0  0
  -27.2592  -27.4901   20.1024 C   0  0  0  0  0  0
  -25.5861  -33.8640   24.2353 N   0  0  0  0  0  0
  -23.3904  -30.4922   21.5524 C   0  0  2  0  0  0
  -24.8426  -28.9619   20.1187 C   0  0  0  0  0  0
  -22.7360  -29.4669   22.5039 C   0  0  0  0  0  0
  -18.0252  -28.1358   22.8501 C   0  0  0  0  0  0
  -24.1471  -36.7323   23.2637 C   0  0  0  0  0  0
  -25.9083  -30.8599   21.3524 C   0  0  0  0  0  0
  -25.9925  -29.4948   20.7091 C   0  0  0  0  0  0
  -27.2001  -28.7719   20.6999 C   0  0  0  0  0  0
  -26.0907  -26.9643   19.5110 C   0  0  0  0  0  0
  -24.8835  -27.6915   19.5160 C   0  0  0  0  0  0
  -23.5958  -29.8171   20.1684 C   0  0  0  0  0  0
  -25.4094  -36.3133   24.0350 C   0  0  1  0  0  0
  -20.5841  -28.3628   23.1348 C   0  0  2  0  0  0
  -20.6745  -26.9373   22.5432 C   0  0  0  0  0  0
  -19.5726  -26.6373   21.5220 C   0  0  0  0  0  0
  -18.1908  -26.7902   22.1626 C   0  0  0  0  0  0
  -19.1507  -28.8809   23.2919 C   0  0  0  0  0  0
  -18.9432  -30.1427   23.8917 C   0  0  0  0  0  0
  -17.6442  -30.6574   24.0562 C   0  0  0  0  0  0
  -25.9026  -34.9493   23.5157 C   0  0  0  0  0  0
  -16.5331  -29.9080   23.6327 C   0  0  0  0  0  0
  -16.7254  -28.6489   23.0356 C   0  0  0  0  0  0
  -26.4450  -31.6596   25.0713 C   0  0  0  0  0  0
  -25.3749  -31.3673   26.1480 C   0  0  0  0  0  0
  -27.0265  -30.3052   24.6021 C   0  0  0  0  0  0
  -27.6044  -32.4294   25.7460 C   0  0  0  0  0  0
  -27.5588  -37.1799   24.8458 C   0  0  0  0  0  0
  -21.4097  -29.3007   22.3767 N   0  0  0  0  0  0
  -26.4284  -37.3817   23.9430 N   0  0  0  0  0  0
  -24.6527  -31.0879   22.0996 N   0  0  0  0  0  0
  -23.4159  -28.8226   23.3068 O   0  0  0  0  0  0
  -28.3976  -26.7157   20.0545 O   0  0  0  0  0  0
  -26.5580  -34.8932   22.4717 O   0  0  0  0  0  0
  -23.5271  -32.1443   23.7575 O   0  0  0  0  0  0
  -28.4643  -23.5244   23.2053 C   0  0  0  0  0  0
  -29.9244  -23.4671   21.5164 C   0  0  0  0  0  0
  -28.8239  -24.8197   22.9360 C   0  0  0  0  0  0
  -29.7371  -24.7831   21.8315 C   0  0  0  0  0  0
  -31.1443  -15.2230   24.3444 C   0  0  0  0  0  0
  -30.3672  -16.4124   23.8116 C   0  0  0  0  0  0
  -31.6636  -14.5590   23.0711 C   0  0  0  0  0  0
  -29.7783  -15.9171   22.4718 C   0  0  1  0  0  0
  -28.3479  -26.0365   23.6938 C   0  0  0  0  0  0
  -27.9372  -21.4518   19.9785 C   0  0  0  0  0  0
  -30.4340  -25.9268   21.1238 C   0  0  0  0  0  0
  -29.6511  -17.0492   21.4240 C   0  0  0  0  0  0
  -29.1123  -21.2320   22.3139 C   0  0  0  0  0  0
  -28.7137  -18.1972   21.8638 C   0  0  0  0  0  0
  -29.5363  -27.1313   20.8123 C   0  0  0  0  0  0
  -28.1694  -20.5947   21.2438 C   0  0  2  0  0  0
  -29.1439  -22.6880   22.3398 N   0  0  0  0  0  0
  -30.6315  -14.7771   22.0552 N   0  0  0  0  0  0
  -28.6492  -19.2516   20.8250 N   0  3  0  0  0  0
  -31.4630  -12.4022   19.1212 H   0  0  0  0  0  0
  -30.2882  -11.2756   19.7416 H   0  0  0  0  0  0
  -29.7278  -11.9032   17.3751 H   0  0  0  0  0  0
  -29.6587  -13.5858   17.8375 H   0  0  0  0  0  0
  -27.8048  -11.3464   18.7615 H   0  0  0  0  0  0
  -27.3528  -12.7179   17.7948 H   0  0  0  0  0  0
  -27.7352  -14.2687   19.6517 H   0  0  0  0  0  0
  -28.6515  -11.8847   21.3154 H   0  0  0  0  0  0
  -28.4522  -13.4947   21.9058 H   0  0  0  0  0  0
  -25.2777   -9.5749   22.4642 H   0  0  0  0  0  0
  -23.9968   -7.4730   22.7490 H   0  0  0  0  0  0
  -21.0766   -8.8788   19.8962 H   0  0  0  0  0  0
  -22.3630  -10.9659   19.6022 H   0  0  0  0  0  0
  -21.2074   -7.6104   23.9693 H   0  0  0  0  0  0
  -21.1442   -6.0461   25.9028 H   0  0  0  0  0  0
  -22.0590   -2.7565   23.2872 H   0  0  0  0  0  0
  -22.4114  -11.9945   22.4752 H   0  0  0  0  0  0
  -21.1096  -13.1267   22.2525 H   0  0  0  0  0  0
  -24.6726  -15.8454   20.5340 H   0  0  0  0  0  0
  -26.2847  -15.6250   20.0871 H   0  0  0  0  0  0
  -26.7059  -32.5595   23.1199 H   0  0  0  0  0  0
  -25.0027  -33.9820   25.0504 H   0  0  0  0  0  0
  -22.6767  -31.3072   21.4150 H   0  0  0  0  0  0
  -23.3745  -35.9642   23.3292 H   0  0  0  0  0  0
  -24.3582  -36.8940   22.2055 H   0  0  0  0  0  0
  -23.7197  -37.6520   23.6647 H   0  0  0  0  0  0
  -26.0029  -31.6238   20.5789 H   0  0  0  0  0  0
  -26.8000  -30.9250   21.9624 H   0  0  0  0  0  0
  -28.0689  -29.2286   21.1496 H   0  0  0  0  0  0
  -26.1186  -25.9876   19.0487 H   0  0  0  0  0  0
  -23.9991  -27.2716   19.0566 H   0  0  0  0  0  0
  -23.6897  -30.5883   19.4034 H   0  0  0  0  0  0
  -22.7236  -29.2264   19.8819 H   0  0  0  0  0  0
  -25.1259  -36.2012   25.0844 H   0  0  0  0  0  0
  -20.9928  -28.3187   24.1466 H   0  0  0  0  0  0
  -20.5644  -26.2240   23.3610 H   0  0  0  0  0  0
  -21.6620  -26.7429   22.1223 H   0  0  0  0  0  0
  -19.6894  -25.6293   21.1223 H   0  0  0  0  0  0
  -19.6674  -27.3203   20.6765 H   0  0  0  0  0  0
  -17.4187  -26.6664   21.4024 H   0  0  0  0  0  0
  -18.0304  -26.0036   22.9008 H   0  0  0  0  0  0
  -19.7926  -30.7233   24.2292 H   0  0  0  0  0  0
  -17.5006  -31.6264   24.5149 H   0  0  0  0  0  0
  -15.5337  -30.2990   23.7636 H   0  0  0  0  0  0
  -15.8646  -28.0811   22.7067 H   0  0  0  0  0  0
  -24.5912  -30.7029   25.7826 H   0  0  0  0  0  0
  -24.8950  -32.2814   26.4980 H   0  0  0  0  0  0
  -25.8128  -30.8814   27.0204 H   0  0  0  0  0  0
  -26.2787  -29.6816   24.1103 H   0  0  0  0  0  0
  -27.4101  -29.7270   25.4436 H   0  0  0  0  0  0
  -27.8585  -30.4396   23.9103 H   0  0  0  0  0  0
  -27.2687  -33.3586   26.2063 H   0  0  0  0  0  0
  -28.3835  -32.6848   25.0272 H   0  0  0  0  0  0
  -28.0715  -31.8390   26.5344 H   0  0  0  0  0  0
  -28.2579  -38.0124   24.7573 H   0  0  0  0  0  0
  -28.1110  -36.2668   24.6194 H   0  0  0  0  0  0
  -27.2322  -37.1341   25.8860 H   0  0  0  0  0  0
  -20.9248  -29.8725   21.6989 H   0  0  0  0  0  0
  -26.0179  -38.2889   24.1478 H   0  0  0  0  0  0
  -27.7936  -23.1247   23.9568 H   0  0  0  0  0  0
  -30.5556  -23.0093   20.7652 H   0  0  0  0  0  0
  -30.4697  -14.5451   24.8687 H   0  0  0  0  0  0
  -31.9340  -15.5053   25.0410 H   0  0  0  0  0  0
  -31.0571  -17.2461   23.6606 H   0  0  0  0  0  0
  -29.6025  -16.7530   24.5102 H   0  0  0  0  0  0
  -31.8493  -13.4931   23.2217 H   0  0  0  0  0  0
  -32.6014  -15.0216   22.7544 H   0  0  0  0  0  0
  -28.7784  -15.5290   22.6754 H   0  0  0  0  0  0
  -27.7128  -25.7594   24.5343 H   0  0  0  0  0  0
  -27.7651  -26.6951   23.0520 H   0  0  0  0  0  0
  -29.1988  -26.5979   24.0823 H   0  0  0  0  0  0
  -27.5459  -22.4403   20.2192 H   0  0  0  0  0  0
  -27.2057  -20.9754   19.3256 H   0  0  0  0  0  0
  -28.8527  -21.5854   19.4017 H   0  0  0  0  0  0
  -30.8517  -25.5489   20.1889 H   0  0  0  0  0  0
  -31.2800  -26.2409   21.7366 H   0  0  0  0  0  0
  -29.2779  -16.6412   20.4821 H   0  0  0  0  0  0
  -30.6429  -17.4504   21.2128 H   0  0  0  0  0  0
  -30.1401  -20.9051   22.1551 H   0  0  0  0  0  0
  -28.8405  -20.8759   23.3116 H   0  0  0  0  0  0
  -29.0763  -18.6090   22.8063 H   0  0  0  0  0  0
  -27.7087  -17.8190   22.0604 H   0  0  0  0  0  0
  -30.0948  -27.8814   20.2528 H   0  0  0  0  0  0
  -29.2694  -27.5907   21.7594 H   0  0  0  0  0  0
  -27.1911  -20.4799   21.7130 H   0  0  0  0  0  0
  -28.0475  -18.9197   20.0860 H   0  0  0  0  0  0
  -29.5686  -19.3615   20.4287 H   0  0  0  0  0  0
  1 25  1  0  0  0
  1 30  2  0  0  0
  1 88  1  0  0  0
  2  3  1  0  0  0
  2 25  1  0  0  0
  2 90  1  0  0  0
  2 91  1  0  0  0
  3  4  1  0  0  0
  3 92  1  0  0  0
  3 93  1  0  0  0
  4  5  1  0  0  0
  4 94  1  0  0  0
  4 95  1  0  0  0
  5  6  1  0  0  0
  5 26  1  0  0  0
  5 96  1  0  0  0
  6 25  1  0  0  0
  6 97  1  0  0  0
  6 98  1  0  0  0
  7  8  2  0  0  0
  7 26  1  0  0  0
  7 29  1  0  0  0
  8  9  1  0  0  0
  8 22  1  0  0  0
  9 10  1  0  0  0
  9 27  2  0  0  0
 10 11  2  0  0  0
 10 15  1  0  0  0
 11 12  1  0  0  0
 11 99  1  0  0  0
 12 13  2  0  0  0
 12100  1  0  0  0
 13 14  1  0  0  0
 13 31  1  0  0  0
 14 15  2  0  0  0
 14101  1  0  0  0
 15102  1  0  0  0
 16 17  2  0  0  0
 16 21  1  0  0  0
 16 31  1  0  0  0
 17 18  1  0  0  0
 17103  1  0  0  0
 18 19  2  0  0  0
 18104  1  0  0  0
 19 20  1  0  0  0
 19 24  1  0  0  0
 20 21  2  0  0  0
 20105  1  0  0  0
 21 23  1  0  0  0
 22 28  1  0  0  0
 22 32  2  0  0  0
 26 27  1  0  0  0
 28106  1  0  0  0
 28107  1  0  0  0
 29108  1  0  0  0
 29109  1  0  0  0
 33 34  1  0  0  0
 33 66  1  0  0  0
 33 70  2  0  0  0
 34 36  1  0  0  0
 34 59  1  0  0  0
 34110  1  0  0  0
 35 44  2  0  0  0
 35 45  1  0  0  0
 35 68  1  0  0  0
 36 56  1  0  0  0
 36111  1  0  0  0
 37 39  1  0  0  0
 37 47  1  0  0  0
 37 66  1  0  0  0
 37112  1  0  0  0
 38 43  2  0  0  0
 38 46  1  0  0  0
 38 47  1  0  0  0
 39 64  1  0  0  0
 39 67  2  0  0  0
 40 52  1  0  0  0
 40 53  2  0  0  0
 40 58  1  0  0  0
 41113  1  0  0  0
 41114  1  0  0  0
 41115  1  0  0  0
 41 48  1  0  0  0
 42 43  1  0  0  0
 42 66  1  0  0  0
 42116  1  0  0  0
 42117  1  0  0  0
 43 44  1  0  0  0
 44118  1  0  0  0
 45 46  2  0  0  0
 45119  1  0  0  0
 46120  1  0  0  0
 47121  1  0  0  0
 47122  1  0  0  0
 48 56  1  0  0  0
 48 65  1  0  0  0
 48123  1  0  0  0
 49 50  1  0  0  0
 49 53  1  0  0  0
 49 64  1  0  0  0
 49124  1  0  0  0
 50 51  1  0  0  0
 50125  1  0  0  0
 50126  1  0  0  0
 51 52  1  0  0  0
 51127  1  0  0  0
 51128  1  0  0  0
 52129  1  0  0  0
 52130  1  0  0  0
 53 54  1  0  0  0
 54 55  2  0  0  0
 54131  1  0  0  0
 55 57  1  0  0  0
 55132  1  0  0  0
 56 69  2  0  0  0
 57 58  2  0  0  0
 57133  1  0  0  0
 58134  1  0  0  0
 59 60  1  0  0  0
 59 61  1  0  0  0
 59 62  1  0  0  0
 60135  1  0  0  0
 60136  1  0  0  0
 60137  1  0  0  0
 61138  1  0  0  0
 61139  1  0  0  0
 61140  1  0  0  0
 62141  1  0  0  0
 62142  1  0  0  0
 62143  1  0  0  0
 63 65  1  0  0  0
 63144  1  0  0  0
 63145  1  0  0  0
 63146  1  0  0  0
 64147  1  0  0  0
 65148  1  0  0  0
 68 85  1  0  0  0
 71 73  2  0  0  0
 71 87  1  0  0  0
 71149  1  0  0  0
 72 74  2  0  0  0
 72 87  1  0  0  0
 72150  1  0  0  0
 73 74  1  0  0  0
 73 79  1  0  0  0
 74 81  1  0  0  0
 75 76  1  0  0  0
 75 77  1  0  0  0
 75151  1  0  0  0
 75152  1  0  0  0
 76 78  1  0  0  0
 76153  1  0  0  0
 76154  1  0  0  0
 77 88  1  0  0  0
 77155  1  0  0  0
 77156  1  0  0  0
 78 82  1  0  0  0
 78 88  1  0  0  0
 78157  1  0  0  0
 79158  1  0  0  0
 79159  1  0  0  0
 79160  1  0  0  0
 80161  1  0  0  0
 80162  1  0  0  0
 80163  1  0  0  0
 80 86  1  0  0  0
 81 85  1  0  0  0
 81164  1  0  0  0
 81165  1  0  0  0
 82 84  1  0  0  0
 82166  1  0  0  0
 82167  1  0  0  0
 83 86  1  0  0  0
 83 87  1  0  0  0
 83168  1  0  0  0
 83169  1  0  0  0
 84 89  1  0  0  0
 84170  1  0  0  0
 84171  1  0  0  0
 85172  1  0  0  0
 85173  1  0  0  0
 86 89  1  0  0  0
 86174  1  0  0  0
 89175  1  0  0  0
 89176  1  0  0  0
M  CHG  1  89   1
M  ISO  4   1 100  68 101  85 101  88 100
M  END
> <chiral flag>
0

> <version>
0

> <s_m_source_file>
/data/baiqing/PycharmProjects/Reinvent-master-3.2/result/LINK_invent/BTK/process_docking_weight1_custom_sum_contain_oxygen_bond_distance_aromatic_linkinvent_7_9_3/rearranged_h_0121.sdf

> <i_m_source_file_index>
59

> <r_mmod_Potential_Energy-OPLS-2005>
42.180835723877

> <r_mmod_Stretch_Energy-OPLS-2005>
36.6164970397949

> <r_mmod_Bend_Energy-OPLS-2005>
128.156234741211

> <r_mmod_Torsional_Energy-OPLS-2005>
350.204803466797

> <r_mmod_Improper_Torsional_Energy-OPLS-2005>
8.310866355896

> <r_mmod_Van_der_Waal_Energy-OPLS-2005>
120.479782104492

> <r_mmod_Electrostatic_Energy-OPLS-2005>
-141.938903808594

> <r_mmod_Solvation_Energy-OPLS-2005>
-468.072143554688

> <b_mmod_Minimization_Converged-OPLS-2005>
0

> <r_mmod_RMS_Derivative-OPLS-2005>
5.1287899017334

$$$$
59
                    3D
 Structure written by MMmdl.
150158  0  0  1  0            999 V2000
  -30.6910  -14.6127   20.5083 C   0  0  0  0  0  0
  -30.4242  -12.3815   19.4593 C   0  0  0  0  0  0
  -29.4997  -12.4873   18.2288 C   0  0  0  0  0  0
  -28.0270  -12.3314   18.6474 C   0  0  0  0  0  0
  -27.6495  -13.2230   19.8602 C   0  0  2  0  0  0
  -28.6936  -13.1202   20.9948 C   0  0  0  0  0  0
  -25.2560  -13.8201   20.5741 C   0  0  0  0  0  0
  -24.1817  -13.0455   20.9213 C   0  0  0  0  0  0
  -24.6395  -11.6924   20.8747 C   0  0  0  0  0  0
  -23.9071  -10.4298   21.0410 C   0  0  0  0  0  0
  -24.3619   -9.4213   21.9190 C   0  0  0  0  0  0
  -23.6296   -8.2242   22.0757 C   0  0  0  0  0  0
  -22.4279   -8.0285   21.3545 C   0  0  0  0  0  0
  -21.9915   -9.0261   20.4644 C   0  0  0  0  0  0
  -22.7241  -10.2139   20.3059 C   0  0  0  0  0  0
  -21.6856   -6.0738   22.5278 C   0  0  0  0  0  0
  -21.4012   -6.5643   23.8211 C   0  0  0  0  0  0
  -21.3653   -5.6798   24.9177 C   0  0  0  0  0  0
  -21.6048   -4.3060   24.7227 C   0  0  0  0  0  0
  -21.8819   -3.8153   23.4345 C   0  0  0  0  0  0
  -21.9191   -4.6970   22.3400 C   0  0  0  0  0  0
  -22.7840  -13.5248   21.1879 C   0  0  0  0  0  0
  -22.1661   -4.2159   21.0975 F   0  0  0  0  0  0
  -21.5630   -3.4542   25.7735 F   0  0  0  0  0  0
  -30.0117  -13.4256   20.4213 N   0  0  0  0  0  0
  -26.2976  -12.9387   20.3339 N   0  0  0  0  0  0
  -25.9323  -11.6533   20.5769 N   0  0  0  0  0  0
  -22.0476  -12.8207   22.0419 N   0  0  0  0  0  0
  -25.4315  -15.1927   20.4215 N   0  0  0  0  0  0
  -31.8579  -14.7169   20.1199 O   0  0  0  0  0  0
  -21.6641   -6.8880   21.4241 O   0  0  0  0  0  0
  -22.3515  -14.5556   20.6749 O   0  0  0  0  0  0
  -24.6258  -31.8605   23.2033 C   0  0  0  0  0  0
  -25.9109  -32.4777   23.8370 C   0  0  1  0  0  0
  -27.2254  -27.3198   20.1197 C   0  0  0  0  0  0
  -25.5921  -33.8580   24.2289 N   0  0  0  0  0  0
  -23.4201  -30.4864   21.5449 C   0  0  2  0  0  0
  -24.8690  -28.9479   20.1098 C   0  0  0  0  0  0
  -22.7467  -29.4639   22.4914 C   0  0  0  0  0  0
  -18.0286  -28.1385   22.8484 C   0  0  0  0  0  0
  -24.1489  -36.7289   23.2635 C   0  0  0  0  0  0
  -25.9625  -30.7916   21.3769 C   0  0  0  0  0  0
  -26.0388  -29.4207   20.7176 C   0  0  0  0  0  0
  -27.2202  -28.6192   20.7143 C   0  0  0  0  0  0
  -26.0319  -26.9106   19.4740 C   0  0  0  0  0  0
  -24.8681  -27.6975   19.4795 C   0  0  0  0  0  0
  -23.6347  -29.8237   20.1597 C   0  0  0  0  0  0
  -25.4115  -36.3083   24.0327 C   0  0  1  0  0  0
  -20.5889  -28.3702   23.1267 C   0  0  2  0  0  0
  -20.6775  -26.9420   22.5397 C   0  0  0  0  0  0
  -19.5748  -26.6389   21.5201 C   0  0  0  0  0  0
  -18.1929  -26.7928   22.1614 C   0  0  0  0  0  0
  -19.1541  -28.8860   23.2873 C   0  0  0  0  0  0
  -18.9467  -30.1456   23.8900 C   0  0  0  0  0  0
  -17.6474  -30.6590   24.0568 C   0  0  0  0  0  0
  -25.9050  -34.9447   23.5111 C   0  0  0  0  0  0
  -16.5363  -29.9092   23.6336 C   0  0  0  0  0  0
  -16.7277  -28.6505   23.0360 C   0  0  0  0  0  0
  -26.4490  -31.6583   25.0740 C   0  0  0  0  0  0
  -25.3710  -31.3749   26.1468 C   0  0  0  0  0  0
  -27.0300  -30.2985   24.6202 C   0  0  0  0  0  0
  -27.6097  -32.4290   25.7467 C   0  0  0  0  0  0
  -27.5582  -37.1794   24.8463 C   0  0  0  0  0  0
  -21.4178  -29.3067   22.3664 N   0  0  0  0  0  0
  -26.4293  -37.3779   23.9409 N   0  0  0  0  0  0
  -24.6879  -31.0627   22.0984 N   0  0  0  0  0  0
  -23.4177  -28.8168   23.2998 O   0  0  0  0  0  0
  -28.3266  -26.4449   20.1958 O   0  0  0  0  0  0
  -26.5618  -34.8920   22.4675 O   0  0  0  0  0  0
  -23.5417  -32.1423   23.7345 O   0  0  0  0  0  0
  -28.6584  -18.5977   21.1795 C   0  0  0  0  0  0
  -28.1422  -19.9178   21.2044 C   0  0  0  0  0  0
  -30.7250  -19.5583   20.4751 C   0  0  0  0  0  0
  -29.9983  -18.3705   20.7999 C   0  0  0  0  0  0
  -28.9338  -21.0456   20.8469 C   0  0  0  0  0  0
  -28.2640  -22.4421   20.8646 C   0  0  0  0  0  0
  -28.9934  -23.8156   20.5785 C   0  0  0  0  0  0
  -28.0094  -24.9962   20.1311 C   0  0  0  0  0  0
  -30.2304  -20.8375   20.4905 N   0  0  0  0  0  0
  -30.6239  -17.0784   20.7611 N   0  0  0  0  0  0
  -30.0058  -15.7530   20.8489 N   0  0  0  0  0  0
  -27.0593  -22.5128   21.1402 O   0  0  0  0  0  0
  -31.4659  -12.4847   19.1498 H   0  0  0  0  0  0
  -30.3475  -11.3944   19.9164 H   0  0  0  0  0  0
  -29.7592  -11.7202   17.4984 H   0  0  0  0  0  0
  -29.6455  -13.4478   17.7328 H   0  0  0  0  0  0
  -27.8745  -11.2816   18.9024 H   0  0  0  0  0  0
  -27.3671  -12.5364   17.8043 H   0  0  0  0  0  0
  -27.6594  -14.2510   19.4980 H   0  0  0  0  0  0
  -28.6944  -12.1218   21.4344 H   0  0  0  0  0  0
  -28.4434  -13.8053   21.8060 H   0  0  0  0  0  0
  -25.2765   -9.5692   22.4760 H   0  0  0  0  0  0
  -24.0014   -7.4637   22.7469 H   0  0  0  0  0  0
  -21.0854   -8.8785   19.8935 H   0  0  0  0  0  0
  -22.3718  -10.9686   19.6165 H   0  0  0  0  0  0
  -21.1997   -7.6150   23.9720 H   0  0  0  0  0  0
  -21.1477   -6.0524   25.9080 H   0  0  0  0  0  0
  -22.0598   -2.7617   23.2847 H   0  0  0  0  0  0
  -22.4100  -11.9855   22.4769 H   0  0  0  0  0  0
  -21.1098  -13.1225   22.2635 H   0  0  0  0  0  0
  -24.6781  -15.8579   20.5580 H   0  0  0  0  0  0
  -26.2933  -15.6275   20.1172 H   0  0  0  0  0  0
  -26.7180  -32.5443   23.1119 H   0  0  0  0  0  0
  -25.0086  -33.9743   25.0441 H   0  0  0  0  0  0
  -22.7141  -31.3071   21.4002 H   0  0  0  0  0  0
  -23.3763  -35.9607   23.3273 H   0  0  0  0  0  0
  -24.3598  -36.8931   22.2058 H   0  0  0  0  0  0
  -23.7235  -37.6481   23.6670 H   0  0  0  0  0  0
  -26.0957  -31.5552   20.6092 H   0  0  0  0  0  0
  -26.8434  -30.8387   22.0062 H   0  0  0  0  0  0
  -28.1135  -28.9734   21.2104 H   0  0  0  0  0  0
  -25.9576  -25.9585   18.9710 H   0  0  0  0  0  0
  -23.9738  -27.3301   18.9964 H   0  0  0  0  0  0
  -23.7482  -30.6011   19.4027 H   0  0  0  0  0  0
  -22.7560  -29.2503   19.8588 H   0  0  0  0  0  0
  -25.1282  -36.1940   25.0818 H   0  0  0  0  0  0
  -20.9992  -28.3290   24.1382 H   0  0  0  0  0  0
  -20.5679  -26.2311   23.3601 H   0  0  0  0  0  0
  -21.6647  -26.7440   22.1195 H   0  0  0  0  0  0
  -19.6923  -25.6299   21.1236 H   0  0  0  0  0  0
  -19.6694  -27.3198   20.6729 H   0  0  0  0  0  0
  -17.4196  -26.6682   21.4018 H   0  0  0  0  0  0
  -18.0335  -26.0056   22.8997 H   0  0  0  0  0  0
  -19.7945  -30.7265   24.2273 H   0  0  0  0  0  0
  -17.5029  -31.6273   24.5159 H   0  0  0  0  0  0
  -15.5367  -30.3002   23.7656 H   0  0  0  0  0  0
  -15.8664  -28.0825   22.7087 H   0  0  0  0  0  0
  -24.5881  -30.7094   25.7802 H   0  0  0  0  0  0
  -24.8905  -32.2927   26.4879 H   0  0  0  0  0  0
  -25.8033  -30.8939   27.0252 H   0  0  0  0  0  0
  -26.2863  -29.6743   24.1235 H   0  0  0  0  0  0
  -27.3981  -29.7249   25.4721 H   0  0  0  0  0  0
  -27.8742  -30.4237   23.9416 H   0  0  0  0  0  0
  -27.2800  -33.3673   26.1942 H   0  0  0  0  0  0
  -28.3950  -32.6701   25.0283 H   0  0  0  0  0  0
  -28.0685  -31.8436   26.5446 H   0  0  0  0  0  0
  -28.2591  -38.0094   24.7523 H   0  0  0  0  0  0
  -28.1091  -36.2637   24.6270 H   0  0  0  0  0  0
  -27.2304  -37.1415   25.8864 H   0  0  0  0  0  0
  -20.9353  -29.8800   21.6881 H   0  0  0  0  0  0
  -26.0170  -38.2849   24.1429 H   0  0  0  0  0  0
  -28.0227  -17.7696   21.4572 H   0  0  0  0  0  0
  -27.1134  -20.0593   21.5045 H   0  0  0  0  0  0
  -31.7646  -19.4775   20.1901 H   0  0  0  0  0  0
  -29.7743  -23.6589   19.8354 H   0  0  0  0  0  0
  -29.4957  -24.0969   21.5035 H   0  0  0  0  0  0
  -27.0983  -24.8846   20.7202 H   0  0  0  0  0  0
  -27.7405  -24.7740   19.0986 H   0  0  0  0  0  0
  -31.6061  -17.0537   20.4833 H   0  0  0  0  0  0
  -29.0319  -15.7112   21.1209 H   0  0  0  0  0  0
  1 25  1  0  0  0
  1 30  2  0  0  0
  1 81  1  0  0  0
  2  3  1  0  0  0
  2 25  1  0  0  0
  2 83  1  0  0  0
  2 84  1  0  0  0
  3  4  1  0  0  0
  3 85  1  0  0  0
  3 86  1  0  0  0
  4  5  1  0  0  0
  4 87  1  0  0  0
  4 88  1  0  0  0
  5  6  1  0  0  0
  5 26  1  0  0  0
  5 89  1  0  0  0
  6 25  1  0  0  0
  6 90  1  0  0  0
  6 91  1  0  0  0
  7  8  2  0  0  0
  7 26  1  0  0  0
  7 29  1  0  0  0
  8  9  1  0  0  0
  8 22  1  0  0  0
  9 10  1  0  0  0
  9 27  2  0  0  0
 10 11  2  0  0  0
 10 15  1  0  0  0
 11 12  1  0  0  0
 11 92  1  0  0  0
 12 13  2  0  0  0
 12 93  1  0  0  0
 13 14  1  0  0  0
 13 31  1  0  0  0
 14 15  2  0  0  0
 14 94  1  0  0  0
 15 95  1  0  0  0
 16 17  2  0  0  0
 16 21  1  0  0  0
 16 31  1  0  0  0
 17 18  1  0  0  0
 17 96  1  0  0  0
 18 19  2  0  0  0
 18 97  1  0  0  0
 19 20  1  0  0  0
 19 24  1  0  0  0
 20 21  2  0  0  0
 20 98  1  0  0  0
 21 23  1  0  0  0
 22 28  1  0  0  0
 22 32  2  0  0  0
 26 27  1  0  0  0
 28 99  1  0  0  0
 28100  1  0  0  0
 29101  1  0  0  0
 29102  1  0  0  0
 33 34  1  0  0  0
 33 66  1  0  0  0
 33 70  2  0  0  0
 34 36  1  0  0  0
 34 59  1  0  0  0
 34103  1  0  0  0
 35 44  2  0  0  0
 35 45  1  0  0  0
 35 68  1  0  0  0
 36 56  1  0  0  0
 36104  1  0  0  0
 37 39  1  0  0  0
 37 47  1  0  0  0
 37 66  1  0  0  0
 37105  1  0  0  0
 38 43  2  0  0  0
 38 46  1  0  0  0
 38 47  1  0  0  0
 39 64  1  0  0  0
 39 67  2  0  0  0
 40 52  1  0  0  0
 40 53  2  0  0  0
 40 58  1  0  0  0
 41106  1  0  0  0
 41107  1  0  0  0
 41108  1  0  0  0
 41 48  1  0  0  0
 42 43  1  0  0  0
 42 66  1  0  0  0
 42109  1  0  0  0
 42110  1  0  0  0
 43 44  1  0  0  0
 44111  1  0  0  0
 45 46  2  0  0  0
 45112  1  0  0  0
 46113  1  0  0  0
 47114  1  0  0  0
 47115  1  0  0  0
 48 56  1  0  0  0
 48 65  1  0  0  0
 48116  1  0  0  0
 49 50  1  0  0  0
 49 53  1  0  0  0
 49 64  1  0  0  0
 49117  1  0  0  0
 50 51  1  0  0  0
 50118  1  0  0  0
 50119  1  0  0  0
 51 52  1  0  0  0
 51120  1  0  0  0
 51121  1  0  0  0
 52122  1  0  0  0
 52123  1  0  0  0
 53 54  1  0  0  0
 54 55  2  0  0  0
 54124  1  0  0  0
 55 57  1  0  0  0
 55125  1  0  0  0
 56 69  2  0  0  0
 57 58  2  0  0  0
 57126  1  0  0  0
 58127  1  0  0  0
 59 60  1  0  0  0
 59 61  1  0  0  0
 59 62  1  0  0  0
 60128  1  0  0  0
 60129  1  0  0  0
 60130  1  0  0  0
 61131  1  0  0  0
 61132  1  0  0  0
 61133  1  0  0  0
 62134  1  0  0  0
 62135  1  0  0  0
 62136  1  0  0  0
 63 65  1  0  0  0
 63137  1  0  0  0
 63138  1  0  0  0
 63139  1  0  0  0
 64140  1  0  0  0
 65141  1  0  0  0
 68 78  1  0  0  0
 71 72  2  0  0  0
 71 74  1  0  0  0
 71142  1  0  0  0
 72 75  1  0  0  0
 72143  1  0  0  0
 73 74  2  0  0  0
 73 79  1  0  0  0
 73144  1  0  0  0
 74 80  1  0  0  0
 75 76  1  0  0  0
 75 79  2  0  0  0
 76 77  1  0  0  0
 76 82  2  0  0  0
 77 78  1  0  0  0
 77145  1  0  0  0
 77146  1  0  0  0
 78147  1  0  0  0
 78148  1  0  0  0
 80 81  1  0  0  0
 80149  1  0  0  0
 81150  1  0  0  0
M  ISO  4   1 100  68 101  78 101  81 100
M  END
> <chiral flag>
0

> <version>
0

> <s_m_source_file>
/data/baiqing/PycharmProjects/Reinvent-master-3.2/result/LINK_invent/BTK/process_docking_weight1_custom_sum_contain_oxygen_bond_distance_aromatic_linkinvent_7_9_3/rearranged_h_0121.sdf

> <i_m_source_file_index>
60

> <r_mmod_Potential_Energy-OPLS-2005>
110.971092224121

> <r_mmod_Stretch_Energy-OPLS-2005>
86.1438064575195

> <r_mmod_Bend_Energy-OPLS-2005>
153.476837158203

> <r_mmod_Torsional_Energy-OPLS-2005>
199.054244995117

> <r_mmod_Improper_Torsional_Energy-OPLS-2005>
4.3831000328064

> <r_mmod_Van_der_Waal_Energy-OPLS-2005>
160.296844482422

> <r_mmod_Electrostatic_Energy-OPLS-2005>
-313.357269287109

> <r_mmod_Solvation_Energy-OPLS-2005>
-228.210662841797

> <b_mmod_Minimization_Converged-OPLS-2005>
0

> <r_mmod_RMS_Derivative-OPLS-2005>
1.96085548400879

$$$$
60
                    3D
 Structure written by MMmdl.
147155  0  0  1  0            999 V2000
  -30.4751  -15.1823   20.3805 C   0  0  0  0  0  0
  -30.4354  -12.7503   19.5208 C   0  0  0  0  0  0
  -29.5293  -12.5597   18.2802 C   0  0  0  0  0  0
  -28.0737  -12.3019   18.7063 C   0  0  0  0  0  0
  -27.6140  -13.2691   19.8262 C   0  0  2  0  0  0
  -28.6501  -13.4142   20.9608 C   0  0  0  0  0  0
  -25.2396  -13.8243   20.5741 C   0  0  0  0  0  0
  -24.1743  -13.0438   20.9256 C   0  0  0  0  0  0
  -24.6391  -11.6934   20.8765 C   0  0  0  0  0  0
  -23.9084  -10.4293   21.0410 C   0  0  0  0  0  0
  -24.3633   -9.4206   21.9185 C   0  0  0  0  0  0
  -23.6307   -8.2242   22.0750 C   0  0  0  0  0  0
  -22.4286   -8.0281   21.3544 C   0  0  0  0  0  0
  -21.9928   -9.0255   20.4643 C   0  0  0  0  0  0
  -22.7259  -10.2134   20.3055 C   0  0  0  0  0  0
  -21.6855   -6.0739   22.5281 C   0  0  0  0  0  0
  -21.4015   -6.5642   23.8214 C   0  0  0  0  0  0
  -21.3659   -5.6794   24.9175 C   0  0  0  0  0  0
  -21.6045   -4.3055   24.7226 C   0  0  0  0  0  0
  -21.8819   -3.8149   23.4346 C   0  0  0  0  0  0
  -21.9196   -4.6968   22.3404 C   0  0  0  0  0  0
  -22.7761  -13.5192   21.1912 C   0  0  0  0  0  0
  -22.1663   -4.2153   21.0981 F   0  0  0  0  0  0
  -21.5631   -3.4538   25.7738 F   0  0  0  0  0  0
  -29.8927  -13.8922   20.3375 N   0  0  0  0  0  0
  -26.2822  -12.9509   20.3229 N   0  0  0  0  0  0
  -25.9325  -11.6618   20.5732 N   0  0  0  0  0  0
  -22.0426  -12.8163   22.0464 N   0  0  0  0  0  0
  -25.4030  -15.1977   20.4173 N   0  0  0  0  0  0
  -31.6935  -15.1828   20.1597 O   0  0  0  0  0  0
  -21.6644   -6.8882   21.4241 O   0  0  0  0  0  0
  -22.3438  -14.5497   20.6759 O   0  0  0  0  0  0
  -24.6588  -31.8286   23.1761 C   0  0  0  0  0  0
  -25.9293  -32.4618   23.8201 C   0  0  1  0  0  0
  -27.2114  -26.9740   20.1745 C   0  0  0  0  0  0
  -25.5981  -33.8429   24.2108 N   0  0  0  0  0  0
  -23.4707  -30.4443   21.5237 C   0  0  2  0  0  0
  -24.9232  -28.8455   20.1093 C   0  0  0  0  0  0
  -22.7642  -29.4472   22.4790 C   0  0  0  0  0  0
  -18.0320  -28.1410   22.8475 C   0  0  0  0  0  0
  -24.1486  -36.7203   23.2645 C   0  0  0  0  0  0
  -26.0381  -30.6502   21.4006 C   0  0  0  0  0  0
  -26.1063  -29.2463   20.7427 C   0  0  0  0  0  0
  -27.2474  -28.3300   20.7549 C   0  0  0  0  0  0
  -26.0015  -26.7223   19.4877 C   0  0  0  0  0  0
  -24.8939  -27.6023   19.4623 C   0  0  0  0  0  0
  -23.7077  -29.7672   20.1472 C   0  0  0  0  0  0
  -25.4125  -36.2979   24.0306 C   0  0  1  0  0  0
  -20.5944  -28.3749   23.1193 C   0  0  2  0  0  0
  -20.6796  -26.9435   22.5401 C   0  0  0  0  0  0
  -19.5767  -26.6385   21.5213 C   0  0  0  0  0  0
  -18.1950  -26.7945   22.1627 C   0  0  0  0  0  0
  -19.1582  -28.8900   23.2826 C   0  0  0  0  0  0
  -18.9495  -30.1489   23.8861 C   0  0  0  0  0  0
  -17.6490  -30.6605   24.0555 C   0  0  0  0  0  0
  -25.9093  -34.9366   23.5024 C   0  0  0  0  0  0
  -16.5377  -29.9094   23.6348 C   0  0  0  0  0  0
  -16.7304  -28.6512   23.0375 C   0  0  0  0  0  0
  -26.4558  -31.6552   25.0712 C   0  0  0  0  0  0
  -25.3702  -31.3799   26.1381 C   0  0  0  0  0  0
  -27.0443  -30.2921   24.6420 C   0  0  0  0  0  0
  -27.6054  -32.4355   25.7514 C   0  0  0  0  0  0
  -27.5563  -37.1755   24.8468 C   0  0  0  0  0  0
  -21.4319  -29.3048   22.3543 N   0  0  0  0  0  0
  -26.4267  -37.3717   23.9420 N   0  0  0  0  0  0
  -24.7433  -30.9997   22.0872 N   0  0  0  0  0  0
  -23.4214  -28.8031   23.3007 O   0  0  0  0  0  0
  -28.1962  -25.8671   20.2637 O   0  0  0  0  0  0
  -26.5687  -34.8895   22.4609 O   0  0  0  0  0  0
  -23.5671  -32.1232   23.6885 O   0  0  0  0  0  0
  -28.2774  -20.1783   20.9076 C   0  0  0  0  0  0
  -30.1456  -20.7584   19.6963 C   0  0  0  0  0  0
  -27.8545  -21.6057   20.8710 C   0  0  0  0  0  0
  -29.7223  -22.1796   19.6571 C   0  0  0  0  0  0
  -29.4725  -19.6132   20.3050 C   0  0  0  0  0  0
  -28.5298  -22.7500   20.2537 C   0  0  0  0  0  0
  -30.1825  -18.0265   20.3361 C   0  0  0  0  0  0
  -27.8040  -24.3101   20.0193 C   0  0  0  0  0  0
  -29.7353  -16.4509   20.4631 N   0  0  0  0  0  0
  -31.4594  -12.9371   19.1947 H   0  0  0  0  0  0
  -30.4796  -11.8355   20.1142 H   0  0  0  0  0  0
  -29.8932  -11.7354   17.6652 H   0  0  0  0  0  0
  -29.5747  -13.4531   17.6556 H   0  0  0  0  0  0
  -28.0144  -11.2735   19.0644 H   0  0  0  0  0  0
  -27.4061  -12.3652   17.8463 H   0  0  0  0  0  0
  -27.5393  -14.2436   19.3423 H   0  0  0  0  0  0
  -28.7973  -12.4727   21.4919 H   0  0  0  0  0  0
  -28.3051  -14.1392   21.6999 H   0  0  0  0  0  0
  -25.2775   -9.5686   22.4766 H   0  0  0  0  0  0
  -24.0018   -7.4629   22.7465 H   0  0  0  0  0  0
  -21.0861   -8.8777   19.8943 H   0  0  0  0  0  0
  -22.3716  -10.9677   19.6168 H   0  0  0  0  0  0
  -21.2001   -7.6149   23.9719 H   0  0  0  0  0  0
  -21.1482   -6.0522   25.9080 H   0  0  0  0  0  0
  -22.0598   -2.7611   23.2844 H   0  0  0  0  0  0
  -22.4066  -11.9826   22.4836 H   0  0  0  0  0  0
  -21.1039  -13.1162   22.2684 H   0  0  0  0  0  0
  -24.6307  -15.8462   20.5268 H   0  0  0  0  0  0
  -26.2426  -15.6401   20.0678 H   0  0  0  0  0  0
  -26.7360  -32.5170   23.0915 H   0  0  0  0  0  0
  -25.0108  -33.9519   25.0247 H   0  0  0  0  0  0
  -22.7817  -31.2753   21.3586 H   0  0  0  0  0  0
  -23.3765  -35.9516   23.3288 H   0  0  0  0  0  0
  -24.3561  -36.8862   22.2063 H   0  0  0  0  0  0
  -23.7225  -37.6381   23.6704 H   0  0  0  0  0  0
  -26.2147  -31.3959   20.6243 H   0  0  0  0  0  0
  -26.8998  -30.7033   22.0539 H   0  0  0  0  0  0
  -28.1398  -28.6311   21.2848 H   0  0  0  0  0  0
  -25.8646  -25.7763   18.9864 H   0  0  0  0  0  0
  -23.9957  -27.2900   18.9472 H   0  0  0  0  0  0
  -23.8604  -30.5388   19.3918 H   0  0  0  0  0  0
  -22.8182  -29.2207   19.8291 H   0  0  0  0  0  0
  -25.1322  -36.1770   25.0795 H   0  0  0  0  0  0
  -21.0038  -28.3354   24.1314 H   0  0  0  0  0  0
  -20.5671  -26.2370   23.3639 H   0  0  0  0  0  0
  -21.6659  -26.7417   22.1202 H   0  0  0  0  0  0
  -19.6920  -25.6286   21.1269 H   0  0  0  0  0  0
  -19.6698  -27.3172   20.6723 H   0  0  0  0  0  0
  -17.4213  -26.6691   21.4036 H   0  0  0  0  0  0
  -18.0346  -26.0100   22.9037 H   0  0  0  0  0  0
  -19.7970  -30.7314   24.2214 H   0  0  0  0  0  0
  -17.5045  -31.6283   24.5161 H   0  0  0  0  0  0
  -15.5376  -30.2985   23.7697 H   0  0  0  0  0  0
  -15.8703  -28.0812   22.7124 H   0  0  0  0  0  0
  -24.5887  -30.7140   25.7706 H   0  0  0  0  0  0
  -24.8887  -32.3001   26.4697 H   0  0  0  0  0  0
  -25.7949  -30.9045   27.0232 H   0  0  0  0  0  0
  -26.3101  -29.6613   24.1393 H   0  0  0  0  0  0
  -27.3950  -29.7270   25.5066 H   0  0  0  0  0  0
  -27.9059  -30.4114   23.9849 H   0  0  0  0  0  0
  -27.2623  -33.3701   26.1969 H   0  0  0  0  0  0
  -28.3933  -32.6842   25.0392 H   0  0  0  0  0  0
  -28.0644  -31.8559   26.5535 H   0  0  0  0  0  0
  -28.2564  -38.0066   24.7527 H   0  0  0  0  0  0
  -28.1075  -36.2596   24.6281 H   0  0  0  0  0  0
  -27.2284  -37.1386   25.8872 H   0  0  0  0  0  0
  -20.9555  -29.8749   21.6692 H   0  0  0  0  0  0
  -26.0113  -38.2769   24.1454 H   0  0  0  0  0  0
  -27.6291  -19.4927   21.4361 H   0  0  0  0  0  0
  -31.0814  -20.5404   19.1999 H   0  0  0  0  0  0
  -26.9033  -21.8209   21.3381 H   0  0  0  0  0  0
  -30.3513  -22.8578   19.0974 H   0  0  0  0  0  0
  -30.9305  -18.1209   21.1241 H   0  0  0  0  0  0
  -30.7794  -18.0194   19.4234 H   0  0  0  0  0  0
  -26.8452  -24.2068   20.5276 H   0  0  0  0  0  0
  -27.5507  -24.2802   18.9596 H   0  0  0  0  0  0
  -28.7435  -16.3219   20.5965 H   0  0  0  0  0  0
  1 25  1  0  0  0
  1 30  2  0  0  0
  1 79  1  0  0  0
  2  3  1  0  0  0
  2 25  1  0  0  0
  2 80  1  0  0  0
  2 81  1  0  0  0
  3  4  1  0  0  0
  3 82  1  0  0  0
  3 83  1  0  0  0
  4  5  1  0  0  0
  4 84  1  0  0  0
  4 85  1  0  0  0
  5  6  1  0  0  0
  5 26  1  0  0  0
  5 86  1  0  0  0
  6 25  1  0  0  0
  6 87  1  0  0  0
  6 88  1  0  0  0
  7  8  2  0  0  0
  7 26  1  0  0  0
  7 29  1  0  0  0
  8  9  1  0  0  0
  8 22  1  0  0  0
  9 10  1  0  0  0
  9 27  2  0  0  0
 10 11  2  0  0  0
 10 15  1  0  0  0
 11 12  1  0  0  0
 11 89  1  0  0  0
 12 13  2  0  0  0
 12 90  1  0  0  0
 13 14  1  0  0  0
 13 31  1  0  0  0
 14 15  2  0  0  0
 14 91  1  0  0  0
 15 92  1  0  0  0
 16 17  2  0  0  0
 16 21  1  0  0  0
 16 31  1  0  0  0
 17 18  1  0  0  0
 17 93  1  0  0  0
 18 19  2  0  0  0
 18 94  1  0  0  0
 19 20  1  0  0  0
 19 24  1  0  0  0
 20 21  2  0  0  0
 20 95  1  0  0  0
 21 23  1  0  0  0
 22 28  1  0  0  0
 22 32  2  0  0  0
 26 27  1  0  0  0
 28 96  1  0  0  0
 28 97  1  0  0  0
 29 98  1  0  0  0
 29 99  1  0  0  0
 33 34  1  0  0  0
 33 66  1  0  0  0
 33 70  2  0  0  0
 34 36  1  0  0  0
 34 59  1  0  0  0
 34100  1  0  0  0
 35 44  2  0  0  0
 35 45  1  0  0  0
 35 68  1  0  0  0
 36 56  1  0  0  0
 36101  1  0  0  0
 37 39  1  0  0  0
 37 47  1  0  0  0
 37 66  1  0  0  0
 37102  1  0  0  0
 38 43  2  0  0  0
 38 46  1  0  0  0
 38 47  1  0  0  0
 39 64  1  0  0  0
 39 67  2  0  0  0
 40 52  1  0  0  0
 40 53  2  0  0  0
 40 58  1  0  0  0
 41103  1  0  0  0
 41104  1  0  0  0
 41105  1  0  0  0
 41 48  1  0  0  0
 42 43  1  0  0  0
 42 66  1  0  0  0
 42106  1  0  0  0
 42107  1  0  0  0
 43 44  1  0  0  0
 44108  1  0  0  0
 45 46  2  0  0  0
 45109  1  0  0  0
 46110  1  0  0  0
 47111  1  0  0  0
 47112  1  0  0  0
 48 56  1  0  0  0
 48 65  1  0  0  0
 48113  1  0  0  0
 49 50  1  0  0  0
 49 53  1  0  0  0
 49 64  1  0  0  0
 49114  1  0  0  0
 50 51  1  0  0  0
 50115  1  0  0  0
 50116  1  0  0  0
 51 52  1  0  0  0
 51117  1  0  0  0
 51118  1  0  0  0
 52119  1  0  0  0
 52120  1  0  0  0
 53 54  1  0  0  0
 54 55  2  0  0  0
 54121  1  0  0  0
 55 57  1  0  0  0
 55122  1  0  0  0
 56 69  2  0  0  0
 57 58  2  0  0  0
 57123  1  0  0  0
 58124  1  0  0  0
 59 60  1  0  0  0
 59 61  1  0  0  0
 59 62  1  0  0  0
 60125  1  0  0  0
 60126  1  0  0  0
 60127  1  0  0  0
 61128  1  0  0  0
 61129  1  0  0  0
 61130  1  0  0  0
 62131  1  0  0  0
 62132  1  0  0  0
 62133  1  0  0  0
 63 65  1  0  0  0
 63134  1  0  0  0
 63135  1  0  0  0
 63136  1  0  0  0
 64137  1  0  0  0
 65138  1  0  0  0
 68 78  1  0  0  0
 71 73  2  0  0  0
 71 75  1  0  0  0
 71139  1  0  0  0
 72 74  1  0  0  0
 72 75  2  0  0  0
 72140  1  0  0  0
 73 76  1  0  0  0
 73141  1  0  0  0
 74 76  2  0  0  0
 74142  1  0  0  0
 75 77  1  0  0  0
 76 78  1  0  0  0
 77 79  1  0  0  0
 77143  1  0  0  0
 77144  1  0  0  0
 78145  1  0  0  0
 78146  1  0  0  0
 79147  1  0  0  0
M  ISO  4   1 100  68 101  78 101  79 100
M  END
> <chiral flag>
0

> <version>
0

> <s_m_source_file>
/data/baiqing/PycharmProjects/Reinvent-master-3.2/result/LINK_invent/BTK/process_docking_weight1_custom_sum_contain_oxygen_bond_distance_aromatic_linkinvent_7_9_3/rearranged_h_0121.sdf

> <i_m_source_file_index>
61

> <r_mmod_Potential_Energy-OPLS-2005>
1015.4599609375

> <r_mmod_Stretch_Energy-OPLS-2005>
443.456787109375

> <r_mmod_Bend_Energy-OPLS-2005>
422.297058105469

> <r_mmod_Torsional_Energy-OPLS-2005>
215.021911621094

> <r_mmod_Improper_Torsional_Energy-OPLS-2005>
7.18429374694824

> <r_mmod_Van_der_Waal_Energy-OPLS-2005>
133.087112426758

> <r_mmod_Electrostatic_Energy-OPLS-2005>
-379.332244873047

> <r_mmod_Solvation_Energy-OPLS-2005>
-213.699493408203

> <b_mmod_Minimization_Converged-OPLS-2005>
0

> <r_mmod_RMS_Derivative-OPLS-2005>
0.623550474643707

$$$$
61
                    3D
 Structure written by MMmdl.
172182  0  0  1  0            999 V2000
  -30.7617  -14.3736   20.6710 C   0  0  0  0  0  0
  -30.4211  -12.2861   19.4032 C   0  0  0  0  0  0
  -29.4911  -12.5255   18.1987 C   0  0  0  0  0  0
  -28.0150  -12.3736   18.6116 C   0  0  0  0  0  0
  -27.6678  -13.1958   19.8797 C   0  0  2  0  0  0
  -28.7056  -12.9442   20.9981 C   0  0  0  0  0  0
  -25.2581  -13.8106   20.5612 C   0  0  0  0  0  0
  -24.1843  -13.0410   20.9169 C   0  0  0  0  0  0
  -24.6391  -11.6876   20.8742 C   0  0  0  0  0  0
  -23.9059  -10.4275   21.0411 C   0  0  0  0  0  0
  -24.3612   -9.4189   21.9188 C   0  0  0  0  0  0
  -23.6284   -8.2229   22.0756 C   0  0  0  0  0  0
  -22.4268   -8.0273   21.3544 C   0  0  0  0  0  0
  -21.9907   -9.0246   20.4644 C   0  0  0  0  0  0
  -22.7237  -10.2123   20.3052 C   0  0  0  0  0  0
  -21.6847   -6.0734   22.5281 C   0  0  0  0  0  0
  -21.4010   -6.5640   23.8215 C   0  0  0  0  0  0
  -21.3659   -5.6793   24.9177 C   0  0  0  0  0  0
  -21.6043   -4.3055   24.7229 C   0  0  0  0  0  0
  -21.8819   -3.8147   23.4350 C   0  0  0  0  0  0
  -21.9190   -4.6963   22.3404 C   0  0  0  0  0  0
  -22.7864  -13.5219   21.1837 C   0  0  0  0  0  0
  -22.1659   -4.2147   21.0982 F   0  0  0  0  0  0
  -21.5629   -3.4539   25.7742 F   0  0  0  0  0  0
  -30.0537  -13.2320   20.4673 N   0  0  0  0  0  0
  -26.3043  -12.9280   20.3353 N   0  0  0  0  0  0
  -25.9315  -11.6451   20.5761 N   0  0  0  0  0  0
  -22.0506  -12.8220   22.0398 N   0  0  0  0  0  0
  -25.4228  -15.1811   20.3899 N   0  0  0  0  0  0
  -31.7904  -14.6584   20.0504 O   0  0  0  0  0  0
  -21.6631   -6.8874   21.4239 O   0  0  0  0  0  0
  -22.3561  -14.5539   20.6696 O   0  0  0  0  0  0
  -24.6113  -31.8706   23.2106 C   0  0  0  0  0  0
  -25.9024  -32.4831   23.8393 C   0  0  1  0  0  0
  -27.2446  -27.4684   20.0911 C   0  0  0  0  0  0
  -25.5904  -33.8633   24.2315 N   0  0  0  0  0  0
  -23.3970  -30.4902   21.5518 C   0  0  2  0  0  0
  -24.8438  -28.9558   20.1174 C   0  0  0  0  0  0
  -22.7394  -29.4652   22.5025 C   0  0  0  0  0  0
  -18.0267  -28.1364   22.8468 C   0  0  0  0  0  0
  -24.1497  -36.7313   23.2637 C   0  0  0  0  0  0
  -25.9209  -30.8448   21.3589 C   0  0  0  0  0  0
  -25.9999  -29.4815   20.7055 C   0  0  0  0  0  0
  -27.2026  -28.7464   20.6848 C   0  0  0  0  0  0
  -26.0666  -26.9409   19.5110 C   0  0  0  0  0  0
  -24.8691  -27.6826   19.5205 C   0  0  0  0  0  0
  -23.6026  -29.8181   20.1666 C   0  0  0  0  0  0
  -25.4116  -36.3114   24.0327 C   0  0  1  0  0  0
  -20.5851  -28.3641   23.1326 C   0  0  2  0  0  0
  -20.6767  -26.9387   22.5409 C   0  0  0  0  0  0
  -19.5753  -26.6377   21.5198 C   0  0  0  0  0  0
  -18.1927  -26.7913   22.1604 C   0  0  0  0  0  0
  -19.1511  -28.8822   23.2891 C   0  0  0  0  0  0
  -18.9450  -30.1436   23.8894 C   0  0  0  0  0  0
  -17.6461  -30.6581   24.0546 C   0  0  0  0  0  0
  -25.9033  -34.9481   23.5114 C   0  0  0  0  0  0
  -16.5348  -29.9076   23.6323 C   0  0  0  0  0  0
  -16.7262  -28.6500   23.0329 C   0  0  0  0  0  0
  -26.4453  -31.6622   25.0725 C   0  0  0  0  0  0
  -25.3714  -31.3766   26.1483 C   0  0  0  0  0  0
  -27.0272  -30.3061   24.6095 C   0  0  0  0  0  0
  -27.6032  -32.4346   25.7490 C   0  0  0  0  0  0
  -27.5584  -37.1817   24.8462 C   0  0  0  0  0  0
  -21.4130  -29.3007   22.3752 N   0  0  0  0  0  0
  -26.4304  -37.3793   23.9391 N   0  0  0  0  0  0
  -24.6605  -31.0821   22.0990 N   0  0  0  0  0  0
  -23.4187  -28.8202   23.3056 O   0  0  0  0  0  0
  -28.4483  -26.8051   20.0825 O   0  0  0  0  0  0
  -26.5588  -34.8930   22.4676 O   0  0  0  0  0  0
  -23.5318  -32.1456   23.7519 O   0  0  0  0  0  0
  -31.6723  -18.5331   22.4980 C   0  0  0  0  0  0
  -31.5329  -17.1290   22.4845 C   0  0  0  0  0  0
  -30.5175  -16.5784   21.6669 C   0  0  0  0  0  0
  -30.8173  -19.3230   21.7072 C   0  0  0  0  0  0
  -29.7085  -17.4525   20.9070 C   0  0  0  0  0  0
  -31.9329  -15.4430   24.4603 C   0  0  0  0  0  0
  -32.8417  -16.6218   24.7198 C   0  0  0  0  0  0
  -31.3343  -21.3796   20.3119 C   0  0  0  0  0  0
  -29.5656  -21.4827   22.1239 C   0  0  0  0  0  0
  -31.2899  -22.9166   20.2376 C   0  0  0  0  0  0
  -29.5922  -23.0144   22.0077 C   0  0  0  0  0  0
  -32.4512  -16.2646   23.3022 C   0  0  0  0  0  0
  -30.9018  -20.8456   21.6915 C   0  0  1  0  0  0
  -28.5757  -16.9527   20.0358 C   0  0  0  0  0  0
  -29.8566  -24.9185   20.4447 C   0  0  0  0  0  0
  -28.4276  -25.3838   20.1121 C   0  0  0  0  0  0
  -29.8648  -18.7871   20.9188 N   0  0  0  0  0  0
  -30.2790  -15.1803   21.6247 N   0  0  0  0  0  0
  -29.9582  -23.4460   20.6316 N   0  3  1  0  0  0
  -31.4652  -12.3847   19.1004 H   0  0  0  0  0  0
  -30.3174  -11.2633   19.7678 H   0  0  0  0  0  0
  -29.7290  -11.8275   17.3950 H   0  0  0  0  0  0
  -29.6607  -13.5254   17.7970 H   0  0  0  0  0  0
  -27.8244  -11.3150   18.7921 H   0  0  0  0  0  0
  -27.3639  -12.6628   17.7855 H   0  0  0  0  0  0
  -27.7215  -14.2453   19.5998 H   0  0  0  0  0  0
  -28.6650  -11.9018   21.3183 H   0  0  0  0  0  0
  -28.4493  -13.5228   21.8856 H   0  0  0  0  0  0
  -25.2759   -9.5667   22.4761 H   0  0  0  0  0  0
  -23.9994   -7.4622   22.7478 H   0  0  0  0  0  0
  -21.0841   -8.8767   19.8946 H   0  0  0  0  0  0
  -22.3704  -10.9661   19.6162 H   0  0  0  0  0  0
  -21.2000   -7.6148   23.9718 H   0  0  0  0  0  0
  -21.1482   -6.0523   25.9081 H   0  0  0  0  0  0
  -22.0599   -2.7607   23.2850 H   0  0  0  0  0  0
  -22.4113  -11.9865   22.4767 H   0  0  0  0  0  0
  -21.1126  -13.1251   22.2613 H   0  0  0  0  0  0
  -24.6436  -15.8256   20.4689 H   0  0  0  0  0  0
  -26.2493  -15.6062   19.9936 H   0  0  0  0  0  0
  -26.7097  -32.5535   23.1161 H   0  0  0  0  0  0
  -25.0100  -33.9803   25.0488 H   0  0  0  0  0  0
  -22.6815  -31.3032   21.4122 H   0  0  0  0  0  0
  -23.3763  -35.9647   23.3317 H   0  0  0  0  0  0
  -24.3589  -36.8914   22.2049 H   0  0  0  0  0  0
  -23.7256  -37.6521   23.6648 H   0  0  0  0  0  0
  -26.0319  -31.6157   20.5955 H   0  0  0  0  0  0
  -26.8079  -30.8936   21.9785 H   0  0  0  0  0  0
  -28.1001  -29.1566   21.1259 H   0  0  0  0  0  0
  -26.0598  -25.9718   19.0348 H   0  0  0  0  0  0
  -23.9774  -27.2689   19.0678 H   0  0  0  0  0  0
  -23.7037  -30.5907   19.4036 H   0  0  0  0  0  0
  -22.7286  -29.2322   19.8776 H   0  0  0  0  0  0
  -25.1303  -36.1981   25.0820 H   0  0  0  0  0  0
  -20.9919  -28.3206   24.1457 H   0  0  0  0  0  0
  -20.5689  -26.2243   23.3588 H   0  0  0  0  0  0
  -21.6638  -26.7455   22.1193 H   0  0  0  0  0  0
  -19.6922  -25.6294   21.1219 H   0  0  0  0  0  0
  -19.6700  -27.3192   20.6735 H   0  0  0  0  0  0
  -17.4193  -26.6640   21.4010 H   0  0  0  0  0  0
  -18.0331  -26.0059   22.9006 H   0  0  0  0  0  0
  -19.7938  -30.7227   24.2270 H   0  0  0  0  0  0
  -17.5027  -31.6259   24.5152 H   0  0  0  0  0  0
  -15.5352  -30.2972   23.7670 H   0  0  0  0  0  0
  -15.8659  -28.0835   22.7026 H   0  0  0  0  0  0
  -24.5845  -30.7155   25.7835 H   0  0  0  0  0  0
  -24.8961  -32.2953   26.4939 H   0  0  0  0  0  0
  -25.8056  -30.8924   27.0238 H   0  0  0  0  0  0
  -26.2816  -29.6854   24.1114 H   0  0  0  0  0  0
  -27.4002  -29.7275   25.4557 H   0  0  0  0  0  0
  -27.8671  -30.4377   23.9267 H   0  0  0  0  0  0
  -27.2644  -33.3649   26.2070 H   0  0  0  0  0  0
  -28.3849  -32.6910   25.0324 H   0  0  0  0  0  0
  -28.0685  -31.8467   26.5412 H   0  0  0  0  0  0
  -28.2613  -38.0104   24.7501 H   0  0  0  0  0  0
  -28.1072  -36.2636   24.6313 H   0  0  0  0  0  0
  -27.2288  -37.1492   25.8861 H   0  0  0  0  0  0
  -20.9305  -29.8719   21.6958 H   0  0  0  0  0  0
  -26.0200  -38.2877   24.1387 H   0  0  0  0  0  0
  -32.4320  -18.9998   23.1101 H   0  0  0  0  0  0
  -30.8863  -15.5526   24.7377 H   0  0  0  0  0  0
  -32.3532  -14.4486   24.5991 H   0  0  0  0  0  0
  -33.8597  -16.4000   25.0352 H   0  0  0  0  0  0
  -32.3902  -17.4998   25.1784 H   0  0  0  0  0  0
  -32.3408  -21.0300   20.0816 H   0  0  0  0  0  0
  -30.6896  -20.9690   19.5343 H   0  0  0  0  0  0
  -28.7486  -21.1022   21.5090 H   0  0  0  0  0  0
  -29.3319  -21.1890   23.1477 H   0  0  0  0  0  0
  -31.5195  -23.2242   19.2171 H   0  0  0  0  0  0
  -32.0596  -23.3523   20.8761 H   0  0  0  0  0  0
  -30.3011  -23.4298   22.7265 H   0  0  0  0  0  0
  -28.6116  -23.4065   22.2795 H   0  0  0  0  0  0
  -33.2114  -15.8122   22.6682 H   0  0  0  0  0  0
  -31.6596  -21.1447   22.4188 H   0  0  0  0  0  0
  -28.9517  -16.3015   19.2471 H   0  0  0  0  0  0
  -28.0364  -17.7741   19.5626 H   0  0  0  0  0  0
  -27.8699  -16.4000   20.6527 H   0  0  0  0  0  0
  -30.2276  -25.4314   21.3336 H   0  0  0  0  0  0
  -30.5044  -25.2376   19.6270 H   0  0  0  0  0  0
  -27.7189  -25.0399   20.8664 H   0  0  0  0  0  0
  -28.1157  -24.9864   19.1460 H   0  0  0  0  0  0
  -29.4675  -14.8379   22.1169 H   0  0  0  0  0  0
  -29.2965  -23.0262   19.9934 H   0  0  0  0  0  0
  1 25  1  0  0  0
  1 30  2  0  0  0
  1 88  1  0  0  0
  2  3  1  0  0  0
  2 25  1  0  0  0
  2 90  1  0  0  0
  2 91  1  0  0  0
  3  4  1  0  0  0
  3 92  1  0  0  0
  3 93  1  0  0  0
  4  5  1  0  0  0
  4 94  1  0  0  0
  4 95  1  0  0  0
  5  6  1  0  0  0
  5 26  1  0  0  0
  5 96  1  0  0  0
  6 25  1  0  0  0
  6 97  1  0  0  0
  6 98  1  0  0  0
  7  8  2  0  0  0
  7 26  1  0  0  0
  7 29  1  0  0  0
  8  9  1  0  0  0
  8 22  1  0  0  0
  9 10  1  0  0  0
  9 27  2  0  0  0
 10 11  2  0  0  0
 10 15  1  0  0  0
 11 12  1  0  0  0
 11 99  1  0  0  0
 12 13  2  0  0  0
 12100  1  0  0  0
 13 14  1  0  0  0
 13 31  1  0  0  0
 14 15  2  0  0  0
 14101  1  0  0  0
 15102  1  0  0  0
 16 17  2  0  0  0
 16 21  1  0  0  0
 16 31  1  0  0  0
 17 18  1  0  0  0
 17103  1  0  0  0
 18 19  2  0  0  0
 18104  1  0  0  0
 19 20  1  0  0  0
 19 24  1  0  0  0
 20 21  2  0  0  0
 20105  1  0  0  0
 21 23  1  0  0  0
 22 28  1  0  0  0
 22 32  2  0  0  0
 26 27  1  0  0  0
 28106  1  0  0  0
 28107  1  0  0  0
 29108  1  0  0  0
 29109  1  0  0  0
 33 34  1  0  0  0
 33 66  1  0  0  0
 33 70  2  0  0  0
 34 36  1  0  0  0
 34 59  1  0  0  0
 34110  1  0  0  0
 35 44  2  0  0  0
 35 45  1  0  0  0
 35 68  1  0  0  0
 36 56  1  0  0  0
 36111  1  0  0  0
 37 39  1  0  0  0
 37 47  1  0  0  0
 37 66  1  0  0  0
 37112  1  0  0  0
 38 43  2  0  0  0
 38 46  1  0  0  0
 38 47  1  0  0  0
 39 64  1  0  0  0
 39 67  2  0  0  0
 40 52  1  0  0  0
 40 53  2  0  0  0
 40 58  1  0  0  0
 41113  1  0  0  0
 41114  1  0  0  0
 41115  1  0  0  0
 41 48  1  0  0  0
 42 43  1  0  0  0
 42 66  1  0  0  0
 42116  1  0  0  0
 42117  1  0  0  0
 43 44  1  0  0  0
 44118  1  0  0  0
 45 46  2  0  0  0
 45119  1  0  0  0
 46120  1  0  0  0
 47121  1  0  0  0
 47122  1  0  0  0
 48 56  1  0  0  0
 48 65  1  0  0  0
 48123  1  0  0  0
 49 50  1  0  0  0
 49 53  1  0  0  0
 49 64  1  0  0  0
 49124  1  0  0  0
 50 51  1  0  0  0
 50125  1  0  0  0
 50126  1  0  0  0
 51 52  1  0  0  0
 51127  1  0  0  0
 51128  1  0  0  0
 52129  1  0  0  0
 52130  1  0  0  0
 53 54  1  0  0  0
 54 55  2  0  0  0
 54131  1  0  0  0
 55 57  1  0  0  0
 55132  1  0  0  0
 56 69  2  0  0  0
 57 58  2  0  0  0
 57133  1  0  0  0
 58134  1  0  0  0
 59 60  1  0  0  0
 59 61  1  0  0  0
 59 62  1  0  0  0
 60135  1  0  0  0
 60136  1  0  0  0
 60137  1  0  0  0
 61138  1  0  0  0
 61139  1  0  0  0
 61140  1  0  0  0
 62141  1  0  0  0
 62142  1  0  0  0
 62143  1  0  0  0
 63 65  1  0  0  0
 63144  1  0  0  0
 63145  1  0  0  0
 63146  1  0  0  0
 64147  1  0  0  0
 65148  1  0  0  0
 68 86  1  0  0  0
 71 72  2  0  0  0
 71 74  1  0  0  0
 71149  1  0  0  0
 72 73  1  0  0  0
 72 82  1  0  0  0
 73 75  2  0  0  0
 73 88  1  0  0  0
 74 87  2  0  0  0
 74 83  1  0  0  0
 75 84  1  0  0  0
 75 87  1  0  0  0
 76 77  1  0  0  0
 76 82  1  0  0  0
 76150  1  0  0  0
 76151  1  0  0  0
 77 82  1  0  0  0
 77152  1  0  0  0
 77153  1  0  0  0
 78 80  1  0  0  0
 78 83  1  0  0  0
 78154  1  0  0  0
 78155  1  0  0  0
 79 81  1  0  0  0
 79 83  1  0  0  0
 79156  1  0  0  0
 79157  1  0  0  0
 80 89  1  0  0  0
 80158  1  0  0  0
 80159  1  0  0  0
 81 89  1  0  0  0
 81160  1  0  0  0
 81161  1  0  0  0
 82162  1  0  0  0
 83163  1  0  0  0
 84164  1  0  0  0
 84165  1  0  0  0
 84166  1  0  0  0
 85 86  1  0  0  0
 85167  1  0  0  0
 85168  1  0  0  0
 85 89  1  0  0  0
 86169  1  0  0  0
 86170  1  0  0  0
 88171  1  0  0  0
 89172  1  0  0  0
M  CHG  1  89   1
M  ISO  4   1 100  68 101  86 101  88 100
M  END
> <chiral flag>
0

> <version>
0

> <s_m_source_file>
/data/baiqing/PycharmProjects/Reinvent-master-3.2/result/LINK_invent/BTK/process_docking_weight1_custom_sum_contain_oxygen_bond_distance_aromatic_linkinvent_7_9_3/rearranged_h_0121.sdf

> <i_m_source_file_index>
62

> <r_mmod_Potential_Energy-OPLS-2005>
-342.216583251953

> <r_mmod_Stretch_Energy-OPLS-2005>
33.0470085144043

> <r_mmod_Bend_Energy-OPLS-2005>
92.1766204833984

> <r_mmod_Torsional_Energy-OPLS-2005>
287.717315673828

> <r_mmod_Improper_Torsional_Energy-OPLS-2005>
3.5064651966095

> <r_mmod_Van_der_Waal_Energy-OPLS-2005>
156.318756103516

> <r_mmod_Electrostatic_Energy-OPLS-2005>
-497.361114501953

> <r_mmod_Solvation_Energy-OPLS-2005>
-425.367797851562

> <b_mmod_Minimization_Converged-OPLS-2005>
0

> <r_mmod_RMS_Derivative-OPLS-2005>
1.71904039382935

$$$$
62
                    3D
 Structure written by MMmdl.
162170  0  0  1  0            999 V2000
  -30.7189  -14.4467   20.6190 C   0  0  0  0  0  0
  -30.4180  -12.3120   19.4075 C   0  0  0  0  0  0
  -29.4859  -12.5116   18.1965 C   0  0  0  0  0  0
  -28.0101  -12.3651   18.6154 C   0  0  0  0  0  0
  -27.6597  -13.2034   19.8740 C   0  0  2  0  0  0
  -28.6996  -12.9770   20.9925 C   0  0  0  0  0  0
  -25.2580  -13.8150   20.5674 C   0  0  0  0  0  0
  -24.1832  -13.0437   20.9174 C   0  0  0  0  0  0
  -24.6372  -11.6897   20.8729 C   0  0  0  0  0  0
  -23.9038  -10.4289   21.0407 C   0  0  0  0  0  0
  -24.3599   -9.4212   21.9186 C   0  0  0  0  0  0
  -23.6285   -8.2241   22.0759 C   0  0  0  0  0  0
  -22.4261   -8.0273   21.3552 C   0  0  0  0  0  0
  -21.9896   -9.0243   20.4647 C   0  0  0  0  0  0
  -22.7216  -10.2123   20.3057 C   0  0  0  0  0  0
  -21.6852   -6.0723   22.5281 C   0  0  0  0  0  0
  -21.4015   -6.5637   23.8216 C   0  0  0  0  0  0
  -21.3659   -5.6794   24.9177 C   0  0  0  0  0  0
  -21.6041   -4.3057   24.7236 C   0  0  0  0  0  0
  -21.8821   -3.8141   23.4365 C   0  0  0  0  0  0
  -21.9192   -4.6948   22.3413 C   0  0  0  0  0  0
  -22.7859  -13.5240   21.1848 C   0  0  0  0  0  0
  -22.1663   -4.2131   21.0993 F   0  0  0  0  0  0
  -21.5622   -3.4543   25.7755 F   0  0  0  0  0  0
  -30.0307  -13.2861   20.4407 N   0  0  0  0  0  0
  -26.3011  -12.9313   20.3355 N   0  0  0  0  0  0
  -25.9298  -11.6475   20.5752 N   0  0  0  0  0  0
  -22.0507  -12.8226   22.0398 N   0  0  0  0  0  0
  -25.4335  -15.1871   20.4077 N   0  0  0  0  0  0
  -31.8164  -14.6628   20.0992 O   0  0  0  0  0  0
  -21.6640   -6.8863   21.4240 O   0  0  0  0  0  0
  -22.3556  -14.5560   20.6710 O   0  0  0  0  0  0
  -24.6157  -31.8691   23.2089 C   0  0  0  0  0  0
  -25.9046  -32.4832   23.8388 C   0  0  1  0  0  0
  -27.2383  -27.4231   20.0917 C   0  0  0  0  0  0
  -25.5921  -33.8629   24.2333 N   0  0  0  0  0  0
  -23.4018  -30.4904   21.5519 C   0  0  2  0  0  0
  -24.8461  -28.9527   20.1172 C   0  0  0  0  0  0
  -22.7413  -29.4645   22.5019 C   0  0  0  0  0  0
  -18.0270  -28.1357   22.8470 C   0  0  0  0  0  0
  -24.1498  -36.7304   23.2636 C   0  0  0  0  0  0
  -25.9303  -30.8328   21.3597 C   0  0  0  0  0  0
  -26.0073  -29.4642   20.7088 C   0  0  0  0  0  0
  -27.2022  -28.7068   20.6920 C   0  0  0  0  0  0
  -26.0487  -26.9235   19.5093 C   0  0  0  0  0  0
  -24.8629  -27.6828   19.5164 C   0  0  0  0  0  0
  -23.6081  -29.8217   20.1662 C   0  0  0  0  0  0
  -25.4124  -36.3116   24.0335 C   0  0  1  0  0  0
  -20.5853  -28.3647   23.1333 C   0  0  2  0  0  0
  -20.6773  -26.9397   22.5406 C   0  0  0  0  0  0
  -19.5754  -26.6373   21.5194 C   0  0  0  0  0  0
  -18.1929  -26.7899   22.1601 C   0  0  0  0  0  0
  -19.1515  -28.8820   23.2888 C   0  0  0  0  0  0
  -18.9449  -30.1426   23.8905 C   0  0  0  0  0  0
  -17.6455  -30.6577   24.0543 C   0  0  0  0  0  0
  -25.9045  -34.9480   23.5126 C   0  0  0  0  0  0
  -16.5345  -29.9065   23.6329 C   0  0  0  0  0  0
  -16.7258  -28.6483   23.0336 C   0  0  0  0  0  0
  -26.4479  -31.6605   25.0705 C   0  0  0  0  0  0
  -25.3750  -31.3657   26.1453 C   0  0  0  0  0  0
  -27.0321  -30.3074   24.6021 C   0  0  0  0  0  0
  -27.6074  -32.4306   25.7462 C   0  0  0  0  0  0
  -27.5596  -37.1814   24.8470 C   0  0  0  0  0  0
  -21.4136  -29.3025   22.3772 N   0  0  0  0  0  0
  -26.4307  -37.3802   23.9406 N   0  0  0  0  0  0
  -24.6680  -31.0782   22.0993 N   0  0  0  0  0  0
  -23.4195  -28.8203   23.3067 O   0  0  0  0  0  0
  -28.4413  -26.7354   20.0793 O   0  0  0  0  0  0
  -26.5594  -34.8940   22.4680 O   0  0  0  0  0  0
  -23.5354  -32.1442   23.7492 O   0  0  0  0  0  0
  -28.0435  -22.2356   22.2401 C   0  0  0  0  0  0
  -29.4348  -22.2825   20.1708 C   0  0  0  0  0  0
  -27.9264  -20.7020   22.1111 C   0  0  0  0  0  0
  -29.3147  -20.7350   20.0872 C   0  0  0  0  0  0
  -28.2197  -22.9313   20.8745 C   0  0  2  0  0  0
  -28.3079  -24.4743   21.0646 C   0  0  0  0  0  0
  -30.4211  -17.9298   21.1239 C   0  0  0  0  0  0
  -30.7182  -16.6112   21.8981 C   0  0  0  0  0  0
  -29.0531  -18.6090   21.4120 C   0  0  0  0  0  0
  -28.4978  -25.3259   19.7882 C   0  0  0  0  0  0
  -30.1042  -15.3813   21.3697 N   0  0  0  0  0  0
  -29.1044  -20.1071   21.4229 N   0  3  2  0  0  0
  -31.4610  -12.4154   19.1025 H   0  0  0  0  0  0
  -30.3229  -11.2974   19.7976 H   0  0  0  0  0  0
  -29.7263  -11.7928   17.4120 H   0  0  0  0  0  0
  -29.6471  -13.5008   17.7647 H   0  0  0  0  0  0
  -27.8241  -11.3078   18.8105 H   0  0  0  0  0  0
  -27.3561  -12.6387   17.7871 H   0  0  0  0  0  0
  -27.7083  -14.2529   19.5838 H   0  0  0  0  0  0
  -28.6752  -11.9389   21.3259 H   0  0  0  0  0  0
  -28.4502  -13.5657   21.8764 H   0  0  0  0  0  0
  -25.2743   -9.5695   22.4762 H   0  0  0  0  0  0
  -23.9993   -7.4640   22.7490 H   0  0  0  0  0  0
  -21.0825   -8.8755   19.8964 H   0  0  0  0  0  0
  -22.3670  -10.9657   19.6167 H   0  0  0  0  0  0
  -21.2012   -7.6146   23.9711 H   0  0  0  0  0  0
  -21.1477   -6.0528   25.9081 H   0  0  0  0  0  0
  -22.0599   -2.7598   23.2876 H   0  0  0  0  0  0
  -22.4111  -11.9859   22.4744 H   0  0  0  0  0  0
  -21.1140  -13.1268   22.2636 H   0  0  0  0  0  0
  -24.6680  -15.8451   20.5068 H   0  0  0  0  0  0
  -26.2870  -15.6184   20.0776 H   0  0  0  0  0  0
  -26.7119  -32.5535   23.1152 H   0  0  0  0  0  0
  -25.0129  -33.9797   25.0525 H   0  0  0  0  0  0
  -22.6886  -31.3061   21.4163 H   0  0  0  0  0  0
  -23.3774  -35.9626   23.3308 H   0  0  0  0  0  0
  -24.3588  -36.8901   22.2044 H   0  0  0  0  0  0
  -23.7224  -37.6499   23.6651 H   0  0  0  0  0  0
  -26.0347  -31.6027   20.5936 H   0  0  0  0  0  0
  -26.8197  -30.8889   21.9755 H   0  0  0  0  0  0
  -28.0999  -29.1058   21.1445 H   0  0  0  0  0  0
  -26.0026  -25.9575   19.0327 H   0  0  0  0  0  0
  -23.9689  -27.2825   19.0570 H   0  0  0  0  0  0
  -23.7146  -30.5976   19.4075 H   0  0  0  0  0  0
  -22.7312  -29.2424   19.8706 H   0  0  0  0  0  0
  -25.1308  -36.1983   25.0828 H   0  0  0  0  0  0
  -20.9925  -28.3195   24.1457 H   0  0  0  0  0  0
  -20.5700  -26.2256   23.3583 H   0  0  0  0  0  0
  -21.6652  -26.7467   22.1200 H   0  0  0  0  0  0
  -19.6930  -25.6276   21.1236 H   0  0  0  0  0  0
  -19.6695  -27.3188   20.6729 H   0  0  0  0  0  0
  -17.4210  -26.6639   21.3992 H   0  0  0  0  0  0
  -18.0316  -26.0044   22.8999 H   0  0  0  0  0  0
  -19.7935  -30.7209   24.2314 H   0  0  0  0  0  0
  -17.5022  -31.6273   24.5105 H   0  0  0  0  0  0
  -15.5347  -30.2963   23.7670 H   0  0  0  0  0  0
  -15.8651  -28.0811   22.7051 H   0  0  0  0  0  0
  -24.5951  -30.6974   25.7772 H   0  0  0  0  0  0
  -24.8897  -32.2778   26.4933 H   0  0  0  0  0  0
  -25.8116  -30.8810   27.0190 H   0  0  0  0  0  0
  -26.2833  -29.6796   24.1168 H   0  0  0  0  0  0
  -27.4236  -29.7333   25.4424 H   0  0  0  0  0  0
  -27.8609  -30.4438   23.9066 H   0  0  0  0  0  0
  -27.2734  -33.3619   26.2045 H   0  0  0  0  0  0
  -28.3883  -32.6816   25.0272 H   0  0  0  0  0  0
  -28.0742  -31.8402   26.5351 H   0  0  0  0  0  0
  -28.2627  -38.0108   24.7563 H   0  0  0  0  0  0
  -28.1082  -36.2639   24.6279 H   0  0  0  0  0  0
  -27.2308  -37.1451   25.8872 H   0  0  0  0  0  0
  -20.9315  -29.8735   21.6976 H   0  0  0  0  0  0
  -26.0201  -38.2884   24.1404 H   0  0  0  0  0  0
  -28.8806  -22.4797   22.8960 H   0  0  0  0  0  0
  -27.1545  -22.6227   22.7406 H   0  0  0  0  0  0
  -29.5319  -22.6819   19.1602 H   0  0  0  0  0  0
  -30.3571  -22.5512   20.6887 H   0  0  0  0  0  0
  -27.0159  -20.4382   21.5719 H   0  0  0  0  0  0
  -27.8278  -20.2756   23.1109 H   0  0  0  0  0  0
  -30.2168  -20.3307   19.6281 H   0  0  0  0  0  0
  -28.4868  -20.4695   19.4287 H   0  0  0  0  0  0
  -27.3332  -22.7264   20.2711 H   0  0  0  0  0  0
  -29.1176  -24.7090   21.7557 H   0  0  0  0  0  0
  -27.3931  -24.8051   21.5590 H   0  0  0  0  0  0
  -30.5576  -17.7859   20.0504 H   0  0  0  0  0  0
  -31.2027  -18.6314   21.4183 H   0  0  0  0  0  0
  -30.4180  -16.7173   22.9411 H   0  0  0  0  0  0
  -31.8003  -16.4714   21.9382 H   0  0  0  0  0  0
  -28.7090  -18.2775   22.3927 H   0  0  0  0  0  0
  -28.3005  -18.2589   20.7046 H   0  0  0  0  0  0
  -29.4973  -25.1315   19.3973 H   0  0  0  0  0  0
  -27.8285  -25.0107   18.9910 H   0  0  0  0  0  0
  -29.2008  -15.1202   21.7373 H   0  0  0  0  0  0
  -29.9019  -20.3555   21.9898 H   0  0  0  0  0  0
  1 25  1  0  0  0
  1 30  2  0  0  0
  1 81  1  0  0  0
  2  3  1  0  0  0
  2 25  1  0  0  0
  2 83  1  0  0  0
  2 84  1  0  0  0
  3  4  1  0  0  0
  3 85  1  0  0  0
  3 86  1  0  0  0
  4  5  1  0  0  0
  4 87  1  0  0  0
  4 88  1  0  0  0
  5  6  1  0  0  0
  5 26  1  0  0  0
  5 89  1  0  0  0
  6 25  1  0  0  0
  6 90  1  0  0  0
  6 91  1  0  0  0
  7  8  2  0  0  0
  7 26  1  0  0  0
  7 29  1  0  0  0
  8  9  1  0  0  0
  8 22  1  0  0  0
  9 10  1  0  0  0
  9 27  2  0  0  0
 10 11  2  0  0  0
 10 15  1  0  0  0
 11 12  1  0  0  0
 11 92  1  0  0  0
 12 13  2  0  0  0
 12 93  1  0  0  0
 13 14  1  0  0  0
 13 31  1  0  0  0
 14 15  2  0  0  0
 14 94  1  0  0  0
 15 95  1  0  0  0
 16 17  2  0  0  0
 16 21  1  0  0  0
 16 31  1  0  0  0
 17 18  1  0  0  0
 17 96  1  0  0  0
 18 19  2  0  0  0
 18 97  1  0  0  0
 19 20  1  0  0  0
 19 24  1  0  0  0
 20 21  2  0  0  0
 20 98  1  0  0  0
 21 23  1  0  0  0
 22 28  1  0  0  0
 22 32  2  0  0  0
 26 27  1  0  0  0
 28 99  1  0  0  0
 28100  1  0  0  0
 29101  1  0  0  0
 29102  1  0  0  0
 33 34  1  0  0  0
 33 66  1  0  0  0
 33 70  2  0  0  0
 34 36  1  0  0  0
 34 59  1  0  0  0
 34103  1  0  0  0
 35 44  2  0  0  0
 35 45  1  0  0  0
 35 68  1  0  0  0
 36 56  1  0  0  0
 36104  1  0  0  0
 37 39  1  0  0  0
 37 47  1  0  0  0
 37 66  1  0  0  0
 37105  1  0  0  0
 38 43  2  0  0  0
 38 46  1  0  0  0
 38 47  1  0  0  0
 39 64  1  0  0  0
 39 67  2  0  0  0
 40 52  1  0  0  0
 40 53  2  0  0  0
 40 58  1  0  0  0
 41106  1  0  0  0
 41107  1  0  0  0
 41108  1  0  0  0
 41 48  1  0  0  0
 42 43  1  0  0  0
 42 66  1  0  0  0
 42109  1  0  0  0
 42110  1  0  0  0
 43 44  1  0  0  0
 44111  1  0  0  0
 45 46  2  0  0  0
 45112  1  0  0  0
 46113  1  0  0  0
 47114  1  0  0  0
 47115  1  0  0  0
 48 56  1  0  0  0
 48 65  1  0  0  0
 48116  1  0  0  0
 49 50  1  0  0  0
 49 53  1  0  0  0
 49 64  1  0  0  0
 49117  1  0  0  0
 50 51  1  0  0  0
 50118  1  0  0  0
 50119  1  0  0  0
 51 52  1  0  0  0
 51120  1  0  0  0
 51121  1  0  0  0
 52122  1  0  0  0
 52123  1  0  0  0
 53 54  1  0  0  0
 54 55  2  0  0  0
 54124  1  0  0  0
 55 57  1  0  0  0
 55125  1  0  0  0
 56 69  2  0  0  0
 57 58  2  0  0  0
 57126  1  0  0  0
 58127  1  0  0  0
 59 60  1  0  0  0
 59 61  1  0  0  0
 59 62  1  0  0  0
 60128  1  0  0  0
 60129  1  0  0  0
 60130  1  0  0  0
 61131  1  0  0  0
 61132  1  0  0  0
 61133  1  0  0  0
 62134  1  0  0  0
 62135  1  0  0  0
 62136  1  0  0  0
 63 65  1  0  0  0
 63137  1  0  0  0
 63138  1  0  0  0
 63139  1  0  0  0
 64140  1  0  0  0
 65141  1  0  0  0
 68 80  1  0  0  0
 71 73  1  0  0  0
 71 75  1  0  0  0
 71142  1  0  0  0
 71143  1  0  0  0
 72 74  1  0  0  0
 72 75  1  0  0  0
 72144  1  0  0  0
 72145  1  0  0  0
 73 82  1  0  0  0
 73146  1  0  0  0
 73147  1  0  0  0
 74 82  1  0  0  0
 74148  1  0  0  0
 74149  1  0  0  0
 75 76  1  0  0  0
 75150  1  0  0  0
 76 80  1  0  0  0
 76151  1  0  0  0
 76152  1  0  0  0
 77 78  1  0  0  0
 77 79  1  0  0  0
 77153  1  0  0  0
 77154  1  0  0  0
 78 81  1  0  0  0
 78155  1  0  0  0
 78156  1  0  0  0
 79157  1  0  0  0
 79158  1  0  0  0
 79 82  1  0  0  0
 80159  1  0  0  0
 80160  1  0  0  0
 81161  1  0  0  0
 82162  1  0  0  0
M  CHG  1  82   1
M  ISO  4   1 100  68 101  80 101  81 100
M  END
> <chiral flag>
0

> <version>
0

> <s_m_source_file>
/data/baiqing/PycharmProjects/Reinvent-master-3.2/result/LINK_invent/BTK/process_docking_weight1_custom_sum_contain_oxygen_bond_distance_aromatic_linkinvent_7_9_3/rearranged_h_0121.sdf

> <i_m_source_file_index>
63

> <r_mmod_Potential_Energy-OPLS-2005>
-116.58292388916

> <r_mmod_Stretch_Energy-OPLS-2005>
39.6753349304199

> <r_mmod_Bend_Energy-OPLS-2005>
112.464347839355

> <r_mmod_Torsional_Energy-OPLS-2005>
236.012512207031

> <r_mmod_Improper_Torsional_Energy-OPLS-2005>
2.23692965507507

> <r_mmod_Van_der_Waal_Energy-OPLS-2005>
136.570343017578

> <r_mmod_Electrostatic_Energy-OPLS-2005>
-203.661712646484

> <r_mmod_Solvation_Energy-OPLS-2005>
-450.701751708984

> <b_mmod_Minimization_Converged-OPLS-2005>
0

> <r_mmod_RMS_Derivative-OPLS-2005>
2.20670866966248

$$$$
63
                    3D
 Structure written by MMmdl.
172181  0  0  1  0            999 V2000
  -31.6607  -14.3135   20.0920 C   0  0  0  0  0  0
  -30.4591  -12.5149   19.2153 C   0  0  0  0  0  0
  -29.4123  -12.8812   18.2098 C   0  0  0  0  0  0
  -28.9016  -14.3914   18.4381 C   0  0  0  0  0  0
  -27.9885  -14.9915   19.8012 C   0  0  2  0  0  0
  -29.5007  -14.6284   20.6184 C   0  0  0  0  0  0
  -24.6686  -14.5703   20.8221 C   0  0  0  0  0  0
  -23.7958  -13.5046   21.1052 C   0  0  0  0  0  0
  -24.3398  -12.2150   20.9981 C   0  0  0  0  0  0
  -23.8458  -10.7398   21.0598 C   0  0  0  0  0  0
  -24.3556   -9.6986   21.9024 C   0  0  0  0  0  0
  -23.7026   -8.4289   22.0482 C   0  0  0  0  0  0
  -22.5066   -8.1370   21.3393 C   0  0  0  0  0  0
  -22.0492   -9.1255   20.4407 C   0  0  0  0  0  0
  -22.7045  -10.3757   20.3057 C   0  0  0  0  0  0
  -21.7630   -6.1181   22.5172 C   0  0  0  0  0  0
  -21.4576   -6.5958   23.8121 C   0  0  0  0  0  0
  -21.3747   -5.7014   24.9019 C   0  0  0  0  0  0
  -21.6002   -4.3260   24.7092 C   0  0  0  0  0  0
  -21.8831   -3.8391   23.4214 C   0  0  0  0  0  0
  -21.9497   -4.7289   22.3297 C   0  0  0  0  0  0
  -22.3812  -13.6992   21.3094 C   0  0  0  0  0  0
  -22.1792   -4.2366   21.0905 F   0  0  0  0  0  0
  -21.5487   -3.4688   25.7572 F   0  0  0  0  0  0
  -30.5469  -13.6386   20.1564 N   0  0  0  0  0  0
  -25.8751  -14.2132   20.5295 N   0  0  0  0  0  0
  -25.4245  -12.6826   20.5327 N   0  0  0  0  0  0
  -21.7671  -12.8660   22.1376 N   0  0  0  0  0  0
  -24.6310  -15.9074   20.7044 N   0  0  0  0  0  0
  -32.2345  -14.7038   21.0503 O   0  0  0  0  0  0
  -21.7872   -6.9481   21.4067 O   0  0  0  0  0  0
  -21.8442  -14.6326   20.7384 O   0  0  0  0  0  0
  -24.7734  -31.6586   23.0789 C   0  0  0  0  0  0
  -25.9842  -32.3752   23.7615 C   0  0  1  0  0  0
  -26.7399  -25.5054   20.3071 C   0  0  0  0  0  0
  -25.6006  -33.7670   24.1368 N   0  0  0  0  0  0
  -23.6077  -30.2525   21.4584 C   0  0  2  0  0  0
  -24.9596  -28.3516   20.1231 C   0  0  0  0  0  0
  -22.7982  -29.3648   22.4440 C   0  0  0  0  0  0
  -18.0364  -28.1427   22.8377 C   0  0  0  0  0  0
  -24.1530  -36.6928   23.2677 C   0  0  0  0  0  0
  -26.1860  -29.9721   21.4997 C   0  0  0  0  0  0
  -26.1341  -28.4186   20.8661 C   0  0  0  0  0  0
  -26.9928  -27.0548   20.8984 C   0  0  0  0  0  0
  -25.6717  -25.9579   19.4371 C   0  0  0  0  0  0
  -24.8431  -27.1638   19.3726 C   0  0  0  0  0  0
  -23.8805  -29.4882   20.1167 C   0  0  0  0  0  0
  -25.4188  -36.2514   24.0221 C   0  0  1  0  0  0
  -20.6010  -28.3800   23.0971 C   0  0  2  0  0  0
  -20.6752  -26.9369   22.5421 C   0  0  0  0  0  0
  -19.5761  -26.6324   21.5195 C   0  0  0  0  0  0
  -18.1951  -26.7952   22.1580 C   0  0  0  0  0  0
  -19.1634  -28.8964   23.2648 C   0  0  0  0  0  0
  -18.9555  -30.1528   23.8750 C   0  0  0  0  0  0
  -17.6543  -30.6589   24.0524 C   0  0  0  0  0  0
  -25.9188  -34.8898   23.4712 C   0  0  0  0  0  0
  -16.5429  -29.9061   23.6336 C   0  0  0  0  0  0
  -16.7359  -28.6482   23.0351 C   0  0  0  0  0  0
  -26.4745  -31.6276   25.0633 C   0  0  0  0  0  0
  -25.3592  -31.3871   26.1112 C   0  0  0  0  0  0
  -27.0842  -30.2542   24.7244 C   0  0  0  0  0  0
  -27.6023  -32.4362   25.7476 C   0  0  0  0  0  0
  -27.5519  -37.1621   24.8460 C   0  0  0  0  0  0
  -21.4594  -29.2875   22.3189 N   0  0  0  0  0  0
  -26.4222  -37.3381   23.9391 N   0  0  0  0  0  0
  -24.9037  -30.6934   22.0636 N   0  0  0  0  0  0
  -23.4011  -28.7368   23.3158 O   0  0  0  0  0  0
  -27.2486  -23.7142   20.3537 O   0  0  0  0  0  0
  -26.5984  -34.8678   22.4438 O   0  0  0  0  0  0
  -23.6596  -32.0212   23.5147 O   0  0  0  0  0  0
  -30.5159  -17.6546   19.1643 C   0  0  0  0  0  0
  -30.4207  -18.8376   21.2910 C   0  0  0  0  0  0
  -29.8183  -18.5064   20.0540 C   0  0  0  0  0  0
  -31.7868  -17.1730   19.5389 C   0  0  0  0  0  0
  -31.6555  -18.2429   21.6187 C   0  0  0  0  0  0
  -27.4737  -15.0349   22.0584 C   0  0  0  0  0  0
  -27.7373  -13.0108   20.7691 C   0  0  0  0  0  0
  -27.2517  -17.1472   21.5515 C   0  0  0  0  0  0
  -26.6956  -13.5621   18.5540 C   0  0  0  0  0  0
  -26.5152  -17.3137   18.8094 C   0  0  0  0  0  0
  -27.0967  -18.8034   20.1895 C   0  0  2  0  0  0
  -33.2035  -17.5180   23.3637 C   0  0  0  0  0  0
  -28.5239  -19.1658   19.6095 C   0  0  0  0  0  0
  -32.5272  -16.1026   18.7088 C   0  0  0  0  0  0
  -26.8102  -21.4222   20.2507 C   0  0  0  0  0  0
  -32.3427  -17.4959   20.7292 N   0  0  0  0  0  0
  -31.9614  -14.7759   18.8731 N   0  0  0  0  0  0
  -26.1585  -15.4681   18.3470 N   0  3  0  0  0  0
  -32.2222  -18.4454   22.8673 O   0  0  0  0  0  0
  -31.3806  -12.3627   18.6292 H   0  0  0  0  0  0
  -30.2731  -11.5776   19.7406 H   0  0  0  0  0  0
  -28.6750  -12.0785   18.2402 H   0  0  0  0  0  0
  -29.8270  -12.8107   17.2001 H   0  0  0  0  0  0
  -28.4909  -14.7281   17.4866 H   0  0  0  0  0  0
  -29.7100  -15.1043   18.3399 H   0  0  0  0  0  0
  -28.0894  -16.0536   19.7307 H   0  0  0  0  0  0
  -29.5287  -14.2432   21.6372 H   0  0  0  0  0  0
  -29.8693  -15.6494   20.8050 H   0  0  0  0  0  0
  -25.2394   -9.9121   22.4885 H   0  0  0  0  0  0
  -24.1331   -7.7025   22.7233 H   0  0  0  0  0  0
  -21.1660   -8.9476   19.8421 H   0  0  0  0  0  0
  -22.2850  -11.1145   19.6339 H   0  0  0  0  0  0
  -21.2801   -7.6498   23.9735 H   0  0  0  0  0  0
  -21.1343   -6.0655   25.8900 H   0  0  0  0  0  0
  -22.0377   -2.7811   23.2745 H   0  0  0  0  0  0
  -22.2761  -12.1342   22.6118 H   0  0  0  0  0  0
  -20.7713  -12.9410   22.3008 H   0  0  0  0  0  0
  -23.8145  -16.3280   21.1373 H   0  0  0  0  0  0
  -25.4660  -16.3201   21.1096 H   0  0  0  0  0  0
  -26.7992  -32.4016   23.0365 H   0  0  0  0  0  0
  -24.9908  -33.8539   24.9369 H   0  0  0  0  0  0
  -23.0030  -31.1303   21.2152 H   0  0  0  0  0  0
  -23.3766  -35.9261   23.3170 H   0  0  0  0  0  0
  -24.3588  -36.8808   22.2114 H   0  0  0  0  0  0
  -23.7308  -37.6050   23.6930 H   0  0  0  0  0  0
  -26.5054  -30.6020   20.6684 H   0  0  0  0  0  0
  -27.0253  -30.0324   22.1787 H   0  0  0  0  0  0
  -27.8711  -27.1248   21.5240 H   0  0  0  0  0  0
  -25.3294  -25.1804   18.7663 H   0  0  0  0  0  0
  -24.0080  -27.1135   18.6902 H   0  0  0  0  0  0
  -24.1864  -30.2086   19.3566 H   0  0  0  0  0  0
  -22.9441  -29.0690   19.7483 H   0  0  0  0  0  0
  -25.1428  -36.1141   25.0697 H   0  0  0  0  0  0
  -21.0079  -28.3536   24.1104 H   0  0  0  0  0  0
  -20.5456  -26.2477   23.3761 H   0  0  0  0  0  0
  -21.6609  -26.7123   22.1336 H   0  0  0  0  0  0
  -19.6872  -25.6203   21.1274 H   0  0  0  0  0  0
  -19.6744  -27.3088   20.6675 H   0  0  0  0  0  0
  -17.4224  -26.6718   21.3985 H   0  0  0  0  0  0
  -18.0308  -26.0138   22.9001 H   0  0  0  0  0  0
  -19.8050  -30.7336   24.2089 H   0  0  0  0  0  0
  -17.5098  -31.6243   24.5162 H   0  0  0  0  0  0
  -15.5406  -30.2907   23.7737 H   0  0  0  0  0  0
  -15.8780  -28.0744   22.7137 H   0  0  0  0  0  0
  -24.5899  -30.7045   25.7477 H   0  0  0  0  0  0
  -24.8629  -32.3150   26.3963 H   0  0  0  0  0  0
  -25.7598  -30.9465   27.0257 H   0  0  0  0  0  0
  -26.3640  -29.5708   24.2751 H   0  0  0  0  0  0
  -27.4323  -29.7570   25.6315 H   0  0  0  0  0  0
  -27.9588  -30.3428   24.0800 H   0  0  0  0  0  0
  -27.2509  -33.3914   26.1399 H   0  0  0  0  0  0
  -28.4191  -32.6478   25.0554 H   0  0  0  0  0  0
  -28.0289  -31.8910   26.5917 H   0  0  0  0  0  0
  -28.2440  -38.0001   24.7448 H   0  0  0  0  0  0
  -28.1117  -36.2491   24.6348 H   0  0  0  0  0  0
  -27.2237  -37.1300   25.8869 H   0  0  0  0  0  0
  -21.0070  -29.8532   21.6143 H   0  0  0  0  0  0
  -25.9961  -38.2388   24.1377 H   0  0  0  0  0  0
  -30.0868  -17.3852   18.2040 H   0  0  0  0  0  0
  -29.9388  -19.5269   21.9747 H   0  0  0  0  0  0
  -28.1738  -15.0205   22.8958 H   0  0  0  0  0  0
  -26.5755  -14.8841   22.6711 H   0  0  0  0  0  0
  -27.3730  -12.2201   21.4429 H   0  0  0  0  0  0
  -28.6401  -12.4330   20.7350 H   0  0  0  0  0  0
  -28.0757  -17.4866   22.1671 H   0  0  0  0  0  0
  -26.4367  -17.4046   22.2353 H   0  0  0  0  0  0
  -25.8095  -12.9684   18.3173 H   0  0  0  0  0  0
  -27.1167  -13.1979   17.6243 H   0  0  0  0  0  0
  -27.2233  -17.5023   18.0053 H   0  0  0  0  0  0
  -25.5909  -17.7699   18.4591 H   0  0  0  0  0  0
  -33.7619  -17.9807   24.1822 H   0  0  0  0  0  0
  -33.9556  -17.1756   22.6479 H   0  0  0  0  0  0
  -32.6874  -16.6394   23.7548 H   0  0  0  0  0  0
  -28.5140  -19.1504   18.5282 H   0  0  0  0  0  0
  -28.7304  -20.2198   19.7979 H   0  0  0  0  0  0
  -33.5891  -16.0056   18.9559 H   0  0  0  0  0  0
  -32.4073  -16.3312   17.6534 H   0  0  0  0  0  0
  -25.9492  -21.4242   20.9234 H   0  0  0  0  0  0
  -26.3538  -21.4837   19.2620 H   0  0  0  0  0  0
  -31.4277  -14.4003   18.0991 H   0  0  0  0  0  0
  -25.9935  -15.5199   17.3572 H   0  0  0  0  0  0
  -25.2259  -15.4158   18.7399 H   0  0  0  0  0  0
  1 25  1  0  0  0
  1 30  2  0  0  0
  1 87  1  0  0  0
  2  3  1  0  0  0
  2 25  1  0  0  0
  2 90  1  0  0  0
  2 91  1  0  0  0
  3  4  1  0  0  0
  3 92  1  0  0  0
  3 93  1  0  0  0
  4  5  1  0  0  0
  4 94  1  0  0  0
  4 95  1  0  0  0
  5  6  1  0  0  0
  5 26  1  0  0  0
  5 96  1  0  0  0
  6 25  1  0  0  0
  6 97  1  0  0  0
  6 98  1  0  0  0
  7  8  2  0  0  0
  7 26  1  0  0  0
  7 29  1  0  0  0
  8  9  1  0  0  0
  8 22  1  0  0  0
  9 10  1  0  0  0
  9 27  2  0  0  0
 10 11  2  0  0  0
 10 15  1  0  0  0
 11 12  1  0  0  0
 11 99  1  0  0  0
 12 13  2  0  0  0
 12100  1  0  0  0
 13 14  1  0  0  0
 13 31  1  0  0  0
 14 15  2  0  0  0
 14101  1  0  0  0
 15102  1  0  0  0
 16 17  2  0  0  0
 16 21  1  0  0  0
 16 31  1  0  0  0
 17 18  1  0  0  0
 17103  1  0  0  0
 18 19  2  0  0  0
 18104  1  0  0  0
 19 20  1  0  0  0
 19 24  1  0  0  0
 20 21  2  0  0  0
 20105  1  0  0  0
 21 23  1  0  0  0
 22 28  1  0  0  0
 22 32  2  0  0  0
 26 27  1  0  0  0
 28106  1  0  0  0
 28107  1  0  0  0
 29108  1  0  0  0
 29109  1  0  0  0
 33 34  1  0  0  0
 33 66  1  0  0  0
 33 70  2  0  0  0
 34 36  1  0  0  0
 34 59  1  0  0  0
 34110  1  0  0  0
 35 44  2  0  0  0
 35 45  1  0  0  0
 35 68  1  0  0  0
 36 56  1  0  0  0
 36111  1  0  0  0
 37 39  1  0  0  0
 37 47  1  0  0  0
 37 66  1  0  0  0
 37112  1  0  0  0
 38 43  2  0  0  0
 38 46  1  0  0  0
 38 47  1  0  0  0
 39 64  1  0  0  0
 39 67  2  0  0  0
 40 52  1  0  0  0
 40 53  2  0  0  0
 40 58  1  0  0  0
 41113  1  0  0  0
 41114  1  0  0  0
 41115  1  0  0  0
 41 48  1  0  0  0
 42 43  1  0  0  0
 42 66  1  0  0  0
 42116  1  0  0  0
 42117  1  0  0  0
 43 44  1  0  0  0
 44118  1  0  0  0
 45 46  2  0  0  0
 45119  1  0  0  0
 46120  1  0  0  0
 47121  1  0  0  0
 47122  1  0  0  0
 48 56  1  0  0  0
 48 65  1  0  0  0
 48123  1  0  0  0
 49 50  1  0  0  0
 49 53  1  0  0  0
 49 64  1  0  0  0
 49124  1  0  0  0
 50 51  1  0  0  0
 50125  1  0  0  0
 50126  1  0  0  0
 51 52  1  0  0  0
 51127  1  0  0  0
 51128  1  0  0  0
 52129  1  0  0  0
 52130  1  0  0  0
 53 54  1  0  0  0
 54 55  2  0  0  0
 54131  1  0  0  0
 55 57  1  0  0  0
 55132  1  0  0  0
 56 69  2  0  0  0
 57 58  2  0  0  0
 57133  1  0  0  0
 58134  1  0  0  0
 59 60  1  0  0  0
 59 61  1  0  0  0
 59 62  1  0  0  0
 60135  1  0  0  0
 60136  1  0  0  0
 60137  1  0  0  0
 61138  1  0  0  0
 61139  1  0  0  0
 61140  1  0  0  0
 62141  1  0  0  0
 62142  1  0  0  0
 62143  1  0  0  0
 63 65  1  0  0  0
 63144  1  0  0  0
 63145  1  0  0  0
 63146  1  0  0  0
 64147  1  0  0  0
 65148  1  0  0  0
 68 85  1  0  0  0
 71 73  2  0  0  0
 71 74  1  0  0  0
 71149  1  0  0  0
 72 73  1  0  0  0
 72 75  2  0  0  0
 72150  1  0  0  0
 73 83  1  0  0  0
 74 84  1  0  0  0
 74 86  2  0  0  0
 75 86  1  0  0  0
 75 89  1  0  0  0
 76 77  1  0  0  0
 76 78  1  0  0  0
 76151  1  0  0  0
 76152  1  0  0  0
 77 79  1  0  0  0
 77153  1  0  0  0
 77154  1  0  0  0
 78 81  1  0  0  0
 78155  1  0  0  0
 78156  1  0  0  0
 79 88  1  0  0  0
 79157  1  0  0  0
 79158  1  0  0  0
 80 81  1  0  0  0
 80 88  1  0  0  0
 80159  1  0  0  0
 80160  1  0  0  0
 81 83  1  0  0  0
 81 85  1  0  0  0
 82 89  1  0  0  0
 82161  1  0  0  0
 82162  1  0  0  0
 82163  1  0  0  0
 83164  1  0  0  0
 83165  1  0  0  0
 84 87  1  0  0  0
 84166  1  0  0  0
 84167  1  0  0  0
 85168  1  0  0  0
 85169  1  0  0  0
 87170  1  0  0  0
 88171  1  0  0  0
 88172  1  0  0  0
M  CHG  1  88   1
M  ISO  4   1 100  68 101  85 101  87 100
M  END
> <chiral flag>
0

> <version>
0

> <s_m_source_file>
/data/baiqing/PycharmProjects/Reinvent-master-3.2/result/LINK_invent/BTK/process_docking_weight1_custom_sum_contain_oxygen_bond_distance_aromatic_linkinvent_7_9_3/rearranged_h_0121.sdf

> <i_m_source_file_index>
64

> <r_mmod_Potential_Energy-OPLS-2005>
16750.9453125

> <r_mmod_Stretch_Energy-OPLS-2005>
8780.0595703125

> <r_mmod_Bend_Energy-OPLS-2005>
2027.59118652344

> <r_mmod_Torsional_Energy-OPLS-2005>
430.557373046875

> <r_mmod_Improper_Torsional_Energy-OPLS-2005>
19.6097373962402

> <r_mmod_Van_der_Waal_Energy-OPLS-2005>
2133.12622070312

> <r_mmod_Electrostatic_Energy-OPLS-2005>
-636.115173339844

> <r_mmod_Solvation_Energy-OPLS-2005>
-468.609771728516

> <b_mmod_Minimization_Converged-OPLS-2005>
0

> <r_mmod_RMS_Derivative-OPLS-2005>
21.2726306915283

$$$$
64
                    3D
 Structure written by MMmdl.
180188  0  0  1  0            999 V2000
  -30.7979  -14.3108   20.7509 C   0  0  0  0  0  0
  -30.4182  -12.2961   19.3755 C   0  0  0  0  0  0
  -29.4843  -12.5641   18.1834 C   0  0  0  0  0  0
  -28.0095  -12.4016   18.6001 C   0  0  0  0  0  0
  -27.6702  -13.1992   19.8868 C   0  0  2  0  0  0
  -28.7086  -12.9095   20.9926 C   0  0  0  0  0  0
  -25.2623  -13.8131   20.5696 C   0  0  0  0  0  0
  -24.1858  -13.0422   20.9166 C   0  0  0  0  0  0
  -24.6383  -11.6890   20.8693 C   0  0  0  0  0  0
  -23.9036  -10.4290   21.0369 C   0  0  0  0  0  0
  -24.3592   -9.4221   21.9166 C   0  0  0  0  0  0
  -23.6274   -8.2251   22.0740 C   0  0  0  0  0  0
  -22.4260   -8.0277   21.3536 C   0  0  0  0  0  0
  -21.9887   -9.0241   20.4632 C   0  0  0  0  0  0
  -22.7200  -10.2122   20.3024 C   0  0  0  0  0  0
  -21.6859   -6.0718   22.5273 C   0  0  0  0  0  0
  -21.4016   -6.5621   23.8212 C   0  0  0  0  0  0
  -21.3660   -5.6775   24.9164 C   0  0  0  0  0  0
  -21.6054   -4.3035   24.7221 C   0  0  0  0  0  0
  -21.8820   -3.8128   23.4347 C   0  0  0  0  0  0
  -21.9197   -4.6948   22.3395 C   0  0  0  0  0  0
  -22.7896  -13.5246   21.1834 C   0  0  0  0  0  0
  -22.1668   -4.2129   21.0977 F   0  0  0  0  0  0
  -21.5633   -3.4525   25.7738 F   0  0  0  0  0  0
  -30.0546  -13.2089   20.4689 N   0  0  0  0  0  0
  -26.3062  -12.9294   20.3396 N   0  0  0  0  0  0
  -25.9305  -11.6448   20.5716 N   0  0  0  0  0  0
  -22.0509  -12.8242   22.0366 N   0  0  0  0  0  0
  -25.4351  -15.1850   20.4121 N   0  0  0  0  0  0
  -31.7549  -14.6855   20.0646 O   0  0  0  0  0  0
  -21.6635   -6.8867   21.4236 O   0  0  0  0  0  0
  -22.3604  -14.5560   20.6681 O   0  0  0  0  0  0
  -24.6112  -31.8693   23.2088 C   0  0  0  0  0  0
  -25.9013  -32.4826   23.8365 C   0  0  1  0  0  0
  -27.2515  -27.4629   20.0734 C   0  0  0  0  0  0
  -25.5897  -33.8628   24.2312 N   0  0  0  0  0  0
  -23.3978  -30.4922   21.5464 C   0  0  2  0  0  0
  -24.8445  -28.9532   20.1153 C   0  0  0  0  0  0
  -22.7388  -29.4678   22.4970 C   0  0  0  0  0  0
  -18.0265  -28.1401   22.8491 C   0  0  0  0  0  0
  -24.1483  -36.7289   23.2641 C   0  0  0  0  0  0
  -25.9221  -30.8405   21.3564 C   0  0  0  0  0  0
  -26.0002  -29.4740   20.7085 C   0  0  0  0  0  0
  -27.2002  -28.7333   20.6888 C   0  0  0  0  0  0
  -26.0696  -26.9418   19.4952 C   0  0  0  0  0  0
  -24.8724  -27.6835   19.5104 C   0  0  0  0  0  0
  -23.6053  -29.8172   20.1623 C   0  0  0  0  0  0
  -25.4106  -36.3112   24.0343 C   0  0  1  0  0  0
  -20.5855  -28.3680   23.1309 C   0  0  2  0  0  0
  -20.6751  -26.9417   22.5415 C   0  0  0  0  0  0
  -19.5741  -26.6405   21.5203 C   0  0  0  0  0  0
  -18.1917  -26.7948   22.1616 C   0  0  0  0  0  0
  -19.1515  -28.8848   23.2907 C   0  0  0  0  0  0
  -18.9455  -30.1454   23.8922 C   0  0  0  0  0  0
  -17.6472  -30.6607   24.0576 C   0  0  0  0  0  0
  -25.9044  -34.9483   23.5121 C   0  0  0  0  0  0
  -16.5349  -29.9123   23.6329 C   0  0  0  0  0  0
  -16.7259  -28.6539   23.0352 C   0  0  0  0  0  0
  -26.4458  -31.6614   25.0694 C   0  0  0  0  0  0
  -25.3731  -31.3708   26.1446 C   0  0  0  0  0  0
  -27.0280  -30.3065   24.6046 C   0  0  0  0  0  0
  -27.6031  -32.4322   25.7448 C   0  0  0  0  0  0
  -27.5570  -37.1802   24.8477 C   0  0  0  0  0  0
  -21.4116  -29.3056   22.3717 N   0  0  0  0  0  0
  -26.4290  -37.3803   23.9419 N   0  0  0  0  0  0
  -24.6611  -31.0820   22.0958 N   0  0  0  0  0  0
  -23.4174  -28.8235   23.3019 O   0  0  0  0  0  0
  -28.4658  -26.8093   20.0597 O   0  0  0  0  0  0
  -26.5609  -34.8933   22.4683 O   0  0  0  0  0  0
  -23.5311  -32.1422   23.7515 O   0  0  0  0  0  0
  -34.1824  -19.8626   21.1716 C   0  0  0  0  0  0
  -34.1202  -21.3963   21.1747 C   0  0  0  0  0  0
  -33.2885  -19.2656   20.0700 C   0  0  0  0  0  0
  -32.6671  -21.9007   21.2452 C   0  0  0  0  0  0
  -31.8270  -19.7727   20.1418 C   0  0  2  0  0  0
  -31.7786  -21.3339   20.1029 C   0  0  2  0  0  0
  -31.4557  -21.2780   17.5024 C   0  0  0  0  0  0
  -31.6982  -14.6824   22.9787 C   0  0  0  0  0  0
  -31.0559  -19.2111   21.3655 C   0  0  0  0  0  0
  -29.5713  -15.7829   22.3147 C   0  0  0  0  0  0
  -30.0733  -17.2375   22.4595 C   0  0  0  0  0  0
  -30.0887  -25.1918   19.3557 C   0  0  0  0  0  0
  -31.7925  -23.5094   18.6661 C   0  0  0  0  0  0
  -28.5876  -25.5402   19.4195 C   0  0  0  0  0  0
  -32.1010  -21.9865   18.7127 C   0  0  1  0  0  0
  -30.6215  -14.8058   21.9946 N   0  0  0  0  0  0
  -30.7833  -17.7614   21.2698 N   0  3  0  0  0  0
  -30.3544  -23.8195   18.8590 N   0  3  0  0  0  0
  -31.4627  -12.4045   19.0752 H   0  0  0  0  0  0
  -30.3161  -11.2624   19.7105 H   0  0  0  0  0  0
  -29.7245  -11.8946   17.3563 H   0  0  0  0  0  0
  -29.6521  -13.5767   17.8119 H   0  0  0  0  0  0
  -27.8211  -11.3395   18.7609 H   0  0  0  0  0  0
  -27.3524  -12.7069   17.7842 H   0  0  0  0  0  0
  -27.7367  -14.2588   19.6382 H   0  0  0  0  0  0
  -28.6687  -11.8573   21.2777 H   0  0  0  0  0  0
  -28.4542  -13.4512   21.9010 H   0  0  0  0  0  0
  -25.2727   -9.5711   22.4746 H   0  0  0  0  0  0
  -23.9989   -7.4647   22.7458 H   0  0  0  0  0  0
  -21.0819   -8.8722   19.8953 H   0  0  0  0  0  0
  -22.3632  -10.9638   19.6128 H   0  0  0  0  0  0
  -21.2000   -7.6131   23.9707 H   0  0  0  0  0  0
  -21.1488   -6.0500   25.9075 H   0  0  0  0  0  0
  -22.0597   -2.7590   23.2835 H   0  0  0  0  0  0
  -22.4097  -11.9882   22.4734 H   0  0  0  0  0  0
  -21.1134  -13.1298   22.2538 H   0  0  0  0  0  0
  -24.6631  -15.8343   20.5208 H   0  0  0  0  0  0
  -26.2805  -15.6282   20.0759 H   0  0  0  0  0  0
  -26.7084  -32.5557   23.1133 H   0  0  0  0  0  0
  -25.0087  -33.9796   25.0478 H   0  0  0  0  0  0
  -22.6857  -31.3077   21.4052 H   0  0  0  0  0  0
  -23.3769  -35.9602   23.3332 H   0  0  0  0  0  0
  -24.3584  -36.8879   22.2053 H   0  0  0  0  0  0
  -23.7198  -37.6485   23.6630 H   0  0  0  0  0  0
  -26.0298  -31.6068   20.5874 H   0  0  0  0  0  0
  -26.8120  -30.8957   21.9717 H   0  0  0  0  0  0
  -28.0952  -29.1424   21.1372 H   0  0  0  0  0  0
  -26.0477  -25.9716   19.0218 H   0  0  0  0  0  0
  -23.9849  -27.2723   19.0500 H   0  0  0  0  0  0
  -23.7101  -30.5884   19.3983 H   0  0  0  0  0  0
  -22.7317  -29.2313   19.8702 H   0  0  0  0  0  0
  -25.1288  -36.1965   25.0839 H   0  0  0  0  0  0
  -20.9951  -28.3237   24.1425 H   0  0  0  0  0  0
  -20.5641  -26.2286   23.3603 H   0  0  0  0  0  0
  -21.6621  -26.7478   22.1205 H   0  0  0  0  0  0
  -19.6912  -25.6319   21.1219 H   0  0  0  0  0  0
  -19.6683  -27.3213   20.6732 H   0  0  0  0  0  0
  -17.4186  -26.6694   21.4023 H   0  0  0  0  0  0
  -18.0348  -26.0087   22.9017 H   0  0  0  0  0  0
  -19.7944  -30.7263   24.2288 H   0  0  0  0  0  0
  -17.5041  -31.6279   24.5195 H   0  0  0  0  0  0
  -15.5362  -30.3049   23.7652 H   0  0  0  0  0  0
  -15.8656  -28.0882   22.7054 H   0  0  0  0  0  0
  -24.5905  -30.7067   25.7778 H   0  0  0  0  0  0
  -24.8919  -32.2861   26.4901 H   0  0  0  0  0  0
  -25.8090  -30.8873   27.0199 H   0  0  0  0  0  0
  -26.2804  -29.6833   24.1134 H   0  0  0  0  0  0
  -27.4105  -29.7309   25.4485 H   0  0  0  0  0  0
  -27.8614  -30.4419   23.9148 H   0  0  0  0  0  0
  -27.2657  -33.3625   26.2031 H   0  0  0  0  0  0
  -28.3822  -32.6880   25.0255 H   0  0  0  0  0  0
  -28.0706  -31.8440   26.5360 H   0  0  0  0  0  0
  -28.2612  -38.0084   24.7539 H   0  0  0  0  0  0
  -28.1051  -36.2622   24.6292 H   0  0  0  0  0  0
  -27.2306  -37.1427   25.8890 H   0  0  0  0  0  0
  -20.9254  -29.8773   21.6947 H   0  0  0  0  0  0
  -26.0185  -38.2884   24.1444 H   0  0  0  0  0  0
  -33.8860  -19.4823   22.1501 H   0  0  0  0  0  0
  -35.2133  -19.5353   21.0282 H   0  0  0  0  0  0
  -34.6140  -21.7854   20.2843 H   0  0  0  0  0  0
  -34.6903  -21.7836   22.0199 H   0  0  0  0  0  0
  -33.3237  -18.1766   20.1200 H   0  0  0  0  0  0
  -33.7100  -19.5219   19.0970 H   0  0  0  0  0  0
  -32.6573  -22.9888   21.2637 H   0  0  0  0  0  0
  -32.2476  -21.6182   22.2113 H   0  0  0  0  0  0
  -31.2937  -19.3877   19.2747 H   0  0  0  0  0  0
  -30.7500  -21.6111   20.3329 H   0  0  0  0  0  0
  -31.8687  -20.2809   17.3505 H   0  0  0  0  0  0
  -31.6586  -21.8214   16.5796 H   0  0  0  0  0  0
  -30.3746  -21.1863   17.6029 H   0  0  0  0  0  0
  -31.3691  -14.9678   23.9792 H   0  0  0  0  0  0
  -32.5568  -15.2992   22.7066 H   0  0  0  0  0  0
  -32.0386  -13.6475   23.0397 H   0  0  0  0  0  0
  -30.0933  -19.7183   21.4469 H   0  0  0  0  0  0
  -31.5850  -19.4197   22.2957 H   0  0  0  0  0  0
  -28.7824  -15.7552   21.5599 H   0  0  0  0  0  0
  -29.0885  -15.4776   23.2443 H   0  0  0  0  0  0
  -30.7300  -17.3208   23.3280 H   0  0  0  0  0  0
  -29.2137  -17.8760   22.6738 H   0  0  0  0  0  0
  -30.5210  -25.2904   20.3522 H   0  0  0  0  0  0
  -30.5992  -25.9126   18.7165 H   0  0  0  0  0  0
  -32.1111  -23.9247   17.7096 H   0  0  0  0  0  0
  -32.3920  -24.0375   19.4066 H   0  0  0  0  0  0
  -28.0413  -24.7939   19.9985 H   0  0  0  0  0  0
  -28.1753  -25.5625   18.4095 H   0  0  0  0  0  0
  -33.1750  -21.8938   18.5517 H   0  0  0  0  0  0
  -31.6565  -17.2708   21.1539 H   0  0  0  0  0  0
  -30.2191  -17.6029   20.4504 H   0  0  0  0  0  0
  -29.8810  -23.6759   17.9796 H   0  0  0  0  0  0
  -29.9757  -23.1619   19.5208 H   0  0  0  0  0  0
  1 25  1  0  0  0
  1 30  2  0  0  0
  1 86  1  0  0  0
  2  3  1  0  0  0
  2 25  1  0  0  0
  2 89  1  0  0  0
  2 90  1  0  0  0
  3  4  1  0  0  0
  3 91  1  0  0  0
  3 92  1  0  0  0
  4  5  1  0  0  0
  4 93  1  0  0  0
  4 94  1  0  0  0
  5  6  1  0  0  0
  5 26  1  0  0  0
  5 95  1  0  0  0
  6 25  1  0  0  0
  6 96  1  0  0  0
  6 97  1  0  0  0
  7  8  2  0  0  0
  7 26  1  0  0  0
  7 29  1  0  0  0
  8  9  1  0  0  0
  8 22  1  0  0  0
  9 10  1  0  0  0
  9 27  2  0  0  0
 10 11  2  0  0  0
 10 15  1  0  0  0
 11 12  1  0  0  0
 11 98  1  0  0  0
 12 13  2  0  0  0
 12 99  1  0  0  0
 13 14  1  0  0  0
 13 31  1  0  0  0
 14 15  2  0  0  0
 14100  1  0  0  0
 15101  1  0  0  0
 16 17  2  0  0  0
 16 21  1  0  0  0
 16 31  1  0  0  0
 17 18  1  0  0  0
 17102  1  0  0  0
 18 19  2  0  0  0
 18103  1  0  0  0
 19 20  1  0  0  0
 19 24  1  0  0  0
 20 21  2  0  0  0
 20104  1  0  0  0
 21 23  1  0  0  0
 22 28  1  0  0  0
 22 32  2  0  0  0
 26 27  1  0  0  0
 28105  1  0  0  0
 28106  1  0  0  0
 29107  1  0  0  0
 29108  1  0  0  0
 33 34  1  0  0  0
 33 66  1  0  0  0
 33 70  2  0  0  0
 34 36  1  0  0  0
 34 59  1  0  0  0
 34109  1  0  0  0
 35 44  2  0  0  0
 35 45  1  0  0  0
 35 68  1  0  0  0
 36 56  1  0  0  0
 36110  1  0  0  0
 37 39  1  0  0  0
 37 47  1  0  0  0
 37 66  1  0  0  0
 37111  1  0  0  0
 38 43  2  0  0  0
 38 46  1  0  0  0
 38 47  1  0  0  0
 39 64  1  0  0  0
 39 67  2  0  0  0
 40 52  1  0  0  0
 40 53  2  0  0  0
 40 58  1  0  0  0
 41112  1  0  0  0
 41113  1  0  0  0
 41114  1  0  0  0
 41 48  1  0  0  0
 42 43  1  0  0  0
 42 66  1  0  0  0
 42115  1  0  0  0
 42116  1  0  0  0
 43 44  1  0  0  0
 44117  1  0  0  0
 45 46  2  0  0  0
 45118  1  0  0  0
 46119  1  0  0  0
 47120  1  0  0  0
 47121  1  0  0  0
 48 56  1  0  0  0
 48 65  1  0  0  0
 48122  1  0  0  0
 49 50  1  0  0  0
 49 53  1  0  0  0
 49 64  1  0  0  0
 49123  1  0  0  0
 50 51  1  0  0  0
 50124  1  0  0  0
 50125  1  0  0  0
 51 52  1  0  0  0
 51126  1  0  0  0
 51127  1  0  0  0
 52128  1  0  0  0
 52129  1  0  0  0
 53 54  1  0  0  0
 54 55  2  0  0  0
 54130  1  0  0  0
 55 57  1  0  0  0
 55131  1  0  0  0
 56 69  2  0  0  0
 57 58  2  0  0  0
 57132  1  0  0  0
 58133  1  0  0  0
 59 60  1  0  0  0
 59 61  1  0  0  0
 59 62  1  0  0  0
 60134  1  0  0  0
 60135  1  0  0  0
 60136  1  0  0  0
 61137  1  0  0  0
 61138  1  0  0  0
 61139  1  0  0  0
 62140  1  0  0  0
 62141  1  0  0  0
 62142  1  0  0  0
 63 65  1  0  0  0
 63143  1  0  0  0
 63144  1  0  0  0
 63145  1  0  0  0
 64146  1  0  0  0
 65147  1  0  0  0
 68 84  1  0  0  0
 71 72  1  0  0  0
 71 73  1  0  0  0
 71148  1  0  0  0
 71149  1  0  0  0
 72 74  1  0  0  0
 72150  1  0  0  0
 72151  1  0  0  0
 73 75  1  0  0  0
 73152  1  0  0  0
 73153  1  0  0  0
 74154  1  0  0  0
 74155  1  0  0  0
 74 76  1  0  0  0
 75 76  1  0  0  0
 75 79  1  0  0  0
 75156  1  0  0  0
 76 85  1  0  0  0
 76157  1  0  0  0
 77158  1  0  0  0
 77159  1  0  0  0
 77160  1  0  0  0
 77 85  1  0  0  0
 78 86  1  0  0  0
 78161  1  0  0  0
 78162  1  0  0  0
 78163  1  0  0  0
 79 87  1  0  0  0
 79164  1  0  0  0
 79165  1  0  0  0
 80 81  1  0  0  0
 80 86  1  0  0  0
 80166  1  0  0  0
 80167  1  0  0  0
 81 87  1  0  0  0
 81168  1  0  0  0
 81169  1  0  0  0
 82 84  1  0  0  0
 82 88  1  0  0  0
 82170  1  0  0  0
 82171  1  0  0  0
 83 85  1  0  0  0
 83 88  1  0  0  0
 83172  1  0  0  0
 83173  1  0  0  0
 84174  1  0  0  0
 84175  1  0  0  0
 85176  1  0  0  0
 87177  1  0  0  0
 87178  1  0  0  0
 88179  1  0  0  0
 88180  1  0  0  0
M  CHG  2  87   1  88   1
M  ISO  4   1 100  68 101  84 101  86 100
M  END
> <chiral flag>
0

> <version>
0

> <s_m_source_file>
/data/baiqing/PycharmProjects/Reinvent-master-3.2/result/LINK_invent/BTK/process_docking_weight1_custom_sum_contain_oxygen_bond_distance_aromatic_linkinvent_7_9_3/rearranged_h_0121.sdf

> <i_m_source_file_index>
65

> <r_mmod_Potential_Energy-OPLS-2005>
-96.8941802978516

> <r_mmod_Stretch_Energy-OPLS-2005>
38.2270736694336

> <r_mmod_Bend_Energy-OPLS-2005>
108.197494506836

> <r_mmod_Torsional_Energy-OPLS-2005>
378.4658203125

> <r_mmod_Improper_Torsional_Energy-OPLS-2005>
7.38418197631836

> <r_mmod_Van_der_Waal_Energy-OPLS-2005>
139.074081420898

> <r_mmod_Electrostatic_Energy-OPLS-2005>
84.1252746582031

> <r_mmod_Solvation_Energy-OPLS-2005>
-861.653625488281

> <b_mmod_Minimization_Converged-OPLS-2005>
0

> <r_mmod_RMS_Derivative-OPLS-2005>
2.65561938285828

$$$$
65
                    3D
 Structure written by MMmdl.
159167  0  0  1  0            999 V2000
  -30.4645  -15.1979   20.4005 C   0  0  0  0  0  0
  -30.4489  -12.7738   19.5013 C   0  0  0  0  0  0
  -29.5304  -12.5465   18.2739 C   0  0  0  0  0  0
  -28.0820  -12.2737   18.7172 C   0  0  0  0  0  0
  -27.6150  -13.2600   19.8146 C   0  0  2  0  0  0
  -28.6516  -13.4203   20.9444 C   0  0  0  0  0  0
  -25.2425  -13.8217   20.5729 C   0  0  0  0  0  0
  -24.1745  -13.0431   20.9237 C   0  0  0  0  0  0
  -24.6383  -11.6919   20.8741 C   0  0  0  0  0  0
  -23.9075  -10.4291   21.0402 C   0  0  0  0  0  0
  -24.3624   -9.4206   21.9180 C   0  0  0  0  0  0
  -23.6293   -8.2242   22.0740 C   0  0  0  0  0  0
  -22.4278   -8.0284   21.3531 C   0  0  0  0  0  0
  -21.9919   -9.0259   20.4635 C   0  0  0  0  0  0
  -22.7247  -10.2141   20.3051 C   0  0  0  0  0  0
  -21.6869   -6.0728   22.5272 C   0  0  0  0  0  0
  -21.4020   -6.5638   23.8200 C   0  0  0  0  0  0
  -21.3659   -5.6796   24.9171 C   0  0  0  0  0  0
  -21.6054   -4.3054   24.7230 C   0  0  0  0  0  0
  -21.8811   -3.8144   23.4349 C   0  0  0  0  0  0
  -21.9197   -4.6952   22.3408 C   0  0  0  0  0  0
  -22.7777  -13.5210   21.1900 C   0  0  0  0  0  0
  -22.1664   -4.2138   21.0975 F   0  0  0  0  0  0
  -21.5636   -3.4539   25.7741 F   0  0  0  0  0  0
  -29.8892  -13.9078   20.3139 N   0  0  0  0  0  0
  -26.2822  -12.9462   20.3167 N   0  0  0  0  0  0
  -25.9313  -11.6586   20.5697 N   0  0  0  0  0  0
  -22.0436  -12.8202   22.0466 N   0  0  0  0  0  0
  -25.4092  -15.1943   20.4208 N   0  0  0  0  0  0
  -31.6961  -15.2117   20.2584 O   0  0  0  0  0  0
  -21.6644   -6.8878   21.4238 O   0  0  0  0  0  0
  -22.3450  -14.5509   20.6742 O   0  0  0  0  0  0
  -24.6567  -31.8325   23.1721 C   0  0  0  0  0  0
  -25.9272  -32.4628   23.8187 C   0  0  1  0  0  0
  -27.2187  -26.9971   20.1910 C   0  0  0  0  0  0
  -25.5969  -33.8429   24.2113 N   0  0  0  0  0  0
  -23.4668  -30.4444   21.5216 C   0  0  2  0  0  0
  -24.9165  -28.8354   20.1178 C   0  0  0  0  0  0
  -22.7645  -29.4499   22.4814 C   0  0  0  0  0  0
  -18.0343  -28.1371   22.8451 C   0  0  0  0  0  0
  -24.1499  -36.7244   23.2647 C   0  0  0  0  0  0
  -26.0300  -30.6654   21.3832 C   0  0  0  0  0  0
  -26.0996  -29.2583   20.7357 C   0  0  0  0  0  0
  -27.2513  -28.3624   20.7377 C   0  0  0  0  0  0
  -26.0083  -26.7019   19.5303 C   0  0  0  0  0  0
  -24.8916  -27.5763   19.4933 C   0  0  0  0  0  0
  -23.6998  -29.7568   20.1489 C   0  0  0  0  0  0
  -25.4128  -36.2998   24.0313 C   0  0  1  0  0  0
  -20.5947  -28.3756   23.1201 C   0  0  2  0  0  0
  -20.6823  -26.9423   22.5468 C   0  0  0  0  0  0
  -19.5828  -26.6335   21.5250 C   0  0  0  0  0  0
  -18.1996  -26.7906   22.1614 C   0  0  0  0  0  0
  -19.1574  -28.8882   23.2810 C   0  0  0  0  0  0
  -18.9478  -30.1472   23.8841 C   0  0  0  0  0  0
  -17.6466  -30.6567   24.0511 C   0  0  0  0  0  0
  -25.9094  -34.9375   23.5037 C   0  0  0  0  0  0
  -16.5363  -29.9035   23.6277 C   0  0  0  0  0  0
  -16.7309  -28.6458   23.0316 C   0  0  0  0  0  0
  -26.4556  -31.6529   25.0677 C   0  0  0  0  0  0
  -25.3712  -31.3739   26.1357 C   0  0  0  0  0  0
  -27.0435  -30.2918   24.6304 C   0  0  0  0  0  0
  -27.6085  -32.4299   25.7463 C   0  0  0  0  0  0
  -27.5572  -37.1766   24.8466 C   0  0  0  0  0  0
  -21.4334  -29.3035   22.3534 N   0  0  0  0  0  0
  -26.4284  -37.3716   23.9413 N   0  0  0  0  0  0
  -24.7392  -31.0068   22.0809 N   0  0  0  0  0  0
  -23.4221  -28.8108   23.3058 O   0  0  0  0  0  0
  -28.2684  -25.9638   20.2368 O   0  0  0  0  0  0
  -26.5698  -34.8909   22.4627 O   0  0  0  0  0  0
  -23.5652  -32.1248   23.6888 O   0  0  0  0  0  0
  -28.6504  -21.1235   23.2303 C   0  0  0  0  0  0
  -29.6307  -21.2985   22.0663 C   0  0  0  0  0  0
  -27.3949  -20.5335   22.5990 C   0  0  0  0  0  0
  -28.8171  -21.1578   20.7539 C   0  0  2  0  0  0
  -30.3121  -22.9897   19.5565 C   0  0  0  0  0  0
  -29.2552  -19.5567   20.0784 C   0  0  0  0  0  0
  -29.8971  -18.0499   20.7829 C   0  0  0  0  0  0
  -28.1295  -24.3476   20.3863 C   0  0  0  0  0  0
  -28.8391  -22.7518   19.9660 C   0  0  2  0  0  0
  -29.6835  -16.4421   20.4445 N   0  0  0  0  0  0
  -27.4145  -21.0059   21.2079 N   0  3  0  0  0  0
  -31.4606  -12.9940   19.1547 H   0  0  0  0  0  0
  -30.5321  -11.8709   20.1071 H   0  0  0  0  0  0
  -29.9027  -11.7180   17.6698 H   0  0  0  0  0  0
  -29.5533  -13.4253   17.6304 H   0  0  0  0  0  0
  -28.0479  -11.2551   19.1073 H   0  0  0  0  0  0
  -27.4051  -12.2954   17.8625 H   0  0  0  0  0  0
  -27.5356  -14.2240   19.3101 H   0  0  0  0  0  0
  -28.8076  -12.4828   21.4790 H   0  0  0  0  0  0
  -28.2988  -14.1447   21.6783 H   0  0  0  0  0  0
  -25.2764   -9.5689   22.4745 H   0  0  0  0  0  0
  -24.0019   -7.4640   22.7450 H   0  0  0  0  0  0
  -21.0861   -8.8778   19.8928 H   0  0  0  0  0  0
  -22.3707  -10.9676   19.6152 H   0  0  0  0  0  0
  -21.2009   -7.6138   23.9716 H   0  0  0  0  0  0
  -21.1485   -6.0513   25.9077 H   0  0  0  0  0  0
  -22.0589   -2.7598   23.2852 H   0  0  0  0  0  0
  -22.4118  -11.9894   22.4845 H   0  0  0  0  0  0
  -21.1016  -13.1158   22.2633 H   0  0  0  0  0  0
  -24.6418  -15.8496   20.5307 H   0  0  0  0  0  0
  -26.2665  -15.6360   20.1157 H   0  0  0  0  0  0
  -26.7350  -32.5194   23.0916 H   0  0  0  0  0  0
  -25.0046  -33.9519   25.0213 H   0  0  0  0  0  0
  -22.7754  -31.2718   21.3537 H   0  0  0  0  0  0
  -23.3762  -35.9569   23.3280 H   0  0  0  0  0  0
  -24.3597  -36.8913   22.2070 H   0  0  0  0  0  0
  -23.7245  -37.6426   23.6708 H   0  0  0  0  0  0
  -26.1909  -31.4047   20.5968 H   0  0  0  0  0  0
  -26.8983  -30.7327   22.0252 H   0  0  0  0  0  0
  -28.1573  -28.6958   21.2247 H   0  0  0  0  0  0
  -25.9057  -25.7381   19.0523 H   0  0  0  0  0  0
  -23.9890  -27.2470   18.9965 H   0  0  0  0  0  0
  -23.8544  -30.5223   19.3880 H   0  0  0  0  0  0
  -22.8104  -29.2113   19.8320 H   0  0  0  0  0  0
  -25.1303  -36.1818   25.0796 H   0  0  0  0  0  0
  -21.0032  -28.3394   24.1327 H   0  0  0  0  0  0
  -20.5687  -26.2374   23.3716 H   0  0  0  0  0  0
  -21.6680  -26.7401   22.1274 H   0  0  0  0  0  0
  -19.7021  -25.6218   21.1350 H   0  0  0  0  0  0
  -19.6817  -27.3091   20.6737 H   0  0  0  0  0  0
  -17.4289  -26.6617   21.3990 H   0  0  0  0  0  0
  -18.0423  -26.0063   22.9032 H   0  0  0  0  0  0
  -19.7947  -30.7305   24.2201 H   0  0  0  0  0  0
  -17.5002  -31.6256   24.5083 H   0  0  0  0  0  0
  -15.5352  -30.2902   23.7579 H   0  0  0  0  0  0
  -15.8729  -28.0738   22.7042 H   0  0  0  0  0  0
  -24.5905  -30.7078   25.7669 H   0  0  0  0  0  0
  -24.8890  -32.2924   26.4711 H   0  0  0  0  0  0
  -25.7983  -30.8957   27.0176 H   0  0  0  0  0  0
  -26.3073  -29.6619   24.1303 H   0  0  0  0  0  0
  -27.4031  -29.7245   25.4897 H   0  0  0  0  0  0
  -27.8980  -30.4164   23.9649 H   0  0  0  0  0  0
  -27.2688  -33.3624   26.1968 H   0  0  0  0  0  0
  -28.3920  -32.6798   25.0302 H   0  0  0  0  0  0
  -28.0710  -31.8453   26.5422 H   0  0  0  0  0  0
  -28.2567  -38.0084   24.7498 H   0  0  0  0  0  0
  -28.1091  -36.2605   24.6289 H   0  0  0  0  0  0
  -27.2305  -37.1403   25.8876 H   0  0  0  0  0  0
  -20.9590  -29.8650   21.6602 H   0  0  0  0  0  0
  -26.0158  -38.2784   24.1394 H   0  0  0  0  0  0
  -28.4177  -22.0971   23.6685 H   0  0  0  0  0  0
  -29.0542  -20.4880   24.0201 H   0  0  0  0  0  0
  -30.4309  -20.5598   22.1087 H   0  0  0  0  0  0
  -30.1241  -22.2642   22.1532 H   0  0  0  0  0  0
  -26.4832  -20.8363   23.1175 H   0  0  0  0  0  0
  -27.4360  -19.4440   22.6078 H   0  0  0  0  0  0
  -30.7818  -22.0679   19.2165 H   0  0  0  0  0  0
  -30.9112  -23.3764   20.3816 H   0  0  0  0  0  0
  -30.3956  -23.7069   18.7412 H   0  0  0  0  0  0
  -30.0100  -19.8048   19.3315 H   0  0  0  0  0  0
  -28.4080  -19.2542   19.4638 H   0  0  0  0  0  0
  -29.6377  -18.1111   21.8400 H   0  0  0  0  0  0
  -30.9829  -18.1807   20.7928 H   0  0  0  0  0  0
  -28.5033  -24.5828   19.3937 H   0  0  0  0  0  0
  -28.7328  -24.4236   21.2902 H   0  0  0  0  0  0
  -28.3278  -22.5179   19.0331 H   0  0  0  0  0  0
  -28.7008  -16.2191   20.3795 H   0  0  0  0  0  0
  -26.9773  -21.9120   21.1992 H   0  0  0  0  0  0
  -26.8754  -20.4084   20.6011 H   0  0  0  0  0  0
  1 25  1  0  0  0
  1 30  2  0  0  0
  1 80  1  0  0  0
  2  3  1  0  0  0
  2 25  1  0  0  0
  2 82  1  0  0  0
  2 83  1  0  0  0
  3  4  1  0  0  0
  3 84  1  0  0  0
  3 85  1  0  0  0
  4  5  1  0  0  0
  4 86  1  0  0  0
  4 87  1  0  0  0
  5  6  1  0  0  0
  5 26  1  0  0  0
  5 88  1  0  0  0
  6 25  1  0  0  0
  6 89  1  0  0  0
  6 90  1  0  0  0
  7  8  2  0  0  0
  7 26  1  0  0  0
  7 29  1  0  0  0
  8  9  1  0  0  0
  8 22  1  0  0  0
  9 10  1  0  0  0
  9 27  2  0  0  0
 10 11  2  0  0  0
 10 15  1  0  0  0
 11 12  1  0  0  0
 11 91  1  0  0  0
 12 13  2  0  0  0
 12 92  1  0  0  0
 13 14  1  0  0  0
 13 31  1  0  0  0
 14 15  2  0  0  0
 14 93  1  0  0  0
 15 94  1  0  0  0
 16 17  2  0  0  0
 16 21  1  0  0  0
 16 31  1  0  0  0
 17 18  1  0  0  0
 17 95  1  0  0  0
 18 19  2  0  0  0
 18 96  1  0  0  0
 19 20  1  0  0  0
 19 24  1  0  0  0
 20 21  2  0  0  0
 20 97  1  0  0  0
 21 23  1  0  0  0
 22 28  1  0  0  0
 22 32  2  0  0  0
 26 27  1  0  0  0
 28 98  1  0  0  0
 28 99  1  0  0  0
 29100  1  0  0  0
 29101  1  0  0  0
 33 34  1  0  0  0
 33 66  1  0  0  0
 33 70  2  0  0  0
 34 36  1  0  0  0
 34 59  1  0  0  0
 34102  1  0  0  0
 35 44  2  0  0  0
 35 45  1  0  0  0
 35 68  1  0  0  0
 36 56  1  0  0  0
 36103  1  0  0  0
 37 39  1  0  0  0
 37 47  1  0  0  0
 37 66  1  0  0  0
 37104  1  0  0  0
 38 43  2  0  0  0
 38 46  1  0  0  0
 38 47  1  0  0  0
 39 64  1  0  0  0
 39 67  2  0  0  0
 40 52  1  0  0  0
 40 53  2  0  0  0
 40 58  1  0  0  0
 41105  1  0  0  0
 41106  1  0  0  0
 41107  1  0  0  0
 41 48  1  0  0  0
 42 43  1  0  0  0
 42 66  1  0  0  0
 42108  1  0  0  0
 42109  1  0  0  0
 43 44  1  0  0  0
 44110  1  0  0  0
 45 46  2  0  0  0
 45111  1  0  0  0
 46112  1  0  0  0
 47113  1  0  0  0
 47114  1  0  0  0
 48 56  1  0  0  0
 48 65  1  0  0  0
 48115  1  0  0  0
 49 50  1  0  0  0
 49 53  1  0  0  0
 49 64  1  0  0  0
 49116  1  0  0  0
 50 51  1  0  0  0
 50117  1  0  0  0
 50118  1  0  0  0
 51 52  1  0  0  0
 51119  1  0  0  0
 51120  1  0  0  0
 52121  1  0  0  0
 52122  1  0  0  0
 53 54  1  0  0  0
 54 55  2  0  0  0
 54123  1  0  0  0
 55 57  1  0  0  0
 55124  1  0  0  0
 56 69  2  0  0  0
 57 58  2  0  0  0
 57125  1  0  0  0
 58126  1  0  0  0
 59 60  1  0  0  0
 59 61  1  0  0  0
 59 62  1  0  0  0
 60127  1  0  0  0
 60128  1  0  0  0
 60129  1  0  0  0
 61130  1  0  0  0
 61131  1  0  0  0
 61132  1  0  0  0
 62133  1  0  0  0
 62134  1  0  0  0
 62135  1  0  0  0
 63 65  1  0  0  0
 63136  1  0  0  0
 63137  1  0  0  0
 63138  1  0  0  0
 64139  1  0  0  0
 65140  1  0  0  0
 68 78  1  0  0  0
 71 72  1  0  0  0
 71 73  1  0  0  0
 71141  1  0  0  0
 71142  1  0  0  0
 72 74  1  0  0  0
 72143  1  0  0  0
 72144  1  0  0  0
 73 81  1  0  0  0
 73145  1  0  0  0
 73146  1  0  0  0
 74 76  1  0  0  0
 74 79  1  0  0  0
 74 81  1  0  0  0
 75147  1  0  0  0
 75148  1  0  0  0
 75149  1  0  0  0
 75 79  1  0  0  0
 76 77  1  0  0  0
 76150  1  0  0  0
 76151  1  0  0  0
 77 80  1  0  0  0
 77152  1  0  0  0
 77153  1  0  0  0
 78 79  1  0  0  0
 78154  1  0  0  0
 78155  1  0  0  0
 79156  1  0  0  0
 80157  1  0  0  0
 81158  1  0  0  0
 81159  1  0  0  0
M  CHG  1  81   1
M  ISO  4   1 100  68 101  78 101  80 100
M  END
> <chiral flag>
0

> <version>
0

> <s_m_source_file>
/data/baiqing/PycharmProjects/Reinvent-master-3.2/result/LINK_invent/BTK/process_docking_weight1_custom_sum_contain_oxygen_bond_distance_aromatic_linkinvent_7_9_3/rearranged_h_0121.sdf

> <i_m_source_file_index>
66

> <r_mmod_Potential_Energy-OPLS-2005>
1299.17065429688

> <r_mmod_Stretch_Energy-OPLS-2005>
554.500854492188

> <r_mmod_Bend_Energy-OPLS-2005>
629.929443359375

> <r_mmod_Torsional_Energy-OPLS-2005>
344.887542724609

> <r_mmod_Improper_Torsional_Energy-OPLS-2005>
4.11320352554321

> <r_mmod_Van_der_Waal_Energy-OPLS-2005>
107.453872680664

> <r_mmod_Electrostatic_Energy-OPLS-2005>
-228.857696533203

> <r_mmod_Solvation_Energy-OPLS-2005>
-489.385772705078

> <b_mmod_Minimization_Converged-OPLS-2005>
0

> <r_mmod_RMS_Derivative-OPLS-2005>
3.9924852848053

$$$$
66
                    3D
 Structure written by MMmdl.
155164  0  0  1  0            999 V2000
  -30.3889  -15.2470   20.4150 C   0  0  0  0  0  0
  -30.4584  -12.7923   19.5306 C   0  0  0  0  0  0
  -29.5481  -12.5870   18.2891 C   0  0  0  0  0  0
  -28.0909  -12.3065   18.7021 C   0  0  0  0  0  0
  -27.6200  -13.2648   19.8218 C   0  0  2  0  0  0
  -28.6496  -13.3835   20.9603 C   0  0  0  0  0  0
  -25.2438  -13.8224   20.5705 C   0  0  0  0  0  0
  -24.1776  -13.0432   20.9227 C   0  0  0  0  0  0
  -24.6412  -11.6921   20.8730 C   0  0  0  0  0  0
  -23.9097  -10.4292   21.0396 C   0  0  0  0  0  0
  -24.3640   -9.4208   21.9179 C   0  0  0  0  0  0
  -23.6305   -8.2249   22.0756 C   0  0  0  0  0  0
  -22.4285   -8.0288   21.3548 C   0  0  0  0  0  0
  -21.9925   -9.0262   20.4649 C   0  0  0  0  0  0
  -22.7264  -10.2133   20.3050 C   0  0  0  0  0  0
  -21.6858   -6.0739   22.5281 C   0  0  0  0  0  0
  -21.4021   -6.5642   23.8216 C   0  0  0  0  0  0
  -21.3661   -5.6792   24.9177 C   0  0  0  0  0  0
  -21.6045   -4.3055   24.7225 C   0  0  0  0  0  0
  -21.8817   -3.8147   23.4345 C   0  0  0  0  0  0
  -21.9195   -4.6966   22.3402 C   0  0  0  0  0  0
  -22.7796  -13.5200   21.1890 C   0  0  0  0  0  0
  -22.1663   -4.2150   21.0980 F   0  0  0  0  0  0
  -21.5627   -3.4539   25.7737 F   0  0  0  0  0  0
  -29.8975  -13.9081   20.3751 N   0  0  0  0  0  0
  -26.2851  -12.9476   20.3146 N   0  0  0  0  0  0
  -25.9341  -11.6592   20.5660 N   0  0  0  0  0  0
  -22.0451  -12.8189   22.0448 N   0  0  0  0  0  0
  -25.4098  -15.1958   20.4181 N   0  0  0  0  0  0
  -31.5900  -15.3142   20.1089 O   0  0  0  0  0  0
  -21.6646   -6.8883   21.4244 O   0  0  0  0  0  0
  -22.3472  -14.5501   20.6733 O   0  0  0  0  0  0
  -24.6616  -31.8248   23.1709 C   0  0  0  0  0  0
  -25.9302  -32.4595   23.8172 C   0  0  1  0  0  0
  -27.2252  -26.9434   20.1951 C   0  0  0  0  0  0
  -25.5973  -33.8407   24.2080 N   0  0  0  0  0  0
  -23.4758  -30.4353   21.5205 C   0  0  2  0  0  0
  -24.9287  -28.8174   20.1215 C   0  0  0  0  0  0
  -22.7658  -29.4450   22.4800 C   0  0  0  0  0  0
  -18.0319  -28.1410   22.8469 C   0  0  0  0  0  0
  -24.1489  -36.7207   23.2649 C   0  0  0  0  0  0
  -26.0431  -30.6379   21.3967 C   0  0  0  0  0  0
  -26.1132  -29.2263   20.7474 C   0  0  0  0  0  0
  -27.2592  -28.3131   20.7516 C   0  0  0  0  0  0
  -26.0075  -26.6745   19.5330 C   0  0  0  0  0  0
  -24.8992  -27.5608   19.4943 C   0  0  0  0  0  0
  -23.7155  -29.7463   20.1490 C   0  0  0  0  0  0
  -25.4130  -36.2970   24.0303 C   0  0  1  0  0  0
  -20.5943  -28.3752   23.1195 C   0  0  2  0  0  0
  -20.6796  -26.9437   22.5404 C   0  0  0  0  0  0
  -19.5771  -26.6379   21.5215 C   0  0  0  0  0  0
  -18.1952  -26.7942   22.1623 C   0  0  0  0  0  0
  -19.1581  -28.8902   23.2818 C   0  0  0  0  0  0
  -18.9493  -30.1491   23.8853 C   0  0  0  0  0  0
  -17.6487  -30.6599   24.0558 C   0  0  0  0  0  0
  -25.9096  -34.9353   23.5013 C   0  0  0  0  0  0
  -16.5377  -29.9087   23.6345 C   0  0  0  0  0  0
  -16.7301  -28.6509   23.0362 C   0  0  0  0  0  0
  -26.4561  -31.6536   25.0695 C   0  0  0  0  0  0
  -25.3695  -31.3780   26.1356 C   0  0  0  0  0  0
  -27.0465  -30.2911   24.6413 C   0  0  0  0  0  0
  -27.6051  -32.4347   25.7499 C   0  0  0  0  0  0
  -27.5567  -37.1757   24.8467 C   0  0  0  0  0  0
  -21.4330  -29.3044   22.3545 N   0  0  0  0  0  0
  -26.4274  -37.3707   23.9414 N   0  0  0  0  0  0
  -24.7482  -30.9926   22.0835 N   0  0  0  0  0  0
  -23.4209  -28.8024   23.3041 O   0  0  0  0  0  0
  -28.2647  -25.8795   20.1853 O   0  0  0  0  0  0
  -26.5706  -34.8890   22.4609 O   0  0  0  0  0  0
  -23.5688  -32.1209   23.6813 O   0  0  0  0  0  0
  -30.1305  -20.1193   22.6094 C   0  0  0  0  0  0
  -29.7006  -21.2584   21.8820 C   0  0  0  0  0  0
  -29.1404  -19.7147   20.0877 C   0  0  0  0  0  0
  -30.0638  -18.7970   22.1023 C   0  0  0  0  0  0
  -29.6382  -18.4467   20.8136 C   0  0  0  0  0  0
  -29.1451  -21.1835   20.5866 C   0  0  0  0  0  0
  -30.2133  -17.5919   22.9836 C   0  0  0  0  0  0
  -29.3126  -16.5365   22.3198 C   0  0  0  0  0  0
  -29.4544  -16.6986   20.7778 C   0  0  2  0  0  0
  -27.8810  -22.4444   18.6384 C   0  0  0  0  0  0
  -28.1387  -24.2802   20.5606 C   0  0  0  0  0  0
  -28.7409  -22.7269   19.8756 C   0  0  1  0  0  0
  -31.4745  -13.0154   19.2028 H   0  0  0  0  0  0
  -30.5350  -11.8710   20.1100 H   0  0  0  0  0  0
  -29.9272  -11.7725   17.6708 H   0  0  0  0  0  0
  -29.5815  -13.4839   17.6686 H   0  0  0  0  0  0
  -28.0392  -11.2763   19.0569 H   0  0  0  0  0  0
  -27.4279  -12.3670   17.8382 H   0  0  0  0  0  0
  -27.5523  -14.2455   19.3500 H   0  0  0  0  0  0
  -28.8064  -12.4236   21.4545 H   0  0  0  0  0  0
  -28.2645  -14.0561   21.7241 H   0  0  0  0  0  0
  -25.2784   -9.5688   22.4753 H   0  0  0  0  0  0
  -24.0014   -7.4642   22.7476 H   0  0  0  0  0  0
  -21.0855   -8.8786   19.8954 H   0  0  0  0  0  0
  -22.3726  -10.9673   19.6157 H   0  0  0  0  0  0
  -21.2016   -7.6149   23.9724 H   0  0  0  0  0  0
  -21.1487   -6.0519   25.9082 H   0  0  0  0  0  0
  -22.0592   -2.7608   23.2846 H   0  0  0  0  0  0
  -22.4081  -11.9860   22.4844 H   0  0  0  0  0  0
  -21.1066  -13.1208   22.2646 H   0  0  0  0  0  0
  -24.6415  -15.8465   20.5402 H   0  0  0  0  0  0
  -26.2558  -15.6419   20.0886 H   0  0  0  0  0  0
  -26.7371  -32.5143   23.0889 H   0  0  0  0  0  0
  -25.0073  -33.9485   25.0200 H   0  0  0  0  0  0
  -22.7886  -31.2661   21.3480 H   0  0  0  0  0  0
  -23.3765  -35.9523   23.3279 H   0  0  0  0  0  0
  -24.3570  -36.8882   22.2071 H   0  0  0  0  0  0
  -23.7229  -37.6379   23.6722 H   0  0  0  0  0  0
  -26.2174  -31.3774   20.6140 H   0  0  0  0  0  0
  -26.9054  -30.6991   22.0489 H   0  0  0  0  0  0
  -28.1649  -28.6336   21.2475 H   0  0  0  0  0  0
  -25.8956  -25.7146   19.0485 H   0  0  0  0  0  0
  -23.9990  -27.2408   18.9875 H   0  0  0  0  0  0
  -23.8732  -30.5122   19.3888 H   0  0  0  0  0  0
  -22.8254  -29.2004   19.8317 H   0  0  0  0  0  0
  -25.1325  -36.1768   25.0793 H   0  0  0  0  0  0
  -21.0028  -28.3357   24.1319 H   0  0  0  0  0  0
  -20.5681  -26.2371   23.3642 H   0  0  0  0  0  0
  -21.6660  -26.7416   22.1211 H   0  0  0  0  0  0
  -19.6933  -25.6279   21.1274 H   0  0  0  0  0  0
  -19.6710  -27.3166   20.6727 H   0  0  0  0  0  0
  -17.4223  -26.6685   21.4026 H   0  0  0  0  0  0
  -18.0348  -26.0095   22.9031 H   0  0  0  0  0  0
  -19.7969  -30.7318   24.2204 H   0  0  0  0  0  0
  -17.5040  -31.6276   24.5167 H   0  0  0  0  0  0
  -15.5376  -30.2976   23.7694 H   0  0  0  0  0  0
  -15.8702  -28.0812   22.7103 H   0  0  0  0  0  0
  -24.5888  -30.7116   25.7669 H   0  0  0  0  0  0
  -24.8872  -32.2979   26.4669 H   0  0  0  0  0  0
  -25.7933  -30.9023   27.0209 H   0  0  0  0  0  0
  -26.3135  -29.6579   24.1402 H   0  0  0  0  0  0
  -27.3995  -29.7278   25.5062 H   0  0  0  0  0  0
  -27.9069  -30.4105   23.9827 H   0  0  0  0  0  0
  -27.2617  -33.3689   26.1953 H   0  0  0  0  0  0
  -28.3926  -32.6841   25.0376 H   0  0  0  0  0  0
  -28.0648  -31.8558   26.5518 H   0  0  0  0  0  0
  -28.2565  -38.0072   24.7520 H   0  0  0  0  0  0
  -28.1081  -36.2598   24.6284 H   0  0  0  0  0  0
  -27.2286  -37.1387   25.8870 H   0  0  0  0  0  0
  -20.9585  -29.8726   21.6668 H   0  0  0  0  0  0
  -26.0122  -38.2763   24.1432 H   0  0  0  0  0  0
  -30.4702  -20.2667   23.6256 H   0  0  0  0  0  0
  -29.7850  -22.2266   22.3560 H   0  0  0  0  0  0
  -28.6966  -19.5514   19.1155 H   0  0  0  0  0  0
  -29.9085  -17.7964   24.0110 H   0  0  0  0  0  0
  -31.2575  -17.2754   22.9919 H   0  0  0  0  0  0
  -28.2773  -16.7534   22.5872 H   0  0  0  0  0  0
  -29.5255  -15.5484   22.7279 H   0  0  0  0  0  0
  -28.4886  -16.5142   20.3076 H   0  0  0  0  0  0
  -27.6886  -23.3584   18.0757 H   0  0  0  0  0  0
  -26.9185  -22.0192   18.9237 H   0  0  0  0  0  0
  -28.3721  -21.7418   17.9652 H   0  0  0  0  0  0
  -28.5747  -24.2835   21.5593 H   0  0  0  0  0  0
  -27.0779  -24.1206   20.7559 H   0  0  0  0  0  0
  -29.7184  -23.0213   19.4918 H   0  0  0  0  0  0
  1 25  1  0  0  0
  1 30  2  0  0  0
  1 79  1  0  0  0
  2  3  1  0  0  0
  2 25  1  0  0  0
  2 83  1  0  0  0
  2 84  1  0  0  0
  3  4  1  0  0  0
  3 85  1  0  0  0
  3 86  1  0  0  0
  4  5  1  0  0  0
  4 87  1  0  0  0
  4 88  1  0  0  0
  5  6  1  0  0  0
  5 26  1  0  0  0
  5 89  1  0  0  0
  6 25  1  0  0  0
  6 90  1  0  0  0
  6 91  1  0  0  0
  7  8  2  0  0  0
  7 26  1  0  0  0
  7 29  1  0  0  0
  8  9  1  0  0  0
  8 22  1  0  0  0
  9 10  1  0  0  0
  9 27  2  0  0  0
 10 11  2  0  0  0
 10 15  1  0  0  0
 11 12  1  0  0  0
 11 92  1  0  0  0
 12 13  2  0  0  0
 12 93  1  0  0  0
 13 14  1  0  0  0
 13 31  1  0  0  0
 14 15  2  0  0  0
 14 94  1  0  0  0
 15 95  1  0  0  0
 16 17  2  0  0  0
 16 21  1  0  0  0
 16 31  1  0  0  0
 17 18  1  0  0  0
 17 96  1  0  0  0
 18 19  2  0  0  0
 18 97  1  0  0  0
 19 20  1  0  0  0
 19 24  1  0  0  0
 20 21  2  0  0  0
 20 98  1  0  0  0
 21 23  1  0  0  0
 22 28  1  0  0  0
 22 32  2  0  0  0
 26 27  1  0  0  0
 28 99  1  0  0  0
 28100  1  0  0  0
 29101  1  0  0  0
 29102  1  0  0  0
 33 34  1  0  0  0
 33 66  1  0  0  0
 33 70  2  0  0  0
 34 36  1  0  0  0
 34 59  1  0  0  0
 34103  1  0  0  0
 35 44  2  0  0  0
 35 45  1  0  0  0
 35 68  1  0  0  0
 36 56  1  0  0  0
 36104  1  0  0  0
 37 39  1  0  0  0
 37 47  1  0  0  0
 37 66  1  0  0  0
 37105  1  0  0  0
 38 43  2  0  0  0
 38 46  1  0  0  0
 38 47  1  0  0  0
 39 64  1  0  0  0
 39 67  2  0  0  0
 40 52  1  0  0  0
 40 53  2  0  0  0
 40 58  1  0  0  0
 41106  1  0  0  0
 41107  1  0  0  0
 41108  1  0  0  0
 41 48  1  0  0  0
 42 43  1  0  0  0
 42 66  1  0  0  0
 42109  1  0  0  0
 42110  1  0  0  0
 43 44  1  0  0  0
 44111  1  0  0  0
 45 46  2  0  0  0
 45112  1  0  0  0
 46113  1  0  0  0
 47114  1  0  0  0
 47115  1  0  0  0
 48 56  1  0  0  0
 48 65  1  0  0  0
 48116  1  0  0  0
 49 50  1  0  0  0
 49 53  1  0  0  0
 49 64  1  0  0  0
 49117  1  0  0  0
 50 51  1  0  0  0
 50118  1  0  0  0
 50119  1  0  0  0
 51 52  1  0  0  0
 51120  1  0  0  0
 51121  1  0  0  0
 52122  1  0  0  0
 52123  1  0  0  0
 53 54  1  0  0  0
 54 55  2  0  0  0
 54124  1  0  0  0
 55 57  1  0  0  0
 55125  1  0  0  0
 56 69  2  0  0  0
 57 58  2  0  0  0
 57126  1  0  0  0
 58127  1  0  0  0
 59 60  1  0  0  0
 59 61  1  0  0  0
 59 62  1  0  0  0
 60128  1  0  0  0
 60129  1  0  0  0
 60130  1  0  0  0
 61131  1  0  0  0
 61132  1  0  0  0
 61133  1  0  0  0
 62134  1  0  0  0
 62135  1  0  0  0
 62136  1  0  0  0
 63 65  1  0  0  0
 63137  1  0  0  0
 63138  1  0  0  0
 63139  1  0  0  0
 64140  1  0  0  0
 65141  1  0  0  0
 68 81  1  0  0  0
 71 72  2  0  0  0
 71 74  1  0  0  0
 71142  1  0  0  0
 72 76  1  0  0  0
 72143  1  0  0  0
 73 75  1  0  0  0
 73 76  2  0  0  0
 73144  1  0  0  0
 74 75  2  0  0  0
 74 77  1  0  0  0
 75 79  1  0  0  0
 76 82  1  0  0  0
 77 78  1  0  0  0
 77145  1  0  0  0
 77146  1  0  0  0
 78 79  1  0  0  0
 78147  1  0  0  0
 78148  1  0  0  0
 79149  1  0  0  0
 80150  1  0  0  0
 80151  1  0  0  0
 80152  1  0  0  0
 80 82  1  0  0  0
 81 82  1  0  0  0
 81153  1  0  0  0
 81154  1  0  0  0
 82155  1  0  0  0
M  ISO  4   1 100  68 101  79 100  81 101
M  END
> <chiral flag>
0

> <version>
0

> <s_m_source_file>
/data/baiqing/PycharmProjects/Reinvent-master-3.2/result/LINK_invent/BTK/process_docking_weight1_custom_sum_contain_oxygen_bond_distance_aromatic_linkinvent_7_9_3/rearranged_h_0121.sdf

> <i_m_source_file_index>
67

> <r_mmod_Potential_Energy-OPLS-2005>
1401.28332519531

> <r_mmod_Stretch_Energy-OPLS-2005>
588.035583496094

> <r_mmod_Bend_Energy-OPLS-2005>
517.692993164062

> <r_mmod_Torsional_Energy-OPLS-2005>
221.099533081055

> <r_mmod_Improper_Torsional_Energy-OPLS-2005>
8.3387451171875

> <r_mmod_Van_der_Waal_Energy-OPLS-2005>
118.403060913086

> <r_mmod_Electrostatic_Energy-OPLS-2005>
-283.353851318359

> <r_mmod_Solvation_Energy-OPLS-2005>
-196.994277954102

> <b_mmod_Minimization_Converged-OPLS-2005>
0

> <r_mmod_RMS_Derivative-OPLS-2005>
0.511611938476562

$$$$
67
                    3D
 Structure written by MMmdl.
165174  0  0  1  0            999 V2000
  -30.7041  -14.5885   20.4728 C   0  0  0  0  0  0
  -30.4178  -12.3625   19.4408 C   0  0  0  0  0  0
  -29.4933  -12.4796   18.2125 C   0  0  0  0  0  0
  -28.0208  -12.3276   18.6347 C   0  0  0  0  0  0
  -27.6475  -13.2219   19.8484 C   0  0  2  0  0  0
  -28.6972  -13.1184   20.9777 C   0  0  0  0  0  0
  -25.2532  -13.8188   20.5649 C   0  0  0  0  0  0
  -24.1809  -13.0433   20.9191 C   0  0  0  0  0  0
  -24.6390  -11.6923   20.8735 C   0  0  0  0  0  0
  -23.9056  -10.4311   21.0402 C   0  0  0  0  0  0
  -24.3622   -9.4225   21.9172 C   0  0  0  0  0  0
  -23.6297   -8.2254   22.0743 C   0  0  0  0  0  0
  -22.4275   -8.0284   21.3534 C   0  0  0  0  0  0
  -21.9904   -9.0253   20.4636 C   0  0  0  0  0  0
  -22.7229  -10.2136   20.3052 C   0  0  0  0  0  0
  -21.6851   -6.0728   22.5279 C   0  0  0  0  0  0
  -21.4015   -6.5631   23.8215 C   0  0  0  0  0  0
  -21.3664   -5.6781   24.9171 C   0  0  0  0  0  0
  -21.6049   -4.3045   24.7216 C   0  0  0  0  0  0
  -21.8821   -3.8137   23.4337 C   0  0  0  0  0  0
  -21.9195   -4.6954   22.3400 C   0  0  0  0  0  0
  -22.7842  -13.5229   21.1822 C   0  0  0  0  0  0
  -22.1658   -4.2147   21.0970 F   0  0  0  0  0  0
  -21.5630   -3.4534   25.7728 F   0  0  0  0  0  0
  -30.0127  -13.4135   20.3909 N   0  0  0  0  0  0
  -26.2969  -12.9378   20.3279 N   0  0  0  0  0  0
  -25.9322  -11.6527   20.5764 N   0  0  0  0  0  0
  -22.0481  -12.8251   22.0407 N   0  0  0  0  0  0
  -25.4187  -15.1903   20.4012 N   0  0  0  0  0  0
  -31.8902  -14.6601   20.1452 O   0  0  0  0  0  0
  -21.6637   -6.8871   21.4241 O   0  0  0  0  0  0
  -22.3547  -14.5526   20.6656 O   0  0  0  0  0  0
  -24.6226  -31.8616   23.2027 C   0  0  0  0  0  0
  -25.9083  -32.4784   23.8358 C   0  0  1  0  0  0
  -27.2409  -27.3576   20.1006 C   0  0  0  0  0  0
  -25.5912  -33.8583   24.2292 N   0  0  0  0  0  0
  -23.4187  -30.4805   21.5430 C   0  0  2  0  0  0
  -24.8713  -28.9382   20.1120 C   0  0  0  0  0  0
  -22.7479  -29.4612   22.4937 C   0  0  0  0  0  0
  -18.0285  -28.1387   22.8490 C   0  0  0  0  0  0
  -24.1490  -36.7293   23.2641 C   0  0  0  0  0  0
  -25.9573  -30.8026   21.3705 C   0  0  0  0  0  0
  -26.0377  -29.4317   20.7120 C   0  0  0  0  0  0
  -27.2301  -28.6519   20.6975 C   0  0  0  0  0  0
  -26.0537  -26.9012   19.4934 C   0  0  0  0  0  0
  -24.8764  -27.6745   19.4988 C   0  0  0  0  0  0
  -23.6336  -29.8090   20.1605 C   0  0  0  0  0  0
  -25.4117  -36.3090   24.0332 C   0  0  1  0  0  0
  -20.5892  -28.3692   23.1298 C   0  0  2  0  0  0
  -20.6786  -26.9417   22.5418 C   0  0  0  0  0  0
  -19.5760  -26.6389   21.5222 C   0  0  0  0  0  0
  -18.1937  -26.7932   22.1629 C   0  0  0  0  0  0
  -19.1543  -28.8858   23.2881 C   0  0  0  0  0  0
  -18.9453  -30.1466   23.8895 C   0  0  0  0  0  0
  -17.6455  -30.6589   24.0565 C   0  0  0  0  0  0
  -25.9058  -34.9456   23.5122 C   0  0  0  0  0  0
  -16.5345  -29.9090   23.6324 C   0  0  0  0  0  0
  -16.7278  -28.6502   23.0352 C   0  0  0  0  0  0
  -26.4478  -31.6587   25.0721 C   0  0  0  0  0  0
  -25.3712  -31.3708   26.1444 C   0  0  0  0  0  0
  -27.0325  -30.3021   24.6151 C   0  0  0  0  0  0
  -27.6063  -32.4305   25.7462 C   0  0  0  0  0  0
  -27.5582  -37.1797   24.8462 C   0  0  0  0  0  0
  -21.4196  -29.3038   22.3693 N   0  0  0  0  0  0
  -26.4306  -37.3773   23.9392 N   0  0  0  0  0  0
  -24.6843  -31.0640   22.0963 N   0  0  0  0  0  0
  -23.4206  -28.8169   23.3023 O   0  0  0  0  0  0
  -28.3456  -26.5053   20.1016 O   0  0  0  0  0  0
  -26.5628  -34.8927   22.4689 O   0  0  0  0  0  0
  -23.5397  -32.1408   23.7369 O   0  0  0  0  0  0
  -27.8654  -22.7874   21.0005 C   0  0  0  0  0  0
  -28.3265  -21.4517   20.8758 C   0  0  0  0  0  0
  -29.6259  -21.1977   20.3371 C   0  0  0  0  0  0
  -28.6253  -23.8878   20.5529 C   0  0  0  0  0  0
  -30.2384  -22.3641   19.7481 C   0  0  0  0  0  0
  -29.4897  -18.1859   22.3499 C   0  0  0  0  0  0
  -30.7308  -17.2987   22.4654 C   0  0  0  0  0  0
  -29.7718  -18.4132   20.8483 C   0  0  2  0  0  0
  -30.6471  -17.0746   20.9526 C   0  0  2  0  0  0
  -27.3534  -20.3633   21.2840 C   0  0  0  0  0  0
  -31.4752  -22.2873   18.8545 C   0  0  0  0  0  0
  -31.7171  -20.0605   21.2281 C   0  0  0  0  0  0
  -28.2013  -25.3402   20.9825 C   0  0  0  0  0  0
  -30.4246  -19.8122   20.4052 C   0  0  2  0  0  0
  -29.7796  -23.6479   19.8862 N   0  0  0  0  0  0
  -30.0087  -15.7293   20.7417 N   0  0  0  0  0  0
  -31.4616  -12.4485   19.1333 H   0  0  0  0  0  0
  -30.3291  -11.3797   19.9069 H   0  0  0  0  0  0
  -29.7535  -11.7132   17.4801 H   0  0  0  0  0  0
  -29.6397  -13.4391   17.7142 H   0  0  0  0  0  0
  -27.8674  -11.2768   18.8863 H   0  0  0  0  0  0
  -27.3635  -12.5369   17.7893 H   0  0  0  0  0  0
  -27.6549  -14.2493   19.4813 H   0  0  0  0  0  0
  -28.6977  -12.1190   21.4164 H   0  0  0  0  0  0
  -28.4577  -13.8088   21.7896 H   0  0  0  0  0  0
  -25.2776   -9.5692   22.4733 H   0  0  0  0  0  0
  -23.9995   -7.4652   22.7477 H   0  0  0  0  0  0
  -21.0826   -8.8768   19.8963 H   0  0  0  0  0  0
  -22.3683  -10.9656   19.6154 H   0  0  0  0  0  0
  -21.2012   -7.6140   23.9716 H   0  0  0  0  0  0
  -21.1477   -6.0510   25.9074 H   0  0  0  0  0  0
  -22.0600   -2.7606   23.2836 H   0  0  0  0  0  0
  -22.4091  -11.9942   22.4844 H   0  0  0  0  0  0
  -21.1098  -13.1273   22.2580 H   0  0  0  0  0  0
  -24.6436  -15.8365   20.4998 H   0  0  0  0  0  0
  -26.2573  -15.6342   20.0473 H   0  0  0  0  0  0
  -26.7161  -32.5467   23.1123 H   0  0  0  0  0  0
  -25.0036  -33.9728   25.0417 H   0  0  0  0  0  0
  -22.7108  -31.2989   21.3962 H   0  0  0  0  0  0
  -23.3757  -35.9625   23.3334 H   0  0  0  0  0  0
  -24.3582  -36.8881   22.2052 H   0  0  0  0  0  0
  -23.7255  -37.6508   23.6645 H   0  0  0  0  0  0
  -26.0920  -31.5697   20.6064 H   0  0  0  0  0  0
  -26.8382  -30.8513   21.9989 H   0  0  0  0  0  0
  -28.1302  -29.0251   21.1647 H   0  0  0  0  0  0
  -26.0363  -25.9268   19.0250 H   0  0  0  0  0  0
  -23.9803  -27.2857   19.0358 H   0  0  0  0  0  0
  -23.7480  -30.5823   19.4000 H   0  0  0  0  0  0
  -22.7572  -29.2294   19.8622 H   0  0  0  0  0  0
  -25.1303  -36.1948   25.0829 H   0  0  0  0  0  0
  -20.9988  -28.3265   24.1417 H   0  0  0  0  0  0
  -20.5717  -26.2286   23.3609 H   0  0  0  0  0  0
  -21.6642  -26.7462   22.1182 H   0  0  0  0  0  0
  -19.6923  -25.6304   21.1244 H   0  0  0  0  0  0
  -19.6700  -27.3207   20.6759 H   0  0  0  0  0  0
  -17.4204  -26.6686   21.4033 H   0  0  0  0  0  0
  -18.0333  -26.0079   22.9031 H   0  0  0  0  0  0
  -19.7925  -30.7293   24.2256 H   0  0  0  0  0  0
  -17.4997  -31.6266   24.5178 H   0  0  0  0  0  0
  -15.5347  -30.2988   23.7649 H   0  0  0  0  0  0
  -15.8670  -28.0823   22.7072 H   0  0  0  0  0  0
  -24.5845  -30.7132   25.7721 H   0  0  0  0  0  0
  -24.8958  -32.2883   26.4932 H   0  0  0  0  0  0
  -25.8021  -30.8787   27.0171 H   0  0  0  0  0  0
  -26.2899  -29.6761   24.1193 H   0  0  0  0  0  0
  -27.4067  -29.7276   25.4631 H   0  0  0  0  0  0
  -27.8744  -30.4334   23.9351 H   0  0  0  0  0  0
  -27.2705  -33.3589   26.2086 H   0  0  0  0  0  0
  -28.3827  -32.6889   25.0250 H   0  0  0  0  0  0
  -28.0790  -31.8401   26.5320 H   0  0  0  0  0  0
  -28.2602  -38.0090   24.7510 H   0  0  0  0  0  0
  -28.1080  -36.2624   24.6295 H   0  0  0  0  0  0
  -27.2299  -37.1443   25.8866 H   0  0  0  0  0  0
  -20.9397  -29.8701   21.6846 H   0  0  0  0  0  0
  -26.0197  -38.2852   24.1386 H   0  0  0  0  0  0
  -26.9178  -22.9806   21.4838 H   0  0  0  0  0  0
  -29.5389  -19.0804   22.9711 H   0  0  0  0  0  0
  -28.5631  -17.6363   22.5237 H   0  0  0  0  0  0
  -30.5788  -16.4089   23.0786 H   0  0  0  0  0  0
  -31.6293  -17.8282   22.7810 H   0  0  0  0  0  0
  -28.9022  -18.1783   20.2382 H   0  0  0  0  0  0
  -31.6196  -17.1780   20.4678 H   0  0  0  0  0  0
  -27.5914  -19.9470   22.2582 H   0  0  0  0  0  0
  -27.3238  -19.5815   20.5292 H   0  0  0  0  0  0
  -26.3337  -20.7483   21.3421 H   0  0  0  0  0  0
  -32.3518  -22.7106   19.3468 H   0  0  0  0  0  0
  -31.3029  -22.8516   17.9372 H   0  0  0  0  0  0
  -31.7267  -21.2800   18.5288 H   0  0  0  0  0  0
  -32.2238  -20.9900   20.9808 H   0  0  0  0  0  0
  -32.4524  -19.2715   21.0762 H   0  0  0  0  0  0
  -31.5120  -20.1176   22.2965 H   0  0  0  0  0  0
  -28.7823  -25.5741   21.8750 H   0  0  0  0  0  0
  -27.1714  -25.2706   21.3360 H   0  0  0  0  0  0
  -30.7456  -19.6282   19.3807 H   0  0  0  0  0  0
  -29.0204  -15.6324   20.9213 H   0  0  0  0  0  0
  1 25  1  0  0  0
  1 30  2  0  0  0
  1 86  1  0  0  0
  2  3  1  0  0  0
  2 25  1  0  0  0
  2 87  1  0  0  0
  2 88  1  0  0  0
  3  4  1  0  0  0
  3 89  1  0  0  0
  3 90  1  0  0  0
  4  5  1  0  0  0
  4 91  1  0  0  0
  4 92  1  0  0  0
  5  6  1  0  0  0
  5 26  1  0  0  0
  5 93  1  0  0  0
  6 25  1  0  0  0
  6 94  1  0  0  0
  6 95  1  0  0  0
  7  8  2  0  0  0
  7 26  1  0  0  0
  7 29  1  0  0  0
  8  9  1  0  0  0
  8 22  1  0  0  0
  9 10  1  0  0  0
  9 27  2  0  0  0
 10 11  2  0  0  0
 10 15  1  0  0  0
 11 12  1  0  0  0
 11 96  1  0  0  0
 12 13  2  0  0  0
 12 97  1  0  0  0
 13 14  1  0  0  0
 13 31  1  0  0  0
 14 15  2  0  0  0
 14 98  1  0  0  0
 15 99  1  0  0  0
 16 17  2  0  0  0
 16 21  1  0  0  0
 16 31  1  0  0  0
 17 18  1  0  0  0
 17100  1  0  0  0
 18 19  2  0  0  0
 18101  1  0  0  0
 19 20  1  0  0  0
 19 24  1  0  0  0
 20 21  2  0  0  0
 20102  1  0  0  0
 21 23  1  0  0  0
 22 28  1  0  0  0
 22 32  2  0  0  0
 26 27  1  0  0  0
 28103  1  0  0  0
 28104  1  0  0  0
 29105  1  0  0  0
 29106  1  0  0  0
 33 34  1  0  0  0
 33 66  1  0  0  0
 33 70  2  0  0  0
 34 36  1  0  0  0
 34 59  1  0  0  0
 34107  1  0  0  0
 35 44  2  0  0  0
 35 45  1  0  0  0
 35 68  1  0  0  0
 36 56  1  0  0  0
 36108  1  0  0  0
 37 39  1  0  0  0
 37 47  1  0  0  0
 37 66  1  0  0  0
 37109  1  0  0  0
 38 43  2  0  0  0
 38 46  1  0  0  0
 38 47  1  0  0  0
 39 64  1  0  0  0
 39 67  2  0  0  0
 40 52  1  0  0  0
 40 53  2  0  0  0
 40 58  1  0  0  0
 41110  1  0  0  0
 41111  1  0  0  0
 41112  1  0  0  0
 41 48  1  0  0  0
 42 43  1  0  0  0
 42 66  1  0  0  0
 42113  1  0  0  0
 42114  1  0  0  0
 43 44  1  0  0  0
 44115  1  0  0  0
 45 46  2  0  0  0
 45116  1  0  0  0
 46117  1  0  0  0
 47118  1  0  0  0
 47119  1  0  0  0
 48 56  1  0  0  0
 48 65  1  0  0  0
 48120  1  0  0  0
 49 50  1  0  0  0
 49 53  1  0  0  0
 49 64  1  0  0  0
 49121  1  0  0  0
 50 51  1  0  0  0
 50122  1  0  0  0
 50123  1  0  0  0
 51 52  1  0  0  0
 51124  1  0  0  0
 51125  1  0  0  0
 52126  1  0  0  0
 52127  1  0  0  0
 53 54  1  0  0  0
 54 55  2  0  0  0
 54128  1  0  0  0
 55 57  1  0  0  0
 55129  1  0  0  0
 56 69  2  0  0  0
 57 58  2  0  0  0
 57130  1  0  0  0
 58131  1  0  0  0
 59 60  1  0  0  0
 59 61  1  0  0  0
 59 62  1  0  0  0
 60132  1  0  0  0
 60133  1  0  0  0
 60134  1  0  0  0
 61135  1  0  0  0
 61136  1  0  0  0
 61137  1  0  0  0
 62138  1  0  0  0
 62139  1  0  0  0
 62140  1  0  0  0
 63 65  1  0  0  0
 63141  1  0  0  0
 63142  1  0  0  0
 63143  1  0  0  0
 64144  1  0  0  0
 65145  1  0  0  0
 68 83  1  0  0  0
 71 72  2  0  0  0
 71 74  1  0  0  0
 71146  1  0  0  0
 72 73  1  0  0  0
 72 80  1  0  0  0
 73 75  2  0  0  0
 73 84  1  0  0  0
 74 83  1  0  0  0
 74 85  2  0  0  0
 75 81  1  0  0  0
 75 85  1  0  0  0
 76 77  1  0  0  0
 76147  1  0  0  0
 76148  1  0  0  0
 76 78  1  0  0  0
 77 79  1  0  0  0
 77149  1  0  0  0
 77150  1  0  0  0
 78 79  1  0  0  0
 78 84  1  0  0  0
 78151  1  0  0  0
 79 86  1  0  0  0
 79152  1  0  0  0
 80153  1  0  0  0
 80154  1  0  0  0
 80155  1  0  0  0
 81156  1  0  0  0
 81157  1  0  0  0
 81158  1  0  0  0
 82159  1  0  0  0
 82160  1  0  0  0
 82161  1  0  0  0
 82 84  1  0  0  0
 83162  1  0  0  0
 83163  1  0  0  0
 84164  1  0  0  0
 86165  1  0  0  0
M  ISO  4   1 100  68 101  83 101  86 100
M  END
> <chiral flag>
0

> <version>
0

> <s_m_source_file>
/data/baiqing/PycharmProjects/Reinvent-master-3.2/result/LINK_invent/BTK/process_docking_weight1_custom_sum_contain_oxygen_bond_distance_aromatic_linkinvent_7_9_3/rearranged_h_0121.sdf

> <i_m_source_file_index>
68

> <r_mmod_Potential_Energy-OPLS-2005>
63.1190872192383

> <r_mmod_Stretch_Energy-OPLS-2005>
85.3233108520508

> <r_mmod_Bend_Energy-OPLS-2005>
169.506439208984

> <r_mmod_Torsional_Energy-OPLS-2005>
301.416046142578

> <r_mmod_Improper_Torsional_Energy-OPLS-2005>
4.92617321014404

> <r_mmod_Van_der_Waal_Energy-OPLS-2005>
160.758102416992

> <r_mmod_Electrostatic_Energy-OPLS-2005>
-477.919677734375

> <r_mmod_Solvation_Energy-OPLS-2005>
-220.790191650391

> <b_mmod_Minimization_Converged-OPLS-2005>
0

> <r_mmod_RMS_Derivative-OPLS-2005>
3.63113498687744

$$$$
68
                    3D
 Structure written by MMmdl.
173182  0  0  1  0            999 V2000
  -30.7827  -14.3958   20.6053 C   0  0  0  0  0  0
  -30.3934  -12.2816   19.4128 C   0  0  0  0  0  0
  -29.4783  -12.5102   18.1965 C   0  0  0  0  0  0
  -28.0019  -12.3798   18.6121 C   0  0  0  0  0  0
  -27.6579  -13.2169   19.8744 C   0  0  2  0  0  0
  -28.7002  -13.0096   20.9971 C   0  0  0  0  0  0
  -25.2557  -13.8192   20.5691 C   0  0  0  0  0  0
  -24.1820  -13.0447   20.9180 C   0  0  0  0  0  0
  -24.6392  -11.6919   20.8739 C   0  0  0  0  0  0
  -23.9069  -10.4294   21.0405 C   0  0  0  0  0  0
  -24.3619   -9.4207   21.9181 C   0  0  0  0  0  0
  -23.6293   -8.2246   22.0754 C   0  0  0  0  0  0
  -22.4274   -8.0287   21.3546 C   0  0  0  0  0  0
  -21.9911   -9.0258   20.4647 C   0  0  0  0  0  0
  -22.7241  -10.2137   20.3053 C   0  0  0  0  0  0
  -21.6855   -6.0737   22.5280 C   0  0  0  0  0  0
  -21.4017   -6.5640   23.8212 C   0  0  0  0  0  0
  -21.3656   -5.6794   24.9175 C   0  0  0  0  0  0
  -21.6045   -4.3057   24.7228 C   0  0  0  0  0  0
  -21.8818   -3.8146   23.4349 C   0  0  0  0  0  0
  -21.9191   -4.6963   22.3403 C   0  0  0  0  0  0
  -22.7843  -13.5237   21.1843 C   0  0  0  0  0  0
  -22.1660   -4.2146   21.0982 F   0  0  0  0  0  0
  -21.5626   -3.4542   25.7741 F   0  0  0  0  0  0
  -30.0356  -13.2737   20.4391 N   0  0  0  0  0  0
  -26.3008  -12.9387   20.3384 N   0  0  0  0  0  0
  -25.9323  -11.6532   20.5774 N   0  0  0  0  0  0
  -22.0489  -12.8224   22.0396 N   0  0  0  0  0  0
  -25.4275  -15.1911   20.4099 N   0  0  0  0  0  0
  -31.8598  -14.5562   20.0282 O   0  0  0  0  0  0
  -21.6643   -6.8881   21.4242 O   0  0  0  0  0  0
  -22.3522  -14.5542   20.6689 O   0  0  0  0  0  0
  -24.6106  -31.8702   23.2135 C   0  0  0  0  0  0
  -25.9009  -32.4839   23.8414 C   0  0  1  0  0  0
  -27.2318  -27.4586   20.0940 C   0  0  0  0  0  0
  -25.5882  -33.8637   24.2338 N   0  0  0  0  0  0
  -23.3990  -30.4922   21.5522 C   0  0  2  0  0  0
  -24.8486  -28.9612   20.1149 C   0  0  0  0  0  0
  -22.7396  -29.4657   22.5006 C   0  0  0  0  0  0
  -18.0264  -28.1381   22.8484 C   0  0  0  0  0  0
  -24.1492  -36.7322   23.2634 C   0  0  0  0  0  0
  -25.9247  -30.8405   21.3669 C   0  0  0  0  0  0
  -26.0044  -29.4746   20.7186 C   0  0  0  0  0  0
  -27.2009  -28.7253   20.7159 C   0  0  0  0  0  0
  -26.0706  -26.9583   19.4746 C   0  0  0  0  0  0
  -24.8739  -27.6996   19.4928 C   0  0  0  0  0  0
  -23.6080  -29.8237   20.1659 C   0  0  0  0  0  0
  -25.4113  -36.3123   24.0342 C   0  0  1  0  0  0
  -20.5850  -28.3662   23.1332 C   0  0  2  0  0  0
  -20.6758  -26.9405   22.5421 C   0  0  0  0  0  0
  -19.5746  -26.6388   21.5207 C   0  0  0  0  0  0
  -18.1915  -26.7922   22.1618 C   0  0  0  0  0  0
  -19.1511  -28.8837   23.2899 C   0  0  0  0  0  0
  -18.9441  -30.1435   23.8924 C   0  0  0  0  0  0
  -17.6449  -30.6585   24.0570 C   0  0  0  0  0  0
  -25.9038  -34.9480   23.5140 C   0  0  0  0  0  0
  -16.5338  -29.9090   23.6331 C   0  0  0  0  0  0
  -16.7256  -28.6504   23.0356 C   0  0  0  0  0  0
  -26.4446  -31.6616   25.0733 C   0  0  0  0  0  0
  -25.3711  -31.3719   26.1488 C   0  0  0  0  0  0
  -27.0283  -30.3065   24.6106 C   0  0  0  0  0  0
  -27.6047  -32.4318   25.7471 C   0  0  0  0  0  0
  -27.5589  -37.1805   24.8456 C   0  0  0  0  0  0
  -21.4124  -29.3032   22.3744 N   0  0  0  0  0  0
  -26.4302  -37.3805   23.9407 N   0  0  0  0  0  0
  -24.6623  -31.0815   22.1028 N   0  0  0  0  0  0
  -23.4169  -28.8189   23.3036 O   0  0  0  0  0  0
  -28.3737  -26.6999   20.0604 O   0  0  0  0  0  0
  -26.5606  -34.8919   22.4699 O   0  0  0  0  0  0
  -23.5307  -32.1448   23.7542 O   0  0  0  0  0  0
  -29.8940  -23.8557   21.5738 C   0  0  0  0  0  0
  -27.6073  -23.8311   20.9305 C   0  0  0  0  0  0
  -28.7447  -24.5863   21.2493 C   0  0  0  0  0  0
  -28.7741  -21.8827   21.2383 C   0  0  0  0  0  0
  -29.0558  -19.7589   22.6263 C   0  0  0  0  0  0
  -29.3222  -18.2411   22.6119 C   0  0  0  0  0  0
  -29.8353  -19.8291   20.1738 C   0  0  0  0  0  0
  -28.8192  -20.3469   21.2184 C   0  0  2  0  0  0
  -30.5030  -17.9051   21.6737 C   0  0  2  0  0  0
  -30.1042  -18.2994   20.2152 C   0  0  2  0  0  0
  -31.5389  -16.2117   23.3502 C   0  0  0  0  0  0
  -31.5717  -17.7236   16.6890 C   0  0  0  0  0  0
  -28.7292  -26.1086   21.3088 C   0  0  0  0  0  0
  -31.1535  -17.9299   19.1312 C   0  0  0  0  0  0
  -31.1117  -16.4844   21.8962 C   0  0  1  0  0  0
  -29.9020  -22.5102   21.5659 N   0  0  0  0  0  0
  -27.6294  -22.4803   20.9222 N   0  0  0  0  0  0
  -30.2981  -15.3551   21.4128 N   0  0  0  0  0  0
  -30.6750  -18.2073   17.7572 N   0  3  0  0  0  0
  -31.4414  -12.3322   19.1124 H   0  0  0  0  0  0
  -30.2534  -11.2742   19.8077 H   0  0  0  0  0  0
  -29.7085  -11.7909   17.4092 H   0  0  0  0  0  0
  -29.6583  -13.4993   17.7719 H   0  0  0  0  0  0
  -27.8030  -11.3243   18.8001 H   0  0  0  0  0  0
  -27.3521  -12.6668   17.7844 H   0  0  0  0  0  0
  -27.7009  -14.2650   19.5780 H   0  0  0  0  0  0
  -28.6599  -11.9845   21.3684 H   0  0  0  0  0  0
  -28.4686  -13.6413   21.8551 H   0  0  0  0  0  0
  -25.2765   -9.5685   22.4752 H   0  0  0  0  0  0
  -24.0002   -7.4643   22.7474 H   0  0  0  0  0  0
  -21.0843   -8.8778   19.8957 H   0  0  0  0  0  0
  -22.3701  -10.9674   19.6161 H   0  0  0  0  0  0
  -21.2014   -7.6149   23.9714 H   0  0  0  0  0  0
  -21.1479   -6.0526   25.9075 H   0  0  0  0  0  0
  -22.0598   -2.7609   23.2853 H   0  0  0  0  0  0
  -22.4116  -11.9886   22.4782 H   0  0  0  0  0  0
  -21.1107  -13.1239   22.2610 H   0  0  0  0  0  0
  -24.6627  -15.8482   20.5185 H   0  0  0  0  0  0
  -26.2872  -15.6302   20.1067 H   0  0  0  0  0  0
  -26.7081  -32.5581   23.1184 H   0  0  0  0  0  0
  -25.0039  -33.9797   25.0490 H   0  0  0  0  0  0
  -22.6883  -31.3090   21.4129 H   0  0  0  0  0  0
  -23.3755  -35.9654   23.3308 H   0  0  0  0  0  0
  -24.3583  -36.8936   22.2043 H   0  0  0  0  0  0
  -23.7227  -37.6521   23.6652 H   0  0  0  0  0  0
  -26.0354  -31.6070   20.5985 H   0  0  0  0  0  0
  -26.8120  -30.8953   21.9854 H   0  0  0  0  0  0
  -28.0958  -29.1131   21.1836 H   0  0  0  0  0  0
  -26.0911  -25.9964   18.9832 H   0  0  0  0  0  0
  -23.9873  -27.3013   19.0192 H   0  0  0  0  0  0
  -23.7117  -30.5985   19.4058 H   0  0  0  0  0  0
  -22.7333  -29.2393   19.8728 H   0  0  0  0  0  0
  -25.1279  -36.2005   25.0838 H   0  0  0  0  0  0
  -20.9937  -28.3234   24.1456 H   0  0  0  0  0  0
  -20.5681  -26.2265   23.3602 H   0  0  0  0  0  0
  -21.6628  -26.7469   22.1199 H   0  0  0  0  0  0
  -19.6925  -25.6302   21.1229 H   0  0  0  0  0  0
  -19.6701  -27.3215   20.6752 H   0  0  0  0  0  0
  -17.4191  -26.6684   21.4009 H   0  0  0  0  0  0
  -18.0312  -26.0056   22.9005 H   0  0  0  0  0  0
  -19.7923  -30.7224   24.2325 H   0  0  0  0  0  0
  -17.5013  -31.6273   24.5154 H   0  0  0  0  0  0
  -15.5341  -30.3007   23.7634 H   0  0  0  0  0  0
  -15.8654  -28.0825   22.7082 H   0  0  0  0  0  0
  -24.5881  -30.7075   25.7811 H   0  0  0  0  0  0
  -24.8900  -32.2878   26.4942 H   0  0  0  0  0  0
  -25.8046  -30.8876   27.0249 H   0  0  0  0  0  0
  -26.2836  -29.6827   24.1153 H   0  0  0  0  0  0
  -27.4048  -29.7297   25.4563 H   0  0  0  0  0  0
  -27.8666  -30.4389   23.9259 H   0  0  0  0  0  0
  -27.2704  -33.3619   26.2069 H   0  0  0  0  0  0
  -28.3828  -32.6867   25.0267 H   0  0  0  0  0  0
  -28.0745  -31.8428   26.5362 H   0  0  0  0  0  0
  -28.2593  -38.0111   24.7534 H   0  0  0  0  0  0
  -28.1089  -36.2643   24.6250 H   0  0  0  0  0  0
  -27.2308  -37.1423   25.8855 H   0  0  0  0  0  0
  -20.9288  -29.8746   21.6960 H   0  0  0  0  0  0
  -26.0203  -38.2888   24.1422 H   0  0  0  0  0  0
  -30.8157  -24.3456   21.8509 H   0  0  0  0  0  0
  -26.6676  -24.3052   20.6901 H   0  0  0  0  0  0
  -29.9138  -20.2528   23.0841 H   0  0  0  0  0  0
  -28.2034  -19.9887   23.2658 H   0  0  0  0  0  0
  -28.4269  -17.6958   22.3112 H   0  0  0  0  0  0
  -29.5324  -17.9345   23.6360 H   0  0  0  0  0  0
  -30.7860  -20.3408   20.3277 H   0  0  0  0  0  0
  -29.4868  -20.1396   19.1892 H   0  0  0  0  0  0
  -27.8387  -19.9905   20.8963 H   0  0  0  0  0  0
  -31.3158  -18.5779   21.9581 H   0  0  0  0  0  0
  -29.1796  -17.7720   19.9744 H   0  0  0  0  0  0
  -32.1200  -17.0406   23.7560 H   0  0  0  0  0  0
  -32.1684  -15.3230   23.4105 H   0  0  0  0  0  0
  -30.6867  -16.0444   24.0086 H   0  0  0  0  0  0
  -31.1564  -17.9666   15.7101 H   0  0  0  0  0  0
  -31.6958  -16.6412   16.7373 H   0  0  0  0  0  0
  -32.5556  -18.1876   16.7605 H   0  0  0  0  0  0
  -29.7199  -26.4738   21.5816 H   0  0  0  0  0  0
  -28.0620  -26.4120   22.1194 H   0  0  0  0  0  0
  -31.3840  -16.8701   19.1755 H   0  0  0  0  0  0
  -32.0922  -18.4569   19.3073 H   0  0  0  0  0  0
  -32.0594  -16.5133   21.3564 H   0  0  0  0  0  0
  -29.3929  -15.2019   21.8318 H   0  0  0  0  0  0
  -29.7746  -17.7767   17.6210 H   0  0  0  0  0  0
  -30.5572  -19.2007   17.6396 H   0  0  0  0  0  0
  1 25  1  0  0  0
  1 30  2  0  0  0
  1 88  1  0  0  0
  2  3  1  0  0  0
  2 25  1  0  0  0
  2 90  1  0  0  0
  2 91  1  0  0  0
  3  4  1  0  0  0
  3 92  1  0  0  0
  3 93  1  0  0  0
  4  5  1  0  0  0
  4 94  1  0  0  0
  4 95  1  0  0  0
  5  6  1  0  0  0
  5 26  1  0  0  0
  5 96  1  0  0  0
  6 25  1  0  0  0
  6 97  1  0  0  0
  6 98  1  0  0  0
  7  8  2  0  0  0
  7 26  1  0  0  0
  7 29  1  0  0  0
  8  9  1  0  0  0
  8 22  1  0  0  0
  9 10  1  0  0  0
  9 27  2  0  0  0
 10 11  2  0  0  0
 10 15  1  0  0  0
 11 12  1  0  0  0
 11 99  1  0  0  0
 12 13  2  0  0  0
 12100  1  0  0  0
 13 14  1  0  0  0
 13 31  1  0  0  0
 14 15  2  0  0  0
 14101  1  0  0  0
 15102  1  0  0  0
 16 17  2  0  0  0
 16 21  1  0  0  0
 16 31  1  0  0  0
 17 18  1  0  0  0
 17103  1  0  0  0
 18 19  2  0  0  0
 18104  1  0  0  0
 19 20  1  0  0  0
 19 24  1  0  0  0
 20 21  2  0  0  0
 20105  1  0  0  0
 21 23  1  0  0  0
 22 28  1  0  0  0
 22 32  2  0  0  0
 26 27  1  0  0  0
 28106  1  0  0  0
 28107  1  0  0  0
 29108  1  0  0  0
 29109  1  0  0  0
 33 34  1  0  0  0
 33 66  1  0  0  0
 33 70  2  0  0  0
 34 36  1  0  0  0
 34 59  1  0  0  0
 34110  1  0  0  0
 35 44  2  0  0  0
 35 45  1  0  0  0
 35 68  1  0  0  0
 36 56  1  0  0  0
 36111  1  0  0  0
 37 39  1  0  0  0
 37 47  1  0  0  0
 37 66  1  0  0  0
 37112  1  0  0  0
 38 43  2  0  0  0
 38 46  1  0  0  0
 38 47  1  0  0  0
 39 64  1  0  0  0
 39 67  2  0  0  0
 40 52  1  0  0  0
 40 53  2  0  0  0
 40 58  1  0  0  0
 41113  1  0  0  0
 41114  1  0  0  0
 41115  1  0  0  0
 41 48  1  0  0  0
 42 43  1  0  0  0
 42 66  1  0  0  0
 42116  1  0  0  0
 42117  1  0  0  0
 43 44  1  0  0  0
 44118  1  0  0  0
 45 46  2  0  0  0
 45119  1  0  0  0
 46120  1  0  0  0
 47121  1  0  0  0
 47122  1  0  0  0
 48 56  1  0  0  0
 48 65  1  0  0  0
 48123  1  0  0  0
 49 50  1  0  0  0
 49 53  1  0  0  0
 49 64  1  0  0  0
 49124  1  0  0  0
 50 51  1  0  0  0
 50125  1  0  0  0
 50126  1  0  0  0
 51 52  1  0  0  0
 51127  1  0  0  0
 51128  1  0  0  0
 52129  1  0  0  0
 52130  1  0  0  0
 53 54  1  0  0  0
 54 55  2  0  0  0
 54131  1  0  0  0
 55 57  1  0  0  0
 55132  1  0  0  0
 56 69  2  0  0  0
 57 58  2  0  0  0
 57133  1  0  0  0
 58134  1  0  0  0
 59 60  1  0  0  0
 59 61  1  0  0  0
 59 62  1  0  0  0
 60135  1  0  0  0
 60136  1  0  0  0
 60137  1  0  0  0
 61138  1  0  0  0
 61139  1  0  0  0
 61140  1  0  0  0
 62141  1  0  0  0
 62142  1  0  0  0
 62143  1  0  0  0
 63 65  1  0  0  0
 63144  1  0  0  0
 63145  1  0  0  0
 63146  1  0  0  0
 64147  1  0  0  0
 65148  1  0  0  0
 68 83  1  0  0  0
 71 73  2  0  0  0
 71 86  1  0  0  0
 71149  1  0  0  0
 72 73  1  0  0  0
 72 87  2  0  0  0
 72150  1  0  0  0
 73 83  1  0  0  0
 74 86  2  0  0  0
 74 87  1  0  0  0
 74 78  1  0  0  0
 75 76  1  0  0  0
 75 78  1  0  0  0
 75151  1  0  0  0
 75152  1  0  0  0
 76153  1  0  0  0
 76154  1  0  0  0
 76 79  1  0  0  0
 77 78  1  0  0  0
 77 80  1  0  0  0
 77155  1  0  0  0
 77156  1  0  0  0
 78157  1  0  0  0
 79 80  1  0  0  0
 79 85  1  0  0  0
 79158  1  0  0  0
 80 84  1  0  0  0
 80159  1  0  0  0
 81160  1  0  0  0
 81161  1  0  0  0
 81162  1  0  0  0
 81 85  1  0  0  0
 82 89  1  0  0  0
 82163  1  0  0  0
 82164  1  0  0  0
 82165  1  0  0  0
 83166  1  0  0  0
 83167  1  0  0  0
 84 89  1  0  0  0
 84168  1  0  0  0
 84169  1  0  0  0
 85 88  1  0  0  0
 85170  1  0  0  0
 88171  1  0  0  0
 89172  1  0  0  0
 89173  1  0  0  0
M  CHG  1  89   1
M  ISO  4   1 100  68 101  83 101  88 100
M  END
> <chiral flag>
0

> <version>
0

> <s_m_source_file>
/data/baiqing/PycharmProjects/Reinvent-master-3.2/result/LINK_invent/BTK/process_docking_weight1_custom_sum_contain_oxygen_bond_distance_aromatic_linkinvent_7_9_3/rearranged_h_0121.sdf

> <i_m_source_file_index>
69

> <r_mmod_Potential_Energy-OPLS-2005>
-583.617248535156

> <r_mmod_Stretch_Energy-OPLS-2005>
36.4868392944336

> <r_mmod_Bend_Energy-OPLS-2005>
112.687545776367

> <r_mmod_Torsional_Energy-OPLS-2005>
259.767944335938

> <r_mmod_Improper_Torsional_Energy-OPLS-2005>
2.01605105400085

> <r_mmod_Van_der_Waal_Energy-OPLS-2005>
162.883102416992

> <r_mmod_Electrostatic_Energy-OPLS-2005>
-713.906921386719

> <r_mmod_Solvation_Energy-OPLS-2005>
-453.777404785156

> <b_mmod_Minimization_Converged-OPLS-2005>
0

> <r_mmod_RMS_Derivative-OPLS-2005>
1.6025995016098

$$$$
69
                    3D
 Structure written by MMmdl.
170179  0  0  1  0            999 V2000
  -30.6091  -14.7456   20.5432 C   0  0  0  0  0  0
  -30.4275  -12.4766   19.4686 C   0  0  0  0  0  0
  -29.5043  -12.5483   18.2306 C   0  0  0  0  0  0
  -28.0270  -12.3657   18.6288 C   0  0  0  0  0  0
  -27.6398  -13.2342   19.8529 C   0  0  2  0  0  0
  -28.6758  -13.1162   20.9853 C   0  0  0  0  0  0
  -25.2486  -13.8218   20.5675 C   0  0  0  0  0  0
  -24.1781  -13.0455   20.9187 C   0  0  0  0  0  0
  -24.6375  -11.6934   20.8737 C   0  0  0  0  0  0
  -23.9060  -10.4306   21.0419 C   0  0  0  0  0  0
  -24.3612   -9.4220   21.9196 C   0  0  0  0  0  0
  -23.6288   -8.2257   22.0765 C   0  0  0  0  0  0
  -22.4271   -8.0292   21.3556 C   0  0  0  0  0  0
  -21.9902   -9.0268   20.4661 C   0  0  0  0  0  0
  -22.7234  -10.2143   20.3064 C   0  0  0  0  0  0
  -21.6851   -6.0749   22.5295 C   0  0  0  0  0  0
  -21.4023   -6.5655   23.8233 C   0  0  0  0  0  0
  -21.3649   -5.6797   24.9189 C   0  0  0  0  0  0
  -21.6036   -4.3058   24.7233 C   0  0  0  0  0  0
  -21.8816   -3.8156   23.4355 C   0  0  0  0  0  0
  -21.9188   -4.6976   22.3414 C   0  0  0  0  0  0
  -22.7807  -13.5241   21.1849 C   0  0  0  0  0  0
  -22.1662   -4.2175   21.0990 F   0  0  0  0  0  0
  -21.5605   -3.4532   25.7734 F   0  0  0  0  0  0
  -29.9828  -13.5129   20.4380 N   0  0  0  0  0  0
  -26.2909  -12.9420   20.3248 N   0  0  0  0  0  0
  -25.9302  -11.6564   20.5710 N   0  0  0  0  0  0
  -22.0445  -12.8239   22.0398 N   0  0  0  0  0  0
  -25.4176  -15.1943   20.4130 N   0  0  0  0  0  0
  -31.7340  -14.8849   20.0490 O   0  0  0  0  0  0
  -21.6623   -6.8896   21.4261 O   0  0  0  0  0  0
  -22.3499  -14.5555   20.6701 O   0  0  0  0  0  0
  -24.6309  -31.8523   23.1944 C   0  0  0  0  0  0
  -25.9131  -32.4730   23.8296 C   0  0  1  0  0  0
  -27.2190  -27.2514   20.1214 C   0  0  0  0  0  0
  -25.5929  -33.8538   24.2237 N   0  0  0  0  0  0
  -23.4277  -30.4746   21.5371 C   0  0  2  0  0  0
  -24.8736  -28.9123   20.1040 C   0  0  0  0  0  0
  -22.7484  -29.4606   22.4894 C   0  0  0  0  0  0
  -18.0288  -28.1388   22.8486 C   0  0  0  0  0  0
  -24.1490  -36.7277   23.2648 C   0  0  0  0  0  0
  -25.9723  -30.7575   21.3764 C   0  0  0  0  0  0
  -26.0392  -29.3782   20.7198 C   0  0  0  0  0  0
  -27.2090  -28.5551   20.7256 C   0  0  0  0  0  0
  -26.0376  -26.8564   19.4587 C   0  0  0  0  0  0
  -24.8762  -27.6597   19.4639 C   0  0  0  0  0  0
  -23.6455  -29.8035   20.1530 C   0  0  0  0  0  0
  -25.4119  -36.3065   24.0334 C   0  0  1  0  0  0
  -20.5891  -28.3723   23.1254 C   0  0  2  0  0  0
  -20.6781  -26.9435   22.5411 C   0  0  0  0  0  0
  -19.5763  -26.6390   21.5204 C   0  0  0  0  0  0
  -18.1941  -26.7938   22.1610 C   0  0  0  0  0  0
  -19.1542  -28.8871   23.2867 C   0  0  0  0  0  0
  -18.9474  -30.1465   23.8898 C   0  0  0  0  0  0
  -17.6476  -30.6593   24.0573 C   0  0  0  0  0  0
  -25.9066  -34.9429   23.5092 C   0  0  0  0  0  0
  -16.5362  -29.9103   23.6330 C   0  0  0  0  0  0
  -16.7278  -28.6509   23.0360 C   0  0  0  0  0  0
  -26.4511  -31.6552   25.0681 C   0  0  0  0  0  0
  -25.3746  -31.3690   26.1410 C   0  0  0  0  0  0
  -27.0374  -30.2970   24.6156 C   0  0  0  0  0  0
  -27.6079  -32.4277   25.7445 C   0  0  0  0  0  0
  -27.5578  -37.1791   24.8465 C   0  0  0  0  0  0
  -21.4199  -29.3054   22.3626 N   0  0  0  0  0  0
  -26.4295  -37.3763   23.9410 N   0  0  0  0  0  0
  -24.6964  -31.0476   22.0919 N   0  0  0  0  0  0
  -23.4175  -28.8147   23.2999 O   0  0  0  0  0  0
  -28.3228  -26.3770   20.2451 O   0  0  0  0  0  0
  -26.5639  -34.8909   22.4663 O   0  0  0  0  0  0
  -23.5461  -32.1355   23.7245 O   0  0  0  0  0  0
  -28.6298  -20.9069   20.2450 C   0  0  0  0  0  0
  -29.4926  -22.3385   21.6794 C   0  0  0  0  0  0
  -28.6641  -22.3355   20.5971 C   0  0  0  0  0  0
  -29.3196  -20.0858   21.1516 C   0  0  0  0  0  0
  -28.3791  -16.6133   22.8473 C   0  0  0  0  0  0
  -28.2128  -18.0128   22.2097 C   0  0  0  0  0  0
  -29.6964  -15.9016   22.4760 C   0  0  0  0  0  0
  -29.8915  -17.2985   20.4387 C   0  0  0  0  0  0
  -29.4532  -18.5052   21.4424 C   0  0  1  0  0  0
  -29.7072  -21.3392   24.5365 C   0  0  0  0  0  0
  -31.9291  -21.4507   23.3040 C   0  0  0  0  0  0
  -28.4744  -25.0271   19.5899 C   0  0  0  0  0  0
  -27.8353  -23.5972   20.0547 C   0  0  2  0  0  0
  -30.5305  -20.8169   23.3446 C   0  0  0  0  0  0
  -29.8184  -21.0373   22.0747 N   0  0  0  0  0  0
  -29.8996  -15.8580   21.0198 N   0  0  0  0  0  0
  -26.6873  -23.8071   20.9506 N   0  3  0  0  0  0
  -31.4667  -12.6103   19.1625 H   0  0  0  0  0  0
  -30.3829  -11.4844   19.9215 H   0  0  0  0  0  0
  -29.7901  -11.7966   17.4954 H   0  0  0  0  0  0
  -29.6300  -13.5152   17.7404 H   0  0  0  0  0  0
  -27.8625  -11.3098   18.8509 H   0  0  0  0  0  0
  -27.3765  -12.6013   17.7849 H   0  0  0  0  0  0
  -27.6496  -14.2700   19.5101 H   0  0  0  0  0  0
  -28.7135  -12.0948   21.3641 H   0  0  0  0  0  0
  -28.3550  -13.7287   21.8228 H   0  0  0  0  0  0
  -25.2762   -9.5686   22.4769 H   0  0  0  0  0  0
  -24.0004   -7.4638   22.7474 H   0  0  0  0  0  0
  -21.0837   -8.8779   19.8967 H   0  0  0  0  0  0
  -22.3702  -10.9676   19.6158 H   0  0  0  0  0  0
  -21.2038   -7.6166   23.9752 H   0  0  0  0  0  0
  -21.1458   -6.0528   25.9094 H   0  0  0  0  0  0
  -22.0595   -2.7624   23.2849 H   0  0  0  0  0  0
  -22.4026  -11.9879   22.4774 H   0  0  0  0  0  0
  -21.1078  -13.1298   22.2606 H   0  0  0  0  0  0
  -24.6533  -15.8487   20.5381 H   0  0  0  0  0  0
  -26.2746  -15.6395   20.1136 H   0  0  0  0  0  0
  -26.7185  -32.5365   23.1030 H   0  0  0  0  0  0
  -25.0084  -33.9668   25.0384 H   0  0  0  0  0  0
  -22.7258  -31.2975   21.3894 H   0  0  0  0  0  0
  -23.3751  -35.9606   23.3298 H   0  0  0  0  0  0
  -24.3599  -36.8902   22.2064 H   0  0  0  0  0  0
  -23.7233  -37.6472   23.6679 H   0  0  0  0  0  0
  -26.1118  -31.5117   20.6013 H   0  0  0  0  0  0
  -26.8519  -30.8089   22.0065 H   0  0  0  0  0  0
  -28.0978  -28.9026   21.2333 H   0  0  0  0  0  0
  -25.9795  -25.9071   18.9489 H   0  0  0  0  0  0
  -23.9820  -27.3024   18.9720 H   0  0  0  0  0  0
  -23.7755  -30.5797   19.3982 H   0  0  0  0  0  0
  -22.7616  -29.2427   19.8466 H   0  0  0  0  0  0
  -25.1296  -36.1909   25.0828 H   0  0  0  0  0  0
  -20.9999  -28.3321   24.1367 H   0  0  0  0  0  0
  -20.5662  -26.2346   23.3637 H   0  0  0  0  0  0
  -21.6661  -26.7442   22.1226 H   0  0  0  0  0  0
  -19.6935  -25.6296   21.1251 H   0  0  0  0  0  0
  -19.6706  -27.3193   20.6733 H   0  0  0  0  0  0
  -17.4222  -26.6692   21.4000 H   0  0  0  0  0  0
  -18.0331  -26.0068   22.8994 H   0  0  0  0  0  0
  -19.7947  -30.7270   24.2269 H   0  0  0  0  0  0
  -17.5037  -31.6274   24.5173 H   0  0  0  0  0  0
  -15.5369  -30.3017   23.7646 H   0  0  0  0  0  0
  -15.8674  -28.0832   22.7086 H   0  0  0  0  0  0
  -24.5964  -30.6977   25.7752 H   0  0  0  0  0  0
  -24.8897  -32.2854   26.4777 H   0  0  0  0  0  0
  -25.8096  -30.8927   27.0206 H   0  0  0  0  0  0
  -26.2946  -29.6680   24.1232 H   0  0  0  0  0  0
  -27.4132  -29.7254   25.4653 H   0  0  0  0  0  0
  -27.8789  -30.4256   23.9345 H   0  0  0  0  0  0
  -27.2710  -33.3600   26.1982 H   0  0  0  0  0  0
  -28.3910  -32.6774   25.0274 H   0  0  0  0  0  0
  -28.0721  -31.8409   26.5380 H   0  0  0  0  0  0
  -28.2593  -38.0093   24.7524 H   0  0  0  0  0  0
  -28.1076  -36.2623   24.6274 H   0  0  0  0  0  0
  -27.2309  -37.1420   25.8874 H   0  0  0  0  0  0
  -20.9380  -29.8758   21.6819 H   0  0  0  0  0  0
  -26.0160  -38.2827   24.1419 H   0  0  0  0  0  0
  -28.0408  -20.4972   19.4348 H   0  0  0  0  0  0
  -29.8030  -23.1734   22.2946 H   0  0  0  0  0  0
  -27.5317  -15.9853   22.5629 H   0  0  0  0  0  0
  -28.3238  -16.7058   23.9330 H   0  0  0  0  0  0
  -27.9663  -18.7234   22.9986 H   0  0  0  0  0  0
  -27.3538  -18.0087   21.5384 H   0  0  0  0  0  0
  -29.7186  -14.9135   22.9365 H   0  0  0  0  0  0
  -30.5483  -16.4105   22.9293 H   0  0  0  0  0  0
  -30.8796  -17.5158   20.0318 H   0  0  0  0  0  0
  -29.2131  -17.2918   19.5849 H   0  0  0  0  0  0
  -30.2856  -18.4353   22.1276 H   0  0  0  0  0  0
  -30.2003  -21.1074   25.4804 H   0  0  0  0  0  0
  -28.7194  -20.8793   24.5654 H   0  0  0  0  0  0
  -29.5659  -22.4188   24.5024 H   0  0  0  0  0  0
  -32.5043  -21.1754   24.1875 H   0  0  0  0  0  0
  -31.8801  -22.5388   23.2692 H   0  0  0  0  0  0
  -32.4841  -21.1112   22.4295 H   0  0  0  0  0  0
  -28.1899  -25.1768   18.5478 H   0  0  0  0  0  0
  -29.5506  -24.8651   19.5245 H   0  0  0  0  0  0
  -27.3954  -23.1988   19.1392 H   0  0  0  0  0  0
  -30.6706  -19.7617   23.5399 H   0  0  0  0  0  0
  -26.9751  -24.2817   21.7882 H   0  0  0  0  0  0
  -26.2972  -22.9173   21.2065 H   0  0  0  0  0  0
  -25.9700  -24.3466   20.4999 H   0  0  0  0  0  0
  1 25  1  0  0  0
  1 30  2  0  0  0
  1 86  1  0  0  0
  2  3  1  0  0  0
  2 25  1  0  0  0
  2 88  1  0  0  0
  2 89  1  0  0  0
  3  4  1  0  0  0
  3 90  1  0  0  0
  3 91  1  0  0  0
  4  5  1  0  0  0
  4 92  1  0  0  0
  4 93  1  0  0  0
  5  6  1  0  0  0
  5 26  1  0  0  0
  5 94  1  0  0  0
  6 25  1  0  0  0
  6 95  1  0  0  0
  6 96  1  0  0  0
  7  8  2  0  0  0
  7 26  1  0  0  0
  7 29  1  0  0  0
  8  9  1  0  0  0
  8 22  1  0  0  0
  9 10  1  0  0  0
  9 27  2  0  0  0
 10 11  2  0  0  0
 10 15  1  0  0  0
 11 12  1  0  0  0
 11 97  1  0  0  0
 12 13  2  0  0  0
 12 98  1  0  0  0
 13 14  1  0  0  0
 13 31  1  0  0  0
 14 15  2  0  0  0
 14 99  1  0  0  0
 15100  1  0  0  0
 16 17  2  0  0  0
 16 21  1  0  0  0
 16 31  1  0  0  0
 17 18  1  0  0  0
 17101  1  0  0  0
 18 19  2  0  0  0
 18102  1  0  0  0
 19 20  1  0  0  0
 19 24  1  0  0  0
 20 21  2  0  0  0
 20103  1  0  0  0
 21 23  1  0  0  0
 22 28  1  0  0  0
 22 32  2  0  0  0
 26 27  1  0  0  0
 28104  1  0  0  0
 28105  1  0  0  0
 29106  1  0  0  0
 29107  1  0  0  0
 33 34  1  0  0  0
 33 66  1  0  0  0
 33 70  2  0  0  0
 34 36  1  0  0  0
 34 59  1  0  0  0
 34108  1  0  0  0
 35 44  2  0  0  0
 35 45  1  0  0  0
 35 68  1  0  0  0
 36 56  1  0  0  0
 36109  1  0  0  0
 37 39  1  0  0  0
 37 47  1  0  0  0
 37 66  1  0  0  0
 37110  1  0  0  0
 38 43  2  0  0  0
 38 46  1  0  0  0
 38 47  1  0  0  0
 39 64  1  0  0  0
 39 67  2  0  0  0
 40 52  1  0  0  0
 40 53  2  0  0  0
 40 58  1  0  0  0
 41111  1  0  0  0
 41112  1  0  0  0
 41113  1  0  0  0
 41 48  1  0  0  0
 42 43  1  0  0  0
 42 66  1  0  0  0
 42114  1  0  0  0
 42115  1  0  0  0
 43 44  1  0  0  0
 44116  1  0  0  0
 45 46  2  0  0  0
 45117  1  0  0  0
 46118  1  0  0  0
 47119  1  0  0  0
 47120  1  0  0  0
 48 56  1  0  0  0
 48 65  1  0  0  0
 48121  1  0  0  0
 49 50  1  0  0  0
 49 53  1  0  0  0
 49 64  1  0  0  0
 49122  1  0  0  0
 50 51  1  0  0  0
 50123  1  0  0  0
 50124  1  0  0  0
 51 52  1  0  0  0
 51125  1  0  0  0
 51126  1  0  0  0
 52127  1  0  0  0
 52128  1  0  0  0
 53 54  1  0  0  0
 54 55  2  0  0  0
 54129  1  0  0  0
 55 57  1  0  0  0
 55130  1  0  0  0
 56 69  2  0  0  0
 57 58  2  0  0  0
 57131  1  0  0  0
 58132  1  0  0  0
 59 60  1  0  0  0
 59 61  1  0  0  0
 59 62  1  0  0  0
 60133  1  0  0  0
 60134  1  0  0  0
 60135  1  0  0  0
 61136  1  0  0  0
 61137  1  0  0  0
 61138  1  0  0  0
 62139  1  0  0  0
 62140  1  0  0  0
 62141  1  0  0  0
 63 65  1  0  0  0
 63142  1  0  0  0
 63143  1  0  0  0
 63144  1  0  0  0
 64145  1  0  0  0
 65146  1  0  0  0
 68 82  1  0  0  0
 71 73  1  0  0  0
 71 74  2  0  0  0
 71147  1  0  0  0
 72 73  2  0  0  0
 72 85  1  0  0  0
 72148  1  0  0  0
 73 83  1  0  0  0
 74 85  1  0  0  0
 74 79  1  0  0  0
 75 76  1  0  0  0
 75 77  1  0  0  0
 75149  1  0  0  0
 75150  1  0  0  0
 76 79  1  0  0  0
 76151  1  0  0  0
 76152  1  0  0  0
 77 86  1  0  0  0
 77153  1  0  0  0
 77154  1  0  0  0
 78 79  1  0  0  0
 78 86  1  0  0  0
 78155  1  0  0  0
 78156  1  0  0  0
 79157  1  0  0  0
 80158  1  0  0  0
 80159  1  0  0  0
 80160  1  0  0  0
 80 84  1  0  0  0
 81 84  1  0  0  0
 81161  1  0  0  0
 81162  1  0  0  0
 81163  1  0  0  0
 82 83  1  0  0  0
 82164  1  0  0  0
 82165  1  0  0  0
 83 87  1  0  0  0
 83166  1  0  0  0
 84 85  1  0  0  0
 84167  1  0  0  0
 87168  1  0  0  0
 87169  1  0  0  0
 87170  1  0  0  0
M  CHG  1  87   1
M  ISO  4   1 100  68 101  82 101  86 100
M  END
> <chiral flag>
0

> <version>
0

> <s_m_source_file>
/data/baiqing/PycharmProjects/Reinvent-master-3.2/result/LINK_invent/BTK/process_docking_weight1_custom_sum_contain_oxygen_bond_distance_aromatic_linkinvent_7_9_3/rearranged_h_0121.sdf

> <i_m_source_file_index>
70

> <r_mmod_Potential_Energy-OPLS-2005>
221.785568237305

> <r_mmod_Stretch_Energy-OPLS-2005>
151.428482055664

> <r_mmod_Bend_Energy-OPLS-2005>
243.842971801758

> <r_mmod_Torsional_Energy-OPLS-2005>
372.109436035156

> <r_mmod_Improper_Torsional_Energy-OPLS-2005>
9.38092803955078

> <r_mmod_Van_der_Waal_Energy-OPLS-2005>
122.777015686035

> <r_mmod_Electrostatic_Energy-OPLS-2005>
-328.606231689453

> <r_mmod_Solvation_Energy-OPLS-2005>
-434.861267089844

> <b_mmod_Minimization_Converged-OPLS-2005>
0

> <r_mmod_RMS_Derivative-OPLS-2005>
2.43048715591431

$$$$
70
                    3D
 Structure written by MMmdl.
178187  0  0  1  0            999 V2000
  -30.6958  -14.5166   20.5444 C   0  0  0  0  0  0
  -30.4189  -12.3285   19.4382 C   0  0  0  0  0  0
  -29.4952  -12.4909   18.2138 C   0  0  0  0  0  0
  -28.0177  -12.3460   18.6283 C   0  0  0  0  0  0
  -27.6534  -13.2114   19.8646 C   0  0  2  0  0  0
  -28.6952  -13.0418   20.9935 C   0  0  0  0  0  0
  -25.2536  -13.8133   20.5648 C   0  0  0  0  0  0
  -24.1817  -13.0418   20.9206 C   0  0  0  0  0  0
  -24.6381  -11.6887   20.8753 C   0  0  0  0  0  0
  -23.9053  -10.4278   21.0410 C   0  0  0  0  0  0
  -24.3609   -9.4194   21.9184 C   0  0  0  0  0  0
  -23.6287   -8.2231   22.0749 C   0  0  0  0  0  0
  -22.4271   -8.0270   21.3539 C   0  0  0  0  0  0
  -21.9905   -9.0241   20.4642 C   0  0  0  0  0  0
  -22.7228  -10.2121   20.3054 C   0  0  0  0  0  0
  -21.6847   -6.0731   22.5279 C   0  0  0  0  0  0
  -21.4009   -6.5637   23.8210 C   0  0  0  0  0  0
  -21.3657   -5.6792   24.9173 C   0  0  0  0  0  0
  -21.6045   -4.3055   24.7225 C   0  0  0  0  0  0
  -21.8820   -3.8147   23.4346 C   0  0  0  0  0  0
  -21.9192   -4.6962   22.3403 C   0  0  0  0  0  0
  -22.7840  -13.5215   21.1859 C   0  0  0  0  0  0
  -22.1662   -4.2140   21.0981 F   0  0  0  0  0  0
  -21.5631   -3.4542   25.7743 F   0  0  0  0  0  0
  -30.0214  -13.3391   20.4335 N   0  0  0  0  0  0
  -26.2976  -12.9325   20.3322 N   0  0  0  0  0  0
  -25.9309  -11.6486   20.5775 N   0  0  0  0  0  0
  -22.0486  -12.8207   22.0411 N   0  0  0  0  0  0
  -25.4236  -15.1831   20.3959 N   0  0  0  0  0  0
  -31.8397  -14.6660   20.1090 O   0  0  0  0  0  0
  -21.6635   -6.8869   21.4235 O   0  0  0  0  0  0
  -22.3530  -14.5527   20.6708 O   0  0  0  0  0  0
  -24.6138  -31.8670   23.2088 C   0  0  0  0  0  0
  -25.9036  -32.4813   23.8368 C   0  0  1  0  0  0
  -27.2307  -27.4223   20.1107 C   0  0  0  0  0  0
  -25.5907  -33.8600   24.2308 N   0  0  0  0  0  0
  -23.4033  -30.4872   21.5484 C   0  0  2  0  0  0
  -24.8524  -28.9518   20.1116 C   0  0  0  0  0  0
  -22.7406  -29.4647   22.4982 C   0  0  0  0  0  0
  -18.0260  -28.1347   22.8468 C   0  0  0  0  0  0
  -24.1496  -36.7316   23.2637 C   0  0  0  0  0  0
  -25.9313  -30.8292   21.3627 C   0  0  0  0  0  0
  -26.0121  -29.4631   20.7100 C   0  0  0  0  0  0
  -27.2071  -28.7047   20.7084 C   0  0  0  0  0  0
  -26.0613  -26.9283   19.4997 C   0  0  0  0  0  0
  -24.8722  -27.6844   19.5013 C   0  0  0  0  0  0
  -23.6119  -29.8167   20.1634 C   0  0  0  0  0  0
  -25.4118  -36.3092   24.0325 C   0  0  1  0  0  0
  -20.5849  -28.3627   23.1303 C   0  0  2  0  0  0
  -20.6745  -26.9364   22.5403 C   0  0  0  0  0  0
  -19.5736  -26.6363   21.5188 C   0  0  0  0  0  0
  -18.1910  -26.7895   22.1598 C   0  0  0  0  0  0
  -19.1510  -28.8809   23.2873 C   0  0  0  0  0  0
  -18.9459  -30.1413   23.8882 C   0  0  0  0  0  0
  -17.6461  -30.6554   24.0552 C   0  0  0  0  0  0
  -25.9050  -34.9461   23.5118 C   0  0  0  0  0  0
  -16.5349  -29.9053   23.6326 C   0  0  0  0  0  0
  -16.7248  -28.6472   23.0346 C   0  0  0  0  0  0
  -26.4460  -31.6598   25.0699 C   0  0  0  0  0  0
  -25.3724  -31.3728   26.1464 C   0  0  0  0  0  0
  -27.0304  -30.3035   24.6085 C   0  0  0  0  0  0
  -27.6037  -32.4327   25.7470 C   0  0  0  0  0  0
  -27.5589  -37.1796   24.8444 C   0  0  0  0  0  0
  -21.4132  -29.3019   22.3739 N   0  0  0  0  0  0
  -26.4290  -37.3790   23.9414 N   0  0  0  0  0  0
  -24.6670  -31.0761   22.0983 N   0  0  0  0  0  0
  -23.4188  -28.8185   23.3017 O   0  0  0  0  0  0
  -28.3607  -26.6347   20.1200 O   0  0  0  0  0  0
  -26.5603  -34.8915   22.4669 O   0  0  0  0  0  0
  -23.5337  -32.1408   23.7491 O   0  0  0  0  0  0
  -27.7115  -21.9770   20.9309 C   0  0  0  0  0  0
  -27.5615  -23.3539   21.2053 C   0  0  0  0  0  0
  -29.8110  -23.7550   20.4091 C   0  0  0  0  0  0
  -28.9056  -21.4562   20.3682 C   0  0  0  0  0  0
  -28.6034  -24.2659   20.9279 C   0  0  0  0  0  0
  -29.9725  -22.3725   20.1326 C   0  0  0  0  0  0
  -27.6001  -17.9603   20.1723 C   0  0  0  0  0  0
  -26.9541  -18.8848   19.1471 C   0  0  0  0  0  0
  -28.9599  -19.9751   19.9020 C   0  0  1  0  0  0
  -28.5587  -18.8735   20.9430 C   0  0  2  0  0  0
  -31.3096  -21.9095   19.5744 C   0  0  0  0  0  0
  -27.6676  -20.0542   16.2909 C   0  0  0  0  0  0
  -28.4539  -25.7590   21.2597 C   0  0  0  0  0  0
  -30.4737  -16.9884   20.8811 C   0  0  0  0  0  0
  -28.6077  -19.6550   17.4408 C   0  0  0  0  0  0
  -29.2423  -17.6371   23.0924 C   0  0  0  0  0  0
  -29.7103  -18.1047   21.6887 C   0  0  2  0  0  0
  -29.9928  -15.5854   20.9947 N   0  0  0  0  0  0
  -27.9932  -19.8697   18.7765 N   0  3  1  0  0  0
  -30.3403  -17.1357   23.9397 N   0  3  0  0  0  0
  -31.4640  -12.4216   19.1382 H   0  0  0  0  0  0
  -30.3202  -11.3293   19.8642 H   0  0  0  0  0  0
  -29.7408  -11.7474   17.4545 H   0  0  0  0  0  0
  -29.6541  -13.4663   17.7521 H   0  0  0  0  0  0
  -27.8423  -11.2924   18.8530 H   0  0  0  0  0  0
  -27.3624  -12.5878   17.7902 H   0  0  0  0  0  0
  -27.6826  -14.2499   19.5345 H   0  0  0  0  0  0
  -28.6811  -12.0202   21.3762 H   0  0  0  0  0  0
  -28.4557  -13.6811   21.8441 H   0  0  0  0  0  0
  -25.2751   -9.5669   22.4757 H   0  0  0  0  0  0
  -23.9996   -7.4617   22.7464 H   0  0  0  0  0  0
  -21.0838   -8.8752   19.8945 H   0  0  0  0  0  0
  -22.3684  -10.9657   19.6164 H   0  0  0  0  0  0
  -21.1998   -7.6144   23.9706 H   0  0  0  0  0  0
  -21.1479   -6.0526   25.9072 H   0  0  0  0  0  0
  -22.0604   -2.7604   23.2853 H   0  0  0  0  0  0
  -22.4103  -11.9866   22.4797 H   0  0  0  0  0  0
  -21.1092  -13.1207   22.2608 H   0  0  0  0  0  0
  -24.6433  -15.8268   20.4669 H   0  0  0  0  0  0
  -26.2458  -15.5921   19.9759 H   0  0  0  0  0  0
  -26.7104  -32.5521   23.1131 H   0  0  0  0  0  0
  -25.0044  -33.9731   25.0440 H   0  0  0  0  0  0
  -22.6918  -31.3038   21.4092 H   0  0  0  0  0  0
  -23.3740  -35.9667   23.3276 H   0  0  0  0  0  0
  -24.3584  -36.8950   22.2051 H   0  0  0  0  0  0
  -23.7253  -37.6514   23.6660 H   0  0  0  0  0  0
  -26.0417  -31.5955   20.5944 H   0  0  0  0  0  0
  -26.8188  -30.8804   21.9820 H   0  0  0  0  0  0
  -28.1007  -29.0879   21.1809 H   0  0  0  0  0  0
  -26.0668  -25.9507   19.0369 H   0  0  0  0  0  0
  -23.9811  -27.2859   19.0349 H   0  0  0  0  0  0
  -23.7138  -30.5895   19.4010 H   0  0  0  0  0  0
  -22.7350  -29.2339   19.8744 H   0  0  0  0  0  0
  -25.1288  -36.1954   25.0817 H   0  0  0  0  0  0
  -20.9931  -28.3192   24.1429 H   0  0  0  0  0  0
  -20.5649  -26.2226   23.3574 H   0  0  0  0  0  0
  -21.6617  -26.7399   22.1221 H   0  0  0  0  0  0
  -19.6911  -25.6291   21.1188 H   0  0  0  0  0  0
  -19.6704  -27.3195   20.6730 H   0  0  0  0  0  0
  -17.4195  -26.6624   21.3994 H   0  0  0  0  0  0
  -18.0318  -26.0030   22.8991 H   0  0  0  0  0  0
  -19.7949  -30.7194   24.2279 H   0  0  0  0  0  0
  -17.5033  -31.6245   24.5125 H   0  0  0  0  0  0
  -15.5354  -30.2958   23.7658 H   0  0  0  0  0  0
  -15.8645  -28.0789   22.7084 H   0  0  0  0  0  0
  -24.5897  -30.7070   25.7809 H   0  0  0  0  0  0
  -24.8930  -32.2903   26.4890 H   0  0  0  0  0  0
  -25.8093  -30.8919   27.0234 H   0  0  0  0  0  0
  -26.2855  -29.6778   24.1163 H   0  0  0  0  0  0
  -27.4066  -29.7292   25.4561 H   0  0  0  0  0  0
  -27.8684  -30.4323   23.9234 H   0  0  0  0  0  0
  -27.2648  -33.3624   26.2058 H   0  0  0  0  0  0
  -28.3858  -32.6896   25.0314 H   0  0  0  0  0  0
  -28.0688  -31.8444   26.5389 H   0  0  0  0  0  0
  -28.2572  -38.0131   24.7555 H   0  0  0  0  0  0
  -28.1127  -36.2662   24.6206 H   0  0  0  0  0  0
  -27.2302  -37.1365   25.8842 H   0  0  0  0  0  0
  -20.9278  -29.8775   21.6992 H   0  0  0  0  0  0
  -26.0172  -38.2860   24.1448 H   0  0  0  0  0  0
  -26.8713  -21.3267   21.1345 H   0  0  0  0  0  0
  -26.6308  -23.7052   21.6311 H   0  0  0  0  0  0
  -30.6264  -24.4444   20.2274 H   0  0  0  0  0  0
  -28.1279  -17.1700   19.6383 H   0  0  0  0  0  0
  -26.8638  -17.4907   20.8239 H   0  0  0  0  0  0
  -26.1282  -19.4274   19.6097 H   0  0  0  0  0  0
  -26.5437  -18.3347   18.2996 H   0  0  0  0  0  0
  -29.9532  -19.7235   19.5343 H   0  0  0  0  0  0
  -27.9535  -19.3735   21.7001 H   0  0  0  0  0  0
  -32.0121  -22.7371   19.4787 H   0  0  0  0  0  0
  -31.1903  -21.4760   18.5835 H   0  0  0  0  0  0
  -31.7690  -21.1690   20.2311 H   0  0  0  0  0  0
  -28.1866  -19.9924   15.3336 H   0  0  0  0  0  0
  -27.3174  -21.0805   16.4019 H   0  0  0  0  0  0
  -26.7926  -19.4074   16.2295 H   0  0  0  0  0  0
  -29.3235  -26.0618   21.8436 H   0  0  0  0  0  0
  -27.6015  -25.8839   21.9318 H   0  0  0  0  0  0
  -31.5113  -16.9995   21.2215 H   0  0  0  0  0  0
  -30.5304  -17.2634   19.8267 H   0  0  0  0  0  0
  -29.5051  -20.2684   17.3547 H   0  0  0  0  0  0
  -28.9317  -18.6182   17.3372 H   0  0  0  0  0  0
  -28.4721  -16.8703   23.0007 H   0  0  0  0  0  0
  -28.7793  -18.4689   23.6259 H   0  0  0  0  0  0
  -30.4524  -18.8822   21.8801 H   0  0  0  0  0  0
  -29.0367  -15.4152   21.2671 H   0  0  0  0  0  0
  -27.5468  -20.7742   18.7335 H   0  0  0  0  0  0
  -30.7728  -16.3246   23.5367 H   0  0  0  0  0  0
  -29.9785  -16.8754   24.8404 H   0  0  0  0  0  0
  -31.0409  -17.8414   24.0842 H   0  0  0  0  0  0
  1 25  1  0  0  0
  1 30  2  0  0  0
  1 88  1  0  0  0
  2  3  1  0  0  0
  2 25  1  0  0  0
  2 91  1  0  0  0
  2 92  1  0  0  0
  3  4  1  0  0  0
  3 93  1  0  0  0
  3 94  1  0  0  0
  4  5  1  0  0  0
  4 95  1  0  0  0
  4 96  1  0  0  0
  5  6  1  0  0  0
  5 26  1  0  0  0
  5 97  1  0  0  0
  6 25  1  0  0  0
  6 98  1  0  0  0
  6 99  1  0  0  0
  7  8  2  0  0  0
  7 26  1  0  0  0
  7 29  1  0  0  0
  8  9  1  0  0  0
  8 22  1  0  0  0
  9 10  1  0  0  0
  9 27  2  0  0  0
 10 11  2  0  0  0
 10 15  1  0  0  0
 11 12  1  0  0  0
 11100  1  0  0  0
 12 13  2  0  0  0
 12101  1  0  0  0
 13 14  1  0  0  0
 13 31  1  0  0  0
 14 15  2  0  0  0
 14102  1  0  0  0
 15103  1  0  0  0
 16 17  2  0  0  0
 16 21  1  0  0  0
 16 31  1  0  0  0
 17 18  1  0  0  0
 17104  1  0  0  0
 18 19  2  0  0  0
 18105  1  0  0  0
 19 20  1  0  0  0
 19 24  1  0  0  0
 20 21  2  0  0  0
 20106  1  0  0  0
 21 23  1  0  0  0
 22 28  1  0  0  0
 22 32  2  0  0  0
 26 27  1  0  0  0
 28107  1  0  0  0
 28108  1  0  0  0
 29109  1  0  0  0
 29110  1  0  0  0
 33 34  1  0  0  0
 33 66  1  0  0  0
 33 70  2  0  0  0
 34 36  1  0  0  0
 34 59  1  0  0  0
 34111  1  0  0  0
 35 44  2  0  0  0
 35 45  1  0  0  0
 35 68  1  0  0  0
 36 56  1  0  0  0
 36112  1  0  0  0
 37 39  1  0  0  0
 37 47  1  0  0  0
 37 66  1  0  0  0
 37113  1  0  0  0
 38 43  2  0  0  0
 38 46  1  0  0  0
 38 47  1  0  0  0
 39 64  1  0  0  0
 39 67  2  0  0  0
 40 52  1  0  0  0
 40 53  2  0  0  0
 40 58  1  0  0  0
 41114  1  0  0  0
 41115  1  0  0  0
 41116  1  0  0  0
 41 48  1  0  0  0
 42 43  1  0  0  0
 42 66  1  0  0  0
 42117  1  0  0  0
 42118  1  0  0  0
 43 44  1  0  0  0
 44119  1  0  0  0
 45 46  2  0  0  0
 45120  1  0  0  0
 46121  1  0  0  0
 47122  1  0  0  0
 47123  1  0  0  0
 48 56  1  0  0  0
 48 65  1  0  0  0
 48124  1  0  0  0
 49 50  1  0  0  0
 49 53  1  0  0  0
 49 64  1  0  0  0
 49125  1  0  0  0
 50 51  1  0  0  0
 50126  1  0  0  0
 50127  1  0  0  0
 51 52  1  0  0  0
 51128  1  0  0  0
 51129  1  0  0  0
 52130  1  0  0  0
 52131  1  0  0  0
 53 54  1  0  0  0
 54 55  2  0  0  0
 54132  1  0  0  0
 55 57  1  0  0  0
 55133  1  0  0  0
 56 69  2  0  0  0
 57 58  2  0  0  0
 57134  1  0  0  0
 58135  1  0  0  0
 59 60  1  0  0  0
 59 61  1  0  0  0
 59 62  1  0  0  0
 60136  1  0  0  0
 60137  1  0  0  0
 60138  1  0  0  0
 61139  1  0  0  0
 61140  1  0  0  0
 61141  1  0  0  0
 62142  1  0  0  0
 62143  1  0  0  0
 62144  1  0  0  0
 63 65  1  0  0  0
 63145  1  0  0  0
 63146  1  0  0  0
 63147  1  0  0  0
 64148  1  0  0  0
 65149  1  0  0  0
 68 83  1  0  0  0
 71 72  2  0  0  0
 71 74  1  0  0  0
 71150  1  0  0  0
 72 75  1  0  0  0
 72151  1  0  0  0
 73 75  2  0  0  0
 73 76  1  0  0  0
 73152  1  0  0  0
 74 76  2  0  0  0
 74 79  1  0  0  0
 75 83  1  0  0  0
 76 81  1  0  0  0
 77 78  1  0  0  0
 77153  1  0  0  0
 77154  1  0  0  0
 77 80  1  0  0  0
 78 89  1  0  0  0
 78155  1  0  0  0
 78156  1  0  0  0
 79 80  1  0  0  0
 79 89  1  0  0  0
 79157  1  0  0  0
 80 87  1  0  0  0
 80158  1  0  0  0
 81159  1  0  0  0
 81160  1  0  0  0
 81161  1  0  0  0
 82 85  1  0  0  0
 82162  1  0  0  0
 82163  1  0  0  0
 82164  1  0  0  0
 83165  1  0  0  0
 83166  1  0  0  0
 84 88  1  0  0  0
 84167  1  0  0  0
 84168  1  0  0  0
 84 87  1  0  0  0
 85169  1  0  0  0
 85170  1  0  0  0
 85 89  1  0  0  0
 86 87  1  0  0  0
 86 90  1  0  0  0
 86171  1  0  0  0
 86172  1  0  0  0
 87173  1  0  0  0
 88174  1  0  0  0
 89175  1  0  0  0
 90176  1  0  0  0
 90177  1  0  0  0
 90178  1  0  0  0
M  CHG  2  89   1  90   1
M  ISO  4   1 100  68 101  83 101  88 100
M  END
> <chiral flag>
0

> <version>
0

> <s_m_source_file>
/data/baiqing/PycharmProjects/Reinvent-master-3.2/result/LINK_invent/BTK/process_docking_weight1_custom_sum_contain_oxygen_bond_distance_aromatic_linkinvent_7_9_3/rearranged_h_0121.sdf

> <i_m_source_file_index>
71

> <r_mmod_Potential_Energy-OPLS-2005>
-241.175888061523

> <r_mmod_Stretch_Energy-OPLS-2005>
48.9075088500977

> <r_mmod_Bend_Energy-OPLS-2005>
133.115570068359

> <r_mmod_Torsional_Energy-OPLS-2005>
338.230346679688

> <r_mmod_Improper_Torsional_Energy-OPLS-2005>
5.204185962677

> <r_mmod_Van_der_Waal_Energy-OPLS-2005>
132.197616577148

> <r_mmod_Electrostatic_Energy-OPLS-2005>
39.8911247253418

> <r_mmod_Solvation_Energy-OPLS-2005>
-957.491760253906

> <b_mmod_Minimization_Converged-OPLS-2005>
0

> <r_mmod_RMS_Derivative-OPLS-2005>
2.4117648601532

$$$$
71
                    3D
 Structure written by MMmdl.
165173  0  0  1  0            999 V2000
  -30.7916  -14.3738   20.6669 C   0  0  0  0  0  0
  -30.4125  -12.2946   19.4023 C   0  0  0  0  0  0
  -29.4815  -12.5183   18.1962 C   0  0  0  0  0  0
  -28.0079  -12.3745   18.6174 C   0  0  0  0  0  0
  -27.6661  -13.2074   19.8808 C   0  0  2  0  0  0
  -28.7081  -12.9782   20.9990 C   0  0  0  0  0  0
  -25.2611  -13.8167   20.5694 C   0  0  0  0  0  0
  -24.1857  -13.0456   20.9195 C   0  0  0  0  0  0
  -24.6410  -11.6923   20.8740 C   0  0  0  0  0  0
  -23.9072  -10.4305   21.0412 C   0  0  0  0  0  0
  -24.3626   -9.4213   21.9183 C   0  0  0  0  0  0
  -23.6303   -8.2251   22.0750 C   0  0  0  0  0  0
  -22.4286   -8.0296   21.3541 C   0  0  0  0  0  0
  -21.9924   -9.0270   20.4638 C   0  0  0  0  0  0
  -22.7252  -10.2150   20.3052 C   0  0  0  0  0  0
  -21.6846   -6.0752   22.5285 C   0  0  0  0  0  0
  -21.4010   -6.5648   23.8222 C   0  0  0  0  0  0
  -21.3658   -5.6793   24.9178 C   0  0  0  0  0  0
  -21.6044   -4.3054   24.7217 C   0  0  0  0  0  0
  -21.8821   -3.8161   23.4333 C   0  0  0  0  0  0
  -21.9196   -4.6986   22.3401 C   0  0  0  0  0  0
  -22.7877  -13.5252   21.1838 C   0  0  0  0  0  0
  -22.1664   -4.2171   21.0975 F   0  0  0  0  0  0
  -21.5631   -3.4539   25.7729 F   0  0  0  0  0  0
  -30.0497  -13.2565   20.4541 N   0  0  0  0  0  0
  -26.3055  -12.9341   20.3414 N   0  0  0  0  0  0
  -25.9345  -11.6500   20.5795 N   0  0  0  0  0  0
  -22.0512  -12.8240   22.0384 N   0  0  0  0  0  0
  -25.4338  -15.1887   20.4101 N   0  0  0  0  0  0
  -31.8080  -14.6411   20.0211 O   0  0  0  0  0  0
  -21.6640   -6.8900   21.4246 O   0  0  0  0  0  0
  -22.3573  -14.5570   20.6708 O   0  0  0  0  0  0
  -24.6140  -31.8695   23.2141 C   0  0  0  0  0  0
  -25.9032  -32.4826   23.8404 C   0  0  1  0  0  0
  -27.2338  -27.4525   20.0842 C   0  0  0  0  0  0
  -25.5915  -33.8641   24.2322 N   0  0  0  0  0  0
  -23.4011  -30.4934   21.5537 C   0  0  2  0  0  0
  -24.8470  -28.9619   20.1160 C   0  0  0  0  0  0
  -22.7390  -29.4678   22.5019 C   0  0  0  0  0  0
  -18.0272  -28.1380   22.8512 C   0  0  0  0  0  0
  -24.1506  -36.7320   23.2635 C   0  0  0  0  0  0
  -25.9267  -30.8417   21.3613 C   0  0  0  0  0  0
  -26.0077  -29.4785   20.7032 C   0  0  0  0  0  0
  -27.2082  -28.7340   20.6802 C   0  0  0  0  0  0
  -26.0564  -26.9487   19.4888 C   0  0  0  0  0  0
  -24.8649  -27.6951   19.5084 C   0  0  0  0  0  0
  -23.6077  -29.8250   20.1688 C   0  0  0  0  0  0
  -25.4130  -36.3123   24.0322 C   0  0  1  0  0  0
  -20.5857  -28.3678   23.1333 C   0  0  2  0  0  0
  -20.6768  -26.9418   22.5419 C   0  0  0  0  0  0
  -19.5746  -26.6397   21.5212 C   0  0  0  0  0  0
  -18.1918  -26.7931   22.1623 C   0  0  0  0  0  0
  -19.1518  -28.8847   23.2917 C   0  0  0  0  0  0
  -18.9456  -30.1443   23.8939 C   0  0  0  0  0  0
  -17.6460  -30.6586   24.0564 C   0  0  0  0  0  0
  -25.9056  -34.9483   23.5113 C   0  0  0  0  0  0
  -16.5352  -29.9075   23.6337 C   0  0  0  0  0  0
  -16.7263  -28.6488   23.0374 C   0  0  0  0  0  0
  -26.4465  -31.6588   25.0718 C   0  0  0  0  0  0
  -25.3710  -31.3625   26.1441 C   0  0  0  0  0  0
  -27.0273  -30.3029   24.6055 C   0  0  0  0  0  0
  -27.6090  -32.4280   25.7434 C   0  0  0  0  0  0
  -27.5588  -37.1800   24.8478 C   0  0  0  0  0  0
  -21.4114  -29.3036   22.3728 N   0  0  0  0  0  0
  -26.4315  -37.3810   23.9410 N   0  0  0  0  0  0
  -24.6652  -31.0793   22.1034 N   0  0  0  0  0  0
  -23.4150  -28.8205   23.3076 O   0  0  0  0  0  0
  -28.3913  -26.7103   20.0993 O   0  0  0  0  0  0
  -26.5615  -34.8911   22.4674 O   0  0  0  0  0  0
  -23.5346  -32.1440   23.7558 O   0  0  0  0  0  0
  -29.9613  -19.6649   19.6231 C   0  0  0  0  0  0
  -28.2130  -20.1863   21.3009 C   0  0  0  0  0  0
  -30.6827  -18.7653   20.6505 C   0  0  0  0  0  0
  -28.9411  -19.3020   22.3290 C   0  0  0  0  0  0
  -29.2087  -20.8199   20.3084 C   0  0  2  0  0  0
  -28.5267  -21.7764   19.2994 C   0  0  0  0  0  0
  -31.2422  -16.2040   22.2734 C   0  0  0  0  0  0
  -30.4674  -17.4481   22.7581 C   0  0  0  0  0  0
  -28.5836  -24.2874   19.5964 C   0  0  0  0  0  0
  -28.2543  -25.3840   20.6325 C   0  0  0  0  0  0
  -30.3986  -15.1583   21.6799 N   0  0  0  0  0  0
  -29.7663  -18.2299   21.7008 N   0  3  2  0  0  0
  -27.9779  -22.9791   19.9722 N   0  3  0  0  0  0
  -31.4569  -12.3823   19.0940 H   0  0  0  0  0  0
  -30.3070  -11.2783   19.7846 H   0  0  0  0  0  0
  -29.7153  -11.8061   17.4033 H   0  0  0  0  0  0
  -29.6498  -13.5120   17.7781 H   0  0  0  0  0  0
  -27.8166  -11.3172   18.8046 H   0  0  0  0  0  0
  -27.3537  -12.6588   17.7921 H   0  0  0  0  0  0
  -27.7164  -14.2573   19.5917 H   0  0  0  0  0  0
  -28.6739  -11.9449   21.3455 H   0  0  0  0  0  0
  -28.4613  -13.5838   21.8703 H   0  0  0  0  0  0
  -25.2774   -9.5696   22.4750 H   0  0  0  0  0  0
  -24.0020   -7.4643   22.7458 H   0  0  0  0  0  0
  -21.0860   -8.8790   19.8929 H   0  0  0  0  0  0
  -22.3720  -10.9692   19.6163 H   0  0  0  0  0  0
  -21.1990   -7.6150   23.9734 H   0  0  0  0  0  0
  -21.1475   -6.0512   25.9077 H   0  0  0  0  0  0
  -22.0598   -2.7625   23.2824 H   0  0  0  0  0  0
  -22.4118  -11.9891   22.4756 H   0  0  0  0  0  0
  -21.1118  -13.1254   22.2577 H   0  0  0  0  0  0
  -24.6642  -15.8424   20.5060 H   0  0  0  0  0  0
  -26.2831  -15.6229   20.0713 H   0  0  0  0  0  0
  -26.7105  -32.5548   23.1176 H   0  0  0  0  0  0
  -25.0065  -33.9894   25.0450 H   0  0  0  0  0  0
  -22.6922  -31.3120   21.4110 H   0  0  0  0  0  0
  -23.3779  -35.9644   23.3339 H   0  0  0  0  0  0
  -24.3615  -36.8926   22.2050 H   0  0  0  0  0  0
  -23.7245  -37.6520   23.6645 H   0  0  0  0  0  0
  -26.0353  -31.6166   20.6013 H   0  0  0  0  0  0
  -26.8172  -30.8949   21.9763 H   0  0  0  0  0  0
  -28.1063  -29.1281   21.1332 H   0  0  0  0  0  0
  -26.0517  -25.9770   19.0140 H   0  0  0  0  0  0
  -23.9647  -27.2937   19.0638 H   0  0  0  0  0  0
  -23.7128  -30.5994   19.4076 H   0  0  0  0  0  0
  -22.7323  -29.2420   19.8773 H   0  0  0  0  0  0
  -25.1288  -36.1984   25.0806 H   0  0  0  0  0  0
  -20.9980  -28.3245   24.1443 H   0  0  0  0  0  0
  -20.5705  -26.2273   23.3597 H   0  0  0  0  0  0
  -21.6638  -26.7485   22.1184 H   0  0  0  0  0  0
  -19.6939  -25.6313   21.1233 H   0  0  0  0  0  0
  -19.6706  -27.3222   20.6750 H   0  0  0  0  0  0
  -17.4200  -26.6738   21.4005 H   0  0  0  0  0  0
  -18.0322  -26.0021   22.8968 H   0  0  0  0  0  0
  -19.7920  -30.7237   24.2353 H   0  0  0  0  0  0
  -17.4998  -31.6299   24.5108 H   0  0  0  0  0  0
  -15.5355  -30.2967   23.7651 H   0  0  0  0  0  0
  -15.8666  -28.0794   22.7104 H   0  0  0  0  0  0
  -24.6066  -30.6762   25.7764 H   0  0  0  0  0  0
  -24.8644  -32.2690   26.4759 H   0  0  0  0  0  0
  -25.8074  -30.8932   27.0267 H   0  0  0  0  0  0
  -26.2763  -29.6797   24.1168 H   0  0  0  0  0  0
  -27.4106  -29.7282   25.4505 H   0  0  0  0  0  0
  -27.8588  -30.4389   23.9134 H   0  0  0  0  0  0
  -27.2842  -33.3665   26.1941 H   0  0  0  0  0  0
  -28.3900  -32.6696   25.0208 H   0  0  0  0  0  0
  -28.0711  -31.8380   26.5361 H   0  0  0  0  0  0
  -28.2598  -38.0100   24.7535 H   0  0  0  0  0  0
  -28.1074  -36.2626   24.6284 H   0  0  0  0  0  0
  -27.2301  -37.1439   25.8879 H   0  0  0  0  0  0
  -20.9278  -29.8679   21.6867 H   0  0  0  0  0  0
  -26.0201  -38.2889   24.1398 H   0  0  0  0  0  0
  -29.2728  -19.0637   19.0268 H   0  0  0  0  0  0
  -30.6970  -20.0620   18.9224 H   0  0  0  0  0  0
  -27.6609  -20.9569   21.8389 H   0  0  0  0  0  0
  -27.4651  -19.5959   20.7690 H   0  0  0  0  0  0
  -31.4941  -19.3281   21.1176 H   0  0  0  0  0  0
  -31.1522  -17.9415   20.1115 H   0  0  0  0  0  0
  -28.2081  -18.8542   23.0007 H   0  0  0  0  0  0
  -29.5769  -19.9322   22.9525 H   0  0  0  0  0  0
  -29.9425  -21.4028   20.8681 H   0  0  0  0  0  0
  -27.7197  -21.2526   18.7825 H   0  0  0  0  0  0
  -29.2365  -22.0682   18.5220 H   0  0  0  0  0  0
  -31.7458  -15.7587   23.1315 H   0  0  0  0  0  0
  -32.0518  -16.5090   21.6089 H   0  0  0  0  0  0
  -31.1608  -18.1086   23.2831 H   0  0  0  0  0  0
  -29.7415  -17.1310   23.5081 H   0  0  0  0  0  0
  -29.6702  -24.2060   19.5138 H   0  0  0  0  0  0
  -28.2144  -24.5740   18.6112 H   0  0  0  0  0  0
  -28.9309  -25.2905   21.4831 H   0  0  0  0  0  0
  -27.2562  -25.2255   21.0497 H   0  0  0  0  0  0
  -29.5848  -14.8548   22.1944 H   0  0  0  0  0  0
  -29.1277  -17.5944   21.2443 H   0  0  0  0  0  0
  -28.0741  -22.8469   20.9668 H   0  0  0  0  0  0
  -26.9865  -23.0146   19.7793 H   0  0  0  0  0  0
  1 25  1  0  0  0
  1 30  2  0  0  0
  1 81  1  0  0  0
  2  3  1  0  0  0
  2 25  1  0  0  0
  2 84  1  0  0  0
  2 85  1  0  0  0
  3  4  1  0  0  0
  3 86  1  0  0  0
  3 87  1  0  0  0
  4  5  1  0  0  0
  4 88  1  0  0  0
  4 89  1  0  0  0
  5  6  1  0  0  0
  5 26  1  0  0  0
  5 90  1  0  0  0
  6 25  1  0  0  0
  6 91  1  0  0  0
  6 92  1  0  0  0
  7  8  2  0  0  0
  7 26  1  0  0  0
  7 29  1  0  0  0
  8  9  1  0  0  0
  8 22  1  0  0  0
  9 10  1  0  0  0
  9 27  2  0  0  0
 10 11  2  0  0  0
 10 15  1  0  0  0
 11 12  1  0  0  0
 11 93  1  0  0  0
 12 13  2  0  0  0
 12 94  1  0  0  0
 13 14  1  0  0  0
 13 31  1  0  0  0
 14 15  2  0  0  0
 14 95  1  0  0  0
 15 96  1  0  0  0
 16 17  2  0  0  0
 16 21  1  0  0  0
 16 31  1  0  0  0
 17 18  1  0  0  0
 17 97  1  0  0  0
 18 19  2  0  0  0
 18 98  1  0  0  0
 19 20  1  0  0  0
 19 24  1  0  0  0
 20 21  2  0  0  0
 20 99  1  0  0  0
 21 23  1  0  0  0
 22 28  1  0  0  0
 22 32  2  0  0  0
 26 27  1  0  0  0
 28100  1  0  0  0
 28101  1  0  0  0
 29102  1  0  0  0
 29103  1  0  0  0
 33 34  1  0  0  0
 33 66  1  0  0  0
 33 70  2  0  0  0
 34 36  1  0  0  0
 34 59  1  0  0  0
 34104  1  0  0  0
 35 44  2  0  0  0
 35 45  1  0  0  0
 35 68  1  0  0  0
 36 56  1  0  0  0
 36105  1  0  0  0
 37 39  1  0  0  0
 37 47  1  0  0  0
 37 66  1  0  0  0
 37106  1  0  0  0
 38 43  2  0  0  0
 38 46  1  0  0  0
 38 47  1  0  0  0
 39 64  1  0  0  0
 39 67  2  0  0  0
 40 52  1  0  0  0
 40 53  2  0  0  0
 40 58  1  0  0  0
 41107  1  0  0  0
 41108  1  0  0  0
 41109  1  0  0  0
 41 48  1  0  0  0
 42 43  1  0  0  0
 42 66  1  0  0  0
 42110  1  0  0  0
 42111  1  0  0  0
 43 44  1  0  0  0
 44112  1  0  0  0
 45 46  2  0  0  0
 45113  1  0  0  0
 46114  1  0  0  0
 47115  1  0  0  0
 47116  1  0  0  0
 48 56  1  0  0  0
 48 65  1  0  0  0
 48117  1  0  0  0
 49 50  1  0  0  0
 49 53  1  0  0  0
 49 64  1  0  0  0
 49118  1  0  0  0
 50 51  1  0  0  0
 50119  1  0  0  0
 50120  1  0  0  0
 51 52  1  0  0  0
 51121  1  0  0  0
 51122  1  0  0  0
 52123  1  0  0  0
 52124  1  0  0  0
 53 54  1  0  0  0
 54 55  2  0  0  0
 54125  1  0  0  0
 55 57  1  0  0  0
 55126  1  0  0  0
 56 69  2  0  0  0
 57 58  2  0  0  0
 57127  1  0  0  0
 58128  1  0  0  0
 59 60  1  0  0  0
 59 61  1  0  0  0
 59 62  1  0  0  0
 60129  1  0  0  0
 60130  1  0  0  0
 60131  1  0  0  0
 61132  1  0  0  0
 61133  1  0  0  0
 61134  1  0  0  0
 62135  1  0  0  0
 62136  1  0  0  0
 62137  1  0  0  0
 63 65  1  0  0  0
 63138  1  0  0  0
 63139  1  0  0  0
 63140  1  0  0  0
 64141  1  0  0  0
 65142  1  0  0  0
 68 80  1  0  0  0
 71 73  1  0  0  0
 71 75  1  0  0  0
 71143  1  0  0  0
 71144  1  0  0  0
 72 74  1  0  0  0
 72 75  1  0  0  0
 72145  1  0  0  0
 72146  1  0  0  0
 73 82  1  0  0  0
 73147  1  0  0  0
 73148  1  0  0  0
 74 82  1  0  0  0
 74149  1  0  0  0
 74150  1  0  0  0
 75 76  1  0  0  0
 75151  1  0  0  0
 76 83  1  0  0  0
 76152  1  0  0  0
 76153  1  0  0  0
 77 78  1  0  0  0
 77 81  1  0  0  0
 77154  1  0  0  0
 77155  1  0  0  0
 78156  1  0  0  0
 78157  1  0  0  0
 78 82  1  0  0  0
 79 80  1  0  0  0
 79 83  1  0  0  0
 79158  1  0  0  0
 79159  1  0  0  0
 80160  1  0  0  0
 80161  1  0  0  0
 81162  1  0  0  0
 82163  1  0  0  0
 83164  1  0  0  0
 83165  1  0  0  0
M  CHG  2  82   1  83   1
M  ISO  4   1 100  68 101  80 101  81 100
M  END
> <chiral flag>
0

> <version>
0

> <s_m_source_file>
/data/baiqing/PycharmProjects/Reinvent-master-3.2/result/LINK_invent/BTK/process_docking_weight1_custom_sum_contain_oxygen_bond_distance_aromatic_linkinvent_7_9_3/rearranged_h_0121.sdf

> <i_m_source_file_index>
72

> <r_mmod_Potential_Energy-OPLS-2005>
-277.183410644531

> <r_mmod_Stretch_Energy-OPLS-2005>
34.6021995544434

> <r_mmod_Bend_Energy-OPLS-2005>
95.9082183837891

> <r_mmod_Torsional_Energy-OPLS-2005>
298.067169189453

> <r_mmod_Improper_Torsional_Energy-OPLS-2005>
2.62185525894165

> <r_mmod_Van_der_Waal_Energy-OPLS-2005>
140.705459594727

> <r_mmod_Electrostatic_Energy-OPLS-2005>
80.4084167480469

> <r_mmod_Solvation_Energy-OPLS-2005>
-937.717224121094

> <b_mmod_Minimization_Converged-OPLS-2005>
0

> <r_mmod_RMS_Derivative-OPLS-2005>
3.06542062759399

$$$$
72
                    3D
 Structure written by MMmdl.
165173  0  0  1  0            999 V2000
  -30.6571  -14.5816   20.4255 C   0  0  0  0  0  0
  -30.4289  -12.3428   19.4466 C   0  0  0  0  0  0
  -29.4992  -12.4903   18.2207 C   0  0  0  0  0  0
  -28.0241  -12.3310   18.6406 C   0  0  0  0  0  0
  -27.6513  -13.2150   19.8613 C   0  0  2  0  0  0
  -28.7006  -13.0800   20.9908 C   0  0  0  0  0  0
  -25.2521  -13.8170   20.5708 C   0  0  0  0  0  0
  -24.1803  -13.0439   20.9195 C   0  0  0  0  0  0
  -24.6385  -11.6910   20.8728 C   0  0  0  0  0  0
  -23.9061  -10.4291   21.0382 C   0  0  0  0  0  0
  -24.3625   -9.4201   21.9153 C   0  0  0  0  0  0
  -23.6296   -8.2242   22.0728 C   0  0  0  0  0  0
  -22.4272   -8.0297   21.3529 C   0  0  0  0  0  0
  -21.9903   -9.0266   20.4620 C   0  0  0  0  0  0
  -22.7238  -10.2139   20.3025 C   0  0  0  0  0  0
  -21.6856   -6.0747   22.5280 C   0  0  0  0  0  0
  -21.4036   -6.5645   23.8228 C   0  0  0  0  0  0
  -21.3637   -5.6784   24.9178 C   0  0  0  0  0  0
  -21.6031   -4.3046   24.7205 C   0  0  0  0  0  0
  -21.8835   -3.8152   23.4326 C   0  0  0  0  0  0
  -21.9209   -4.6977   22.3387 C   0  0  0  0  0  0
  -22.7817  -13.5211   21.1904 C   0  0  0  0  0  0
  -22.1688   -4.2175   21.0965 F   0  0  0  0  0  0
  -21.5599   -3.4521   25.7709 F   0  0  0  0  0  0
  -30.0226  -13.3733   20.4194 N   0  0  0  0  0  0
  -26.2964  -12.9369   20.3337 N   0  0  0  0  0  0
  -25.9308  -11.6515   20.5763 N   0  0  0  0  0  0
  -22.0499  -12.8167   22.0454 N   0  0  0  0  0  0
  -25.4144  -15.1887   20.4132 N   0  0  0  0  0  0
  -31.8541  -14.6892   20.1587 O   0  0  0  0  0  0
  -21.6634   -6.8888   21.4239 O   0  0  0  0  0  0
  -22.3472  -14.5546   20.6816 O   0  0  0  0  0  0
  -24.6208  -31.8626   23.2060 C   0  0  0  0  0  0
  -25.9063  -32.4808   23.8380 C   0  0  1  0  0  0
  -27.2355  -27.3712   20.1181 C   0  0  0  0  0  0
  -25.5889  -33.8606   24.2305 N   0  0  0  0  0  0
  -23.4152  -30.4841   21.5456 C   0  0  2  0  0  0
  -24.8669  -28.9472   20.1113 C   0  0  0  0  0  0
  -22.7465  -29.4611   22.4943 C   0  0  0  0  0  0
  -18.0277  -28.1386   22.8482 C   0  0  0  0  0  0
  -24.1486  -36.7309   23.2637 C   0  0  0  0  0  0
  -25.9509  -30.8128   21.3686 C   0  0  0  0  0  0
  -26.0308  -29.4429   20.7128 C   0  0  0  0  0  0
  -27.2211  -28.6668   20.7043 C   0  0  0  0  0  0
  -26.0539  -26.9157   19.4907 C   0  0  0  0  0  0
  -24.8776  -27.6881   19.4899 C   0  0  0  0  0  0
  -23.6319  -29.8199   20.1598 C   0  0  0  0  0  0
  -25.4110  -36.3101   24.0327 C   0  0  1  0  0  0
  -20.5874  -28.3675   23.1296 C   0  0  2  0  0  0
  -20.6765  -26.9401   22.5417 C   0  0  0  0  0  0
  -19.5752  -26.6386   21.5211 C   0  0  0  0  0  0
  -18.1926  -26.7934   22.1616 C   0  0  0  0  0  0
  -19.1530  -28.8852   23.2884 C   0  0  0  0  0  0
  -18.9454  -30.1457   23.8901 C   0  0  0  0  0  0
  -17.6457  -30.6590   24.0562 C   0  0  0  0  0  0
  -25.9040  -34.9467   23.5120 C   0  0  0  0  0  0
  -16.5348  -29.9090   23.6321 C   0  0  0  0  0  0
  -16.7267  -28.6508   23.0334 C   0  0  0  0  0  0
  -26.4477  -31.6596   25.0725 C   0  0  0  0  0  0
  -25.3726  -31.3708   26.1458 C   0  0  0  0  0  0
  -27.0316  -30.3033   24.6129 C   0  0  0  0  0  0
  -27.6051  -32.4320   25.7488 C   0  0  0  0  0  0
  -27.5590  -37.1803   24.8460 C   0  0  0  0  0  0
  -21.4179  -29.3033   22.3695 N   0  0  0  0  0  0
  -26.4296  -37.3795   23.9411 N   0  0  0  0  0  0
  -24.6801  -31.0688   22.0976 N   0  0  0  0  0  0
  -23.4214  -28.8136   23.2988 O   0  0  0  0  0  0
  -28.3598  -26.5470   20.1637 O   0  0  0  0  0  0
  -26.5616  -34.8916   22.4691 O   0  0  0  0  0  0
  -23.5376  -32.1388   23.7404 O   0  0  0  0  0  0
  -29.5576  -20.5237   18.8563 C   0  0  0  0  0  0
  -29.4413  -21.0575   17.4377 C   0  0  0  0  0  0
  -29.7302  -21.6719   19.9132 C   0  0  0  0  0  0
  -28.4056  -22.1748   17.3379 C   0  0  0  0  0  0
  -28.8271  -23.3408   18.2308 C   0  0  0  0  0  0
  -30.8774  -16.7046   18.2809 C   0  0  0  0  0  0
  -27.9766  -25.4129   22.2639 C   0  0  0  0  0  0
  -29.8153  -18.3028   20.0473 C   0  0  0  0  0  0
  -29.3096  -24.1514   20.4893 C   0  0  0  0  0  0
  -29.8559  -16.8363   19.4426 C   0  0  2  0  0  0
  -28.1614  -25.2133   20.7470 C   0  0  2  0  0  0
  -29.5440  -19.2318   18.9362 N   0  0  0  0  0  0
  -29.8312  -15.6642   20.3826 N   0  0  0  0  0  0
  -28.9188  -22.9446   19.6618 N   0  3  2  0  0  0
  -31.4726  -12.4451   19.1403 H   0  0  0  0  0  0
  -30.3430  -11.3495   19.8894 H   0  0  0  0  0  0
  -29.7525  -11.7564   17.4544 H   0  0  0  0  0  0
  -29.6427  -13.4695   17.7603 H   0  0  0  0  0  0
  -27.8679  -11.2797   18.8830 H   0  0  0  0  0  0
  -27.3649  -12.5501   17.7997 H   0  0  0  0  0  0
  -27.6601  -14.2445   19.5057 H   0  0  0  0  0  0
  -28.6923  -12.0701   21.4031 H   0  0  0  0  0  0
  -28.4674  -13.7491   21.8198 H   0  0  0  0  0  0
  -25.2782   -9.5697   22.4702 H   0  0  0  0  0  0
  -24.0017   -7.4631   22.7437 H   0  0  0  0  0  0
  -21.0845   -8.8807   19.8902 H   0  0  0  0  0  0
  -22.3718  -10.9691   19.6130 H   0  0  0  0  0  0
  -21.2066   -7.6160   23.9745 H   0  0  0  0  0  0
  -21.1428   -6.0499   25.9084 H   0  0  0  0  0  0
  -22.0634   -2.7616   23.2813 H   0  0  0  0  0  0
  -22.4177  -11.9806   22.4755 H   0  0  0  0  0  0
  -21.1115  -13.1156   22.2743 H   0  0  0  0  0  0
  -24.6297  -15.8239   20.5159 H   0  0  0  0  0  0
  -26.2567  -15.6455   20.0883 H   0  0  0  0  0  0
  -26.7140  -32.5512   23.1145 H   0  0  0  0  0  0
  -25.0019  -33.9772   25.0435 H   0  0  0  0  0  0
  -22.7053  -31.3012   21.4025 H   0  0  0  0  0  0
  -23.3760  -35.9635   23.3282 H   0  0  0  0  0  0
  -24.3584  -36.8957   22.2061 H   0  0  0  0  0  0
  -23.7227  -37.6492   23.6680 H   0  0  0  0  0  0
  -26.0696  -31.5780   20.6005 H   0  0  0  0  0  0
  -26.8354  -30.8676   21.9917 H   0  0  0  0  0  0
  -28.1174  -29.0430   21.1777 H   0  0  0  0  0  0
  -26.0302  -25.9539   19.0001 H   0  0  0  0  0  0
  -23.9872  -27.3072   19.0085 H   0  0  0  0  0  0
  -23.7511  -30.5976   19.4044 H   0  0  0  0  0  0
  -22.7560  -29.2449   19.8547 H   0  0  0  0  0  0
  -25.1289  -36.1959   25.0823 H   0  0  0  0  0  0
  -20.9964  -28.3244   24.1419 H   0  0  0  0  0  0
  -20.5651  -26.2287   23.3606 H   0  0  0  0  0  0
  -21.6628  -26.7419   22.1221 H   0  0  0  0  0  0
  -19.6901  -25.6296   21.1238 H   0  0  0  0  0  0
  -19.6693  -27.3197   20.6737 H   0  0  0  0  0  0
  -17.4189  -26.6673   21.4019 H   0  0  0  0  0  0
  -18.0320  -26.0082   22.9018 H   0  0  0  0  0  0
  -19.7928  -30.7265   24.2278 H   0  0  0  0  0  0
  -17.5006  -31.6263   24.5172 H   0  0  0  0  0  0
  -15.5347  -30.2990   23.7645 H   0  0  0  0  0  0
  -15.8667  -28.0837   22.7032 H   0  0  0  0  0  0
  -24.5886  -30.7084   25.7769 H   0  0  0  0  0  0
  -24.8930  -32.2866   26.4924 H   0  0  0  0  0  0
  -25.8054  -30.8841   27.0206 H   0  0  0  0  0  0
  -26.2871  -29.6795   24.1170 H   0  0  0  0  0  0
  -27.4055  -29.7276   25.4605 H   0  0  0  0  0  0
  -27.8718  -30.4352   23.9313 H   0  0  0  0  0  0
  -27.2678  -33.3620   26.2079 H   0  0  0  0  0  0
  -28.3847  -32.6881   25.0303 H   0  0  0  0  0  0
  -28.0730  -31.8431   26.5389 H   0  0  0  0  0  0
  -28.2579  -38.0126   24.7533 H   0  0  0  0  0  0
  -28.1107  -36.2652   24.6246 H   0  0  0  0  0  0
  -27.2307  -37.1406   25.8861 H   0  0  0  0  0  0
  -20.9348  -29.8802   21.6949 H   0  0  0  0  0  0
  -26.0174  -38.2864   24.1437 H   0  0  0  0  0  0
  -29.1758  -20.2541   16.7481 H   0  0  0  0  0  0
  -30.4213  -21.4139   17.1158 H   0  0  0  0  0  0
  -30.7877  -21.9337   19.9422 H   0  0  0  0  0  0
  -29.4842  -21.2831   20.9006 H   0  0  0  0  0  0
  -27.4166  -21.8056   17.6114 H   0  0  0  0  0  0
  -28.3344  -22.5146   16.3049 H   0  0  0  0  0  0
  -28.1088  -24.1542   18.1148 H   0  0  0  0  0  0
  -29.7888  -23.7331   17.8940 H   0  0  0  0  0  0
  -30.6627  -17.4102   17.4773 H   0  0  0  0  0  0
  -30.8517  -15.7157   17.8212 H   0  0  0  0  0  0
  -31.8987  -16.8933   18.6138 H   0  0  0  0  0  0
  -27.8103  -24.4612   22.7690 H   0  0  0  0  0  0
  -27.1192  -26.0481   22.4897 H   0  0  0  0  0  0
  -28.8586  -25.8737   22.7091 H   0  0  0  0  0  0
  -30.7617  -18.5370   20.5369 H   0  0  0  0  0  0
  -29.0298  -18.3742   20.8018 H   0  0  0  0  0  0
  -29.6639  -23.7766   21.4514 H   0  0  0  0  0  0
  -30.1784  -24.6486   20.0529 H   0  0  0  0  0  0
  -28.8893  -16.7248   18.9475 H   0  0  0  0  0  0
  -27.2368  -24.7754   20.3761 H   0  0  0  0  0  0
  -28.9041  -15.4557   20.7203 H   0  0  0  0  0  0
  -27.9811  -22.6916   19.9423 H   0  0  0  0  0  0
  1 25  1  0  0  0
  1 30  2  0  0  0
  1 83  1  0  0  0
  2  3  1  0  0  0
  2 25  1  0  0  0
  2 85  1  0  0  0
  2 86  1  0  0  0
  3  4  1  0  0  0
  3 87  1  0  0  0
  3 88  1  0  0  0
  4  5  1  0  0  0
  4 89  1  0  0  0
  4 90  1  0  0  0
  5  6  1  0  0  0
  5 26  1  0  0  0
  5 91  1  0  0  0
  6 25  1  0  0  0
  6 92  1  0  0  0
  6 93  1  0  0  0
  7  8  2  0  0  0
  7 26  1  0  0  0
  7 29  1  0  0  0
  8  9  1  0  0  0
  8 22  1  0  0  0
  9 10  1  0  0  0
  9 27  2  0  0  0
 10 11  2  0  0  0
 10 15  1  0  0  0
 11 12  1  0  0  0
 11 94  1  0  0  0
 12 13  2  0  0  0
 12 95  1  0  0  0
 13 14  1  0  0  0
 13 31  1  0  0  0
 14 15  2  0  0  0
 14 96  1  0  0  0
 15 97  1  0  0  0
 16 17  2  0  0  0
 16 21  1  0  0  0
 16 31  1  0  0  0
 17 18  1  0  0  0
 17 98  1  0  0  0
 18 19  2  0  0  0
 18 99  1  0  0  0
 19 20  1  0  0  0
 19 24  1  0  0  0
 20 21  2  0  0  0
 20100  1  0  0  0
 21 23  1  0  0  0
 22 28  1  0  0  0
 22 32  2  0  0  0
 26 27  1  0  0  0
 28101  1  0  0  0
 28102  1  0  0  0
 29103  1  0  0  0
 29104  1  0  0  0
 33 34  1  0  0  0
 33 66  1  0  0  0
 33 70  2  0  0  0
 34 36  1  0  0  0
 34 59  1  0  0  0
 34105  1  0  0  0
 35 44  2  0  0  0
 35 45  1  0  0  0
 35 68  1  0  0  0
 36 56  1  0  0  0
 36106  1  0  0  0
 37 39  1  0  0  0
 37 47  1  0  0  0
 37 66  1  0  0  0
 37107  1  0  0  0
 38 43  2  0  0  0
 38 46  1  0  0  0
 38 47  1  0  0  0
 39 64  1  0  0  0
 39 67  2  0  0  0
 40 52  1  0  0  0
 40 53  2  0  0  0
 40 58  1  0  0  0
 41108  1  0  0  0
 41109  1  0  0  0
 41110  1  0  0  0
 41 48  1  0  0  0
 42 43  1  0  0  0
 42 66  1  0  0  0
 42111  1  0  0  0
 42112  1  0  0  0
 43 44  1  0  0  0
 44113  1  0  0  0
 45 46  2  0  0  0
 45114  1  0  0  0
 46115  1  0  0  0
 47116  1  0  0  0
 47117  1  0  0  0
 48 56  1  0  0  0
 48 65  1  0  0  0
 48118  1  0  0  0
 49 50  1  0  0  0
 49 53  1  0  0  0
 49 64  1  0  0  0
 49119  1  0  0  0
 50 51  1  0  0  0
 50120  1  0  0  0
 50121  1  0  0  0
 51 52  1  0  0  0
 51122  1  0  0  0
 51123  1  0  0  0
 52124  1  0  0  0
 52125  1  0  0  0
 53 54  1  0  0  0
 54 55  2  0  0  0
 54126  1  0  0  0
 55 57  1  0  0  0
 55127  1  0  0  0
 56 69  2  0  0  0
 57 58  2  0  0  0
 57128  1  0  0  0
 58129  1  0  0  0
 59 60  1  0  0  0
 59 61  1  0  0  0
 59 62  1  0  0  0
 60130  1  0  0  0
 60131  1  0  0  0
 60132  1  0  0  0
 61133  1  0  0  0
 61134  1  0  0  0
 61135  1  0  0  0
 62136  1  0  0  0
 62137  1  0  0  0
 62138  1  0  0  0
 63 65  1  0  0  0
 63139  1  0  0  0
 63140  1  0  0  0
 63141  1  0  0  0
 64142  1  0  0  0
 65143  1  0  0  0
 68 81  1  0  0  0
 71 72  1  0  0  0
 71 73  1  0  0  0
 71 82  2  0  0  0
 72 74  1  0  0  0
 72144  1  0  0  0
 72145  1  0  0  0
 73 84  1  0  0  0
 73146  1  0  0  0
 73147  1  0  0  0
 74 75  1  0  0  0
 74148  1  0  0  0
 74149  1  0  0  0
 75 84  1  0  0  0
 75150  1  0  0  0
 75151  1  0  0  0
 76152  1  0  0  0
 76153  1  0  0  0
 76154  1  0  0  0
 76 80  1  0  0  0
 77155  1  0  0  0
 77156  1  0  0  0
 77157  1  0  0  0
 77 81  1  0  0  0
 78 80  1  0  0  0
 78 82  1  0  0  0
 78158  1  0  0  0
 78159  1  0  0  0
 79 81  1  0  0  0
 79160  1  0  0  0
 79161  1  0  0  0
 79 84  1  0  0  0
 80 83  1  0  0  0
 80162  1  0  0  0
 81163  1  0  0  0
 83164  1  0  0  0
 84165  1  0  0  0
M  CHG  1  84   1
M  ISO  4   1 100  68 101  81 101  83 100
M  END
> <chiral flag>
0

> <version>
0

> <s_m_source_file>
/data/baiqing/PycharmProjects/Reinvent-master-3.2/result/LINK_invent/BTK/process_docking_weight1_custom_sum_contain_oxygen_bond_distance_aromatic_linkinvent_7_9_3/rearranged_h_0121.sdf

> <i_m_source_file_index>
73

> <r_mmod_Potential_Energy-OPLS-2005>
-31.6494445800781

> <r_mmod_Stretch_Energy-OPLS-2005>
69.6342468261719

> <r_mmod_Bend_Energy-OPLS-2005>
171.227081298828

> <r_mmod_Torsional_Energy-OPLS-2005>
281.142242431641

> <r_mmod_Improper_Torsional_Energy-OPLS-2005>
11.867449760437

> <r_mmod_Van_der_Waal_Energy-OPLS-2005>
136.887649536133

> <r_mmod_Electrostatic_Energy-OPLS-2005>
-297.300018310547

> <r_mmod_Solvation_Energy-OPLS-2005>
-441.800842285156

> <b_mmod_Minimization_Converged-OPLS-2005>
0

> <r_mmod_RMS_Derivative-OPLS-2005>
2.87248539924622

$$$$
73
                    3D
 Structure written by MMmdl.
162171  0  0  1  0            999 V2000
  -30.7207  -14.7352   20.4549 C   0  0  0  0  0  0
  -30.4080  -12.4727   19.4522 C   0  0  0  0  0  0
  -29.4834  -12.4869   18.2242 C   0  0  0  0  0  0
  -28.0162  -12.3270   18.6534 C   0  0  0  0  0  0
  -27.6296  -13.2470   19.8398 C   0  0  2  0  0  0
  -28.6903  -13.2298   20.9621 C   0  0  0  0  0  0
  -25.2435  -13.8233   20.5696 C   0  0  0  0  0  0
  -24.1760  -13.0465   20.9261 C   0  0  0  0  0  0
  -24.6375  -11.6957   20.8758 C   0  0  0  0  0  0
  -23.9073  -10.4309   21.0397 C   0  0  0  0  0  0
  -24.3619   -9.4222   21.9184 C   0  0  0  0  0  0
  -23.6298   -8.2246   22.0741 C   0  0  0  0  0  0
  -22.4279   -8.0271   21.3535 C   0  0  0  0  0  0
  -21.9914   -9.0251   20.4633 C   0  0  0  0  0  0
  -22.7235  -10.2135   20.3049 C   0  0  0  0  0  0
  -21.6854   -6.0724   22.5272 C   0  0  0  0  0  0
  -21.4031   -6.5640   23.8211 C   0  0  0  0  0  0
  -21.3655   -5.6788   24.9186 C   0  0  0  0  0  0
  -21.6045   -4.3047   24.7234 C   0  0  0  0  0  0
  -21.8835   -3.8140   23.4356 C   0  0  0  0  0  0
  -21.9201   -4.6952   22.3409 C   0  0  0  0  0  0
  -22.7767  -13.5245   21.1902 C   0  0  0  0  0  0
  -22.1670   -4.2139   21.0979 F   0  0  0  0  0  0
  -21.5632   -3.4528   25.7752 F   0  0  0  0  0  0
  -29.9702  -13.5830   20.3371 N   0  0  0  0  0  0
  -26.2895  -12.9474   20.3321 N   0  0  0  0  0  0
  -25.9315  -11.6611   20.5797 N   0  0  0  0  0  0
  -22.0443  -12.8217   22.0447 N   0  0  0  0  0  0
  -25.4063  -15.1942   20.4018 N   0  0  0  0  0  0
  -31.9308  -14.6303   20.2412 O   0  0  0  0  0  0
  -21.6646   -6.8861   21.4227 O   0  0  0  0  0  0
  -22.3400  -14.5527   20.6710 O   0  0  0  0  0  0
  -24.6268  -31.8586   23.1933 C   0  0  0  0  0  0
  -25.9072  -32.4772   23.8313 C   0  0  1  0  0  0
  -27.1994  -27.2509   20.1296 C   0  0  0  0  0  0
  -25.5849  -33.8568   24.2208 N   0  0  0  0  0  0
  -23.4251  -30.4782   21.5391 C   0  0  2  0  0  0
  -24.8755  -28.9327   20.1082 C   0  0  0  0  0  0
  -22.7504  -29.4587   22.4906 C   0  0  0  0  0  0
  -18.0275  -28.1334   22.8490 C   0  0  0  0  0  0
  -24.1471  -36.7301   23.2633 C   0  0  0  0  0  0
  -25.9737  -30.7633   21.3854 C   0  0  0  0  0  0
  -26.0463  -29.3838   20.7306 C   0  0  0  0  0  0
  -27.2134  -28.5529   20.7387 C   0  0  0  0  0  0
  -26.0234  -26.9037   19.4246 C   0  0  0  0  0  0
  -24.8710  -27.7001   19.4445 C   0  0  0  0  0  0
  -23.6465  -29.8159   20.1549 C   0  0  0  0  0  0
  -25.4107  -36.3077   24.0309 C   0  0  1  0  0  0
  -20.5871  -28.3690   23.1209 C   0  0  2  0  0  0
  -20.6756  -26.9439   22.5257 C   0  0  0  0  0  0
  -19.5695  -26.6418   21.5116 C   0  0  0  0  0  0
  -18.1953  -26.7850   22.1659 C   0  0  0  0  0  0
  -19.1501  -28.8834   23.2862 C   0  0  0  0  0  0
  -18.9418  -30.1412   23.8917 C   0  0  0  0  0  0
  -17.6392  -30.6566   24.0543 C   0  0  0  0  0  0
  -25.9053  -34.9455   23.5075 C   0  0  0  0  0  0
  -16.5301  -29.9061   23.6285 C   0  0  0  0  0  0
  -16.7256  -28.6453   23.0322 C   0  0  0  0  0  0
  -26.4456  -31.6609   25.0725 C   0  0  0  0  0  0
  -25.3643  -31.3788   26.1417 C   0  0  0  0  0  0
  -27.0282  -30.3005   24.6233 C   0  0  0  0  0  0
  -27.5992  -32.4387   25.7530 C   0  0  0  0  0  0
  -27.5569  -37.1801   24.8459 C   0  0  0  0  0  0
  -21.4200  -29.3010   22.3603 N   0  0  0  0  0  0
  -26.4287  -37.3773   23.9392 N   0  0  0  0  0  0
  -24.6940  -31.0542   22.0939 N   0  0  0  0  0  0
  -23.4200  -28.8213   23.3072 O   0  0  0  0  0  0
  -28.2143  -26.2697   20.2676 O   0  0  0  0  0  0
  -26.5690  -34.8944   22.4702 O   0  0  0  0  0  0
  -23.5420  -32.1411   23.7245 O   0  0  0  0  0  0
  -29.2134  -21.4349   19.4230 C   0  0  0  0  0  0
  -28.8315  -22.8170   19.3947 C   0  0  0  0  0  0
  -29.3151  -20.7145   20.6499 C   0  0  0  0  0  0
  -28.5709  -23.5357   20.5945 C   0  0  0  0  0  0
  -29.0894  -21.5298   21.8006 C   0  0  0  0  0  0
  -28.5626  -18.1077   20.8537 C   0  0  0  0  0  0
  -30.5854  -18.5750   19.6456 C   0  0  0  0  0  0
  -29.0170  -16.6061   21.1506 C   0  0  0  0  0  0
  -31.1235  -17.1301   19.9604 C   0  0  0  0  0  0
  -29.7042  -19.1656   20.7602 C   0  0  0  0  0  0
  -29.1559  -20.9508   23.2076 C   0  0  0  0  0  0
  -27.0012  -25.0077   22.0435 C   0  0  0  0  0  0
  -27.7173  -24.8936   20.6653 C   0  0  2  0  0  0
  -28.7629  -22.8575   21.7640 N   0  0  0  0  0  0
  -30.1736  -16.0381   20.3868 N   0  0  0  0  0  0
  -31.4440  -12.5606   19.1248 H   0  0  0  0  0  0
  -30.3535  -11.5169   19.9758 H   0  0  0  0  0  0
  -29.7570  -11.6860   17.5369 H   0  0  0  0  0  0
  -29.6162  -13.4224   17.6767 H   0  0  0  0  0  0
  -27.8768  -11.2815   18.9333 H   0  0  0  0  0  0
  -27.3515  -12.5041   17.8068 H   0  0  0  0  0  0
  -27.6085  -14.2584   19.4324 H   0  0  0  0  0  0
  -28.7404  -12.2475   21.4341 H   0  0  0  0  0  0
  -28.4367  -13.9317   21.7540 H   0  0  0  0  0  0
  -25.2759   -9.5744   22.4766 H   0  0  0  0  0  0
  -24.0025   -7.4658   22.7457 H   0  0  0  0  0  0
  -21.0859   -8.8776   19.8929 H   0  0  0  0  0  0
  -22.3690  -10.9681   19.6171 H   0  0  0  0  0  0
  -21.2024   -7.6150   23.9710 H   0  0  0  0  0  0
  -21.1442   -6.0527   25.9084 H   0  0  0  0  0  0
  -22.0600   -2.7592   23.2873 H   0  0  0  0  0  0
  -22.4068  -11.9908   22.4881 H   0  0  0  0  0  0
  -21.1024  -13.1146   22.2597 H   0  0  0  0  0  0
  -24.6261  -15.8375   20.4772 H   0  0  0  0  0  0
  -26.2548  -15.6282   20.0635 H   0  0  0  0  0  0
  -26.7125  -32.5433   23.1051 H   0  0  0  0  0  0
  -24.9850  -33.9665   25.0248 H   0  0  0  0  0  0
  -22.7174  -31.2974   21.3890 H   0  0  0  0  0  0
  -23.3729  -35.9635   23.3348 H   0  0  0  0  0  0
  -24.3513  -36.8916   22.2026 H   0  0  0  0  0  0
  -23.7258  -37.6527   23.6678 H   0  0  0  0  0  0
  -26.1149  -31.5209   20.6133 H   0  0  0  0  0  0
  -26.8518  -30.8170   22.0185 H   0  0  0  0  0  0
  -28.0997  -28.8739   21.2702 H   0  0  0  0  0  0
  -25.9458  -25.9832   18.8669 H   0  0  0  0  0  0
  -23.9816  -27.3573   18.9350 H   0  0  0  0  0  0
  -23.7813  -30.5925   19.3994 H   0  0  0  0  0  0
  -22.7650  -29.2500   19.8431 H   0  0  0  0  0  0
  -25.1305  -36.1925   25.0802 H   0  0  0  0  0  0
  -20.9942  -28.3214   24.1345 H   0  0  0  0  0  0
  -20.5816  -26.2324   23.3481 H   0  0  0  0  0  0
  -21.6511  -26.7544   22.0768 H   0  0  0  0  0  0
  -19.6939  -25.6378   21.1097 H   0  0  0  0  0  0
  -19.6419  -27.3279   20.6661 H   0  0  0  0  0  0
  -17.4143  -26.6402   21.4199 H   0  0  0  0  0  0
  -18.0664  -26.0012   22.9122 H   0  0  0  0  0  0
  -19.7893  -30.7188   24.2315 H   0  0  0  0  0  0
  -17.4854  -31.6292   24.5061 H   0  0  0  0  0  0
  -15.5275  -30.2947   23.7514 H   0  0  0  0  0  0
  -15.8639  -28.0841   22.6989 H   0  0  0  0  0  0
  -24.5799  -30.7173   25.7726 H   0  0  0  0  0  0
  -24.8849  -32.2980   26.4796 H   0  0  0  0  0  0
  -25.7909  -30.8967   27.0212 H   0  0  0  0  0  0
  -26.2835  -29.6799   24.1232 H   0  0  0  0  0  0
  -27.3904  -29.7258   25.4769 H   0  0  0  0  0  0
  -27.8772  -30.4268   23.9507 H   0  0  0  0  0  0
  -27.2522  -33.3668   26.2096 H   0  0  0  0  0  0
  -28.3823  -32.6988   25.0395 H   0  0  0  0  0  0
  -28.0642  -31.8525   26.5471 H   0  0  0  0  0  0
  -28.2618  -38.0064   24.7478 H   0  0  0  0  0  0
  -28.1043  -36.2609   24.6354 H   0  0  0  0  0  0
  -27.2270  -37.1522   25.8854 H   0  0  0  0  0  0
  -20.9472  -29.8552   21.6594 H   0  0  0  0  0  0
  -26.0185  -38.2862   24.1391 H   0  0  0  0  0  0
  -29.3887  -20.9259   18.4849 H   0  0  0  0  0  0
  -28.6774  -23.2980   18.4358 H   0  0  0  0  0  0
  -27.8523  -18.4157   21.6205 H   0  0  0  0  0  0
  -27.9970  -18.1228   19.9189 H   0  0  0  0  0  0
  -30.0402  -18.5600   18.6980 H   0  0  0  0  0  0
  -31.4375  -19.2358   19.4782 H   0  0  0  0  0  0
  -28.1447  -15.9718   21.0016 H   0  0  0  0  0  0
  -29.2824  -16.5322   22.2059 H   0  0  0  0  0  0
  -31.8692  -17.2231   20.7534 H   0  0  0  0  0  0
  -31.6709  -16.8128   19.0678 H   0  0  0  0  0  0
  -30.2850  -19.0810   21.6809 H   0  0  0  0  0  0
  -30.1315  -20.5044   23.4075 H   0  0  0  0  0  0
  -28.3831  -20.1925   23.3474 H   0  0  0  0  0  0
  -29.0070  -21.7242   23.9636 H   0  0  0  0  0  0
  -26.4174  -24.1069   22.2480 H   0  0  0  0  0  0
  -26.3070  -25.8437   22.1041 H   0  0  0  0  0  0
  -27.7224  -25.1240   22.8506 H   0  0  0  0  0  0
  -26.9400  -24.6122   19.9652 H   0  0  0  0  0  0
  1 25  1  0  0  0
  1 30  2  0  0  0
  1 85  1  0  0  0
  2  3  1  0  0  0
  2 25  1  0  0  0
  2 86  1  0  0  0
  2 87  1  0  0  0
  3  4  1  0  0  0
  3 88  1  0  0  0
  3 89  1  0  0  0
  4  5  1  0  0  0
  4 90  1  0  0  0
  4 91  1  0  0  0
  5  6  1  0  0  0
  5 26  1  0  0  0
  5 92  1  0  0  0
  6 25  1  0  0  0
  6 93  1  0  0  0
  6 94  1  0  0  0
  7  8  2  0  0  0
  7 26  1  0  0  0
  7 29  1  0  0  0
  8  9  1  0  0  0
  8 22  1  0  0  0
  9 10  1  0  0  0
  9 27  2  0  0  0
 10 11  2  0  0  0
 10 15  1  0  0  0
 11 12  1  0  0  0
 11 95  1  0  0  0
 12 13  2  0  0  0
 12 96  1  0  0  0
 13 14  1  0  0  0
 13 31  1  0  0  0
 14 15  2  0  0  0
 14 97  1  0  0  0
 15 98  1  0  0  0
 16 17  2  0  0  0
 16 21  1  0  0  0
 16 31  1  0  0  0
 17 18  1  0  0  0
 17 99  1  0  0  0
 18 19  2  0  0  0
 18100  1  0  0  0
 19 20  1  0  0  0
 19 24  1  0  0  0
 20 21  2  0  0  0
 20101  1  0  0  0
 21 23  1  0  0  0
 22 28  1  0  0  0
 22 32  2  0  0  0
 26 27  1  0  0  0
 28102  1  0  0  0
 28103  1  0  0  0
 29104  1  0  0  0
 29105  1  0  0  0
 33 34  1  0  0  0
 33 66  1  0  0  0
 33 70  2  0  0  0
 34 36  1  0  0  0
 34 59  1  0  0  0
 34106  1  0  0  0
 35 44  2  0  0  0
 35 45  1  0  0  0
 35 68  1  0  0  0
 36 56  1  0  0  0
 36107  1  0  0  0
 37 39  1  0  0  0
 37 47  1  0  0  0
 37 66  1  0  0  0
 37108  1  0  0  0
 38 43  2  0  0  0
 38 46  1  0  0  0
 38 47  1  0  0  0
 39 64  1  0  0  0
 39 67  2  0  0  0
 40 52  1  0  0  0
 40 53  2  0  0  0
 40 58  1  0  0  0
 41109  1  0  0  0
 41110  1  0  0  0
 41111  1  0  0  0
 41 48  1  0  0  0
 42 43  1  0  0  0
 42 66  1  0  0  0
 42112  1  0  0  0
 42113  1  0  0  0
 43 44  1  0  0  0
 44114  1  0  0  0
 45 46  2  0  0  0
 45115  1  0  0  0
 46116  1  0  0  0
 47117  1  0  0  0
 47118  1  0  0  0
 48 56  1  0  0  0
 48 65  1  0  0  0
 48119  1  0  0  0
 49 50  1  0  0  0
 49 53  1  0  0  0
 49 64  1  0  0  0
 49120  1  0  0  0
 50 51  1  0  0  0
 50121  1  0  0  0
 50122  1  0  0  0
 51 52  1  0  0  0
 51123  1  0  0  0
 51124  1  0  0  0
 52125  1  0  0  0
 52126  1  0  0  0
 53 54  1  0  0  0
 54 55  2  0  0  0
 54127  1  0  0  0
 55 57  1  0  0  0
 55128  1  0  0  0
 56 69  2  0  0  0
 57 58  2  0  0  0
 57129  1  0  0  0
 58130  1  0  0  0
 59 60  1  0  0  0
 59 61  1  0  0  0
 59 62  1  0  0  0
 60131  1  0  0  0
 60132  1  0  0  0
 60133  1  0  0  0
 61134  1  0  0  0
 61135  1  0  0  0
 61136  1  0  0  0
 62137  1  0  0  0
 62138  1  0  0  0
 62139  1  0  0  0
 63 65  1  0  0  0
 63140  1  0  0  0
 63141  1  0  0  0
 63142  1  0  0  0
 64143  1  0  0  0
 65144  1  0  0  0
 68 83  1  0  0  0
 71 72  2  0  0  0
 71 73  1  0  0  0
 71145  1  0  0  0
 72 74  1  0  0  0
 72146  1  0  0  0
 73 75  2  0  0  0
 73 80  1  0  0  0
 74 83  1  0  0  0
 74 84  2  0  0  0
 75 81  1  0  0  0
 75 84  1  0  0  0
 76 78  1  0  0  0
 76 80  1  0  0  0
 76147  1  0  0  0
 76148  1  0  0  0
 77 79  1  0  0  0
 77 80  1  0  0  0
 77149  1  0  0  0
 77150  1  0  0  0
 78 85  1  0  0  0
 78151  1  0  0  0
 78152  1  0  0  0
 79 85  1  0  0  0
 79153  1  0  0  0
 79154  1  0  0  0
 80155  1  0  0  0
 81156  1  0  0  0
 81157  1  0  0  0
 81158  1  0  0  0
 82159  1  0  0  0
 82160  1  0  0  0
 82161  1  0  0  0
 82 83  1  0  0  0
 83162  1  0  0  0
M  ISO  4   1 100  68 101  83 101  85 100
M  END
> <chiral flag>
0

> <version>
0

> <s_m_source_file>
/data/baiqing/PycharmProjects/Reinvent-master-3.2/result/LINK_invent/BTK/process_docking_weight1_custom_sum_contain_oxygen_bond_distance_aromatic_linkinvent_7_9_3/rearranged_h_0121.sdf

> <i_m_source_file_index>
74

> <r_mmod_Potential_Energy-OPLS-2005>
317.934234619141

> <r_mmod_Stretch_Energy-OPLS-2005>
123.34935760498

> <r_mmod_Bend_Energy-OPLS-2005>
205.145706176758

> <r_mmod_Torsional_Energy-OPLS-2005>
335.904327392578

> <r_mmod_Improper_Torsional_Energy-OPLS-2005>
16.7360954284668

> <r_mmod_Van_der_Waal_Energy-OPLS-2005>
165.312805175781

> <r_mmod_Electrostatic_Energy-OPLS-2005>
-433.728698730469

> <r_mmod_Solvation_Energy-OPLS-2005>
-206.221069335938

> <b_mmod_Minimization_Converged-OPLS-2005>
0

> <r_mmod_RMS_Derivative-OPLS-2005>
6.1760368347168

$$$$
74
                    3D
 Structure written by MMmdl.
156164  0  0  1  0            999 V2000
  -30.6493  -14.4652   20.6169 C   0  0  0  0  0  0
  -30.4374  -12.3202   19.3946 C   0  0  0  0  0  0
  -29.4940  -12.5255   18.1898 C   0  0  0  0  0  0
  -28.0126  -12.3836   18.5996 C   0  0  0  0  0  0
  -27.6650  -13.1934   19.8777 C   0  0  2  0  0  0
  -28.7056  -12.9140   20.9828 C   0  0  0  0  0  0
  -25.2612  -13.8132   20.5642 C   0  0  0  0  0  0
  -24.1839  -13.0423   20.9148 C   0  0  0  0  0  0
  -24.6385  -11.6892   20.8710 C   0  0  0  0  0  0
  -23.9049  -10.4286   21.0399 C   0  0  0  0  0  0
  -24.3611   -9.4206   21.9168 C   0  0  0  0  0  0
  -23.6280   -8.2244   22.0764 C   0  0  0  0  0  0
  -22.4257   -8.0284   21.3560 C   0  0  0  0  0  0
  -21.9874   -9.0261   20.4669 C   0  0  0  0  0  0
  -22.7216  -10.2133   20.3060 C   0  0  0  0  0  0
  -21.6851   -6.0731   22.5279 C   0  0  0  0  0  0
  -21.4032   -6.5634   23.8215 C   0  0  0  0  0  0
  -21.3665   -5.6789   24.9176 C   0  0  0  0  0  0
  -21.6046   -4.3049   24.7212 C   0  0  0  0  0  0
  -21.8830   -3.8143   23.4332 C   0  0  0  0  0  0
  -21.9193   -4.6962   22.3395 C   0  0  0  0  0  0
  -22.7870  -13.5251   21.1831 C   0  0  0  0  0  0
  -22.1651   -4.2155   21.0965 F   0  0  0  0  0  0
  -21.5624   -3.4529   25.7716 F   0  0  0  0  0  0
  -30.0322  -13.2652   20.4446 N   0  0  0  0  0  0
  -26.3035  -12.9276   20.3342 N   0  0  0  0  0  0
  -25.9303  -11.6450   20.5741 N   0  0  0  0  0  0
  -22.0490  -12.8257   22.0399 N   0  0  0  0  0  0
  -25.4326  -15.1844   20.4058 N   0  0  0  0  0  0
  -31.7571  -14.7381   20.1439 O   0  0  0  0  0  0
  -21.6647   -6.8871   21.4239 O   0  0  0  0  0  0
  -22.3565  -14.5543   20.6669 O   0  0  0  0  0  0
  -24.6166  -31.8628   23.2075 C   0  0  0  0  0  0
  -25.9063  -32.4789   23.8358 C   0  0  1  0  0  0
  -27.2382  -27.4168   20.0639 C   0  0  0  0  0  0
  -25.5896  -33.8577   24.2293 N   0  0  0  0  0  0
  -23.4053  -30.4856   21.5510 C   0  0  2  0  0  0
  -24.8487  -28.9497   20.1129 C   0  0  0  0  0  0
  -22.7411  -29.4623   22.5006 C   0  0  0  0  0  0
  -18.0262  -28.1363   22.8503 C   0  0  0  0  0  0
  -24.1472  -36.7277   23.2651 C   0  0  0  0  0  0
  -25.9379  -30.8157   21.3687 C   0  0  0  0  0  0
  -26.0111  -29.4510   20.7107 C   0  0  0  0  0  0
  -27.2035  -28.6875   20.6919 C   0  0  0  0  0  0
  -26.0439  -26.9251   19.4864 C   0  0  0  0  0  0
  -24.8598  -27.6846   19.5032 C   0  0  0  0  0  0
  -23.6120  -29.8176   20.1659 C   0  0  0  0  0  0
  -25.4098  -36.3085   24.0345 C   0  0  1  0  0  0
  -20.5854  -28.3636   23.1328 C   0  0  2  0  0  0
  -20.6750  -26.9373   22.5420 C   0  0  0  0  0  0
  -19.5728  -26.6378   21.5212 C   0  0  0  0  0  0
  -18.1911  -26.7908   22.1636 C   0  0  0  0  0  0
  -19.1515  -28.8818   23.2909 C   0  0  0  0  0  0
  -18.9444  -30.1427   23.8912 C   0  0  0  0  0  0
  -17.6447  -30.6576   24.0560 C   0  0  0  0  0  0
  -25.9035  -34.9454   23.5128 C   0  0  0  0  0  0
  -16.5336  -29.9074   23.6330 C   0  0  0  0  0  0
  -16.7256  -28.6487   23.0368 C   0  0  0  0  0  0
  -26.4488  -31.6583   25.0699 C   0  0  0  0  0  0
  -25.3770  -31.3686   26.1463 C   0  0  0  0  0  0
  -27.0331  -30.3019   24.6112 C   0  0  0  0  0  0
  -27.6048  -32.4317   25.7457 C   0  0  0  0  0  0
  -27.5558  -37.1794   24.8478 C   0  0  0  0  0  0
  -21.4134  -29.2999   22.3733 N   0  0  0  0  0  0
  -26.4276  -37.3773   23.9413 N   0  0  0  0  0  0
  -24.6716  -31.0710   22.0994 N   0  0  0  0  0  0
  -23.4170  -28.8171   23.3071 O   0  0  0  0  0  0
  -28.4138  -26.6822   20.0594 O   0  0  0  0  0  0
  -26.5604  -34.8925   22.4692 O   0  0  0  0  0  0
  -23.5354  -32.1392   23.7459 O   0  0  0  0  0  0
  -28.4702  -21.9286   18.9651 C   0  0  0  0  0  0
  -30.4748  -22.5812   20.1702 C   0  0  0  0  0  0
  -28.1127  -23.2888   18.8231 C   0  0  0  0  0  0
  -30.1125  -23.9450   20.0278 C   0  0  0  0  0  0
  -29.6722  -21.5568   19.6092 C   0  0  0  0  0  0
  -28.9441  -24.3162   19.3225 C   0  0  0  0  0  0
  -30.1611  -20.0980   19.5275 C   0  0  0  0  0  0
  -28.6765  -25.7866   18.9593 C   0  0  0  0  0  0
  -30.1114  -16.8062   21.5295 C   0  0  0  0  0  0
  -29.8910  -17.7468   20.3118 C   0  0  0  0  0  0
  -29.8813  -15.3785   21.2424 N   0  0  0  0  0  0
  -29.8018  -19.1999   20.6546 N   0  3  0  0  0  0
  -31.4775  -12.4547   19.0931 H   0  0  0  0  0  0
  -30.3675  -11.2956   19.7627 H   0  0  0  0  0  0
  -29.7306  -11.8112   17.4003 H   0  0  0  0  0  0
  -29.6615  -13.5142   17.7597 H   0  0  0  0  0  0
  -27.8101  -11.3247   18.7641 H   0  0  0  0  0  0
  -27.3681  -12.6939   17.7752 H   0  0  0  0  0  0
  -27.7242  -14.2502   19.6136 H   0  0  0  0  0  0
  -28.6955  -11.8560   21.2502 H   0  0  0  0  0  0
  -28.4577  -13.4379   21.9065 H   0  0  0  0  0  0
  -25.2759   -9.5682   22.4738 H   0  0  0  0  0  0
  -24.0005   -7.4634   22.7477 H   0  0  0  0  0  0
  -21.0805   -8.8779   19.8958 H   0  0  0  0  0  0
  -22.3673  -10.9678   19.6174 H   0  0  0  0  0  0
  -21.2040   -7.6147   23.9709 H   0  0  0  0  0  0
  -21.1467   -6.0519   25.9084 H   0  0  0  0  0  0
  -22.0594   -2.7603   23.2818 H   0  0  0  0  0  0
  -22.4113  -11.9941   22.4825 H   0  0  0  0  0  0
  -21.1137  -13.1348   22.2645 H   0  0  0  0  0  0
  -24.6555  -15.8291   20.5032 H   0  0  0  0  0  0
  -26.2749  -15.6248   20.0582 H   0  0  0  0  0  0
  -26.7119  -32.5475   23.1097 H   0  0  0  0  0  0
  -25.0024  -33.9712   25.0424 H   0  0  0  0  0  0
  -22.6958  -31.3028   21.4121 H   0  0  0  0  0  0
  -23.3724  -35.9623   23.3360 H   0  0  0  0  0  0
  -24.3555  -36.8833   22.2053 H   0  0  0  0  0  0
  -23.7236  -37.6501   23.6629 H   0  0  0  0  0  0
  -26.0682  -31.5843   20.6052 H   0  0  0  0  0  0
  -26.8173  -30.8551   22.0001 H   0  0  0  0  0  0
  -28.1036  -29.0737   21.1500 H   0  0  0  0  0  0
  -25.9970  -25.9467   19.0315 H   0  0  0  0  0  0
  -23.9627  -27.2843   19.0500 H   0  0  0  0  0  0
  -23.7144  -30.5891   19.4007 H   0  0  0  0  0  0
  -22.7362  -29.2325   19.8804 H   0  0  0  0  0  0
  -25.1283  -36.1941   25.0835 H   0  0  0  0  0  0
  -20.9941  -28.3193   24.1455 H   0  0  0  0  0  0
  -20.5643  -26.2239   23.3600 H   0  0  0  0  0  0
  -21.6620  -26.7417   22.1218 H   0  0  0  0  0  0
  -19.6881  -25.6301   21.1214 H   0  0  0  0  0  0
  -19.6665  -27.3216   20.6764 H   0  0  0  0  0  0
  -17.4178  -26.6652   21.4047 H   0  0  0  0  0  0
  -18.0318  -26.0046   22.9032 H   0  0  0  0  0  0
  -19.7917  -30.7227   24.2303 H   0  0  0  0  0  0
  -17.5008  -31.6274   24.5128 H   0  0  0  0  0  0
  -15.5337  -30.2986   23.7637 H   0  0  0  0  0  0
  -15.8657  -28.0799   22.7098 H   0  0  0  0  0  0
  -24.5922  -30.7064   25.7797 H   0  0  0  0  0  0
  -24.9008  -32.2851   26.4952 H   0  0  0  0  0  0
  -25.8143  -30.8812   27.0190 H   0  0  0  0  0  0
  -26.2890  -29.6759   24.1181 H   0  0  0  0  0  0
  -27.4104  -29.7271   25.4577 H   0  0  0  0  0  0
  -27.8723  -30.4310   23.9275 H   0  0  0  0  0  0
  -27.2644  -33.3592   26.2069 H   0  0  0  0  0  0
  -28.3835  -32.6918   25.0277 H   0  0  0  0  0  0
  -28.0759  -31.8440   26.5347 H   0  0  0  0  0  0
  -28.2618  -38.0048   24.7486 H   0  0  0  0  0  0
  -28.1012  -36.2583   24.6366 H   0  0  0  0  0  0
  -27.2277  -37.1527   25.8883 H   0  0  0  0  0  0
  -20.9293  -29.8718   21.6951 H   0  0  0  0  0  0
  -26.0165  -38.2850   24.1410 H   0  0  0  0  0  0
  -27.8458  -21.1714   18.5116 H   0  0  0  0  0  0
  -31.4122  -22.3378   20.6511 H   0  0  0  0  0  0
  -27.2212  -23.5341   18.2625 H   0  0  0  0  0  0
  -30.7719  -24.7181   20.3987 H   0  0  0  0  0  0
  -31.2454  -20.0896   19.4064 H   0  0  0  0  0  0
  -29.7648  -19.6707   18.6056 H   0  0  0  0  0  0
  -27.9486  -25.8438   18.1519 H   0  0  0  0  0  0
  -29.5917  -26.1505   18.4905 H   0  0  0  0  0  0
  -29.4128  -17.0768   22.3211 H   0  0  0  0  0  0
  -31.1136  -16.9364   21.9414 H   0  0  0  0  0  0
  -28.9815  -17.4676   19.7762 H   0  0  0  0  0  0
  -30.7162  -17.5950   19.6157 H   0  0  0  0  0  0
  -28.9924  -15.0151   21.5553 H   0  0  0  0  0  0
  -28.8582  -19.4050   20.9399 H   0  0  0  0  0  0
  -30.4037  -19.4151   21.4305 H   0  0  0  0  0  0
  1 25  1  0  0  0
  1 30  2  0  0  0
  1 81  1  0  0  0
  2  3  1  0  0  0
  2 25  1  0  0  0
  2 83  1  0  0  0
  2 84  1  0  0  0
  3  4  1  0  0  0
  3 85  1  0  0  0
  3 86  1  0  0  0
  4  5  1  0  0  0
  4 87  1  0  0  0
  4 88  1  0  0  0
  5  6  1  0  0  0
  5 26  1  0  0  0
  5 89  1  0  0  0
  6 25  1  0  0  0
  6 90  1  0  0  0
  6 91  1  0  0  0
  7  8  2  0  0  0
  7 26  1  0  0  0
  7 29  1  0  0  0
  8  9  1  0  0  0
  8 22  1  0  0  0
  9 10  1  0  0  0
  9 27  2  0  0  0
 10 11  2  0  0  0
 10 15  1  0  0  0
 11 12  1  0  0  0
 11 92  1  0  0  0
 12 13  2  0  0  0
 12 93  1  0  0  0
 13 14  1  0  0  0
 13 31  1  0  0  0
 14 15  2  0  0  0
 14 94  1  0  0  0
 15 95  1  0  0  0
 16 17  2  0  0  0
 16 21  1  0  0  0
 16 31  1  0  0  0
 17 18  1  0  0  0
 17 96  1  0  0  0
 18 19  2  0  0  0
 18 97  1  0  0  0
 19 20  1  0  0  0
 19 24  1  0  0  0
 20 21  2  0  0  0
 20 98  1  0  0  0
 21 23  1  0  0  0
 22 28  1  0  0  0
 22 32  2  0  0  0
 26 27  1  0  0  0
 28 99  1  0  0  0
 28100  1  0  0  0
 29101  1  0  0  0
 29102  1  0  0  0
 33 34  1  0  0  0
 33 66  1  0  0  0
 33 70  2  0  0  0
 34 36  1  0  0  0
 34 59  1  0  0  0
 34103  1  0  0  0
 35 44  2  0  0  0
 35 45  1  0  0  0
 35 68  1  0  0  0
 36 56  1  0  0  0
 36104  1  0  0  0
 37 39  1  0  0  0
 37 47  1  0  0  0
 37 66  1  0  0  0
 37105  1  0  0  0
 38 43  2  0  0  0
 38 46  1  0  0  0
 38 47  1  0  0  0
 39 64  1  0  0  0
 39 67  2  0  0  0
 40 52  1  0  0  0
 40 53  2  0  0  0
 40 58  1  0  0  0
 41106  1  0  0  0
 41107  1  0  0  0
 41108  1  0  0  0
 41 48  1  0  0  0
 42 43  1  0  0  0
 42 66  1  0  0  0
 42109  1  0  0  0
 42110  1  0  0  0
 43 44  1  0  0  0
 44111  1  0  0  0
 45 46  2  0  0  0
 45112  1  0  0  0
 46113  1  0  0  0
 47114  1  0  0  0
 47115  1  0  0  0
 48 56  1  0  0  0
 48 65  1  0  0  0
 48116  1  0  0  0
 49 50  1  0  0  0
 49 53  1  0  0  0
 49 64  1  0  0  0
 49117  1  0  0  0
 50 51  1  0  0  0
 50118  1  0  0  0
 50119  1  0  0  0
 51 52  1  0  0  0
 51120  1  0  0  0
 51121  1  0  0  0
 52122  1  0  0  0
 52123  1  0  0  0
 53 54  1  0  0  0
 54 55  2  0  0  0
 54124  1  0  0  0
 55 57  1  0  0  0
 55125  1  0  0  0
 56 69  2  0  0  0
 57 58  2  0  0  0
 57126  1  0  0  0
 58127  1  0  0  0
 59 60  1  0  0  0
 59 61  1  0  0  0
 59 62  1  0  0  0
 60128  1  0  0  0
 60129  1  0  0  0
 60130  1  0  0  0
 61131  1  0  0  0
 61132  1  0  0  0
 61133  1  0  0  0
 62134  1  0  0  0
 62135  1  0  0  0
 62136  1  0  0  0
 63 65  1  0  0  0
 63137  1  0  0  0
 63138  1  0  0  0
 63139  1  0  0  0
 64140  1  0  0  0
 65141  1  0  0  0
 68 78  1  0  0  0
 71 73  2  0  0  0
 71 75  1  0  0  0
 71142  1  0  0  0
 72 74  1  0  0  0
 72 75  2  0  0  0
 72143  1  0  0  0
 73 76  1  0  0  0
 73144  1  0  0  0
 74 76  2  0  0  0
 74145  1  0  0  0
 75 77  1  0  0  0
 76 78  1  0  0  0
 77 82  1  0  0  0
 77146  1  0  0  0
 77147  1  0  0  0
 78148  1  0  0  0
 78149  1  0  0  0
 79 80  1  0  0  0
 79 81  1  0  0  0
 79150  1  0  0  0
 79151  1  0  0  0
 80 82  1  0  0  0
 80152  1  0  0  0
 80153  1  0  0  0
 81154  1  0  0  0
 82155  1  0  0  0
 82156  1  0  0  0
M  CHG  1  82   1
M  ISO  4   1 100  68 101  78 101  81 100
M  END
> <chiral flag>
0

> <version>
0

> <s_m_source_file>
/data/baiqing/PycharmProjects/Reinvent-master-3.2/result/LINK_invent/BTK/process_docking_weight1_custom_sum_contain_oxygen_bond_distance_aromatic_linkinvent_7_9_3/rearranged_h_0121.sdf

> <i_m_source_file_index>
75

> <r_mmod_Potential_Energy-OPLS-2005>
-288.826049804688

> <r_mmod_Stretch_Energy-OPLS-2005>
40.1489868164062

> <r_mmod_Bend_Energy-OPLS-2005>
104.516700744629

> <r_mmod_Torsional_Energy-OPLS-2005>
211.46794128418

> <r_mmod_Improper_Torsional_Energy-OPLS-2005>
4.52138900756836

> <r_mmod_Van_der_Waal_Energy-OPLS-2005>
149.172790527344

> <r_mmod_Electrostatic_Energy-OPLS-2005>
-326.719024658203

> <r_mmod_Solvation_Energy-OPLS-2005>
-486.35546875

> <b_mmod_Minimization_Converged-OPLS-2005>
0

> <r_mmod_RMS_Derivative-OPLS-2005>
2.90253758430481

$$$$
75
                    3D
 Structure written by MMmdl.
163171  0  0  1  0            999 V2000
  -30.6545  -14.5231   20.5387 C   0  0  0  0  0  0
  -30.4268  -12.3256   19.4267 C   0  0  0  0  0  0
  -29.4962  -12.5036   18.2076 C   0  0  0  0  0  0
  -28.0178  -12.3535   18.6216 C   0  0  0  0  0  0
  -27.6609  -13.1995   19.8731 C   0  0  2  0  0  0
  -28.7039  -12.9929   20.9949 C   0  0  0  0  0  0
  -25.2585  -13.8117   20.5660 C   0  0  0  0  0  0
  -24.1837  -13.0408   20.9136 C   0  0  0  0  0  0
  -24.6382  -11.6871   20.8699 C   0  0  0  0  0  0
  -23.9054  -10.4269   21.0393 C   0  0  0  0  0  0
  -24.3617   -9.4190   21.9169 C   0  0  0  0  0  0
  -23.6297   -8.2233   22.0751 C   0  0  0  0  0  0
  -22.4279   -8.0262   21.3544 C   0  0  0  0  0  0
  -21.9910   -9.0232   20.4645 C   0  0  0  0  0  0
  -22.7228  -10.2111   20.3048 C   0  0  0  0  0  0
  -21.6851   -6.0726   22.5285 C   0  0  0  0  0  0
  -21.4018   -6.5641   23.8213 C   0  0  0  0  0  0
  -21.3664   -5.6798   24.9178 C   0  0  0  0  0  0
  -21.6049   -4.3060   24.7234 C   0  0  0  0  0  0
  -21.8823   -3.8144   23.4358 C   0  0  0  0  0  0
  -21.9200   -4.6955   22.3405 C   0  0  0  0  0  0
  -22.7865  -13.5189   21.1850 C   0  0  0  0  0  0
  -22.1665   -4.2136   21.0982 F   0  0  0  0  0  0
  -21.5640   -3.4546   25.7752 F   0  0  0  0  0  0
  -30.0268  -13.3187   20.4376 N   0  0  0  0  0  0
  -26.3020  -12.9290   20.3340 N   0  0  0  0  0  0
  -25.9301  -11.6451   20.5706 N   0  0  0  0  0  0
  -22.0558  -12.8150   22.0420 N   0  0  0  0  0  0
  -25.4294  -15.1842   20.4096 N   0  0  0  0  0  0
  -31.7971  -14.7186   20.1115 O   0  0  0  0  0  0
  -21.6648   -6.8858   21.4240 O   0  0  0  0  0  0
  -22.3543  -14.5520   20.6746 O   0  0  0  0  0  0
  -24.6173  -31.8650   23.2077 C   0  0  0  0  0  0
  -25.9059  -32.4797   23.8372 C   0  0  1  0  0  0
  -27.2289  -27.4063   20.1026 C   0  0  0  0  0  0
  -25.5914  -33.8598   24.2306 N   0  0  0  0  0  0
  -23.4066  -30.4898   21.5481 C   0  0  2  0  0  0
  -24.8551  -28.9547   20.1112 C   0  0  0  0  0  0
  -22.7438  -29.4650   22.4982 C   0  0  0  0  0  0
  -18.0287  -28.1396   22.8495 C   0  0  0  0  0  0
  -24.1500  -36.7302   23.2639 C   0  0  0  0  0  0
  -25.9395  -30.8250   21.3636 C   0  0  0  0  0  0
  -26.0199  -29.4606   20.7040 C   0  0  0  0  0  0
  -27.2131  -28.6963   20.6910 C   0  0  0  0  0  0
  -26.0526  -26.9248   19.4943 C   0  0  0  0  0  0
  -24.8690  -27.6881   19.5014 C   0  0  0  0  0  0
  -23.6176  -29.8236   20.1622 C   0  0  0  0  0  0
  -25.4123  -36.3096   24.0334 C   0  0  1  0  0  0
  -20.5884  -28.3669   23.1327 C   0  0  2  0  0  0
  -20.6760  -26.9399   22.5434 C   0  0  0  0  0  0
  -19.5749  -26.6406   21.5210 C   0  0  0  0  0  0
  -18.1931  -26.7944   22.1620 C   0  0  0  0  0  0
  -19.1545  -28.8855   23.2899 C   0  0  0  0  0  0
  -18.9471  -30.1459   23.8910 C   0  0  0  0  0  0
  -17.6476  -30.6599   24.0582 C   0  0  0  0  0  0
  -25.9051  -34.9459   23.5117 C   0  0  0  0  0  0
  -16.5366  -29.9100   23.6346 C   0  0  0  0  0  0
  -16.7276  -28.6527   23.0348 C   0  0  0  0  0  0
  -26.4477  -31.6576   25.0707 C   0  0  0  0  0  0
  -25.3726  -31.3688   26.1439 C   0  0  0  0  0  0
  -27.0315  -30.3022   24.6108 C   0  0  0  0  0  0
  -27.6081  -32.4285   25.7453 C   0  0  0  0  0  0
  -27.5586  -37.1798   24.8470 C   0  0  0  0  0  0
  -21.4169  -29.3033   22.3734 N   0  0  0  0  0  0
  -26.4307  -37.3782   23.9412 N   0  0  0  0  0  0
  -24.6729  -31.0744   22.0979 N   0  0  0  0  0  0
  -23.4213  -28.8175   23.3006 O   0  0  0  0  0  0
  -28.3529  -26.5987   20.1257 O   0  0  0  0  0  0
  -26.5620  -34.8915   22.4688 O   0  0  0  0  0  0
  -23.5372  -32.1424   23.7484 O   0  0  0  0  0  0
  -29.2847  -21.3612   21.9748 C   0  0  0  0  0  0
  -28.9445  -21.6154   20.6160 C   0  0  0  0  0  0
  -29.3568  -20.0115   22.1924 C   0  0  0  0  0  0
  -28.8525  -20.3662   20.0316 C   0  0  0  0  0  0
  -29.6283  -19.2904   23.4786 C   0  0  0  0  0  0
  -28.4953  -20.0272   18.6165 C   0  0  0  0  0  0
  -28.4938  -25.9493   22.4164 C   0  0  0  0  0  0
  -28.6555  -22.9870   19.9618 C   0  0  0  0  0  0
  -29.2444  -24.2726   20.6419 C   0  0  0  0  0  0
  -28.9077  -17.8919   20.8198 C   0  0  0  0  0  0
  -30.1855  -16.9989   20.9426 C   0  0  0  0  0  0
  -28.2453  -25.4350   20.9861 C   0  0  2  0  0  0
  -29.0754  -19.3632   20.9932 N   0  0  0  0  0  0
  -29.8786  -15.5450   20.9655 N   0  0  0  0  0  0
  -31.4739  -12.4271   19.1306 H   0  0  0  0  0  0
  -30.3305  -11.3166   19.8293 H   0  0  0  0  0  0
  -29.7399  -11.7757   17.4316 H   0  0  0  0  0  0
  -29.6539  -13.4874   17.7638 H   0  0  0  0  0  0
  -27.8344  -11.2971   18.8215 H   0  0  0  0  0  0
  -27.3634  -12.6210   17.7912 H   0  0  0  0  0  0
  -27.7006  -14.2431   19.5606 H   0  0  0  0  0  0
  -28.6926  -11.9556   21.3361 H   0  0  0  0  0  0
  -28.4646  -13.5906   21.8754 H   0  0  0  0  0  0
  -25.2766   -9.5674   22.4732 H   0  0  0  0  0  0
  -24.0022   -7.4623   22.7466 H   0  0  0  0  0  0
  -21.0855   -8.8730   19.8940 H   0  0  0  0  0  0
  -22.3677  -10.9650   19.6164 H   0  0  0  0  0  0
  -21.2004   -7.6147   23.9709 H   0  0  0  0  0  0
  -21.1487   -6.0530   25.9075 H   0  0  0  0  0  0
  -22.0602   -2.7606   23.2865 H   0  0  0  0  0  0
  -22.4208  -11.9788   22.4752 H   0  0  0  0  0  0
  -21.1179  -13.1141   22.2686 H   0  0  0  0  0  0
  -24.6556  -15.8296   20.5138 H   0  0  0  0  0  0
  -26.2660  -15.6252   20.0535 H   0  0  0  0  0  0
  -26.7113  -32.5525   23.1116 H   0  0  0  0  0  0
  -25.0034  -33.9755   25.0427 H   0  0  0  0  0  0
  -22.6951  -31.3062   21.4062 H   0  0  0  0  0  0
  -23.3769  -35.9626   23.3310 H   0  0  0  0  0  0
  -24.3597  -36.8937   22.2056 H   0  0  0  0  0  0
  -23.7240  -37.6498   23.6660 H   0  0  0  0  0  0
  -26.0569  -31.5942   20.6003 H   0  0  0  0  0  0
  -26.8236  -30.8759   21.9861 H   0  0  0  0  0  0
  -28.1114  -29.0771   21.1578 H   0  0  0  0  0  0
  -26.0487  -25.9503   19.0268 H   0  0  0  0  0  0
  -23.9738  -27.2922   19.0432 H   0  0  0  0  0  0
  -23.7277  -30.5981   19.4042 H   0  0  0  0  0  0
  -22.7396  -29.2498   19.8630 H   0  0  0  0  0  0
  -25.1287  -36.1953   25.0826 H   0  0  0  0  0  0
  -20.9965  -28.3224   24.1448 H   0  0  0  0  0  0
  -20.5658  -26.2259   23.3622 H   0  0  0  0  0  0
  -21.6621  -26.7439   22.1212 H   0  0  0  0  0  0
  -19.6901  -25.6324   21.1226 H   0  0  0  0  0  0
  -19.6699  -27.3227   20.6757 H   0  0  0  0  0  0
  -17.4186  -26.6703   21.4036 H   0  0  0  0  0  0
  -18.0329  -26.0090   22.9029 H   0  0  0  0  0  0
  -19.7962  -30.7266   24.2273 H   0  0  0  0  0  0
  -17.5050  -31.6282   24.5177 H   0  0  0  0  0  0
  -15.5371  -30.2997   23.7677 H   0  0  0  0  0  0
  -15.8676  -28.0868   22.7031 H   0  0  0  0  0  0
  -24.5889  -30.7057   25.7742 H   0  0  0  0  0  0
  -24.8910  -32.2843   26.4896 H   0  0  0  0  0  0
  -25.8051  -30.8819   27.0188 H   0  0  0  0  0  0
  -26.2857  -29.6765   24.1184 H   0  0  0  0  0  0
  -27.4098  -29.7282   25.4576 H   0  0  0  0  0  0
  -27.8692  -30.4341   23.9253 H   0  0  0  0  0  0
  -27.2735  -33.3604   26.2024 H   0  0  0  0  0  0
  -28.3872  -32.6812   25.0243 H   0  0  0  0  0  0
  -28.0740  -31.8383   26.5358 H   0  0  0  0  0  0
  -28.2590  -38.0096   24.7507 H   0  0  0  0  0  0
  -28.1077  -36.2635   24.6290 H   0  0  0  0  0  0
  -27.2300  -37.1434   25.8864 H   0  0  0  0  0  0
  -20.9309  -29.8795   21.7014 H   0  0  0  0  0  0
  -26.0204  -38.2869   24.1402 H   0  0  0  0  0  0
  -29.4210  -22.1014   22.7513 H   0  0  0  0  0  0
  -29.2023  -18.2873   23.4988 H   0  0  0  0  0  0
  -29.1980  -19.8323   24.3210 H   0  0  0  0  0  0
  -30.6998  -19.2085   23.6582 H   0  0  0  0  0  0
  -28.6519  -20.8805   17.9576 H   0  0  0  0  0  0
  -27.4446  -19.7407   18.5372 H   0  0  0  0  0  0
  -29.1082  -19.2135   18.2307 H   0  0  0  0  0  0
  -28.5218  -25.1337   23.1391 H   0  0  0  0  0  0
  -27.7079  -26.6344   22.7392 H   0  0  0  0  0  0
  -29.4469  -26.4773   22.4765 H   0  0  0  0  0  0
  -27.5722  -23.0730   19.8819 H   0  0  0  0  0  0
  -29.0146  -22.9594   18.9330 H   0  0  0  0  0  0
  -30.0657  -24.6683   20.0419 H   0  0  0  0  0  0
  -29.7372  -23.9655   21.5612 H   0  0  0  0  0  0
  -28.1877  -17.5665   21.5707 H   0  0  0  0  0  0
  -28.4192  -17.6950   19.8665 H   0  0  0  0  0  0
  -30.7192  -17.2371   21.8607 H   0  0  0  0  0  0
  -30.8632  -17.2300   20.1188 H   0  0  0  0  0  0
  -27.2313  -25.0305   20.9626 H   0  0  0  0  0  0
  -28.9569  -15.2843   21.2845 H   0  0  0  0  0  0
  1 25  1  0  0  0
  1 30  2  0  0  0
  1 84  1  0  0  0
  2  3  1  0  0  0
  2 25  1  0  0  0
  2 85  1  0  0  0
  2 86  1  0  0  0
  3  4  1  0  0  0
  3 87  1  0  0  0
  3 88  1  0  0  0
  4  5  1  0  0  0
  4 89  1  0  0  0
  4 90  1  0  0  0
  5  6  1  0  0  0
  5 26  1  0  0  0
  5 91  1  0  0  0
  6 25  1  0  0  0
  6 92  1  0  0  0
  6 93  1  0  0  0
  7  8  2  0  0  0
  7 26  1  0  0  0
  7 29  1  0  0  0
  8  9  1  0  0  0
  8 22  1  0  0  0
  9 10  1  0  0  0
  9 27  2  0  0  0
 10 11  2  0  0  0
 10 15  1  0  0  0
 11 12  1  0  0  0
 11 94  1  0  0  0
 12 13  2  0  0  0
 12 95  1  0  0  0
 13 14  1  0  0  0
 13 31  1  0  0  0
 14 15  2  0  0  0
 14 96  1  0  0  0
 15 97  1  0  0  0
 16 17  2  0  0  0
 16 21  1  0  0  0
 16 31  1  0  0  0
 17 18  1  0  0  0
 17 98  1  0  0  0
 18 19  2  0  0  0
 18 99  1  0  0  0
 19 20  1  0  0  0
 19 24  1  0  0  0
 20 21  2  0  0  0
 20100  1  0  0  0
 21 23  1  0  0  0
 22 28  1  0  0  0
 22 32  2  0  0  0
 26 27  1  0  0  0
 28101  1  0  0  0
 28102  1  0  0  0
 29103  1  0  0  0
 29104  1  0  0  0
 33 34  1  0  0  0
 33 66  1  0  0  0
 33 70  2  0  0  0
 34 36  1  0  0  0
 34 59  1  0  0  0
 34105  1  0  0  0
 35 44  2  0  0  0
 35 45  1  0  0  0
 35 68  1  0  0  0
 36 56  1  0  0  0
 36106  1  0  0  0
 37 39  1  0  0  0
 37 47  1  0  0  0
 37 66  1  0  0  0
 37107  1  0  0  0
 38 43  2  0  0  0
 38 46  1  0  0  0
 38 47  1  0  0  0
 39 64  1  0  0  0
 39 67  2  0  0  0
 40 52  1  0  0  0
 40 53  2  0  0  0
 40 58  1  0  0  0
 41108  1  0  0  0
 41109  1  0  0  0
 41110  1  0  0  0
 41 48  1  0  0  0
 42 43  1  0  0  0
 42 66  1  0  0  0
 42111  1  0  0  0
 42112  1  0  0  0
 43 44  1  0  0  0
 44113  1  0  0  0
 45 46  2  0  0  0
 45114  1  0  0  0
 46115  1  0  0  0
 47116  1  0  0  0
 47117  1  0  0  0
 48 56  1  0  0  0
 48 65  1  0  0  0
 48118  1  0  0  0
 49 50  1  0  0  0
 49 53  1  0  0  0
 49 64  1  0  0  0
 49119  1  0  0  0
 50 51  1  0  0  0
 50120  1  0  0  0
 50121  1  0  0  0
 51 52  1  0  0  0
 51122  1  0  0  0
 51123  1  0  0  0
 52124  1  0  0  0
 52125  1  0  0  0
 53 54  1  0  0  0
 54 55  2  0  0  0
 54126  1  0  0  0
 55 57  1  0  0  0
 55127  1  0  0  0
 56 69  2  0  0  0
 57 58  2  0  0  0
 57128  1  0  0  0
 58129  1  0  0  0
 59 60  1  0  0  0
 59 61  1  0  0  0
 59 62  1  0  0  0
 60130  1  0  0  0
 60131  1  0  0  0
 60132  1  0  0  0
 61133  1  0  0  0
 61134  1  0  0  0
 61135  1  0  0  0
 62136  1  0  0  0
 62137  1  0  0  0
 62138  1  0  0  0
 63 65  1  0  0  0
 63139  1  0  0  0
 63140  1  0  0  0
 63141  1  0  0  0
 64142  1  0  0  0
 65143  1  0  0  0
 68 82  1  0  0  0
 71 72  1  0  0  0
 71 73  2  0  0  0
 71144  1  0  0  0
 72 74  2  0  0  0
 72 78  1  0  0  0
 73 75  1  0  0  0
 73 83  1  0  0  0
 74 76  1  0  0  0
 74 83  1  0  0  0
 75145  1  0  0  0
 75146  1  0  0  0
 75147  1  0  0  0
 76148  1  0  0  0
 76149  1  0  0  0
 76150  1  0  0  0
 77151  1  0  0  0
 77152  1  0  0  0
 77153  1  0  0  0
 77 82  1  0  0  0
 78 79  1  0  0  0
 78154  1  0  0  0
 78155  1  0  0  0
 79 82  1  0  0  0
 79156  1  0  0  0
 79157  1  0  0  0
 80 81  1  0  0  0
 80 83  1  0  0  0
 80158  1  0  0  0
 80159  1  0  0  0
 81 84  1  0  0  0
 81160  1  0  0  0
 81161  1  0  0  0
 82162  1  0  0  0
 84163  1  0  0  0
M  ISO  4   1 100  68 101  82 101  84 100
M  END
> <chiral flag>
0

> <version>
0

> <s_m_source_file>
/data/baiqing/PycharmProjects/Reinvent-master-3.2/result/LINK_invent/BTK/process_docking_weight1_custom_sum_contain_oxygen_bond_distance_aromatic_linkinvent_7_9_3/rearranged_h_0121.sdf

> <i_m_source_file_index>
76

> <r_mmod_Potential_Energy-OPLS-2005>
-79.239616394043

> <r_mmod_Stretch_Energy-OPLS-2005>
48.5710372924805

> <r_mmod_Bend_Energy-OPLS-2005>
107.193099975586

> <r_mmod_Torsional_Energy-OPLS-2005>
252.170700073242

> <r_mmod_Improper_Torsional_Energy-OPLS-2005>
5.15487813949585

> <r_mmod_Van_der_Waal_Energy-OPLS-2005>
124.576599121094

> <r_mmod_Electrostatic_Energy-OPLS-2005>
-424.150634765625

> <r_mmod_Solvation_Energy-OPLS-2005>
-213.136962890625

> <b_mmod_Minimization_Converged-OPLS-2005>
0

> <r_mmod_RMS_Derivative-OPLS-2005>
3.20593214035034

$$$$
76
                    3D
 Structure written by MMmdl.
166175  0  0  1  0            999 V2000
  -30.7183  -14.3351   20.7055 C   0  0  0  0  0  0
  -30.4494  -12.2726   19.3817 C   0  0  0  0  0  0
  -29.5005  -12.5056   18.1866 C   0  0  0  0  0  0
  -28.0231  -12.3668   18.6044 C   0  0  0  0  0  0
  -27.6791  -13.1825   19.8799 C   0  0  2  0  0  0
  -28.7086  -12.8539   20.9851 C   0  0  0  0  0  0
  -25.2682  -13.8120   20.5643 C   0  0  0  0  0  0
  -24.1924  -13.0445   20.9230 C   0  0  0  0  0  0
  -24.6431  -11.6901   20.8755 C   0  0  0  0  0  0
  -23.9063  -10.4282   21.0381 C   0  0  0  0  0  0
  -24.3600   -9.4183   21.9172 C   0  0  0  0  0  0
  -23.6269   -8.2220   22.0754 C   0  0  0  0  0  0
  -22.4258   -8.0259   21.3544 C   0  0  0  0  0  0
  -21.9891   -9.0234   20.4653 C   0  0  0  0  0  0
  -22.7218  -10.2115   20.3039 C   0  0  0  0  0  0
  -21.6840   -6.0706   22.5276 C   0  0  0  0  0  0
  -21.3978   -6.5613   23.8209 C   0  0  0  0  0  0
  -21.3652   -5.6779   24.9186 C   0  0  0  0  0  0
  -21.6063   -4.3048   24.7244 C   0  0  0  0  0  0
  -21.8831   -3.8127   23.4374 C   0  0  0  0  0  0
  -21.9194   -4.6933   22.3417 C   0  0  0  0  0  0
  -22.7923  -13.5240   21.1838 C   0  0  0  0  0  0
  -22.1664   -4.2126   21.0993 F   0  0  0  0  0  0
  -21.5661   -3.4531   25.7760 F   0  0  0  0  0  0
  -30.0603  -13.1717   20.4763 N   0  0  0  0  0  0
  -26.3117  -12.9259   20.3328 N   0  0  0  0  0  0
  -25.9336  -11.6451   20.5708 N   0  0  0  0  0  0
  -22.0519  -12.8244   22.0365 N   0  0  0  0  0  0
  -25.4353  -15.1816   20.3864 N   0  0  0  0  0  0
  -31.7114  -14.7087   20.0762 O   0  0  0  0  0  0
  -21.6645   -6.8839   21.4229 O   0  0  0  0  0  0
  -22.3592  -14.5533   20.6673 O   0  0  0  0  0  0
  -24.6111  -31.8701   23.2095 C   0  0  0  0  0  0
  -25.9015  -32.4836   23.8400 C   0  0  1  0  0  0
  -27.2371  -27.4921   20.0842 C   0  0  0  0  0  0
  -25.5887  -33.8639   24.2340 N   0  0  0  0  0  0
  -23.3969  -30.4946   21.5462 C   0  0  2  0  0  0
  -24.8470  -28.9683   20.1070 C   0  0  0  0  0  0
  -22.7392  -29.4689   22.4965 C   0  0  0  0  0  0
  -18.0312  -28.1319   22.8427 C   0  0  0  0  0  0
  -24.1496  -36.7339   23.2642 C   0  0  0  0  0  0
  -25.9187  -30.8547   21.3554 C   0  0  0  0  0  0
  -26.0008  -29.4943   20.7035 C   0  0  0  0  0  0
  -27.2014  -28.7625   20.6943 C   0  0  0  0  0  0
  -26.0809  -26.9726   19.4706 C   0  0  0  0  0  0
  -24.8782  -27.7039   19.4903 C   0  0  0  0  0  0
  -23.6042  -29.8242   20.1610 C   0  0  0  0  0  0
  -25.4111  -36.3127   24.0342 C   0  0  1  0  0  0
  -20.5866  -28.3654   23.1284 C   0  0  2  0  0  0
  -20.6804  -26.9389   22.5378 C   0  0  0  0  0  0
  -19.5830  -26.6362   21.5141 C   0  0  0  0  0  0
  -18.2008  -26.7866   22.1552 C   0  0  0  0  0  0
  -19.1528  -28.8807   23.2860 C   0  0  0  0  0  0
  -18.9418  -30.1417   23.8852 C   0  0  0  0  0  0
  -17.6409  -30.6521   24.0504 C   0  0  0  0  0  0
  -25.9029  -34.9485   23.5145 C   0  0  0  0  0  0
  -16.5332  -29.8989   23.6229 C   0  0  0  0  0  0
  -16.7275  -28.6414   23.0254 C   0  0  0  0  0  0
  -26.4454  -31.6597   25.0703 C   0  0  0  0  0  0
  -25.3733  -31.3680   26.1461 C   0  0  0  0  0  0
  -27.0282  -30.3050   24.6037 C   0  0  0  0  0  0
  -27.6029  -32.4325   25.7459 C   0  0  0  0  0  0
  -27.5580  -37.1837   24.8462 C   0  0  0  0  0  0
  -21.4121  -29.3015   22.3668 N   0  0  0  0  0  0
  -26.4291  -37.3803   23.9412 N   0  0  0  0  0  0
  -24.6606  -31.0854   22.0972 N   0  0  0  0  0  0
  -23.4174  -28.8279   23.3022 O   0  0  0  0  0  0
  -28.3659  -26.7217   20.1287 O   0  0  0  0  0  0
  -26.5573  -34.8919   22.4694 O   0  0  0  0  0  0
  -23.5324  -32.1449   23.7517 O   0  0  0  0  0  0
  -26.3166  -22.6347   22.2955 C   0  0  0  0  0  0
  -28.5302  -22.0950   23.0885 C   0  0  0  0  0  0
  -26.0832  -21.2605   22.0796 C   0  0  0  0  0  0
  -27.5735  -23.0717   22.7713 C   0  0  0  0  0  0
  -27.1464  -20.3717   22.3597 C   0  0  0  0  0  0
  -23.4478  -21.3729   22.0052 C   0  0  0  0  0  0
  -23.8036  -19.9388   22.3253 C   0  0  0  0  0  0
  -24.7602  -20.7944   21.5211 C   0  0  0  0  0  0
  -27.0519  -18.8809   22.0602 C   0  0  0  0  0  0
  -30.0642  -16.5376   21.6309 C   0  0  0  0  0  0
  -28.5864  -16.9481   21.8009 C   0  0  0  0  0  0
  -28.6105  -26.1951   21.4338 C   0  0  0  0  0  0
  -27.4628  -25.2721   21.8908 C   0  0  0  0  0  0
  -28.3362  -20.7774   22.8712 N   0  0  0  0  0  0
  -30.1471  -15.0832   21.6542 N   0  0  0  0  0  0
  -28.3931  -18.4005   21.6935 N   0  3  0  0  0  0
  -27.9132  -24.3960   22.9211 O   0  0  0  0  0  0
  -31.4829  -12.4343   19.0675 H   0  0  0  0  0  0
  -30.4003  -11.2355   19.7201 H   0  0  0  0  0  0
  -29.7260  -11.7960   17.3885 H   0  0  0  0  0  0
  -29.6746  -13.4978   17.7661 H   0  0  0  0  0  0
  -27.8372  -11.3072   18.7898 H   0  0  0  0  0  0
  -27.3702  -12.6496   17.7789 H   0  0  0  0  0  0
  -27.7559  -14.2429   19.6343 H   0  0  0  0  0  0
  -28.6630  -11.7892   21.2237 H   0  0  0  0  0  0
  -28.4463  -13.3456   21.9220 H   0  0  0  0  0  0
  -25.2711   -9.5691   22.4789 H   0  0  0  0  0  0
  -23.9979   -7.4598   22.7474 H   0  0  0  0  0  0
  -21.0823   -8.8734   19.8968 H   0  0  0  0  0  0
  -22.3614  -10.9668   19.6191 H   0  0  0  0  0  0
  -21.1918   -7.6113   23.9691 H   0  0  0  0  0  0
  -21.1471   -6.0519   25.9097 H   0  0  0  0  0  0
  -22.0619   -2.7588   23.2885 H   0  0  0  0  0  0
  -22.4072  -11.9893   22.4802 H   0  0  0  0  0  0
  -21.1131  -13.1323   22.2510 H   0  0  0  0  0  0
  -24.5960  -15.7510   20.3604 H   0  0  0  0  0  0
  -26.1421  -15.5052   19.7389 H   0  0  0  0  0  0
  -26.7074  -32.5567   23.1166 H   0  0  0  0  0  0
  -25.0075  -33.9806   25.0512 H   0  0  0  0  0  0
  -22.6879  -31.3121   21.4033 H   0  0  0  0  0  0
  -23.3737  -35.9691   23.3317 H   0  0  0  0  0  0
  -24.3592  -36.8936   22.2050 H   0  0  0  0  0  0
  -23.7255  -37.6562   23.6632 H   0  0  0  0  0  0
  -26.0224  -31.6223   20.5890 H   0  0  0  0  0  0
  -26.8113  -30.9138   21.9651 H   0  0  0  0  0  0
  -28.0937  -29.1627   21.1568 H   0  0  0  0  0  0
  -26.1107  -25.9971   19.0039 H   0  0  0  0  0  0
  -23.9923  -27.2920   19.0280 H   0  0  0  0  0  0
  -23.7000  -30.5971   19.3970 H   0  0  0  0  0  0
  -22.7339  -29.2334   19.8704 H   0  0  0  0  0  0
  -25.1283  -36.2007   25.0827 H   0  0  0  0  0  0
  -20.9966  -28.3216   24.1404 H   0  0  0  0  0  0
  -21.6684  -26.7515   22.1146 H   0  0  0  0  0  0
  -20.5747  -26.2230   23.3546 H   0  0  0  0  0  0
  -19.7063  -25.6288   21.1134 H   0  0  0  0  0  0
  -19.6760  -27.3215   20.6690 H   0  0  0  0  0  0
  -17.4324  -26.6615   21.3913 H   0  0  0  0  0  0
  -18.0396  -25.9980   22.8913 H   0  0  0  0  0  0
  -19.7876  -30.7244   24.2234 H   0  0  0  0  0  0
  -17.4938  -31.6185   24.5131 H   0  0  0  0  0  0
  -15.5328  -30.2883   23.7510 H   0  0  0  0  0  0
  -15.8702  -28.0720   22.6908 H   0  0  0  0  0  0
  -24.5874  -30.7066   25.7780 H   0  0  0  0  0  0
  -24.8977  -32.2838   26.4992 H   0  0  0  0  0  0
  -25.8115  -30.8785   27.0167 H   0  0  0  0  0  0
  -26.2803  -29.6822   24.1107 H   0  0  0  0  0  0
  -27.4087  -29.7274   25.4473 H   0  0  0  0  0  0
  -27.8629  -30.4404   23.9150 H   0  0  0  0  0  0
  -27.2624  -33.3594   26.2092 H   0  0  0  0  0  0
  -28.3799  -32.6952   25.0258 H   0  0  0  0  0  0
  -28.0729  -31.8428   26.5344 H   0  0  0  0  0  0
  -28.2615  -38.0118   24.7488 H   0  0  0  0  0  0
  -28.1064  -36.2655   24.6317 H   0  0  0  0  0  0
  -27.2299  -37.1499   25.8864 H   0  0  0  0  0  0
  -20.9294  -29.8505   21.6697 H   0  0  0  0  0  0
  -26.0198  -38.2895   24.1387 H   0  0  0  0  0  0
  -25.5371  -23.3510   22.0796 H   0  0  0  0  0  0
  -29.4913  -22.3948   23.4805 H   0  0  0  0  0  0
  -23.4533  -22.0768   22.8373 H   0  0  0  0  0  0
  -22.6753  -21.5452   21.2558 H   0  0  0  0  0  0
  -23.2570  -19.1592   21.7957 H   0  0  0  0  0  0
  -24.0532  -19.7061   23.3594 H   0  0  0  0  0  0
  -24.8376  -20.5790   20.4540 H   0  0  0  0  0  0
  -26.3482  -18.6613   21.2565 H   0  0  0  0  0  0
  -26.6776  -18.3819   22.9538 H   0  0  0  0  0  0
  -30.6713  -16.9466   22.4386 H   0  0  0  0  0  0
  -30.4601  -16.9355   20.6946 H   0  0  0  0  0  0
  -28.2397  -16.6208   22.7809 H   0  0  0  0  0  0
  -27.9513  -16.4574   21.0608 H   0  0  0  0  0  0
  -29.5290  -25.6135   21.3679 H   0  0  0  0  0  0
  -28.7855  -26.9813   22.1694 H   0  0  0  0  0  0
  -27.1397  -24.7102   21.0137 H   0  0  0  0  0  0
  -26.6052  -25.8522   22.2382 H   0  0  0  0  0  0
  -29.4491  -14.6038   22.2027 H   0  0  0  0  0  0
  -28.5917  -18.7219   20.7610 H   0  0  0  0  0  0
  -28.9999  -18.9033   22.3279 H   0  0  0  0  0  0
  1 25  1  0  0  0
  1 30  2  0  0  0
  1 85  1  0  0  0
  2  3  1  0  0  0
  2 25  1  0  0  0
  2 88  1  0  0  0
  2 89  1  0  0  0
  3  4  1  0  0  0
  3 90  1  0  0  0
  3 91  1  0  0  0
  4  5  1  0  0  0
  4 92  1  0  0  0
  4 93  1  0  0  0
  5  6  1  0  0  0
  5 26  1  0  0  0
  5 94  1  0  0  0
  6 25  1  0  0  0
  6 95  1  0  0  0
  6 96  1  0  0  0
  7  8  2  0  0  0
  7 26  1  0  0  0
  7 29  1  0  0  0
  8  9  1  0  0  0
  8 22  1  0  0  0
  9 10  1  0  0  0
  9 27  2  0  0  0
 10 11  2  0  0  0
 10 15  1  0  0  0
 11 12  1  0  0  0
 11 97  1  0  0  0
 12 13  2  0  0  0
 12 98  1  0  0  0
 13 14  1  0  0  0
 13 31  1  0  0  0
 14 15  2  0  0  0
 14 99  1  0  0  0
 15100  1  0  0  0
 16 17  2  0  0  0
 16 21  1  0  0  0
 16 31  1  0  0  0
 17 18  1  0  0  0
 17101  1  0  0  0
 18 19  2  0  0  0
 18102  1  0  0  0
 19 20  1  0  0  0
 19 24  1  0  0  0
 20 21  2  0  0  0
 20103  1  0  0  0
 21 23  1  0  0  0
 22 28  1  0  0  0
 22 32  2  0  0  0
 26 27  1  0  0  0
 28104  1  0  0  0
 28105  1  0  0  0
 29106  1  0  0  0
 29107  1  0  0  0
 33 34  1  0  0  0
 33 66  1  0  0  0
 33 70  2  0  0  0
 34 36  1  0  0  0
 34 59  1  0  0  0
 34108  1  0  0  0
 35 44  2  0  0  0
 35 45  1  0  0  0
 35 68  1  0  0  0
 36 56  1  0  0  0
 36109  1  0  0  0
 37 39  1  0  0  0
 37 47  1  0  0  0
 37 66  1  0  0  0
 37110  1  0  0  0
 38 43  2  0  0  0
 38 46  1  0  0  0
 38 47  1  0  0  0
 39 64  1  0  0  0
 39 67  2  0  0  0
 40 52  1  0  0  0
 40 53  2  0  0  0
 40 58  1  0  0  0
 41111  1  0  0  0
 41112  1  0  0  0
 41113  1  0  0  0
 41 48  1  0  0  0
 42 43  1  0  0  0
 42 66  1  0  0  0
 42114  1  0  0  0
 42115  1  0  0  0
 43 44  1  0  0  0
 44116  1  0  0  0
 45 46  2  0  0  0
 45117  1  0  0  0
 46118  1  0  0  0
 47119  1  0  0  0
 47120  1  0  0  0
 48 56  1  0  0  0
 48 65  1  0  0  0
 48121  1  0  0  0
 49 50  1  0  0  0
 49 53  1  0  0  0
 49 64  1  0  0  0
 49122  1  0  0  0
 50 51  1  0  0  0
 50123  1  0  0  0
 50124  1  0  0  0
 51 52  1  0  0  0
 51125  1  0  0  0
 51126  1  0  0  0
 52127  1  0  0  0
 52128  1  0  0  0
 53 54  1  0  0  0
 54 55  2  0  0  0
 54129  1  0  0  0
 55 57  1  0  0  0
 55130  1  0  0  0
 56 69  2  0  0  0
 57 58  2  0  0  0
 57131  1  0  0  0
 58132  1  0  0  0
 59 60  1  0  0  0
 59 61  1  0  0  0
 59 62  1  0  0  0
 60133  1  0  0  0
 60134  1  0  0  0
 60135  1  0  0  0
 61136  1  0  0  0
 61137  1  0  0  0
 61138  1  0  0  0
 62139  1  0  0  0
 62140  1  0  0  0
 62141  1  0  0  0
 63 65  1  0  0  0
 63142  1  0  0  0
 63143  1  0  0  0
 63144  1  0  0  0
 64145  1  0  0  0
 65146  1  0  0  0
 68 82  1  0  0  0
 71 73  2  0  0  0
 71 74  1  0  0  0
 71147  1  0  0  0
 72 74  2  0  0  0
 72 84  1  0  0  0
 72148  1  0  0  0
 73 75  1  0  0  0
 73 78  1  0  0  0
 74 87  1  0  0  0
 75 79  1  0  0  0
 75 84  2  0  0  0
 76 77  1  0  0  0
 76 78  1  0  0  0
 76149  1  0  0  0
 76150  1  0  0  0
 77 78  1  0  0  0
 77151  1  0  0  0
 77152  1  0  0  0
 78153  1  0  0  0
 79 86  1  0  0  0
 79154  1  0  0  0
 79155  1  0  0  0
 80 81  1  0  0  0
 80 85  1  0  0  0
 80156  1  0  0  0
 80157  1  0  0  0
 81 86  1  0  0  0
 81158  1  0  0  0
 81159  1  0  0  0
 82 83  1  0  0  0
 82160  1  0  0  0
 82161  1  0  0  0
 83 87  1  0  0  0
 83162  1  0  0  0
 83163  1  0  0  0
 85164  1  0  0  0
 86165  1  0  0  0
 86166  1  0  0  0
M  CHG  1  86   1
M  ISO  4   1 100  68 101  82 101  85 100
M  END
> <chiral flag>
0

> <version>
0

> <s_m_source_file>
/data/baiqing/PycharmProjects/Reinvent-master-3.2/result/LINK_invent/BTK/process_docking_weight1_custom_sum_contain_oxygen_bond_distance_aromatic_linkinvent_7_9_3/rearranged_h_0121.sdf

> <i_m_source_file_index>
77

> <r_mmod_Potential_Energy-OPLS-2005>
-423.010223388672

> <r_mmod_Stretch_Energy-OPLS-2005>
32.4776382446289

> <r_mmod_Bend_Energy-OPLS-2005>
86.4319763183594

> <r_mmod_Torsional_Energy-OPLS-2005>
277.2900390625

> <r_mmod_Improper_Torsional_Energy-OPLS-2005>
7.31508684158325

> <r_mmod_Van_der_Waal_Energy-OPLS-2005>
163.033798217773

> <r_mmod_Electrostatic_Energy-OPLS-2005>
-523.964538574219

> <r_mmod_Solvation_Energy-OPLS-2005>
-475.908142089844

> <b_mmod_Minimization_Converged-OPLS-2005>
0

> <r_mmod_RMS_Derivative-OPLS-2005>
4.6932315826416

$$$$
77
                    3D
 Structure written by MMmdl.
176184  0  0  1  0            999 V2000
  -29.7957  -14.7032   20.0584 C   0  0  0  0  0  0
  -31.1414  -12.7611   19.2608 C   0  0  0  0  0  0
  -30.2894  -12.1153   18.1483 C   0  0  0  0  0  0
  -29.1520  -11.4575   18.9942 C   0  0  0  0  0  0
  -28.3656  -12.4863   20.0512 C   0  0  2  0  0  0
  -29.5993  -12.5810   21.0265 C   0  0  0  0  0  0
  -25.1689  -14.0129   20.6115 C   0  0  0  0  0  0
  -24.0701  -13.2891   21.1234 C   0  0  0  0  0  0
  -24.3914  -11.9359   21.0775 C   0  0  0  0  0  0
  -23.7449  -10.5852   21.1516 C   0  0  0  0  0  0
  -24.2389   -9.5538   21.9955 C   0  0  0  0  0  0
  -23.5958   -8.2992   22.0914 C   0  0  0  0  0  0
  -22.4195   -8.0556   21.3476 C   0  0  0  0  0  0
  -21.9731   -9.0437   20.4490 C   0  0  0  0  0  0
  -22.6367  -10.2812   20.3370 C   0  0  0  0  0  0
  -21.6969   -6.0825   22.5207 C   0  0  0  0  0  0
  -21.4060   -6.5723   23.8133 C   0  0  0  0  0  0
  -21.3638   -5.6879   24.9112 C   0  0  0  0  0  0
  -21.6026   -4.3137   24.7202 C   0  0  0  0  0  0
  -21.8823   -3.8219   23.4332 C   0  0  0  0  0  0
  -21.9240   -4.7032   22.3377 C   0  0  0  0  0  0
  -22.6707  -13.7247   21.3067 C   0  0  0  0  0  0
  -22.1716   -4.2182   21.0972 F   0  0  0  0  0  0
  -21.5591   -3.4627   25.7720 F   0  0  0  0  0  0
  -30.3336  -13.4840   20.2811 N   0  0  0  0  0  0
  -26.1936  -13.0751   20.3099 N   0  0  0  0  0  0
  -25.0657  -12.2328   20.0779 N   0  0  0  0  0  0
  -21.9178  -12.9766   22.1074 N   0  0  0  0  0  0
  -25.2616  -15.3512   20.2813 N   0  0  0  0  0  0
  -30.7271  -15.4961   19.8340 O   0  0  0  0  0  0
  -21.6889   -6.8919   21.4086 O   0  0  0  0  0  0
  -22.2348  -14.7061   20.7181 O   0  0  0  0  0  0
  -24.6401  -31.8465   23.1913 C   0  0  0  0  0  0
  -25.9206  -32.4689   23.8259 C   0  0  1  0  0  0
  -27.1179  -27.0972   20.2307 C   0  0  0  0  0  0
  -25.5982  -33.8495   24.2180 N   0  0  0  0  0  0
  -23.4368  -30.4745   21.5357 C   0  0  2  0  0  0
  -24.8739  -28.9047   20.1055 C   0  0  0  0  0  0
  -22.7535  -29.4578   22.4838 C   0  0  0  0  0  0
  -18.0303  -28.1403   22.8469 C   0  0  0  0  0  0
  -24.1499  -36.7237   23.2633 C   0  0  0  0  0  0
  -25.9919  -30.7183   21.3909 C   0  0  0  0  0  0
  -26.0507  -29.3268   20.7399 C   0  0  0  0  0  0
  -27.1866  -28.4370   20.7841 C   0  0  0  0  0  0
  -25.9456  -26.7897   19.5200 C   0  0  0  0  0  0
  -24.8378  -27.6550   19.4698 C   0  0  0  0  0  0
  -23.6597  -29.8163   20.1483 C   0  0  0  0  0  0
  -25.4136  -36.3013   24.0297 C   0  0  1  0  0  0
  -20.5909  -28.3725   23.1233 C   0  0  2  0  0  0
  -20.6799  -26.9434   22.5403 C   0  0  0  0  0  0
  -19.5778  -26.6394   21.5209 C   0  0  0  0  0  0
  -18.1953  -26.7944   22.1616 C   0  0  0  0  0  0
  -19.1556  -28.8883   23.2843 C   0  0  0  0  0  0
  -18.9484  -30.1481   23.8865 C   0  0  0  0  0  0
  -17.6485  -30.6598   24.0562 C   0  0  0  0  0  0
  -25.9090  -34.9396   23.5040 C   0  0  0  0  0  0
  -16.5371  -29.9091   23.6344 C   0  0  0  0  0  0
  -16.7293  -28.6514   23.0348 C   0  0  0  0  0  0
  -26.4556  -31.6545   25.0689 C   0  0  0  0  0  0
  -25.3741  -31.3755   26.1381 C   0  0  0  0  0  0
  -27.0425  -30.2936   24.6275 C   0  0  0  0  0  0
  -27.6084  -32.4298   25.7497 C   0  0  0  0  0  0
  -27.5574  -37.1775   24.8468 C   0  0  0  0  0  0
  -21.4236  -29.3044   22.3587 N   0  0  0  0  0  0
  -26.4290  -37.3734   23.9405 N   0  0  0  0  0  0
  -24.7092  -31.0348   22.0940 N   0  0  0  0  0  0
  -23.4197  -28.8121   23.2972 O   0  0  0  0  0  0
  -28.0657  -26.0317   20.3538 O   0  0  0  0  0  0
  -26.5665  -34.8892   22.4614 O   0  0  0  0  0  0
  -23.5536  -32.1337   23.7169 O   0  0  0  0  0  0
  -27.2899  -15.8553   22.2116 C   0  0  0  0  0  0
  -26.8068  -11.9396   18.3882 C   0  0  0  0  0  0
  -26.9301  -10.8110   20.4161 C   0  0  0  0  0  0
  -27.3806  -14.0309   18.4609 C   0  0  0  0  0  0
  -27.8018  -14.3400   21.6162 C   0  0  1  0  0  0
  -27.3018  -12.2162   22.1227 C   0  0  1  0  0  0
  -28.1348  -11.1228   25.1476 C   0  0  0  0  0  0
  -25.6677  -10.6617   25.3618 C   0  0  0  0  0  0
  -27.6955  -17.2926   21.4494 C   0  0  0  0  0  0
  -26.4808  -12.1251   23.4440 C   0  0  0  0  0  0
  -27.3382  -18.8997   21.8645 C   0  0  0  0  0  0
  -27.7621  -20.2744   20.9521 C   0  0  0  0  0  0
  -27.8612  -23.0638   20.4886 C   0  0  0  0  0  0
  -27.6353  -24.6660   21.0008 C   0  0  0  0  0  0
  -26.8155  -10.9246   24.3731 C   0  0  0  0  0  0
  -28.2869  -14.7928   19.9594 N   0  0  0  0  0  0
  -27.4933  -21.7866   21.3806 N   0  3  0  0  0  0
  -26.6310  -15.9305   23.2527 O   0  0  0  0  0  0
  -31.8564  -13.4457   18.8031 H   0  0  0  0  0  0
  -31.7629  -12.0066   19.7480 H   0  0  0  0  0  0
  -30.8606  -11.3699   17.5942 H   0  0  0  0  0  0
  -29.9294  -12.8446   17.4203 H   0  0  0  0  0  0
  -29.6773  -10.6891   19.5618 H   0  0  0  0  0  0
  -28.6881  -10.6502   18.4324 H   0  0  0  0  0  0
  -28.7176  -12.7303   19.1646 H   0  0  0  0  0  0
  -30.1349  -11.6472   21.1940 H   0  0  0  0  0  0
  -29.6560  -12.8957   22.0622 H   0  0  0  0  0  0
  -25.1150   -9.7337   22.5938 H   0  0  0  0  0  0
  -23.9961   -7.5515   22.7591 H   0  0  0  0  0  0
  -21.0978   -8.8529   19.8443 H   0  0  0  0  0  0
  -22.2625  -11.0278   19.6506 H   0  0  0  0  0  0
  -21.2063   -7.6238   23.9638 H   0  0  0  0  0  0
  -21.1409   -6.0642   25.9001 H   0  0  0  0  0  0
  -22.0605   -2.7681   23.2844 H   0  0  0  0  0  0
  -22.2880  -12.1618   22.5743 H   0  0  0  0  0  0
  -20.9499  -13.2244   22.2561 H   0  0  0  0  0  0
  -24.4188  -15.9141   20.2528 H   0  0  0  0  0  0
  -25.9548  -15.6342   19.6009 H   0  0  0  0  0  0
  -26.7247  -32.5285   23.0955 H   0  0  0  0  0  0
  -25.0135  -33.9618   25.0329 H   0  0  0  0  0  0
  -22.7374  -31.2997   21.3912 H   0  0  0  0  0  0
  -23.3765  -35.9564   23.3288 H   0  0  0  0  0  0
  -24.3569  -36.8886   22.2050 H   0  0  0  0  0  0
  -23.7257  -37.6428   23.6684 H   0  0  0  0  0  0
  -26.1455  -31.4695   20.6158 H   0  0  0  0  0  0
  -26.8645  -30.7655   22.0304 H   0  0  0  0  0  0
  -28.0745  -28.7373   21.3233 H   0  0  0  0  0  0
  -25.8484  -25.8213   19.0493 H   0  0  0  0  0  0
  -23.9388  -27.3315   18.9621 H   0  0  0  0  0  0
  -23.8040  -30.5960   19.4001 H   0  0  0  0  0  0
  -22.7690  -29.2714   19.8316 H   0  0  0  0  0  0
  -25.1329  -36.1822   25.0787 H   0  0  0  0  0  0
  -21.0004  -28.3333   24.1352 H   0  0  0  0  0  0
  -20.5717  -26.2343   23.3618 H   0  0  0  0  0  0
  -21.6665  -26.7474   22.1185 H   0  0  0  0  0  0
  -19.6946  -25.6302   21.1246 H   0  0  0  0  0  0
  -19.6708  -27.3195   20.6731 H   0  0  0  0  0  0
  -17.4221  -26.6672   21.4019 H   0  0  0  0  0  0
  -18.0361  -26.0093   22.9025 H   0  0  0  0  0  0
  -19.7962  -30.7306   24.2202 H   0  0  0  0  0  0
  -17.5043  -31.6273   24.5178 H   0  0  0  0  0  0
  -15.5368  -30.2988   23.7697 H   0  0  0  0  0  0
  -15.8690  -28.0840   22.7067 H   0  0  0  0  0  0
  -24.5940  -30.7071   25.7720 H   0  0  0  0  0  0
  -24.8912  -32.2957   26.4685 H   0  0  0  0  0  0
  -25.8021  -30.9023   27.0227 H   0  0  0  0  0  0
  -26.3056  -29.6648   24.1271 H   0  0  0  0  0  0
  -27.4030  -29.7240   25.4853 H   0  0  0  0  0  0
  -27.8966  -30.4166   23.9604 H   0  0  0  0  0  0
  -27.2678  -33.3619   26.2020 H   0  0  0  0  0  0
  -28.3958  -32.6815   25.0376 H   0  0  0  0  0  0
  -28.0681  -31.8443   26.5474 H   0  0  0  0  0  0
  -28.2588  -38.0076   24.7506 H   0  0  0  0  0  0
  -28.1071  -36.2600   24.6313 H   0  0  0  0  0  0
  -27.2275  -37.1441   25.8867 H   0  0  0  0  0  0
  -20.9416  -29.8735   21.6761 H   0  0  0  0  0  0
  -26.0141  -38.2789   24.1433 H   0  0  0  0  0  0
  -25.8078  -11.8955   17.9445 H   0  0  0  0  0  0
  -27.2166  -11.4561   17.5000 H   0  0  0  0  0  0
  -27.7382  -10.0775   20.4337 H   0  0  0  0  0  0
  -26.1437  -10.0797   20.5346 H   0  0  0  0  0  0
  -26.5261  -14.6485   18.1881 H   0  0  0  0  0  0
  -28.0423  -14.2063   17.6113 H   0  0  0  0  0  0
  -28.6629  -14.4980   22.2582 H   0  0  0  0  0  0
  -28.1481  -11.7134   22.5732 H   0  0  0  0  0  0
  -28.3211  -10.2910   25.8276 H   0  0  0  0  0  0
  -28.1117  -12.0345   25.7464 H   0  0  0  0  0  0
  -29.0016  -11.1818   24.4900 H   0  0  0  0  0  0
  -25.9050   -9.8354   26.0322 H   0  0  0  0  0  0
  -24.7428  -10.4022   24.8488 H   0  0  0  0  0  0
  -25.4668  -11.5382   25.9807 H   0  0  0  0  0  0
  -27.3293  -17.1677   20.4319 H   0  0  0  0  0  0
  -28.7800  -17.2478   21.3510 H   0  0  0  0  0  0
  -25.4123  -12.1671   23.2787 H   0  0  0  0  0  0
  -26.6807  -13.0383   24.0038 H   0  0  0  0  0  0
  -27.7510  -19.0440   22.8646 H   0  0  0  0  0  0
  -26.2592  -18.9458   22.0121 H   0  0  0  0  0  0
  -27.3011  -20.1586   19.9702 H   0  0  0  0  0  0
  -28.8351  -20.2125   20.7657 H   0  0  0  0  0  0
  -28.9104  -22.9536   20.2163 H   0  0  0  0  0  0
  -27.3129  -22.9508   19.5523 H   0  0  0  0  0  0
  -28.1342  -24.7062   21.9691 H   0  0  0  0  0  0
  -26.5804  -24.7588   21.2589 H   0  0  0  0  0  0
  -26.9301  -10.0279   23.7646 H   0  0  0  0  0  0
  -27.9642  -21.9114   22.2633 H   0  0  0  0  0  0
  -26.5077  -21.8523   21.5838 H   0  0  0  0  0  0
  1 25  1  0  0  0
  1 30  2  0  0  0
  1 86  1  0  0  0
  2  3  1  0  0  0
  2 25  1  0  0  0
  2 89  1  0  0  0
  2 90  1  0  0  0
  3  4  1  0  0  0
  3 91  1  0  0  0
  3 92  1  0  0  0
  4  5  1  0  0  0
  4 93  1  0  0  0
  4 94  1  0  0  0
  5  6  1  0  0  0
  5 26  1  0  0  0
  5 95  1  0  0  0
  6 25  1  0  0  0
  6 96  1  0  0  0
  6 97  1  0  0  0
  7  8  2  0  0  0
  7 26  1  0  0  0
  7 29  1  0  0  0
  8  9  1  0  0  0
  8 22  1  0  0  0
  9 10  1  0  0  0
  9 27  2  0  0  0
 10 11  2  0  0  0
 10 15  1  0  0  0
 11 12  1  0  0  0
 11 98  1  0  0  0
 12 13  2  0  0  0
 12 99  1  0  0  0
 13 14  1  0  0  0
 13 31  1  0  0  0
 14 15  2  0  0  0
 14100  1  0  0  0
 15101  1  0  0  0
 16 17  2  0  0  0
 16 21  1  0  0  0
 16 31  1  0  0  0
 17 18  1  0  0  0
 17102  1  0  0  0
 18 19  2  0  0  0
 18103  1  0  0  0
 19 20  1  0  0  0
 19 24  1  0  0  0
 20 21  2  0  0  0
 20104  1  0  0  0
 21 23  1  0  0  0
 22 28  1  0  0  0
 22 32  2  0  0  0
 26 27  1  0  0  0
 28105  1  0  0  0
 28106  1  0  0  0
 29107  1  0  0  0
 29108  1  0  0  0
 33 34  1  0  0  0
 33 66  1  0  0  0
 33 70  2  0  0  0
 34 36  1  0  0  0
 34 59  1  0  0  0
 34109  1  0  0  0
 35 44  2  0  0  0
 35 45  1  0  0  0
 35 68  1  0  0  0
 36 56  1  0  0  0
 36110  1  0  0  0
 37 39  1  0  0  0
 37 47  1  0  0  0
 37 66  1  0  0  0
 37111  1  0  0  0
 38 43  2  0  0  0
 38 46  1  0  0  0
 38 47  1  0  0  0
 39 64  1  0  0  0
 39 67  2  0  0  0
 40 52  1  0  0  0
 40 53  2  0  0  0
 40 58  1  0  0  0
 41112  1  0  0  0
 41113  1  0  0  0
 41114  1  0  0  0
 41 48  1  0  0  0
 42 43  1  0  0  0
 42 66  1  0  0  0
 42115  1  0  0  0
 42116  1  0  0  0
 43 44  1  0  0  0
 44117  1  0  0  0
 45 46  2  0  0  0
 45118  1  0  0  0
 46119  1  0  0  0
 47120  1  0  0  0
 47121  1  0  0  0
 48 56  1  0  0  0
 48 65  1  0  0  0
 48122  1  0  0  0
 49 50  1  0  0  0
 49 53  1  0  0  0
 49 64  1  0  0  0
 49123  1  0  0  0
 50 51  1  0  0  0
 50124  1  0  0  0
 50125  1  0  0  0
 51 52  1  0  0  0
 51126  1  0  0  0
 51127  1  0  0  0
 52128  1  0  0  0
 52129  1  0  0  0
 53 54  1  0  0  0
 54 55  2  0  0  0
 54130  1  0  0  0
 55 57  1  0  0  0
 55131  1  0  0  0
 56 69  2  0  0  0
 57 58  2  0  0  0
 57132  1  0  0  0
 58133  1  0  0  0
 59 60  1  0  0  0
 59 61  1  0  0  0
 59 62  1  0  0  0
 60134  1  0  0  0
 60135  1  0  0  0
 60136  1  0  0  0
 61137  1  0  0  0
 61138  1  0  0  0
 61139  1  0  0  0
 62140  1  0  0  0
 62141  1  0  0  0
 62142  1  0  0  0
 63 65  1  0  0  0
 63143  1  0  0  0
 63144  1  0  0  0
 63145  1  0  0  0
 64146  1  0  0  0
 65147  1  0  0  0
 68 84  1  0  0  0
 71 79  1  0  0  0
 71 88  2  0  0  0
 71 75  1  0  0  0
 72 73  1  0  0  0
 72 74  1  0  0  0
 72148  1  0  0  0
 72149  1  0  0  0
 73 76  1  0  0  0
 73150  1  0  0  0
 73151  1  0  0  0
 74 86  1  0  0  0
 74152  1  0  0  0
 74153  1  0  0  0
 75 76  1  0  0  0
 75 86  1  0  0  0
 75154  1  0  0  0
 76 80  1  0  0  0
 76155  1  0  0  0
 77156  1  0  0  0
 77157  1  0  0  0
 77158  1  0  0  0
 77 85  1  0  0  0
 78 85  1  0  0  0
 78159  1  0  0  0
 78160  1  0  0  0
 78161  1  0  0  0
 79 81  1  0  0  0
 79162  1  0  0  0
 79163  1  0  0  0
 80 85  1  0  0  0
 80164  1  0  0  0
 80165  1  0  0  0
 81 82  1  0  0  0
 81166  1  0  0  0
 81167  1  0  0  0
 82 87  1  0  0  0
 82168  1  0  0  0
 82169  1  0  0  0
 83 84  1  0  0  0
 83 87  1  0  0  0
 83170  1  0  0  0
 83171  1  0  0  0
 84172  1  0  0  0
 84173  1  0  0  0
 85174  1  0  0  0
 87175  1  0  0  0
 87176  1  0  0  0
M  CHG  1  87   1
M  ISO  4   1 100  68 101  84 101  86 100
M  END
> <chiral flag>
0

> <version>
0

> <s_m_source_file>
/data/baiqing/PycharmProjects/Reinvent-master-3.2/result/LINK_invent/BTK/process_docking_weight1_custom_sum_contain_oxygen_bond_distance_aromatic_linkinvent_7_9_3/rearranged_h_0121.sdf

> <i_m_source_file_index>
78

> <r_mmod_Potential_Energy-OPLS-2005>
8626.9033203125

> <r_mmod_Stretch_Energy-OPLS-2005>
4116.990234375

> <r_mmod_Bend_Energy-OPLS-2005>
1069.40515136719

> <r_mmod_Torsional_Energy-OPLS-2005>
618.430725097656

> <r_mmod_Improper_Torsional_Energy-OPLS-2005>
27.4967918395996

> <r_mmod_Van_der_Waal_Energy-OPLS-2005>
2202.00830078125

> <r_mmod_Electrostatic_Energy-OPLS-2005>
-240.503875732422

> <r_mmod_Solvation_Energy-OPLS-2005>
-444.468566894531

> <b_mmod_Minimization_Converged-OPLS-2005>
0

> <r_mmod_RMS_Derivative-OPLS-2005>
4.17602825164795

$$$$
78
                    3D
 Structure written by MMmdl.
168176  0  0  1  0            999 V2000
  -30.6927  -14.4563   20.5432 C   0  0  0  0  0  0
  -30.4188  -12.2909   19.4116 C   0  0  0  0  0  0
  -29.4941  -12.5070   18.1975 C   0  0  0  0  0  0
  -28.0140  -12.3746   18.6065 C   0  0  0  0  0  0
  -27.6600  -13.2057   19.8698 C   0  0  2  0  0  0
  -28.7026  -12.9746   20.9864 C   0  0  0  0  0  0
  -25.2616  -13.8120   20.5720 C   0  0  0  0  0  0
  -24.1861  -13.0423   20.9219 C   0  0  0  0  0  0
  -24.6379  -11.6883   20.8735 C   0  0  0  0  0  0
  -23.9045  -10.4272   21.0401 C   0  0  0  0  0  0
  -24.3628   -9.4202   21.9177 C   0  0  0  0  0  0
  -23.6319   -8.2233   22.0727 C   0  0  0  0  0  0
  -22.4295   -8.0269   21.3530 C   0  0  0  0  0  0
  -21.9932   -9.0226   20.4633 C   0  0  0  0  0  0
  -22.7231  -10.2113   20.3040 C   0  0  0  0  0  0
  -21.6847   -6.0743   22.5266 C   0  0  0  0  0  0
  -21.4000   -6.5639   23.8201 C   0  0  0  0  0  0
  -21.3686   -5.6784   24.9171 C   0  0  0  0  0  0
  -21.6063   -4.3038   24.7225 C   0  0  0  0  0  0
  -21.8836   -3.8147   23.4331 C   0  0  0  0  0  0
  -21.9205   -4.6970   22.3394 C   0  0  0  0  0  0
  -22.7899  -13.5244   21.1883 C   0  0  0  0  0  0
  -22.1675   -4.2174   21.0965 F   0  0  0  0  0  0
  -21.5645   -3.4514   25.7729 F   0  0  0  0  0  0
  -30.0345  -13.2731   20.4344 N   0  0  0  0  0  0
  -26.3019  -12.9285   20.3315 N   0  0  0  0  0  0
  -25.9297  -11.6451   20.5714 N   0  0  0  0  0  0
  -22.0516  -12.8233   22.0423 N   0  0  0  0  0  0
  -25.4360  -15.1824   20.4162 N   0  0  0  0  0  0
  -31.8264  -14.6485   20.0933 O   0  0  0  0  0  0
  -21.6648   -6.8864   21.4219 O   0  0  0  0  0  0
  -22.3590  -14.5539   20.6695 O   0  0  0  0  0  0
  -24.6154  -31.8693   23.2100 C   0  0  0  0  0  0
  -25.9052  -32.4825   23.8400 C   0  0  1  0  0  0
  -27.2345  -27.4354   20.0901 C   0  0  0  0  0  0
  -25.5901  -33.8617   24.2324 N   0  0  0  0  0  0
  -23.4016  -30.4945   21.5507 C   0  0  2  0  0  0
  -24.8454  -28.9583   20.1173 C   0  0  0  0  0  0
  -22.7393  -29.4695   22.4978 C   0  0  0  0  0  0
  -18.0268  -28.1414   22.8491 C   0  0  0  0  0  0
  -24.1488  -36.7329   23.2637 C   0  0  0  0  0  0
  -25.9300  -30.8337   21.3632 C   0  0  0  0  0  0
  -26.0046  -29.4656   20.7145 C   0  0  0  0  0  0
  -27.1984  -28.7083   20.7040 C   0  0  0  0  0  0
  -26.0460  -26.9338   19.5060 C   0  0  0  0  0  0
  -24.8583  -27.6885   19.5181 C   0  0  0  0  0  0
  -23.6099  -29.8277   20.1649 C   0  0  0  0  0  0
  -25.4103  -36.3101   24.0334 C   0  0  1  0  0  0
  -20.5856  -28.3702   23.1314 C   0  0  2  0  0  0
  -20.6767  -26.9445   22.5423 C   0  0  0  0  0  0
  -19.5742  -26.6414   21.5225 C   0  0  0  0  0  0
  -18.1915  -26.7966   22.1621 C   0  0  0  0  0  0
  -19.1521  -28.8865   23.2914 C   0  0  0  0  0  0
  -18.9451  -30.1465   23.8931 C   0  0  0  0  0  0
  -17.6456  -30.6609   24.0581 C   0  0  0  0  0  0
  -25.9048  -34.9475   23.5128 C   0  0  0  0  0  0
  -16.5341  -29.9121   23.6320 C   0  0  0  0  0  0
  -16.7259  -28.6544   23.0329 C   0  0  0  0  0  0
  -26.4472  -31.6595   25.0725 C   0  0  0  0  0  0
  -25.3726  -31.3710   26.1464 C   0  0  0  0  0  0
  -27.0287  -30.3023   24.6117 C   0  0  0  0  0  0
  -27.6060  -32.4303   25.7485 C   0  0  0  0  0  0
  -27.5580  -37.1824   24.8460 C   0  0  0  0  0  0
  -21.4125  -29.3061   22.3701 N   0  0  0  0  0  0
  -26.4287  -37.3787   23.9413 N   0  0  0  0  0  0
  -24.6671  -31.0796   22.1009 N   0  0  0  0  0  0
  -23.4168  -28.8246   23.3032 O   0  0  0  0  0  0
  -28.4260  -26.7341   20.0894 O   0  0  0  0  0  0
  -26.5608  -34.8927   22.4694 O   0  0  0  0  0  0
  -23.5359  -32.1464   23.7513 O   0  0  0  0  0  0
  -26.8183  -19.0323   18.5527 C   0  0  0  0  0  0
  -27.4558  -20.1839   18.0664 C   0  0  0  0  0  0
  -27.4002  -18.3086   19.6077 C   0  0  0  0  0  0
  -28.6623  -20.6162   18.6456 C   0  0  0  0  0  0
  -28.6122  -18.7226   20.2022 C   0  0  0  0  0  0
  -29.2447  -19.9145   19.7348 C   0  0  0  0  0  0
  -30.9157  -26.0469   18.8313 C   0  0  0  0  0  0
  -29.1762  -17.8467   21.3268 C   0  0  0  0  0  0
  -30.5430  -20.4318   20.3708 C   0  0  0  0  0  0
  -30.4034  -24.3068   20.6379 C   0  0  0  0  0  0
  -30.3093  -16.8929   20.8747 C   0  0  0  0  0  0
  -29.9648  -22.8327   20.8370 C   0  0  0  0  0  0
  -28.4937  -25.5017   19.3617 C   0  0  0  0  0  0
  -29.9416  -24.9553   19.3094 C   0  0  1  0  0  0
  -29.9511  -15.4743   21.0050 N   0  0  0  0  0  0
  -30.8384  -21.8650   20.1260 N   0  3  0  0  0  0
  -31.4634  -12.3866   19.1139 H   0  0  0  0  0  0
  -30.3106  -11.2767   19.8031 H   0  0  0  0  0  0
  -29.7322  -11.7891   17.4112 H   0  0  0  0  0  0
  -29.6724  -13.4975   17.7710 H   0  0  0  0  0  0
  -27.8134  -11.3173   18.7875 H   0  0  0  0  0  0
  -27.3733  -12.6638   17.7722 H   0  0  0  0  0  0
  -27.7027  -14.2576   19.5818 H   0  0  0  0  0  0
  -28.6752  -11.9373   21.3221 H   0  0  0  0  0  0
  -28.4743  -13.5721   21.8702 H   0  0  0  0  0  0
  -25.2765   -9.5708   22.4759 H   0  0  0  0  0  0
  -24.0070   -7.4624   22.7424 H   0  0  0  0  0  0
  -21.0865   -8.8717   19.8932 H   0  0  0  0  0  0
  -22.3665  -10.9668   19.6161 H   0  0  0  0  0  0
  -21.1929   -7.6136   23.9725 H   0  0  0  0  0  0
  -21.1517   -6.0488   25.9080 H   0  0  0  0  0  0
  -22.0593   -2.7612   23.2802 H   0  0  0  0  0  0
  -22.4116  -11.9889   22.4816 H   0  0  0  0  0  0
  -21.1117  -13.1219   22.2570 H   0  0  0  0  0  0
  -24.6643  -15.8345   20.4923 H   0  0  0  0  0  0
  -26.2747  -15.5992   20.0354 H   0  0  0  0  0  0
  -26.7122  -32.5527   23.1170 H   0  0  0  0  0  0
  -25.0000  -33.9772   25.0432 H   0  0  0  0  0  0
  -22.6924  -31.3126   21.4125 H   0  0  0  0  0  0
  -23.3734  -35.9679   23.3298 H   0  0  0  0  0  0
  -24.3597  -36.8950   22.2056 H   0  0  0  0  0  0
  -23.7269  -37.6544   23.6663 H   0  0  0  0  0  0
  -26.0368  -31.5976   20.5911 H   0  0  0  0  0  0
  -26.8199  -30.8920   21.9776 H   0  0  0  0  0  0
  -28.0934  -29.1005   21.1667 H   0  0  0  0  0  0
  -26.0066  -25.9586   19.0442 H   0  0  0  0  0  0
  -23.9610  -27.2855   19.0701 H   0  0  0  0  0  0
  -23.7242  -30.6045   19.4071 H   0  0  0  0  0  0
  -22.7316  -29.2506   19.8664 H   0  0  0  0  0  0
  -25.1286  -36.1963   25.0827 H   0  0  0  0  0  0
  -20.9958  -28.3295   24.1429 H   0  0  0  0  0  0
  -20.5686  -26.2325   23.3624 H   0  0  0  0  0  0
  -21.6641  -26.7503   22.1206 H   0  0  0  0  0  0
  -19.6910  -25.6323   21.1249 H   0  0  0  0  0  0
  -19.6686  -27.3225   20.6756 H   0  0  0  0  0  0
  -17.4205  -26.6731   21.4008 H   0  0  0  0  0  0
  -18.0302  -26.0101   22.9003 H   0  0  0  0  0  0
  -19.7932  -30.7287   24.2313 H   0  0  0  0  0  0
  -17.5013  -31.6292   24.5193 H   0  0  0  0  0  0
  -15.5342  -30.3046   23.7639 H   0  0  0  0  0  0
  -15.8655  -28.0886   22.7018 H   0  0  0  0  0  0
  -24.5927  -30.7025   25.7803 H   0  0  0  0  0  0
  -24.8889  -32.2869   26.4876 H   0  0  0  0  0  0
  -25.8071  -30.8916   27.0247 H   0  0  0  0  0  0
  -26.2833  -29.6804   24.1154 H   0  0  0  0  0  0
  -27.4006  -29.7244   25.4592 H   0  0  0  0  0  0
  -27.8692  -30.4301   23.9289 H   0  0  0  0  0  0
  -27.2671  -33.3563   26.2143 H   0  0  0  0  0  0
  -28.3829  -32.6933   25.0289 H   0  0  0  0  0  0
  -28.0787  -31.8391   26.5341 H   0  0  0  0  0  0
  -28.2602  -38.0114   24.7487 H   0  0  0  0  0  0
  -28.1068  -36.2655   24.6287 H   0  0  0  0  0  0
  -27.2320  -37.1479   25.8867 H   0  0  0  0  0  0
  -20.9296  -29.8748   21.6886 H   0  0  0  0  0  0
  -26.0173  -38.2865   24.1409 H   0  0  0  0  0  0
  -25.8903  -18.6964   18.1102 H   0  0  0  0  0  0
  -27.0229  -20.7330   17.2431 H   0  0  0  0  0  0
  -26.9019  -17.4228   19.9675 H   0  0  0  0  0  0
  -29.1180  -21.5049   18.2326 H   0  0  0  0  0  0
  -31.8928  -25.6314   18.5852 H   0  0  0  0  0  0
  -31.0661  -26.8084   19.5975 H   0  0  0  0  0  0
  -30.5384  -26.5456   17.9381 H   0  0  0  0  0  0
  -28.3572  -17.2774   21.7701 H   0  0  0  0  0  0
  -29.5253  -18.4734   22.1460 H   0  0  0  0  0  0
  -31.3700  -19.8301   19.9939 H   0  0  0  0  0  0
  -30.5147  -20.2809   21.4513 H   0  0  0  0  0  0
  -31.4898  -24.3581   20.7267 H   0  0  0  0  0  0
  -30.0243  -24.9089   21.4650 H   0  0  0  0  0  0
  -31.1991  -17.0774   21.4784 H   0  0  0  0  0  0
  -30.5913  -17.1066   19.8419 H   0  0  0  0  0  0
  -28.9232  -22.7044   20.5366 H   0  0  0  0  0  0
  -30.0039  -22.6016   21.9020 H   0  0  0  0  0  0
  -27.8310  -24.7578   19.8087 H   0  0  0  0  0  0
  -28.1519  -25.6660   18.3376 H   0  0  0  0  0  0
  -29.9585  -24.1826   18.5397 H   0  0  0  0  0  0
  -29.0248  -15.2481   21.3334 H   0  0  0  0  0  0
  -30.8164  -22.0244   19.1323 H   0  0  0  0  0  0
  -31.7888  -22.0150   20.4269 H   0  0  0  0  0  0
  1 25  1  0  0  0
  1 30  2  0  0  0
  1 85  1  0  0  0
  2  3  1  0  0  0
  2 25  1  0  0  0
  2 87  1  0  0  0
  2 88  1  0  0  0
  3  4  1  0  0  0
  3 89  1  0  0  0
  3 90  1  0  0  0
  4  5  1  0  0  0
  4 91  1  0  0  0
  4 92  1  0  0  0
  5  6  1  0  0  0
  5 26  1  0  0  0
  5 93  1  0  0  0
  6 25  1  0  0  0
  6 94  1  0  0  0
  6 95  1  0  0  0
  7  8  2  0  0  0
  7 26  1  0  0  0
  7 29  1  0  0  0
  8  9  1  0  0  0
  8 22  1  0  0  0
  9 10  1  0  0  0
  9 27  2  0  0  0
 10 11  2  0  0  0
 10 15  1  0  0  0
 11 12  1  0  0  0
 11 96  1  0  0  0
 12 13  2  0  0  0
 12 97  1  0  0  0
 13 14  1  0  0  0
 13 31  1  0  0  0
 14 15  2  0  0  0
 14 98  1  0  0  0
 15 99  1  0  0  0
 16 17  2  0  0  0
 16 21  1  0  0  0
 16 31  1  0  0  0
 17 18  1  0  0  0
 17100  1  0  0  0
 18 19  2  0  0  0
 18101  1  0  0  0
 19 20  1  0  0  0
 19 24  1  0  0  0
 20 21  2  0  0  0
 20102  1  0  0  0
 21 23  1  0  0  0
 22 28  1  0  0  0
 22 32  2  0  0  0
 26 27  1  0  0  0
 28103  1  0  0  0
 28104  1  0  0  0
 29105  1  0  0  0
 29106  1  0  0  0
 33 34  1  0  0  0
 33 66  1  0  0  0
 33 70  2  0  0  0
 34 36  1  0  0  0
 34 59  1  0  0  0
 34107  1  0  0  0
 35 44  2  0  0  0
 35 45  1  0  0  0
 35 68  1  0  0  0
 36 56  1  0  0  0
 36108  1  0  0  0
 37 39  1  0  0  0
 37 47  1  0  0  0
 37 66  1  0  0  0
 37109  1  0  0  0
 38 43  2  0  0  0
 38 46  1  0  0  0
 38 47  1  0  0  0
 39 64  1  0  0  0
 39 67  2  0  0  0
 40 52  1  0  0  0
 40 53  2  0  0  0
 40 58  1  0  0  0
 41110  1  0  0  0
 41111  1  0  0  0
 41112  1  0  0  0
 41 48  1  0  0  0
 42 43  1  0  0  0
 42 66  1  0  0  0
 42113  1  0  0  0
 42114  1  0  0  0
 43 44  1  0  0  0
 44115  1  0  0  0
 45 46  2  0  0  0
 45116  1  0  0  0
 46117  1  0  0  0
 47118  1  0  0  0
 47119  1  0  0  0
 48 56  1  0  0  0
 48 65  1  0  0  0
 48120  1  0  0  0
 49 50  1  0  0  0
 49 53  1  0  0  0
 49 64  1  0  0  0
 49121  1  0  0  0
 50 51  1  0  0  0
 50122  1  0  0  0
 50123  1  0  0  0
 51 52  1  0  0  0
 51124  1  0  0  0
 51125  1  0  0  0
 52126  1  0  0  0
 52127  1  0  0  0
 53 54  1  0  0  0
 54 55  2  0  0  0
 54128  1  0  0  0
 55 57  1  0  0  0
 55129  1  0  0  0
 56 69  2  0  0  0
 57 58  2  0  0  0
 57130  1  0  0  0
 58131  1  0  0  0
 59 60  1  0  0  0
 59 61  1  0  0  0
 59 62  1  0  0  0
 60132  1  0  0  0
 60133  1  0  0  0
 60134  1  0  0  0
 61135  1  0  0  0
 61136  1  0  0  0
 61137  1  0  0  0
 62138  1  0  0  0
 62139  1  0  0  0
 62140  1  0  0  0
 63 65  1  0  0  0
 63141  1  0  0  0
 63142  1  0  0  0
 63143  1  0  0  0
 64144  1  0  0  0
 65145  1  0  0  0
 68 83  1  0  0  0
 71 72  2  0  0  0
 71 73  1  0  0  0
 71146  1  0  0  0
 72 74  1  0  0  0
 72147  1  0  0  0
 73 75  2  0  0  0
 73148  1  0  0  0
 74 76  2  0  0  0
 74149  1  0  0  0
 75 76  1  0  0  0
 75 78  1  0  0  0
 76 79  1  0  0  0
 77150  1  0  0  0
 77151  1  0  0  0
 77152  1  0  0  0
 77 84  1  0  0  0
 78 81  1  0  0  0
 78153  1  0  0  0
 78154  1  0  0  0
 79 86  1  0  0  0
 79155  1  0  0  0
 79156  1  0  0  0
 80 82  1  0  0  0
 80 84  1  0  0  0
 80157  1  0  0  0
 80158  1  0  0  0
 81 85  1  0  0  0
 81159  1  0  0  0
 81160  1  0  0  0
 82 86  1  0  0  0
 82161  1  0  0  0
 82162  1  0  0  0
 83 84  1  0  0  0
 83163  1  0  0  0
 83164  1  0  0  0
 84165  1  0  0  0
 85166  1  0  0  0
 86167  1  0  0  0
 86168  1  0  0  0
M  CHG  1  86   1
M  ISO  4   1 100  68 101  83 101  85 100
M  END
> <chiral flag>
0

> <version>
0

> <s_m_source_file>
/data/baiqing/PycharmProjects/Reinvent-master-3.2/result/LINK_invent/BTK/process_docking_weight1_custom_sum_contain_oxygen_bond_distance_aromatic_linkinvent_7_9_3/rearranged_h_0121.sdf

> <i_m_source_file_index>
79

> <r_mmod_Potential_Energy-OPLS-2005>
-230.797088623047

> <r_mmod_Stretch_Energy-OPLS-2005>
37.4260597229004

> <r_mmod_Bend_Energy-OPLS-2005>
97.008186340332

> <r_mmod_Torsional_Energy-OPLS-2005>
232.4912109375

> <r_mmod_Improper_Torsional_Energy-OPLS-2005>
4.77582406997681

> <r_mmod_Van_der_Waal_Energy-OPLS-2005>
152.095550537109

> <r_mmod_Electrostatic_Energy-OPLS-2005>
-300.917907714844

> <r_mmod_Solvation_Energy-OPLS-2005>
-465.821899414062

> <b_mmod_Minimization_Converged-OPLS-2005>
0

> <r_mmod_RMS_Derivative-OPLS-2005>
3.81842350959778

$$$$
79
                    3D
 Structure written by MMmdl.
177185  0  0  1  0            999 V2000
  -30.7482  -14.3432   20.7121 C   0  0  0  0  0  0
  -30.4163  -12.2777   19.4082 C   0  0  0  0  0  0
  -29.4954  -12.5513   18.2048 C   0  0  0  0  0  0
  -28.0160  -12.3938   18.6004 C   0  0  0  0  0  0
  -27.6664  -13.1992   19.8793 C   0  0  2  0  0  0
  -28.6897  -12.9169   20.9993 C   0  0  0  0  0  0
  -25.2588  -13.8149   20.5640 C   0  0  0  0  0  0
  -24.1836  -13.0416   20.9155 C   0  0  0  0  0  0
  -24.6391  -11.6882   20.8711 C   0  0  0  0  0  0
  -23.9073  -10.4272   21.0399 C   0  0  0  0  0  0
  -24.3609   -9.4179   21.9184 C   0  0  0  0  0  0
  -23.6259   -8.2233   22.0762 C   0  0  0  0  0  0
  -22.4253   -8.0274   21.3549 C   0  0  0  0  0  0
  -21.9893   -9.0249   20.4652 C   0  0  0  0  0  0
  -22.7243  -10.2127   20.3054 C   0  0  0  0  0  0
  -21.6844   -6.0720   22.5274 C   0  0  0  0  0  0
  -21.4015   -6.5618   23.8214 C   0  0  0  0  0  0
  -21.3681   -5.6772   24.9184 C   0  0  0  0  0  0
  -21.6055   -4.3034   24.7221 C   0  0  0  0  0  0
  -21.8803   -3.8130   23.4337 C   0  0  0  0  0  0
  -21.9192   -4.6952   22.3405 C   0  0  0  0  0  0
  -22.7861  -13.5215   21.1834 C   0  0  0  0  0  0
  -22.1656   -4.2137   21.0977 F   0  0  0  0  0  0
  -21.5663   -3.4516   25.7739 F   0  0  0  0  0  0
  -30.0471  -13.2011   20.4886 N   0  0  0  0  0  0
  -26.3011  -12.9313   20.3294 N   0  0  0  0  0  0
  -25.9298  -11.6470   20.5671 N   0  0  0  0  0  0
  -22.0457  -12.8221   22.0375 N   0  0  0  0  0  0
  -25.4335  -15.1875   20.4110 N   0  0  0  0  0  0
  -31.7472  -14.6810   20.0695 O   0  0  0  0  0  0
  -21.6617   -6.8866   21.4238 O   0  0  0  0  0  0
  -22.3550  -14.5532   20.6722 O   0  0  0  0  0  0
  -24.6138  -31.8752   23.2215 C   0  0  0  0  0  0
  -25.9081  -32.4855   23.8463 C   0  0  1  0  0  0
  -27.2006  -27.4459   20.0714 C   0  0  0  0  0  0
  -25.5964  -33.8658   24.2378 N   0  0  0  0  0  0
  -23.3928  -30.5049   21.5695 C   0  0  2  0  0  0
  -24.8311  -28.9991   20.1117 C   0  0  0  0  0  0
  -22.7435  -29.4650   22.5085 C   0  0  0  0  0  0
  -18.0297  -28.1296   22.8488 C   0  0  0  0  0  0
  -24.1503  -36.7293   23.2614 C   0  0  0  0  0  0
  -25.9266  -30.8313   21.3883 C   0  0  0  0  0  0
  -25.9913  -29.4698   20.7405 C   0  0  0  0  0  0
  -27.1723  -28.6845   20.7484 C   0  0  0  0  0  0
  -26.0599  -27.0920   19.3146 C   0  0  0  0  0  0
  -24.8593  -27.7999   19.3970 C   0  0  0  0  0  0
  -23.5957  -29.8629   20.1759 C   0  0  0  0  0  0
  -25.4120  -36.3117   24.0331 C   0  0  1  0  0  0
  -20.5896  -28.3609   23.1336 C   0  0  2  0  0  0
  -20.6837  -26.9408   22.5298 C   0  0  0  0  0  0
  -19.5806  -26.6504   21.5084 C   0  0  0  0  0  0
  -18.1994  -26.7882   22.1574 C   0  0  0  0  0  0
  -19.1542  -28.8770   23.2954 C   0  0  0  0  0  0
  -18.9429  -30.1329   23.9038 C   0  0  0  0  0  0
  -17.6418  -30.6463   24.0596 C   0  0  0  0  0  0
  -25.9056  -34.9483   23.5129 C   0  0  0  0  0  0
  -16.5329  -29.8977   23.6277 C   0  0  0  0  0  0
  -16.7277  -28.6390   23.0322 C   0  0  0  0  0  0
  -26.4533  -31.6588   25.0740 C   0  0  0  0  0  0
  -25.3799  -31.3703   26.1461 C   0  0  0  0  0  0
  -27.0332  -30.3007   24.6128 C   0  0  0  0  0  0
  -27.6117  -32.4279   25.7498 C   0  0  0  0  0  0
  -27.5587  -37.1803   24.8474 C   0  0  0  0  0  0
  -21.4176  -29.2992   22.3771 N   0  0  0  0  0  0
  -26.4304  -37.3802   23.9422 N   0  0  0  0  0  0
  -24.6611  -31.0856   22.1161 N   0  0  0  0  0  0
  -23.4244  -28.8189   23.3083 O   0  0  0  0  0  0
  -28.3275  -26.6406   20.0906 O   0  0  0  0  0  0
  -26.5607  -34.8915   22.4666 O   0  0  0  0  0  0
  -23.5337  -32.1558   23.7572 O   0  0  0  0  0  0
  -25.0149  -21.2634   20.4190 C   0  0  0  0  0  0
  -26.0112  -20.1269   20.2186 C   0  0  0  0  0  0
  -27.9041  -21.8335   20.2512 C   0  0  0  0  0  0
  -25.4938  -22.5192   19.6648 C   0  0  2  0  0  0
  -26.8583  -22.9814   20.3185 C   0  0  2  0  0  0
  -27.4047  -20.4647   20.7735 C   0  0  2  0  0  0
  -23.1184  -23.0541   18.7220 C   0  0  0  0  0  0
  -23.8710  -24.1896   20.8421 C   0  0  0  0  0  0
  -28.0450  -24.1891   18.3188 C   0  0  0  0  0  0
  -29.4000  -17.2832   21.0218 C   0  0  0  0  0  0
  -30.4484  -16.5408   21.8671 C   0  0  0  0  0  0
  -29.2059  -18.7774   21.3464 C   0  0  0  0  0  0
  -28.1755  -25.3025   20.6445 C   0  0  0  0  0  0
  -24.3351  -23.5716   19.5114 C   0  0  0  0  0  0
  -27.4146  -24.3073   19.7233 C   0  0  2  0  0  0
  -30.2488  -15.1037   21.6934 N   0  0  0  0  0  0
  -28.3087  -19.3788   20.3371 N   0  3  0  0  0  0
  -31.4631  -12.3810   19.1163 H   0  0  0  0  0  0
  -30.3023  -11.2473   19.7455 H   0  0  0  0  0  0
  -29.7375  -11.8811   17.3800 H   0  0  0  0  0  0
  -29.6632  -13.5649   17.8353 H   0  0  0  0  0  0
  -27.8117  -11.3355   18.7601 H   0  0  0  0  0  0
  -27.3776  -12.7040   17.7735 H   0  0  0  0  0  0
  -27.7333  -14.2569   19.6249 H   0  0  0  0  0  0
  -28.6335  -11.8697   21.2970 H   0  0  0  0  0  0
  -28.4143  -13.4782   21.8934 H   0  0  0  0  0  0
  -25.2754   -9.5617   22.4775 H   0  0  0  0  0  0
  -23.9952   -7.4614   22.7479 H   0  0  0  0  0  0
  -21.0830   -8.8792   19.8945 H   0  0  0  0  0  0
  -22.3718  -10.9678   19.6172 H   0  0  0  0  0  0
  -21.2006   -7.6119   23.9718 H   0  0  0  0  0  0
  -21.1526   -6.0500   25.9089 H   0  0  0  0  0  0
  -22.0572   -2.7583   23.2844 H   0  0  0  0  0  0
  -22.3981  -11.9852   22.4777 H   0  0  0  0  0  0
  -21.1111  -13.1368   22.2593 H   0  0  0  0  0  0
  -24.6694  -15.8439   20.5343 H   0  0  0  0  0  0
  -26.2872  -15.6184   20.0826 H   0  0  0  0  0  0
  -26.7113  -32.5616   23.1193 H   0  0  0  0  0  0
  -25.0206  -33.9873   25.0586 H   0  0  0  0  0  0
  -22.6729  -31.3185   21.4511 H   0  0  0  0  0  0
  -23.3759  -35.9625   23.3309 H   0  0  0  0  0  0
  -24.3597  -36.8885   22.2024 H   0  0  0  0  0  0
  -23.7254  -37.6514   23.6603 H   0  0  0  0  0  0
  -26.0463  -31.5910   20.6151 H   0  0  0  0  0  0
  -26.8149  -30.8829   22.0064 H   0  0  0  0  0  0
  -28.0523  -29.0230   21.2773 H   0  0  0  0  0  0
  -26.0891  -26.3179   18.5677 H   0  0  0  0  0  0
  -24.0007  -27.4807   18.8215 H   0  0  0  0  0  0
  -23.6911  -30.6538   19.4302 H   0  0  0  0  0  0
  -22.7172  -29.2856   19.8792 H   0  0  0  0  0  0
  -25.1265  -36.1989   25.0822 H   0  0  0  0  0  0
  -21.0057  -28.3076   24.1432 H   0  0  0  0  0  0
  -20.5796  -26.2147   23.3355 H   0  0  0  0  0  0
  -21.6722  -26.7566   22.1042 H   0  0  0  0  0  0
  -19.7004  -25.6519   21.0862 H   0  0  0  0  0  0
  -19.6647  -27.3533   20.6786 H   0  0  0  0  0  0
  -17.4254  -26.6656   21.3989 H   0  0  0  0  0  0
  -18.0461  -25.9967   22.8924 H   0  0  0  0  0  0
  -19.7863  -30.7096   24.2585 H   0  0  0  0  0  0
  -17.4984  -31.6099   24.5274 H   0  0  0  0  0  0
  -15.5344  -30.2950   23.7464 H   0  0  0  0  0  0
  -15.8706  -28.0658   22.7045 H   0  0  0  0  0  0
  -24.5998  -30.7014   25.7819 H   0  0  0  0  0  0
  -24.8927  -32.2843   26.4868 H   0  0  0  0  0  0
  -25.8129  -30.8933   27.0252 H   0  0  0  0  0  0
  -26.2881  -29.6783   24.1155 H   0  0  0  0  0  0
  -27.4058  -29.7233   25.4611 H   0  0  0  0  0  0
  -27.8756  -30.4280   23.9304 H   0  0  0  0  0  0
  -27.2775  -33.3583   26.2104 H   0  0  0  0  0  0
  -28.3933  -32.6841   25.0324 H   0  0  0  0  0  0
  -28.0778  -31.8372   26.5404 H   0  0  0  0  0  0
  -28.2616  -38.0090   24.7505 H   0  0  0  0  0  0
  -28.1074  -36.2624   24.6302 H   0  0  0  0  0  0
  -27.2312  -37.1461   25.8882 H   0  0  0  0  0  0
  -20.9380  -29.8625   21.6886 H   0  0  0  0  0  0
  -26.0190  -38.2881   24.1408 H   0  0  0  0  0  0
  -24.9063  -21.4668   21.4849 H   0  0  0  0  0  0
  -24.0410  -20.9284   20.0700 H   0  0  0  0  0  0
  -26.0682  -19.9118   19.1493 H   0  0  0  0  0  0
  -25.6317  -19.2209   20.6888 H   0  0  0  0  0  0
  -28.8046  -22.1246   20.7949 H   0  0  0  0  0  0
  -28.2098  -21.6911   19.2153 H   0  0  0  0  0  0
  -25.7286  -22.2145   18.6434 H   0  0  0  0  0  0
  -26.6492  -23.1755   21.3708 H   0  0  0  0  0  0
  -27.3350  -20.4957   21.8631 H   0  0  0  0  0  0
  -23.4211  -22.5963   17.7789 H   0  0  0  0  0  0
  -22.4496  -23.8769   18.4723 H   0  0  0  0  0  0
  -22.5261  -22.3279   19.2812 H   0  0  0  0  0  0
  -24.6903  -24.6684   21.3755 H   0  0  0  0  0  0
  -23.4407  -23.4381   21.5046 H   0  0  0  0  0  0
  -23.1136  -24.9564   20.6673 H   0  0  0  0  0  0
  -27.3507  -23.7349   17.6107 H   0  0  0  0  0  0
  -28.9526  -23.5875   18.3291 H   0  0  0  0  0  0
  -28.3230  -25.1679   17.9273 H   0  0  0  0  0  0
  -28.4348  -16.7845   21.1382 H   0  0  0  0  0  0
  -29.6769  -17.1658   19.9746 H   0  0  0  0  0  0
  -30.3435  -16.7818   22.9265 H   0  0  0  0  0  0
  -31.4553  -16.8415   21.5731 H   0  0  0  0  0  0
  -30.1545  -19.3172   21.3498 H   0  0  0  0  0  0
  -28.7836  -18.8682   22.3485 H   0  0  0  0  0  0
  -29.1710  -24.9069   20.8530 H   0  0  0  0  0  0
  -27.6694  -25.3744   21.6110 H   0  0  0  0  0  0
  -24.6804  -24.3828   18.8718 H   0  0  0  0  0  0
  -26.4849  -24.7925   19.6409 H   0  0  0  0  0  0
  -29.5055  -14.6825   22.2303 H   0  0  0  0  0  0
  -28.8395  -19.6729   19.5316 H   0  0  0  0  0  0
  -27.6956  -18.6431   20.0209 H   0  0  0  0  0  0
  1 25  1  0  0  0
  1 30  2  0  0  0
  1 86  1  0  0  0
  2  3  1  0  0  0
  2 25  1  0  0  0
  2 88  1  0  0  0
  2 89  1  0  0  0
  3  4  1  0  0  0
  3 90  1  0  0  0
  3 91  1  0  0  0
  4  5  1  0  0  0
  4 92  1  0  0  0
  4 93  1  0  0  0
  5  6  1  0  0  0
  5 26  1  0  0  0
  5 94  1  0  0  0
  6 25  1  0  0  0
  6 95  1  0  0  0
  6 96  1  0  0  0
  7  8  2  0  0  0
  7 26  1  0  0  0
  7 29  1  0  0  0
  8  9  1  0  0  0
  8 22  1  0  0  0
  9 10  1  0  0  0
  9 27  2  0  0  0
 10 11  2  0  0  0
 10 15  1  0  0  0
 11 12  1  0  0  0
 11 97  1  0  0  0
 12 13  2  0  0  0
 12 98  1  0  0  0
 13 14  1  0  0  0
 13 31  1  0  0  0
 14 15  2  0  0  0
 14 99  1  0  0  0
 15100  1  0  0  0
 16 17  2  0  0  0
 16 21  1  0  0  0
 16 31  1  0  0  0
 17 18  1  0  0  0
 17101  1  0  0  0
 18 19  2  0  0  0
 18102  1  0  0  0
 19 20  1  0  0  0
 19 24  1  0  0  0
 20 21  2  0  0  0
 20103  1  0  0  0
 21 23  1  0  0  0
 22 28  1  0  0  0
 22 32  2  0  0  0
 26 27  1  0  0  0
 28104  1  0  0  0
 28105  1  0  0  0
 29106  1  0  0  0
 29107  1  0  0  0
 33 34  1  0  0  0
 33 66  1  0  0  0
 33 70  2  0  0  0
 34 36  1  0  0  0
 34 59  1  0  0  0
 34108  1  0  0  0
 35 44  2  0  0  0
 35 45  1  0  0  0
 35 68  1  0  0  0
 36 56  1  0  0  0
 36109  1  0  0  0
 37 39  1  0  0  0
 37 47  1  0  0  0
 37 66  1  0  0  0
 37110  1  0  0  0
 38 43  2  0  0  0
 38 46  1  0  0  0
 38 47  1  0  0  0
 39 64  1  0  0  0
 39 67  2  0  0  0
 40 52  1  0  0  0
 40 53  2  0  0  0
 40 58  1  0  0  0
 41111  1  0  0  0
 41112  1  0  0  0
 41113  1  0  0  0
 41 48  1  0  0  0
 42 43  1  0  0  0
 42 66  1  0  0  0
 42114  1  0  0  0
 42115  1  0  0  0
 43 44  1  0  0  0
 44116  1  0  0  0
 45 46  2  0  0  0
 45117  1  0  0  0
 46118  1  0  0  0
 47119  1  0  0  0
 47120  1  0  0  0
 48 56  1  0  0  0
 48 65  1  0  0  0
 48121  1  0  0  0
 49 50  1  0  0  0
 49 53  1  0  0  0
 49 64  1  0  0  0
 49122  1  0  0  0
 50 51  1  0  0  0
 50123  1  0  0  0
 50124  1  0  0  0
 51 52  1  0  0  0
 51125  1  0  0  0
 51126  1  0  0  0
 52127  1  0  0  0
 52128  1  0  0  0
 53 54  1  0  0  0
 54 55  2  0  0  0
 54129  1  0  0  0
 55 57  1  0  0  0
 55130  1  0  0  0
 56 69  2  0  0  0
 57 58  2  0  0  0
 57131  1  0  0  0
 58132  1  0  0  0
 59 60  1  0  0  0
 59 61  1  0  0  0
 59 62  1  0  0  0
 60133  1  0  0  0
 60134  1  0  0  0
 60135  1  0  0  0
 61136  1  0  0  0
 61137  1  0  0  0
 61138  1  0  0  0
 62139  1  0  0  0
 62140  1  0  0  0
 62141  1  0  0  0
 63 65  1  0  0  0
 63142  1  0  0  0
 63143  1  0  0  0
 63144  1  0  0  0
 64145  1  0  0  0
 65146  1  0  0  0
 68 83  1  0  0  0
 71 72  1  0  0  0
 71147  1  0  0  0
 71148  1  0  0  0
 71 74  1  0  0  0
 72 76  1  0  0  0
 72149  1  0  0  0
 72150  1  0  0  0
 73 76  1  0  0  0
 73151  1  0  0  0
 73152  1  0  0  0
 73 75  1  0  0  0
 74 75  1  0  0  0
 74 84  1  0  0  0
 74153  1  0  0  0
 75 85  1  0  0  0
 75154  1  0  0  0
 76 87  1  0  0  0
 76155  1  0  0  0
 77156  1  0  0  0
 77157  1  0  0  0
 77158  1  0  0  0
 77 84  1  0  0  0
 78 84  1  0  0  0
 78159  1  0  0  0
 78160  1  0  0  0
 78161  1  0  0  0
 79162  1  0  0  0
 79163  1  0  0  0
 79164  1  0  0  0
 79 85  1  0  0  0
 80 81  1  0  0  0
 80 82  1  0  0  0
 80165  1  0  0  0
 80166  1  0  0  0
 81 86  1  0  0  0
 81167  1  0  0  0
 81168  1  0  0  0
 82 87  1  0  0  0
 82169  1  0  0  0
 82170  1  0  0  0
 83 85  1  0  0  0
 83171  1  0  0  0
 83172  1  0  0  0
 84173  1  0  0  0
 85174  1  0  0  0
 86175  1  0  0  0
 87176  1  0  0  0
 87177  1  0  0  0
M  CHG  1  87   1
M  ISO  4   1 100  68 101  83 101  86 100
M  END
> <chiral flag>
0

> <version>
0

> <s_m_source_file>
/data/baiqing/PycharmProjects/Reinvent-master-3.2/result/LINK_invent/BTK/process_docking_weight1_custom_sum_contain_oxygen_bond_distance_aromatic_linkinvent_7_9_3/rearranged_h_0121.sdf

> <i_m_source_file_index>
80

> <r_mmod_Potential_Energy-OPLS-2005>
-65.5103073120117

> <r_mmod_Stretch_Energy-OPLS-2005>
43.3091316223145

> <r_mmod_Bend_Energy-OPLS-2005>
133.005874633789

> <r_mmod_Torsional_Energy-OPLS-2005>
287.347320556641

> <r_mmod_Improper_Torsional_Energy-OPLS-2005>
2.91563105583191

> <r_mmod_Van_der_Waal_Energy-OPLS-2005>
153.754821777344

> <r_mmod_Electrostatic_Energy-OPLS-2005>
-243.233810424805

> <r_mmod_Solvation_Energy-OPLS-2005>
-461.871307373047

> <b_mmod_Minimization_Converged-OPLS-2005>
0

> <r_mmod_RMS_Derivative-OPLS-2005>
5.15901517868042

$$$$
80
                    3D
 Structure written by MMmdl.
166175  0  0  1  0            999 V2000
  -30.7284  -14.3634   20.6781 C   0  0  0  0  0  0
  -30.4318  -12.2816   19.3864 C   0  0  0  0  0  0
  -29.4915  -12.5365   18.1909 C   0  0  0  0  0  0
  -28.0137  -12.3877   18.6048 C   0  0  0  0  0  0
  -27.6745  -13.1950   19.8845 C   0  0  2  0  0  0
  -28.7111  -12.8906   20.9894 C   0  0  0  0  0  0
  -25.2645  -13.8145   20.5674 C   0  0  0  0  0  0
  -24.1865  -13.0443   20.9161 C   0  0  0  0  0  0
  -24.6399  -11.6901   20.8716 C   0  0  0  0  0  0
  -23.9052  -10.4299   21.0395 C   0  0  0  0  0  0
  -24.3601   -9.4213   21.9179 C   0  0  0  0  0  0
  -23.6284   -8.2247   22.0753 C   0  0  0  0  0  0
  -22.4270   -8.0284   21.3541 C   0  0  0  0  0  0
  -21.9891   -9.0260   20.4656 C   0  0  0  0  0  0
  -22.7212  -10.2145   20.3057 C   0  0  0  0  0  0
  -21.6851   -6.0739   22.5287 C   0  0  0  0  0  0
  -21.4003   -6.5636   23.8223 C   0  0  0  0  0  0
  -21.3651   -5.6782   24.9181 C   0  0  0  0  0  0
  -21.6044   -4.3048   24.7222 C   0  0  0  0  0  0
  -21.8815   -3.8148   23.4341 C   0  0  0  0  0  0
  -21.9191   -4.6969   22.3402 C   0  0  0  0  0  0
  -22.7885  -13.5259   21.1817 C   0  0  0  0  0  0
  -22.1665   -4.2162   21.0976 F   0  0  0  0  0  0
  -21.5629   -3.4524   25.7732 F   0  0  0  0  0  0
  -30.0602  -13.2003   20.4710 N   0  0  0  0  0  0
  -26.3092  -12.9302   20.3385 N   0  0  0  0  0  0
  -25.9322  -11.6469   20.5728 N   0  0  0  0  0  0
  -22.0497  -12.8295   22.0391 N   0  0  0  0  0  0
  -25.4390  -15.1858   20.4115 N   0  0  0  0  0  0
  -31.7462  -14.6900   20.0584 O   0  0  0  0  0  0
  -21.6629   -6.8882   21.4250 O   0  0  0  0  0  0
  -22.3575  -14.5559   20.6655 O   0  0  0  0  0  0
  -24.6093  -31.8692   23.2125 C   0  0  0  0  0  0
  -25.9007  -32.4834   23.8398 C   0  0  1  0  0  0
  -27.2501  -27.4820   20.0693 C   0  0  0  0  0  0
  -25.5879  -33.8632   24.2338 N   0  0  0  0  0  0
  -23.3967  -30.4911   21.5507 C   0  0  2  0  0  0
  -24.8474  -28.9589   20.1164 C   0  0  0  0  0  0
  -22.7369  -29.4662   22.4998 C   0  0  0  0  0  0
  -18.0262  -28.1381   22.8487 C   0  0  0  0  0  0
  -24.1478  -36.7320   23.2636 C   0  0  0  0  0  0
  -25.9204  -30.8448   21.3621 C   0  0  0  0  0  0
  -26.0019  -29.4798   20.7139 C   0  0  0  0  0  0
  -27.2031  -28.7405   20.7024 C   0  0  0  0  0  0
  -26.0760  -26.9545   19.4895 C   0  0  0  0  0  0
  -24.8751  -27.6904   19.5097 C   0  0  0  0  0  0
  -23.6058  -29.8190   20.1664 C   0  0  0  0  0  0
  -25.4090  -36.3117   24.0346 C   0  0  1  0  0  0
  -20.5847  -28.3659   23.1327 C   0  0  2  0  0  0
  -20.6755  -26.9400   22.5426 C   0  0  0  0  0  0
  -19.5748  -26.6395   21.5200 C   0  0  0  0  0  0
  -18.1918  -26.7931   22.1604 C   0  0  0  0  0  0
  -19.1506  -28.8826   23.2911 C   0  0  0  0  0  0
  -18.9452  -30.1436   23.8926 C   0  0  0  0  0  0
  -17.6461  -30.6597   24.0559 C   0  0  0  0  0  0
  -25.9028  -34.9482   23.5143 C   0  0  0  0  0  0
  -16.5350  -29.9109   23.6323 C   0  0  0  0  0  0
  -16.7250  -28.6515   23.0354 C   0  0  0  0  0  0
  -26.4465  -31.6608   25.0711 C   0  0  0  0  0  0
  -25.3757  -31.3725   26.1484 C   0  0  0  0  0  0
  -27.0292  -30.3050   24.6081 C   0  0  0  0  0  0
  -27.6068  -32.4315   25.7446 C   0  0  0  0  0  0
  -27.5588  -37.1776   24.8442 C   0  0  0  0  0  0
  -21.4105  -29.3030   22.3732 N   0  0  0  0  0  0
  -26.4262  -37.3815   23.9448 N   0  0  0  0  0  0
  -24.6593  -31.0815   22.1008 N   0  0  0  0  0  0
  -23.4153  -28.8212   23.3033 O   0  0  0  0  0  0
  -28.4267  -26.7760   20.0554 O   0  0  0  0  0  0
  -26.5596  -34.8927   22.4710 O   0  0  0  0  0  0
  -23.5294  -32.1422   23.7550 O   0  0  0  0  0  0
  -28.3277  -18.2880   22.0623 C   0  0  0  0  0  0
  -30.5386  -17.3980   20.7034 C   0  0  0  0  0  0
  -28.7304  -16.9573   22.2585 C   0  0  0  0  0  0
  -29.8516  -16.4864   21.5410 C   0  0  0  0  0  0
  -29.0537  -19.1067   21.1866 C   0  0  0  0  0  0
  -30.1720  -22.2171   21.0093 C   0  0  0  0  0  0
  -28.2031  -22.1341   19.4371 C   0  0  0  0  0  0
  -30.7021  -23.4329   20.2221 C   0  0  0  0  0  0
  -28.7959  -23.3319   18.6798 C   0  0  0  0  0  0
  -29.2876  -21.3066   20.1388 C   0  0  2  0  0  0
  -27.9383  -16.0677   23.2017 C   0  0  0  0  0  0
  -30.0750  -25.4480   18.9319 C   0  0  0  0  0  0
  -28.9493  -26.4812   18.7617 C   0  0  0  0  0  0
  -30.1529  -18.6806   20.5302 N   0  0  0  0  0  0
  -30.2128  -15.1166   21.6579 N   0  0  0  0  0  0
  -29.5983  -24.2002   19.5844 N   0  3  2  0  0  0
  -28.5902  -20.3872   20.9803 O   0  0  0  0  0  0
  -31.4736  -12.3989   19.0819 H   0  0  0  0  0  0
  -30.3397  -11.2492   19.7279 H   0  0  0  0  0  0
  -29.7252  -11.8520   17.3737 H   0  0  0  0  0  0
  -29.6606  -13.5423   17.8017 H   0  0  0  0  0  0
  -27.8197  -11.3275   18.7740 H   0  0  0  0  0  0
  -27.3612  -12.6883   17.7845 H   0  0  0  0  0  0
  -27.7461  -14.2537   19.6326 H   0  0  0  0  0  0
  -28.6701  -11.8334   21.2527 H   0  0  0  0  0  0
  -28.4565  -13.4110   21.9107 H   0  0  0  0  0  0
  -25.2751   -9.5688   22.4748 H   0  0  0  0  0  0
  -24.0004   -7.4625   22.7454 H   0  0  0  0  0  0
  -21.0822   -8.8762   19.8973 H   0  0  0  0  0  0
  -22.3657  -10.9672   19.6159 H   0  0  0  0  0  0
  -21.1992   -7.6144   23.9724 H   0  0  0  0  0  0
  -21.1476   -6.0514   25.9083 H   0  0  0  0  0  0
  -22.0605   -2.7616   23.2827 H   0  0  0  0  0  0
  -22.4076  -11.9969   22.4828 H   0  0  0  0  0  0
  -21.1118  -13.1366   22.2569 H   0  0  0  0  0  0
  -24.6774  -15.8451   20.5281 H   0  0  0  0  0  0
  -26.3008  -15.6249   20.1164 H   0  0  0  0  0  0
  -26.7075  -32.5565   23.1167 H   0  0  0  0  0  0
  -24.9982  -33.9794   25.0447 H   0  0  0  0  0  0
  -22.6844  -31.3063   21.4095 H   0  0  0  0  0  0
  -23.3754  -35.9635   23.3253 H   0  0  0  0  0  0
  -24.3583  -36.8981   22.2059 H   0  0  0  0  0  0
  -23.7194  -37.6498   23.6672 H   0  0  0  0  0  0
  -26.0221  -31.6097   20.5908 H   0  0  0  0  0  0
  -26.8128  -30.9054   21.9732 H   0  0  0  0  0  0
  -28.0970  -29.1400   21.1609 H   0  0  0  0  0  0
  -26.0828  -25.9773   19.0276 H   0  0  0  0  0  0
  -23.9839  -27.2775   19.0581 H   0  0  0  0  0  0
  -23.7085  -30.5893   19.4016 H   0  0  0  0  0  0
  -22.7341  -29.2308   19.8749 H   0  0  0  0  0  0
  -25.1248  -36.1967   25.0830 H   0  0  0  0  0  0
  -20.9940  -28.3236   24.1446 H   0  0  0  0  0  0
  -20.5633  -26.2270   23.3610 H   0  0  0  0  0  0
  -21.6635  -26.7443   22.1242 H   0  0  0  0  0  0
  -19.6920  -25.6308   21.1221 H   0  0  0  0  0  0
  -19.6710  -27.3212   20.6736 H   0  0  0  0  0  0
  -17.4197  -26.6677   21.4000 H   0  0  0  0  0  0
  -18.0330  -26.0065   22.8989 H   0  0  0  0  0  0
  -19.7934  -30.7221   24.2332 H   0  0  0  0  0  0
  -17.5032  -31.6276   24.5167 H   0  0  0  0  0  0
  -15.5359  -30.3029   23.7640 H   0  0  0  0  0  0
  -15.8642  -28.0844   22.7082 H   0  0  0  0  0  0
  -24.5924  -30.7069   25.7837 H   0  0  0  0  0  0
  -24.8951  -32.2888   26.4918 H   0  0  0  0  0  0
  -25.8131  -30.8906   27.0240 H   0  0  0  0  0  0
  -26.2813  -29.6787   24.1203 H   0  0  0  0  0  0
  -27.4132  -29.7312   25.4527 H   0  0  0  0  0  0
  -27.8616  -30.4360   23.9168 H   0  0  0  0  0  0
  -27.2713  -33.3598   26.2075 H   0  0  0  0  0  0
  -28.3836  -32.6904   25.0241 H   0  0  0  0  0  0
  -28.0787  -31.8406   26.5305 H   0  0  0  0  0  0
  -28.2548  -38.0133   24.7608 H   0  0  0  0  0  0
  -28.1144  -36.2681   24.6102 H   0  0  0  0  0  0
  -27.2341  -37.1229   25.8847 H   0  0  0  0  0  0
  -20.9260  -29.8727   21.6942 H   0  0  0  0  0  0
  -26.0153  -38.2870   24.1555 H   0  0  0  0  0  0
  -27.4556  -18.6822   22.5640 H   0  0  0  0  0  0
  -31.4127  -17.1149   20.1398 H   0  0  0  0  0  0
  -29.6024  -22.5644   21.8717 H   0  0  0  0  0  0
  -31.0095  -21.6446   21.4098 H   0  0  0  0  0  0
  -27.6545  -21.4963   18.7423 H   0  0  0  0  0  0
  -27.4743  -22.4868   20.1680 H   0  0  0  0  0  0
  -31.4066  -23.1054   19.4559 H   0  0  0  0  0  0
  -31.2587  -24.0797   20.9017 H   0  0  0  0  0  0
  -27.9773  -23.8901   18.2273 H   0  0  0  0  0  0
  -29.4247  -22.9823   17.8591 H   0  0  0  0  0  0
  -29.8898  -20.8275   19.3663 H   0  0  0  0  0  0
  -27.2285  -16.6490   23.7908 H   0  0  0  0  0  0
  -28.5994  -15.5548   23.8999 H   0  0  0  0  0  0
  -27.3679  -15.3248   22.6460 H   0  0  0  0  0  0
  -30.8584  -25.9059   19.5381 H   0  0  0  0  0  0
  -30.5296  -25.2193   17.9668 H   0  0  0  0  0  0
  -28.1899  -26.1220   18.0679 H   0  0  0  0  0  0
  -29.3544  -27.3959   18.3265 H   0  0  0  0  0  0
  -29.6073  -14.5828   22.2620 H   0  0  0  0  0  0
  -28.9892  -24.5099   20.3309 H   0  0  0  0  0  0
  1 25  1  0  0  0
  1 30  2  0  0  0
  1 85  1  0  0  0
  2  3  1  0  0  0
  2 25  1  0  0  0
  2 88  1  0  0  0
  2 89  1  0  0  0
  3  4  1  0  0  0
  3 90  1  0  0  0
  3 91  1  0  0  0
  4  5  1  0  0  0
  4 92  1  0  0  0
  4 93  1  0  0  0
  5  6  1  0  0  0
  5 26  1  0  0  0
  5 94  1  0  0  0
  6 25  1  0  0  0
  6 95  1  0  0  0
  6 96  1  0  0  0
  7  8  2  0  0  0
  7 26  1  0  0  0
  7 29  1  0  0  0
  8  9  1  0  0  0
  8 22  1  0  0  0
  9 10  1  0  0  0
  9 27  2  0  0  0
 10 11  2  0  0  0
 10 15  1  0  0  0
 11 12  1  0  0  0
 11 97  1  0  0  0
 12 13  2  0  0  0
 12 98  1  0  0  0
 13 14  1  0  0  0
 13 31  1  0  0  0
 14 15  2  0  0  0
 14 99  1  0  0  0
 15100  1  0  0  0
 16 17  2  0  0  0
 16 21  1  0  0  0
 16 31  1  0  0  0
 17 18  1  0  0  0
 17101  1  0  0  0
 18 19  2  0  0  0
 18102  1  0  0  0
 19 20  1  0  0  0
 19 24  1  0  0  0
 20 21  2  0  0  0
 20103  1  0  0  0
 21 23  1  0  0  0
 22 28  1  0  0  0
 22 32  2  0  0  0
 26 27  1  0  0  0
 28104  1  0  0  0
 28105  1  0  0  0
 29106  1  0  0  0
 29107  1  0  0  0
 33 34  1  0  0  0
 33 66  1  0  0  0
 33 70  2  0  0  0
 34 36  1  0  0  0
 34 59  1  0  0  0
 34108  1  0  0  0
 35 44  2  0  0  0
 35 45  1  0  0  0
 35 68  1  0  0  0
 36 56  1  0  0  0
 36109  1  0  0  0
 37 39  1  0  0  0
 37 47  1  0  0  0
 37 66  1  0  0  0
 37110  1  0  0  0
 38 43  2  0  0  0
 38 46  1  0  0  0
 38 47  1  0  0  0
 39 64  1  0  0  0
 39 67  2  0  0  0
 40 52  1  0  0  0
 40 53  2  0  0  0
 40 58  1  0  0  0
 41111  1  0  0  0
 41112  1  0  0  0
 41113  1  0  0  0
 41 48  1  0  0  0
 42 43  1  0  0  0
 42 66  1  0  0  0
 42114  1  0  0  0
 42115  1  0  0  0
 43 44  1  0  0  0
 44116  1  0  0  0
 45 46  2  0  0  0
 45117  1  0  0  0
 46118  1  0  0  0
 47119  1  0  0  0
 47120  1  0  0  0
 48 56  1  0  0  0
 48 65  1  0  0  0
 48121  1  0  0  0
 49 50  1  0  0  0
 49 53  1  0  0  0
 49 64  1  0  0  0
 49122  1  0  0  0
 50 51  1  0  0  0
 50123  1  0  0  0
 50124  1  0  0  0
 51 52  1  0  0  0
 51125  1  0  0  0
 51126  1  0  0  0
 52127  1  0  0  0
 52128  1  0  0  0
 53 54  1  0  0  0
 54 55  2  0  0  0
 54129  1  0  0  0
 55 57  1  0  0  0
 55130  1  0  0  0
 56 69  2  0  0  0
 57 58  2  0  0  0
 57131  1  0  0  0
 58132  1  0  0  0
 59 60  1  0  0  0
 59 61  1  0  0  0
 59 62  1  0  0  0
 60133  1  0  0  0
 60134  1  0  0  0
 60135  1  0  0  0
 61136  1  0  0  0
 61137  1  0  0  0
 61138  1  0  0  0
 62139  1  0  0  0
 62140  1  0  0  0
 62141  1  0  0  0
 63 65  1  0  0  0
 63142  1  0  0  0
 63143  1  0  0  0
 63144  1  0  0  0
 64145  1  0  0  0
 65146  1  0  0  0
 68 83  1  0  0  0
 71 73  2  0  0  0
 71 75  1  0  0  0
 71147  1  0  0  0
 72 74  2  0  0  0
 72 84  1  0  0  0
 72148  1  0  0  0
 73 74  1  0  0  0
 73 81  1  0  0  0
 74 85  1  0  0  0
 75 84  2  0  0  0
 75 87  1  0  0  0
 76 78  1  0  0  0
 76 80  1  0  0  0
 76149  1  0  0  0
 76150  1  0  0  0
 77 79  1  0  0  0
 77 80  1  0  0  0
 77151  1  0  0  0
 77152  1  0  0  0
 78 86  1  0  0  0
 78153  1  0  0  0
 78154  1  0  0  0
 79 86  1  0  0  0
 79155  1  0  0  0
 79156  1  0  0  0
 80 87  1  0  0  0
 80157  1  0  0  0
 81158  1  0  0  0
 81159  1  0  0  0
 81160  1  0  0  0
 82 83  1  0  0  0
 82161  1  0  0  0
 82162  1  0  0  0
 82 86  1  0  0  0
 83163  1  0  0  0
 83164  1  0  0  0
 85165  1  0  0  0
 86166  1  0  0  0
M  CHG  1  86   1
M  ISO  4   1 100  68 101  83 101  85 100
M  END
> <chiral flag>
0

> <version>
0

> <s_m_source_file>
/data/baiqing/PycharmProjects/Reinvent-master-3.2/result/LINK_invent/BTK/process_docking_weight1_custom_sum_contain_oxygen_bond_distance_aromatic_linkinvent_7_9_3/rearranged_h_0121.sdf

> <i_m_source_file_index>
81

> <r_mmod_Potential_Energy-OPLS-2005>
-326.017120361328

> <r_mmod_Stretch_Energy-OPLS-2005>
33.3818092346191

> <r_mmod_Bend_Energy-OPLS-2005>
106.35774230957

> <r_mmod_Torsional_Energy-OPLS-2005>
266.640167236328

> <r_mmod_Improper_Torsional_Energy-OPLS-2005>
4.94863271713257

> <r_mmod_Van_der_Waal_Energy-OPLS-2005>
164.374252319336

> <r_mmod_Electrostatic_Energy-OPLS-2005>
-494.527008056641

> <r_mmod_Solvation_Energy-OPLS-2005>
-414.611999511719

> <b_mmod_Minimization_Converged-OPLS-2005>
0

> <r_mmod_RMS_Derivative-OPLS-2005>
1.9602462053299

$$$$
81
                    3D
 Structure written by MMmdl.
181190  0  0  1  0            999 V2000
  -30.7644  -14.4372   20.5564 C   0  0  0  0  0  0
  -30.4021  -12.2910   19.4155 C   0  0  0  0  0  0
  -29.4768  -12.5033   18.2016 C   0  0  0  0  0  0
  -28.0004  -12.3716   18.6220 C   0  0  0  0  0  0
  -27.6547  -13.2236   19.8741 C   0  0  2  0  0  0
  -28.7043  -13.0267   20.9930 C   0  0  0  0  0  0
  -25.2542  -13.8231   20.5758 C   0  0  0  0  0  0
  -24.1810  -13.0446   20.9188 C   0  0  0  0  0  0
  -24.6396  -11.6926   20.8753 C   0  0  0  0  0  0
  -23.9084  -10.4291   21.0403 C   0  0  0  0  0  0
  -24.3626   -9.4206   21.9178 C   0  0  0  0  0  0
  -23.6305   -8.2244   22.0749 C   0  0  0  0  0  0
  -22.4291   -8.0278   21.3533 C   0  0  0  0  0  0
  -21.9921   -9.0252   20.4638 C   0  0  0  0  0  0
  -22.7258  -10.2132   20.3052 C   0  0  0  0  0  0
  -21.6856   -6.0741   22.5275 C   0  0  0  0  0  0
  -21.4016   -6.5648   23.8210 C   0  0  0  0  0  0
  -21.3658   -5.6793   24.9171 C   0  0  0  0  0  0
  -21.6043   -4.3056   24.7217 C   0  0  0  0  0  0
  -21.8827   -3.8157   23.4339 C   0  0  0  0  0  0
  -21.9196   -4.6970   22.3393 C   0  0  0  0  0  0
  -22.7837  -13.5232   21.1812 C   0  0  0  0  0  0
  -22.1649   -4.2162   21.0961 F   0  0  0  0  0  0
  -21.5623   -3.4523   25.7723 F   0  0  0  0  0  0
  -30.0361  -13.2944   20.4277 N   0  0  0  0  0  0
  -26.3003  -12.9433   20.3448 N   0  0  0  0  0  0
  -25.9338  -11.6569   20.5836 N   0  0  0  0  0  0
  -22.0469  -12.8224   22.0360 N   0  0  0  0  0  0
  -25.4160  -15.2009   20.4231 N   0  0  0  0  0  0
  -31.8947  -14.5624   20.0861 O   0  0  0  0  0  0
  -21.6655   -6.8878   21.4231 O   0  0  0  0  0  0
  -22.3663  -14.5669   20.6834 O   0  0  0  0  0  0
  -24.6120  -31.8689   23.2097 C   0  0  0  0  0  0
  -25.9023  -32.4828   23.8383 C   0  0  1  0  0  0
  -27.2255  -27.4350   20.1067 C   0  0  0  0  0  0
  -25.5889  -33.8628   24.2323 N   0  0  0  0  0  0
  -23.3994  -30.4918   21.5502 C   0  0  2  0  0  0
  -24.8439  -28.9544   20.1170 C   0  0  0  0  0  0
  -22.7391  -29.4669   22.4997 C   0  0  0  0  0  0
  -18.0268  -28.1375   22.8487 C   0  0  0  0  0  0
  -24.1484  -36.7331   23.2636 C   0  0  0  0  0  0
  -25.9262  -30.8336   21.3622 C   0  0  0  0  0  0
  -26.0026  -29.4653   20.7172 C   0  0  0  0  0  0
  -27.1982  -28.7116   20.7103 C   0  0  0  0  0  0
  -26.0579  -26.9409   19.4896 C   0  0  0  0  0  0
  -24.8671  -27.6907   19.5002 C   0  0  0  0  0  0
  -23.6059  -29.8222   20.1651 C   0  0  0  0  0  0
  -25.4095  -36.3112   24.0337 C   0  0  1  0  0  0
  -20.5846  -28.3660   23.1318 C   0  0  2  0  0  0
  -20.6756  -26.9403   22.5416 C   0  0  0  0  0  0
  -19.5743  -26.6383   21.5207 C   0  0  0  0  0  0
  -18.1913  -26.7916   22.1615 C   0  0  0  0  0  0
  -19.1510  -28.8833   23.2900 C   0  0  0  0  0  0
  -18.9450  -30.1434   23.8914 C   0  0  0  0  0  0
  -17.6457  -30.6584   24.0559 C   0  0  0  0  0  0
  -25.9026  -34.9482   23.5123 C   0  0  0  0  0  0
  -16.5345  -29.9087   23.6328 C   0  0  0  0  0  0
  -16.7255  -28.6503   23.0344 C   0  0  0  0  0  0
  -26.4446  -31.6595   25.0713 C   0  0  0  0  0  0
  -25.3729  -31.3697   26.1484 C   0  0  0  0  0  0
  -27.0274  -30.3033   24.6078 C   0  0  0  0  0  0
  -27.6027  -32.4304   25.7480 C   0  0  0  0  0  0
  -27.5573  -37.1807   24.8462 C   0  0  0  0  0  0
  -21.4119  -29.3039   22.3739 N   0  0  0  0  0  0
  -26.4281  -37.3792   23.9413 N   0  0  0  0  0  0
  -24.6641  -31.0787   22.0999 N   0  0  0  0  0  0
  -23.4158  -28.8216   23.3046 O   0  0  0  0  0  0
  -28.3893  -26.7050   20.0617 O   0  0  0  0  0  0
  -26.5601  -34.8929   22.4696 O   0  0  0  0  0  0
  -23.5324  -32.1460   23.7503 O   0  0  0  0  0  0
  -29.2551  -19.2044   23.5595 C   0  0  0  0  0  0
  -24.7824  -16.2734   25.0074 C   0  0  0  0  0  0
  -25.9110  -17.1933   24.5528 C   0  0  0  0  0  0
  -27.0697  -20.4833   23.6622 C   0  0  0  0  0  0
  -24.1227  -15.8320   23.6973 C   0  0  0  0  0  0
  -28.4663  -20.4366   23.0136 C   0  0  2  0  0  0
  -27.6608  -20.4617   21.6734 C   0  0  2  0  0  0
  -25.3136  -17.8795   23.3147 C   0  0  1  0  0  0
  -26.8820  -21.5114   19.5047 C   0  0  0  0  0  0
  -26.3652  -18.4599   22.3404 C   0  0  0  0  0  0
  -27.7661  -24.2908   20.4229 C   0  0  0  0  0  0
  -28.2061  -22.9804   21.1351 C   0  0  0  0  0  0
  -29.8188  -17.9961   21.3775 C   0  0  0  0  0  0
  -30.7798  -16.8401   21.0612 C   0  0  0  0  0  0
  -28.4673  -25.5729   20.9415 C   0  0  0  0  0  0
  -27.2185  -21.7885   20.9794 C   0  0  2  0  0  0
  -26.5130  -19.9247   22.4226 N   0  0  0  0  0  0
  -29.8074  -18.2331   22.8128 N   0  0  0  0  0  0
  -30.1492  -15.5076   21.0810 N   0  0  0  0  0  0
  -24.4677  -16.8476   22.6826 N   0  3  0  0  0  0
  -29.3897  -19.1183   24.7789 O   0  0  0  0  0  0
  -31.4481  -12.3567   19.1066 H   0  0  0  0  0  0
  -30.2792  -11.2876   19.8243 H   0  0  0  0  0  0
  -29.7096  -11.7787   17.4204 H   0  0  0  0  0  0
  -29.6523  -13.4885   17.7657 H   0  0  0  0  0  0
  -27.8099  -11.3183   18.8313 H   0  0  0  0  0  0
  -27.3452  -12.6366   17.7900 H   0  0  0  0  0  0
  -27.6896  -14.2688   19.5641 H   0  0  0  0  0  0
  -28.6673  -12.0016   21.3657 H   0  0  0  0  0  0
  -28.4894  -13.6633   21.8524 H   0  0  0  0  0  0
  -25.2758   -9.5682   22.4752 H   0  0  0  0  0  0
  -24.0035   -7.4651   22.7470 H   0  0  0  0  0  0
  -21.0848   -8.8773   19.8940 H   0  0  0  0  0  0
  -22.3732  -10.9680   19.6169 H   0  0  0  0  0  0
  -21.2011   -7.6161   23.9715 H   0  0  0  0  0  0
  -21.1471   -6.0517   25.9074 H   0  0  0  0  0  0
  -22.0621   -2.7625   23.2830 H   0  0  0  0  0  0
  -22.4027  -11.9838   22.4696 H   0  0  0  0  0  0
  -21.1081  -13.1234   22.2537 H   0  0  0  0  0  0
  -24.5852  -15.5948   19.9906 H   0  0  0  0  0  0
  -26.2270  -15.4343   19.8607 H   0  0  0  0  0  0
  -26.7099  -32.5524   23.1149 H   0  0  0  0  0  0
  -25.0025  -33.9794   25.0457 H   0  0  0  0  0  0
  -22.6876  -31.3087   21.4130 H   0  0  0  0  0  0
  -23.3733  -35.9679   23.3307 H   0  0  0  0  0  0
  -24.3589  -36.8948   22.2053 H   0  0  0  0  0  0
  -23.7250  -37.6541   23.6653 H   0  0  0  0  0  0
  -26.0306  -31.5908   20.5836 H   0  0  0  0  0  0
  -26.8186  -30.8946   21.9730 H   0  0  0  0  0  0
  -28.0947  -29.1026   21.1700 H   0  0  0  0  0  0
  -26.0690  -25.9838   18.9877 H   0  0  0  0  0  0
  -23.9809  -27.2942   19.0227 H   0  0  0  0  0  0
  -23.7073  -30.5966   19.4037 H   0  0  0  0  0  0
  -22.7297  -29.2396   19.8754 H   0  0  0  0  0  0
  -25.1258  -36.1969   25.0826 H   0  0  0  0  0  0
  -20.9933  -28.3234   24.1437 H   0  0  0  0  0  0
  -20.5649  -26.2282   23.3607 H   0  0  0  0  0  0
  -21.6629  -26.7448   22.1219 H   0  0  0  0  0  0
  -19.6910  -25.6297   21.1228 H   0  0  0  0  0  0
  -19.6667  -27.3203   20.6745 H   0  0  0  0  0  0
  -17.4177  -26.6655   21.4020 H   0  0  0  0  0  0
  -18.0328  -26.0050   22.9009 H   0  0  0  0  0  0
  -19.7927  -30.7234   24.2290 H   0  0  0  0  0  0
  -17.5016  -31.6265   24.5159 H   0  0  0  0  0  0
  -15.5341  -30.2994   23.7649 H   0  0  0  0  0  0
  -15.8651  -28.0832   22.7049 H   0  0  0  0  0  0
  -24.5896  -30.7040   25.7830 H   0  0  0  0  0  0
  -24.8936  -32.2869   26.4929 H   0  0  0  0  0  0
  -25.8108  -30.8869   27.0238 H   0  0  0  0  0  0
  -26.2818  -29.6805   24.1114 H   0  0  0  0  0  0
  -27.4035  -29.7231   25.4518 H   0  0  0  0  0  0
  -27.8660  -30.4356   23.9232 H   0  0  0  0  0  0
  -27.2645  -33.3591   26.2086 H   0  0  0  0  0  0
  -28.3826  -32.6885   25.0304 H   0  0  0  0  0  0
  -28.0711  -31.8412   26.5375 H   0  0  0  0  0  0
  -28.2576  -38.0112   24.7502 H   0  0  0  0  0  0
  -28.1072  -36.2642   24.6271 H   0  0  0  0  0  0
  -27.2310  -37.1448   25.8870 H   0  0  0  0  0  0
  -20.9277  -29.8784   21.6983 H   0  0  0  0  0  0
  -26.0170  -38.2871   24.1404 H   0  0  0  0  0  0
  -24.0662  -16.8333   25.6111 H   0  0  0  0  0  0
  -25.1339  -15.4321   25.6050 H   0  0  0  0  0  0
  -26.7873  -16.5994   24.2844 H   0  0  0  0  0  0
  -26.2094  -17.8931   25.3334 H   0  0  0  0  0  0
  -26.7038  -21.4986   23.8191 H   0  0  0  0  0  0
  -26.8971  -19.8421   24.5248 H   0  0  0  0  0  0
  -23.0429  -15.7193   23.8044 H   0  0  0  0  0  0
  -24.5259  -14.8711   23.3771 H   0  0  0  0  0  0
  -29.0368  -21.3431   23.2049 H   0  0  0  0  0  0
  -28.0048  -19.7290   20.9503 H   0  0  0  0  0  0
  -24.6345  -18.6665   23.6446 H   0  0  0  0  0  0
  -27.7793  -21.3004   18.9230 H   0  0  0  0  0  0
  -26.3702  -22.3536   19.0392 H   0  0  0  0  0  0
  -26.2200  -20.6491   19.4151 H   0  0  0  0  0  0
  -26.0556  -18.2571   21.3131 H   0  0  0  0  0  0
  -27.2913  -17.9129   22.4663 H   0  0  0  0  0  0
  -26.6888  -24.4137   20.5383 H   0  0  0  0  0  0
  -27.9519  -24.1873   19.3533 H   0  0  0  0  0  0
  -28.3189  -23.1995   22.1968 H   0  0  0  0  0  0
  -29.1968  -22.6898   20.7813 H   0  0  0  0  0  0
  -28.8309  -17.7709   20.9785 H   0  0  0  0  0  0
  -30.1748  -18.9033   20.8836 H   0  0  0  0  0  0
  -31.6506  -16.8560   21.7201 H   0  0  0  0  0  0
  -31.1686  -17.0204   20.0556 H   0  0  0  0  0  0
  -29.5294  -25.3699   21.0804 H   0  0  0  0  0  0
  -28.0852  -25.8397   21.9289 H   0  0  0  0  0  0
  -26.2876  -22.1347   21.4350 H   0  0  0  0  0  0
  -30.2993  -17.5333   23.3518 H   0  0  0  0  0  0
  -29.2046  -15.4069   21.4177 H   0  0  0  0  0  0
  -23.6392  -17.2623   22.2864 H   0  0  0  0  0  0
  -24.9736  -16.3760   21.9369 H   0  0  0  0  0  0
  1 25  1  0  0  0
  1 30  2  0  0  0
  1 89  1  0  0  0
  2  3  1  0  0  0
  2 25  1  0  0  0
  2 92  1  0  0  0
  2 93  1  0  0  0
  3  4  1  0  0  0
  3 94  1  0  0  0
  3 95  1  0  0  0
  4  5  1  0  0  0
  4 96  1  0  0  0
  4 97  1  0  0  0
  5  6  1  0  0  0
  5 26  1  0  0  0
  5 98  1  0  0  0
  6 25  1  0  0  0
  6 99  1  0  0  0
  6100  1  0  0  0
  7  8  2  0  0  0
  7 26  1  0  0  0
  7 29  1  0  0  0
  8  9  1  0  0  0
  8 22  1  0  0  0
  9 10  1  0  0  0
  9 27  2  0  0  0
 10 11  2  0  0  0
 10 15  1  0  0  0
 11 12  1  0  0  0
 11101  1  0  0  0
 12 13  2  0  0  0
 12102  1  0  0  0
 13 14  1  0  0  0
 13 31  1  0  0  0
 14 15  2  0  0  0
 14103  1  0  0  0
 15104  1  0  0  0
 16 17  2  0  0  0
 16 21  1  0  0  0
 16 31  1  0  0  0
 17 18  1  0  0  0
 17105  1  0  0  0
 18 19  2  0  0  0
 18106  1  0  0  0
 19 20  1  0  0  0
 19 24  1  0  0  0
 20 21  2  0  0  0
 20107  1  0  0  0
 21 23  1  0  0  0
 22 28  1  0  0  0
 22 32  2  0  0  0
 26 27  1  0  0  0
 28108  1  0  0  0
 28109  1  0  0  0
 29110  1  0  0  0
 29111  1  0  0  0
 33 34  1  0  0  0
 33 66  1  0  0  0
 33 70  2  0  0  0
 34 36  1  0  0  0
 34 59  1  0  0  0
 34112  1  0  0  0
 35 44  2  0  0  0
 35 45  1  0  0  0
 35 68  1  0  0  0
 36 56  1  0  0  0
 36113  1  0  0  0
 37 39  1  0  0  0
 37 47  1  0  0  0
 37 66  1  0  0  0
 37114  1  0  0  0
 38 43  2  0  0  0
 38 46  1  0  0  0
 38 47  1  0  0  0
 39 64  1  0  0  0
 39 67  2  0  0  0
 40 52  1  0  0  0
 40 53  2  0  0  0
 40 58  1  0  0  0
 41115  1  0  0  0
 41116  1  0  0  0
 41117  1  0  0  0
 41 48  1  0  0  0
 42 43  1  0  0  0
 42 66  1  0  0  0
 42118  1  0  0  0
 42119  1  0  0  0
 43 44  1  0  0  0
 44120  1  0  0  0
 45 46  2  0  0  0
 45121  1  0  0  0
 46122  1  0  0  0
 47123  1  0  0  0
 47124  1  0  0  0
 48 56  1  0  0  0
 48 65  1  0  0  0
 48125  1  0  0  0
 49 50  1  0  0  0
 49 53  1  0  0  0
 49 64  1  0  0  0
 49126  1  0  0  0
 50 51  1  0  0  0
 50127  1  0  0  0
 50128  1  0  0  0
 51 52  1  0  0  0
 51129  1  0  0  0
 51130  1  0  0  0
 52131  1  0  0  0
 52132  1  0  0  0
 53 54  1  0  0  0
 54 55  2  0  0  0
 54133  1  0  0  0
 55 57  1  0  0  0
 55134  1  0  0  0
 56 69  2  0  0  0
 57 58  2  0  0  0
 57135  1  0  0  0
 58136  1  0  0  0
 59 60  1  0  0  0
 59 61  1  0  0  0
 59 62  1  0  0  0
 60137  1  0  0  0
 60138  1  0  0  0
 60139  1  0  0  0
 61140  1  0  0  0
 61141  1  0  0  0
 61142  1  0  0  0
 62143  1  0  0  0
 62144  1  0  0  0
 62145  1  0  0  0
 63 65  1  0  0  0
 63146  1  0  0  0
 63147  1  0  0  0
 63148  1  0  0  0
 64149  1  0  0  0
 65150  1  0  0  0
 68 85  1  0  0  0
 71 88  1  0  0  0
 71 91  2  0  0  0
 71 76  1  0  0  0
 72 73  1  0  0  0
 72 75  1  0  0  0
 72151  1  0  0  0
 72152  1  0  0  0
 73 78  1  0  0  0
 73153  1  0  0  0
 73154  1  0  0  0
 74 76  1  0  0  0
 74 87  1  0  0  0
 74155  1  0  0  0
 74156  1  0  0  0
 75 90  1  0  0  0
 75157  1  0  0  0
 75158  1  0  0  0
 76 77  1  0  0  0
 76159  1  0  0  0
 77 86  1  0  0  0
 77 87  1  0  0  0
 77160  1  0  0  0
 78 80  1  0  0  0
 78 90  1  0  0  0
 78161  1  0  0  0
 79162  1  0  0  0
 79163  1  0  0  0
 79164  1  0  0  0
 79 86  1  0  0  0
 80 87  1  0  0  0
 80165  1  0  0  0
 80166  1  0  0  0
 81 82  1  0  0  0
 81 85  1  0  0  0
 81167  1  0  0  0
 81168  1  0  0  0
 82 86  1  0  0  0
 82169  1  0  0  0
 82170  1  0  0  0
 83 84  1  0  0  0
 83 88  1  0  0  0
 83171  1  0  0  0
 83172  1  0  0  0
 84 89  1  0  0  0
 84173  1  0  0  0
 84174  1  0  0  0
 85175  1  0  0  0
 85176  1  0  0  0
 86177  1  0  0  0
 88178  1  0  0  0
 89179  1  0  0  0
 90180  1  0  0  0
 90181  1  0  0  0
M  CHG  1  90   1
M  ISO  4   1 100  68 101  85 101  89 100
M  END
> <chiral flag>
0

> <version>
0

> <s_m_source_file>
/data/baiqing/PycharmProjects/Reinvent-master-3.2/result/LINK_invent/BTK/process_docking_weight1_custom_sum_contain_oxygen_bond_distance_aromatic_linkinvent_7_9_3/rearranged_h_0121.sdf

> <i_m_source_file_index>
82

> <r_mmod_Potential_Energy-OPLS-2005>
-155.57112121582

> <r_mmod_Stretch_Energy-OPLS-2005>
42.2584266662598

> <r_mmod_Bend_Energy-OPLS-2005>
179.346908569336

> <r_mmod_Torsional_Energy-OPLS-2005>
347.58935546875

> <r_mmod_Improper_Torsional_Energy-OPLS-2005>
9.7006664276123

> <r_mmod_Van_der_Waal_Energy-OPLS-2005>
131.123291015625

> <r_mmod_Electrostatic_Energy-OPLS-2005>
-412.387359619141

> <r_mmod_Solvation_Energy-OPLS-2005>
-466.432098388672

> <b_mmod_Minimization_Converged-OPLS-2005>
0

> <r_mmod_RMS_Derivative-OPLS-2005>
2.65038728713989

$$$$
82
                    3D
 Structure written by MMmdl.
176185  0  0  1  0            999 V2000
  -30.6921  -14.4890   20.4817 C   0  0  0  0  0  0
  -30.4165  -12.2933   19.4239 C   0  0  0  0  0  0
  -29.4915  -12.4765   18.2031 C   0  0  0  0  0  0
  -28.0088  -12.3624   18.6153 C   0  0  0  0  0  0
  -27.6538  -13.2116   19.8660 C   0  0  2  0  0  0
  -28.7022  -13.0331   20.9877 C   0  0  0  0  0  0
  -25.2561  -13.8179   20.5699 C   0  0  0  0  0  0
  -24.1796  -13.0467   20.9173 C   0  0  0  0  0  0
  -24.6352  -11.6927   20.8744 C   0  0  0  0  0  0
  -23.9039  -10.4300   21.0397 C   0  0  0  0  0  0
  -24.3604   -9.4220   21.9166 C   0  0  0  0  0  0
  -23.6295   -8.2238   22.0739 C   0  0  0  0  0  0
  -22.4276   -8.0271   21.3521 C   0  0  0  0  0  0
  -21.9901   -9.0239   20.4632 C   0  0  0  0  0  0
  -22.7217  -10.2128   20.3040 C   0  0  0  0  0  0
  -21.6851   -6.0726   22.5262 C   0  0  0  0  0  0
  -21.4023   -6.5621   23.8196 C   0  0  0  0  0  0
  -21.3663   -5.6758   24.9152 C   0  0  0  0  0  0
  -21.6041   -4.3033   24.7199 C   0  0  0  0  0  0
  -21.8824   -3.8129   23.4315 C   0  0  0  0  0  0
  -21.9209   -4.6954   22.3380 C   0  0  0  0  0  0
  -22.7828  -13.5283   21.1831 C   0  0  0  0  0  0
  -22.1682   -4.2156   21.0960 F   0  0  0  0  0  0
  -21.5626   -3.4519   25.7712 F   0  0  0  0  0  0
  -30.0241  -13.3066   20.4118 N   0  0  0  0  0  0
  -26.2990  -12.9354   20.3363 N   0  0  0  0  0  0
  -25.9288  -11.6518   20.5778 N   0  0  0  0  0  0
  -22.0460  -12.8263   22.0365 N   0  0  0  0  0  0
  -25.4305  -15.1889   20.4097 N   0  0  0  0  0  0
  -31.8964  -14.5821   20.2303 O   0  0  0  0  0  0
  -21.6626   -6.8876   21.4230 O   0  0  0  0  0  0
  -22.3530  -14.5615   20.6730 O   0  0  0  0  0  0
  -24.6143  -31.8674   23.2103 C   0  0  0  0  0  0
  -25.9034  -32.4821   23.8389 C   0  0  1  0  0  0
  -27.2252  -27.4269   20.0952 C   0  0  0  0  0  0
  -25.5877  -33.8624   24.2313 N   0  0  0  0  0  0
  -23.3999  -30.4910   21.5520 C   0  0  2  0  0  0
  -24.8425  -28.9531   20.1153 C   0  0  0  0  0  0
  -22.7395  -29.4661   22.5013 C   0  0  0  0  0  0
  -18.0261  -28.1388   22.8500 C   0  0  0  0  0  0
  -24.1480  -36.7319   23.2640 C   0  0  0  0  0  0
  -25.9297  -30.8300   21.3630 C   0  0  0  0  0  0
  -26.0035  -29.4650   20.7088 C   0  0  0  0  0  0
  -27.1974  -28.7093   20.6902 C   0  0  0  0  0  0
  -26.0482  -26.9303   19.4928 C   0  0  0  0  0  0
  -24.8596  -27.6862   19.5049 C   0  0  0  0  0  0
  -23.6057  -29.8222   20.1663 C   0  0  0  0  0  0
  -25.4103  -36.3109   24.0335 C   0  0  1  0  0  0
  -20.5852  -28.3663   23.1337 C   0  0  2  0  0  0
  -20.6758  -26.9406   22.5430 C   0  0  0  0  0  0
  -19.5740  -26.6394   21.5221 C   0  0  0  0  0  0
  -18.1911  -26.7934   22.1628 C   0  0  0  0  0  0
  -19.1514  -28.8842   23.2915 C   0  0  0  0  0  0
  -18.9443  -30.1448   23.8925 C   0  0  0  0  0  0
  -17.6448  -30.6594   24.0567 C   0  0  0  0  0  0
  -25.9028  -34.9482   23.5130 C   0  0  0  0  0  0
  -16.5338  -29.9100   23.6330 C   0  0  0  0  0  0
  -16.7250  -28.6515   23.0352 C   0  0  0  0  0  0
  -26.4456  -31.6618   25.0735 C   0  0  0  0  0  0
  -25.3716  -31.3737   26.1483 C   0  0  0  0  0  0
  -27.0286  -30.3052   24.6136 C   0  0  0  0  0  0
  -27.6031  -32.4345   25.7484 C   0  0  0  0  0  0
  -27.5578  -37.1808   24.8462 C   0  0  0  0  0  0
  -21.4124  -29.3028   22.3741 N   0  0  0  0  0  0
  -26.4285  -37.3800   23.9410 N   0  0  0  0  0  0
  -24.6663  -31.0775   22.1002 N   0  0  0  0  0  0
  -23.4168  -28.8204   23.3049 O   0  0  0  0  0  0
  -28.4070  -26.7175   20.0956 O   0  0  0  0  0  0
  -26.5607  -34.8932   22.4692 O   0  0  0  0  0  0
  -23.5334  -32.1431   23.7499 O   0  0  0  0  0  0
  -29.6133  -20.7560   19.7173 C   0  0  0  0  0  0
  -27.7235  -21.8245   19.2426 C   0  0  0  0  0  0
  -29.0672  -22.0369   19.3968 C   0  0  0  0  0  0
  -28.6401  -19.7973   19.6393 C   0  0  0  0  0  0
  -30.0502  -17.7795   19.0515 C   0  0  0  0  0  0
  -28.5988  -17.6412   21.1022 C   0  0  0  0  0  0
  -30.0224  -16.2451   18.9711 C   0  0  0  0  0  0
  -29.5838  -16.4723   21.4253 C   0  0  0  0  0  0
  -28.7629  -18.2855   19.7051 C   0  0  0  0  0  0
  -25.9603  -19.3945   17.7205 C   0  0  0  0  0  0
  -24.9706  -20.7661   19.6016 C   0  0  0  0  0  0
  -30.9212  -23.4863   20.2888 C   0  0  0  0  0  0
  -30.6374  -23.1062   17.8431 C   0  0  0  0  0  0
  -29.0272  -24.6235   18.9875 C   0  0  0  0  0  0
  -28.3715  -25.2833   20.2249 C   0  0  0  0  0  0
  -26.1315  -19.8486   19.1810 C   0  0  0  0  0  0
  -29.8733  -23.3166   19.1687 C   0  0  0  0  0  0
  -27.4436  -20.4680   19.3842 N   0  0  0  0  0  0
  -29.9020  -15.5794   20.2891 N   0  0  0  0  0  0
  -31.4629  -12.3734   19.1235 H   0  0  0  0  0  0
  -30.3047  -11.2952   19.8484 H   0  0  0  0  0  0
  -29.7191  -11.7298   17.4420 H   0  0  0  0  0  0
  -29.6758  -13.4466   17.7372 H   0  0  0  0  0  0
  -27.7956  -11.3106   18.8083 H   0  0  0  0  0  0
  -27.3704  -12.6453   17.7795 H   0  0  0  0  0  0
  -27.6825  -14.2526   19.5468 H   0  0  0  0  0  0
  -28.6745  -12.0184   21.3854 H   0  0  0  0  0  0
  -28.4878  -13.6978   21.8262 H   0  0  0  0  0  0
  -25.2755   -9.5700   22.4746 H   0  0  0  0  0  0
  -24.0007   -7.4633   22.7465 H   0  0  0  0  0  0
  -21.0821   -8.8756   19.8947 H   0  0  0  0  0  0
  -22.3665  -10.9661   19.6155 H   0  0  0  0  0  0
  -21.2008   -7.6128   23.9712 H   0  0  0  0  0  0
  -21.1504   -6.0475   25.9054 H   0  0  0  0  0  0
  -22.0620   -2.7594   23.2800 H   0  0  0  0  0  0
  -22.4110  -11.9959   22.4795 H   0  0  0  0  0  0
  -21.1096  -13.1314   22.2623 H   0  0  0  0  0  0
  -24.6678  -15.8475   20.5145 H   0  0  0  0  0  0
  -26.2940  -15.6174   20.1011 H   0  0  0  0  0  0
  -26.7113  -32.5519   23.1157 H   0  0  0  0  0  0
  -24.9990  -33.9792   25.0428 H   0  0  0  0  0  0
  -22.6880  -31.3072   21.4156 H   0  0  0  0  0  0
  -23.3742  -35.9653   23.3310 H   0  0  0  0  0  0
  -24.3575  -36.8926   22.2052 H   0  0  0  0  0  0
  -23.7235  -37.6522   23.6661 H   0  0  0  0  0  0
  -26.0474  -31.5969   20.5956 H   0  0  0  0  0  0
  -26.8164  -30.8795   21.9841 H   0  0  0  0  0  0
  -28.0970  -29.1016   21.1432 H   0  0  0  0  0  0
  -26.0411  -25.9678   19.0014 H   0  0  0  0  0  0
  -23.9666  -27.2920   19.0398 H   0  0  0  0  0  0
  -23.7132  -30.5970   19.4067 H   0  0  0  0  0  0
  -22.7277  -29.2432   19.8740 H   0  0  0  0  0  0
  -25.1279  -36.1970   25.0829 H   0  0  0  0  0  0
  -20.9938  -28.3231   24.1459 H   0  0  0  0  0  0
  -20.5677  -26.2263   23.3605 H   0  0  0  0  0  0
  -21.6629  -26.7464   22.1213 H   0  0  0  0  0  0
  -19.6900  -25.6309   21.1246 H   0  0  0  0  0  0
  -19.6682  -27.3209   20.6752 H   0  0  0  0  0  0
  -17.4180  -26.6682   21.4027 H   0  0  0  0  0  0
  -18.0308  -26.0079   22.9024 H   0  0  0  0  0  0
  -19.7915  -30.7255   24.2313 H   0  0  0  0  0  0
  -17.5003  -31.6278   24.5157 H   0  0  0  0  0  0
  -15.5341  -30.3007   23.7651 H   0  0  0  0  0  0
  -15.8643  -28.0841   22.7070 H   0  0  0  0  0  0
  -24.5857  -30.7128   25.7814 H   0  0  0  0  0  0
  -24.8946  -32.2905   26.4959 H   0  0  0  0  0  0
  -25.8052  -30.8869   27.0227 H   0  0  0  0  0  0
  -26.2842  -29.6823   24.1169 H   0  0  0  0  0  0
  -27.4009  -29.7287   25.4614 H   0  0  0  0  0  0
  -27.8694  -30.4357   23.9322 H   0  0  0  0  0  0
  -27.2654  -33.3640   26.2081 H   0  0  0  0  0  0
  -28.3815  -32.6918   25.0292 H   0  0  0  0  0  0
  -28.0733  -31.8467   26.5377 H   0  0  0  0  0  0
  -28.2599  -38.0103   24.7510 H   0  0  0  0  0  0
  -28.1065  -36.2633   24.6276 H   0  0  0  0  0  0
  -27.2306  -37.1450   25.8869 H   0  0  0  0  0  0
  -20.9285  -29.8715   21.6936 H   0  0  0  0  0  0
  -26.0173  -38.2875   24.1408 H   0  0  0  0  0  0
  -30.6606  -20.5450   19.8855 H   0  0  0  0  0  0
  -26.9424  -22.5262   18.9841 H   0  0  0  0  0  0
  -30.1478  -18.1962   18.0481 H   0  0  0  0  0  0
  -30.9280  -18.1141   19.6094 H   0  0  0  0  0  0
  -28.7101  -18.4045   21.8739 H   0  0  0  0  0  0
  -27.5719  -17.2857   21.2044 H   0  0  0  0  0  0
  -30.8989  -15.9172   18.4072 H   0  0  0  0  0  0
  -29.1706  -15.9264   18.3683 H   0  0  0  0  0  0
  -29.1918  -15.8951   22.2622 H   0  0  0  0  0  0
  -30.5259  -16.8969   21.7776 H   0  0  0  0  0  0
  -27.9663  -17.8629   19.0959 H   0  0  0  0  0  0
  -25.0397  -18.8237   17.5998 H   0  0  0  0  0  0
  -26.7820  -18.7611   17.3888 H   0  0  0  0  0  0
  -25.9116  -20.2472   17.0421 H   0  0  0  0  0  0
  -24.0220  -20.2282   19.5750 H   0  0  0  0  0  0
  -24.8737  -21.6218   18.9325 H   0  0  0  0  0  0
  -25.1045  -21.1392   20.6167 H   0  0  0  0  0  0
  -31.6597  -22.6844   20.2739 H   0  0  0  0  0  0
  -30.4632  -23.4689   21.2778 H   0  0  0  0  0  0
  -31.4643  -24.4272   20.1868 H   0  0  0  0  0  0
  -31.3071  -22.2473   17.8936 H   0  0  0  0  0  0
  -31.2453  -23.9724   17.5796 H   0  0  0  0  0  0
  -29.9494  -22.9248   17.0161 H   0  0  0  0  0  0
  -29.7054  -25.3770   18.5861 H   0  0  0  0  0  0
  -28.2803  -24.4872   18.2048 H   0  0  0  0  0  0
  -28.9399  -25.0656   21.1262 H   0  0  0  0  0  0
  -27.3801  -24.8690   20.4100 H   0  0  0  0  0  0
  -26.0831  -18.9713   19.8281 H   0  0  0  0  0  0
  1 25  1  0  0  0
  1 30  2  0  0  0
  1 89  1  0  0  0
  2  3  1  0  0  0
  2 25  1  0  0  0
  2 90  1  0  0  0
  2 91  1  0  0  0
  3  4  1  0  0  0
  3 92  1  0  0  0
  3 93  1  0  0  0
  4  5  1  0  0  0
  4 94  1  0  0  0
  4 95  1  0  0  0
  5  6  1  0  0  0
  5 26  1  0  0  0
  5 96  1  0  0  0
  6 25  1  0  0  0
  6 97  1  0  0  0
  6 98  1  0  0  0
  7  8  2  0  0  0
  7 26  1  0  0  0
  7 29  1  0  0  0
  8  9  1  0  0  0
  8 22  1  0  0  0
  9 10  1  0  0  0
  9 27  2  0  0  0
 10 11  2  0  0  0
 10 15  1  0  0  0
 11 12  1  0  0  0
 11 99  1  0  0  0
 12 13  2  0  0  0
 12100  1  0  0  0
 13 14  1  0  0  0
 13 31  1  0  0  0
 14 15  2  0  0  0
 14101  1  0  0  0
 15102  1  0  0  0
 16 17  2  0  0  0
 16 21  1  0  0  0
 16 31  1  0  0  0
 17 18  1  0  0  0
 17103  1  0  0  0
 18 19  2  0  0  0
 18104  1  0  0  0
 19 20  1  0  0  0
 19 24  1  0  0  0
 20 21  2  0  0  0
 20105  1  0  0  0
 21 23  1  0  0  0
 22 28  1  0  0  0
 22 32  2  0  0  0
 26 27  1  0  0  0
 28106  1  0  0  0
 28107  1  0  0  0
 29108  1  0  0  0
 29109  1  0  0  0
 33 34  1  0  0  0
 33 66  1  0  0  0
 33 70  2  0  0  0
 34 36  1  0  0  0
 34 59  1  0  0  0
 34110  1  0  0  0
 35 44  2  0  0  0
 35 45  1  0  0  0
 35 68  1  0  0  0
 36 56  1  0  0  0
 36111  1  0  0  0
 37 39  1  0  0  0
 37 47  1  0  0  0
 37 66  1  0  0  0
 37112  1  0  0  0
 38 43  2  0  0  0
 38 46  1  0  0  0
 38 47  1  0  0  0
 39 64  1  0  0  0
 39 67  2  0  0  0
 40 52  1  0  0  0
 40 53  2  0  0  0
 40 58  1  0  0  0
 41113  1  0  0  0
 41114  1  0  0  0
 41115  1  0  0  0
 41 48  1  0  0  0
 42 43  1  0  0  0
 42 66  1  0  0  0
 42116  1  0  0  0
 42117  1  0  0  0
 43 44  1  0  0  0
 44118  1  0  0  0
 45 46  2  0  0  0
 45119  1  0  0  0
 46120  1  0  0  0
 47121  1  0  0  0
 47122  1  0  0  0
 48 56  1  0  0  0
 48 65  1  0  0  0
 48123  1  0  0  0
 49 50  1  0  0  0
 49 53  1  0  0  0
 49 64  1  0  0  0
 49124  1  0  0  0
 50 51  1  0  0  0
 50125  1  0  0  0
 50126  1  0  0  0
 51 52  1  0  0  0
 51127  1  0  0  0
 51128  1  0  0  0
 52129  1  0  0  0
 52130  1  0  0  0
 53 54  1  0  0  0
 54 55  2  0  0  0
 54131  1  0  0  0
 55 57  1  0  0  0
 55132  1  0  0  0
 56 69  2  0  0  0
 57 58  2  0  0  0
 57133  1  0  0  0
 58134  1  0  0  0
 59 60  1  0  0  0
 59 61  1  0  0  0
 59 62  1  0  0  0
 60135  1  0  0  0
 60136  1  0  0  0
 60137  1  0  0  0
 61138  1  0  0  0
 61139  1  0  0  0
 61140  1  0  0  0
 62141  1  0  0  0
 62142  1  0  0  0
 62143  1  0  0  0
 63 65  1  0  0  0
 63144  1  0  0  0
 63145  1  0  0  0
 63146  1  0  0  0
 64147  1  0  0  0
 65148  1  0  0  0
 68 85  1  0  0  0
 71 73  1  0  0  0
 71 74  2  0  0  0
 71149  1  0  0  0
 72 73  2  0  0  0
 72 88  1  0  0  0
 72150  1  0  0  0
 73 87  1  0  0  0
 74 88  1  0  0  0
 74 79  1  0  0  0
 75 77  1  0  0  0
 75 79  1  0  0  0
 75151  1  0  0  0
 75152  1  0  0  0
 76 78  1  0  0  0
 76 79  1  0  0  0
 76153  1  0  0  0
 76154  1  0  0  0
 77 89  1  0  0  0
 77155  1  0  0  0
 77156  1  0  0  0
 78 89  1  0  0  0
 78157  1  0  0  0
 78158  1  0  0  0
 79159  1  0  0  0
 80160  1  0  0  0
 80161  1  0  0  0
 80162  1  0  0  0
 80 86  1  0  0  0
 81 86  1  0  0  0
 81163  1  0  0  0
 81164  1  0  0  0
 81165  1  0  0  0
 82166  1  0  0  0
 82167  1  0  0  0
 82168  1  0  0  0
 82 87  1  0  0  0
 83 87  1  0  0  0
 83169  1  0  0  0
 83170  1  0  0  0
 83171  1  0  0  0
 84 85  1  0  0  0
 84 87  1  0  0  0
 84172  1  0  0  0
 84173  1  0  0  0
 85174  1  0  0  0
 85175  1  0  0  0
 86 88  1  0  0  0
 86176  1  0  0  0
M  ISO  4   1 100  68 101  85 101  89 100
M  END
> <chiral flag>
0

> <version>
0

> <s_m_source_file>
/data/baiqing/PycharmProjects/Reinvent-master-3.2/result/LINK_invent/BTK/process_docking_weight1_custom_sum_contain_oxygen_bond_distance_aromatic_linkinvent_7_9_3/rearranged_h_0121.sdf

> <i_m_source_file_index>
83

> <r_mmod_Potential_Energy-OPLS-2005>
217.881530761719

> <r_mmod_Stretch_Energy-OPLS-2005>
42.2302055358887

> <r_mmod_Bend_Energy-OPLS-2005>
125.95922088623

> <r_mmod_Torsional_Energy-OPLS-2005>
399.423065185547

> <r_mmod_Improper_Torsional_Energy-OPLS-2005>
21.3610916137695

> <r_mmod_Van_der_Waal_Energy-OPLS-2005>
132.701095581055

> <r_mmod_Electrostatic_Energy-OPLS-2005>
-345.185211181641

> <r_mmod_Solvation_Energy-OPLS-2005>
-180.285659790039

> <b_mmod_Minimization_Converged-OPLS-2005>
0

> <r_mmod_RMS_Derivative-OPLS-2005>
3.01847100257874

$$$$
83
                    3D
 Structure written by MMmdl.
172182  0  0  1  0            999 V2000
  -30.7562  -14.3707   20.6002 C   0  0  0  0  0  0
  -30.4114  -12.2555   19.4043 C   0  0  0  0  0  0
  -29.4894  -12.5138   18.1982 C   0  0  0  0  0  0
  -28.0087  -12.3932   18.6072 C   0  0  0  0  0  0
  -27.6690  -13.2065   19.8847 C   0  0  2  0  0  0
  -28.7102  -12.9460   20.9982 C   0  0  0  0  0  0
  -25.2620  -13.8180   20.5717 C   0  0  0  0  0  0
  -24.1865  -13.0451   20.9189 C   0  0  0  0  0  0
  -24.6417  -11.6916   20.8736 C   0  0  0  0  0  0
  -23.9079  -10.4305   21.0397 C   0  0  0  0  0  0
  -24.3628   -9.4220   21.9175 C   0  0  0  0  0  0
  -23.6310   -8.2253   22.0747 C   0  0  0  0  0  0
  -22.4289   -8.0293   21.3538 C   0  0  0  0  0  0
  -21.9923   -9.0268   20.4641 C   0  0  0  0  0  0
  -22.7254  -10.2146   20.3053 C   0  0  0  0  0  0
  -21.6850   -6.0745   22.5283 C   0  0  0  0  0  0
  -21.4018   -6.5639   23.8227 C   0  0  0  0  0  0
  -21.3665   -5.6784   24.9186 C   0  0  0  0  0  0
  -21.6057   -4.3050   24.7222 C   0  0  0  0  0  0
  -21.8820   -3.8148   23.4340 C   0  0  0  0  0  0
  -21.9203   -4.6974   22.3405 C   0  0  0  0  0  0
  -22.7885  -13.5249   21.1843 C   0  0  0  0  0  0
  -22.1660   -4.2164   21.0978 F   0  0  0  0  0  0
  -21.5644   -3.4529   25.7730 F   0  0  0  0  0  0
  -30.0497  -13.2212   20.4501 N   0  0  0  0  0  0
  -26.3063  -12.9350   20.3419 N   0  0  0  0  0  0
  -25.9346  -11.6507   20.5787 N   0  0  0  0  0  0
  -22.0505  -12.8251   22.0387 N   0  0  0  0  0  0
  -25.4327  -15.1904   20.4124 N   0  0  0  0  0  0
  -31.8473  -14.5694   20.0620 O   0  0  0  0  0  0
  -21.6642   -6.8892   21.4246 O   0  0  0  0  0  0
  -22.3579  -14.5549   20.6677 O   0  0  0  0  0  0
  -24.6097  -31.8711   23.2159 C   0  0  0  0  0  0
  -25.9019  -32.4837   23.8419 C   0  0  1  0  0  0
  -27.2299  -27.4746   20.0822 C   0  0  0  0  0  0
  -25.5893  -33.8647   24.2335 N   0  0  0  0  0  0
  -23.3961  -30.4975   21.5526 C   0  0  2  0  0  0
  -24.8420  -28.9702   20.1160 C   0  0  0  0  0  0
  -22.7381  -29.4680   22.4986 C   0  0  0  0  0  0
  -18.0275  -28.1369   22.8485 C   0  0  0  0  0  0
  -24.1486  -36.7323   23.2632 C   0  0  0  0  0  0
  -25.9218  -30.8485   21.3648 C   0  0  0  0  0  0
  -25.9999  -29.4847   20.7142 C   0  0  0  0  0  0
  -27.1969  -28.7408   20.7031 C   0  0  0  0  0  0
  -26.0654  -26.9772   19.4606 C   0  0  0  0  0  0
  -24.8663  -27.7119   19.4920 C   0  0  0  0  0  0
  -23.6024  -29.8318   20.1661 C   0  0  0  0  0  0
  -25.4116  -36.3128   24.0321 C   0  0  1  0  0  0
  -20.5859  -28.3653   23.1321 C   0  0  2  0  0  0
  -20.6776  -26.9393   22.5408 C   0  0  0  0  0  0
  -19.5751  -26.6378   21.5204 C   0  0  0  0  0  0
  -18.1927  -26.7916   22.1621 C   0  0  0  0  0  0
  -19.1523  -28.8834   23.2906 C   0  0  0  0  0  0
  -18.9447  -30.1447   23.8903 C   0  0  0  0  0  0
  -17.6447  -30.6579   24.0580 C   0  0  0  0  0  0
  -25.9030  -34.9487   23.5124 C   0  0  0  0  0  0
  -16.5339  -29.9084   23.6332 C   0  0  0  0  0  0
  -16.7264  -28.6512   23.0331 C   0  0  0  0  0  0
  -26.4470  -31.6594   25.0721 C   0  0  0  0  0  0
  -25.3752  -31.3690   26.1475 C   0  0  0  0  0  0
  -27.0300  -30.3039   24.6081 C   0  0  0  0  0  0
  -27.6052  -32.4304   25.7473 C   0  0  0  0  0  0
  -27.5587  -37.1815   24.8463 C   0  0  0  0  0  0
  -21.4116  -29.3039   22.3745 N   0  0  0  0  0  0
  -26.4306  -37.3801   23.9395 N   0  0  0  0  0  0
  -24.6605  -31.0853   22.1034 N   0  0  0  0  0  0
  -23.4182  -28.8212   23.3000 O   0  0  0  0  0  0
  -28.3854  -26.7367   20.0807 O   0  0  0  0  0  0
  -26.5591  -34.8925   22.4682 O   0  0  0  0  0  0
  -23.5304  -32.1437   23.7578 O   0  0  0  0  0  0
  -28.6506  -18.6160   24.6833 C   0  0  0  0  0  0
  -29.4743  -18.7297   22.4269 C   0  0  0  0  0  0
  -28.8066  -19.3457   23.4919 C   0  0  0  0  0  0
  -29.1568  -17.3029   24.7426 C   0  0  0  0  0  0
  -29.9365  -17.4112   22.5568 C   0  0  0  0  0  0
  -26.6438  -22.6744   23.9000 C   0  0  0  0  0  0
  -26.6010  -23.6208   22.6785 C   0  0  0  0  0  0
  -27.6375  -22.0368   21.1152 C   0  0  0  0  0  0
  -28.3068  -20.7335   23.2807 C   0  0  2  0  0  0
  -26.8889  -21.2234   23.5223 C   0  0  2  0  0  0
  -27.3733  -20.9356   22.1200 C   0  0  1  0  0  0
  -29.0411  -16.4906   26.0152 C   0  0  0  0  0  0
  -30.5269  -17.4419   20.0472 C   0  0  0  0  0  0
  -27.8272  -24.4238   20.6674 C   0  0  0  0  0  0
  -28.4404  -25.7637   21.1289 C   0  0  0  0  0  0
  -30.6431  -16.7027   21.4039 C   0  0  2  0  0  0
  -29.7771  -16.7057   23.7007 N   0  0  0  0  0  0
  -30.1458  -15.3377   21.2825 N   0  0  0  0  0  0
  -27.7275  -23.3875   21.7295 N   0  3  1  0  0  0
  -31.4587  -12.3274   19.1054 H   0  0  0  0  0  0
  -30.2828  -11.2371   19.7744 H   0  0  0  0  0  0
  -29.7132  -11.8128   17.3925 H   0  0  0  0  0  0
  -29.6843  -13.5123   17.8036 H   0  0  0  0  0  0
  -27.7986  -11.3363   18.7715 H   0  0  0  0  0  0
  -27.3676  -12.7060   17.7823 H   0  0  0  0  0  0
  -27.7248  -14.2621   19.6167 H   0  0  0  0  0  0
  -28.6666  -11.9051   21.3250 H   0  0  0  0  0  0
  -28.4849  -13.5353   21.8875 H   0  0  0  0  0  0
  -25.2780   -9.5713   22.4733 H   0  0  0  0  0  0
  -24.0034   -7.4654   22.7469 H   0  0  0  0  0  0
  -21.0857   -8.8798   19.8941 H   0  0  0  0  0  0
  -22.3725  -10.9685   19.6160 H   0  0  0  0  0  0
  -21.1981   -7.6139   23.9743 H   0  0  0  0  0  0
  -21.1493   -6.0498   25.9093 H   0  0  0  0  0  0
  -22.0589   -2.7608   23.2834 H   0  0  0  0  0  0
  -22.4072  -11.9905   22.4810 H   0  0  0  0  0  0
  -21.1117  -13.1297   22.2543 H   0  0  0  0  0  0
  -24.6665  -15.8459   20.5264 H   0  0  0  0  0  0
  -26.2917  -15.6330   20.1089 H   0  0  0  0  0  0
  -26.7098  -32.5554   23.1198 H   0  0  0  0  0  0
  -25.0045  -33.9825   25.0485 H   0  0  0  0  0  0
  -22.6805  -31.3111   21.4174 H   0  0  0  0  0  0
  -23.3737  -35.9663   23.3317 H   0  0  0  0  0  0
  -24.3568  -36.8924   22.2038 H   0  0  0  0  0  0
  -23.7248  -37.6539   23.6638 H   0  0  0  0  0  0
  -26.0270  -31.6157   20.5959 H   0  0  0  0  0  0
  -26.8132  -30.9031   21.9790 H   0  0  0  0  0  0
  -28.0937  -29.1341   21.1643 H   0  0  0  0  0  0
  -26.0737  -26.0336   18.9355 H   0  0  0  0  0  0
  -23.9791  -27.3170   19.0155 H   0  0  0  0  0  0
  -23.7024  -30.6033   19.4010 H   0  0  0  0  0  0
  -22.7289  -29.2446   19.8766 H   0  0  0  0  0  0
  -25.1295  -36.1998   25.0811 H   0  0  0  0  0  0
  -20.9946  -28.3213   24.1437 H   0  0  0  0  0  0
  -20.5698  -26.2255   23.3592 H   0  0  0  0  0  0
  -21.6657  -26.7434   22.1204 H   0  0  0  0  0  0
  -19.6900  -25.6292   21.1226 H   0  0  0  0  0  0
  -19.6707  -27.3194   20.6744 H   0  0  0  0  0  0
  -17.4201  -26.6666   21.4025 H   0  0  0  0  0  0
  -18.0322  -26.0048   22.9010 H   0  0  0  0  0  0
  -19.7913  -30.7287   24.2260 H   0  0  0  0  0  0
  -17.5000  -31.6244   24.5205 H   0  0  0  0  0  0
  -15.5349  -30.3002   23.7660 H   0  0  0  0  0  0
  -15.8663  -28.0855   22.6992 H   0  0  0  0  0  0
  -24.5927  -30.7036   25.7822 H   0  0  0  0  0  0
  -24.8943  -32.2840   26.4930 H   0  0  0  0  0  0
  -25.8113  -30.8856   27.0220 H   0  0  0  0  0  0
  -26.2839  -29.6794   24.1154 H   0  0  0  0  0  0
  -27.4095  -29.7288   25.4535 H   0  0  0  0  0  0
  -27.8661  -30.4353   23.9209 H   0  0  0  0  0  0
  -27.2673  -33.3588   26.2083 H   0  0  0  0  0  0
  -28.3842  -32.6879   25.0288 H   0  0  0  0  0  0
  -28.0736  -31.8397   26.5353 H   0  0  0  0  0  0
  -28.2617  -38.0105   24.7514 H   0  0  0  0  0  0
  -28.1076  -36.2633   24.6303 H   0  0  0  0  0  0
  -27.2288  -37.1485   25.8864 H   0  0  0  0  0  0
  -20.9263  -29.8780   21.6988 H   0  0  0  0  0  0
  -26.0197  -38.2874   24.1425 H   0  0  0  0  0  0
  -28.1567  -19.0551   25.5392 H   0  0  0  0  0  0
  -29.6073  -19.2860   21.5117 H   0  0  0  0  0  0
  -25.6967  -22.7415   24.4365 H   0  0  0  0  0  0
  -27.4176  -22.9907   24.6008 H   0  0  0  0  0  0
  -26.6005  -24.6504   23.0367 H   0  0  0  0  0  0
  -25.6582  -23.4830   22.1448 H   0  0  0  0  0  0
  -26.8276  -22.0232   20.3829 H   0  0  0  0  0  0
  -28.5525  -21.8015   20.5703 H   0  0  0  0  0  0
  -29.1148  -21.4474   23.4254 H   0  0  0  0  0  0
  -26.2157  -20.5036   23.9842 H   0  0  0  0  0  0
  -26.9789  -20.0280   21.6663 H   0  0  0  0  0  0
  -28.0303  -16.5550   26.4179 H   0  0  0  0  0  0
  -29.7302  -16.8737   26.7674 H   0  0  0  0  0  0
  -29.2765  -15.4382   25.8503 H   0  0  0  0  0  0
  -31.0071  -18.4187   20.0806 H   0  0  0  0  0  0
  -29.4850  -17.5817   19.7593 H   0  0  0  0  0  0
  -31.0140  -16.9009   19.2376 H   0  0  0  0  0  0
  -28.4410  -24.0501   19.8470 H   0  0  0  0  0  0
  -26.8299  -24.5591   20.2596 H   0  0  0  0  0  0
  -29.4853  -25.6124   21.4031 H   0  0  0  0  0  0
  -27.9440  -26.1435   22.0226 H   0  0  0  0  0  0
  -31.6999  -16.6626   21.6766 H   0  0  0  0  0  0
  -29.2925  -15.1296   21.7763 H   0  0  0  0  0  0
  -28.5869  -23.4169   22.2610 H   0  0  0  0  0  0
  1 25  1  0  0  0
  1 30  2  0  0  0
  1 88  1  0  0  0
  2  3  1  0  0  0
  2 25  1  0  0  0
  2 90  1  0  0  0
  2 91  1  0  0  0
  3  4  1  0  0  0
  3 92  1  0  0  0
  3 93  1  0  0  0
  4  5  1  0  0  0
  4 94  1  0  0  0
  4 95  1  0  0  0
  5  6  1  0  0  0
  5 26  1  0  0  0
  5 96  1  0  0  0
  6 25  1  0  0  0
  6 97  1  0  0  0
  6 98  1  0  0  0
  7  8  2  0  0  0
  7 26  1  0  0  0
  7 29  1  0  0  0
  8  9  1  0  0  0
  8 22  1  0  0  0
  9 10  1  0  0  0
  9 27  2  0  0  0
 10 11  2  0  0  0
 10 15  1  0  0  0
 11 12  1  0  0  0
 11 99  1  0  0  0
 12 13  2  0  0  0
 12100  1  0  0  0
 13 14  1  0  0  0
 13 31  1  0  0  0
 14 15  2  0  0  0
 14101  1  0  0  0
 15102  1  0  0  0
 16 17  2  0  0  0
 16 21  1  0  0  0
 16 31  1  0  0  0
 17 18  1  0  0  0
 17103  1  0  0  0
 18 19  2  0  0  0
 18104  1  0  0  0
 19 20  1  0  0  0
 19 24  1  0  0  0
 20 21  2  0  0  0
 20105  1  0  0  0
 21 23  1  0  0  0
 22 28  1  0  0  0
 22 32  2  0  0  0
 26 27  1  0  0  0
 28106  1  0  0  0
 28107  1  0  0  0
 29108  1  0  0  0
 29109  1  0  0  0
 33 34  1  0  0  0
 33 66  1  0  0  0
 33 70  2  0  0  0
 34 36  1  0  0  0
 34 59  1  0  0  0
 34110  1  0  0  0
 35 44  2  0  0  0
 35 45  1  0  0  0
 35 68  1  0  0  0
 36 56  1  0  0  0
 36111  1  0  0  0
 37 39  1  0  0  0
 37 47  1  0  0  0
 37 66  1  0  0  0
 37112  1  0  0  0
 38 43  2  0  0  0
 38 46  1  0  0  0
 38 47  1  0  0  0
 39 64  1  0  0  0
 39 67  2  0  0  0
 40 52  1  0  0  0
 40 53  2  0  0  0
 40 58  1  0  0  0
 41113  1  0  0  0
 41114  1  0  0  0
 41115  1  0  0  0
 41 48  1  0  0  0
 42 43  1  0  0  0
 42 66  1  0  0  0
 42116  1  0  0  0
 42117  1  0  0  0
 43 44  1  0  0  0
 44118  1  0  0  0
 45 46  2  0  0  0
 45119  1  0  0  0
 46120  1  0  0  0
 47121  1  0  0  0
 47122  1  0  0  0
 48 56  1  0  0  0
 48 65  1  0  0  0
 48123  1  0  0  0
 49 50  1  0  0  0
 49 53  1  0  0  0
 49 64  1  0  0  0
 49124  1  0  0  0
 50 51  1  0  0  0
 50125  1  0  0  0
 50126  1  0  0  0
 51 52  1  0  0  0
 51127  1  0  0  0
 51128  1  0  0  0
 52129  1  0  0  0
 52130  1  0  0  0
 53 54  1  0  0  0
 54 55  2  0  0  0
 54131  1  0  0  0
 55 57  1  0  0  0
 55132  1  0  0  0
 56 69  2  0  0  0
 57 58  2  0  0  0
 57133  1  0  0  0
 58134  1  0  0  0
 59 60  1  0  0  0
 59 61  1  0  0  0
 59 62  1  0  0  0
 60135  1  0  0  0
 60136  1  0  0  0
 60137  1  0  0  0
 61138  1  0  0  0
 61139  1  0  0  0
 61140  1  0  0  0
 62141  1  0  0  0
 62142  1  0  0  0
 62143  1  0  0  0
 63 65  1  0  0  0
 63144  1  0  0  0
 63145  1  0  0  0
 63146  1  0  0  0
 64147  1  0  0  0
 65148  1  0  0  0
 68 85  1  0  0  0
 71 73  2  0  0  0
 71 74  1  0  0  0
 71149  1  0  0  0
 72 73  1  0  0  0
 72 75  2  0  0  0
 72150  1  0  0  0
 73 79  1  0  0  0
 74 82  1  0  0  0
 74 87  2  0  0  0
 75 86  1  0  0  0
 75 87  1  0  0  0
 76 77  1  0  0  0
 76151  1  0  0  0
 76152  1  0  0  0
 76 80  1  0  0  0
 77 89  1  0  0  0
 77153  1  0  0  0
 77154  1  0  0  0
 78 89  1  0  0  0
 78155  1  0  0  0
 78156  1  0  0  0
 78 81  1  0  0  0
 79 80  1  0  0  0
 79 81  1  0  0  0
 79157  1  0  0  0
 80 81  1  0  0  0
 80158  1  0  0  0
 81159  1  0  0  0
 82160  1  0  0  0
 82161  1  0  0  0
 82162  1  0  0  0
 83163  1  0  0  0
 83164  1  0  0  0
 83165  1  0  0  0
 83 86  1  0  0  0
 84 85  1  0  0  0
 84166  1  0  0  0
 84167  1  0  0  0
 84 89  1  0  0  0
 85168  1  0  0  0
 85169  1  0  0  0
 86 88  1  0  0  0
 86170  1  0  0  0
 88171  1  0  0  0
 89172  1  0  0  0
M  CHG  1  89   1
M  ISO  4   1 100  68 101  85 101  88 100
M  END
> <chiral flag>
0

> <version>
0

> <s_m_source_file>
/data/baiqing/PycharmProjects/Reinvent-master-3.2/result/LINK_invent/BTK/process_docking_weight1_custom_sum_contain_oxygen_bond_distance_aromatic_linkinvent_7_9_3/rearranged_h_0121.sdf

> <i_m_source_file_index>
84

> <r_mmod_Potential_Energy-OPLS-2005>
-339.939056396484

> <r_mmod_Stretch_Energy-OPLS-2005>
32.909725189209

> <r_mmod_Bend_Energy-OPLS-2005>
96.3575820922852

> <r_mmod_Torsional_Energy-OPLS-2005>
316.727386474609

> <r_mmod_Improper_Torsional_Energy-OPLS-2005>
2.62321472167969

> <r_mmod_Van_der_Waal_Energy-OPLS-2005>
169.151885986328

> <r_mmod_Electrostatic_Energy-OPLS-2005>
-529.615051269531

> <r_mmod_Solvation_Energy-OPLS-2005>
-436.669158935547

> <b_mmod_Minimization_Converged-OPLS-2005>
0

> <r_mmod_RMS_Derivative-OPLS-2005>
2.6254460811615

$$$$
84
                    3D
 Structure written by MMmdl.
175184  0  0  1  0            999 V2000
  -30.6344  -14.5985   20.4757 C   0  0  0  0  0  0
  -30.4032  -12.3455   19.4753 C   0  0  0  0  0  0
  -29.4915  -12.4889   18.2383 C   0  0  0  0  0  0
  -28.0093  -12.3465   18.6328 C   0  0  0  0  0  0
  -27.6396  -13.2151   19.8642 C   0  0  2  0  0  0
  -28.6768  -13.0748   21.0009 C   0  0  0  0  0  0
  -25.2511  -13.8176   20.5743 C   0  0  0  0  0  0
  -24.1762  -13.0461   20.9227 C   0  0  0  0  0  0
  -24.6296  -11.6936   20.8707 C   0  0  0  0  0  0
  -23.8999  -10.4296   21.0356 C   0  0  0  0  0  0
  -24.3596   -9.4223   21.9149 C   0  0  0  0  0  0
  -23.6295   -8.2243   22.0725 C   0  0  0  0  0  0
  -22.4275   -8.0254   21.3528 C   0  0  0  0  0  0
  -21.9874   -9.0209   20.4614 C   0  0  0  0  0  0
  -22.7166  -10.2099   20.3014 C   0  0  0  0  0  0
  -21.6869   -6.0709   22.5275 C   0  0  0  0  0  0
  -21.4003   -6.5622   23.8199 C   0  0  0  0  0  0
  -21.3678   -5.6785   24.9171 C   0  0  0  0  0  0
  -21.6071   -4.3052   24.7220 C   0  0  0  0  0  0
  -21.8830   -3.8137   23.4332 C   0  0  0  0  0  0
  -21.9185   -4.6939   22.3382 C   0  0  0  0  0  0
  -22.7788  -13.5218   21.1914 C   0  0  0  0  0  0
  -22.1664   -4.2123   21.0967 F   0  0  0  0  0  0
  -21.5625   -3.4541   25.7739 F   0  0  0  0  0  0
  -30.0011  -13.3843   20.4426 N   0  0  0  0  0  0
  -26.2906  -12.9340   20.3326 N   0  0  0  0  0  0
  -25.9236  -11.6520   20.5776 N   0  0  0  0  0  0
  -22.0476  -12.8170   22.0442 N   0  0  0  0  0  0
  -25.4271  -15.1890   20.4178 N   0  0  0  0  0  0
  -31.8034  -14.7355   20.1097 O   0  0  0  0  0  0
  -21.6670   -6.8835   21.4231 O   0  0  0  0  0  0
  -22.3447  -14.5540   20.6768 O   0  0  0  0  0  0
  -24.6204  -31.8622   23.2078 C   0  0  0  0  0  0
  -25.9091  -32.4824   23.8352 C   0  0  1  0  0  0
  -27.2206  -27.3869   20.1432 C   0  0  0  0  0  0
  -25.5950  -33.8609   24.2333 N   0  0  0  0  0  0
  -23.4039  -30.4903   21.5370 C   0  0  2  0  0  0
  -24.8560  -28.9590   20.0975 C   0  0  0  0  0  0
  -22.7405  -29.4647   22.4830 C   0  0  0  0  0  0
  -18.0296  -28.1354   22.8507 C   0  0  0  0  0  0
  -24.1484  -36.7263   23.2636 C   0  0  0  0  0  0
  -25.9283  -30.8273   21.3548 C   0  0  0  0  0  0
  -26.0089  -29.4565   20.7136 C   0  0  0  0  0  0
  -27.1930  -28.6776   20.7358 C   0  0  0  0  0  0
  -26.0606  -26.9289   19.4836 C   0  0  0  0  0  0
  -24.8828  -27.7030   19.4713 C   0  0  0  0  0  0
  -23.6165  -29.8255   20.1493 C   0  0  0  0  0  0
  -25.4101  -36.3050   24.0309 C   0  0  1  0  0  0
  -20.5901  -28.3634   23.1297 C   0  0  2  0  0  0
  -20.6743  -26.9334   22.5422 C   0  0  0  0  0  0
  -19.5723  -26.6337   21.5211 C   0  0  0  0  0  0
  -18.1910  -26.7914   22.1626 C   0  0  0  0  0  0
  -19.1568  -28.8790   23.2935 C   0  0  0  0  0  0
  -18.9481  -30.1395   23.8938 C   0  0  0  0  0  0
  -17.6479  -30.6555   24.0532 C   0  0  0  0  0  0
  -25.9016  -34.9445   23.5071 C   0  0  0  0  0  0
  -16.5382  -29.9033   23.6344 C   0  0  0  0  0  0
  -16.7299  -28.6457   23.0345 C   0  0  0  0  0  0
  -26.4536  -31.6624   25.0701 C   0  0  0  0  0  0
  -25.3789  -31.3750   26.1464 C   0  0  0  0  0  0
  -27.0377  -30.3083   24.6026 C   0  0  0  0  0  0
  -27.6098  -32.4350   25.7469 C   0  0  0  0  0  0
  -27.5544  -37.1773   24.8467 C   0  0  0  0  0  0
  -21.4114  -29.3031   22.3656 N   0  0  0  0  0  0
  -26.4253  -37.3766   23.9426 N   0  0  0  0  0  0
  -24.6684  -31.0752   22.0937 N   0  0  0  0  0  0
  -23.4206  -28.8148   23.2839 O   0  0  0  0  0  0
  -28.3730  -26.6274   20.2454 O   0  0  0  0  0  0
  -26.5515  -34.8897   22.4585 O   0  0  0  0  0  0
  -23.5405  -32.1357   23.7508 O   0  0  0  0  0  0
  -30.5048  -20.7111   21.9356 C   0  0  0  0  0  0
  -29.2366  -20.3644   21.4187 C   0  0  0  0  0  0
  -30.1241  -18.3125   20.6916 C   0  0  0  0  0  0
  -31.4174  -18.8003   21.0383 C   0  0  0  0  0  0
  -33.9355  -19.7927   16.6413 C   0  0  0  0  0  0
  -34.7171  -18.6751   17.3472 C   0  0  0  0  0  0
  -33.3571  -20.7931   17.6488 C   0  0  0  0  0  0
  -33.8619  -17.9895   18.4274 C   0  0  0  0  0  0
  -32.4967  -20.0885   18.7094 C   0  0  0  0  0  0
  -33.3091  -18.9878   19.4682 C   0  0  0  0  0  0
  -26.4574  -24.1336   21.2640 C   0  0  0  0  0  0
  -28.1347  -21.4502   21.4208 C   0  0  0  0  0  0
  -29.9419  -16.9772   19.9126 C   0  0  0  0  0  0
  -28.5287  -22.7390   20.6124 C   0  0  0  0  0  0
  -28.3902  -25.2099   19.9276 C   0  0  0  0  0  0
  -27.9759  -24.1526   21.0164 C   0  0  1  0  0  0
  -31.5987  -19.9484   21.7322 N   0  0  0  0  0  0
  -29.0276  -19.1308   20.8506 N   0  0  0  0  0  0
  -32.5792  -18.2364   20.5031 N   0  0  0  0  0  0
  -29.8264  -15.6797   20.6487 N   0  0  0  0  0  0
  -31.4548  -12.4225   19.1941 H   0  0  0  0  0  0
  -30.2820  -11.3525   19.9154 H   0  0  0  0  0  0
  -29.7418  -11.7268   17.5007 H   0  0  0  0  0  0
  -29.6536  -13.4575   17.7599 H   0  0  0  0  0  0
  -27.8300  -11.2906   18.8452 H   0  0  0  0  0  0
  -27.3621  -12.5959   17.7906 H   0  0  0  0  0  0
  -27.6548  -14.2509   19.5259 H   0  0  0  0  0  0
  -28.6644  -12.0565   21.3977 H   0  0  0  0  0  0
  -28.4245  -13.7258   21.8428 H   0  0  0  0  0  0
  -25.2718   -9.5739   22.4751 H   0  0  0  0  0  0
  -24.0027   -7.4626   22.7435 H   0  0  0  0  0  0
  -21.0819   -8.8672   19.8905 H   0  0  0  0  0  0
  -22.3572  -10.9639   19.6140 H   0  0  0  0  0  0
  -21.1999   -7.6146   23.9687 H   0  0  0  0  0  0
  -21.1506   -6.0529   25.9070 H   0  0  0  0  0  0
  -22.0588   -2.7601   23.2854 H   0  0  0  0  0  0
  -22.4163  -11.9809   22.4777 H   0  0  0  0  0  0
  -21.1075  -13.1086   22.2733 H   0  0  0  0  0  0
  -24.6768  -15.8559   20.5505 H   0  0  0  0  0  0
  -26.2922  -15.6235   20.1245 H   0  0  0  0  0  0
  -26.7109  -32.5615   23.1069 H   0  0  0  0  0  0
  -25.0335  -33.9793   25.0632 H   0  0  0  0  0  0
  -22.7005  -31.3132   21.3967 H   0  0  0  0  0  0
  -23.3756  -35.9597   23.3317 H   0  0  0  0  0  0
  -24.3610  -36.8892   22.2057 H   0  0  0  0  0  0
  -23.7219  -37.6431   23.6691 H   0  0  0  0  0  0
  -26.0119  -31.5818   20.5765 H   0  0  0  0  0  0
  -26.8288  -30.9042   21.9481 H   0  0  0  0  0  0
  -28.0744  -29.0462   21.2465 H   0  0  0  0  0  0
  -26.0440  -25.9719   18.9864 H   0  0  0  0  0  0
  -24.0017  -27.3264   18.9734 H   0  0  0  0  0  0
  -23.7169  -30.6016   19.3916 H   0  0  0  0  0  0
  -22.7460  -29.2382   19.8520 H   0  0  0  0  0  0
  -25.1289  -36.1792   25.0795 H   0  0  0  0  0  0
  -21.0107  -28.3136   24.1373 H   0  0  0  0  0  0
  -20.5539  -26.2210   23.3595 H   0  0  0  0  0  0
  -21.6599  -26.7221   22.1255 H   0  0  0  0  0  0
  -19.6826  -25.6242   21.1204 H   0  0  0  0  0  0
  -19.6682  -27.3183   20.6764 H   0  0  0  0  0  0
  -17.4169  -26.6764   21.4002 H   0  0  0  0  0  0
  -18.0222  -26.0031   22.8980 H   0  0  0  0  0  0
  -19.7958  -30.7185   24.2338 H   0  0  0  0  0  0
  -17.5042  -31.6288   24.5048 H   0  0  0  0  0  0
  -15.5380  -30.2905   23.7658 H   0  0  0  0  0  0
  -15.8726  -28.0780   22.7009 H   0  0  0  0  0  0
  -24.6094  -30.6899   25.7893 H   0  0  0  0  0  0
  -24.8845  -32.2909   26.4726 H   0  0  0  0  0  0
  -25.8226  -30.9167   27.0321 H   0  0  0  0  0  0
  -26.2888  -29.6820   24.1181 H   0  0  0  0  0  0
  -27.4300  -29.7355   25.4443 H   0  0  0  0  0  0
  -27.8648  -30.4493   23.9068 H   0  0  0  0  0  0
  -27.2783  -33.3792   26.1814 H   0  0  0  0  0  0
  -28.4069  -32.6651   25.0379 H   0  0  0  0  0  0
  -28.0526  -31.8556   26.5588 H   0  0  0  0  0  0
  -28.2508  -38.0110   24.7534 H   0  0  0  0  0  0
  -28.1066  -36.2623   24.6255 H   0  0  0  0  0  0
  -27.2284  -37.1362   25.8875 H   0  0  0  0  0  0
  -20.9129  -29.8916   21.7116 H   0  0  0  0  0  0
  -26.0092  -38.2789   24.1584 H   0  0  0  0  0  0
  -30.6613  -21.6664   22.4204 H   0  0  0  0  0  0
  -33.1188  -19.3571   16.0654 H   0  0  0  0  0  0
  -34.5820  -20.3112   15.9313 H   0  0  0  0  0  0
  -35.6219  -19.0901   17.7916 H   0  0  0  0  0  0
  -35.0495  -17.9405   16.6104 H   0  0  0  0  0  0
  -32.7710  -21.5545   17.1297 H   0  0  0  0  0  0
  -34.1739  -21.3235   18.1399 H   0  0  0  0  0  0
  -34.4538  -17.2119   18.9156 H   0  0  0  0  0  0
  -33.0298  -17.4830   17.9346 H   0  0  0  0  0  0
  -31.6083  -19.6646   18.2349 H   0  0  0  0  0  0
  -32.1366  -20.8625   19.3828 H   0  0  0  0  0  0
  -34.1655  -19.4555   19.9607 H   0  0  0  0  0  0
  -26.1693  -23.3603   21.9778 H   0  0  0  0  0  0
  -25.9061  -23.9641   20.3388 H   0  0  0  0  0  0
  -26.1224  -25.0840   21.6852 H   0  0  0  0  0  0
  -27.9116  -21.7274   22.4562 H   0  0  0  0  0  0
  -27.2117  -21.0364   21.0103 H   0  0  0  0  0  0
  -29.0541  -17.0777   19.2900 H   0  0  0  0  0  0
  -30.7518  -16.8999   19.1848 H   0  0  0  0  0  0
  -28.3390  -22.5612   19.5542 H   0  0  0  0  0  0
  -29.6087  -22.8454   20.6870 H   0  0  0  0  0  0
  -27.8981  -24.9913   18.9813 H   0  0  0  0  0  0
  -29.4406  -25.0281   19.7036 H   0  0  0  0  0  0
  -28.4572  -24.4264   21.9600 H   0  0  0  0  0  0
  -32.4530  -17.2666   20.2318 H   0  0  0  0  0  0
  -28.9000  -15.4744   20.9888 H   0  0  0  0  0  0
  1 25  1  0  0  0
  1 30  2  0  0  0
  1 90  1  0  0  0
  2  3  1  0  0  0
  2 25  1  0  0  0
  2 91  1  0  0  0
  2 92  1  0  0  0
  3  4  1  0  0  0
  3 93  1  0  0  0
  3 94  1  0  0  0
  4  5  1  0  0  0
  4 95  1  0  0  0
  4 96  1  0  0  0
  5  6  1  0  0  0
  5 26  1  0  0  0
  5 97  1  0  0  0
  6 25  1  0  0  0
  6 98  1  0  0  0
  6 99  1  0  0  0
  7  8  2  0  0  0
  7 26  1  0  0  0
  7 29  1  0  0  0
  8  9  1  0  0  0
  8 22  1  0  0  0
  9 10  1  0  0  0
  9 27  2  0  0  0
 10 11  2  0  0  0
 10 15  1  0  0  0
 11 12  1  0  0  0
 11100  1  0  0  0
 12 13  2  0  0  0
 12101  1  0  0  0
 13 14  1  0  0  0
 13 31  1  0  0  0
 14 15  2  0  0  0
 14102  1  0  0  0
 15103  1  0  0  0
 16 17  2  0  0  0
 16 21  1  0  0  0
 16 31  1  0  0  0
 17 18  1  0  0  0
 17104  1  0  0  0
 18 19  2  0  0  0
 18105  1  0  0  0
 19 20  1  0  0  0
 19 24  1  0  0  0
 20 21  2  0  0  0
 20106  1  0  0  0
 21 23  1  0  0  0
 22 28  1  0  0  0
 22 32  2  0  0  0
 26 27  1  0  0  0
 28107  1  0  0  0
 28108  1  0  0  0
 29109  1  0  0  0
 29110  1  0  0  0
 33 34  1  0  0  0
 33 66  1  0  0  0
 33 70  2  0  0  0
 34 36  1  0  0  0
 34 59  1  0  0  0
 34111  1  0  0  0
 35 44  2  0  0  0
 35 45  1  0  0  0
 35 68  1  0  0  0
 36 56  1  0  0  0
 36112  1  0  0  0
 37 39  1  0  0  0
 37 47  1  0  0  0
 37 66  1  0  0  0
 37113  1  0  0  0
 38 43  2  0  0  0
 38 46  1  0  0  0
 38 47  1  0  0  0
 39 64  1  0  0  0
 39 67  2  0  0  0
 40 52  1  0  0  0
 40 53  2  0  0  0
 40 58  1  0  0  0
 41114  1  0  0  0
 41115  1  0  0  0
 41116  1  0  0  0
 41 48  1  0  0  0
 42 43  1  0  0  0
 42 66  1  0  0  0
 42117  1  0  0  0
 42118  1  0  0  0
 43 44  1  0  0  0
 44119  1  0  0  0
 45 46  2  0  0  0
 45120  1  0  0  0
 46121  1  0  0  0
 47122  1  0  0  0
 47123  1  0  0  0
 48 56  1  0  0  0
 48 65  1  0  0  0
 48124  1  0  0  0
 49 50  1  0  0  0
 49 53  1  0  0  0
 49 64  1  0  0  0
 49125  1  0  0  0
 50 51  1  0  0  0
 50126  1  0  0  0
 50127  1  0  0  0
 51 52  1  0  0  0
 51128  1  0  0  0
 51129  1  0  0  0
 52130  1  0  0  0
 52131  1  0  0  0
 53 54  1  0  0  0
 54 55  2  0  0  0
 54132  1  0  0  0
 55 57  1  0  0  0
 55133  1  0  0  0
 56 69  2  0  0  0
 57 58  2  0  0  0
 57134  1  0  0  0
 58135  1  0  0  0
 59 60  1  0  0  0
 59 61  1  0  0  0
 59 62  1  0  0  0
 60136  1  0  0  0
 60137  1  0  0  0
 60138  1  0  0  0
 61139  1  0  0  0
 61140  1  0  0  0
 61141  1  0  0  0
 62142  1  0  0  0
 62143  1  0  0  0
 62144  1  0  0  0
 63 65  1  0  0  0
 63145  1  0  0  0
 63146  1  0  0  0
 63147  1  0  0  0
 64148  1  0  0  0
 65149  1  0  0  0
 68 85  1  0  0  0
 71 72  2  0  0  0
 71 87  1  0  0  0
 71150  1  0  0  0
 72 82  1  0  0  0
 72 88  1  0  0  0
 73 74  1  0  0  0
 73 83  1  0  0  0
 73 88  2  0  0  0
 74 87  2  0  0  0
 74 89  1  0  0  0
 75 76  1  0  0  0
 75 77  1  0  0  0
 75151  1  0  0  0
 75152  1  0  0  0
 76 78  1  0  0  0
 76153  1  0  0  0
 76154  1  0  0  0
 77 79  1  0  0  0
 77155  1  0  0  0
 77156  1  0  0  0
 78 80  1  0  0  0
 78157  1  0  0  0
 78158  1  0  0  0
 79 80  1  0  0  0
 79159  1  0  0  0
 79160  1  0  0  0
 80 89  1  0  0  0
 80161  1  0  0  0
 81162  1  0  0  0
 81163  1  0  0  0
 81164  1  0  0  0
 81 86  1  0  0  0
 82 84  1  0  0  0
 82165  1  0  0  0
 82166  1  0  0  0
 83 90  1  0  0  0
 83167  1  0  0  0
 83168  1  0  0  0
 84 86  1  0  0  0
 84169  1  0  0  0
 84170  1  0  0  0
 85 86  1  0  0  0
 85171  1  0  0  0
 85172  1  0  0  0
 86173  1  0  0  0
 89174  1  0  0  0
 90175  1  0  0  0
M  ISO  4   1 100  68 101  85 101  90 100
M  END
> <chiral flag>
0

> <version>
0

> <s_m_source_file>
/data/baiqing/PycharmProjects/Reinvent-master-3.2/result/LINK_invent/BTK/process_docking_weight1_custom_sum_contain_oxygen_bond_distance_aromatic_linkinvent_7_9_3/rearranged_h_0121.sdf

> <i_m_source_file_index>
85

> <r_mmod_Potential_Energy-OPLS-2005>
60.0098304748535

> <r_mmod_Stretch_Energy-OPLS-2005>
60.828254699707

> <r_mmod_Bend_Energy-OPLS-2005>
145.996734619141

> <r_mmod_Torsional_Energy-OPLS-2005>
263.932800292969

> <r_mmod_Improper_Torsional_Energy-OPLS-2005>
15.6175374984741

> <r_mmod_Van_der_Waal_Energy-OPLS-2005>
152.5810546875

> <r_mmod_Electrostatic_Energy-OPLS-2005>
-389.814331054688

> <r_mmod_Solvation_Energy-OPLS-2005>
-224.374435424805

> <b_mmod_Minimization_Converged-OPLS-2005>
0

> <r_mmod_RMS_Derivative-OPLS-2005>
7.32375764846802

$$$$
85
                    3D
 Structure written by MMmdl.
172181  0  0  1  0            999 V2000
  -30.6589  -14.7679   20.3939 C   0  0  0  0  0  0
  -30.4140  -12.4529   19.4762 C   0  0  0  0  0  0
  -29.5110  -12.5137   18.2279 C   0  0  0  0  0  0
  -28.0343  -12.3517   18.6380 C   0  0  0  0  0  0
  -27.6422  -13.2518   19.8432 C   0  0  2  0  0  0
  -28.6954  -13.2257   20.9762 C   0  0  0  0  0  0
  -25.2522  -13.8224   20.5714 C   0  0  0  0  0  0
  -24.1829  -13.0435   20.9196 C   0  0  0  0  0  0
  -24.6455  -11.6918   20.8728 C   0  0  0  0  0  0
  -23.9129  -10.4279   21.0347 C   0  0  0  0  0  0
  -24.3675   -9.4192   21.9135 C   0  0  0  0  0  0
  -23.6338   -8.2225   22.0736 C   0  0  0  0  0  0
  -22.4313   -8.0273   21.3525 C   0  0  0  0  0  0
  -21.9954   -9.0245   20.4633 C   0  0  0  0  0  0
  -22.7285  -10.2116   20.3008 C   0  0  0  0  0  0
  -21.6863   -6.0723   22.5254 C   0  0  0  0  0  0
  -21.4011   -6.5623   23.8193 C   0  0  0  0  0  0
  -21.3675   -5.6782   24.9161 C   0  0  0  0  0  0
  -21.6053   -4.3041   24.7200 C   0  0  0  0  0  0
  -21.8818   -3.8125   23.4324 C   0  0  0  0  0  0
  -21.9195   -4.6948   22.3382 C   0  0  0  0  0  0
  -22.7838  -13.5184   21.1832 C   0  0  0  0  0  0
  -22.1654   -4.2124   21.0963 F   0  0  0  0  0  0
  -21.5669   -3.4530   25.7717 F   0  0  0  0  0  0
  -29.9922  -13.5569   20.3763 N   0  0  0  0  0  0
  -26.2990  -12.9483   20.3300 N   0  0  0  0  0  0
  -25.9402  -11.6593   20.5731 N   0  0  0  0  0  0
  -22.0503  -12.8191   22.0419 N   0  0  0  0  0  0
  -25.4177  -15.1948   20.4119 N   0  0  0  0  0  0
  -31.8394  -14.7713   20.0469 O   0  0  0  0  0  0
  -21.6657   -6.8865   21.4217 O   0  0  0  0  0  0
  -22.3498  -14.5455   20.6645 O   0  0  0  0  0  0
  -24.6374  -31.8478   23.1943 C   0  0  0  0  0  0
  -25.9175  -32.4705   23.8314 C   0  0  1  0  0  0
  -27.2100  -27.2115   20.1599 C   0  0  0  0  0  0
  -25.5995  -33.8509   24.2273 N   0  0  0  0  0  0
  -23.4365  -30.4741   21.5324 C   0  0  2  0  0  0
  -24.8874  -28.9155   20.1061 C   0  0  0  0  0  0
  -22.7525  -29.4592   22.4825 C   0  0  0  0  0  0
  -18.0306  -28.1355   22.8470 C   0  0  0  0  0  0
  -24.1497  -36.7249   23.2628 C   0  0  0  0  0  0
  -25.9861  -30.7538   21.3789 C   0  0  0  0  0  0
  -26.0608  -29.3696   20.7262 C   0  0  0  0  0  0
  -27.2281  -28.5330   20.7350 C   0  0  0  0  0  0
  -26.0247  -26.8482   19.4886 C   0  0  0  0  0  0
  -24.8801  -27.6654   19.4707 C   0  0  0  0  0  0
  -23.6612  -29.8073   20.1481 C   0  0  0  0  0  0
  -25.4101  -36.3036   24.0355 C   0  0  1  0  0  0
  -20.5915  -28.3697   23.1226 C   0  0  2  0  0  0
  -20.6774  -26.9403   22.5383 C   0  0  0  0  0  0
  -19.5762  -26.6368   21.5175 C   0  0  0  0  0  0
  -18.1948  -26.7910   22.1597 C   0  0  0  0  0  0
  -19.1557  -28.8846   23.2851 C   0  0  0  0  0  0
  -18.9483  -30.1434   23.8881 C   0  0  0  0  0  0
  -17.6481  -30.6568   24.0552 C   0  0  0  0  0  0
  -25.9063  -34.9413   23.5115 C   0  0  0  0  0  0
  -16.5367  -29.9060   23.6327 C   0  0  0  0  0  0
  -16.7286  -28.6473   23.0361 C   0  0  0  0  0  0
  -26.4553  -31.6503   25.0679 C   0  0  0  0  0  0
  -25.3804  -31.3607   26.1419 C   0  0  0  0  0  0
  -27.0384  -30.2914   24.6153 C   0  0  0  0  0  0
  -27.6154  -32.4205   25.7423 C   0  0  0  0  0  0
  -27.5603  -37.1742   24.8442 C   0  0  0  0  0  0
  -21.4214  -29.3055   22.3602 N   0  0  0  0  0  0
  -26.4256  -37.3772   23.9476 N   0  0  0  0  0  0
  -24.7052  -31.0459   22.0906 N   0  0  0  0  0  0
  -23.4209  -28.8116   23.2931 O   0  0  0  0  0  0
  -28.2580  -26.2493   20.2131 O   0  0  0  0  0  0
  -26.5612  -34.8913   22.4659 O   0  0  0  0  0  0
  -23.5518  -32.1289   23.7247 O   0  0  0  0  0  0
  -30.3458  -21.3830   20.5339 C   0  0  0  0  0  0
  -28.0306  -20.6357   20.2308 C   0  0  0  0  0  0
  -29.8715  -22.8802   20.8278 C   0  0  0  0  0  0
  -27.5383  -22.1487   20.4386 C   0  0  0  0  0  0
  -31.9314  -17.6521   20.5158 C   0  0  0  0  0  0
  -29.3428  -20.2522   20.9940 C   0  0  1  0  0  0
  -29.8035  -18.6784   21.3725 C   0  0  1  0  0  0
  -28.5229  -23.3761   20.1870 C   0  0  1  0  0  0
  -30.3872  -17.4792   20.4020 C   0  0  2  0  0  0
  -31.0100  -18.8644   22.3432 C   0  0  1  0  0  0
  -30.8712  -16.4931   23.5392 C   0  0  0  0  0  0
  -32.3848  -18.2976   24.4378 C   0  0  0  0  0  0
  -27.9254  -24.8363   20.6937 C   0  0  0  0  0  0
  -31.0849  -18.0137   23.6545 C   0  0  0  0  0  0
  -29.9774  -15.9771   20.5921 N   0  0  0  0  0  0
  -32.1938  -18.7219   21.4804 N   0  3  0  0  0  0
  -31.4681  -12.5094   19.1922 H   0  0  0  0  0  0
  -30.2996  -11.4877   19.9733 H   0  0  0  0  0  0
  -29.7913  -11.7365   17.5160 H   0  0  0  0  0  0
  -29.6525  -13.4640   17.7097 H   0  0  0  0  0  0
  -27.8751  -11.3029   18.8882 H   0  0  0  0  0  0
  -27.3826  -12.5576   17.7876 H   0  0  0  0  0  0
  -27.6205  -14.2698   19.4527 H   0  0  0  0  0  0
  -28.7381  -12.2423   21.4456 H   0  0  0  0  0  0
  -28.4478  -13.9351   21.7672 H   0  0  0  0  0  0
  -25.2828   -9.5658   22.4704 H   0  0  0  0  0  0
  -24.0049   -7.4613   22.7471 H   0  0  0  0  0  0
  -21.0866   -8.8749   19.8968 H   0  0  0  0  0  0
  -22.3731  -10.9643   19.6106 H   0  0  0  0  0  0
  -21.1976   -7.6126   23.9685 H   0  0  0  0  0  0
  -21.1526   -6.0509   25.9072 H   0  0  0  0  0  0
  -22.0593   -2.7579   23.2815 H   0  0  0  0  0  0
  -22.4165  -11.9890   22.4839 H   0  0  0  0  0  0
  -21.1088  -13.1144   22.2546 H   0  0  0  0  0  0
  -24.6481  -15.8461   20.5172 H   0  0  0  0  0  0
  -26.2659  -15.6330   20.0781 H   0  0  0  0  0  0
  -26.7233  -32.5362   23.1052 H   0  0  0  0  0  0
  -25.0239  -33.9616   25.0491 H   0  0  0  0  0  0
  -22.7361  -31.2973   21.3807 H   0  0  0  0  0  0
  -23.3815  -35.9517   23.3138 H   0  0  0  0  0  0
  -24.3670  -36.8981   22.2080 H   0  0  0  0  0  0
  -23.7153  -37.6376   23.6716 H   0  0  0  0  0  0
  -26.1299  -31.5121   20.6079 H   0  0  0  0  0  0
  -26.8632  -30.8067   22.0123 H   0  0  0  0  0  0
  -28.1226  -28.8755   21.2388 H   0  0  0  0  0  0
  -25.9663  -25.8894   18.9950 H   0  0  0  0  0  0
  -23.9919  -27.3149   18.9628 H   0  0  0  0  0  0
  -23.7939  -30.5810   19.3905 H   0  0  0  0  0  0
  -22.7794  -29.2416   19.8386 H   0  0  0  0  0  0
  -25.1246  -36.1862   25.0845 H   0  0  0  0  0  0
  -21.0035  -28.3272   24.1333 H   0  0  0  0  0  0
  -20.5613  -26.2307   23.3587 H   0  0  0  0  0  0
  -21.6646  -26.7369   22.1209 H   0  0  0  0  0  0
  -19.6906  -25.6281   21.1199 H   0  0  0  0  0  0
  -19.6692  -27.3166   20.6702 H   0  0  0  0  0  0
  -17.4207  -26.6657   21.4003 H   0  0  0  0  0  0
  -18.0354  -26.0025   22.8971 H   0  0  0  0  0  0
  -19.7960  -30.7245   24.2234 H   0  0  0  0  0  0
  -17.5042  -31.6246   24.5141 H   0  0  0  0  0  0
  -15.5370  -30.2965   23.7651 H   0  0  0  0  0  0
  -15.8679  -28.0779   22.7099 H   0  0  0  0  0  0
  -24.6145  -30.6730   25.7801 H   0  0  0  0  0  0
  -24.8800  -32.2711   26.4728 H   0  0  0  0  0  0
  -25.8215  -30.8960   27.0248 H   0  0  0  0  0  0
  -26.2919  -29.6627   24.1287 H   0  0  0  0  0  0
  -27.4163  -29.7221   25.4655 H   0  0  0  0  0  0
  -27.8772  -30.4144   23.9300 H   0  0  0  0  0  0
  -27.2860  -33.3587   26.1901 H   0  0  0  0  0  0
  -28.4030  -32.6587   25.0254 H   0  0  0  0  0  0
  -28.0744  -31.8339   26.5394 H   0  0  0  0  0  0
  -28.2461  -38.0197   24.7761 H   0  0  0  0  0  0
  -28.1265  -36.2774   24.5909 H   0  0  0  0  0  0
  -27.2402  -37.0928   25.8842 H   0  0  0  0  0  0
  -20.9377  -29.8829   21.6858 H   0  0  0  0  0  0
  -26.0113  -38.2797   24.1636 H   0  0  0  0  0  0
  -31.3110  -21.2697   21.0230 H   0  0  0  0  0  0
  -30.5569  -21.2669   19.4700 H   0  0  0  0  0  0
  -28.1539  -20.4396   19.1653 H   0  0  0  0  0  0
  -27.2290  -19.9724   20.5638 H   0  0  0  0  0  0
  -30.6628  -23.5674   20.5277 H   0  0  0  0  0  0
  -29.7983  -22.9965   21.9103 H   0  0  0  0  0  0
  -27.1714  -22.2258   21.4642 H   0  0  0  0  0  0
  -26.6557  -22.2956   19.8138 H   0  0  0  0  0  0
  -32.3984  -17.8749   19.5544 H   0  0  0  0  0  0
  -32.4574  -16.8054   20.9422 H   0  0  0  0  0  0
  -29.0766  -20.5837   21.9985 H   0  0  0  0  0  0
  -28.9603  -18.2563   21.9214 H   0  0  0  0  0  0
  -28.6571  -23.4522   19.1066 H   0  0  0  0  0  0
  -30.0942  -17.7305   19.3796 H   0  0  0  0  0  0
  -31.0345  -19.8866   22.7226 H   0  0  0  0  0  0
  -29.9029  -16.2593   23.1030 H   0  0  0  0  0  0
  -30.8673  -16.0241   24.5231 H   0  0  0  0  0  0
  -31.6558  -16.0006   22.9669 H   0  0  0  0  0  0
  -32.5252  -19.3668   24.6056 H   0  0  0  0  0  0
  -33.2690  -17.9217   23.9213 H   0  0  0  0  0  0
  -32.3710  -17.8191   25.4178 H   0  0  0  0  0  0
  -28.0988  -24.8724   21.7704 H   0  0  0  0  0  0
  -26.8443  -24.7154   20.6387 H   0  0  0  0  0  0
  -30.2695  -18.3740   24.2831 H   0  0  0  0  0  0
  -29.0079  -15.8516   20.8390 H   0  0  0  0  0  0
  -32.3295  -19.5733   20.9617 H   0  0  0  0  0  0
  -33.0287  -18.5366   22.0139 H   0  0  0  0  0  0
  1 25  1  0  0  0
  1 30  2  0  0  0
  1 85  1  0  0  0
  2  3  1  0  0  0
  2 25  1  0  0  0
  2 87  1  0  0  0
  2 88  1  0  0  0
  3  4  1  0  0  0
  3 89  1  0  0  0
  3 90  1  0  0  0
  4  5  1  0  0  0
  4 91  1  0  0  0
  4 92  1  0  0  0
  5  6  1  0  0  0
  5 26  1  0  0  0
  5 93  1  0  0  0
  6 25  1  0  0  0
  6 94  1  0  0  0
  6 95  1  0  0  0
  7  8  2  0  0  0
  7 26  1  0  0  0
  7 29  1  0  0  0
  8  9  1  0  0  0
  8 22  1  0  0  0
  9 10  1  0  0  0
  9 27  2  0  0  0
 10 11  2  0  0  0
 10 15  1  0  0  0
 11 12  1  0  0  0
 11 96  1  0  0  0
 12 13  2  0  0  0
 12 97  1  0  0  0
 13 14  1  0  0  0
 13 31  1  0  0  0
 14 15  2  0  0  0
 14 98  1  0  0  0
 15 99  1  0  0  0
 16 17  2  0  0  0
 16 21  1  0  0  0
 16 31  1  0  0  0
 17 18  1  0  0  0
 17100  1  0  0  0
 18 19  2  0  0  0
 18101  1  0  0  0
 19 20  1  0  0  0
 19 24  1  0  0  0
 20 21  2  0  0  0
 20102  1  0  0  0
 21 23  1  0  0  0
 22 28  1  0  0  0
 22 32  2  0  0  0
 26 27  1  0  0  0
 28103  1  0  0  0
 28104  1  0  0  0
 29105  1  0  0  0
 29106  1  0  0  0
 33 34  1  0  0  0
 33 66  1  0  0  0
 33 70  2  0  0  0
 34 36  1  0  0  0
 34 59  1  0  0  0
 34107  1  0  0  0
 35 44  2  0  0  0
 35 45  1  0  0  0
 35 68  1  0  0  0
 36 56  1  0  0  0
 36108  1  0  0  0
 37 39  1  0  0  0
 37 47  1  0  0  0
 37 66  1  0  0  0
 37109  1  0  0  0
 38 43  2  0  0  0
 38 46  1  0  0  0
 38 47  1  0  0  0
 39 64  1  0  0  0
 39 67  2  0  0  0
 40 52  1  0  0  0
 40 53  2  0  0  0
 40 58  1  0  0  0
 41110  1  0  0  0
 41111  1  0  0  0
 41112  1  0  0  0
 41 48  1  0  0  0
 42 43  1  0  0  0
 42 66  1  0  0  0
 42113  1  0  0  0
 42114  1  0  0  0
 43 44  1  0  0  0
 44115  1  0  0  0
 45 46  2  0  0  0
 45116  1  0  0  0
 46117  1  0  0  0
 47118  1  0  0  0
 47119  1  0  0  0
 48 56  1  0  0  0
 48 65  1  0  0  0
 48120  1  0  0  0
 49 50  1  0  0  0
 49 53  1  0  0  0
 49 64  1  0  0  0
 49121  1  0  0  0
 50 51  1  0  0  0
 50122  1  0  0  0
 50123  1  0  0  0
 51 52  1  0  0  0
 51124  1  0  0  0
 51125  1  0  0  0
 52126  1  0  0  0
 52127  1  0  0  0
 53 54  1  0  0  0
 54 55  2  0  0  0
 54128  1  0  0  0
 55 57  1  0  0  0
 55129  1  0  0  0
 56 69  2  0  0  0
 57 58  2  0  0  0
 57130  1  0  0  0
 58131  1  0  0  0
 59 60  1  0  0  0
 59 61  1  0  0  0
 59 62  1  0  0  0
 60132  1  0  0  0
 60133  1  0  0  0
 60134  1  0  0  0
 61135  1  0  0  0
 61136  1  0  0  0
 61137  1  0  0  0
 62138  1  0  0  0
 62139  1  0  0  0
 62140  1  0  0  0
 63 65  1  0  0  0
 63141  1  0  0  0
 63142  1  0  0  0
 63143  1  0  0  0
 64144  1  0  0  0
 65145  1  0  0  0
 68 83  1  0  0  0
 71 73  1  0  0  0
 71146  1  0  0  0
 71147  1  0  0  0
 71 76  1  0  0  0
 72 74  1  0  0  0
 72 76  1  0  0  0
 72148  1  0  0  0
 72149  1  0  0  0
 73 78  1  0  0  0
 73150  1  0  0  0
 73151  1  0  0  0
 74 78  1  0  0  0
 74152  1  0  0  0
 74153  1  0  0  0
 75 79  1  0  0  0
 75 86  1  0  0  0
 75154  1  0  0  0
 75155  1  0  0  0
 76156  1  0  0  0
 76 77  1  0  0  0
 77 79  1  0  0  0
 77 80  1  0  0  0
 77157  1  0  0  0
 78 83  1  0  0  0
 78158  1  0  0  0
 79 85  1  0  0  0
 79159  1  0  0  0
 80 84  1  0  0  0
 80 86  1  0  0  0
 80160  1  0  0  0
 81161  1  0  0  0
 81162  1  0  0  0
 81163  1  0  0  0
 81 84  1  0  0  0
 82 84  1  0  0  0
 82164  1  0  0  0
 82165  1  0  0  0
 82166  1  0  0  0
 83167  1  0  0  0
 83168  1  0  0  0
 84169  1  0  0  0
 85170  1  0  0  0
 86171  1  0  0  0
 86172  1  0  0  0
M  CHG  1  86   1
M  ISO  4   1 100  68 101  83 101  85 100
M  END
> <chiral flag>
0

> <version>
0

> <s_m_source_file>
/data/baiqing/PycharmProjects/Reinvent-master-3.2/result/LINK_invent/BTK/process_docking_weight1_custom_sum_contain_oxygen_bond_distance_aromatic_linkinvent_7_9_3/rearranged_h_0121.sdf

> <i_m_source_file_index>
86

> <r_mmod_Potential_Energy-OPLS-2005>
365.412902832031

> <r_mmod_Stretch_Energy-OPLS-2005>
185.260894775391

> <r_mmod_Bend_Energy-OPLS-2005>
309.856414794922

> <r_mmod_Torsional_Energy-OPLS-2005>
370.971618652344

> <r_mmod_Improper_Torsional_Energy-OPLS-2005>
4.49165058135986

> <r_mmod_Van_der_Waal_Energy-OPLS-2005>
131.403717041016

> <r_mmod_Electrostatic_Energy-OPLS-2005>
-317.673248291016

> <r_mmod_Solvation_Energy-OPLS-2005>
-430.908935546875

> <b_mmod_Minimization_Converged-OPLS-2005>
0

> <r_mmod_RMS_Derivative-OPLS-2005>
4.13863754272461

$$$$
86
                    3D
 Structure written by MMmdl.
158167  0  0  1  0            999 V2000
  -30.8059  -14.4224   20.6366 C   0  0  0  0  0  0
  -30.4076  -12.2967   19.4510 C   0  0  0  0  0  0
  -29.4960  -12.5159   18.2247 C   0  0  0  0  0  0
  -28.0117  -12.4015   18.6131 C   0  0  0  0  0  0
  -27.6681  -13.2218   19.8820 C   0  0  2  0  0  0
  -28.7061  -12.9811   21.0019 C   0  0  0  0  0  0
  -25.2570  -13.8204   20.5673 C   0  0  0  0  0  0
  -24.1847  -13.0468   20.9165 C   0  0  0  0  0  0
  -24.6423  -11.6952   20.8761 C   0  0  0  0  0  0
  -23.9083  -10.4312   21.0439 C   0  0  0  0  0  0
  -24.3626   -9.4219   21.9207 C   0  0  0  0  0  0
  -23.6300   -8.2252   22.0756 C   0  0  0  0  0  0
  -22.4272   -8.0284   21.3555 C   0  0  0  0  0  0
  -21.9917   -9.0262   20.4656 C   0  0  0  0  0  0
  -22.7261  -10.2146   20.3076 C   0  0  0  0  0  0
  -21.6858   -6.0753   22.5308 C   0  0  0  0  0  0
  -21.4004   -6.5645   23.8246 C   0  0  0  0  0  0
  -21.3659   -5.6795   24.9193 C   0  0  0  0  0  0
  -21.6038   -4.3058   24.7230 C   0  0  0  0  0  0
  -21.8811   -3.8150   23.4333 C   0  0  0  0  0  0
  -21.9194   -4.6985   22.3402 C   0  0  0  0  0  0
  -22.7861  -13.5224   21.1826 C   0  0  0  0  0  0
  -22.1662   -4.2169   21.0975 F   0  0  0  0  0  0
  -21.5643   -3.4535   25.7734 F   0  0  0  0  0  0
  -30.0635  -13.2777   20.5056 N   0  0  0  0  0  0
  -26.3052  -12.9419   20.3410 N   0  0  0  0  0  0
  -25.9353  -11.6554   20.5817 N   0  0  0  0  0  0
  -22.0417  -12.8290   22.0386 N   0  0  0  0  0  0
  -25.4199  -15.1905   20.4092 N   0  0  0  0  0  0
  -31.7499  -14.6645   19.8783 O   0  0  0  0  0  0
  -21.6622   -6.8901   21.4275 O   0  0  0  0  0  0
  -22.3584  -14.5532   20.6661 O   0  0  0  0  0  0
  -24.6112  -31.8717   23.2135 C   0  0  0  0  0  0
  -25.9028  -32.4851   23.8427 C   0  0  1  0  0  0
  -27.2483  -27.4433   20.1157 C   0  0  0  0  0  0
  -25.5889  -33.8656   24.2358 N   0  0  0  0  0  0
  -23.4011  -30.4971   21.5524 C   0  0  2  0  0  0
  -24.8551  -28.9702   20.1139 C   0  0  0  0  0  0
  -22.7407  -29.4665   22.4984 C   0  0  0  0  0  0
  -18.0274  -28.1380   22.8525 C   0  0  0  0  0  0
  -24.1481  -36.7317   23.2636 C   0  0  0  0  0  0
  -25.9294  -30.8415   21.3708 C   0  0  0  0  0  0
  -26.0077  -29.4764   20.7223 C   0  0  0  0  0  0
  -27.2016  -28.7178   20.7289 C   0  0  0  0  0  0
  -26.0857  -26.9841   19.4496 C   0  0  0  0  0  0
  -24.8893  -27.7230   19.4693 C   0  0  0  0  0  0
  -23.6135  -29.8348   20.1627 C   0  0  0  0  0  0
  -25.4100  -36.3127   24.0342 C   0  0  1  0  0  0
  -20.5865  -28.3665   23.1344 C   0  0  2  0  0  0
  -20.6763  -26.9416   22.5418 C   0  0  0  0  0  0
  -19.5728  -26.6388   21.5225 C   0  0  0  0  0  0
  -18.1918  -26.7935   22.1640 C   0  0  0  0  0  0
  -19.1529  -28.8845   23.2930 C   0  0  0  0  0  0
  -18.9444  -30.1460   23.8914 C   0  0  0  0  0  0
  -17.6433  -30.6586   24.0592 C   0  0  0  0  0  0
  -25.9020  -34.9487   23.5150 C   0  0  0  0  0  0
  -16.5334  -29.9096   23.6325 C   0  0  0  0  0  0
  -16.7258  -28.6524   23.0351 C   0  0  0  0  0  0
  -26.4451  -31.6619   25.0754 C   0  0  0  0  0  0
  -25.3707  -31.3733   26.1498 C   0  0  0  0  0  0
  -27.0266  -30.3044   24.6142 C   0  0  0  0  0  0
  -27.6051  -32.4309   25.7498 C   0  0  0  0  0  0
  -27.5583  -37.1820   24.8465 C   0  0  0  0  0  0
  -21.4144  -29.3042   22.3741 N   0  0  0  0  0  0
  -26.4292  -37.3819   23.9418 N   0  0  0  0  0  0
  -24.6638  -31.0857   22.1018 N   0  0  0  0  0  0
  -23.4178  -28.8219   23.3029 O   0  0  0  0  0  0
  -28.4265  -26.7119   20.2009 O   0  0  0  0  0  0
  -26.5590  -34.8939   22.4699 O   0  0  0  0  0  0
  -23.5312  -32.1431   23.7556 O   0  0  0  0  0  0
  -30.9224  -21.5447   21.1533 C   0  0  0  0  0  0
  -28.8133  -20.4567   20.8216 C   0  0  0  0  0  0
  -29.5740  -21.6419   20.7758 C   0  0  0  0  0  0
  -31.4539  -20.2840   21.5279 C   0  0  0  0  0  0
  -30.6125  -19.1184   21.5183 C   0  0  0  0  0  0
  -31.0911  -17.7014   21.8700 C   0  0  0  0  0  0
  -29.9495  -15.4868   22.8627 C   0  0  0  0  0  0
  -30.0815  -16.5498   21.7534 C   0  0  2  0  0  0
  -32.9298  -20.2395   21.8968 C   0  0  0  0  0  0
  -28.9472  -22.9078   20.1625 C   0  0  0  0  0  0
  -29.2160  -24.3402   20.7152 C   0  0  0  0  0  0
  -28.4288  -25.3278   19.8097 C   0  0  0  0  0  0
  -29.3077  -19.2517   21.1738 N   0  0  0  0  0  0
  -30.7072  -15.2572   21.6924 N   0  0  0  0  0  0
  -32.2325  -17.4524   22.2773 O   0  0  0  0  0  0
  -31.4566  -12.3491   19.1589 H   0  0  0  0  0  0
  -30.2800  -11.2833   19.8349 H   0  0  0  0  0  0
  -29.7303  -11.7867   17.4458 H   0  0  0  0  0  0
  -29.6922  -13.4950   17.7873 H   0  0  0  0  0  0
  -27.7792  -11.3491   18.7773 H   0  0  0  0  0  0
  -27.3754  -12.7242   17.7881 H   0  0  0  0  0  0
  -27.7277  -14.2765   19.6070 H   0  0  0  0  0  0
  -28.6699  -11.9372   21.3116 H   0  0  0  0  0  0
  -28.4186  -13.5377   21.8802 H   0  0  0  0  0  0
  -25.2758   -9.5686   22.4814 H   0  0  0  0  0  0
  -24.0021   -7.4624   22.7454 H   0  0  0  0  0  0
  -21.0841   -8.8763   19.8953 H   0  0  0  0  0  0
  -22.3705  -10.9681   19.6171 H   0  0  0  0  0  0
  -21.2001   -7.6145   23.9756 H   0  0  0  0  0  0
  -21.1485   -6.0503   25.9109 H   0  0  0  0  0  0
  -22.0591   -2.7609   23.2815 H   0  0  0  0  0  0
  -22.3987  -12.0006   22.4927 H   0  0  0  0  0  0
  -21.1040  -13.1382   22.2483 H   0  0  0  0  0  0
  -24.6355  -15.8264   20.4988 H   0  0  0  0  0  0
  -26.2670  -15.6444   20.0931 H   0  0  0  0  0  0
  -26.7127  -32.5588   23.1233 H   0  0  0  0  0  0
  -25.0099  -33.9856   25.0544 H   0  0  0  0  0  0
  -22.6866  -31.3103   21.4139 H   0  0  0  0  0  0
  -23.3756  -35.9645   23.3308 H   0  0  0  0  0  0
  -24.3567  -36.8907   22.2046 H   0  0  0  0  0  0
  -23.7219  -37.6522   23.6634 H   0  0  0  0  0  0
  -26.0495  -31.6130   20.6075 H   0  0  0  0  0  0
  -26.8139  -30.8929   21.9922 H   0  0  0  0  0  0
  -28.0856  -29.1113   21.2099 H   0  0  0  0  0  0
  -26.0674  -26.0702   18.8766 H   0  0  0  0  0  0
  -24.0176  -27.3424   18.9544 H   0  0  0  0  0  0
  -23.7272  -30.6154   19.4088 H   0  0  0  0  0  0
  -22.7408  -29.2542   19.8592 H   0  0  0  0  0  0
  -25.1282  -36.1998   25.0848 H   0  0  0  0  0  0
  -20.9978  -28.3229   24.1448 H   0  0  0  0  0  0
  -20.5684  -26.2290   23.3621 H   0  0  0  0  0  0
  -21.6647  -26.7458   22.1207 H   0  0  0  0  0  0
  -19.6880  -25.6304   21.1253 H   0  0  0  0  0  0
  -19.6658  -27.3235   20.6777 H   0  0  0  0  0  0
  -17.4204  -26.6736   21.4034 H   0  0  0  0  0  0
  -18.0280  -26.0061   22.9007 H   0  0  0  0  0  0
  -19.7914  -30.7308   24.2275 H   0  0  0  0  0  0
  -17.4980  -31.6262   24.5207 H   0  0  0  0  0  0
  -15.5348  -30.3003   23.7604 H   0  0  0  0  0  0
  -15.8670  -28.0840   22.7016 H   0  0  0  0  0  0
  -24.5931  -30.7019   25.7856 H   0  0  0  0  0  0
  -24.8852  -32.2900   26.4851 H   0  0  0  0  0  0
  -25.8056  -30.8989   27.0305 H   0  0  0  0  0  0
  -26.2822  -29.6848   24.1132 H   0  0  0  0  0  0
  -27.3951  -29.7244   25.4615 H   0  0  0  0  0  0
  -27.8709  -30.4352   23.9362 H   0  0  0  0  0  0
  -27.2698  -33.3620   26.2059 H   0  0  0  0  0  0
  -28.3850  -32.6809   25.0305 H   0  0  0  0  0  0
  -28.0725  -31.8432   26.5406 H   0  0  0  0  0  0
  -28.2615  -38.0103   24.7519 H   0  0  0  0  0  0
  -28.1050  -36.2639   24.6269 H   0  0  0  0  0  0
  -27.2313  -37.1464   25.8871 H   0  0  0  0  0  0
  -20.9269  -29.8781   21.7015 H   0  0  0  0  0  0
  -26.0168  -38.2901   24.1415 H   0  0  0  0  0  0
  -31.5508  -22.4220   21.1139 H   0  0  0  0  0  0
  -27.7733  -20.4625   20.5269 H   0  0  0  0  0  0
  -28.9636  -15.0771   23.0117 H   0  0  0  0  0  0
  -30.5358  -15.5969   23.7731 H   0  0  0  0  0  0
  -29.2072  -16.7055   21.1267 H   0  0  0  0  0  0
  -33.3518  -21.2430   21.9873 H   0  0  0  0  0  0
  -33.5017  -19.7014   21.1383 H   0  0  0  0  0  0
  -33.0746  -19.7557   22.8621 H   0  0  0  0  0  0
  -27.8660  -22.7669   20.1630 H   0  0  0  0  0  0
  -29.2375  -22.9002   19.1124 H   0  0  0  0  0  0
  -30.2783  -24.5899   20.7063 H   0  0  0  0  0  0
  -28.8712  -24.4375   21.7464 H   0  0  0  0  0  0
  -27.4310  -24.9024   19.7628 H   0  0  0  0  0  0
  -28.8316  -25.2838   18.7973 H   0  0  0  0  0  0
  1 25  1  0  0  0
  1 30  2  0  0  0
  1 84  1  0  0  0
  2  3  1  0  0  0
  2 25  1  0  0  0
  2 86  1  0  0  0
  2 87  1  0  0  0
  3  4  1  0  0  0
  3 88  1  0  0  0
  3 89  1  0  0  0
  4  5  1  0  0  0
  4 90  1  0  0  0
  4 91  1  0  0  0
  5  6  1  0  0  0
  5 26  1  0  0  0
  5 92  1  0  0  0
  6 25  1  0  0  0
  6 93  1  0  0  0
  6 94  1  0  0  0
  7  8  2  0  0  0
  7 26  1  0  0  0
  7 29  1  0  0  0
  8  9  1  0  0  0
  8 22  1  0  0  0
  9 10  1  0  0  0
  9 27  2  0  0  0
 10 11  2  0  0  0
 10 15  1  0  0  0
 11 12  1  0  0  0
 11 95  1  0  0  0
 12 13  2  0  0  0
 12 96  1  0  0  0
 13 14  1  0  0  0
 13 31  1  0  0  0
 14 15  2  0  0  0
 14 97  1  0  0  0
 15 98  1  0  0  0
 16 17  2  0  0  0
 16 21  1  0  0  0
 16 31  1  0  0  0
 17 18  1  0  0  0
 17 99  1  0  0  0
 18 19  2  0  0  0
 18100  1  0  0  0
 19 20  1  0  0  0
 19 24  1  0  0  0
 20 21  2  0  0  0
 20101  1  0  0  0
 21 23  1  0  0  0
 22 28  1  0  0  0
 22 32  2  0  0  0
 26 27  1  0  0  0
 28102  1  0  0  0
 28103  1  0  0  0
 29104  1  0  0  0
 29105  1  0  0  0
 33 34  1  0  0  0
 33 66  1  0  0  0
 33 70  2  0  0  0
 34 36  1  0  0  0
 34 59  1  0  0  0
 34106  1  0  0  0
 35 44  2  0  0  0
 35 45  1  0  0  0
 35 68  1  0  0  0
 36 56  1  0  0  0
 36107  1  0  0  0
 37 39  1  0  0  0
 37 47  1  0  0  0
 37 66  1  0  0  0
 37108  1  0  0  0
 38 43  2  0  0  0
 38 46  1  0  0  0
 38 47  1  0  0  0
 39 64  1  0  0  0
 39 67  2  0  0  0
 40 52  1  0  0  0
 40 53  2  0  0  0
 40 58  1  0  0  0
 41109  1  0  0  0
 41110  1  0  0  0
 41111  1  0  0  0
 41 48  1  0  0  0
 42 43  1  0  0  0
 42 66  1  0  0  0
 42112  1  0  0  0
 42113  1  0  0  0
 43 44  1  0  0  0
 44114  1  0  0  0
 45 46  2  0  0  0
 45115  1  0  0  0
 46116  1  0  0  0
 47117  1  0  0  0
 47118  1  0  0  0
 48 56  1  0  0  0
 48 65  1  0  0  0
 48119  1  0  0  0
 49 50  1  0  0  0
 49 53  1  0  0  0
 49 64  1  0  0  0
 49120  1  0  0  0
 50 51  1  0  0  0
 50121  1  0  0  0
 50122  1  0  0  0
 51 52  1  0  0  0
 51123  1  0  0  0
 51124  1  0  0  0
 52125  1  0  0  0
 52126  1  0  0  0
 53 54  1  0  0  0
 54 55  2  0  0  0
 54127  1  0  0  0
 55 57  1  0  0  0
 55128  1  0  0  0
 56 69  2  0  0  0
 57 58  2  0  0  0
 57129  1  0  0  0
 58130  1  0  0  0
 59 60  1  0  0  0
 59 61  1  0  0  0
 59 62  1  0  0  0
 60131  1  0  0  0
 60132  1  0  0  0
 60133  1  0  0  0
 61134  1  0  0  0
 61135  1  0  0  0
 61136  1  0  0  0
 62137  1  0  0  0
 62138  1  0  0  0
 62139  1  0  0  0
 63 65  1  0  0  0
 63140  1  0  0  0
 63141  1  0  0  0
 63142  1  0  0  0
 64143  1  0  0  0
 65144  1  0  0  0
 68 82  1  0  0  0
 71 73  2  0  0  0
 71 74  1  0  0  0
 71145  1  0  0  0
 72 73  1  0  0  0
 72 83  2  0  0  0
 72146  1  0  0  0
 73 80  1  0  0  0
 74 75  2  0  0  0
 74 79  1  0  0  0
 75 76  1  0  0  0
 75 83  1  0  0  0
 76 85  2  0  0  0
 76 78  1  0  0  0
 77 78  1  0  0  0
 77 84  1  0  0  0
 77147  1  0  0  0
 77148  1  0  0  0
 78 84  1  0  0  0
 78149  1  0  0  0
 79150  1  0  0  0
 79151  1  0  0  0
 79152  1  0  0  0
 80 81  1  0  0  0
 80153  1  0  0  0
 80154  1  0  0  0
 81 82  1  0  0  0
 81155  1  0  0  0
 81156  1  0  0  0
 82157  1  0  0  0
 82158  1  0  0  0
M  ISO  4   1 100  68 101  82 101  84 100
M  END
> <chiral flag>
0

> <version>
0

> <s_m_source_file>
/data/baiqing/PycharmProjects/Reinvent-master-3.2/result/LINK_invent/BTK/process_docking_weight1_custom_sum_contain_oxygen_bond_distance_aromatic_linkinvent_7_9_3/rearranged_h_0121.sdf

> <i_m_source_file_index>
87

> <r_mmod_Potential_Energy-OPLS-2005>
76.2058868408203

> <r_mmod_Stretch_Energy-OPLS-2005>
51.9833374023438

> <r_mmod_Bend_Energy-OPLS-2005>
184.722381591797

> <r_mmod_Torsional_Energy-OPLS-2005>
297.961273193359

> <r_mmod_Improper_Torsional_Energy-OPLS-2005>
13.5714826583862

> <r_mmod_Van_der_Waal_Energy-OPLS-2005>
169.794891357422

> <r_mmod_Electrostatic_Energy-OPLS-2005>
-431.772552490234

> <r_mmod_Solvation_Energy-OPLS-2005>
-226.618057250977

> <b_mmod_Minimization_Converged-OPLS-2005>
0

> <r_mmod_RMS_Derivative-OPLS-2005>
5.6594181060791

$$$$
87
                    3D
 Structure written by MMmdl.
164173  0  0  1  0            999 V2000
  -30.7660  -14.5745   20.3926 C   0  0  0  0  0  0
  -30.3972  -12.3521   19.4294 C   0  0  0  0  0  0
  -29.4861  -12.4618   18.1954 C   0  0  0  0  0  0
  -28.0086  -12.3369   18.6168 C   0  0  0  0  0  0
  -27.6363  -13.2398   19.8287 C   0  0  2  0  0  0
  -28.6961  -13.1908   20.9497 C   0  0  0  0  0  0
  -25.2488  -13.8233   20.5702 C   0  0  0  0  0  0
  -24.1805  -13.0456   20.9224 C   0  0  0  0  0  0
  -24.6411  -11.6949   20.8760 C   0  0  0  0  0  0
  -23.9094  -10.4311   21.0398 C   0  0  0  0  0  0
  -24.3636   -9.4225   21.9178 C   0  0  0  0  0  0
  -23.6325   -8.2257   22.0752 C   0  0  0  0  0  0
  -22.4302   -8.0284   21.3540 C   0  0  0  0  0  0
  -21.9929   -9.0260   20.4648 C   0  0  0  0  0  0
  -22.7256  -10.2147   20.3057 C   0  0  0  0  0  0
  -21.6866   -6.0728   22.5286 C   0  0  0  0  0  0
  -21.4010   -6.5636   23.8212 C   0  0  0  0  0  0
  -21.3663   -5.6786   24.9183 C   0  0  0  0  0  0
  -21.6050   -4.3057   24.7225 C   0  0  0  0  0  0
  -21.8819   -3.8139   23.4348 C   0  0  0  0  0  0
  -21.9188   -4.6950   22.3406 C   0  0  0  0  0  0
  -22.7806  -13.5235   21.1868 C   0  0  0  0  0  0
  -22.1664   -4.2136   21.0981 F   0  0  0  0  0  0
  -21.5628   -3.4540   25.7740 F   0  0  0  0  0  0
  -29.9963  -13.4498   20.3253 N   0  0  0  0  0  0
  -26.2938  -12.9465   20.3250 N   0  0  0  0  0  0
  -25.9342  -11.6603   20.5745 N   0  0  0  0  0  0
  -22.0451  -12.8237   22.0430 N   0  0  0  0  0  0
  -25.4110  -15.1953   20.4089 N   0  0  0  0  0  0
  -31.9857  -14.4511   20.4736 O   0  0  0  0  0  0
  -21.6669   -6.8880   21.4251 O   0  0  0  0  0  0
  -22.3487  -14.5527   20.6701 O   0  0  0  0  0  0
  -24.6174  -31.8632   23.2068 C   0  0  0  0  0  0
  -25.9042  -32.4791   23.8386 C   0  0  1  0  0  0
  -27.2145  -27.3854   20.0977 C   0  0  0  0  0  0
  -25.5880  -33.8599   24.2313 N   0  0  0  0  0  0
  -23.4067  -30.4906   21.5452 C   0  0  2  0  0  0
  -24.8507  -28.9513   20.1106 C   0  0  0  0  0  0
  -22.7406  -29.4660   22.4935 C   0  0  0  0  0  0
  -18.0277  -28.1398   22.8512 C   0  0  0  0  0  0
  -24.1479  -36.7295   23.2644 C   0  0  0  0  0  0
  -25.9426  -30.8172   21.3645 C   0  0  0  0  0  0
  -26.0190  -29.4498   20.7052 C   0  0  0  0  0  0
  -27.2103  -28.6780   20.6885 C   0  0  0  0  0  0
  -26.0318  -26.9201   19.4858 C   0  0  0  0  0  0
  -24.8537  -27.6893   19.4946 C   0  0  0  0  0  0
  -23.6166  -29.8253   20.1602 C   0  0  0  0  0  0
  -25.4106  -36.3096   24.0342 C   0  0  1  0  0  0
  -20.5871  -28.3678   23.1310 C   0  0  2  0  0  0
  -20.6772  -26.9419   22.5408 C   0  0  0  0  0  0
  -19.5754  -26.6400   21.5205 C   0  0  0  0  0  0
  -18.1926  -26.7956   22.1624 C   0  0  0  0  0  0
  -19.1525  -28.8858   23.2915 C   0  0  0  0  0  0
  -18.9470  -30.1476   23.8915 C   0  0  0  0  0  0
  -17.6467  -30.6610   24.0587 C   0  0  0  0  0  0
  -25.9039  -34.9461   23.5136 C   0  0  0  0  0  0
  -16.5357  -29.9123   23.6339 C   0  0  0  0  0  0
  -16.7267  -28.6536   23.0353 C   0  0  0  0  0  0
  -26.4463  -31.6585   25.0726 C   0  0  0  0  0  0
  -25.3704  -31.3711   26.1458 C   0  0  0  0  0  0
  -27.0334  -30.3040   24.6125 C   0  0  0  0  0  0
  -27.6059  -32.4282   25.7470 C   0  0  0  0  0  0
  -27.5581  -37.1803   24.8468 C   0  0  0  0  0  0
  -21.4125  -29.3054   22.3702 N   0  0  0  0  0  0
  -26.4288  -37.3784   23.9408 N   0  0  0  0  0  0
  -24.6740  -31.0720   22.0963 N   0  0  0  0  0  0
  -23.4177  -28.8181   23.2958 O   0  0  0  0  0  0
  -28.3332  -26.5672   20.1094 O   0  0  0  0  0  0
  -26.5608  -34.8915   22.4701 O   0  0  0  0  0  0
  -23.5343  -32.1384   23.7439 O   0  0  0  0  0  0
  -31.7754  -20.5071   18.9157 C   0  0  0  0  0  0
  -30.6717  -21.1870   19.4155 C   0  0  0  0  0  0
  -32.9235  -18.5632   18.2649 C   0  0  0  0  0  0
  -31.7959  -19.1088   18.8794 C   0  0  0  0  0  0
  -30.7460  -18.2979   19.4250 C   0  0  0  0  0  0
  -29.5645  -20.4850   19.9209 C   0  0  0  0  0  0
  -29.6046  -19.0288   19.9511 C   0  0  0  0  0  0
  -32.9884  -17.1931   18.1180 C   0  0  0  0  0  0
  -30.9846  -16.8526   19.3550 C   0  0  0  0  0  0
  -28.3930  -18.2646   20.4755 C   0  0  0  0  0  0
  -34.1869  -16.5345   17.4654 C   0  0  0  0  0  0
  -28.3427  -21.3667   20.3334 C   0  0  0  0  0  0
  -28.4982  -23.9640   19.9693 C   0  0  0  0  0  0
  -28.1549  -25.2755   20.7686 C   0  0  0  0  0  0
  -32.0237  -16.4026   18.5949 N   0  0  0  0  0  0
  -30.2284  -15.7918   20.0394 N   0  0  0  0  0  0
  -28.6043  -22.7514   20.8689 N   0  3  0  0  0  0
  -31.4469  -12.4086   19.1292 H   0  0  0  0  0  0
  -30.2763  -11.3860   19.9206 H   0  0  0  0  0  0
  -29.7411  -11.6881   17.4699 H   0  0  0  0  0  0
  -29.6500  -13.4155   17.6916 H   0  0  0  0  0  0
  -27.8276  -11.2902   18.8610 H   0  0  0  0  0  0
  -27.3580  -12.5578   17.7693 H   0  0  0  0  0  0
  -27.6253  -14.2614   19.4464 H   0  0  0  0  0  0
  -28.6979  -12.2183   21.4460 H   0  0  0  0  0  0
  -28.4855  -13.9379   21.7171 H   0  0  0  0  0  0
  -25.2769   -9.5714   22.4758 H   0  0  0  0  0  0
  -24.0027   -7.4649   22.7468 H   0  0  0  0  0  0
  -21.0850   -8.8800   19.8961 H   0  0  0  0  0  0
  -22.3712  -10.9690   19.6174 H   0  0  0  0  0  0
  -21.2025   -7.6141   23.9722 H   0  0  0  0  0  0
  -21.1479   -6.0517   25.9088 H   0  0  0  0  0  0
  -22.0594   -2.7596   23.2864 H   0  0  0  0  0  0
  -22.4059  -11.9928   22.4878 H   0  0  0  0  0  0
  -21.1038  -13.1231   22.2567 H   0  0  0  0  0  0
  -24.6369  -15.8407   20.5214 H   0  0  0  0  0  0
  -26.2545  -15.6430   20.0787 H   0  0  0  0  0  0
  -26.7118  -32.5490   23.1147 H   0  0  0  0  0  0
  -25.0038  -33.9767   25.0471 H   0  0  0  0  0  0
  -22.6974  -31.3092   21.4047 H   0  0  0  0  0  0
  -23.3748  -35.9623   23.3302 H   0  0  0  0  0  0
  -24.3584  -36.8900   22.2057 H   0  0  0  0  0  0
  -23.7220  -37.6499   23.6655 H   0  0  0  0  0  0
  -26.0650  -31.5852   20.5998 H   0  0  0  0  0  0
  -26.8270  -30.8658   21.9884 H   0  0  0  0  0  0
  -28.1133  -29.0573   21.1481 H   0  0  0  0  0  0
  -26.0128  -25.9526   19.0017 H   0  0  0  0  0  0
  -23.9556  -27.3053   19.0307 H   0  0  0  0  0  0
  -23.7324  -30.5986   19.4003 H   0  0  0  0  0  0
  -22.7374  -29.2486   19.8631 H   0  0  0  0  0  0
  -25.1285  -36.1961   25.0836 H   0  0  0  0  0  0
  -21.0009  -28.3255   24.1413 H   0  0  0  0  0  0
  -20.5657  -26.2289   23.3604 H   0  0  0  0  0  0
  -21.6650  -26.7455   22.1209 H   0  0  0  0  0  0
  -19.6893  -25.6301   21.1246 H   0  0  0  0  0  0
  -19.6692  -27.3221   20.6743 H   0  0  0  0  0  0
  -17.4193  -26.6710   21.4023 H   0  0  0  0  0  0
  -18.0339  -26.0098   22.9021 H   0  0  0  0  0  0
  -19.7935  -30.7305   24.2265 H   0  0  0  0  0  0
  -17.5023  -31.6287   24.5203 H   0  0  0  0  0  0
  -15.5365  -30.3038   23.7660 H   0  0  0  0  0  0
  -15.8659  -28.0878   22.7042 H   0  0  0  0  0  0
  -24.5887  -30.7048   25.7778 H   0  0  0  0  0  0
  -24.8888  -32.2886   26.4855 H   0  0  0  0  0  0
  -25.8035  -30.8900   27.0235 H   0  0  0  0  0  0
  -26.2932  -29.6746   24.1173 H   0  0  0  0  0  0
  -27.4131  -29.7308   25.4587 H   0  0  0  0  0  0
  -27.8729  -30.4391   23.9306 H   0  0  0  0  0  0
  -27.2750  -33.3609   26.2042 H   0  0  0  0  0  0
  -28.3884  -32.6757   25.0290 H   0  0  0  0  0  0
  -28.0706  -31.8377   26.5373 H   0  0  0  0  0  0
  -28.2601  -38.0093   24.7532 H   0  0  0  0  0  0
  -28.1076  -36.2636   24.6289 H   0  0  0  0  0  0
  -27.2310  -37.1448   25.8871 H   0  0  0  0  0  0
  -20.9256  -29.8804   21.6976 H   0  0  0  0  0  0
  -26.0167  -38.2854   24.1422 H   0  0  0  0  0  0
  -32.6041  -21.0777   18.5207 H   0  0  0  0  0  0
  -30.6943  -22.2651   19.3746 H   0  0  0  0  0  0
  -33.7201  -19.1870   17.8810 H   0  0  0  0  0  0
  -28.1970  -17.3772   19.8766 H   0  0  0  0  0  0
  -27.4722  -18.8453   20.4284 H   0  0  0  0  0  0
  -28.5481  -17.9572   21.5114 H   0  0  0  0  0  0
  -35.1031  -16.8573   17.9629 H   0  0  0  0  0  0
  -34.2570  -16.8165   16.4148 H   0  0  0  0  0  0
  -34.1389  -15.4459   17.5288 H   0  0  0  0  0  0
  -27.8264  -20.8621   21.1498 H   0  0  0  0  0  0
  -27.6345  -21.4116   19.5050 H   0  0  0  0  0  0
  -29.4399  -24.1097   19.4413 H   0  0  0  0  0  0
  -27.7404  -23.8023   19.1997 H   0  0  0  0  0  0
  -28.7937  -25.3125   21.6499 H   0  0  0  0  0  0
  -27.1453  -25.1757   21.1709 H   0  0  0  0  0  0
  -29.2269  -15.8881   20.0602 H   0  0  0  0  0  0
  -29.4793  -22.7487   21.3708 H   0  0  0  0  0  0
  -27.8897  -22.8738   21.5704 H   0  0  0  0  0  0
  1 25  1  0  0  0
  1 30  2  0  0  0
  1 86  1  0  0  0
  2  3  1  0  0  0
  2 25  1  0  0  0
  2 88  1  0  0  0
  2 89  1  0  0  0
  3  4  1  0  0  0
  3 90  1  0  0  0
  3 91  1  0  0  0
  4  5  1  0  0  0
  4 92  1  0  0  0
  4 93  1  0  0  0
  5  6  1  0  0  0
  5 26  1  0  0  0
  5 94  1  0  0  0
  6 25  1  0  0  0
  6 95  1  0  0  0
  6 96  1  0  0  0
  7  8  2  0  0  0
  7 26  1  0  0  0
  7 29  1  0  0  0
  8  9  1  0  0  0
  8 22  1  0  0  0
  9 10  1  0  0  0
  9 27  2  0  0  0
 10 11  2  0  0  0
 10 15  1  0  0  0
 11 12  1  0  0  0
 11 97  1  0  0  0
 12 13  2  0  0  0
 12 98  1  0  0  0
 13 14  1  0  0  0
 13 31  1  0  0  0
 14 15  2  0  0  0
 14 99  1  0  0  0
 15100  1  0  0  0
 16 17  2  0  0  0
 16 21  1  0  0  0
 16 31  1  0  0  0
 17 18  1  0  0  0
 17101  1  0  0  0
 18 19  2  0  0  0
 18102  1  0  0  0
 19 20  1  0  0  0
 19 24  1  0  0  0
 20 21  2  0  0  0
 20103  1  0  0  0
 21 23  1  0  0  0
 22 28  1  0  0  0
 22 32  2  0  0  0
 26 27  1  0  0  0
 28104  1  0  0  0
 28105  1  0  0  0
 29106  1  0  0  0
 29107  1  0  0  0
 33 34  1  0  0  0
 33 66  1  0  0  0
 33 70  2  0  0  0
 34 36  1  0  0  0
 34 59  1  0  0  0
 34108  1  0  0  0
 35 44  2  0  0  0
 35 45  1  0  0  0
 35 68  1  0  0  0
 36 56  1  0  0  0
 36109  1  0  0  0
 37 39  1  0  0  0
 37 47  1  0  0  0
 37 66  1  0  0  0
 37110  1  0  0  0
 38 43  2  0  0  0
 38 46  1  0  0  0
 38 47  1  0  0  0
 39 64  1  0  0  0
 39 67  2  0  0  0
 40 52  1  0  0  0
 40 53  2  0  0  0
 40 58  1  0  0  0
 41111  1  0  0  0
 41112  1  0  0  0
 41113  1  0  0  0
 41 48  1  0  0  0
 42 43  1  0  0  0
 42 66  1  0  0  0
 42114  1  0  0  0
 42115  1  0  0  0
 43 44  1  0  0  0
 44116  1  0  0  0
 45 46  2  0  0  0
 45117  1  0  0  0
 46118  1  0  0  0
 47119  1  0  0  0
 47120  1  0  0  0
 48 56  1  0  0  0
 48 65  1  0  0  0
 48121  1  0  0  0
 49 50  1  0  0  0
 49 53  1  0  0  0
 49 64  1  0  0  0
 49122  1  0  0  0
 50 51  1  0  0  0
 50123  1  0  0  0
 50124  1  0  0  0
 51 52  1  0  0  0
 51125  1  0  0  0
 51126  1  0  0  0
 52127  1  0  0  0
 52128  1  0  0  0
 53 54  1  0  0  0
 54 55  2  0  0  0
 54129  1  0  0  0
 55 57  1  0  0  0
 55130  1  0  0  0
 56 69  2  0  0  0
 57 58  2  0  0  0
 57131  1  0  0  0
 58132  1  0  0  0
 59 60  1  0  0  0
 59 61  1  0  0  0
 59 62  1  0  0  0
 60133  1  0  0  0
 60134  1  0  0  0
 60135  1  0  0  0
 61136  1  0  0  0
 61137  1  0  0  0
 61138  1  0  0  0
 62139  1  0  0  0
 62140  1  0  0  0
 62141  1  0  0  0
 63 65  1  0  0  0
 63142  1  0  0  0
 63143  1  0  0  0
 63144  1  0  0  0
 64145  1  0  0  0
 65146  1  0  0  0
 68 84  1  0  0  0
 71 72  2  0  0  0
 71 74  1  0  0  0
 71147  1  0  0  0
 72 76  1  0  0  0
 72148  1  0  0  0
 73 74  2  0  0  0
 73 78  1  0  0  0
 73149  1  0  0  0
 74 75  1  0  0  0
 75 77  1  0  0  0
 75 79  2  0  0  0
 76 77  2  0  0  0
 76 82  1  0  0  0
 77 80  1  0  0  0
 78 81  1  0  0  0
 78 85  2  0  0  0
 79 85  1  0  0  0
 79 86  1  0  0  0
 80150  1  0  0  0
 80151  1  0  0  0
 80152  1  0  0  0
 81153  1  0  0  0
 81154  1  0  0  0
 81155  1  0  0  0
 82 87  1  0  0  0
 82156  1  0  0  0
 82157  1  0  0  0
 83 84  1  0  0  0
 83 87  1  0  0  0
 83158  1  0  0  0
 83159  1  0  0  0
 84160  1  0  0  0
 84161  1  0  0  0
 86162  1  0  0  0
 87163  1  0  0  0
 87164  1  0  0  0
M  CHG  1  87   1
M  ISO  4   1 100  68 101  84 101  86 100
M  END
> <chiral flag>
0

> <version>
0

> <s_m_source_file>
/data/baiqing/PycharmProjects/Reinvent-master-3.2/result/LINK_invent/BTK/process_docking_weight1_custom_sum_contain_oxygen_bond_distance_aromatic_linkinvent_7_9_3/rearranged_h_0121.sdf

> <i_m_source_file_index>
88

> <r_mmod_Potential_Energy-OPLS-2005>
-129.480331420898

> <r_mmod_Stretch_Energy-OPLS-2005>
82.3923721313477

> <r_mmod_Bend_Energy-OPLS-2005>
159.080505371094

> <r_mmod_Torsional_Energy-OPLS-2005>
275.329010009766

> <r_mmod_Improper_Torsional_Energy-OPLS-2005>
9.15928173065186

> <r_mmod_Van_der_Waal_Energy-OPLS-2005>
179.065399169922

> <r_mmod_Electrostatic_Energy-OPLS-2005>
-399.877044677734

> <r_mmod_Solvation_Energy-OPLS-2005>
-503.992156982422

> <b_mmod_Minimization_Converged-OPLS-2005>
0

> <r_mmod_RMS_Derivative-OPLS-2005>
3.38140082359314

$$$$
88
                    3D
 Structure written by MMmdl.
160168  0  0  1  0            999 V2000
  -30.5041  -15.0327   20.4286 C   0  0  0  0  0  0
  -30.4501  -12.6541   19.4968 C   0  0  0  0  0  0
  -29.5295  -12.5405   18.2574 C   0  0  0  0  0  0
  -28.0667  -12.3077   18.6803 C   0  0  0  0  0  0
  -27.6272  -13.2478   19.8342 C   0  0  2  0  0  0
  -28.6716  -13.3112   20.9691 C   0  0  0  0  0  0
  -25.2419  -13.8207   20.5655 C   0  0  0  0  0  0
  -24.1742  -13.0445   20.9229 C   0  0  0  0  0  0
  -24.6372  -11.6930   20.8777 C   0  0  0  0  0  0
  -23.9068  -10.4300   21.0405 C   0  0  0  0  0  0
  -24.3615   -9.4210   21.9177 C   0  0  0  0  0  0
  -23.6276   -8.2261   22.0768 C   0  0  0  0  0  0
  -22.4257   -8.0307   21.3565 C   0  0  0  0  0  0
  -21.9895   -9.0284   20.4661 C   0  0  0  0  0  0
  -22.7245  -10.2149   20.3045 C   0  0  0  0  0  0
  -21.6862   -6.0718   22.5273 C   0  0  0  0  0  0
  -21.4026   -6.5618   23.8214 C   0  0  0  0  0  0
  -21.3662   -5.6772   24.9175 C   0  0  0  0  0  0
  -21.6049   -4.3037   24.7232 C   0  0  0  0  0  0
  -21.8822   -3.8129   23.4354 C   0  0  0  0  0  0
  -21.9197   -4.6937   22.3405 C   0  0  0  0  0  0
  -22.7766  -13.5231   21.1913 C   0  0  0  0  0  0
  -22.1657   -4.2114   21.0978 F   0  0  0  0  0  0
  -21.5638   -3.4526   25.7751 F   0  0  0  0  0  0
  -29.9337  -13.7562   20.3617 N   0  0  0  0  0  0
  -26.2858  -12.9440   20.3206 N   0  0  0  0  0  0
  -25.9297  -11.6583   20.5729 N   0  0  0  0  0  0
  -22.0413  -12.8214   22.0459 N   0  0  0  0  0  0
  -25.4015  -15.1952   20.4025 N   0  0  0  0  0  0
  -31.7207  -15.1002   20.2195 O   0  0  0  0  0  0
  -21.6656   -6.8875   21.4245 O   0  0  0  0  0  0
  -22.3442  -14.5540   20.6755 O   0  0  0  0  0  0
  -24.6475  -31.8401   23.1858 C   0  0  0  0  0  0
  -25.9260  -32.4648   23.8229 C   0  0  1  0  0  0
  -27.2344  -27.0968   20.1701 C   0  0  0  0  0  0
  -25.6012  -33.8446   24.2170 N   0  0  0  0  0  0
  -23.4524  -30.4586   21.5252 C   0  0  2  0  0  0
  -24.9126  -28.8744   20.1101 C   0  0  0  0  0  0
  -22.7578  -29.4551   22.4790 C   0  0  0  0  0  0
  -18.0331  -28.1406   22.8495 C   0  0  0  0  0  0
  -24.1476  -36.7242   23.2638 C   0  0  0  0  0  0
  -26.0120  -30.6995   21.3948 C   0  0  0  0  0  0
  -26.0874  -29.3072   20.7389 C   0  0  0  0  0  0
  -27.2467  -28.4365   20.7511 C   0  0  0  0  0  0
  -26.0340  -26.7776   19.4963 C   0  0  0  0  0  0
  -24.9028  -27.6248   19.4712 C   0  0  0  0  0  0
  -23.6900  -29.7817   20.1470 C   0  0  0  0  0  0
  -25.4098  -36.3005   24.0335 C   0  0  1  0  0  0
  -20.5933  -28.3765   23.1199 C   0  0  2  0  0  0
  -20.6819  -26.9471   22.5376 C   0  0  0  0  0  0
  -19.5794  -26.6398   21.5195 C   0  0  0  0  0  0
  -18.1982  -26.7951   22.1625 C   0  0  0  0  0  0
  -19.1581  -28.8902   23.2846 C   0  0  0  0  0  0
  -18.9499  -30.1490   23.8891 C   0  0  0  0  0  0
  -17.6490  -30.6604   24.0573 C   0  0  0  0  0  0
  -25.9071  -34.9384   23.5057 C   0  0  0  0  0  0
  -16.5388  -29.9100   23.6329 C   0  0  0  0  0  0
  -16.7310  -28.6504   23.0379 C   0  0  0  0  0  0
  -26.4576  -31.6528   25.0686 C   0  0  0  0  0  0
  -25.3745  -31.3728   26.1362 C   0  0  0  0  0  0
  -27.0459  -30.2917   24.6306 C   0  0  0  0  0  0
  -27.6097  -32.4313   25.7490 C   0  0  0  0  0  0
  -27.5567  -37.1770   24.8465 C   0  0  0  0  0  0
  -21.4257  -29.3080   22.3539 N   0  0  0  0  0  0
  -26.4262  -37.3728   23.9425 N   0  0  0  0  0  0
  -24.7228  -31.0215   22.0902 N   0  0  0  0  0  0
  -23.4188  -28.8121   23.2998 O   0  0  0  0  0  0
  -28.2810  -26.0904   20.2571 O   0  0  0  0  0  0
  -26.5613  -34.8911   22.4609 O   0  0  0  0  0  0
  -23.5599  -32.1297   23.7084 O   0  0  0  0  0  0
  -29.2771  -18.7123   19.8436 C   0  0  0  0  0  0
  -29.2883  -20.0597   20.4902 C   0  0  0  0  0  0
  -29.8287  -19.7172   21.7207 C   0  0  0  0  0  0
  -29.7666  -17.6434   20.6434 C   0  0  0  0  0  0
  -30.0106  -20.6994   22.8437 C   0  0  0  0  0  0
  -29.3929  -17.7524   24.1796 C   0  0  0  0  0  0
  -31.8993  -17.8701   23.5693 C   0  0  0  0  0  0
  -28.6757  -21.5513   19.9728 C   0  0  0  0  0  0
  -28.9657  -23.1679   20.4688 C   0  0  0  0  0  0
  -28.0449  -24.5468   20.0193 C   0  0  0  0  0  0
  -30.4610  -17.5886   23.0819 C   0  0  0  0  0  0
  -30.0755  -18.3019   21.8479 N   0  0  0  0  0  0
  -29.6638  -16.2013   20.4462 N   0  0  0  0  0  0
  -31.4750  -12.8409   19.1775 H   0  0  0  0  0  0
  -30.4790  -11.7172   20.0513 H   0  0  0  0  0  0
  -29.8678  -11.7321   17.6072 H   0  0  0  0  0  0
  -29.5973  -13.4527   17.6632 H   0  0  0  0  0  0
  -27.9815  -11.2658   18.9950 H   0  0  0  0  0  0
  -27.4023  -12.4213   17.8229 H   0  0  0  0  0  0
  -27.5785  -14.2416   19.3897 H   0  0  0  0  0  0
  -28.7890  -12.3445   21.4608 H   0  0  0  0  0  0
  -28.3534  -14.0128   21.7407 H   0  0  0  0  0  0
  -25.2763   -9.5689   22.4735 H   0  0  0  0  0  0
  -23.9998   -7.4642   22.7456 H   0  0  0  0  0  0
  -21.0852   -8.8823   19.8923 H   0  0  0  0  0  0
  -22.3742  -10.9695   19.6140 H   0  0  0  0  0  0
  -21.2019   -7.6123   23.9715 H   0  0  0  0  0  0
  -21.1474   -6.0493   25.9076 H   0  0  0  0  0  0
  -22.0588   -2.7587   23.2878 H   0  0  0  0  0  0
  -22.4064  -11.9902   22.4846 H   0  0  0  0  0  0
  -21.1007  -13.1218   22.2657 H   0  0  0  0  0  0
  -24.6224  -15.8349   20.5052 H   0  0  0  0  0  0
  -26.2305  -15.6468   20.0414 H   0  0  0  0  0  0
  -26.7299  -32.5219   23.0919 H   0  0  0  0  0  0
  -25.0224  -33.9540   25.0362 H   0  0  0  0  0  0
  -22.7552  -31.2835   21.3604 H   0  0  0  0  0  0
  -23.3759  -35.9554   23.3265 H   0  0  0  0  0  0
  -24.3540  -36.8902   22.2057 H   0  0  0  0  0  0
  -23.7237  -37.6444   23.6665 H   0  0  0  0  0  0
  -26.1707  -31.4524   20.6212 H   0  0  0  0  0  0
  -26.8789  -30.7498   22.0405 H   0  0  0  0  0  0
  -28.1319  -28.7650   21.2785 H   0  0  0  0  0  0
  -25.9400  -25.8228   19.0008 H   0  0  0  0  0  0
  -24.0120  -27.2890   18.9579 H   0  0  0  0  0  0
  -23.8394  -30.5528   19.3906 H   0  0  0  0  0  0
  -22.8064  -29.2289   19.8236 H   0  0  0  0  0  0
  -25.1294  -36.1811   25.0839 H   0  0  0  0  0  0
  -21.0046  -28.3393   24.1319 H   0  0  0  0  0  0
  -20.5725  -26.2413   23.3620 H   0  0  0  0  0  0
  -21.6688  -26.7490   22.1183 H   0  0  0  0  0  0
  -19.6979  -25.6286   21.1287 H   0  0  0  0  0  0
  -19.6724  -27.3160   20.6681 H   0  0  0  0  0  0
  -17.4255  -26.6719   21.4027 H   0  0  0  0  0  0
  -18.0406  -26.0056   22.8985 H   0  0  0  0  0  0
  -19.7959  -30.7303   24.2286 H   0  0  0  0  0  0
  -17.5042  -31.6283   24.5174 H   0  0  0  0  0  0
  -15.5395  -30.3020   23.7621 H   0  0  0  0  0  0
  -15.8717  -28.0792   22.7143 H   0  0  0  0  0  0
  -24.5943  -30.7069   25.7665 H   0  0  0  0  0  0
  -24.8929  -32.2927   26.4692 H   0  0  0  0  0  0
  -25.8035  -30.8959   27.0185 H   0  0  0  0  0  0
  -26.3103  -29.6598   24.1323 H   0  0  0  0  0  0
  -27.4085  -29.7240   25.4887 H   0  0  0  0  0  0
  -27.8996  -30.4134   23.9631 H   0  0  0  0  0  0
  -27.2679  -33.3631   26.1985 H   0  0  0  0  0  0
  -28.3960  -32.6836   25.0373 H   0  0  0  0  0  0
  -28.0695  -31.8491   26.5481 H   0  0  0  0  0  0
  -28.2572  -38.0070   24.7510 H   0  0  0  0  0  0
  -28.1086  -36.2618   24.6292 H   0  0  0  0  0  0
  -27.2283  -37.1435   25.8864 H   0  0  0  0  0  0
  -20.9504  -29.8781   21.6676 H   0  0  0  0  0  0
  -26.0138  -38.2806   24.1421 H   0  0  0  0  0  0
  -28.8726  -18.5361   18.8581 H   0  0  0  0  0  0
  -29.0471  -20.9295   23.3005 H   0  0  0  0  0  0
  -30.4316  -21.6326   22.4712 H   0  0  0  0  0  0
  -30.6679  -20.3657   23.6359 H   0  0  0  0  0  0
  -29.5943  -17.0842   25.0158 H   0  0  0  0  0  0
  -28.4020  -17.5004   23.7971 H   0  0  0  0  0  0
  -29.3404  -18.7619   24.5836 H   0  0  0  0  0  0
  -32.0931  -17.3538   24.5111 H   0  0  0  0  0  0
  -32.1259  -18.9179   23.7492 H   0  0  0  0  0  0
  -32.6307  -17.4998   22.8514 H   0  0  0  0  0  0
  -27.5964  -21.4178   20.0535 H   0  0  0  0  0  0
  -28.8540  -21.5561   18.8971 H   0  0  0  0  0  0
  -29.9996  -23.3817   20.1919 H   0  0  0  0  0  0
  -28.9692  -23.1670   21.5590 H   0  0  0  0  0  0
  -27.0578  -24.3538   20.4385 H   0  0  0  0  0  0
  -27.9045  -24.4596   18.9421 H   0  0  0  0  0  0
  -30.4494  -16.5224   22.8557 H   0  0  0  0  0  0
  -28.7015  -15.9118   20.3708 H   0  0  0  0  0  0
  1 25  1  0  0  0
  1 30  2  0  0  0
  1 83  1  0  0  0
  2  3  1  0  0  0
  2 25  1  0  0  0
  2 84  1  0  0  0
  2 85  1  0  0  0
  3  4  1  0  0  0
  3 86  1  0  0  0
  3 87  1  0  0  0
  4  5  1  0  0  0
  4 88  1  0  0  0
  4 89  1  0  0  0
  5  6  1  0  0  0
  5 26  1  0  0  0
  5 90  1  0  0  0
  6 25  1  0  0  0
  6 91  1  0  0  0
  6 92  1  0  0  0
  7  8  2  0  0  0
  7 26  1  0  0  0
  7 29  1  0  0  0
  8  9  1  0  0  0
  8 22  1  0  0  0
  9 10  1  0  0  0
  9 27  2  0  0  0
 10 11  2  0  0  0
 10 15  1  0  0  0
 11 12  1  0  0  0
 11 93  1  0  0  0
 12 13  2  0  0  0
 12 94  1  0  0  0
 13 14  1  0  0  0
 13 31  1  0  0  0
 14 15  2  0  0  0
 14 95  1  0  0  0
 15 96  1  0  0  0
 16 17  2  0  0  0
 16 21  1  0  0  0
 16 31  1  0  0  0
 17 18  1  0  0  0
 17 97  1  0  0  0
 18 19  2  0  0  0
 18 98  1  0  0  0
 19 20  1  0  0  0
 19 24  1  0  0  0
 20 21  2  0  0  0
 20 99  1  0  0  0
 21 23  1  0  0  0
 22 28  1  0  0  0
 22 32  2  0  0  0
 26 27  1  0  0  0
 28100  1  0  0  0
 28101  1  0  0  0
 29102  1  0  0  0
 29103  1  0  0  0
 33 34  1  0  0  0
 33 66  1  0  0  0
 33 70  2  0  0  0
 34 36  1  0  0  0
 34 59  1  0  0  0
 34104  1  0  0  0
 35 44  2  0  0  0
 35 45  1  0  0  0
 35 68  1  0  0  0
 36 56  1  0  0  0
 36105  1  0  0  0
 37 39  1  0  0  0
 37 47  1  0  0  0
 37 66  1  0  0  0
 37106  1  0  0  0
 38 43  2  0  0  0
 38 46  1  0  0  0
 38 47  1  0  0  0
 39 64  1  0  0  0
 39 67  2  0  0  0
 40 52  1  0  0  0
 40 53  2  0  0  0
 40 58  1  0  0  0
 41107  1  0  0  0
 41108  1  0  0  0
 41109  1  0  0  0
 41 48  1  0  0  0
 42 43  1  0  0  0
 42 66  1  0  0  0
 42110  1  0  0  0
 42111  1  0  0  0
 43 44  1  0  0  0
 44112  1  0  0  0
 45 46  2  0  0  0
 45113  1  0  0  0
 46114  1  0  0  0
 47115  1  0  0  0
 47116  1  0  0  0
 48 56  1  0  0  0
 48 65  1  0  0  0
 48117  1  0  0  0
 49 50  1  0  0  0
 49 53  1  0  0  0
 49 64  1  0  0  0
 49118  1  0  0  0
 50 51  1  0  0  0
 50119  1  0  0  0
 50120  1  0  0  0
 51 52  1  0  0  0
 51121  1  0  0  0
 51122  1  0  0  0
 52123  1  0  0  0
 52124  1  0  0  0
 53 54  1  0  0  0
 54 55  2  0  0  0
 54125  1  0  0  0
 55 57  1  0  0  0
 55126  1  0  0  0
 56 69  2  0  0  0
 57 58  2  0  0  0
 57127  1  0  0  0
 58128  1  0  0  0
 59 60  1  0  0  0
 59 61  1  0  0  0
 59 62  1  0  0  0
 60129  1  0  0  0
 60130  1  0  0  0
 60131  1  0  0  0
 61132  1  0  0  0
 61133  1  0  0  0
 61134  1  0  0  0
 62135  1  0  0  0
 62136  1  0  0  0
 62137  1  0  0  0
 63 65  1  0  0  0
 63138  1  0  0  0
 63139  1  0  0  0
 63140  1  0  0  0
 64141  1  0  0  0
 65142  1  0  0  0
 68 80  1  0  0  0
 71 72  1  0  0  0
 71 74  2  0  0  0
 71143  1  0  0  0
 72 73  2  0  0  0
 72 78  1  0  0  0
 73 75  1  0  0  0
 73 82  1  0  0  0
 74 82  1  0  0  0
 74 83  1  0  0  0
 75144  1  0  0  0
 75145  1  0  0  0
 75146  1  0  0  0
 76147  1  0  0  0
 76148  1  0  0  0
 76149  1  0  0  0
 76 81  1  0  0  0
 77 81  1  0  0  0
 77150  1  0  0  0
 77151  1  0  0  0
 77152  1  0  0  0
 78 79  1  0  0  0
 78153  1  0  0  0
 78154  1  0  0  0
 79 80  1  0  0  0
 79155  1  0  0  0
 79156  1  0  0  0
 80157  1  0  0  0
 80158  1  0  0  0
 81 82  1  0  0  0
 81159  1  0  0  0
 83160  1  0  0  0
M  ISO  4   1 100  68 101  80 101  83 100
M  END
> <chiral flag>
0

> <version>
0

> <s_m_source_file>
/data/baiqing/PycharmProjects/Reinvent-master-3.2/result/LINK_invent/BTK/process_docking_weight1_custom_sum_contain_oxygen_bond_distance_aromatic_linkinvent_7_9_3/rearranged_h_0121.sdf

> <i_m_source_file_index>
89

> <r_mmod_Potential_Energy-OPLS-2005>
658.034301757812

> <r_mmod_Stretch_Energy-OPLS-2005>
308.442291259766

> <r_mmod_Bend_Energy-OPLS-2005>
309.1826171875

> <r_mmod_Torsional_Energy-OPLS-2005>
263.755676269531

> <r_mmod_Improper_Torsional_Energy-OPLS-2005>
11.2834005355835

> <r_mmod_Van_der_Waal_Energy-OPLS-2005>
109.151840209961

> <r_mmod_Electrostatic_Energy-OPLS-2005>
-383.097778320312

> <r_mmod_Solvation_Energy-OPLS-2005>
-208.110336303711

> <b_mmod_Minimization_Converged-OPLS-2005>
0

> <r_mmod_RMS_Derivative-OPLS-2005>
3.94243788719177

$$$$
89
                    3D
 Structure written by MMmdl.
188198  0  0  1  0            999 V2000
  -30.6695  -14.5220   20.5311 C   0  0  0  0  0  0
  -30.4321  -12.3233   19.4360 C   0  0  0  0  0  0
  -29.5021  -12.4997   18.2158 C   0  0  0  0  0  0
  -28.0229  -12.3558   18.6273 C   0  0  0  0  0  0
  -27.6625  -13.2059   19.8749 C   0  0  2  0  0  0
  -28.7062  -13.0080   20.9996 C   0  0  0  0  0  0
  -25.2604  -13.8158   20.5687 C   0  0  0  0  0  0
  -24.1850  -13.0438   20.9186 C   0  0  0  0  0  0
  -24.6402  -11.6904   20.8740 C   0  0  0  0  0  0
  -23.9063  -10.4291   21.0408 C   0  0  0  0  0  0
  -24.3611   -9.4206   21.9189 C   0  0  0  0  0  0
  -23.6286   -8.2242   22.0756 C   0  0  0  0  0  0
  -22.4270   -8.0282   21.3544 C   0  0  0  0  0  0
  -21.9907   -9.0257   20.4647 C   0  0  0  0  0  0
  -22.7234  -10.2137   20.3058 C   0  0  0  0  0  0
  -21.6852   -6.0736   22.5279 C   0  0  0  0  0  0
  -21.4014   -6.5639   23.8213 C   0  0  0  0  0  0
  -21.3660   -5.6792   24.9175 C   0  0  0  0  0  0
  -21.6041   -4.3054   24.7225 C   0  0  0  0  0  0
  -21.8820   -3.8147   23.4347 C   0  0  0  0  0  0
  -21.9192   -4.6964   22.3401 C   0  0  0  0  0  0
  -22.7873  -13.5240   21.1844 C   0  0  0  0  0  0
  -22.1661   -4.2150   21.0981 F   0  0  0  0  0  0
  -21.5628   -3.4537   25.7738 F   0  0  0  0  0  0
  -30.0347  -13.3194   20.4447 N   0  0  0  0  0  0
  -26.3035  -12.9322   20.3369 N   0  0  0  0  0  0
  -25.9329  -11.6485   20.5779 N   0  0  0  0  0  0
  -22.0507  -12.8234   22.0395 N   0  0  0  0  0  0
  -25.4337  -15.1873   20.4092 N   0  0  0  0  0  0
  -31.8100  -14.7075   20.1006 O   0  0  0  0  0  0
  -21.6636   -6.8879   21.4241 O   0  0  0  0  0  0
  -22.3566  -14.5548   20.6693 O   0  0  0  0  0  0
  -24.6182  -31.8660   23.2079 C   0  0  0  0  0  0
  -25.9062  -32.4816   23.8389 C   0  0  1  0  0  0
  -27.2330  -27.3966   20.1028 C   0  0  0  0  0  0
  -25.5907  -33.8614   24.2319 N   0  0  0  0  0  0
  -23.4083  -30.4896   21.5497 C   0  0  2  0  0  0
  -24.8549  -28.9532   20.1148 C   0  0  0  0  0  0
  -22.7437  -29.4642   22.4975 C   0  0  0  0  0  0
  -18.0281  -28.1373   22.8489 C   0  0  0  0  0  0
  -24.1490  -36.7311   23.2639 C   0  0  0  0  0  0
  -25.9418  -30.8219   21.3658 C   0  0  0  0  0  0
  -26.0195  -29.4547   20.7091 C   0  0  0  0  0  0
  -27.2125  -28.6876   20.6925 C   0  0  0  0  0  0
  -26.0445  -26.9225   19.4993 C   0  0  0  0  0  0
  -24.8647  -27.6890   19.5042 C   0  0  0  0  0  0
  -23.6190  -29.8243   20.1644 C   0  0  0  0  0  0
  -25.4112  -36.3109   24.0335 C   0  0  1  0  0  0
  -20.5873  -28.3666   23.1309 C   0  0  2  0  0  0
  -20.6769  -26.9399   22.5417 C   0  0  0  0  0  0
  -19.5749  -26.6380   21.5212 C   0  0  0  0  0  0
  -18.1925  -26.7920   22.1618 C   0  0  0  0  0  0
  -19.1531  -28.8834   23.2894 C   0  0  0  0  0  0
  -18.9459  -30.1441   23.8903 C   0  0  0  0  0  0
  -17.6462  -30.6584   24.0558 C   0  0  0  0  0  0
  -25.9039  -34.9471   23.5124 C   0  0  0  0  0  0
  -16.5351  -29.9082   23.6321 C   0  0  0  0  0  0
  -16.7270  -28.6498   23.0347 C   0  0  0  0  0  0
  -26.4475  -31.6601   25.0728 C   0  0  0  0  0  0
  -25.3730  -31.3708   26.1468 C   0  0  0  0  0  0
  -27.0312  -30.3046   24.6110 C   0  0  0  0  0  0
  -27.6046  -32.4321   25.7492 C   0  0  0  0  0  0
  -27.5585  -37.1811   24.8464 C   0  0  0  0  0  0
  -21.4158  -29.3035   22.3718 N   0  0  0  0  0  0
  -26.4298  -37.3793   23.9405 N   0  0  0  0  0  0
  -24.6747  -31.0734   22.0994 N   0  0  0  0  0  0
  -23.4193  -28.8177   23.3025 O   0  0  0  0  0  0
  -28.3879  -26.6245   20.1231 O   0  0  0  0  0  0
  -26.5603  -34.8926   22.4688 O   0  0  0  0  0  0
  -23.5364  -32.1420   23.7456 O   0  0  0  0  0  0
  -34.1535  -18.8970   20.5902 C   0  0  0  0  0  0
  -33.6495  -18.9819   22.0339 C   0  0  0  0  0  0
  -33.0351  -18.4233   19.6586 C   0  0  0  0  0  0
  -28.9021  -20.5171   20.2552 C   0  0  0  0  0  0
  -28.5596  -21.9904   19.9050 C   0  0  0  0  0  0
  -32.3750  -19.8458   22.1132 C   0  0  0  0  0  0
  -31.7802  -19.3165   19.7828 C   0  0  0  0  0  0
  -29.2253  -16.6182   23.5594 C   0  0  0  0  0  0
  -30.5419  -22.0249   21.2021 C   0  0  0  0  0  0
  -28.7445  -16.9167   24.9814 C   0  0  0  0  0  0
  -30.2411  -18.6266   24.2591 C   0  0  0  0  0  0
  -30.0671  -20.5439   21.2726 C   0  0  2  0  0  0
  -29.2808  -22.8756   20.9337 C   0  0  1  0  0  0
  -29.6729  -17.9735   22.9810 C   0  0  1  0  0  0
  -31.1652  -19.3788   21.2218 C   0  0  0  0  0  0
  -30.3355  -25.0946   21.6414 C   0  0  0  0  0  0
  -30.0352  -16.9956   20.5923 C   0  0  0  0  0  0
  -28.2152  -25.1863   20.2501 C   0  0  0  0  0  0
  -30.6258  -17.9290   21.7223 C   0  0  2  0  0  0
  -29.5249  -24.3834   20.5410 C   0  0  2  0  0  0
  -29.8812  -15.5525   20.9097 N   0  0  0  0  0  0
  -29.4272  -18.1519   25.3909 N   0  3  0  0  0  0
  -31.4760  -12.4290   19.1357 H   0  0  0  0  0  0
  -30.3409  -11.3166   19.8470 H   0  0  0  0  0  0
  -29.7473  -11.7665   17.4463 H   0  0  0  0  0  0
  -29.6645  -13.4806   17.7665 H   0  0  0  0  0  0
  -27.8399  -11.3008   18.8352 H   0  0  0  0  0  0
  -27.3716  -12.6174   17.7926 H   0  0  0  0  0  0
  -27.6990  -14.2491   19.5616 H   0  0  0  0  0  0
  -28.6906  -11.9766   21.3556 H   0  0  0  0  0  0
  -28.4695  -13.6217   21.8700 H   0  0  0  0  0  0
  -25.2758   -9.5682   22.4763 H   0  0  0  0  0  0
  -23.9996   -7.4635   22.7479 H   0  0  0  0  0  0
  -21.0839   -8.8777   19.8955 H   0  0  0  0  0  0
  -22.3694  -10.9678   19.6167 H   0  0  0  0  0  0
  -21.2006   -7.6148   23.9717 H   0  0  0  0  0  0
  -21.1480   -6.0522   25.9079 H   0  0  0  0  0  0
  -22.0597   -2.7609   23.2848 H   0  0  0  0  0  0
  -22.4106  -11.9882   22.4768 H   0  0  0  0  0  0
  -21.1126  -13.1273   22.2600 H   0  0  0  0  0  0
  -24.6645  -15.8410   20.5082 H   0  0  0  0  0  0
  -26.2798  -15.6233   20.0656 H   0  0  0  0  0  0
  -26.7132  -32.5516   23.1149 H   0  0  0  0  0  0
  -25.0068  -33.9775   25.0471 H   0  0  0  0  0  0
  -22.6981  -31.3072   21.4101 H   0  0  0  0  0  0
  -23.3752  -35.9643   23.3303 H   0  0  0  0  0  0
  -24.3585  -36.8927   22.2055 H   0  0  0  0  0  0
  -23.7239  -37.6513   23.6655 H   0  0  0  0  0  0
  -26.0607  -31.5892   20.5996 H   0  0  0  0  0  0
  -26.8264  -30.8728   21.9885 H   0  0  0  0  0  0
  -28.1115  -29.0715   21.1546 H   0  0  0  0  0  0
  -26.0085  -25.9588   19.0145 H   0  0  0  0  0  0
  -23.9701  -27.2983   19.0389 H   0  0  0  0  0  0
  -23.7313  -30.6007   19.4068 H   0  0  0  0  0  0
  -22.7413  -29.2479   19.8656 H   0  0  0  0  0  0
  -25.1287  -36.1978   25.0828 H   0  0  0  0  0  0
  -20.9963  -28.3233   24.1430 H   0  0  0  0  0  0
  -20.5677  -26.2272   23.3606 H   0  0  0  0  0  0
  -21.6641  -26.7439   22.1212 H   0  0  0  0  0  0
  -19.6913  -25.6291   21.1239 H   0  0  0  0  0  0
  -19.6692  -27.3189   20.6742 H   0  0  0  0  0  0
  -17.4201  -26.6677   21.4013 H   0  0  0  0  0  0
  -18.0313  -26.0054   22.9005 H   0  0  0  0  0  0
  -19.7937  -30.7252   24.2280 H   0  0  0  0  0  0
  -17.5020  -31.6268   24.5155 H   0  0  0  0  0  0
  -15.5354  -30.2992   23.7639 H   0  0  0  0  0  0
  -15.8668  -28.0826   22.7054 H   0  0  0  0  0  0
  -24.5917  -30.7036   25.7804 H   0  0  0  0  0  0
  -24.8902  -32.2863   26.4899 H   0  0  0  0  0  0
  -25.8080  -30.8897   27.0238 H   0  0  0  0  0  0
  -26.2865  -29.6808   24.1149 H   0  0  0  0  0  0
  -27.4071  -29.7278   25.4570 H   0  0  0  0  0  0
  -27.8702  -30.4369   23.9273 H   0  0  0  0  0  0
  -27.2667  -33.3615   26.2085 H   0  0  0  0  0  0
  -28.3847  -32.6888   25.0315 H   0  0  0  0  0  0
  -28.0718  -31.8435   26.5395 H   0  0  0  0  0  0
  -28.2602  -38.0112   24.7522 H   0  0  0  0  0  0
  -28.1085  -36.2644   24.6279 H   0  0  0  0  0  0
  -27.2306  -37.1450   25.8869 H   0  0  0  0  0  0
  -20.9316  -29.8786   21.6965 H   0  0  0  0  0  0
  -26.0189  -38.2872   24.1405 H   0  0  0  0  0  0
  -35.0099  -18.2244   20.5275 H   0  0  0  0  0  0
  -34.5073  -19.8771   20.2661 H   0  0  0  0  0  0
  -34.4265  -19.4275   22.6570 H   0  0  0  0  0  0
  -33.4909  -17.9849   22.4419 H   0  0  0  0  0  0
  -32.8014  -17.3834   19.8833 H   0  0  0  0  0  0
  -33.3918  -18.4346   18.6279 H   0  0  0  0  0  0
  -29.1390  -19.9730   19.3435 H   0  0  0  0  0  0
  -28.0395  -20.0143   20.6943 H   0  0  0  0  0  0
  -27.4834  -22.1671   19.8957 H   0  0  0  0  0  0
  -28.9301  -22.2164   18.9040 H   0  0  0  0  0  0
  -32.7027  -20.8334   21.7917 H   0  0  0  0  0  0
  -32.1019  -19.9934   23.1513 H   0  0  0  0  0  0
  -31.0490  -19.0097   19.0382 H   0  0  0  0  0  0
  -32.0685  -20.3187   19.4669 H   0  0  0  0  0  0
  -28.4304  -16.1479   22.9810 H   0  0  0  0  0  0
  -30.0707  -15.9292   23.6051 H   0  0  0  0  0  0
  -31.2558  -22.1718   20.3916 H   0  0  0  0  0  0
  -31.0293  -22.3312   22.1282 H   0  0  0  0  0  0
  -28.9603  -16.0953   25.6655 H   0  0  0  0  0  0
  -27.6677  -17.0881   24.9963 H   0  0  0  0  0  0
  -30.2282  -19.7154   24.2378 H   0  0  0  0  0  0
  -31.2677  -18.2973   24.4269 H   0  0  0  0  0  0
  -29.5929  -20.5024   22.2493 H   0  0  0  0  0  0
  -28.6832  -22.8653   21.8471 H   0  0  0  0  0  0
  -28.7595  -18.5004   22.7033 H   0  0  0  0  0  0
  -31.3026  -24.6194   21.8019 H   0  0  0  0  0  0
  -29.7994  -25.0966   22.5908 H   0  0  0  0  0  0
  -30.5415  -26.1320   21.3769 H   0  0  0  0  0  0
  -30.6239  -17.0258   19.6801 H   0  0  0  0  0  0
  -29.0557  -17.3773   20.3025 H   0  0  0  0  0  0
  -27.4978  -24.9904   21.0491 H   0  0  0  0  0  0
  -27.7850  -24.7866   19.3319 H   0  0  0  0  0  0
  -31.4999  -17.3714   22.0476 H   0  0  0  0  0  0
  -30.1275  -24.4048   19.6317 H   0  0  0  0  0  0
  -28.9710  -15.2757   21.2427 H   0  0  0  0  0  0
  -30.0040  -17.9966   26.2022 H   0  0  0  0  0  0
  -28.7343  -18.8433   25.6294 H   0  0  0  0  0  0
  1 25  1  0  0  0
  1 30  2  0  0  0
  1 91  1  0  0  0
  2  3  1  0  0  0
  2 25  1  0  0  0
  2 93  1  0  0  0
  2 94  1  0  0  0
  3  4  1  0  0  0
  3 95  1  0  0  0
  3 96  1  0  0  0
  4  5  1  0  0  0
  4 97  1  0  0  0
  4 98  1  0  0  0
  5  6  1  0  0  0
  5 26  1  0  0  0
  5 99  1  0  0  0
  6 25  1  0  0  0
  6100  1  0  0  0
  6101  1  0  0  0
  7  8  2  0  0  0
  7 26  1  0  0  0
  7 29  1  0  0  0
  8  9  1  0  0  0
  8 22  1  0  0  0
  9 10  1  0  0  0
  9 27  2  0  0  0
 10 11  2  0  0  0
 10 15  1  0  0  0
 11 12  1  0  0  0
 11102  1  0  0  0
 12 13  2  0  0  0
 12103  1  0  0  0
 13 14  1  0  0  0
 13 31  1  0  0  0
 14 15  2  0  0  0
 14104  1  0  0  0
 15105  1  0  0  0
 16 17  2  0  0  0
 16 21  1  0  0  0
 16 31  1  0  0  0
 17 18  1  0  0  0
 17106  1  0  0  0
 18 19  2  0  0  0
 18107  1  0  0  0
 19 20  1  0  0  0
 19 24  1  0  0  0
 20 21  2  0  0  0
 20108  1  0  0  0
 21 23  1  0  0  0
 22 28  1  0  0  0
 22 32  2  0  0  0
 26 27  1  0  0  0
 28109  1  0  0  0
 28110  1  0  0  0
 29111  1  0  0  0
 29112  1  0  0  0
 33 34  1  0  0  0
 33 66  1  0  0  0
 33 70  2  0  0  0
 34 36  1  0  0  0
 34 59  1  0  0  0
 34113  1  0  0  0
 35 44  2  0  0  0
 35 45  1  0  0  0
 35 68  1  0  0  0
 36 56  1  0  0  0
 36114  1  0  0  0
 37 39  1  0  0  0
 37 47  1  0  0  0
 37 66  1  0  0  0
 37115  1  0  0  0
 38 43  2  0  0  0
 38 46  1  0  0  0
 38 47  1  0  0  0
 39 64  1  0  0  0
 39 67  2  0  0  0
 40 52  1  0  0  0
 40 53  2  0  0  0
 40 58  1  0  0  0
 41116  1  0  0  0
 41117  1  0  0  0
 41118  1  0  0  0
 41 48  1  0  0  0
 42 43  1  0  0  0
 42 66  1  0  0  0
 42119  1  0  0  0
 42120  1  0  0  0
 43 44  1  0  0  0
 44121  1  0  0  0
 45 46  2  0  0  0
 45122  1  0  0  0
 46123  1  0  0  0
 47124  1  0  0  0
 47125  1  0  0  0
 48 56  1  0  0  0
 48 65  1  0  0  0
 48126  1  0  0  0
 49 50  1  0  0  0
 49 53  1  0  0  0
 49 64  1  0  0  0
 49127  1  0  0  0
 50 51  1  0  0  0
 50128  1  0  0  0
 50129  1  0  0  0
 51 52  1  0  0  0
 51130  1  0  0  0
 51131  1  0  0  0
 52132  1  0  0  0
 52133  1  0  0  0
 53 54  1  0  0  0
 54 55  2  0  0  0
 54134  1  0  0  0
 55 57  1  0  0  0
 55135  1  0  0  0
 56 69  2  0  0  0
 57 58  2  0  0  0
 57136  1  0  0  0
 58137  1  0  0  0
 59 60  1  0  0  0
 59 61  1  0  0  0
 59 62  1  0  0  0
 60138  1  0  0  0
 60139  1  0  0  0
 60140  1  0  0  0
 61141  1  0  0  0
 61142  1  0  0  0
 61143  1  0  0  0
 62144  1  0  0  0
 62145  1  0  0  0
 62146  1  0  0  0
 63 65  1  0  0  0
 63147  1  0  0  0
 63148  1  0  0  0
 63149  1  0  0  0
 64150  1  0  0  0
 65151  1  0  0  0
 68 88  1  0  0  0
 71 72  1  0  0  0
 71 73  1  0  0  0
 71152  1  0  0  0
 71153  1  0  0  0
 72 76  1  0  0  0
 72154  1  0  0  0
 72155  1  0  0  0
 73 77  1  0  0  0
 73156  1  0  0  0
 73157  1  0  0  0
 74 75  1  0  0  0
 74158  1  0  0  0
 74159  1  0  0  0
 74 82  1  0  0  0
 75160  1  0  0  0
 75161  1  0  0  0
 75 83  1  0  0  0
 76162  1  0  0  0
 76163  1  0  0  0
 76 85  1  0  0  0
 77 85  1  0  0  0
 77164  1  0  0  0
 77165  1  0  0  0
 78 80  1  0  0  0
 78166  1  0  0  0
 78167  1  0  0  0
 78 84  1  0  0  0
 79 82  1  0  0  0
 79 83  1  0  0  0
 79168  1  0  0  0
 79169  1  0  0  0
 80 92  1  0  0  0
 80170  1  0  0  0
 80171  1  0  0  0
 81 84  1  0  0  0
 81 92  1  0  0  0
 81172  1  0  0  0
 81173  1  0  0  0
 82 85  1  0  0  0
 82174  1  0  0  0
 83 90  1  0  0  0
 83175  1  0  0  0
 84 89  1  0  0  0
 84176  1  0  0  0
 85 89  1  0  0  0
 86177  1  0  0  0
 86178  1  0  0  0
 86179  1  0  0  0
 86 90  1  0  0  0
 87 91  1  0  0  0
 87180  1  0  0  0
 87181  1  0  0  0
 87 89  1  0  0  0
 88 90  1  0  0  0
 88182  1  0  0  0
 88183  1  0  0  0
 89184  1  0  0  0
 90185  1  0  0  0
 91186  1  0  0  0
 92187  1  0  0  0
 92188  1  0  0  0
M  CHG  1  92   1
M  ISO  4   1 100  68 101  88 101  91 100
M  END
> <chiral flag>
0

> <version>
0

> <s_m_source_file>
/data/baiqing/PycharmProjects/Reinvent-master-3.2/result/LINK_invent/BTK/process_docking_weight1_custom_sum_contain_oxygen_bond_distance_aromatic_linkinvent_7_9_3/rearranged_h_0121.sdf

> <i_m_source_file_index>
90

> <r_mmod_Potential_Energy-OPLS-2005>
83.6283493041992

> <r_mmod_Stretch_Energy-OPLS-2005>
70.2779693603516

> <r_mmod_Bend_Energy-OPLS-2005>
191.082916259766

> <r_mmod_Torsional_Energy-OPLS-2005>
396.2099609375

> <r_mmod_Improper_Torsional_Energy-OPLS-2005>
5.92492055892944

> <r_mmod_Van_der_Waal_Energy-OPLS-2005>
143.215911865234

> <r_mmod_Electrostatic_Energy-OPLS-2005>
-280.662353515625

> <r_mmod_Solvation_Energy-OPLS-2005>
-462.281555175781

> <b_mmod_Minimization_Converged-OPLS-2005>
0

> <r_mmod_RMS_Derivative-OPLS-2005>
0.682126522064209

$$$$
90
                    3D
 Structure written by MMmdl.
178187  0  0  1  0            999 V2000
  -30.7398  -14.4013   20.5952 C   0  0  0  0  0  0
  -30.4142  -12.2707   19.4108 C   0  0  0  0  0  0
  -29.4896  -12.5045   18.1995 C   0  0  0  0  0  0
  -28.0092  -12.3792   18.6106 C   0  0  0  0  0  0
  -27.6652  -13.2055   19.8795 C   0  0  2  0  0  0
  -28.7048  -12.9617   20.9956 C   0  0  0  0  0  0
  -25.2602  -13.8163   20.5695 C   0  0  0  0  0  0
  -24.1845  -13.0443   20.9171 C   0  0  0  0  0  0
  -24.6395  -11.6910   20.8731 C   0  0  0  0  0  0
  -23.9060  -10.4294   21.0398 C   0  0  0  0  0  0
  -24.3612   -9.4213   21.9179 C   0  0  0  0  0  0
  -23.6289   -8.2250   22.0752 C   0  0  0  0  0  0
  -22.4273   -8.0282   21.3541 C   0  0  0  0  0  0
  -21.9907   -9.0259   20.4644 C   0  0  0  0  0  0
  -22.7232  -10.2138   20.3052 C   0  0  0  0  0  0
  -21.6855   -6.0735   22.5278 C   0  0  0  0  0  0
  -21.4015   -6.5639   23.8212 C   0  0  0  0  0  0
  -21.3659   -5.6792   24.9174 C   0  0  0  0  0  0
  -21.6044   -4.3055   24.7226 C   0  0  0  0  0  0
  -21.8822   -3.8146   23.4346 C   0  0  0  0  0  0
  -21.9193   -4.6962   22.3403 C   0  0  0  0  0  0
  -22.7865  -13.5243   21.1838 C   0  0  0  0  0  0
  -22.1661   -4.2147   21.0980 F   0  0  0  0  0  0
  -21.5629   -3.4540   25.7739 F   0  0  0  0  0  0
  -30.0409  -13.2454   20.4450 N   0  0  0  0  0  0
  -26.3046  -12.9337   20.3396 N   0  0  0  0  0  0
  -25.9324  -11.6493   20.5768 N   0  0  0  0  0  0
  -22.0509  -12.8235   22.0394 N   0  0  0  0  0  0
  -25.4330  -15.1876   20.4116 N   0  0  0  0  0  0
  -31.8575  -14.5808   20.0974 O   0  0  0  0  0  0
  -21.6638   -6.8880   21.4239 O   0  0  0  0  0  0
  -22.3548  -14.5549   20.6686 O   0  0  0  0  0  0
  -24.6122  -31.8698   23.2141 C   0  0  0  0  0  0
  -25.9038  -32.4825   23.8413 C   0  0  1  0  0  0
  -27.2353  -27.4596   20.0898 C   0  0  0  0  0  0
  -25.5916  -33.8623   24.2356 N   0  0  0  0  0  0
  -23.3964  -30.4947   21.5546 C   0  0  2  0  0  0
  -24.8393  -28.9621   20.1181 C   0  0  0  0  0  0
  -22.7391  -29.4670   22.5025 C   0  0  0  0  0  0
  -18.0270  -28.1365   22.8502 C   0  0  0  0  0  0
  -24.1486  -36.7311   23.2640 C   0  0  0  0  0  0
  -25.9221  -30.8416   21.3637 C   0  0  0  0  0  0
  -25.9969  -29.4784   20.7107 C   0  0  0  0  0  0
  -27.1931  -28.7332   20.6947 C   0  0  0  0  0  0
  -26.0543  -26.9464   19.5014 C   0  0  0  0  0  0
  -24.8611  -27.6926   19.5154 C   0  0  0  0  0  0
  -23.6013  -29.8268   20.1685 C   0  0  0  0  0  0
  -25.4104  -36.3112   24.0344 C   0  0  1  0  0  0
  -20.5859  -28.3647   23.1337 C   0  0  2  0  0  0
  -20.6766  -26.9391   22.5420 C   0  0  0  0  0  0
  -19.5747  -26.6383   21.5212 C   0  0  0  0  0  0
  -18.1921  -26.7920   22.1618 C   0  0  0  0  0  0
  -19.1520  -28.8825   23.2916 C   0  0  0  0  0  0
  -18.9446  -30.1433   23.8922 C   0  0  0  0  0  0
  -17.6450  -30.6579   24.0565 C   0  0  0  0  0  0
  -25.9029  -34.9475   23.5139 C   0  0  0  0  0  0
  -16.5343  -29.9075   23.6329 C   0  0  0  0  0  0
  -16.7260  -28.6488   23.0357 C   0  0  0  0  0  0
  -26.4486  -31.6597   25.0726 C   0  0  0  0  0  0
  -25.3772  -31.3668   26.1485 C   0  0  0  0  0  0
  -27.0336  -30.3054   24.6083 C   0  0  0  0  0  0
  -27.6066  -32.4318   25.7482 C   0  0  0  0  0  0
  -27.5581  -37.1809   24.8467 C   0  0  0  0  0  0
  -21.4127  -29.3018   22.3749 N   0  0  0  0  0  0
  -26.4295  -37.3792   23.9409 N   0  0  0  0  0  0
  -24.6615  -31.0826   22.1025 N   0  0  0  0  0  0
  -23.4180  -28.8218   23.3059 O   0  0  0  0  0  0
  -28.4461  -26.8031   20.0935 O   0  0  0  0  0  0
  -26.5576  -34.8923   22.4691 O   0  0  0  0  0  0
  -23.5330  -32.1438   23.7567 O   0  0  0  0  0  0
  -26.9239  -24.4233   21.5722 C   0  0  0  0  0  0
  -28.9461  -23.1345   20.8124 C   0  0  0  0  0  0
  -26.7954  -23.4870   22.7888 C   0  0  0  0  0  0
  -28.8187  -22.2201   22.0388 C   0  0  0  0  0  0
  -28.8223  -17.5504   20.5277 C   0  0  0  0  0  0
  -28.8854  -16.6831   22.8800 C   0  0  0  0  0  0
  -30.0233  -16.6559   20.2011 C   0  0  0  0  0  0
  -30.0639  -15.7702   22.4817 C   0  0  0  0  0  0
  -28.3774  -24.5396   21.0693 C   0  0  1  0  0  0
  -27.3476  -22.0701   22.4999 C   0  0  1  0  0  0
  -28.8562  -17.9524   22.0083 C   0  0  0  0  0  0
  -25.3822  -19.9090   25.1964 C   0  0  0  0  0  0
  -27.7100  -18.9168   22.3589 C   0  0  0  0  0  0
  -28.5301  -25.4107   19.8017 C   0  0  0  0  0  0
  -25.6603  -20.7416   23.9356 C   0  0  0  0  0  0
  -28.0127  -19.7935   23.5935 C   0  0  0  0  0  0
  -27.1549  -21.0841   23.7011 C   0  0  1  0  0  0
  -30.0260  -15.4531   21.0463 N   0  0  0  0  0  0
  -31.4604  -12.3531   19.1102 H   0  0  0  0  0  0
  -30.2959  -11.2561   19.7944 H   0  0  0  0  0  0
  -29.7178  -11.7899   17.4077 H   0  0  0  0  0  0
  -29.6725  -13.4950   17.7792 H   0  0  0  0  0  0
  -27.8041  -11.3230   18.7892 H   0  0  0  0  0  0
  -27.3635  -12.6774   17.7840 H   0  0  0  0  0  0
  -27.7182  -14.2583   19.6007 H   0  0  0  0  0  0
  -28.6639  -11.9256   21.3347 H   0  0  0  0  0  0
  -28.4722  -13.5660   21.8723 H   0  0  0  0  0  0
  -25.2761   -9.5692   22.4749 H   0  0  0  0  0  0
  -24.0001   -7.4643   22.7475 H   0  0  0  0  0  0
  -21.0837   -8.8776   19.8950 H   0  0  0  0  0  0
  -22.3691  -10.9677   19.6160 H   0  0  0  0  0  0
  -21.2009   -7.6149   23.9714 H   0  0  0  0  0  0
  -21.1477   -6.0524   25.9078 H   0  0  0  0  0  0
  -22.0601   -2.7608   23.2850 H   0  0  0  0  0  0
  -22.4121  -11.9895   22.4781 H   0  0  0  0  0  0
  -21.1127  -13.1263   22.2600 H   0  0  0  0  0  0
  -24.6743  -15.8487   20.5341 H   0  0  0  0  0  0
  -26.3041  -15.6260   20.1423 H   0  0  0  0  0  0
  -26.7108  -32.5546   23.1178 H   0  0  0  0  0  0
  -25.0125  -33.9782   25.0544 H   0  0  0  0  0  0
  -22.6838  -31.3108   21.4184 H   0  0  0  0  0  0
  -23.3749  -35.9644   23.3314 H   0  0  0  0  0  0
  -24.3583  -36.8904   22.2051 H   0  0  0  0  0  0
  -23.7234  -37.6518   23.6645 H   0  0  0  0  0  0
  -26.0356  -31.6110   20.5989 H   0  0  0  0  0  0
  -26.8097  -30.8905   21.9826 H   0  0  0  0  0  0
  -28.0893  -29.1317   21.1498 H   0  0  0  0  0  0
  -26.0226  -25.9796   19.0248 H   0  0  0  0  0  0
  -23.9681  -27.2866   19.0602 H   0  0  0  0  0  0
  -23.7062  -30.6019   19.4082 H   0  0  0  0  0  0
  -22.7255  -29.2441   19.8763 H   0  0  0  0  0  0
  -25.1277  -36.1985   25.0837 H   0  0  0  0  0  0
  -20.9947  -28.3212   24.1459 H   0  0  0  0  0  0
  -20.5682  -26.2246   23.3594 H   0  0  0  0  0  0
  -21.6636  -26.7449   22.1204 H   0  0  0  0  0  0
  -19.6911  -25.6299   21.1227 H   0  0  0  0  0  0
  -19.6699  -27.3207   20.6753 H   0  0  0  0  0  0
  -17.4197  -26.6692   21.4009 H   0  0  0  0  0  0
  -18.0308  -26.0043   22.8992 H   0  0  0  0  0  0
  -19.7921  -30.7239   24.2311 H   0  0  0  0  0  0
  -17.5003  -31.6265   24.5156 H   0  0  0  0  0  0
  -15.5343  -30.2981   23.7639 H   0  0  0  0  0  0
  -15.8658  -28.0807   22.7072 H   0  0  0  0  0  0
  -24.5956  -30.7006   25.7822 H   0  0  0  0  0  0
  -24.8956  -32.2804   26.4975 H   0  0  0  0  0  0
  -25.8147  -30.8817   27.0220 H   0  0  0  0  0  0
  -26.2873  -29.6779   24.1200 H   0  0  0  0  0  0
  -27.4196  -29.7321   25.4522 H   0  0  0  0  0  0
  -27.8665  -30.4392   23.9175 H   0  0  0  0  0  0
  -27.2695  -33.3604   26.2100 H   0  0  0  0  0  0
  -28.3855  -32.6895   25.0294 H   0  0  0  0  0  0
  -28.0768  -31.8422   26.5362 H   0  0  0  0  0  0
  -28.2606  -38.0100   24.7519 H   0  0  0  0  0  0
  -28.1068  -36.2632   24.6292 H   0  0  0  0  0  0
  -27.2303  -37.1462   25.8872 H   0  0  0  0  0  0
  -20.9286  -29.8725   21.6961 H   0  0  0  0  0  0
  -26.0191  -38.2874   24.1408 H   0  0  0  0  0  0
  -26.5436  -25.4075   21.8467 H   0  0  0  0  0  0
  -26.2829  -24.0580   20.7688 H   0  0  0  0  0  0
  -28.4306  -22.6784   19.9657 H   0  0  0  0  0  0
  -29.9965  -23.2053   20.5261 H   0  0  0  0  0  0
  -25.7451  -23.4510   23.0724 H   0  0  0  0  0  0
  -27.3240  -23.9211   23.6388 H   0  0  0  0  0  0
  -29.4315  -22.6046   22.8561 H   0  0  0  0  0  0
  -29.2466  -21.2587   21.7586 H   0  0  0  0  0  0
  -27.8917  -17.0323   20.2941 H   0  0  0  0  0  0
  -28.8523  -18.4371   19.8926 H   0  0  0  0  0  0
  -28.9681  -16.9510   23.9342 H   0  0  0  0  0  0
  -27.9466  -16.1367   22.7734 H   0  0  0  0  0  0
  -30.9556  -17.2059   20.3421 H   0  0  0  0  0  0
  -29.9830  -16.3821   19.1441 H   0  0  0  0  0  0
  -30.0418  -14.8587   23.0820 H   0  0  0  0  0  0
  -31.0104  -16.2634   22.7117 H   0  0  0  0  0  0
  -28.9761  -24.9967   21.8592 H   0  0  0  0  0  0
  -26.7830  -21.6721   21.6555 H   0  0  0  0  0  0
  -29.7962  -18.4855   22.1596 H   0  0  0  0  0  0
  -24.3095  -19.8346   25.3768 H   0  0  0  0  0  0
  -25.8334  -20.3629   26.0793 H   0  0  0  0  0  0
  -25.7621  -18.8917   25.1053 H   0  0  0  0  0  0
  -26.7761  -18.3704   22.4947 H   0  0  0  0  0  0
  -27.5450  -19.5621   21.4981 H   0  0  0  0  0  0
  -27.8877  -25.0779   18.9884 H   0  0  0  0  0  0
  -29.5405  -25.2729   19.4158 H   0  0  0  0  0  0
  -25.0784  -21.6560   24.0315 H   0  0  0  0  0  0
  -25.2520  -20.2251   23.0662 H   0  0  0  0  0  0
  -29.0653  -20.0755   23.6016 H   0  0  0  0  0  0
  -27.9113  -19.1898   24.4945 H   0  0  0  0  0  0
  -27.5091  -21.6051   24.5922 H   0  0  0  0  0  0
  1 25  1  0  0  0
  1 30  2  0  0  0
  1 88  1  0  0  0
  2  3  1  0  0  0
  2 25  1  0  0  0
  2 89  1  0  0  0
  2 90  1  0  0  0
  3  4  1  0  0  0
  3 91  1  0  0  0
  3 92  1  0  0  0
  4  5  1  0  0  0
  4 93  1  0  0  0
  4 94  1  0  0  0
  5  6  1  0  0  0
  5 26  1  0  0  0
  5 95  1  0  0  0
  6 25  1  0  0  0
  6 96  1  0  0  0
  6 97  1  0  0  0
  7  8  2  0  0  0
  7 26  1  0  0  0
  7 29  1  0  0  0
  8  9  1  0  0  0
  8 22  1  0  0  0
  9 10  1  0  0  0
  9 27  2  0  0  0
 10 11  2  0  0  0
 10 15  1  0  0  0
 11 12  1  0  0  0
 11 98  1  0  0  0
 12 13  2  0  0  0
 12 99  1  0  0  0
 13 14  1  0  0  0
 13 31  1  0  0  0
 14 15  2  0  0  0
 14100  1  0  0  0
 15101  1  0  0  0
 16 17  2  0  0  0
 16 21  1  0  0  0
 16 31  1  0  0  0
 17 18  1  0  0  0
 17102  1  0  0  0
 18 19  2  0  0  0
 18103  1  0  0  0
 19 20  1  0  0  0
 19 24  1  0  0  0
 20 21  2  0  0  0
 20104  1  0  0  0
 21 23  1  0  0  0
 22 28  1  0  0  0
 22 32  2  0  0  0
 26 27  1  0  0  0
 28105  1  0  0  0
 28106  1  0  0  0
 29107  1  0  0  0
 29108  1  0  0  0
 33 34  1  0  0  0
 33 66  1  0  0  0
 33 70  2  0  0  0
 34 36  1  0  0  0
 34 59  1  0  0  0
 34109  1  0  0  0
 35 44  2  0  0  0
 35 45  1  0  0  0
 35 68  1  0  0  0
 36 56  1  0  0  0
 36110  1  0  0  0
 37 39  1  0  0  0
 37 47  1  0  0  0
 37 66  1  0  0  0
 37111  1  0  0  0
 38 43  2  0  0  0
 38 46  1  0  0  0
 38 47  1  0  0  0
 39 64  1  0  0  0
 39 67  2  0  0  0
 40 52  1  0  0  0
 40 53  2  0  0  0
 40 58  1  0  0  0
 41112  1  0  0  0
 41113  1  0  0  0
 41114  1  0  0  0
 41 48  1  0  0  0
 42 43  1  0  0  0
 42 66  1  0  0  0
 42115  1  0  0  0
 42116  1  0  0  0
 43 44  1  0  0  0
 44117  1  0  0  0
 45 46  2  0  0  0
 45118  1  0  0  0
 46119  1  0  0  0
 47120  1  0  0  0
 47121  1  0  0  0
 48 56  1  0  0  0
 48 65  1  0  0  0
 48122  1  0  0  0
 49 50  1  0  0  0
 49 53  1  0  0  0
 49 64  1  0  0  0
 49123  1  0  0  0
 50 51  1  0  0  0
 50124  1  0  0  0
 50125  1  0  0  0
 51 52  1  0  0  0
 51126  1  0  0  0
 51127  1  0  0  0
 52128  1  0  0  0
 52129  1  0  0  0
 53 54  1  0  0  0
 54 55  2  0  0  0
 54130  1  0  0  0
 55 57  1  0  0  0
 55131  1  0  0  0
 56 69  2  0  0  0
 57 58  2  0  0  0
 57132  1  0  0  0
 58133  1  0  0  0
 59 60  1  0  0  0
 59 61  1  0  0  0
 59 62  1  0  0  0
 60134  1  0  0  0
 60135  1  0  0  0
 60136  1  0  0  0
 61137  1  0  0  0
 61138  1  0  0  0
 61139  1  0  0  0
 62140  1  0  0  0
 62141  1  0  0  0
 62142  1  0  0  0
 63 65  1  0  0  0
 63143  1  0  0  0
 63144  1  0  0  0
 63145  1  0  0  0
 64146  1  0  0  0
 65147  1  0  0  0
 68 84  1  0  0  0
 71 73  1  0  0  0
 71 79  1  0  0  0
 71148  1  0  0  0
 71149  1  0  0  0
 72 74  1  0  0  0
 72 79  1  0  0  0
 72150  1  0  0  0
 72151  1  0  0  0
 73152  1  0  0  0
 73153  1  0  0  0
 73 80  1  0  0  0
 74 80  1  0  0  0
 74154  1  0  0  0
 74155  1  0  0  0
 75 77  1  0  0  0
 75 81  1  0  0  0
 75156  1  0  0  0
 75157  1  0  0  0
 76 78  1  0  0  0
 76 81  1  0  0  0
 76158  1  0  0  0
 76159  1  0  0  0
 77 88  1  0  0  0
 77160  1  0  0  0
 77161  1  0  0  0
 78 88  1  0  0  0
 78162  1  0  0  0
 78163  1  0  0  0
 79 84  1  0  0  0
 79164  1  0  0  0
 80 87  1  0  0  0
 80165  1  0  0  0
 81 83  1  0  0  0
 81166  1  0  0  0
 82 85  1  0  0  0
 82167  1  0  0  0
 82168  1  0  0  0
 82169  1  0  0  0
 83 86  1  0  0  0
 83170  1  0  0  0
 83171  1  0  0  0
 84172  1  0  0  0
 84173  1  0  0  0
 85174  1  0  0  0
 85175  1  0  0  0
 85 87  1  0  0  0
 86 87  1  0  0  0
 86176  1  0  0  0
 86177  1  0  0  0
 87178  1  0  0  0
M  ISO  4   1 100  68 101  84 101  88 100
M  END
> <chiral flag>
0

> <version>
0

> <s_m_source_file>
/data/baiqing/PycharmProjects/Reinvent-master-3.2/result/LINK_invent/BTK/process_docking_weight1_custom_sum_contain_oxygen_bond_distance_aromatic_linkinvent_7_9_3/rearranged_h_0121.sdf

> <i_m_source_file_index>
91

> <r_mmod_Potential_Energy-OPLS-2005>
221.555267333984

> <r_mmod_Stretch_Energy-OPLS-2005>
35.9325256347656

> <r_mmod_Bend_Energy-OPLS-2005>
117.243499755859

> <r_mmod_Torsional_Energy-OPLS-2005>
349.290130615234

> <r_mmod_Improper_Torsional_Energy-OPLS-2005>
10.7478809356689

> <r_mmod_Van_der_Waal_Energy-OPLS-2005>
143.665130615234

> <r_mmod_Electrostatic_Energy-OPLS-2005>
-277.694702148438

> <r_mmod_Solvation_Energy-OPLS-2005>
-167.787002563477

> <b_mmod_Minimization_Converged-OPLS-2005>
0

> <r_mmod_RMS_Derivative-OPLS-2005>
0.807960569858551

$$$$
91
                    3D
 Structure written by MMmdl.
172181  0  0  1  0            999 V2000
  -30.7047  -14.4508   20.6098 C   0  0  0  0  0  0
  -30.4281  -12.3089   19.4099 C   0  0  0  0  0  0
  -29.4939  -12.5171   18.2001 C   0  0  0  0  0  0
  -28.0149  -12.3734   18.6132 C   0  0  0  0  0  0
  -27.6637  -13.2031   19.8770 C   0  0  2  0  0  0
  -28.7057  -12.9604   20.9922 C   0  0  0  0  0  0
  -25.2594  -13.8152   20.5673 C   0  0  0  0  0  0
  -24.1839  -13.0435   20.9168 C   0  0  0  0  0  0
  -24.6390  -11.6901   20.8727 C   0  0  0  0  0  0
  -23.9056  -10.4291   21.0398 C   0  0  0  0  0  0
  -24.3611   -9.4209   21.9175 C   0  0  0  0  0  0
  -23.6291   -8.2241   22.0752 C   0  0  0  0  0  0
  -22.4270   -8.0277   21.3544 C   0  0  0  0  0  0
  -21.9902   -9.0248   20.4644 C   0  0  0  0  0  0
  -22.7230  -10.2128   20.3049 C   0  0  0  0  0  0
  -21.6850   -6.0733   22.5282 C   0  0  0  0  0  0
  -21.4005   -6.5640   23.8213 C   0  0  0  0  0  0
  -21.3655   -5.6792   24.9175 C   0  0  0  0  0  0
  -21.6044   -4.3054   24.7227 C   0  0  0  0  0  0
  -21.8822   -3.8145   23.4349 C   0  0  0  0  0  0
  -21.9195   -4.6962   22.3406 C   0  0  0  0  0  0
  -22.7866  -13.5238   21.1842 C   0  0  0  0  0  0
  -22.1663   -4.2149   21.0984 F   0  0  0  0  0  0
  -21.5634   -3.4537   25.7738 F   0  0  0  0  0  0
  -30.0392  -13.2756   20.4469 N   0  0  0  0  0  0
  -26.3035  -12.9315   20.3366 N   0  0  0  0  0  0
  -25.9316  -11.6481   20.5758 N   0  0  0  0  0  0
  -22.0499  -12.8231   22.0396 N   0  0  0  0  0  0
  -25.4333  -15.1865   20.4087 N   0  0  0  0  0  0
  -31.8057  -14.6840   20.1026 O   0  0  0  0  0  0
  -21.6639   -6.8873   21.4240 O   0  0  0  0  0  0
  -22.3556  -14.5548   20.6698 O   0  0  0  0  0  0
  -24.6132  -31.8684   23.2104 C   0  0  0  0  0  0
  -25.9031  -32.4826   23.8396 C   0  0  1  0  0  0
  -27.2379  -27.4467   20.0975 C   0  0  0  0  0  0
  -25.5897  -33.8622   24.2330 N   0  0  0  0  0  0
  -23.4018  -30.4910   21.5496 C   0  0  2  0  0  0
  -24.8516  -28.9550   20.1169 C   0  0  0  0  0  0
  -22.7408  -29.4661   22.4987 C   0  0  0  0  0  0
  -18.0274  -28.1383   22.8495 C   0  0  0  0  0  0
  -24.1474  -36.7300   23.2631 C   0  0  0  0  0  0
  -25.9290  -30.8368   21.3627 C   0  0  0  0  0  0
  -26.0099  -29.4703   20.7140 C   0  0  0  0  0  0
  -27.2088  -28.7217   20.7048 C   0  0  0  0  0  0
  -26.0681  -26.9396   19.4980 C   0  0  0  0  0  0
  -24.8741  -27.6871   19.5073 C   0  0  0  0  0  0
  -23.6118  -29.8204   20.1650 C   0  0  0  0  0  0
  -25.4093  -36.3107   24.0345 C   0  0  1  0  0  0
  -20.5865  -28.3660   23.1330 C   0  0  2  0  0  0
  -20.6760  -26.9393   22.5436 C   0  0  0  0  0  0
  -19.5749  -26.6389   21.5220 C   0  0  0  0  0  0
  -18.1920  -26.7938   22.1614 C   0  0  0  0  0  0
  -19.1523  -28.8836   23.2914 C   0  0  0  0  0  0
  -18.9451  -30.1442   23.8924 C   0  0  0  0  0  0
  -17.6455  -30.6584   24.0576 C   0  0  0  0  0  0
  -25.9036  -34.9480   23.5134 C   0  0  0  0  0  0
  -16.5346  -29.9092   23.6328 C   0  0  0  0  0  0
  -16.7264  -28.6513   23.0340 C   0  0  0  0  0  0
  -26.4463  -31.6598   25.0717 C   0  0  0  0  0  0
  -25.3736  -31.3734   26.1478 C   0  0  0  0  0  0
  -27.0259  -30.3026   24.6086 C   0  0  0  0  0  0
  -27.6067  -32.4294   25.7458 C   0  0  0  0  0  0
  -27.5594  -37.1772   24.8440 C   0  0  0  0  0  0
  -21.4138  -29.3023   22.3726 N   0  0  0  0  0  0
  -26.4260  -37.3812   23.9453 N   0  0  0  0  0  0
  -24.6660  -31.0795   22.0997 N   0  0  0  0  0  0
  -23.4187  -28.8213   23.3029 O   0  0  0  0  0  0
  -28.3833  -26.6868   20.0761 O   0  0  0  0  0  0
  -26.5602  -34.8937   22.4697 O   0  0  0  0  0  0
  -23.5328  -32.1428   23.7508 O   0  0  0  0  0  0
  -30.4438  -22.7486   19.7116 C   0  0  0  0  0  0
  -28.3653  -21.9109   20.6427 C   0  0  0  0  0  0
  -30.0718  -24.0674   20.0579 C   0  0  0  0  0  0
  -27.9926  -23.2291   20.9867 C   0  0  0  0  0  0
  -29.5926  -21.6511   19.9878 C   0  0  0  0  0  0
  -28.8402  -24.3206   20.6966 C   0  0  0  0  0  0
  -28.6460  -17.5294   19.7877 C   0  0  0  0  0  0
  -30.1776  -19.2551   20.7696 C   0  0  0  0  0  0
  -28.0745  -18.7348   19.0014 C   0  0  0  0  0  0
  -29.9958  -20.2201   19.5583 C   0  0  1  0  0  0
  -30.0553  -17.7651   20.3725 C   0  0  1  0  0  0
  -27.7306  -19.9853   16.3554 C   0  0  0  0  0  0
  -29.9566  -21.0895   16.5782 C   0  0  0  0  0  0
  -28.4620  -25.7341   21.1433 C   0  0  0  0  0  0
  -30.4109  -16.7904   21.5300 C   0  0  0  0  0  0
  -28.7332  -20.5792   17.3706 C   0  0  0  0  0  0
  -30.0236  -15.3949   21.2791 N   0  0  0  0  0  0
  -29.1444  -19.6279   18.4639 N   0  3  2  0  0  0
  -31.4711  -12.4194   19.1077 H   0  0  0  0  0  0
  -30.3366  -11.2919   19.7946 H   0  0  0  0  0  0
  -29.7335  -11.8023   17.4117 H   0  0  0  0  0  0
  -29.6597  -13.5081   17.7740 H   0  0  0  0  0  0
  -27.8232  -11.3162   18.7997 H   0  0  0  0  0  0
  -27.3637  -12.6558   17.7849 H   0  0  0  0  0  0
  -27.7136  -14.2542   19.5930 H   0  0  0  0  0  0
  -28.6826  -11.9169   21.3083 H   0  0  0  0  0  0
  -28.4601  -13.5329   21.8873 H   0  0  0  0  0  0
  -25.2759   -9.5689   22.4744 H   0  0  0  0  0  0
  -24.0008   -7.4632   22.7467 H   0  0  0  0  0  0
  -21.0835   -8.8755   19.8951 H   0  0  0  0  0  0
  -22.3683  -10.9659   19.6154 H   0  0  0  0  0  0
  -21.1983   -7.6145   23.9715 H   0  0  0  0  0  0
  -21.1475   -6.0519   25.9077 H   0  0  0  0  0  0
  -22.0604   -2.7607   23.2844 H   0  0  0  0  0  0
  -22.4097  -11.9878   22.4774 H   0  0  0  0  0  0
  -21.1116  -13.1260   22.2597 H   0  0  0  0  0  0
  -24.6677  -15.8428   20.5142 H   0  0  0  0  0  0
  -26.2910  -15.6211   20.0969 H   0  0  0  0  0  0
  -26.7103  -32.5548   23.1165 H   0  0  0  0  0  0
  -25.0045  -33.9782   25.0474 H   0  0  0  0  0  0
  -22.6901  -31.3073   21.4094 H   0  0  0  0  0  0
  -23.3773  -35.9588   23.3222 H   0  0  0  0  0  0
  -24.3592  -36.8987   22.2061 H   0  0  0  0  0  0
  -23.7168  -37.6458   23.6689 H   0  0  0  0  0  0
  -26.0377  -31.6014   20.5924 H   0  0  0  0  0  0
  -26.8185  -30.8936   21.9785 H   0  0  0  0  0  0
  -28.1044  -29.1142   21.1664 H   0  0  0  0  0  0
  -26.0843  -25.9657   19.0280 H   0  0  0  0  0  0
  -23.9840  -27.2848   19.0441 H   0  0  0  0  0  0
  -23.7197  -30.5940   19.4035 H   0  0  0  0  0  0
  -22.7372  -29.2384   19.8690 H   0  0  0  0  0  0
  -25.1254  -36.1950   25.0833 H   0  0  0  0  0  0
  -20.9964  -28.3224   24.1448 H   0  0  0  0  0  0
  -20.5644  -26.2267   23.3622 H   0  0  0  0  0  0
  -21.6633  -26.7428   22.1237 H   0  0  0  0  0  0
  -19.6906  -25.6308   21.1229 H   0  0  0  0  0  0
  -19.6708  -27.3216   20.6766 H   0  0  0  0  0  0
  -17.4206  -26.6715   21.3994 H   0  0  0  0  0  0
  -18.0294  -26.0067   22.8988 H   0  0  0  0  0  0
  -19.7927  -30.7247   24.2305 H   0  0  0  0  0  0
  -17.5012  -31.6263   24.5184 H   0  0  0  0  0  0
  -15.5347  -30.2998   23.7649 H   0  0  0  0  0  0
  -15.8665  -28.0849   22.7025 H   0  0  0  0  0  0
  -24.5904  -30.7076   25.7836 H   0  0  0  0  0  0
  -24.8929  -32.2900   26.4906 H   0  0  0  0  0  0
  -25.8088  -30.8924   27.0246 H   0  0  0  0  0  0
  -26.2778  -29.6810   24.1149 H   0  0  0  0  0  0
  -27.4023  -29.7249   25.4536 H   0  0  0  0  0  0
  -27.8628  -30.4324   23.9221 H   0  0  0  0  0  0
  -27.2728  -33.3606   26.2046 H   0  0  0  0  0  0
  -28.3869  -32.6824   25.0266 H   0  0  0  0  0  0
  -28.0738  -31.8399   26.5356 H   0  0  0  0  0  0
  -28.2533  -38.0148   24.7621 H   0  0  0  0  0  0
  -28.1169  -36.2699   24.6065 H   0  0  0  0  0  0
  -27.2358  -37.1175   25.8846 H   0  0  0  0  0  0
  -20.9295  -29.8725   21.6935 H   0  0  0  0  0  0
  -26.0145  -38.2861   24.1565 H   0  0  0  0  0  0
  -31.3972  -22.5904   19.2270 H   0  0  0  0  0  0
  -27.6916  -21.1041   20.8897 H   0  0  0  0  0  0
  -30.7424  -24.8884   19.8429 H   0  0  0  0  0  0
  -27.0499  -23.3976   21.4888 H   0  0  0  0  0  0
  -28.6766  -16.6525   19.1391 H   0  0  0  0  0  0
  -27.9441  -17.2824   20.5856 H   0  0  0  0  0  0
  -29.4230  -19.4648   21.5283 H   0  0  0  0  0  0
  -31.1368  -19.4534   21.2500 H   0  0  0  0  0  0
  -27.4019  -19.3149   19.6313 H   0  0  0  0  0  0
  -27.4505  -18.3118   18.2171 H   0  0  0  0  0  0
  -30.9853  -20.3024   19.1064 H   0  0  0  0  0  0
  -30.7804  -17.5795   19.5778 H   0  0  0  0  0  0
  -27.5604  -20.6766   15.5295 H   0  0  0  0  0  0
  -26.7502  -19.8094   16.7978 H   0  0  0  0  0  0
  -28.0923  -19.0510   15.9243 H   0  0  0  0  0  0
  -29.6499  -21.7926   15.8032 H   0  0  0  0  0  0
  -30.4835  -20.2738   16.0822 H   0  0  0  0  0  0
  -30.6769  -21.6176   17.1986 H   0  0  0  0  0  0
  -29.2239  -26.0813   21.8418 H   0  0  0  0  0  0
  -27.5347  -25.6892   21.7194 H   0  0  0  0  0  0
  -29.8982  -17.1043   22.4405 H   0  0  0  0  0  0
  -31.4781  -16.8455   21.7538 H   0  0  0  0  0  0
  -28.2290  -21.4376   17.8149 H   0  0  0  0  0  0
  -29.1320  -15.1027   21.6503 H   0  0  0  0  0  0
  -29.7631  -18.9812   17.9983 H   0  0  0  0  0  0
  1 25  1  0  0  0
  1 30  2  0  0  0
  1 87  1  0  0  0
  2  3  1  0  0  0
  2 25  1  0  0  0
  2 89  1  0  0  0
  2 90  1  0  0  0
  3  4  1  0  0  0
  3 91  1  0  0  0
  3 92  1  0  0  0
  4  5  1  0  0  0
  4 93  1  0  0  0
  4 94  1  0  0  0
  5  6  1  0  0  0
  5 26  1  0  0  0
  5 95  1  0  0  0
  6 25  1  0  0  0
  6 96  1  0  0  0
  6 97  1  0  0  0
  7  8  2  0  0  0
  7 26  1  0  0  0
  7 29  1  0  0  0
  8  9  1  0  0  0
  8 22  1  0  0  0
  9 10  1  0  0  0
  9 27  2  0  0  0
 10 11  2  0  0  0
 10 15  1  0  0  0
 11 12  1  0  0  0
 11 98  1  0  0  0
 12 13  2  0  0  0
 12 99  1  0  0  0
 13 14  1  0  0  0
 13 31  1  0  0  0
 14 15  2  0  0  0
 14100  1  0  0  0
 15101  1  0  0  0
 16 17  2  0  0  0
 16 21  1  0  0  0
 16 31  1  0  0  0
 17 18  1  0  0  0
 17102  1  0  0  0
 18 19  2  0  0  0
 18103  1  0  0  0
 19 20  1  0  0  0
 19 24  1  0  0  0
 20 21  2  0  0  0
 20104  1  0  0  0
 21 23  1  0  0  0
 22 28  1  0  0  0
 22 32  2  0  0  0
 26 27  1  0  0  0
 28105  1  0  0  0
 28106  1  0  0  0
 29107  1  0  0  0
 29108  1  0  0  0
 33 34  1  0  0  0
 33 66  1  0  0  0
 33 70  2  0  0  0
 34 36  1  0  0  0
 34 59  1  0  0  0
 34109  1  0  0  0
 35 44  2  0  0  0
 35 45  1  0  0  0
 35 68  1  0  0  0
 36 56  1  0  0  0
 36110  1  0  0  0
 37 39  1  0  0  0
 37 47  1  0  0  0
 37 66  1  0  0  0
 37111  1  0  0  0
 38 43  2  0  0  0
 38 46  1  0  0  0
 38 47  1  0  0  0
 39 64  1  0  0  0
 39 67  2  0  0  0
 40 52  1  0  0  0
 40 53  2  0  0  0
 40 58  1  0  0  0
 41112  1  0  0  0
 41113  1  0  0  0
 41114  1  0  0  0
 41 48  1  0  0  0
 42 43  1  0  0  0
 42 66  1  0  0  0
 42115  1  0  0  0
 42116  1  0  0  0
 43 44  1  0  0  0
 44117  1  0  0  0
 45 46  2  0  0  0
 45118  1  0  0  0
 46119  1  0  0  0
 47120  1  0  0  0
 47121  1  0  0  0
 48 56  1  0  0  0
 48 65  1  0  0  0
 48122  1  0  0  0
 49 50  1  0  0  0
 49 53  1  0  0  0
 49 64  1  0  0  0
 49123  1  0  0  0
 50 51  1  0  0  0
 50124  1  0  0  0
 50125  1  0  0  0
 51 52  1  0  0  0
 51126  1  0  0  0
 51127  1  0  0  0
 52128  1  0  0  0
 52129  1  0  0  0
 53 54  1  0  0  0
 54 55  2  0  0  0
 54130  1  0  0  0
 55 57  1  0  0  0
 55131  1  0  0  0
 56 69  2  0  0  0
 57 58  2  0  0  0
 57132  1  0  0  0
 58133  1  0  0  0
 59 60  1  0  0  0
 59 61  1  0  0  0
 59 62  1  0  0  0
 60134  1  0  0  0
 60135  1  0  0  0
 60136  1  0  0  0
 61137  1  0  0  0
 61138  1  0  0  0
 61139  1  0  0  0
 62140  1  0  0  0
 62141  1  0  0  0
 62142  1  0  0  0
 63 65  1  0  0  0
 63143  1  0  0  0
 63144  1  0  0  0
 63145  1  0  0  0
 64146  1  0  0  0
 65147  1  0  0  0
 68 84  1  0  0  0
 71 73  2  0  0  0
 71 75  1  0  0  0
 71148  1  0  0  0
 72 74  1  0  0  0
 72 75  2  0  0  0
 72149  1  0  0  0
 73 76  1  0  0  0
 73150  1  0  0  0
 74 76  2  0  0  0
 74151  1  0  0  0
 75 80  1  0  0  0
 76 84  1  0  0  0
 77 79  1  0  0  0
 77 81  1  0  0  0
 77152  1  0  0  0
 77153  1  0  0  0
 78 80  1  0  0  0
 78 81  1  0  0  0
 78154  1  0  0  0
 78155  1  0  0  0
 79156  1  0  0  0
 79157  1  0  0  0
 79 88  1  0  0  0
 80 88  1  0  0  0
 80158  1  0  0  0
 81 85  1  0  0  0
 81159  1  0  0  0
 82160  1  0  0  0
 82161  1  0  0  0
 82162  1  0  0  0
 82 86  1  0  0  0
 83 86  1  0  0  0
 83163  1  0  0  0
 83164  1  0  0  0
 83165  1  0  0  0
 84166  1  0  0  0
 84167  1  0  0  0
 85 87  1  0  0  0
 85168  1  0  0  0
 85169  1  0  0  0
 86 88  1  0  0  0
 86170  1  0  0  0
 87171  1  0  0  0
 88172  1  0  0  0
M  CHG  1  88   1
M  ISO  4   1 100  68 101  84 101  87 100
M  END
> <chiral flag>
0

> <version>
0

> <s_m_source_file>
/data/baiqing/PycharmProjects/Reinvent-master-3.2/result/LINK_invent/BTK/process_docking_weight1_custom_sum_contain_oxygen_bond_distance_aromatic_linkinvent_7_9_3/rearranged_h_0121.sdf

> <i_m_source_file_index>
92

> <r_mmod_Potential_Energy-OPLS-2005>
-71.8914794921875

> <r_mmod_Stretch_Energy-OPLS-2005>
43.246036529541

> <r_mmod_Bend_Energy-OPLS-2005>
107.611259460449

> <r_mmod_Torsional_Energy-OPLS-2005>
292.582550048828

> <r_mmod_Improper_Torsional_Energy-OPLS-2005>
2.69457721710205

> <r_mmod_Van_der_Waal_Energy-OPLS-2005>
157.020111083984

> <r_mmod_Electrostatic_Energy-OPLS-2005>
-260.829895019531

> <r_mmod_Solvation_Energy-OPLS-2005>
-424.300964355469

> <b_mmod_Minimization_Converged-OPLS-2005>
0

> <r_mmod_RMS_Derivative-OPLS-2005>
0.885500311851501

$$$$
92
                    3D
 Structure written by MMmdl.
167176  0  0  1  0            999 V2000
  -29.8517  -15.5805   20.9412 C   0  0  0  0  0  0
  -30.3494  -13.1526   19.7635 C   0  0  0  0  0  0
  -29.5639  -12.7480   18.4660 C   0  0  0  0  0  0
  -28.1314  -12.3158   18.8047 C   0  0  0  0  0  0
  -27.5555  -13.2634   19.8738 C   0  0  2  0  0  0
  -28.4449  -13.4161   21.1142 C   0  0  0  0  0  0
  -25.2008  -13.8175   20.5669 C   0  0  0  0  0  0
  -24.1403  -13.0357   20.9201 C   0  0  0  0  0  0
  -24.6081  -11.6853   20.8712 C   0  0  0  0  0  0
  -23.8873  -10.4225   21.0423 C   0  0  0  0  0  0
  -24.3510   -9.4180   21.9184 C   0  0  0  0  0  0
  -23.6239   -8.2197   22.0742 C   0  0  0  0  0  0
  -22.4228   -8.0216   21.3534 C   0  0  0  0  0  0
  -21.9813   -9.0167   20.4641 C   0  0  0  0  0  0
  -22.7076  -10.2064   20.3059 C   0  0  0  0  0  0
  -21.6846   -6.0696   22.5279 C   0  0  0  0  0  0
  -21.3994   -6.5618   23.8202 C   0  0  0  0  0  0
  -21.3656   -5.6783   24.9183 C   0  0  0  0  0  0
  -21.6053   -4.3041   24.7241 C   0  0  0  0  0  0
  -21.8816   -3.8117   23.4364 C   0  0  0  0  0  0
  -21.9175   -4.6925   22.3413 C   0  0  0  0  0  0
  -22.7504  -13.5177   21.1946 C   0  0  0  0  0  0
  -22.1653   -4.2107   21.0996 F   0  0  0  0  0  0
  -21.5637   -3.4533   25.7765 F   0  0  0  0  0  0
  -29.5864  -14.1717   20.6566 N   0  0  0  0  0  0
  -26.2259  -12.9343   20.3023 N   0  0  0  0  0  0
  -25.8931  -11.6477   20.5558 N   0  0  0  0  0  0
  -22.0219  -12.8155   22.0538 N   0  0  0  0  0  0
  -25.3885  -15.1918   20.4304 N   0  0  0  0  0  0
  -31.0568  -15.7330   20.5851 O   0  0  0  0  0  0
  -21.6616   -6.8809   21.4238 O   0  0  0  0  0  0
  -22.3204  -14.5515   20.6836 O   0  0  0  0  0  0
  -24.7810  -31.8778   23.2829 C   0  0  0  0  0  0
  -26.0195  -32.5174   23.9150 C   0  0  1  0  0  0
  -25.9918  -27.3486   20.2384 C   0  0  0  0  0  0
  -25.6601  -33.8903   24.2727 N   0  0  0  0  0  0
  -23.9097  -30.1226   21.8165 C   0  0  2  0  0  0
  -25.1293  -29.6301   19.6759 C   0  0  0  0  0  0
  -23.8633  -28.5293   22.5329 C   0  0  0  0  0  0
  -18.1566  -27.8550   22.8065 C   0  0  0  0  0  0
  -24.1555  -36.7383   23.2543 C   0  0  0  0  0  0
  -26.2667  -30.7708   21.5813 C   0  0  0  0  0  0
  -26.1837  -29.6366   20.5931 C   0  0  0  0  0  0
  -26.7843  -28.3998   20.8088 C   0  0  0  0  0  0
  -25.9418  -27.4609   18.8891 C   0  0  0  0  0  0
  -25.1268  -28.5968   18.6685 C   0  0  0  0  0  0
  -23.9624  -30.4268   20.2272 C   0  0  0  0  0  0
  -25.4145  -36.3237   24.0262 C   0  0  1  0  0  0
  -20.8701  -27.1900   22.7854 C   0  0  2  0  0  0
  -20.4865  -26.0653   21.9661 C   0  0  0  0  0  0
  -19.2749  -26.4055   21.1613 C   0  0  0  0  0  0
  -18.0659  -26.5595   22.0704 C   0  0  0  0  0  0
  -19.4766  -28.2990   23.1662 C   0  0  0  0  0  0
  -19.3495  -29.6370   23.7742 C   0  0  0  0  0  0
  -18.1166  -30.3744   23.9732 C   0  0  0  0  0  0
  -25.9132  -34.9596   23.5140 C   0  0  0  0  0  0
  -16.8742  -29.7987   23.6295 C   0  0  0  0  0  0
  -16.9170  -28.5365   23.0322 C   0  0  0  0  0  0
  -26.4997  -31.7001   25.1719 C   0  0  0  0  0  0
  -25.3783  -31.4238   26.2057 C   0  0  0  0  0  0
  -27.1360  -30.3484   24.7841 C   0  0  0  0  0  0
  -27.6330  -32.5010   25.8470 C   0  0  0  0  0  0
  -27.5633  -37.1902   24.8493 C   0  0  0  0  0  0
  -22.7371  -27.3273   22.4736 N   0  0  0  0  0  0
  -26.4309  -37.3930   23.9465 N   0  0  0  0  0  0
  -24.9881  -30.9605   22.3042 N   0  0  0  0  0  0
  -24.7941  -28.4830   23.2265 O   0  0  0  0  0  0
  -24.5267  -27.2304   20.4766 O   0  0  0  0  0  0
  -26.5497  -34.9075   22.4574 O   0  0  0  0  0  0
  -23.6678  -32.1819   23.7451 O   0  0  0  0  0  0
  -23.0623  -24.5829   24.4932 C   0  0  0  0  0  0
  -24.9241  -25.5683   24.6010 C   0  0  0  0  0  0
  -22.3338  -25.9091   24.8245 C   0  0  0  0  0  0
  -24.1386  -26.8737   25.0008 C   0  0  0  0  0  0
  -24.4857  -24.1860   24.1807 C   0  0  0  0  0  0
  -22.6907  -27.3983   24.8337 C   0  0  0  0  0  0
  -24.6237  -21.5447   24.9036 C   0  0  0  0  0  0
  -24.0583  -21.4001   23.5153 C   0  0  0  0  0  0
  -25.1795  -22.3843   23.7722 C   0  0  0  0  0  0
  -29.3193  -18.5503   23.3495 C   0  0  0  0  0  0
  -26.8928  -19.6724   22.6330 C   0  0  0  0  0  0
  -21.6201  -29.2269   21.8027 C   0  0  0  0  0  0
  -22.8276  -28.1179   20.2624 C   0  0  0  0  0  0
  -28.4140  -18.4375   22.1153 C   0  0  2  0  0  0
  -28.8766  -16.7541   21.4593 N   0  0  0  0  0  0
  -26.5786  -21.4022   23.1524 N   0  3  0  0  0  0
  -21.9754  -28.8098   23.9260 O   0  0  0  0  0  0
  -31.3172  -13.5553   19.4685 H   0  0  0  0  0  0
  -30.5938  -12.2584   20.3401 H   0  0  0  0  0  0
  -30.0860  -11.9578   17.9213 H   0  0  0  0  0  0
  -29.5285  -13.6105   17.8004 H   0  0  0  0  0  0
  -28.1635  -11.3027   19.2014 H   0  0  0  0  0  0
  -27.5060  -12.2903   17.9180 H   0  0  0  0  0  0
  -27.4893  -14.2376   19.3857 H   0  0  0  0  0  0
  -28.7050  -12.4555   21.5615 H   0  0  0  0  0  0
  -27.9321  -13.9957   21.8868 H   0  0  0  0  0  0
  -25.2653   -9.5712   22.4755 H   0  0  0  0  0  0
  -23.9975   -7.4592   22.7441 H   0  0  0  0  0  0
  -21.0743   -8.8635   19.8955 H   0  0  0  0  0  0
  -22.3483  -10.9605   19.6180 H   0  0  0  0  0  0
  -21.1984   -7.6118   23.9703 H   0  0  0  0  0  0
  -21.1496   -6.0517   25.9087 H   0  0  0  0  0  0
  -22.0602   -2.7575   23.2885 H   0  0  0  0  0  0
  -22.3842  -11.9800   22.4875 H   0  0  0  0  0  0
  -21.0865  -13.1186   22.2865 H   0  0  0  0  0  0
  -24.6436  -15.8692   20.5575 H   0  0  0  0  0  0
  -26.2708  -15.6156   20.1751 H   0  0  0  0  0  0
  -26.8521  -32.5748   23.2132 H   0  0  0  0  0  0
  -25.1171  -34.0164   25.1132 H   0  0  0  0  0  0
  -23.1275  -30.7651   22.1735 H   0  0  0  0  0  0
  -23.3896  -35.9692   23.3088 H   0  0  0  0  0  0
  -24.3695  -36.8949   22.2004 H   0  0  0  0  0  0
  -23.7278  -37.6587   23.6449 H   0  0  0  0  0  0
  -26.5077  -31.6778   21.0346 H   0  0  0  0  0  0
  -27.1045  -30.5752   22.2410 H   0  0  0  0  0  0
  -27.4493  -28.2386   21.6448 H   0  0  0  0  0  0
  -25.7220  -26.5874   18.2889 H   0  0  0  0  0  0
  -24.4186  -28.6024   17.8501 H   0  0  0  0  0  0
  -24.2180  -31.4769   20.0546 H   0  0  0  0  0  0
  -23.0059  -30.4041   19.7071 H   0  0  0  0  0  0
  -25.1273  -36.2088   25.0716 H   0  0  0  0  0  0
  -20.5535  -26.7857   23.7102 H   0  0  0  0  0  0
  -20.2492  -25.1769   22.5679 H   0  0  0  0  0  0
  -21.3090  -25.7011   21.3515 H   0  0  0  0  0  0
  -19.1088  -25.5779   20.4641 H   0  0  0  0  0  0
  -19.3997  -27.2976   20.5495 H   0  0  0  0  0  0
  -17.1614  -26.5173   21.4742 H   0  0  0  0  0  0
  -17.9785  -25.7287   22.7763 H   0  0  0  0  0  0
  -20.2386  -30.1811   24.0512 H   0  0  0  0  0  0
  -18.1456  -31.3779   24.3792 H   0  0  0  0  0  0
  -15.9421  -30.3057   23.7906 H   0  0  0  0  0  0
  -15.9868  -28.1047   22.7044 H   0  0  0  0  0  0
  -24.9021  -30.4515   26.0767 H   0  0  0  0  0  0
  -24.5831  -32.1742   26.1440 H   0  0  0  0  0  0
  -25.7596  -31.4484   27.2315 H   0  0  0  0  0  0
  -26.4251  -29.6921   24.3097 H   0  0  0  0  0  0
  -27.4717  -29.8168   25.6753 H   0  0  0  0  0  0
  -28.0096  -30.4583   24.1411 H   0  0  0  0  0  0
  -27.2785  -33.4402   26.2844 H   0  0  0  0  0  0
  -28.4276  -32.7554   25.1379 H   0  0  0  0  0  0
  -28.1080  -31.9411   26.6561 H   0  0  0  0  0  0
  -28.2629  -38.0225   24.7618 H   0  0  0  0  0  0
  -28.1137  -36.2759   24.6151 H   0  0  0  0  0  0
  -27.2396  -37.1414   25.8909 H   0  0  0  0  0  0
  -23.1640  -26.4254   22.4513 H   0  0  0  0  0  0
  -26.0174  -38.3036   24.1343 H   0  0  0  0  0  0
  -22.4182  -23.7204   24.5315 H   0  0  0  0  0  0
  -26.0029  -25.6335   24.6859 H   0  0  0  0  0  0
  -21.2987  -25.6950   25.0443 H   0  0  0  0  0  0
  -24.7909  -27.6553   25.3614 H   0  0  0  0  0  0
  -25.3465  -20.8197   25.3125 H   0  0  0  0  0  0
  -23.9421  -22.0327   25.6071 H   0  0  0  0  0  0
  -23.0929  -21.8167   23.2610 H   0  0  0  0  0  0
  -24.2891  -20.4856   22.9860 H   0  0  0  0  0  0
  -29.5174  -19.5900   23.6061 H   0  0  0  0  0  0
  -30.2857  -18.0640   23.1973 H   0  0  0  0  0  0
  -28.8444  -18.0832   24.2094 H   0  0  0  0  0  0
  -26.4601  -19.1341   23.4744 H   0  0  0  0  0  0
  -26.1650  -19.5079   21.8409 H   0  0  0  0  0  0
  -20.6643  -29.0097   21.3422 H   0  0  0  0  0  0
  -21.4179  -30.2796   21.6042 H   0  0  0  0  0  0
  -22.6346  -28.4608   19.2597 H   0  0  0  0  0  0
  -22.2469  -27.2088   20.0999 H   0  0  0  0  0  0
  -28.8842  -19.0283   21.3291 H   0  0  0  0  0  0
  -29.6340  -17.2690   21.0250 H   0  0  0  0  0  0
  -27.2222  -21.4901   23.9241 H   0  0  0  0  0  0
  -26.9981  -21.9697   22.4280 H   0  0  0  0  0  0
  1 25  1  0  0  0
  1 30  2  0  0  0
  1 85  1  0  0  0
  2  3  1  0  0  0
  2 25  1  0  0  0
  2 88  1  0  0  0
  2 89  1  0  0  0
  3  4  1  0  0  0
  3 90  1  0  0  0
  3 91  1  0  0  0
  4  5  1  0  0  0
  4 92  1  0  0  0
  4 93  1  0  0  0
  5  6  1  0  0  0
  5 26  1  0  0  0
  5 94  1  0  0  0
  6 25  1  0  0  0
  6 95  1  0  0  0
  6 96  1  0  0  0
  7  8  2  0  0  0
  7 26  1  0  0  0
  7 29  1  0  0  0
  8  9  1  0  0  0
  8 22  1  0  0  0
  9 10  1  0  0  0
  9 27  2  0  0  0
 10 11  2  0  0  0
 10 15  1  0  0  0
 11 12  1  0  0  0
 11 97  1  0  0  0
 12 13  2  0  0  0
 12 98  1  0  0  0
 13 14  1  0  0  0
 13 31  1  0  0  0
 14 15  2  0  0  0
 14 99  1  0  0  0
 15100  1  0  0  0
 16 17  2  0  0  0
 16 21  1  0  0  0
 16 31  1  0  0  0
 17 18  1  0  0  0
 17101  1  0  0  0
 18 19  2  0  0  0
 18102  1  0  0  0
 19 20  1  0  0  0
 19 24  1  0  0  0
 20 21  2  0  0  0
 20103  1  0  0  0
 21 23  1  0  0  0
 22 28  1  0  0  0
 22 32  2  0  0  0
 26 27  1  0  0  0
 28104  1  0  0  0
 28105  1  0  0  0
 29106  1  0  0  0
 29107  1  0  0  0
 33 34  1  0  0  0
 33 66  1  0  0  0
 33 70  2  0  0  0
 34 36  1  0  0  0
 34 59  1  0  0  0
 34108  1  0  0  0
 35 44  2  0  0  0
 35 45  1  0  0  0
 35 68  1  0  0  0
 36 56  1  0  0  0
 36109  1  0  0  0
 37 39  1  0  0  0
 37 47  1  0  0  0
 37 66  1  0  0  0
 37110  1  0  0  0
 38 43  2  0  0  0
 38 46  1  0  0  0
 38 47  1  0  0  0
 39 64  1  0  0  0
 39 67  2  0  0  0
 40 52  1  0  0  0
 40 53  2  0  0  0
 40 58  1  0  0  0
 41111  1  0  0  0
 41112  1  0  0  0
 41113  1  0  0  0
 41 48  1  0  0  0
 42 43  1  0  0  0
 42 66  1  0  0  0
 42114  1  0  0  0
 42115  1  0  0  0
 43 44  1  0  0  0
 44116  1  0  0  0
 45 46  2  0  0  0
 45117  1  0  0  0
 46118  1  0  0  0
 47119  1  0  0  0
 47120  1  0  0  0
 48 56  1  0  0  0
 48 65  1  0  0  0
 48121  1  0  0  0
 49 50  1  0  0  0
 49 53  1  0  0  0
 49 64  1  0  0  0
 49122  1  0  0  0
 50 51  1  0  0  0
 50123  1  0  0  0
 50124  1  0  0  0
 51 52  1  0  0  0
 51125  1  0  0  0
 51126  1  0  0  0
 52127  1  0  0  0
 52128  1  0  0  0
 53 54  1  0  0  0
 54 55  2  0  0  0
 54129  1  0  0  0
 55 57  1  0  0  0
 55130  1  0  0  0
 56 69  2  0  0  0
 57 58  2  0  0  0
 57131  1  0  0  0
 58132  1  0  0  0
 59 60  1  0  0  0
 59 61  1  0  0  0
 59 62  1  0  0  0
 60133  1  0  0  0
 60134  1  0  0  0
 60135  1  0  0  0
 61136  1  0  0  0
 61137  1  0  0  0
 61138  1  0  0  0
 62139  1  0  0  0
 62140  1  0  0  0
 62141  1  0  0  0
 63 65  1  0  0  0
 63142  1  0  0  0
 63143  1  0  0  0
 63144  1  0  0  0
 64145  1  0  0  0
 65146  1  0  0  0
 68 83  1  0  0  0
 71 73  2  0  0  0
 71 75  1  0  0  0
 71147  1  0  0  0
 72 74  1  0  0  0
 72 75  2  0  0  0
 72148  1  0  0  0
 73 76  1  0  0  0
 73149  1  0  0  0
 74 76  2  0  0  0
 74150  1  0  0  0
 75 79  1  0  0  0
 76 87  1  0  0  0
 77 78  1  0  0  0
 77 79  1  0  0  0
 77151  1  0  0  0
 77152  1  0  0  0
 78 79  1  0  0  0
 78153  1  0  0  0
 78154  1  0  0  0
 79 86  1  0  0  0
 80155  1  0  0  0
 80156  1  0  0  0
 80157  1  0  0  0
 80 84  1  0  0  0
 81 84  1  0  0  0
 81 86  1  0  0  0
 81158  1  0  0  0
 81159  1  0  0  0
 82 83  1  0  0  0
 82 87  1  0  0  0
 82160  1  0  0  0
 82161  1  0  0  0
 83162  1  0  0  0
 83163  1  0  0  0
 84 85  1  0  0  0
 84164  1  0  0  0
 85165  1  0  0  0
 86166  1  0  0  0
 86167  1  0  0  0
M  CHG  1  86   1
M  ISO  4   1 100  68 101  83 101  85 100
M  END
> <chiral flag>
0

> <version>
0

> <s_m_source_file>
/data/baiqing/PycharmProjects/Reinvent-master-3.2/result/LINK_invent/BTK/process_docking_weight1_custom_sum_contain_oxygen_bond_distance_aromatic_linkinvent_7_9_3/rearranged_h_0121.sdf

> <i_m_source_file_index>
93

> <r_mmod_Potential_Energy-OPLS-2005>
12556.9130859375

> <r_mmod_Stretch_Energy-OPLS-2005>
4574.91845703125

> <r_mmod_Bend_Energy-OPLS-2005>
1850.18298339844

> <r_mmod_Torsional_Energy-OPLS-2005>
752.406005859375

> <r_mmod_Improper_Torsional_Energy-OPLS-2005>
73.7179412841797

> <r_mmod_Van_der_Waal_Energy-OPLS-2005>
1778.51586914062

> <r_mmod_Electrostatic_Energy-OPLS-2005>
-317.739379882812

> <r_mmod_Solvation_Energy-OPLS-2005>
-499.739562988281

> <b_mmod_Minimization_Converged-OPLS-2005>
0

> <r_mmod_RMS_Derivative-OPLS-2005>
25.5463047027588

$$$$
93
                    3D
 Structure written by MMmdl.
181190  0  0  1  0            999 V2000
  -30.6539  -14.4858   20.5228 C   0  0  0  0  0  0
  -30.4293  -12.2981   19.4174 C   0  0  0  0  0  0
  -29.4904  -12.4543   18.2000 C   0  0  0  0  0  0
  -28.0039  -12.3544   18.6097 C   0  0  0  0  0  0
  -27.6521  -13.1957   19.8680 C   0  0  2  0  0  0
  -28.7031  -12.9646   20.9780 C   0  0  0  0  0  0
  -25.2593  -13.8099   20.5693 C   0  0  0  0  0  0
  -24.1822  -13.0376   20.9195 C   0  0  0  0  0  0
  -24.6363  -11.6851   20.8786 C   0  0  0  0  0  0
  -23.9012  -10.4269   21.0433 C   0  0  0  0  0  0
  -24.3553   -9.4213   21.9228 C   0  0  0  0  0  0
  -23.6232   -8.2234   22.0766 C   0  0  0  0  0  0
  -22.4245   -8.0268   21.3537 C   0  0  0  0  0  0
  -21.9856   -9.0258   20.4648 C   0  0  0  0  0  0
  -22.7179  -10.2143   20.3066 C   0  0  0  0  0  0
  -21.6865   -6.0697   22.5291 C   0  0  0  0  0  0
  -21.4051   -6.5609   23.8221 C   0  0  0  0  0  0
  -21.3663   -5.6754   24.9183 C   0  0  0  0  0  0
  -21.6033   -4.3036   24.7261 C   0  0  0  0  0  0
  -21.8823   -3.8098   23.4383 C   0  0  0  0  0  0
  -21.9201   -4.6915   22.3438 C   0  0  0  0  0  0
  -22.7872  -13.5216   21.1857 C   0  0  0  0  0  0
  -22.1649   -4.2063   21.1024 F   0  0  0  0  0  0
  -21.5622   -3.4559   25.7798 F   0  0  0  0  0  0
  -30.0206  -13.2878   20.4253 N   0  0  0  0  0  0
  -26.2975  -12.9240   20.3390 N   0  0  0  0  0  0
  -25.9289  -11.6395   20.5823 N   0  0  0  0  0  0
  -22.0394  -12.8332   22.0412 N   0  0  0  0  0  0
  -25.4334  -15.1831   20.4101 N   0  0  0  0  0  0
  -31.8502  -14.6311   20.2519 O   0  0  0  0  0  0
  -21.6600   -6.8871   21.4255 O   0  0  0  0  0  0
  -22.3657  -14.5523   20.6668 O   0  0  0  0  0  0
  -24.6110  -31.8696   23.1944 C   0  0  0  0  0  0
  -25.8995  -32.4794   23.8292 C   0  0  1  0  0  0
  -27.2502  -27.4427   20.1182 C   0  0  0  0  0  0
  -25.5854  -33.8612   24.2247 N   0  0  0  0  0  0
  -23.4008  -30.4856   21.5372 C   0  0  2  0  0  0
  -24.8566  -28.9416   20.1188 C   0  0  0  0  0  0
  -22.7348  -29.4702   22.4940 C   0  0  0  0  0  0
  -18.0276  -28.1386   22.8513 C   0  0  0  0  0  0
  -24.1502  -36.7347   23.2607 C   0  0  0  0  0  0
  -25.9272  -30.8327   21.3535 C   0  0  0  0  0  0
  -26.0099  -29.4599   20.7281 C   0  0  0  0  0  0
  -27.2083  -28.7119   20.7429 C   0  0  0  0  0  0
  -26.0966  -26.9554   19.4730 C   0  0  0  0  0  0
  -24.8954  -27.6866   19.4881 C   0  0  0  0  0  0
  -23.6086  -29.7916   20.1631 C   0  0  0  0  0  0
  -25.4121  -36.3113   24.0285 C   0  0  1  0  0  0
  -20.5849  -28.3676   23.1263 C   0  0  2  0  0  0
  -20.6765  -26.9402   22.5407 C   0  0  0  0  0  0
  -19.5751  -26.6393   21.5181 C   0  0  0  0  0  0
  -18.1929  -26.7930   22.1615 C   0  0  0  0  0  0
  -19.1534  -28.8828   23.2905 C   0  0  0  0  0  0
  -18.9500  -30.1434   23.8912 C   0  0  0  0  0  0
  -17.6514  -30.6599   24.0584 C   0  0  0  0  0  0
  -25.9012  -34.9469   23.5080 C   0  0  0  0  0  0
  -16.5384  -29.9126   23.6354 C   0  0  0  0  0  0
  -16.7273  -28.6532   23.0393 C   0  0  0  0  0  0
  -26.4343  -31.6510   25.0609 C   0  0  0  0  0  0
  -25.3488  -31.3368   26.1165 C   0  0  0  0  0  0
  -27.0380  -30.3023   24.6074 C   0  0  0  0  0  0
  -27.5800  -32.4358   25.7486 C   0  0  0  0  0  0
  -27.5611  -37.1864   24.8417 C   0  0  0  0  0  0
  -21.4076  -29.3042   22.3627 N   0  0  0  0  0  0
  -26.4321  -37.3797   23.9359 N   0  0  0  0  0  0
  -24.6649  -31.0745   22.0894 N   0  0  0  0  0  0
  -23.4104  -28.8285   23.3025 O   0  0  0  0  0  0
  -28.3714  -26.6460   20.0780 O   0  0  0  0  0  0
  -26.5593  -34.8915   22.4659 O   0  0  0  0  0  0
  -23.5270  -32.1498   23.7279 O   0  0  0  0  0  0
  -29.7849  -17.8096   21.4465 C   0  0  0  0  0  0
  -28.5437  -16.2424   22.4193 C   0  0  0  0  0  0
  -29.4323  -16.4324   21.3910 C   0  0  0  0  0  0
  -26.2651  -23.7329   23.8322 C   0  0  0  0  0  0
  -27.8744  -22.0446   22.8512 C   0  0  0  0  0  0
  -27.3177  -24.7481   23.3320 C   0  0  0  0  0  0
  -27.6327  -22.9531   21.6265 C   0  0  0  0  0  0
  -26.8797  -22.3215   24.0154 C   0  0  2  0  0  0
  -31.3866  -27.2149   22.2720 C   0  0  0  0  0  0
  -29.9106  -16.1719   19.0217 C   0  0  0  0  0  0
  -25.7583  -21.2561   24.1991 C   0  0  0  0  0  0
  -30.5248  -27.0468   21.0110 C   0  0  0  0  0  0
  -27.5291  -17.8689   24.1339 C   0  0  0  0  0  0
  -29.1407  -24.9506   21.6206 C   0  0  0  0  0  0
  -26.4412  -18.8896   23.7196 C   0  0  0  0  0  0
  -29.1241  -26.4671   21.2850 C   0  0  2  0  0  0
  -29.1775  -18.4267   22.4481 N   0  0  0  0  0  0
  -28.3903  -17.4835   23.0217 N   0  0  0  0  0  0
  -29.8129  -15.5395   20.3441 N   0  0  0  0  0  0
  -27.7925  -24.4019   21.9576 N   0  3  2  0  0  0
  -26.2327  -19.9544   24.7319 N   0  3  0  0  0  0
  -31.4693  -12.4193   19.1070 H   0  0  0  0  0  0
  -30.3514  -11.2888   19.8309 H   0  0  0  0  0  0
  -29.7197  -11.6794   17.4690 H   0  0  0  0  0  0
  -29.6740  -13.3936   17.6838 H   0  0  0  0  0  0
  -27.7924  -11.3029   18.8042 H   0  0  0  0  0  0
  -27.3573  -12.6371   17.7764 H   0  0  0  0  0  0
  -27.6813  -14.2407   19.5632 H   0  0  0  0  0  0
  -28.6925  -11.9272   21.3119 H   0  0  0  0  0  0
  -28.4869  -13.5493   21.8648 H   0  0  0  0  0  0
  -25.2678   -9.5710   22.4852 H   0  0  0  0  0  0
  -23.9921   -7.4636   22.7502 H   0  0  0  0  0  0
  -21.0755   -8.8750   19.9022 H   0  0  0  0  0  0
  -22.3576  -10.9672   19.6190 H   0  0  0  0  0  0
  -21.2058   -7.6114   23.9711 H   0  0  0  0  0  0
  -21.1493   -6.0502   25.9075 H   0  0  0  0  0  0
  -22.0605   -2.7557   23.2919 H   0  0  0  0  0  0
  -22.3882  -12.0005   22.4900 H   0  0  0  0  0  0
  -21.1015  -13.1506   22.2442 H   0  0  0  0  0  0
  -24.6517  -15.8267   20.4734 H   0  0  0  0  0  0
  -26.2849  -15.6238   20.0848 H   0  0  0  0  0  0
  -26.7129  -32.5569   23.1137 H   0  0  0  0  0  0
  -25.0246  -33.9792   25.0544 H   0  0  0  0  0  0
  -22.6984  -31.3066   21.3788 H   0  0  0  0  0  0
  -23.3737  -35.9702   23.3238 H   0  0  0  0  0  0
  -24.3623  -36.8942   22.2019 H   0  0  0  0  0  0
  -23.7304  -37.6580   23.6638 H   0  0  0  0  0  0
  -26.0177  -31.5752   20.5590 H   0  0  0  0  0  0
  -26.8269  -30.9173   21.9518 H   0  0  0  0  0  0
  -28.0930  -29.1069   21.2257 H   0  0  0  0  0  0
  -26.1263  -26.0033   18.9621 H   0  0  0  0  0  0
  -24.0200  -27.2836   18.9952 H   0  0  0  0  0  0
  -23.6983  -30.5439   19.3755 H   0  0  0  0  0  0
  -22.7434  -29.1826   19.8871 H   0  0  0  0  0  0
  -25.1339  -36.1997   25.0770 H   0  0  0  0  0  0
  -21.0022  -28.3298   24.1347 H   0  0  0  0  0  0
  -20.5578  -26.2316   23.3640 H   0  0  0  0  0  0
  -21.6669  -26.7429   22.1268 H   0  0  0  0  0  0
  -19.6927  -25.6301   21.1209 H   0  0  0  0  0  0
  -19.6681  -27.3233   20.6733 H   0  0  0  0  0  0
  -17.4212  -26.6679   21.4015 H   0  0  0  0  0  0
  -18.0387  -26.0038   22.8992 H   0  0  0  0  0  0
  -19.8005  -30.7238   24.2262 H   0  0  0  0  0  0
  -17.5129  -31.6298   24.5192 H   0  0  0  0  0  0
  -15.5407  -30.3103   23.7660 H   0  0  0  0  0  0
  -15.8671  -28.0876   22.7119 H   0  0  0  0  0  0
  -24.5522  -30.7046   25.7167 H   0  0  0  0  0  0
  -24.8861  -32.2467   26.4977 H   0  0  0  0  0  0
  -25.7702  -30.7987   26.9657 H   0  0  0  0  0  0
  -26.2933  -29.6344   24.1695 H   0  0  0  0  0  0
  -27.4699  -29.7655   25.4509 H   0  0  0  0  0  0
  -27.8498  -30.4367   23.8943 H   0  0  0  0  0  0
  -27.2274  -33.3670   26.1887 H   0  0  0  0  0  0
  -28.3702  -32.6964   25.0404 H   0  0  0  0  0  0
  -28.0394  -31.8604   26.5526 H   0  0  0  0  0  0
  -28.2636  -38.0167   24.7467 H   0  0  0  0  0  0
  -28.1130  -36.2731   24.6257 H   0  0  0  0  0  0
  -27.2341  -37.1465   25.8818 H   0  0  0  0  0  0
  -20.9227  -29.8679   21.6799 H   0  0  0  0  0  0
  -26.0180  -38.2844   24.1409 H   0  0  0  0  0  0
  -30.4257  -18.3814   20.7872 H   0  0  0  0  0  0
  -27.9612  -15.3954   22.7487 H   0  0  0  0  0  0
  -25.4489  -23.6881   23.1076 H   0  0  0  0  0  0
  -25.8191  -24.0792   24.7631 H   0  0  0  0  0  0
  -28.9000  -22.1897   23.1941 H   0  0  0  0  0  0
  -27.8479  -21.0102   22.5245 H   0  0  0  0  0  0
  -28.1490  -24.7588   24.0434 H   0  0  0  0  0  0
  -26.9104  -25.7616   23.3236 H   0  0  0  0  0  0
  -26.6138  -22.7753   21.2808 H   0  0  0  0  0  0
  -28.2553  -22.6556   20.7839 H   0  0  0  0  0  0
  -27.4627  -22.3441   24.9369 H   0  0  0  0  0  0
  -32.3006  -27.7602   22.0374 H   0  0  0  0  0  0
  -31.6684  -26.2536   22.7105 H   0  0  0  0  0  0
  -30.8516  -27.7895   23.0283 H   0  0  0  0  0  0
  -28.9939  -16.7095   18.7870 H   0  0  0  0  0  0
  -30.7543  -16.8632   18.9782 H   0  0  0  0  0  0
  -30.0620  -15.4483   18.2217 H   0  0  0  0  0  0
  -25.1961  -21.1258   23.2727 H   0  0  0  0  0  0
  -25.0337  -21.6342   24.9241 H   0  0  0  0  0  0
  -31.0594  -26.4425   20.2746 H   0  0  0  0  0  0
  -30.4032  -28.0279   20.5531 H   0  0  0  0  0  0
  -27.0580  -16.9761   24.5458 H   0  0  0  0  0  0
  -28.1687  -18.2621   24.9228 H   0  0  0  0  0  0
  -29.8204  -24.7418   22.4471 H   0  0  0  0  0  0
  -29.5511  -24.4172   20.7627 H   0  0  0  0  0  0
  -25.4977  -18.3808   23.5267 H   0  0  0  0  0  0
  -26.6893  -19.3267   22.7593 H   0  0  0  0  0  0
  -28.6947  -27.0058   22.1299 H   0  0  0  0  0  0
  -27.1526  -24.8621   21.3258 H   0  0  0  0  0  0
  -25.5353  -19.6133   25.3774 H   0  0  0  0  0  0
  -27.0696  -20.1044   25.2758 H   0  0  0  0  0  0
  1 25  1  0  0  0
  1 30  2  0  0  0
  1 89  1  0  0  0
  2  3  1  0  0  0
  2 25  1  0  0  0
  2 92  1  0  0  0
  2 93  1  0  0  0
  3  4  1  0  0  0
  3 94  1  0  0  0
  3 95  1  0  0  0
  4  5  1  0  0  0
  4 96  1  0  0  0
  4 97  1  0  0  0
  5  6  1  0  0  0
  5 26  1  0  0  0
  5 98  1  0  0  0
  6 25  1  0  0  0
  6 99  1  0  0  0
  6100  1  0  0  0
  7  8  2  0  0  0
  7 26  1  0  0  0
  7 29  1  0  0  0
  8  9  1  0  0  0
  8 22  1  0  0  0
  9 10  1  0  0  0
  9 27  2  0  0  0
 10 11  2  0  0  0
 10 15  1  0  0  0
 11 12  1  0  0  0
 11101  1  0  0  0
 12 13  2  0  0  0
 12102  1  0  0  0
 13 14  1  0  0  0
 13 31  1  0  0  0
 14 15  2  0  0  0
 14103  1  0  0  0
 15104  1  0  0  0
 16 17  2  0  0  0
 16 21  1  0  0  0
 16 31  1  0  0  0
 17 18  1  0  0  0
 17105  1  0  0  0
 18 19  2  0  0  0
 18106  1  0  0  0
 19 20  1  0  0  0
 19 24  1  0  0  0
 20 21  2  0  0  0
 20107  1  0  0  0
 21 23  1  0  0  0
 22 28  1  0  0  0
 22 32  2  0  0  0
 26 27  1  0  0  0
 28108  1  0  0  0
 28109  1  0  0  0
 29110  1  0  0  0
 29111  1  0  0  0
 33 34  1  0  0  0
 33 66  1  0  0  0
 33 70  2  0  0  0
 34 36  1  0  0  0
 34 59  1  0  0  0
 34112  1  0  0  0
 35 44  2  0  0  0
 35 45  1  0  0  0
 35 68  1  0  0  0
 36 56  1  0  0  0
 36113  1  0  0  0
 37 39  1  0  0  0
 37 47  1  0  0  0
 37 66  1  0  0  0
 37114  1  0  0  0
 38 43  2  0  0  0
 38 46  1  0  0  0
 38 47  1  0  0  0
 39 64  1  0  0  0
 39 67  2  0  0  0
 40 52  1  0  0  0
 40 53  2  0  0  0
 40 58  1  0  0  0
 41115  1  0  0  0
 41116  1  0  0  0
 41117  1  0  0  0
 41 48  1  0  0  0
 42 43  1  0  0  0
 42 66  1  0  0  0
 42118  1  0  0  0
 42119  1  0  0  0
 43 44  1  0  0  0
 44120  1  0  0  0
 45 46  2  0  0  0
 45121  1  0  0  0
 46122  1  0  0  0
 47123  1  0  0  0
 47124  1  0  0  0
 48 56  1  0  0  0
 48 65  1  0  0  0
 48125  1  0  0  0
 49 50  1  0  0  0
 49 53  1  0  0  0
 49 64  1  0  0  0
 49126  1  0  0  0
 50 51  1  0  0  0
 50127  1  0  0  0
 50128  1  0  0  0
 51 52  1  0  0  0
 51129  1  0  0  0
 51130  1  0  0  0
 52131  1  0  0  0
 52132  1  0  0  0
 53 54  1  0  0  0
 54 55  2  0  0  0
 54133  1  0  0  0
 55 57  1  0  0  0
 55134  1  0  0  0
 56 69  2  0  0  0
 57 58  2  0  0  0
 57135  1  0  0  0
 58136  1  0  0  0
 59 60  1  0  0  0
 59 61  1  0  0  0
 59 62  1  0  0  0
 60137  1  0  0  0
 60138  1  0  0  0
 60139  1  0  0  0
 61140  1  0  0  0
 61141  1  0  0  0
 61142  1  0  0  0
 62143  1  0  0  0
 62144  1  0  0  0
 62145  1  0  0  0
 63 65  1  0  0  0
 63146  1  0  0  0
 63147  1  0  0  0
 63148  1  0  0  0
 64149  1  0  0  0
 65150  1  0  0  0
 68 86  1  0  0  0
 71 73  1  0  0  0
 71 87  2  0  0  0
 71151  1  0  0  0
 72 73  2  0  0  0
 72 88  1  0  0  0
 72152  1  0  0  0
 73 89  1  0  0  0
 74 76  1  0  0  0
 74 78  1  0  0  0
 74153  1  0  0  0
 74154  1  0  0  0
 75 77  1  0  0  0
 75 78  1  0  0  0
 75155  1  0  0  0
 75156  1  0  0  0
 76 90  1  0  0  0
 76157  1  0  0  0
 76158  1  0  0  0
 77 90  1  0  0  0
 77159  1  0  0  0
 77160  1  0  0  0
 78 81  1  0  0  0
 78161  1  0  0  0
 79 82  1  0  0  0
 79162  1  0  0  0
 79163  1  0  0  0
 79164  1  0  0  0
 80 89  1  0  0  0
 80165  1  0  0  0
 80166  1  0  0  0
 80167  1  0  0  0
 81 91  1  0  0  0
 81168  1  0  0  0
 81169  1  0  0  0
 82170  1  0  0  0
 82171  1  0  0  0
 82 86  1  0  0  0
 83 85  1  0  0  0
 83 88  1  0  0  0
 83172  1  0  0  0
 83173  1  0  0  0
 84 86  1  0  0  0
 84174  1  0  0  0
 84175  1  0  0  0
 84 90  1  0  0  0
 85 91  1  0  0  0
 85176  1  0  0  0
 85177  1  0  0  0
 86178  1  0  0  0
 87 88  1  0  0  0
 90179  1  0  0  0
 91180  1  0  0  0
 91181  1  0  0  0
M  CHG  2  90   1  91   1
M  ISO  4   1 100  68 101  86 101  89 100
M  END
> <chiral flag>
0

> <version>
0

> <s_m_source_file>
/data/baiqing/PycharmProjects/Reinvent-master-3.2/result/LINK_invent/BTK/process_docking_weight1_custom_sum_contain_oxygen_bond_distance_aromatic_linkinvent_7_9_3/rearranged_h_0121.sdf

> <i_m_source_file_index>
94

> <r_mmod_Potential_Energy-OPLS-2005>
-36.169506072998

> <r_mmod_Stretch_Energy-OPLS-2005>
40.1632537841797

> <r_mmod_Bend_Energy-OPLS-2005>
128.350997924805

> <r_mmod_Torsional_Energy-OPLS-2005>
413.13037109375

> <r_mmod_Improper_Torsional_Energy-OPLS-2005>
23.3151397705078

> <r_mmod_Van_der_Waal_Energy-OPLS-2005>
131.618133544922

> <r_mmod_Electrostatic_Energy-OPLS-2005>
88.0021133422852

> <r_mmod_Solvation_Energy-OPLS-2005>
-880.29443359375

> <b_mmod_Minimization_Converged-OPLS-2005>
0

> <r_mmod_RMS_Derivative-OPLS-2005>
7.36977863311768

$$$$
94
                    3D
 Structure written by MMmdl.
160169  0  0  1  0            999 V2000
  -30.6841  -14.4382   20.5617 C   0  0  0  0  0  0
  -30.4304  -12.2761   19.4269 C   0  0  0  0  0  0
  -29.5039  -12.5045   18.2125 C   0  0  0  0  0  0
  -28.0215  -12.3695   18.6168 C   0  0  0  0  0  0
  -27.6697  -13.1939   19.8835 C   0  0  2  0  0  0
  -28.7080  -12.9417   21.0041 C   0  0  0  0  0  0
  -25.2628  -13.8128   20.5662 C   0  0  0  0  0  0
  -24.1855  -13.0433   20.9161 C   0  0  0  0  0  0
  -24.6383  -11.6891   20.8723 C   0  0  0  0  0  0
  -23.9047  -10.4287   21.0400 C   0  0  0  0  0  0
  -24.3601   -9.4202   21.9181 C   0  0  0  0  0  0
  -23.6279   -8.2239   22.0754 C   0  0  0  0  0  0
  -22.4261   -8.0275   21.3541 C   0  0  0  0  0  0
  -21.9887   -9.0252   20.4647 C   0  0  0  0  0  0
  -22.7214  -10.2130   20.3054 C   0  0  0  0  0  0
  -21.6854   -6.0730   22.5280 C   0  0  0  0  0  0
  -21.4012   -6.5635   23.8212 C   0  0  0  0  0  0
  -21.3658   -5.6787   24.9170 C   0  0  0  0  0  0
  -21.6044   -4.3051   24.7222 C   0  0  0  0  0  0
  -21.8819   -3.8144   23.4340 C   0  0  0  0  0  0
  -21.9190   -4.6963   22.3396 C   0  0  0  0  0  0
  -22.7881  -13.5256   21.1817 C   0  0  0  0  0  0
  -22.1658   -4.2148   21.0976 F   0  0  0  0  0  0
  -21.5631   -3.4534   25.7732 F   0  0  0  0  0  0
  -30.0504  -13.2402   20.4693 N   0  0  0  0  0  0
  -26.3056  -12.9268   20.3377 N   0  0  0  0  0  0
  -25.9312  -11.6441   20.5757 N   0  0  0  0  0  0
  -22.0494  -12.8274   22.0370 N   0  0  0  0  0  0
  -25.4376  -15.1842   20.4054 N   0  0  0  0  0  0
  -31.7849  -14.6713   20.0552 O   0  0  0  0  0  0
  -21.6629   -6.8870   21.4237 O   0  0  0  0  0  0
  -22.3582  -14.5571   20.6665 O   0  0  0  0  0  0
  -24.6103  -31.8704   23.2116 C   0  0  0  0  0  0
  -25.9008  -32.4838   23.8408 C   0  0  1  0  0  0
  -27.2432  -27.4785   20.0912 C   0  0  0  0  0  0
  -25.5866  -33.8634   24.2337 N   0  0  0  0  0  0
  -23.3981  -30.4922   21.5514 C   0  0  2  0  0  0
  -24.8476  -28.9592   20.1169 C   0  0  0  0  0  0
  -22.7393  -29.4672   22.5012 C   0  0  0  0  0  0
  -18.0267  -28.1401   22.8498 C   0  0  0  0  0  0
  -24.1485  -36.7330   23.2643 C   0  0  0  0  0  0
  -25.9208  -30.8491   21.3575 C   0  0  0  0  0  0
  -26.0027  -29.4840   20.7109 C   0  0  0  0  0  0
  -27.2051  -28.7486   20.6998 C   0  0  0  0  0  0
  -26.0785  -26.9544   19.4956 C   0  0  0  0  0  0
  -24.8770  -27.6903   19.5090 C   0  0  0  0  0  0
  -23.6062  -29.8205   20.1667 C   0  0  0  0  0  0
  -25.4105  -36.3119   24.0340 C   0  0  1  0  0  0
  -20.5854  -28.3671   23.1341 C   0  0  2  0  0  0
  -20.6754  -26.9411   22.5432 C   0  0  0  0  0  0
  -19.5731  -26.6404   21.5226 C   0  0  0  0  0  0
  -18.1912  -26.7944   22.1637 C   0  0  0  0  0  0
  -19.1519  -28.8852   23.2918 C   0  0  0  0  0  0
  -18.9444  -30.1458   23.8925 C   0  0  0  0  0  0
  -17.6450  -30.6604   24.0583 C   0  0  0  0  0  0
  -25.9021  -34.9481   23.5135 C   0  0  0  0  0  0
  -16.5342  -29.9111   23.6332 C   0  0  0  0  0  0
  -16.7260  -28.6533   23.0343 C   0  0  0  0  0  0
  -26.4450  -31.6608   25.0723 C   0  0  0  0  0  0
  -25.3734  -31.3701   26.1489 C   0  0  0  0  0  0
  -27.0272  -30.3057   24.6060 C   0  0  0  0  0  0
  -27.6038  -32.4323   25.7468 C   0  0  0  0  0  0
  -27.5576  -37.1821   24.8467 C   0  0  0  0  0  0
  -21.4124  -29.3035   22.3745 N   0  0  0  0  0  0
  -26.4295  -37.3797   23.9401 N   0  0  0  0  0  0
  -24.6612  -31.0843   22.0997 N   0  0  0  0  0  0
  -23.4179  -28.8217   23.3048 O   0  0  0  0  0  0
  -28.4011  -26.7479   20.0835 O   0  0  0  0  0  0
  -26.5602  -34.8926   22.4706 O   0  0  0  0  0  0
  -23.5303  -32.1432   23.7534 O   0  0  0  0  0  0
  -31.7401  -22.6879   21.1532 C   0  0  0  0  0  0
  -32.2506  -21.4387   21.5660 C   0  0  0  0  0  0
  -29.8728  -21.5643   20.0734 C   0  0  0  0  0  0
  -29.7392  -19.1250   20.1500 C   0  0  0  0  0  0
  -30.3942  -20.3216   20.4853 C   0  0  0  0  0  0
  -30.5377  -22.7586   20.4149 C   0  0  0  0  0  0
  -31.5867  -20.2359   21.2459 C   0  0  0  0  0  0
  -30.3015  -17.9173   20.6024 C   0  0  0  0  0  0
  -30.7419  -24.7238   18.8412 C   0  0  0  0  0  0
  -29.6330  -16.6116   20.2026 C   0  0  0  0  0  0
  -29.7903  -25.0634   21.1952 C   0  0  0  0  0  0
  -28.4801  -25.8646   21.1961 C   0  0  0  0  0  0
  -29.9422  -24.0999   19.9968 C   0  0  2  0  0  0
  -32.0688  -19.0291   21.6486 N   0  0  0  0  0  0
  -31.4405  -17.8853   21.3388 N   0  0  0  0  0  0
  -29.9003  -15.4216   21.0127 N   0  0  0  0  0  0
  -31.4765  -12.3757   19.1310 H   0  0  0  0  0  0
  -30.3249  -11.2583   19.8051 H   0  0  0  0  0  0
  -29.7419  -11.7932   17.4202 H   0  0  0  0  0  0
  -29.6811  -13.4964   17.7941 H   0  0  0  0  0  0
  -27.8221  -11.3123   18.7962 H   0  0  0  0  0  0
  -27.3779  -12.6626   17.7866 H   0  0  0  0  0  0
  -27.7230  -14.2444   19.5990 H   0  0  0  0  0  0
  -28.6726  -11.8984   21.3235 H   0  0  0  0  0  0
  -28.4712  -13.5219   21.8972 H   0  0  0  0  0  0
  -25.2744   -9.5690   22.4755 H   0  0  0  0  0  0
  -23.9985   -7.4637   22.7487 H   0  0  0  0  0  0
  -21.0815   -8.8772   19.8963 H   0  0  0  0  0  0
  -22.3673  -10.9666   19.6164 H   0  0  0  0  0  0
  -21.2003   -7.6144   23.9712 H   0  0  0  0  0  0
  -21.1484   -6.0516   25.9075 H   0  0  0  0  0  0
  -22.0602   -2.7610   23.2838 H   0  0  0  0  0  0
  -22.4071  -11.9934   22.4782 H   0  0  0  0  0  0
  -21.1124  -13.1348   22.2564 H   0  0  0  0  0  0
  -24.6744  -15.8432   20.5152 H   0  0  0  0  0  0
  -26.2853  -15.6170   20.0636 H   0  0  0  0  0  0
  -26.7084  -32.5583   23.1189 H   0  0  0  0  0  0
  -24.9983  -33.9793   25.0454 H   0  0  0  0  0  0
  -22.6849  -31.3077   21.4121 H   0  0  0  0  0  0
  -23.3724  -35.9690   23.3344 H   0  0  0  0  0  0
  -24.3566  -36.8905   22.2047 H   0  0  0  0  0  0
  -23.7263  -37.6559   23.6630 H   0  0  0  0  0  0
  -26.0208  -31.6126   20.5851 H   0  0  0  0  0  0
  -26.8123  -30.9111   21.9690 H   0  0  0  0  0  0
  -28.0992  -29.1467   21.1585 H   0  0  0  0  0  0
  -26.1032  -25.9806   19.0276 H   0  0  0  0  0  0
  -23.9872  -27.2791   19.0521 H   0  0  0  0  0  0
  -23.7109  -30.5930   19.4043 H   0  0  0  0  0  0
  -22.7321  -29.2365   19.8738 H   0  0  0  0  0  0
  -25.1279  -36.1992   25.0833 H   0  0  0  0  0  0
  -20.9951  -28.3238   24.1461 H   0  0  0  0  0  0
  -20.5674  -26.2273   23.3615 H   0  0  0  0  0  0
  -21.6625  -26.7471   22.1215 H   0  0  0  0  0  0
  -19.6885  -25.6320   21.1239 H   0  0  0  0  0  0
  -19.6670  -27.3231   20.6770 H   0  0  0  0  0  0
  -17.4180  -26.6706   21.4040 H   0  0  0  0  0  0
  -18.0309  -26.0092   22.9041 H   0  0  0  0  0  0
  -19.7921  -30.7275   24.2301 H   0  0  0  0  0  0
  -17.5008  -31.6282   24.5195 H   0  0  0  0  0  0
  -15.5344  -30.3028   23.7639 H   0  0  0  0  0  0
  -15.8661  -28.0872   22.7028 H   0  0  0  0  0  0
  -24.5881  -30.7074   25.7827 H   0  0  0  0  0  0
  -24.8958  -32.2857   26.4989 H   0  0  0  0  0  0
  -25.8105  -30.8827   27.0213 H   0  0  0  0  0  0
  -26.2796  -29.6827   24.1134 H   0  0  0  0  0  0
  -27.4076  -29.7279   25.4494 H   0  0  0  0  0  0
  -27.8615  -30.4389   23.9169 H   0  0  0  0  0  0
  -27.2659  -33.3603   26.2091 H   0  0  0  0  0  0
  -28.3811  -32.6918   25.0269 H   0  0  0  0  0  0
  -28.0747  -31.8426   26.5340 H   0  0  0  0  0  0
  -28.2624  -38.0088   24.7479 H   0  0  0  0  0  0
  -28.1036  -36.2617   24.6335 H   0  0  0  0  0  0
  -27.2291  -37.1538   25.8872 H   0  0  0  0  0  0
  -20.9285  -29.8757   21.6968 H   0  0  0  0  0  0
  -26.0189  -38.2881   24.1382 H   0  0  0  0  0  0
  -32.2723  -23.5917   21.4159 H   0  0  0  0  0  0
  -33.1647  -21.4012   22.1404 H   0  0  0  0  0  0
  -28.9562  -21.5995   19.5001 H   0  0  0  0  0  0
  -28.8364  -19.1269   19.5579 H   0  0  0  0  0  0
  -30.7671  -24.0567   17.9790 H   0  0  0  0  0  0
  -31.7729  -24.9299   19.1309 H   0  0  0  0  0  0
  -30.2956  -25.6631   18.5132 H   0  0  0  0  0  0
  -29.8676  -16.4262   19.1519 H   0  0  0  0  0  0
  -28.5545  -16.7721   20.2299 H   0  0  0  0  0  0
  -29.7811  -24.4825   22.1192 H   0  0  0  0  0  0
  -30.6533  -25.7254   21.2763 H   0  0  0  0  0  0
  -28.4193  -26.4403   22.1216 H   0  0  0  0  0  0
  -27.6302  -25.1790   21.1950 H   0  0  0  0  0  0
  -28.9403  -23.8931   19.6150 H   0  0  0  0  0  0
  -29.1119  -15.1064   21.5550 H   0  0  0  0  0  0
  1 25  1  0  0  0
  1 30  2  0  0  0
  1 86  1  0  0  0
  2  3  1  0  0  0
  2 25  1  0  0  0
  2 87  1  0  0  0
  2 88  1  0  0  0
  3  4  1  0  0  0
  3 89  1  0  0  0
  3 90  1  0  0  0
  4  5  1  0  0  0
  4 91  1  0  0  0
  4 92  1  0  0  0
  5  6  1  0  0  0
  5 26  1  0  0  0
  5 93  1  0  0  0
  6 25  1  0  0  0
  6 94  1  0  0  0
  6 95  1  0  0  0
  7  8  2  0  0  0
  7 26  1  0  0  0
  7 29  1  0  0  0
  8  9  1  0  0  0
  8 22  1  0  0  0
  9 10  1  0  0  0
  9 27  2  0  0  0
 10 11  2  0  0  0
 10 15  1  0  0  0
 11 12  1  0  0  0
 11 96  1  0  0  0
 12 13  2  0  0  0
 12 97  1  0  0  0
 13 14  1  0  0  0
 13 31  1  0  0  0
 14 15  2  0  0  0
 14 98  1  0  0  0
 15 99  1  0  0  0
 16 17  2  0  0  0
 16 21  1  0  0  0
 16 31  1  0  0  0
 17 18  1  0  0  0
 17100  1  0  0  0
 18 19  2  0  0  0
 18101  1  0  0  0
 19 20  1  0  0  0
 19 24  1  0  0  0
 20 21  2  0  0  0
 20102  1  0  0  0
 21 23  1  0  0  0
 22 28  1  0  0  0
 22 32  2  0  0  0
 26 27  1  0  0  0
 28103  1  0  0  0
 28104  1  0  0  0
 29105  1  0  0  0
 29106  1  0  0  0
 33 34  1  0  0  0
 33 66  1  0  0  0
 33 70  2  0  0  0
 34 36  1  0  0  0
 34 59  1  0  0  0
 34107  1  0  0  0
 35 44  2  0  0  0
 35 45  1  0  0  0
 35 68  1  0  0  0
 36 56  1  0  0  0
 36108  1  0  0  0
 37 39  1  0  0  0
 37 47  1  0  0  0
 37 66  1  0  0  0
 37109  1  0  0  0
 38 43  2  0  0  0
 38 46  1  0  0  0
 38 47  1  0  0  0
 39 64  1  0  0  0
 39 67  2  0  0  0
 40 52  1  0  0  0
 40 53  2  0  0  0
 40 58  1  0  0  0
 41110  1  0  0  0
 41111  1  0  0  0
 41112  1  0  0  0
 41 48  1  0  0  0
 42 43  1  0  0  0
 42 66  1  0  0  0
 42113  1  0  0  0
 42114  1  0  0  0
 43 44  1  0  0  0
 44115  1  0  0  0
 45 46  2  0  0  0
 45116  1  0  0  0
 46117  1  0  0  0
 47118  1  0  0  0
 47119  1  0  0  0
 48 56  1  0  0  0
 48 65  1  0  0  0
 48120  1  0  0  0
 49 50  1  0  0  0
 49 53  1  0  0  0
 49 64  1  0  0  0
 49121  1  0  0  0
 50 51  1  0  0  0
 50122  1  0  0  0
 50123  1  0  0  0
 51 52  1  0  0  0
 51124  1  0  0  0
 51125  1  0  0  0
 52126  1  0  0  0
 52127  1  0  0  0
 53 54  1  0  0  0
 54 55  2  0  0  0
 54128  1  0  0  0
 55 57  1  0  0  0
 55129  1  0  0  0
 56 69  2  0  0  0
 57 58  2  0  0  0
 57130  1  0  0  0
 58131  1  0  0  0
 59 60  1  0  0  0
 59 61  1  0  0  0
 59 62  1  0  0  0
 60132  1  0  0  0
 60133  1  0  0  0
 60134  1  0  0  0
 61135  1  0  0  0
 61136  1  0  0  0
 61137  1  0  0  0
 62138  1  0  0  0
 62139  1  0  0  0
 62140  1  0  0  0
 63 65  1  0  0  0
 63141  1  0  0  0
 63142  1  0  0  0
 63143  1  0  0  0
 64144  1  0  0  0
 65145  1  0  0  0
 68 82  1  0  0  0
 71 72  2  0  0  0
 71 76  1  0  0  0
 71146  1  0  0  0
 72 77  1  0  0  0
 72147  1  0  0  0
 73 75  1  0  0  0
 73 76  2  0  0  0
 73148  1  0  0  0
 74 75  1  0  0  0
 74 78  2  0  0  0
 74149  1  0  0  0
 75 77  2  0  0  0
 76 83  1  0  0  0
 77 84  1  0  0  0
 78 80  1  0  0  0
 78 85  1  0  0  0
 79150  1  0  0  0
 79151  1  0  0  0
 79152  1  0  0  0
 79 83  1  0  0  0
 80 86  1  0  0  0
 80153  1  0  0  0
 80154  1  0  0  0
 81 82  1  0  0  0
 81 83  1  0  0  0
 81155  1  0  0  0
 81156  1  0  0  0
 82157  1  0  0  0
 82158  1  0  0  0
 83159  1  0  0  0
 84 85  2  0  0  0
 86160  1  0  0  0
M  ISO  4   1 100  68 101  82 101  86 100
M  END
> <chiral flag>
0

> <version>
0

> <s_m_source_file>
/data/baiqing/PycharmProjects/Reinvent-master-3.2/result/LINK_invent/BTK/process_docking_weight1_custom_sum_contain_oxygen_bond_distance_aromatic_linkinvent_7_9_3/rearranged_h_0121.sdf

> <i_m_source_file_index>
95

> <r_mmod_Potential_Energy-OPLS-2005>
-80.0737533569336

> <r_mmod_Stretch_Energy-OPLS-2005>
34.303524017334

> <r_mmod_Bend_Energy-OPLS-2005>
93.3246612548828

> <r_mmod_Torsional_Energy-OPLS-2005>
257.645721435547

> <r_mmod_Improper_Torsional_Energy-OPLS-2005>
9.67582893371582

> <r_mmod_Van_der_Waal_Energy-OPLS-2005>
169.434173583984

> <r_mmod_Electrostatic_Energy-OPLS-2005>
-401.569763183594

> <r_mmod_Solvation_Energy-OPLS-2005>
-252.063613891602

> <b_mmod_Minimization_Converged-OPLS-2005>
0

> <r_mmod_RMS_Derivative-OPLS-2005>
1.52077662944794

$$$$
95
                    3D
 Structure written by MMmdl.
168177  0  0  1  0            999 V2000
  -30.7685  -14.3791   20.6870 C   0  0  0  0  0  0
  -30.4142  -12.3028   19.3946 C   0  0  0  0  0  0
  -29.4801  -12.5258   18.1912 C   0  0  0  0  0  0
  -28.0063  -12.3747   18.6104 C   0  0  0  0  0  0
  -27.6621  -13.2039   19.8750 C   0  0  2  0  0  0
  -28.7005  -12.9602   20.9915 C   0  0  0  0  0  0
  -25.2584  -13.8162   20.5665 C   0  0  0  0  0  0
  -24.1832  -13.0443   20.9164 C   0  0  0  0  0  0
  -24.6379  -11.6909   20.8722 C   0  0  0  0  0  0
  -23.9046  -10.4296   21.0401 C   0  0  0  0  0  0
  -24.3602   -9.4213   21.9178 C   0  0  0  0  0  0
  -23.6285   -8.2242   22.0751 C   0  0  0  0  0  0
  -22.4268   -8.0279   21.3540 C   0  0  0  0  0  0
  -21.9899   -9.0246   20.4642 C   0  0  0  0  0  0
  -22.7219  -10.2130   20.3050 C   0  0  0  0  0  0
  -21.6851   -6.0732   22.5277 C   0  0  0  0  0  0
  -21.4013   -6.5635   23.8209 C   0  0  0  0  0  0
  -21.3661   -5.6791   24.9175 C   0  0  0  0  0  0
  -21.6046   -4.3053   24.7226 C   0  0  0  0  0  0
  -21.8818   -3.8142   23.4346 C   0  0  0  0  0  0
  -21.9190   -4.6961   22.3401 C   0  0  0  0  0  0
  -22.7856  -13.5242   21.1838 C   0  0  0  0  0  0
  -22.1661   -4.2145   21.0980 F   0  0  0  0  0  0
  -21.5630   -3.4539   25.7739 F   0  0  0  0  0  0
  -30.0421  -13.2544   20.4524 N   0  0  0  0  0  0
  -26.3016  -12.9328   20.3355 N   0  0  0  0  0  0
  -25.9301  -11.6489   20.5743 N   0  0  0  0  0  0
  -22.0498  -12.8234   22.0399 N   0  0  0  0  0  0
  -25.4324  -15.1878   20.4084 N   0  0  0  0  0  0
  -31.7884  -14.6691   20.0547 O   0  0  0  0  0  0
  -21.6636   -6.8873   21.4238 O   0  0  0  0  0  0
  -22.3545  -14.5555   20.6697 O   0  0  0  0  0  0
  -24.6126  -31.8688   23.2098 C   0  0  0  0  0  0
  -25.9030  -32.4820   23.8386 C   0  0  1  0  0  0
  -27.2417  -27.4437   20.0827 C   0  0  0  0  0  0
  -25.5905  -33.8619   24.2319 N   0  0  0  0  0  0
  -23.3995  -30.4915   21.5497 C   0  0  2  0  0  0
  -24.8455  -28.9546   20.1155 C   0  0  0  0  0  0
  -22.7387  -29.4666   22.4997 C   0  0  0  0  0  0
  -18.0263  -28.1362   22.8496 C   0  0  0  0  0  0
  -24.1492  -36.7309   23.2641 C   0  0  0  0  0  0
  -25.9272  -30.8329   21.3638 C   0  0  0  0  0  0
  -26.0025  -29.4664   20.7135 C   0  0  0  0  0  0
  -27.1973  -28.7145   20.6998 C   0  0  0  0  0  0
  -26.0600  -26.9389   19.4901 C   0  0  0  0  0  0
  -24.8680  -27.6877   19.5070 C   0  0  0  0  0  0
  -23.6066  -29.8199   20.1652 C   0  0  0  0  0  0
  -25.4116  -36.3111   24.0336 C   0  0  1  0  0  0
  -20.5852  -28.3656   23.1325 C   0  0  2  0  0  0
  -20.6755  -26.9393   22.5420 C   0  0  0  0  0  0
  -19.5736  -26.6378   21.5210 C   0  0  0  0  0  0
  -18.1913  -26.7915   22.1619 C   0  0  0  0  0  0
  -19.1511  -28.8825   23.2910 C   0  0  0  0  0  0
  -18.9450  -30.1432   23.8921 C   0  0  0  0  0  0
  -17.6457  -30.6582   24.0563 C   0  0  0  0  0  0
  -25.9043  -34.9475   23.5125 C   0  0  0  0  0  0
  -16.5346  -29.9083   23.6330 C   0  0  0  0  0  0
  -16.7255  -28.6494   23.0356 C   0  0  0  0  0  0
  -26.4462  -31.6601   25.0713 C   0  0  0  0  0  0
  -25.3731  -31.3708   26.1470 C   0  0  0  0  0  0
  -27.0293  -30.3050   24.6079 C   0  0  0  0  0  0
  -27.6047  -32.4319   25.7466 C   0  0  0  0  0  0
  -27.5584  -37.1812   24.8467 C   0  0  0  0  0  0
  -21.4115  -29.3041   22.3743 N   0  0  0  0  0  0
  -26.4302  -37.3794   23.9402 N   0  0  0  0  0  0
  -24.6644  -31.0789   22.0997 N   0  0  0  0  0  0
  -23.4166  -28.8213   23.3041 O   0  0  0  0  0  0
  -28.4451  -26.7654   20.0909 O   0  0  0  0  0  0
  -26.5597  -34.8926   22.4683 O   0  0  0  0  0  0
  -23.5326  -32.1453   23.7496 O   0  0  0  0  0  0
  -29.1284  -19.3673   21.4090 C   0  0  0  0  0  0
  -29.4037  -18.0104   21.6794 C   0  0  0  0  0  0
  -31.4995  -19.7704   21.4688 C   0  0  0  0  0  0
  -30.1942  -20.2911   21.3107 C   0  0  0  0  0  0
  -30.7398  -17.6108   21.8677 C   0  0  0  0  0  0
  -31.8379  -22.8789   20.1137 C   0  0  0  0  0  0
  -31.1039  -22.7166   21.4450 C   0  0  0  0  0  0
  -30.7579  -22.6828   19.0409 C   0  0  0  0  0  0
  -29.9096  -21.7993   21.1200 C   0  0  1  0  0  0
  -27.0520  -22.0450   19.7821 C   0  0  0  0  0  0
  -31.1123  -16.2067   22.3299 C   0  0  0  0  0  0
  -28.1772  -24.3006   20.2144 C   0  0  0  0  0  0
  -28.6013  -25.5331   19.3788 C   0  0  0  0  0  0
  -28.2858  -22.9189   19.4846 C   0  0  1  0  0  0
  -31.7662  -18.4751   21.7411 N   0  0  0  0  0  0
  -30.3506  -15.1227   21.7157 N   0  0  0  0  0  0
  -29.5512  -22.1362   19.7124 N   0  3  1  0  0  0
  -31.4566  -12.4050   19.0876 H   0  0  0  0  0  0
  -30.3166  -11.2822   19.7672 H   0  0  0  0  0  0
  -29.7160  -11.8189   17.3944 H   0  0  0  0  0  0
  -29.6441  -13.5214   17.7763 H   0  0  0  0  0  0
  -27.8198  -11.3165   18.7982 H   0  0  0  0  0  0
  -27.3499  -12.6559   17.7860 H   0  0  0  0  0  0
  -27.7157  -14.2558   19.5934 H   0  0  0  0  0  0
  -28.6663  -11.9195   21.3165 H   0  0  0  0  0  0
  -28.4422  -13.5446   21.8742 H   0  0  0  0  0  0
  -25.2749   -9.5694   22.4748 H   0  0  0  0  0  0
  -24.0000   -7.4638   22.7469 H   0  0  0  0  0  0
  -21.0829   -8.8755   19.8949 H   0  0  0  0  0  0
  -22.3673  -10.9663   19.6156 H   0  0  0  0  0  0
  -21.2006   -7.6144   23.9714 H   0  0  0  0  0  0
  -21.1485   -6.0522   25.9077 H   0  0  0  0  0  0
  -22.0596   -2.7605   23.2848 H   0  0  0  0  0  0
  -22.4105  -11.9887   22.4781 H   0  0  0  0  0  0
  -21.1118  -13.1265   22.2616 H   0  0  0  0  0  0
  -24.6693  -15.8468   20.5164 H   0  0  0  0  0  0
  -26.2927  -15.6248   20.1015 H   0  0  0  0  0  0
  -26.7100  -32.5525   23.1144 H   0  0  0  0  0  0
  -25.0085  -33.9793   25.0481 H   0  0  0  0  0  0
  -22.6882  -31.3075   21.4079 H   0  0  0  0  0  0
  -23.3750  -35.9645   23.3320 H   0  0  0  0  0  0
  -24.3591  -36.8908   22.2056 H   0  0  0  0  0  0
  -23.7249  -37.6520   23.6643 H   0  0  0  0  0  0
  -26.0380  -31.5975   20.5937 H   0  0  0  0  0  0
  -26.8163  -30.8874   21.9800 H   0  0  0  0  0  0
  -28.0922  -29.1106   21.1593 H   0  0  0  0  0  0
  -26.0343  -25.9714   19.0123 H   0  0  0  0  0  0
  -23.9761  -27.2843   19.0475 H   0  0  0  0  0  0
  -23.7097  -30.5922   19.4020 H   0  0  0  0  0  0
  -22.7316  -29.2362   19.8740 H   0  0  0  0  0  0
  -25.1289  -36.1985   25.0829 H   0  0  0  0  0  0
  -20.9942  -28.3221   24.1442 H   0  0  0  0  0  0
  -20.5658  -26.2259   23.3602 H   0  0  0  0  0  0
  -21.6628  -26.7442   22.1214 H   0  0  0  0  0  0
  -19.6904  -25.6292   21.1232 H   0  0  0  0  0  0
  -19.6676  -27.3196   20.6747 H   0  0  0  0  0  0
  -17.4182  -26.6669   21.4020 H   0  0  0  0  0  0
  -18.0312  -26.0034   22.8999 H   0  0  0  0  0  0
  -19.7930  -30.7236   24.2301 H   0  0  0  0  0  0
  -17.5015  -31.6270   24.5147 H   0  0  0  0  0  0
  -15.5352  -30.3000   23.7641 H   0  0  0  0  0  0
  -15.8648  -28.0830   22.7063 H   0  0  0  0  0  0
  -24.5901  -30.7054   25.7814 H   0  0  0  0  0  0
  -24.8916  -32.2860   26.4929 H   0  0  0  0  0  0
  -25.8093  -30.8878   27.0221 H   0  0  0  0  0  0
  -26.2833  -29.6811   24.1143 H   0  0  0  0  0  0
  -27.4090  -29.7289   25.4526 H   0  0  0  0  0  0
  -27.8646  -30.4380   23.9199 H   0  0  0  0  0  0
  -27.2683  -33.3625   26.2046 H   0  0  0  0  0  0
  -28.3852  -32.6875   25.0285 H   0  0  0  0  0  0
  -28.0704  -31.8428   26.5375 H   0  0  0  0  0  0
  -28.2619  -38.0096   24.7516 H   0  0  0  0  0  0
  -28.1070  -36.2632   24.6299 H   0  0  0  0  0  0
  -27.2296  -37.1474   25.8869 H   0  0  0  0  0  0
  -20.9260  -29.8777   21.6988 H   0  0  0  0  0  0
  -26.0193  -38.2876   24.1391 H   0  0  0  0  0  0
  -28.1038  -19.6941   21.3059 H   0  0  0  0  0  0
  -28.5945  -17.3021   21.7918 H   0  0  0  0  0  0
  -32.3749  -20.3977   21.4184 H   0  0  0  0  0  0
  -32.6104  -22.1187   19.9997 H   0  0  0  0  0  0
  -32.3286  -23.8496   20.0310 H   0  0  0  0  0  0
  -30.7384  -23.6970   21.7486 H   0  0  0  0  0  0
  -31.7313  -22.3732   22.2674 H   0  0  0  0  0  0
  -31.0995  -21.9720   18.2876 H   0  0  0  0  0  0
  -30.5577  -23.6095   18.5085 H   0  0  0  0  0  0
  -29.0900  -22.0418   21.7979 H   0  0  0  0  0  0
  -26.1371  -22.5496   19.4700 H   0  0  0  0  0  0
  -26.9501  -21.8260   20.8449 H   0  0  0  0  0  0
  -27.0900  -21.0976   19.2430 H   0  0  0  0  0  0
  -30.9498  -16.1586   23.4067 H   0  0  0  0  0  0
  -32.1832  -16.0440   22.1925 H   0  0  0  0  0  0
  -27.1354  -24.4573   20.4924 H   0  0  0  0  0  0
  -28.7016  -24.3012   21.1663 H   0  0  0  0  0  0
  -28.1019  -25.5613   18.4096 H   0  0  0  0  0  0
  -29.6632  -25.4685   19.1520 H   0  0  0  0  0  0
  -28.2338  -23.1109   18.4111 H   0  0  0  0  0  0
  -29.5094  -14.8307   22.1872 H   0  0  0  0  0  0
  -29.3835  -21.2559   19.2481 H   0  0  0  0  0  0
  1 25  1  0  0  0
  1 30  2  0  0  0
  1 86  1  0  0  0
  2  3  1  0  0  0
  2 25  1  0  0  0
  2 88  1  0  0  0
  2 89  1  0  0  0
  3  4  1  0  0  0
  3 90  1  0  0  0
  3 91  1  0  0  0
  4  5  1  0  0  0
  4 92  1  0  0  0
  4 93  1  0  0  0
  5  6  1  0  0  0
  5 26  1  0  0  0
  5 94  1  0  0  0
  6 25  1  0  0  0
  6 95  1  0  0  0
  6 96  1  0  0  0
  7  8  2  0  0  0
  7 26  1  0  0  0
  7 29  1  0  0  0
  8  9  1  0  0  0
  8 22  1  0  0  0
  9 10  1  0  0  0
  9 27  2  0  0  0
 10 11  2  0  0  0
 10 15  1  0  0  0
 11 12  1  0  0  0
 11 97  1  0  0  0
 12 13  2  0  0  0
 12 98  1  0  0  0
 13 14  1  0  0  0
 13 31  1  0  0  0
 14 15  2  0  0  0
 14 99  1  0  0  0
 15100  1  0  0  0
 16 17  2  0  0  0
 16 21  1  0  0  0
 16 31  1  0  0  0
 17 18  1  0  0  0
 17101  1  0  0  0
 18 19  2  0  0  0
 18102  1  0  0  0
 19 20  1  0  0  0
 19 24  1  0  0  0
 20 21  2  0  0  0
 20103  1  0  0  0
 21 23  1  0  0  0
 22 28  1  0  0  0
 22 32  2  0  0  0
 26 27  1  0  0  0
 28104  1  0  0  0
 28105  1  0  0  0
 29106  1  0  0  0
 29107  1  0  0  0
 33 34  1  0  0  0
 33 66  1  0  0  0
 33 70  2  0  0  0
 34 36  1  0  0  0
 34 59  1  0  0  0
 34108  1  0  0  0
 35 44  2  0  0  0
 35 45  1  0  0  0
 35 68  1  0  0  0
 36 56  1  0  0  0
 36109  1  0  0  0
 37 39  1  0  0  0
 37 47  1  0  0  0
 37 66  1  0  0  0
 37110  1  0  0  0
 38 43  2  0  0  0
 38 46  1  0  0  0
 38 47  1  0  0  0
 39 64  1  0  0  0
 39 67  2  0  0  0
 40 52  1  0  0  0
 40 53  2  0  0  0
 40 58  1  0  0  0
 41111  1  0  0  0
 41112  1  0  0  0
 41113  1  0  0  0
 41 48  1  0  0  0
 42 43  1  0  0  0
 42 66  1  0  0  0
 42114  1  0  0  0
 42115  1  0  0  0
 43 44  1  0  0  0
 44116  1  0  0  0
 45 46  2  0  0  0
 45117  1  0  0  0
 46118  1  0  0  0
 47119  1  0  0  0
 47120  1  0  0  0
 48 56  1  0  0  0
 48 65  1  0  0  0
 48121  1  0  0  0
 49 50  1  0  0  0
 49 53  1  0  0  0
 49 64  1  0  0  0
 49122  1  0  0  0
 50 51  1  0  0  0
 50123  1  0  0  0
 50124  1  0  0  0
 51 52  1  0  0  0
 51125  1  0  0  0
 51126  1  0  0  0
 52127  1  0  0  0
 52128  1  0  0  0
 53 54  1  0  0  0
 54 55  2  0  0  0
 54129  1  0  0  0
 55 57  1  0  0  0
 55130  1  0  0  0
 56 69  2  0  0  0
 57 58  2  0  0  0
 57131  1  0  0  0
 58132  1  0  0  0
 59 60  1  0  0  0
 59 61  1  0  0  0
 59 62  1  0  0  0
 60133  1  0  0  0
 60134  1  0  0  0
 60135  1  0  0  0
 61136  1  0  0  0
 61137  1  0  0  0
 61138  1  0  0  0
 62139  1  0  0  0
 62140  1  0  0  0
 62141  1  0  0  0
 63 65  1  0  0  0
 63142  1  0  0  0
 63143  1  0  0  0
 63144  1  0  0  0
 64145  1  0  0  0
 65146  1  0  0  0
 68 83  1  0  0  0
 71 72  2  0  0  0
 71 74  1  0  0  0
 71147  1  0  0  0
 72 75  1  0  0  0
 72148  1  0  0  0
 73 74  2  0  0  0
 73 85  1  0  0  0
 73149  1  0  0  0
 74 79  1  0  0  0
 75 81  1  0  0  0
 75 85  2  0  0  0
 76 77  1  0  0  0
 76 78  1  0  0  0
 76150  1  0  0  0
 76151  1  0  0  0
 77 79  1  0  0  0
 77152  1  0  0  0
 77153  1  0  0  0
 78154  1  0  0  0
 78155  1  0  0  0
 78 87  1  0  0  0
 79 87  1  0  0  0
 79156  1  0  0  0
 80157  1  0  0  0
 80158  1  0  0  0
 80159  1  0  0  0
 80 84  1  0  0  0
 81 86  1  0  0  0
 81160  1  0  0  0
 81161  1  0  0  0
 82 83  1  0  0  0
 82 84  1  0  0  0
 82162  1  0  0  0
 82163  1  0  0  0
 83164  1  0  0  0
 83165  1  0  0  0
 84 87  1  0  0  0
 84166  1  0  0  0
 86167  1  0  0  0
 87168  1  0  0  0
M  CHG  1  87   1
M  ISO  4   1 100  68 101  83 101  86 100
M  END
> <chiral flag>
0

> <version>
0

> <s_m_source_file>
/data/baiqing/PycharmProjects/Reinvent-master-3.2/result/LINK_invent/BTK/process_docking_weight1_custom_sum_contain_oxygen_bond_distance_aromatic_linkinvent_7_9_3/rearranged_h_0121.sdf

> <i_m_source_file_index>
96

> <r_mmod_Potential_Energy-OPLS-2005>
-315.256561279297

> <r_mmod_Stretch_Energy-OPLS-2005>
38.9829902648926

> <r_mmod_Bend_Energy-OPLS-2005>
130.977890014648

> <r_mmod_Torsional_Energy-OPLS-2005>
268.295043945312

> <r_mmod_Improper_Torsional_Energy-OPLS-2005>
2.55799317359924

> <r_mmod_Van_der_Waal_Energy-OPLS-2005>
155.674407958984

> <r_mmod_Electrostatic_Energy-OPLS-2005>
-467.470642089844

> <r_mmod_Solvation_Energy-OPLS-2005>
-452.651977539062

> <b_mmod_Minimization_Converged-OPLS-2005>
0

> <r_mmod_RMS_Derivative-OPLS-2005>
0.996309280395508

$$$$
96
                    3D
 Structure written by MMmdl.
155163  0  0  1  0            999 V2000
  -30.7710  -14.5307   20.5522 C   0  0  0  0  0  0
  -30.3970  -12.3429   19.4599 C   0  0  0  0  0  0
  -29.5170  -12.4849   18.1926 C   0  0  0  0  0  0
  -28.0318  -12.8082   18.4915 C   0  0  0  0  0  0
  -27.7062  -12.7338   19.9834 C   0  0  2  0  0  0
  -28.7032  -13.2118   21.0351 C   0  0  0  0  0  0
  -25.3108  -13.7486   20.5518 C   0  0  0  0  0  0
  -24.1856  -13.0382   20.9096 C   0  0  0  0  0  0
  -24.5702  -11.6676   20.8901 C   0  0  0  0  0  0
  -23.8388  -10.4233   21.0637 C   0  0  0  0  0  0
  -24.3194   -9.4176   21.9309 C   0  0  0  0  0  0
  -23.6068   -8.2121   22.0770 C   0  0  0  0  0  0
  -22.4071   -8.0129   21.3547 C   0  0  0  0  0  0
  -21.9573   -9.0057   20.4670 C   0  0  0  0  0  0
  -22.6694  -10.2043   20.3166 C   0  0  0  0  0  0
  -21.6776   -6.0628   22.5280 C   0  0  0  0  0  0
  -21.3943   -6.5577   23.8198 C   0  0  0  0  0  0
  -21.3646   -5.6763   24.9180 C   0  0  0  0  0  0
  -21.6050   -4.3027   24.7250 C   0  0  0  0  0  0
  -21.8819   -3.8088   23.4385 C   0  0  0  0  0  0
  -21.9171   -4.6875   22.3421 C   0  0  0  0  0  0
  -22.8006  -13.5545   21.1769 C   0  0  0  0  0  0
  -22.1658   -4.2062   21.0998 F   0  0  0  0  0  0
  -21.5660   -3.4535   25.7782 F   0  0  0  0  0  0
  -30.0355  -13.3961   20.4291 N   0  0  0  0  0  0
  -26.3017  -12.7767   20.3632 N   0  0  0  0  0  0
  -25.8323  -11.5461   20.6015 N   0  0  0  0  0  0
  -22.0503  -12.8651   22.0323 N   0  0  0  0  0  0
  -25.5576  -15.1063   20.3713 N   0  0  0  0  0  0
  -31.8775  -14.6771   20.0337 O   0  0  0  0  0  0
  -21.6537   -6.8697   21.4210 O   0  0  0  0  0  0
  -22.3850  -14.5885   20.6577 O   0  0  0  0  0  0
  -24.6130  -31.8687   23.2111 C   0  0  0  0  0  0
  -25.9024  -32.4828   23.8406 C   0  0  1  0  0  0
  -27.2379  -27.4503   20.0891 C   0  0  0  0  0  0
  -25.5879  -33.8628   24.2336 N   0  0  0  0  0  0
  -23.4020  -30.4898   21.5521 C   0  0  2  0  0  0
  -24.8497  -28.9543   20.1167 C   0  0  0  0  0  0
  -22.7404  -29.4651   22.5013 C   0  0  0  0  0  0
  -18.0266  -28.1374   22.8487 C   0  0  0  0  0  0
  -24.1487  -36.7316   23.2639 C   0  0  0  0  0  0
  -25.9291  -30.8373   21.3631 C   0  0  0  0  0  0
  -26.0090  -29.4716   20.7107 C   0  0  0  0  0  0
  -27.2092  -28.7259   20.6943 C   0  0  0  0  0  0
  -26.0665  -26.9390   19.4971 C   0  0  0  0  0  0
  -24.8722  -27.6856   19.5091 C   0  0  0  0  0  0
  -23.6099  -29.8193   20.1676 C   0  0  0  0  0  0
  -25.4106  -36.3118   24.0341 C   0  0  1  0  0  0
  -20.5855  -28.3652   23.1330 C   0  0  2  0  0  0
  -20.6755  -26.9391   22.5424 C   0  0  0  0  0  0
  -19.5742  -26.6384   21.5212 C   0  0  0  0  0  0
  -18.1919  -26.7920   22.1619 C   0  0  0  0  0  0
  -19.1514  -28.8830   23.2907 C   0  0  0  0  0  0
  -18.9443  -30.1434   23.8918 C   0  0  0  0  0  0
  -17.6448  -30.6583   24.0559 C   0  0  0  0  0  0
  -25.9031  -34.9479   23.5142 C   0  0  0  0  0  0
  -16.5340  -29.9082   23.6320 C   0  0  0  0  0  0
  -16.7255  -28.6495   23.0349 C   0  0  0  0  0  0
  -26.4459  -31.6608   25.0726 C   0  0  0  0  0  0
  -25.3730  -31.3707   26.1479 C   0  0  0  0  0  0
  -27.0283  -30.3050   24.6089 C   0  0  0  0  0  0
  -27.6053  -32.4314   25.7472 C   0  0  0  0  0  0
  -27.5583  -37.1819   24.8467 C   0  0  0  0  0  0
  -21.4134  -29.3020   22.3744 N   0  0  0  0  0  0
  -26.4298  -37.3794   23.9402 N   0  0  0  0  0  0
  -24.6666  -31.0781   22.1014 N   0  0  0  0  0  0
  -23.4177  -28.8201   23.3062 O   0  0  0  0  0  0
  -28.3903  -26.7038   20.0598 O   0  0  0  0  0  0
  -26.5599  -34.8927   22.4708 O   0  0  0  0  0  0
  -23.5325  -32.1441   23.7504 O   0  0  0  0  0  0
  -27.7282  -22.0068   20.5787 C   0  0  0  0  0  0
  -27.5592  -23.3593   20.9310 C   0  0  0  0  0  0
  -29.8674  -22.6099   19.6439 C   0  0  0  0  0  0
  -28.9182  -21.6075   19.9368 C   0  0  0  0  0  0
  -28.5793  -24.2834   20.6335 C   0  0  0  0  0  0
  -29.1208  -20.1492   19.5009 C   0  0  0  0  0  0
  -28.4841  -25.7352   21.1125 C   0  0  0  0  0  0
  -30.5535  -16.9690   21.2190 C   0  0  0  0  0  0
  -29.6643  -17.8424   20.2939 C   0  0  0  0  0  0
  -29.7108  -23.9116   19.9882 N   0  0  0  0  0  0
  -30.1603  -15.5529   21.1745 N   0  0  0  0  0  0
  -29.8700  -19.3057   20.4703 N   0  3  0  0  0  0
  -31.4549  -12.3633   19.1903 H   0  0  0  0  0  0
  -30.2396  -11.3671   19.9237 H   0  0  0  0  0  0
  -29.5853  -11.5644   17.6109 H   0  0  0  0  0  0
  -29.9261  -13.2665   17.5495 H   0  0  0  0  0  0
  -27.3815  -12.1382   17.9256 H   0  0  0  0  0  0
  -27.8040  -13.8140   18.1372 H   0  0  0  0  0  0
  -27.9600  -11.6723   20.0744 H   0  0  0  0  0  0
  -28.7843  -12.4930   21.8522 H   0  0  0  0  0  0
  -28.2820  -14.1057   21.4914 H   0  0  0  0  0  0
  -25.2355   -9.5721   22.4850 H   0  0  0  0  0  0
  -23.9873   -7.4496   22.7413 H   0  0  0  0  0  0
  -21.0535   -8.8461   19.8960 H   0  0  0  0  0  0
  -22.3096  -10.9572   19.6295 H   0  0  0  0  0  0
  -21.1882   -7.6080   23.9659 H   0  0  0  0  0  0
  -21.1486   -6.0521   25.9076 H   0  0  0  0  0  0
  -22.0625   -2.7556   23.2914 H   0  0  0  0  0  0
  -22.3969  -12.0259   22.4724 H   0  0  0  0  0  0
  -21.1158  -13.1811   22.2495 H   0  0  0  0  0  0
  -26.4355  -15.4678   20.0205 H   0  0  0  0  0  0
  -24.8308  -15.8100   20.4335 H   0  0  0  0  0  0
  -26.7094  -32.5552   23.1176 H   0  0  0  0  0  0
  -25.0011  -33.9796   25.0468 H   0  0  0  0  0  0
  -22.6900  -31.3058   21.4138 H   0  0  0  0  0  0
  -23.3746  -35.9654   23.3322 H   0  0  0  0  0  0
  -24.3583  -36.8904   22.2049 H   0  0  0  0  0  0
  -23.7244  -37.6529   23.6638 H   0  0  0  0  0  0
  -26.0398  -31.6045   20.5953 H   0  0  0  0  0  0
  -26.8165  -30.8910   21.9820 H   0  0  0  0  0  0
  -28.1080  -29.1218   21.1457 H   0  0  0  0  0  0
  -26.0795  -25.9645   19.0286 H   0  0  0  0  0  0
  -23.9804  -27.2811   19.0506 H   0  0  0  0  0  0
  -23.7161  -30.5929   19.4064 H   0  0  0  0  0  0
  -22.7340  -29.2368   19.8751 H   0  0  0  0  0  0
  -25.1285  -36.1995   25.0834 H   0  0  0  0  0  0
  -20.9943  -28.3216   24.1455 H   0  0  0  0  0  0
  -20.5653  -26.2258   23.3609 H   0  0  0  0  0  0
  -21.6631  -26.7444   22.1227 H   0  0  0  0  0  0
  -19.6908  -25.6300   21.1233 H   0  0  0  0  0  0
  -19.6688  -27.3204   20.6752 H   0  0  0  0  0  0
  -17.4194  -26.6661   21.4019 H   0  0  0  0  0  0
  -18.0316  -26.0063   22.9013 H   0  0  0  0  0  0
  -19.7920  -30.7234   24.2312 H   0  0  0  0  0  0
  -17.5005  -31.6269   24.5148 H   0  0  0  0  0  0
  -15.5340  -30.2994   23.7635 H   0  0  0  0  0  0
  -15.8651  -28.0820   22.7069 H   0  0  0  0  0  0
  -24.5900  -30.7059   25.7812 H   0  0  0  0  0  0
  -24.8923  -32.2861   26.4945 H   0  0  0  0  0  0
  -25.8081  -30.8863   27.0229 H   0  0  0  0  0  0
  -26.2823  -29.6823   24.1136 H   0  0  0  0  0  0
  -27.4045  -29.7272   25.4542 H   0  0  0  0  0  0
  -27.8660  -30.4370   23.9239 H   0  0  0  0  0  0
  -27.2693  -33.3604   26.2095 H   0  0  0  0  0  0
  -28.3832  -32.6893   25.0270 H   0  0  0  0  0  0
  -28.0760  -31.8409   26.5345 H   0  0  0  0  0  0
  -28.2622  -38.0095   24.7492 H   0  0  0  0  0  0
  -28.1059  -36.2629   24.6324 H   0  0  0  0  0  0
  -27.2302  -37.1505   25.8872 H   0  0  0  0  0  0
  -20.9299  -29.8726   21.6949 H   0  0  0  0  0  0
  -26.0198  -38.2879   24.1386 H   0  0  0  0  0  0
  -26.9506  -21.2898   20.8034 H   0  0  0  0  0  0
  -26.6607  -23.6782   21.4429 H   0  0  0  0  0  0
  -30.7815  -22.3643   19.1230 H   0  0  0  0  0  0
  -29.6274  -20.1219   18.5343 H   0  0  0  0  0  0
  -28.1345  -19.7126   19.3321 H   0  0  0  0  0  0
  -29.3806  -25.9614   21.6899 H   0  0  0  0  0  0
  -27.6565  -25.8238   21.8199 H   0  0  0  0  0  0
  -30.4584  -17.3039   22.2526 H   0  0  0  0  0  0
  -31.6048  -17.0879   20.9518 H   0  0  0  0  0  0
  -28.6130  -17.6173   20.4800 H   0  0  0  0  0  0
  -29.8596  -17.5772   19.2530 H   0  0  0  0  0  0
  -29.2711  -15.3217   21.5939 H   0  0  0  0  0  0
  -30.8525  -19.5136   20.3905 H   0  0  0  0  0  0
  -29.5787  -19.5485   21.4026 H   0  0  0  0  0  0
  1 25  1  0  0  0
  1 30  2  0  0  0
  1 81  1  0  0  0
  2  3  1  0  0  0
  2 25  1  0  0  0
  2 83  1  0  0  0
  2 84  1  0  0  0
  3  4  1  0  0  0
  3 85  1  0  0  0
  3 86  1  0  0  0
  4  5  1  0  0  0
  4 87  1  0  0  0
  4 88  1  0  0  0
  5  6  1  0  0  0
  5 26  1  0  0  0
  5 89  1  0  0  0
  6 25  1  0  0  0
  6 90  1  0  0  0
  6 91  1  0  0  0
  7  8  2  0  0  0
  7 26  1  0  0  0
  7 29  1  0  0  0
  8  9  1  0  0  0
  8 22  1  0  0  0
  9 10  1  0  0  0
  9 27  2  0  0  0
 10 11  2  0  0  0
 10 15  1  0  0  0
 11 12  1  0  0  0
 11 92  1  0  0  0
 12 13  2  0  0  0
 12 93  1  0  0  0
 13 14  1  0  0  0
 13 31  1  0  0  0
 14 15  2  0  0  0
 14 94  1  0  0  0
 15 95  1  0  0  0
 16 17  2  0  0  0
 16 21  1  0  0  0
 16 31  1  0  0  0
 17 18  1  0  0  0
 17 96  1  0  0  0
 18 19  2  0  0  0
 18 97  1  0  0  0
 19 20  1  0  0  0
 19 24  1  0  0  0
 20 21  2  0  0  0
 20 98  1  0  0  0
 21 23  1  0  0  0
 22 28  1  0  0  0
 22 32  2  0  0  0
 26 27  1  0  0  0
 28 99  1  0  0  0
 28100  1  0  0  0
 29101  1  0  0  0
 29102  1  0  0  0
 33 34  1  0  0  0
 33 66  1  0  0  0
 33 70  2  0  0  0
 34 36  1  0  0  0
 34 59  1  0  0  0
 34103  1  0  0  0
 35 44  2  0  0  0
 35 45  1  0  0  0
 35 68  1  0  0  0
 36 56  1  0  0  0
 36104  1  0  0  0
 37 39  1  0  0  0
 37 47  1  0  0  0
 37 66  1  0  0  0
 37105  1  0  0  0
 38 43  2  0  0  0
 38 46  1  0  0  0
 38 47  1  0  0  0
 39 64  1  0  0  0
 39 67  2  0  0  0
 40 52  1  0  0  0
 40 53  2  0  0  0
 40 58  1  0  0  0
 41106  1  0  0  0
 41107  1  0  0  0
 41108  1  0  0  0
 41 48  1  0  0  0
 42 43  1  0  0  0
 42 66  1  0  0  0
 42109  1  0  0  0
 42110  1  0  0  0
 43 44  1  0  0  0
 44111  1  0  0  0
 45 46  2  0  0  0
 45112  1  0  0  0
 46113  1  0  0  0
 47114  1  0  0  0
 47115  1  0  0  0
 48 56  1  0  0  0
 48 65  1  0  0  0
 48116  1  0  0  0
 49 50  1  0  0  0
 49 53  1  0  0  0
 49 64  1  0  0  0
 49117  1  0  0  0
 50 51  1  0  0  0
 50118  1  0  0  0
 50119  1  0  0  0
 51 52  1  0  0  0
 51120  1  0  0  0
 51121  1  0  0  0
 52122  1  0  0  0
 52123  1  0  0  0
 53 54  1  0  0  0
 54 55  2  0  0  0
 54124  1  0  0  0
 55 57  1  0  0  0
 55125  1  0  0  0
 56 69  2  0  0  0
 57 58  2  0  0  0
 57126  1  0  0  0
 58127  1  0  0  0
 59 60  1  0  0  0
 59 61  1  0  0  0
 59 62  1  0  0  0
 60128  1  0  0  0
 60129  1  0  0  0
 60130  1  0  0  0
 61131  1  0  0  0
 61132  1  0  0  0
 61133  1  0  0  0
 62134  1  0  0  0
 62135  1  0  0  0
 62136  1  0  0  0
 63 65  1  0  0  0
 63137  1  0  0  0
 63138  1  0  0  0
 63139  1  0  0  0
 64140  1  0  0  0
 65141  1  0  0  0
 68 77  1  0  0  0
 71 72  2  0  0  0
 71 74  1  0  0  0
 71142  1  0  0  0
 72 75  1  0  0  0
 72143  1  0  0  0
 73 74  2  0  0  0
 73 80  1  0  0  0
 73144  1  0  0  0
 74 76  1  0  0  0
 75 77  1  0  0  0
 75 80  2  0  0  0
 76 82  1  0  0  0
 76145  1  0  0  0
 76146  1  0  0  0
 77147  1  0  0  0
 77148  1  0  0  0
 78 79  1  0  0  0
 78 81  1  0  0  0
 78149  1  0  0  0
 78150  1  0  0  0
 79 82  1  0  0  0
 79151  1  0  0  0
 79152  1  0  0  0
 81153  1  0  0  0
 82154  1  0  0  0
 82155  1  0  0  0
M  CHG  1  82   1
M  ISO  4   1 100  68 101  77 101  81 100
M  END
> <chiral flag>
0

> <version>
0

> <s_m_source_file>
/data/baiqing/PycharmProjects/Reinvent-master-3.2/result/LINK_invent/BTK/process_docking_weight1_custom_sum_contain_oxygen_bond_distance_aromatic_linkinvent_7_9_3/rearranged_h_0121.sdf

> <i_m_source_file_index>
97

> <r_mmod_Potential_Energy-OPLS-2005>
-245.117904663086

> <r_mmod_Stretch_Energy-OPLS-2005>
35.3797874450684

> <r_mmod_Bend_Energy-OPLS-2005>
139.929595947266

> <r_mmod_Torsional_Energy-OPLS-2005>
245.791519165039

> <r_mmod_Improper_Torsional_Energy-OPLS-2005>
2.97300267219543

> <r_mmod_Van_der_Waal_Energy-OPLS-2005>
161.665802001953

> <r_mmod_Electrostatic_Energy-OPLS-2005>
-402.293762207031

> <r_mmod_Solvation_Energy-OPLS-2005>
-506.583923339844

> <b_mmod_Minimization_Converged-OPLS-2005>
0

> <r_mmod_RMS_Derivative-OPLS-2005>
1.62032151222229

$$$$
97
                    3D
 Structure written by MMmdl.
161169  0  0  1  0            999 V2000
  -30.6898  -14.4961   20.5464 C   0  0  0  0  0  0
  -30.4293  -12.3119   19.4321 C   0  0  0  0  0  0
  -29.5032  -12.5015   18.2118 C   0  0  0  0  0  0
  -28.0227  -12.3651   18.6208 C   0  0  0  0  0  0
  -27.6651  -13.2075   19.8748 C   0  0  2  0  0  0
  -28.7066  -12.9958   20.9983 C   0  0  0  0  0  0
  -25.2584  -13.8133   20.5600 C   0  0  0  0  0  0
  -24.1859  -13.0424   20.9186 C   0  0  0  0  0  0
  -24.6416  -11.6895   20.8758 C   0  0  0  0  0  0
  -23.9071  -10.4286   21.0420 C   0  0  0  0  0  0
  -24.3620   -9.4199   21.9195 C   0  0  0  0  0  0
  -23.6296   -8.2235   22.0760 C   0  0  0  0  0  0
  -22.4279   -8.0280   21.3546 C   0  0  0  0  0  0
  -21.9915   -9.0258   20.4651 C   0  0  0  0  0  0
  -22.7245  -10.2138   20.3062 C   0  0  0  0  0  0
  -21.6854   -6.0738   22.5282 C   0  0  0  0  0  0
  -21.4012   -6.5640   23.8217 C   0  0  0  0  0  0
  -21.3656   -5.6792   24.9182 C   0  0  0  0  0  0
  -21.6041   -4.3052   24.7228 C   0  0  0  0  0  0
  -21.8821   -3.8142   23.4350 C   0  0  0  0  0  0
  -21.9195   -4.6962   22.3406 C   0  0  0  0  0  0
  -22.7883  -13.5243   21.1827 C   0  0  0  0  0  0
  -22.1665   -4.2148   21.0986 F   0  0  0  0  0  0
  -21.5627   -3.4534   25.7740 F   0  0  0  0  0  0
  -30.0392  -13.3020   20.4501 N   0  0  0  0  0  0
  -26.3049  -12.9320   20.3347 N   0  0  0  0  0  0
  -25.9349  -11.6486   20.5787 N   0  0  0  0  0  0
  -22.0503  -12.8261   22.0387 N   0  0  0  0  0  0
  -25.4209  -15.1825   20.3794 N   0  0  0  0  0  0
  -31.8180  -14.6741   20.0785 O   0  0  0  0  0  0
  -21.6632   -6.8882   21.4245 O   0  0  0  0  0  0
  -22.3583  -14.5546   20.6663 O   0  0  0  0  0  0
  -24.6147  -31.8673   23.2092 C   0  0  0  0  0  0
  -25.9042  -32.4815   23.8385 C   0  0  1  0  0  0
  -27.2265  -27.4201   20.1015 C   0  0  0  0  0  0
  -25.5895  -33.8609   24.2319 N   0  0  0  0  0  0
  -23.4041  -30.4931   21.5484 C   0  0  2  0  0  0
  -24.8510  -28.9595   20.1115 C   0  0  0  0  0  0
  -22.7409  -29.4660   22.4957 C   0  0  0  0  0  0
  -18.0276  -28.1388   22.8498 C   0  0  0  0  0  0
  -24.1486  -36.7316   23.2642 C   0  0  0  0  0  0
  -25.9352  -30.8298   21.3639 C   0  0  0  0  0  0
  -26.0134  -29.4644   20.7096 C   0  0  0  0  0  0
  -27.2085  -28.7043   20.6982 C   0  0  0  0  0  0
  -26.0508  -26.9398   19.4847 C   0  0  0  0  0  0
  -24.8661  -27.6977   19.4946 C   0  0  0  0  0  0
  -23.6135  -29.8280   20.1623 C   0  0  0  0  0  0
  -25.4104  -36.3096   24.0340 C   0  0  1  0  0  0
  -20.5868  -28.3670   23.1313 C   0  0  2  0  0  0
  -20.6762  -26.9405   22.5415 C   0  0  0  0  0  0
  -19.5739  -26.6394   21.5211 C   0  0  0  0  0  0
  -18.1920  -26.7936   22.1629 C   0  0  0  0  0  0
  -19.1529  -28.8846   23.2907 C   0  0  0  0  0  0
  -18.9459  -30.1457   23.8910 C   0  0  0  0  0  0
  -17.6463  -30.6595   24.0573 C   0  0  0  0  0  0
  -25.9039  -34.9463   23.5128 C   0  0  0  0  0  0
  -16.5353  -29.9101   23.6332 C   0  0  0  0  0  0
  -16.7269  -28.6520   23.0349 C   0  0  0  0  0  0
  -26.4470  -31.6599   25.0713 C   0  0  0  0  0  0
  -25.3741  -31.3717   26.1470 C   0  0  0  0  0  0
  -27.0300  -30.3031   24.6098 C   0  0  0  0  0  0
  -27.6036  -32.4322   25.7481 C   0  0  0  0  0  0
  -27.5580  -37.1809   24.8465 C   0  0  0  0  0  0
  -21.4133  -29.3038   22.3710 N   0  0  0  0  0  0
  -26.4290  -37.3777   23.9410 N   0  0  0  0  0  0
  -24.6695  -31.0782   22.0987 N   0  0  0  0  0  0
  -23.4180  -28.8191   23.2991 O   0  0  0  0  0  0
  -28.3576  -26.6271   20.1172 O   0  0  0  0  0  0
  -26.5595  -34.8918   22.4687 O   0  0  0  0  0  0
  -23.5338  -32.1424   23.7490 O   0  0  0  0  0  0
  -30.8151  -17.5350   19.7571 C   0  0  0  0  0  0
  -30.5418  -18.8803   19.8109 C   0  0  0  0  0  0
  -30.0564  -16.9045   20.7870 C   0  0  0  0  0  0
  -29.3540  -17.8903   21.4295 C   0  0  0  0  0  0
  -28.6897  -25.7097   22.3036 C   0  0  0  0  0  0
  -27.3198  -17.1252   22.2680 C   0  0  0  0  0  0
  -29.0558  -20.4105   21.2654 C   0  0  0  0  0  0
  -29.3810  -21.6718   20.4050 C   0  0  0  0  0  0
  -28.9881  -24.1968   20.2395 C   0  0  0  0  0  0
  -28.2196  -25.3990   20.8736 C   0  0  2  0  0  0
  -29.6331  -19.1211   20.8392 N   0  0  0  0  0  0
  -29.9797  -15.5048   21.0948 N   0  0  0  0  0  0
  -28.6858  -22.8928   20.9152 N   0  3  0  0  0  0
  -28.5341  -17.8200   22.5001 O   0  0  0  0  0  0
  -31.4745  -12.4081   19.1321 H   0  0  0  0  0  0
  -30.3325  -11.3027   19.8359 H   0  0  0  0  0  0
  -29.7470  -11.7687   17.4418 H   0  0  0  0  0  0
  -29.6739  -13.4825   17.7649 H   0  0  0  0  0  0
  -27.8336  -11.3092   18.8186 H   0  0  0  0  0  0
  -27.3741  -12.6364   17.7864 H   0  0  0  0  0  0
  -27.7079  -14.2551   19.5752 H   0  0  0  0  0  0
  -28.6851  -11.9611   21.3452 H   0  0  0  0  0  0
  -28.4656  -13.6004   21.8729 H   0  0  0  0  0  0
  -25.2767   -9.5679   22.4767 H   0  0  0  0  0  0
  -24.0004   -7.4628   22.7483 H   0  0  0  0  0  0
  -21.0845   -8.8777   19.8960 H   0  0  0  0  0  0
  -22.3707  -10.9677   19.6164 H   0  0  0  0  0  0
  -21.1998   -7.6146   23.9729 H   0  0  0  0  0  0
  -21.1478   -6.0516   25.9091 H   0  0  0  0  0  0
  -22.0601   -2.7602   23.2849 H   0  0  0  0  0  0
  -22.4094  -11.9926   22.4802 H   0  0  0  0  0  0
  -21.1117  -13.1306   22.2550 H   0  0  0  0  0  0
  -24.6264  -15.8109   20.4226 H   0  0  0  0  0  0
  -26.2309  -15.5939   19.9347 H   0  0  0  0  0  0
  -26.7104  -32.5530   23.1145 H   0  0  0  0  0  0
  -25.0010  -33.9758   25.0439 H   0  0  0  0  0  0
  -22.6947  -31.3116   21.4109 H   0  0  0  0  0  0
  -23.3734  -35.9666   23.3306 H   0  0  0  0  0  0
  -24.3581  -36.8921   22.2054 H   0  0  0  0  0  0
  -23.7258  -37.6531   23.6656 H   0  0  0  0  0  0
  -26.0514  -31.5963   20.5963 H   0  0  0  0  0  0
  -26.8216  -30.8801   21.9845 H   0  0  0  0  0  0
  -28.1041  -29.0875   21.1674 H   0  0  0  0  0  0
  -26.0452  -25.9715   19.0038 H   0  0  0  0  0  0
  -23.9734  -27.3078   19.0236 H   0  0  0  0  0  0
  -23.7238  -30.6046   19.4044 H   0  0  0  0  0  0
  -22.7365  -29.2504   19.8637 H   0  0  0  0  0  0
  -25.1281  -36.1944   25.0832 H   0  0  0  0  0  0
  -20.9986  -28.3237   24.1422 H   0  0  0  0  0  0
  -20.5658  -26.2273   23.3599 H   0  0  0  0  0  0
  -21.6631  -26.7436   22.1212 H   0  0  0  0  0  0
  -19.6883  -25.6305   21.1232 H   0  0  0  0  0  0
  -19.6682  -27.3217   20.6749 H   0  0  0  0  0  0
  -17.4188  -26.6695   21.4032 H   0  0  0  0  0  0
  -18.0327  -26.0081   22.9030 H   0  0  0  0  0  0
  -19.7934  -30.7281   24.2274 H   0  0  0  0  0  0
  -17.5017  -31.6271   24.5183 H   0  0  0  0  0  0
  -15.5355  -30.3008   23.7653 H   0  0  0  0  0  0
  -15.8669  -28.0853   22.7042 H   0  0  0  0  0  0
  -24.5899  -30.7077   25.7818 H   0  0  0  0  0  0
  -24.8962  -32.2887   26.4922 H   0  0  0  0  0  0
  -25.8101  -30.8880   27.0220 H   0  0  0  0  0  0
  -26.2844  -29.6793   24.1154 H   0  0  0  0  0  0
  -27.4062  -29.7258   25.4556 H   0  0  0  0  0  0
  -27.8681  -30.4338   23.9248 H   0  0  0  0  0  0
  -27.2639  -33.3602   26.2092 H   0  0  0  0  0  0
  -28.3835  -32.6916   25.0314 H   0  0  0  0  0  0
  -28.0716  -31.8429   26.5375 H   0  0  0  0  0  0
  -28.2595  -38.0104   24.7501 H   0  0  0  0  0  0
  -28.1073  -36.2634   24.6301 H   0  0  0  0  0  0
  -27.2302  -37.1475   25.8869 H   0  0  0  0  0  0
  -20.9279  -29.8789   21.6969 H   0  0  0  0  0  0
  -26.0172  -38.2852   24.1402 H   0  0  0  0  0  0
  -31.4843  -17.0685   19.0467 H   0  0  0  0  0  0
  -30.9195  -19.6862   19.1955 H   0  0  0  0  0  0
  -28.5890  -24.8466   22.9599 H   0  0  0  0  0  0
  -28.0962  -26.5117   22.7415 H   0  0  0  0  0  0
  -29.7328  -26.0259   22.3167 H   0  0  0  0  0  0
  -27.4889  -16.0660   22.0757 H   0  0  0  0  0  0
  -26.7737  -17.5524   21.4258 H   0  0  0  0  0  0
  -26.6845  -17.2025   23.1501 H   0  0  0  0  0  0
  -27.9738  -20.2768   21.3024 H   0  0  0  0  0  0
  -29.3731  -20.5799   22.2950 H   0  0  0  0  0  0
  -29.0861  -21.5003   19.3683 H   0  0  0  0  0  0
  -30.4571  -21.8478   20.4041 H   0  0  0  0  0  0
  -30.0616  -24.3889   20.2631 H   0  0  0  0  0  0
  -28.7082  -24.1139   19.1884 H   0  0  0  0  0  0
  -27.1694  -25.1068   20.9314 H   0  0  0  0  0  0
  -29.1672  -15.2166   21.6168 H   0  0  0  0  0  0
  -28.9153  -22.9837   21.8929 H   0  0  0  0  0  0
  -27.6925  -22.7236   20.8570 H   0  0  0  0  0  0
  1 25  1  0  0  0
  1 30  2  0  0  0
  1 82  1  0  0  0
  2  3  1  0  0  0
  2 25  1  0  0  0
  2 85  1  0  0  0
  2 86  1  0  0  0
  3  4  1  0  0  0
  3 87  1  0  0  0
  3 88  1  0  0  0
  4  5  1  0  0  0
  4 89  1  0  0  0
  4 90  1  0  0  0
  5  6  1  0  0  0
  5 26  1  0  0  0
  5 91  1  0  0  0
  6 25  1  0  0  0
  6 92  1  0  0  0
  6 93  1  0  0  0
  7  8  2  0  0  0
  7 26  1  0  0  0
  7 29  1  0  0  0
  8  9  1  0  0  0
  8 22  1  0  0  0
  9 10  1  0  0  0
  9 27  2  0  0  0
 10 11  2  0  0  0
 10 15  1  0  0  0
 11 12  1  0  0  0
 11 94  1  0  0  0
 12 13  2  0  0  0
 12 95  1  0  0  0
 13 14  1  0  0  0
 13 31  1  0  0  0
 14 15  2  0  0  0
 14 96  1  0  0  0
 15 97  1  0  0  0
 16 17  2  0  0  0
 16 21  1  0  0  0
 16 31  1  0  0  0
 17 18  1  0  0  0
 17 98  1  0  0  0
 18 19  2  0  0  0
 18 99  1  0  0  0
 19 20  1  0  0  0
 19 24  1  0  0  0
 20 21  2  0  0  0
 20100  1  0  0  0
 21 23  1  0  0  0
 22 28  1  0  0  0
 22 32  2  0  0  0
 26 27  1  0  0  0
 28101  1  0  0  0
 28102  1  0  0  0
 29103  1  0  0  0
 29104  1  0  0  0
 33 34  1  0  0  0
 33 66  1  0  0  0
 33 70  2  0  0  0
 34 36  1  0  0  0
 34 59  1  0  0  0
 34105  1  0  0  0
 35 44  2  0  0  0
 35 45  1  0  0  0
 35 68  1  0  0  0
 36 56  1  0  0  0
 36106  1  0  0  0
 37 39  1  0  0  0
 37 47  1  0  0  0
 37 66  1  0  0  0
 37107  1  0  0  0
 38 43  2  0  0  0
 38 46  1  0  0  0
 38 47  1  0  0  0
 39 64  1  0  0  0
 39 67  2  0  0  0
 40 52  1  0  0  0
 40 53  2  0  0  0
 40 58  1  0  0  0
 41108  1  0  0  0
 41109  1  0  0  0
 41110  1  0  0  0
 41 48  1  0  0  0
 42 43  1  0  0  0
 42 66  1  0  0  0
 42111  1  0  0  0
 42112  1  0  0  0
 43 44  1  0  0  0
 44113  1  0  0  0
 45 46  2  0  0  0
 45114  1  0  0  0
 46115  1  0  0  0
 47116  1  0  0  0
 47117  1  0  0  0
 48 56  1  0  0  0
 48 65  1  0  0  0
 48118  1  0  0  0
 49 50  1  0  0  0
 49 53  1  0  0  0
 49 64  1  0  0  0
 49119  1  0  0  0
 50 51  1  0  0  0
 50120  1  0  0  0
 50121  1  0  0  0
 51 52  1  0  0  0
 51122  1  0  0  0
 51123  1  0  0  0
 52124  1  0  0  0
 52125  1  0  0  0
 53 54  1  0  0  0
 54 55  2  0  0  0
 54126  1  0  0  0
 55 57  1  0  0  0
 55127  1  0  0  0
 56 69  2  0  0  0
 57 58  2  0  0  0
 57128  1  0  0  0
 58129  1  0  0  0
 59 60  1  0  0  0
 59 61  1  0  0  0
 59 62  1  0  0  0
 60130  1  0  0  0
 60131  1  0  0  0
 60132  1  0  0  0
 61133  1  0  0  0
 61134  1  0  0  0
 61135  1  0  0  0
 62136  1  0  0  0
 62137  1  0  0  0
 62138  1  0  0  0
 63 65  1  0  0  0
 63139  1  0  0  0
 63140  1  0  0  0
 63141  1  0  0  0
 64142  1  0  0  0
 65143  1  0  0  0
 68 80  1  0  0  0
 71 72  2  0  0  0
 71 73  1  0  0  0
 71144  1  0  0  0
 72 81  1  0  0  0
 72145  1  0  0  0
 73 74  2  0  0  0
 73 82  1  0  0  0
 74 81  1  0  0  0
 74 84  1  0  0  0
 75146  1  0  0  0
 75147  1  0  0  0
 75148  1  0  0  0
 75 80  1  0  0  0
 76 84  1  0  0  0
 76149  1  0  0  0
 76150  1  0  0  0
 76151  1  0  0  0
 77 78  1  0  0  0
 77 81  1  0  0  0
 77152  1  0  0  0
 77153  1  0  0  0
 78 83  1  0  0  0
 78154  1  0  0  0
 78155  1  0  0  0
 79 80  1  0  0  0
 79 83  1  0  0  0
 79156  1  0  0  0
 79157  1  0  0  0
 80158  1  0  0  0
 82159  1  0  0  0
 83160  1  0  0  0
 83161  1  0  0  0
M  CHG  1  83   1
M  ISO  4   1 100  68 101  80 101  82 100
M  END
> <chiral flag>
0

> <version>
0

> <s_m_source_file>
/data/baiqing/PycharmProjects/Reinvent-master-3.2/result/LINK_invent/BTK/process_docking_weight1_custom_sum_contain_oxygen_bond_distance_aromatic_linkinvent_7_9_3/rearranged_h_0121.sdf

> <i_m_source_file_index>
98

> <r_mmod_Potential_Energy-OPLS-2005>
-236.49006652832

> <r_mmod_Stretch_Energy-OPLS-2005>
41.369213104248

> <r_mmod_Bend_Energy-OPLS-2005>
107.176086425781

> <r_mmod_Torsional_Energy-OPLS-2005>
269.058013916016

> <r_mmod_Improper_Torsional_Energy-OPLS-2005>
4.31769847869873

> <r_mmod_Van_der_Waal_Energy-OPLS-2005>
120.879188537598

> <r_mmod_Electrostatic_Energy-OPLS-2005>
-321.711730957031

> <r_mmod_Solvation_Energy-OPLS-2005>
-473.788665771484

> <b_mmod_Minimization_Converged-OPLS-2005>
0

> <r_mmod_RMS_Derivative-OPLS-2005>
1.48129951953888

$$$$
