0
                    3D
 Structure written by MMmdl.
163171  0  0  1  0            999 V2000
  -30.5990  -14.7721   20.5355 C   0  0  0  0  0  0
  -30.4542  -12.4920   19.4726 C   0  0  0  0  0  0
  -29.5198  -12.5304   18.2389 C   0  0  0  0  0  0
  -28.0414  -12.3516   18.6426 C   0  0  0  0  0  0
  -27.6496  -13.2190   19.8669 C   0  0  2  0  0  0
  -28.6999  -13.0573   20.9852 C   0  0  0  0  0  0
  -25.2523  -13.8168   20.5713 C   0  0  0  0  0  0
  -24.1807  -13.0411   20.9237 C   0  0  0  0  0  0
  -24.6411  -11.6896   20.8775 C   0  0  0  0  0  0
  -23.9081  -10.4277   21.0427 C   0  0  0  0  0  0
  -24.3625   -9.4187   21.9198 C   0  0  0  0  0  0
  -23.6308   -8.2219   22.0743 C   0  0  0  0  0  0
  -22.4289   -8.0268   21.3534 C   0  0  0  0  0  0
  -21.9935   -9.0247   20.4634 C   0  0  0  0  0  0
  -22.7259  -10.2132   20.3066 C   0  0  0  0  0  0
  -21.6839   -6.0748   22.5289 C   0  0  0  0  0  0
  -21.3998   -6.5652   23.8236 C   0  0  0  0  0  0
  -21.3672   -5.6795   24.9192 C   0  0  0  0  0  0
  -21.6056   -4.3061   24.7232 C   0  0  0  0  0  0
  -21.8819   -3.8155   23.4349 C   0  0  0  0  0  0
  -21.9197   -4.6977   22.3412 C   0  0  0  0  0  0
  -22.7825  -13.5191   21.1879 C   0  0  0  0  0  0
  -22.1643   -4.2172   21.0980 F   0  0  0  0  0  0
  -21.5653   -3.4542   25.7737 F   0  0  0  0  0  0
  -29.9870  -13.5261   20.4364 N   0  0  0  0  0  0
  -26.2958  -12.9352   20.3338 N   0  0  0  0  0  0
  -25.9329  -11.6505   20.5786 N   0  0  0  0  0  0
  -22.0457  -12.8196   22.0443 N   0  0  0  0  0  0
  -25.4142  -15.1897   20.4110 N   0  0  0  0  0  0
  -31.7507  -14.8830   20.0959 O   0  0  0  0  0  0
  -21.6628   -6.8879   21.4246 O   0  0  0  0  0  0
  -22.3509  -14.5494   20.6724 O   0  0  0  0  0  0
  -24.6343  -31.8523   23.1947 C   0  0  0  0  0  0
  -25.9166  -32.4726   23.8297 C   0  0  1  0  0  0
  -27.2333  -27.2484   20.1215 C   0  0  0  0  0  0
  -25.5950  -33.8526   24.2227 N   0  0  0  0  0  0
  -23.4322  -30.4721   21.5380 C   0  0  2  0  0  0
  -24.8808  -28.9143   20.1079 C   0  0  0  0  0  0
  -22.7525  -29.4586   22.4904 C   0  0  0  0  0  0
  -18.0301  -28.1384   22.8485 C   0  0  0  0  0  0
  -24.1489  -36.7278   23.2638 C   0  0  0  0  0  0
  -25.9784  -30.7561   21.3787 C   0  0  0  0  0  0
  -26.0491  -29.3763   20.7244 C   0  0  0  0  0  0
  -27.2216  -28.5522   20.7281 C   0  0  0  0  0  0
  -26.0372  -26.8584   19.4713 C   0  0  0  0  0  0
  -24.8796  -27.6625   19.4732 C   0  0  0  0  0  0
  -23.6511  -29.8010   20.1555 C   0  0  0  0  0  0
  -25.4117  -36.3050   24.0318 C   0  0  1  0  0  0
  -20.5909  -28.3706   23.1262 C   0  0  2  0  0  0
  -20.6794  -26.9418   22.5413 C   0  0  0  0  0  0
  -19.5755  -26.6381   21.5224 C   0  0  0  0  0  0
  -18.1937  -26.7929   22.1629 C   0  0  0  0  0  0
  -19.1555  -28.8861   23.2868 C   0  0  0  0  0  0
  -18.9473  -30.1466   23.8886 C   0  0  0  0  0  0
  -17.6467  -30.6581   24.0564 C   0  0  0  0  0  0
  -25.9062  -34.9422   23.5073 C   0  0  0  0  0  0
  -16.5362  -29.9075   23.6327 C   0  0  0  0  0  0
  -16.7291  -28.6495   23.0353 C   0  0  0  0  0  0
  -26.4521  -31.6559   25.0702 C   0  0  0  0  0  0
  -25.3750  -31.3713   26.1432 C   0  0  0  0  0  0
  -27.0371  -30.2974   24.6196 C   0  0  0  0  0  0
  -27.6055  -32.4317   25.7491 C   0  0  0  0  0  0
  -27.5577  -37.1791   24.8467 C   0  0  0  0  0  0
  -21.4232  -29.3039   22.3647 N   0  0  0  0  0  0
  -26.4289  -37.3758   23.9403 N   0  0  0  0  0  0
  -24.7004  -31.0477   22.0923 N   0  0  0  0  0  0
  -23.4221  -28.8141   23.3018 O   0  0  0  0  0  0
  -28.3458  -26.3690   20.1928 O   0  0  0  0  0  0
  -26.5643  -34.8914   22.4644 O   0  0  0  0  0  0
  -23.5489  -32.1364   23.7217 O   0  0  0  0  0  0
  -27.2189  -19.8880   19.2667 C   0  0  0  0  0  0
  -28.1078  -17.3470   19.0098 C   0  0  0  0  0  0
  -28.4860  -19.6352   19.8472 C   0  0  0  0  0  0
  -28.9111  -18.2117   19.7896 C   0  0  0  0  0  0
  -26.5214  -18.9209   18.5377 C   0  0  0  0  0  0
  -25.2193  -19.2619   17.8455 C   0  0  0  0  0  0
  -29.9722  -22.4827   18.5588 C   0  0  0  0  0  0
  -28.9258  -15.9632   21.9894 C   0  0  0  0  0  0
  -29.1443  -20.9573   20.4632 C   0  0  0  0  0  0
  -30.1205  -17.4037   20.4354 C   0  0  0  0  0  0
  -28.8361  -23.8491   20.4307 C   0  0  0  0  0  0
  -28.9273  -22.3991   19.6831 C   0  0  1  0  0  0
  -26.9652  -17.6701   18.3882 N   0  0  0  0  0  0
  -28.1325  -24.9470   19.6535 N   0  0  0  0  0  0
  -29.8583  -15.9338   20.8536 N   0  0  0  0  0  0
  -31.4880  -12.6447   19.1582 H   0  0  0  0  0  0
  -30.4448  -11.5033   19.9332 H   0  0  0  0  0  0
  -29.8076  -11.7514   17.5315 H   0  0  0  0  0  0
  -29.6446  -13.4816   17.7198 H   0  0  0  0  0  0
  -27.8873  -11.2976   18.8800 H   0  0  0  0  0  0
  -27.3866  -12.5718   17.7993 H   0  0  0  0  0  0
  -27.6627  -14.2557   19.5366 H   0  0  0  0  0  0
  -28.7714  -12.0035   21.2648 H   0  0  0  0  0  0
  -28.4001  -13.5354   21.9106 H   0  0  0  0  0  0
  -25.2765   -9.5679   22.4774 H   0  0  0  0  0  0
  -24.0033   -7.4610   22.7464 H   0  0  0  0  0  0
  -21.0866   -8.8771   19.8938 H   0  0  0  0  0  0
  -22.3715  -10.9678   19.6181 H   0  0  0  0  0  0
  -21.1952   -7.6147   23.9755 H   0  0  0  0  0  0
  -21.1498   -6.0503   25.9104 H   0  0  0  0  0  0
  -22.0599   -2.7617   23.2835 H   0  0  0  0  0  0
  -22.4030  -11.9824   22.4797 H   0  0  0  0  0  0
  -21.1086  -13.1250   22.2664 H   0  0  0  0  0  0
  -24.6382  -15.8321   20.5256 H   0  0  0  0  0  0
  -26.2307  -15.6383   20.0151 H   0  0  0  0  0  0
  -26.7232  -32.5375   23.1032 H   0  0  0  0  0  0
  -25.0105  -33.9631   25.0382 H   0  0  0  0  0  0
  -22.7304  -31.2949   21.3866 H   0  0  0  0  0  0
  -23.3742  -35.9620   23.3299 H   0  0  0  0  0  0
  -24.3585  -36.8910   22.2055 H   0  0  0  0  0  0
  -23.7255  -37.6478   23.6676 H   0  0  0  0  0  0
  -26.1231  -31.5081   20.6024 H   0  0  0  0  0  0
  -26.8550  -30.8065   22.0128 H   0  0  0  0  0  0
  -28.1129  -28.8990   21.2319 H   0  0  0  0  0  0
  -25.9597  -25.9084   18.9655 H   0  0  0  0  0  0
  -23.9876  -27.3008   18.9799 H   0  0  0  0  0  0
  -23.7743  -30.5724   19.3945 H   0  0  0  0  0  0
  -22.7710  -29.2291   19.8553 H   0  0  0  0  0  0
  -25.1297  -36.1882   25.0812 H   0  0  0  0  0  0
  -21.0001  -28.3281   24.1381 H   0  0  0  0  0  0
  -20.5706  -26.2314   23.3625 H   0  0  0  0  0  0
  -21.6660  -26.7437   22.1193 H   0  0  0  0  0  0
  -19.6919  -25.6289   21.1250 H   0  0  0  0  0  0
  -19.6686  -27.3199   20.6755 H   0  0  0  0  0  0
  -17.4222  -26.6700   21.4022 H   0  0  0  0  0  0
  -18.0313  -26.0069   22.9012 H   0  0  0  0  0  0
  -19.7951  -30.7289   24.2250 H   0  0  0  0  0  0
  -17.5019  -31.6261   24.5163 H   0  0  0  0  0  0
  -15.5361  -30.2970   23.7648 H   0  0  0  0  0  0
  -15.8703  -28.0806   22.7063 H   0  0  0  0  0  0
  -24.5923  -30.7056   25.7778 H   0  0  0  0  0  0
  -24.8951  -32.2882   26.4859 H   0  0  0  0  0  0
  -25.8082  -30.8901   27.0210 H   0  0  0  0  0  0
  -26.2949  -29.6709   24.1238 H   0  0  0  0  0  0
  -27.4075  -29.7244   25.4704 H   0  0  0  0  0  0
  -27.8818  -30.4245   23.9424 H   0  0  0  0  0  0
  -27.2635  -33.3621   26.2037 H   0  0  0  0  0  0
  -28.3886  -32.6874   25.0342 H   0  0  0  0  0  0
  -28.0707  -31.8477   26.5442 H   0  0  0  0  0  0
  -28.2584  -38.0097   24.7509 H   0  0  0  0  0  0
  -28.1077  -36.2623   24.6287 H   0  0  0  0  0  0
  -27.2301  -37.1440   25.8873 H   0  0  0  0  0  0
  -20.9445  -29.8741   21.6821 H   0  0  0  0  0  0
  -26.0155  -38.2827   24.1399 H   0  0  0  0  0  0
  -26.7328  -20.8443   19.3582 H   0  0  0  0  0  0
  -28.3838  -16.3129   18.8730 H   0  0  0  0  0  0
  -25.0684  -20.3409   17.8119 H   0  0  0  0  0  0
  -24.3722  -18.8141   18.3655 H   0  0  0  0  0  0
  -25.2282  -18.9006   16.8175 H   0  0  0  0  0  0
  -29.9679  -21.5766   17.9500 H   0  0  0  0  0  0
  -30.9785  -22.6075   18.9584 H   0  0  0  0  0  0
  -29.7699  -23.3213   17.8922 H   0  0  0  0  0  0
  -28.7803  -16.9656   22.3998 H   0  0  0  0  0  0
  -29.2966  -15.3502   22.8129 H   0  0  0  0  0  0
  -27.9331  -15.6254   21.6968 H   0  0  0  0  0  0
  -30.2071  -20.7763   20.6200 H   0  0  0  0  0  0
  -28.7291  -21.0568   21.4661 H   0  0  0  0  0  0
  -30.9454  -17.4210   19.7219 H   0  0  0  0  0  0
  -30.4814  -17.9617   21.3017 H   0  0  0  0  0  0
  -29.8412  -24.1823   20.6927 H   0  0  0  0  0  0
  -28.3017  -23.7327   21.3748 H   0  0  0  0  0  0
  -27.9733  -22.3682   19.1739 H   0  0  0  0  0  0
  -27.1302  -24.7865   19.6904 H   0  0  0  0  0  0
  1 25  1  0  0  0
  1 30  2  0  0  0
  1 85  1  0  0  0
  2  3  1  0  0  0
  2 25  1  0  0  0
  2 86  1  0  0  0
  2 87  1  0  0  0
  3  4  1  0  0  0
  3 88  1  0  0  0
  3 89  1  0  0  0
  4  5  1  0  0  0
  4 90  1  0  0  0
  4 91  1  0  0  0
  5  6  1  0  0  0
  5 26  1  0  0  0
  5 92  1  0  0  0
  6 25  1  0  0  0
  6 93  1  0  0  0
  6 94  1  0  0  0
  7  8  2  0  0  0
  7 26  1  0  0  0
  7 29  1  0  0  0
  8  9  1  0  0  0
  8 22  1  0  0  0
  9 10  1  0  0  0
  9 27  2  0  0  0
 10 11  2  0  0  0
 10 15  1  0  0  0
 11 12  1  0  0  0
 11 95  1  0  0  0
 12 13  2  0  0  0
 12 96  1  0  0  0
 13 14  1  0  0  0
 13 31  1  0  0  0
 14 15  2  0  0  0
 14 97  1  0  0  0
 15 98  1  0  0  0
 16 17  2  0  0  0
 16 21  1  0  0  0
 16 31  1  0  0  0
 17 18  1  0  0  0
 17 99  1  0  0  0
 18 19  2  0  0  0
 18100  1  0  0  0
 19 20  1  0  0  0
 19 24  1  0  0  0
 20 21  2  0  0  0
 20101  1  0  0  0
 21 23  1  0  0  0
 22 28  1  0  0  0
 22 32  2  0  0  0
 26 27  1  0  0  0
 28102  1  0  0  0
 28103  1  0  0  0
 29104  1  0  0  0
 29105  1  0  0  0
 33 34  1  0  0  0
 33 66  1  0  0  0
 33 70  2  0  0  0
 34 36  1  0  0  0
 34 59  1  0  0  0
 34106  1  0  0  0
 35 44  2  0  0  0
 35 45  1  0  0  0
 35 68  1  0  0  0
 36 56  1  0  0  0
 36107  1  0  0  0
 37 39  1  0  0  0
 37 47  1  0  0  0
 37 66  1  0  0  0
 37108  1  0  0  0
 38 43  2  0  0  0
 38 46  1  0  0  0
 38 47  1  0  0  0
 39 64  1  0  0  0
 39 67  2  0  0  0
 40 52  1  0  0  0
 40 53  2  0  0  0
 40 58  1  0  0  0
 41109  1  0  0  0
 41110  1  0  0  0
 41111  1  0  0  0
 41 48  1  0  0  0
 42 43  1  0  0  0
 42 66  1  0  0  0
 42112  1  0  0  0
 42113  1  0  0  0
 43 44  1  0  0  0
 44114  1  0  0  0
 45 46  2  0  0  0
 45115  1  0  0  0
 46116  1  0  0  0
 47117  1  0  0  0
 47118  1  0  0  0
 48 56  1  0  0  0
 48 65  1  0  0  0
 48119  1  0  0  0
 49 50  1  0  0  0
 49 53  1  0  0  0
 49 64  1  0  0  0
 49120  1  0  0  0
 50 51  1  0  0  0
 50121  1  0  0  0
 50122  1  0  0  0
 51 52  1  0  0  0
 51123  1  0  0  0
 51124  1  0  0  0
 52125  1  0  0  0
 52126  1  0  0  0
 53 54  1  0  0  0
 54 55  2  0  0  0
 54127  1  0  0  0
 55 57  1  0  0  0
 55128  1  0  0  0
 56 69  2  0  0  0
 57 58  2  0  0  0
 57129  1  0  0  0
 58130  1  0  0  0
 59 60  1  0  0  0
 59 61  1  0  0  0
 59 62  1  0  0  0
 60131  1  0  0  0
 60132  1  0  0  0
 60133  1  0  0  0
 61134  1  0  0  0
 61135  1  0  0  0
 61136  1  0  0  0
 62137  1  0  0  0
 62138  1  0  0  0
 62139  1  0  0  0
 63 65  1  0  0  0
 63140  1  0  0  0
 63141  1  0  0  0
 63142  1  0  0  0
 64143  1  0  0  0
 65144  1  0  0  0
 68 84  1  0  0  0
 71 73  2  0  0  0
 71 75  1  0  0  0
 71145  1  0  0  0
 72 74  2  0  0  0
 72 83  1  0  0  0
 72146  1  0  0  0
 73 74  1  0  0  0
 73 79  1  0  0  0
 74 80  1  0  0  0
 75 76  1  0  0  0
 75 83  2  0  0  0
 76147  1  0  0  0
 76148  1  0  0  0
 76149  1  0  0  0
 77150  1  0  0  0
 77151  1  0  0  0
 77152  1  0  0  0
 77 82  1  0  0  0
 78 85  1  0  0  0
 78153  1  0  0  0
 78154  1  0  0  0
 78155  1  0  0  0
 79 82  1  0  0  0
 79156  1  0  0  0
 79157  1  0  0  0
 80 85  1  0  0  0
 80158  1  0  0  0
 80159  1  0  0  0
 81 82  1  0  0  0
 81 84  1  0  0  0
 81160  1  0  0  0
 81161  1  0  0  0
 82162  1  0  0  0
 84163  1  0  0  0
M  ISO  4   1 100  68 101  84 101  85 100
M  END
> <chiral flag>
0

> <version>
0

> <s_m_source_file>
/data/baiqing/PycharmProjects/Reinvent-master-3.2/result/LINK_invent/BTK/process_docking_weight1_custom_sum_contain_oxygen_bond_distance_aromatic_linkinvent_7_9_3/rearranged_h_0085.sdf

> <i_m_source_file_index>
1

> <r_mmod_Potential_Energy-OPLS-2005>
264.480224609375

> <r_mmod_Stretch_Energy-OPLS-2005>
163.079177856445

> <r_mmod_Bend_Energy-OPLS-2005>
225.616134643555

> <r_mmod_Torsional_Energy-OPLS-2005>
261.219116210938

> <r_mmod_Improper_Torsional_Energy-OPLS-2005>
7.72026777267456

> <r_mmod_Van_der_Waal_Energy-OPLS-2005>
156.999572753906

> <r_mmod_Electrostatic_Energy-OPLS-2005>
-424.474914550781

> <r_mmod_Solvation_Energy-OPLS-2005>
-212.966812133789

> <b_mmod_Minimization_Converged-OPLS-2005>
0

> <r_mmod_RMS_Derivative-OPLS-2005>
2.52002120018005

$$$$
1
                    3D
 Structure written by MMmdl.
173181  0  0  1  0            999 V2000
  -30.6641  -14.5077   20.5209 C   0  0  0  0  0  0
  -30.4258  -12.3095   19.4401 C   0  0  0  0  0  0
  -29.5093  -12.5206   18.2158 C   0  0  0  0  0  0
  -28.0268  -12.3755   18.6113 C   0  0  0  0  0  0
  -27.6633  -13.2083   19.8682 C   0  0  2  0  0  0
  -28.7009  -13.0013   20.9991 C   0  0  0  0  0  0
  -25.2594  -13.8169   20.5674 C   0  0  0  0  0  0
  -24.1860  -13.0420   20.9185 C   0  0  0  0  0  0
  -24.6420  -11.6915   20.8724 C   0  0  0  0  0  0
  -23.9074  -10.4297   21.0409 C   0  0  0  0  0  0
  -24.3638   -9.4224   21.9183 C   0  0  0  0  0  0
  -23.6328   -8.2247   22.0740 C   0  0  0  0  0  0
  -22.4297   -8.0280   21.3552 C   0  0  0  0  0  0
  -21.9939   -9.0242   20.4640 C   0  0  0  0  0  0
  -22.7243  -10.2135   20.3056 C   0  0  0  0  0  0
  -21.6846   -6.0757   22.5304 C   0  0  0  0  0  0
  -21.3984   -6.5648   23.8239 C   0  0  0  0  0  0
  -21.3689   -5.6789   24.9196 C   0  0  0  0  0  0
  -21.6045   -4.3049   24.7230 C   0  0  0  0  0  0
  -21.8817   -3.8161   23.4340 C   0  0  0  0  0  0
  -21.9186   -4.6989   22.3415 C   0  0  0  0  0  0
  -22.7882  -13.5235   21.1887 C   0  0  0  0  0  0
  -22.1655   -4.2192   21.0987 F   0  0  0  0  0  0
  -21.5669   -3.4533   25.7747 F   0  0  0  0  0  0
  -30.0421  -13.2973   20.4621 N   0  0  0  0  0  0
  -26.3022  -12.9335   20.3279 N   0  0  0  0  0  0
  -25.9333  -11.6497   20.5681 N   0  0  0  0  0  0
  -22.0492  -12.8218   22.0413 N   0  0  0  0  0  0
  -25.4221  -15.1889   20.4148 N   0  0  0  0  0  0
  -31.7723  -14.7176   20.0194 O   0  0  0  0  0  0
  -21.6630   -6.8897   21.4269 O   0  0  0  0  0  0
  -22.3583  -14.5557   20.6769 O   0  0  0  0  0  0
  -24.6148  -31.8676   23.2155 C   0  0  0  0  0  0
  -25.9063  -32.4811   23.8450 C   0  0  1  0  0  0
  -27.2536  -27.4420   20.1056 C   0  0  0  0  0  0
  -25.5936  -33.8622   24.2390 N   0  0  0  0  0  0
  -23.4032  -30.4931   21.5469 C   0  0  2  0  0  0
  -24.8607  -28.9480   20.1228 C   0  0  0  0  0  0
  -22.7429  -29.4677   22.4979 C   0  0  0  0  0  0
  -18.0318  -28.1353   22.8546 C   0  0  0  0  0  0
  -24.1479  -36.7299   23.2653 C   0  0  0  0  0  0
  -25.9322  -30.8319   21.3704 C   0  0  0  0  0  0
  -26.0162  -29.4624   20.7271 C   0  0  0  0  0  0
  -27.2173  -28.7158   20.7178 C   0  0  0  0  0  0
  -26.0859  -26.9365   19.4985 C   0  0  0  0  0  0
  -24.8890  -27.6839   19.5071 C   0  0  0  0  0  0
  -23.6220  -29.8199   20.1626 C   0  0  0  0  0  0
  -25.4077  -36.3107   24.0369 C   0  0  1  0  0  0
  -20.5907  -28.3657   23.1339 C   0  0  2  0  0  0
  -20.6789  -26.9386   22.5446 C   0  0  0  0  0  0
  -19.5763  -26.6398   21.5230 C   0  0  0  0  0  0
  -18.1954  -26.7929   22.1647 C   0  0  0  0  0  0
  -19.1570  -28.8829   23.2949 C   0  0  0  0  0  0
  -18.9485  -30.1445   23.8932 C   0  0  0  0  0  0
  -17.6489  -30.6591   24.0565 C   0  0  0  0  0  0
  -25.9033  -34.9480   23.5174 C   0  0  0  0  0  0
  -16.5383  -29.9098   23.6288 C   0  0  0  0  0  0
  -16.7323  -28.6493   23.0376 C   0  0  0  0  0  0
  -26.4552  -31.6546   25.0740 C   0  0  0  0  0  0
  -25.3916  -31.3533   26.1568 C   0  0  0  0  0  0
  -27.0401  -30.3015   24.6024 C   0  0  0  0  0  0
  -27.6171  -32.4255   25.7468 C   0  0  0  0  0  0
  -27.5558  -37.1786   24.8502 C   0  0  0  0  0  0
  -21.4173  -29.3003   22.3711 N   0  0  0  0  0  0
  -26.4279  -37.3758   23.9447 N   0  0  0  0  0  0
  -24.6666  -31.0810   22.1016 N   0  0  0  0  0  0
  -23.4205  -28.8244   23.3045 O   0  0  0  0  0  0
  -28.4257  -26.7208   20.0559 O   0  0  0  0  0  0
  -26.5619  -34.8953   22.4743 O   0  0  0  0  0  0
  -23.5367  -32.1451   23.7570 O   0  0  0  0  0  0
  -29.4838  -20.6334   20.8096 C   0  0  0  0  0  0
  -28.5207  -21.6594   20.5988 C   0  0  0  0  0  0
  -27.3666  -21.3270   19.8389 C   0  0  0  0  0  0
  -29.2921  -19.3462   20.2492 C   0  0  0  0  0  0
  -27.3189  -20.0596   19.2140 C   0  0  0  0  0  0
  -26.1580  -22.2634   19.7369 C   0  0  0  0  0  0
  -26.1602  -19.6411   18.3218 C   0  0  0  0  0  0
  -32.8745  -17.4933   18.0606 C   0  0  0  0  0  0
  -32.5018  -19.9361   18.4847 C   0  0  0  0  0  0
  -28.6975  -23.0421   21.2561 C   0  0  0  0  0  0
  -28.6890  -24.2549   20.2744 C   0  0  0  0  0  0
  -31.6584  -18.2489   20.2085 C   0  0  0  0  0  0
  -29.5500  -16.7371   20.2109 C   0  0  0  0  0  0
  -28.5269  -25.6257   20.9787 C   0  0  0  0  0  0
  -30.1720  -18.1158   20.6395 C   0  0  2  0  0  0
  -31.9296  -18.5257   18.7044 C   0  0  0  0  0  0
  -28.2654  -19.1164   19.3984 N   0  0  0  0  0  0
  -29.8916  -15.5128   20.9717 N   0  0  0  0  0  0
  -31.4728  -12.4031   19.1493 H   0  0  0  0  0  0
  -30.3136  -11.2971   19.8314 H   0  0  0  0  0  0
  -29.7662  -11.8124   17.4270 H   0  0  0  0  0  0
  -29.6854  -13.5126   17.7937 H   0  0  0  0  0  0
  -27.8303  -11.3200   18.7950 H   0  0  0  0  0  0
  -27.3850  -12.6535   17.7747 H   0  0  0  0  0  0
  -27.6977  -14.2526   19.5635 H   0  0  0  0  0  0
  -28.6680  -11.9717   21.3595 H   0  0  0  0  0  0
  -28.4548  -13.6233   21.8597 H   0  0  0  0  0  0
  -25.2788   -9.5704   22.4743 H   0  0  0  0  0  0
  -24.0073   -7.4626   22.7423 H   0  0  0  0  0  0
  -21.0885   -8.8713   19.8936 H   0  0  0  0  0  0
  -22.3680  -10.9666   19.6162 H   0  0  0  0  0  0
  -21.1921   -7.6146   23.9775 H   0  0  0  0  0  0
  -21.1538   -6.0497   25.9116 H   0  0  0  0  0  0
  -22.0579   -2.7626   23.2809 H   0  0  0  0  0  0
  -22.4053  -11.9866   22.4820 H   0  0  0  0  0  0
  -21.1109  -13.1292   22.2593 H   0  0  0  0  0  0
  -24.6446  -15.8289   20.5355 H   0  0  0  0  0  0
  -26.2696  -15.6508   20.1118 H   0  0  0  0  0  0
  -26.7113  -32.5585   23.1211 H   0  0  0  0  0  0
  -25.0095  -33.9737   25.0540 H   0  0  0  0  0  0
  -22.6891  -31.3070   21.4013 H   0  0  0  0  0  0
  -23.3773  -35.9611   23.3351 H   0  0  0  0  0  0
  -24.3573  -36.8885   22.2066 H   0  0  0  0  0  0
  -23.7234  -37.6503   23.6666 H   0  0  0  0  0  0
  -26.0507  -31.5857   20.5906 H   0  0  0  0  0  0
  -26.8125  -30.8870   22.0005 H   0  0  0  0  0  0
  -28.1173  -29.1100   21.1694 H   0  0  0  0  0  0
  -26.1130  -25.9730   19.0079 H   0  0  0  0  0  0
  -24.0005  -27.2878   19.0398 H   0  0  0  0  0  0
  -23.7482  -30.5925   19.4040 H   0  0  0  0  0  0
  -22.7442  -29.2492   19.8556 H   0  0  0  0  0  0
  -25.1200  -36.1948   25.0847 H   0  0  0  0  0  0
  -21.0004  -28.3288   24.1465 H   0  0  0  0  0  0
  -20.5661  -26.2268   23.3643 H   0  0  0  0  0  0
  -21.6638  -26.7415   22.1199 H   0  0  0  0  0  0
  -19.6870  -25.6312   21.1234 H   0  0  0  0  0  0
  -19.6679  -27.3248   20.6785 H   0  0  0  0  0  0
  -17.4175  -26.6773   21.4090 H   0  0  0  0  0  0
  -18.0350  -25.9987   22.8946 H   0  0  0  0  0  0
  -19.7963  -30.7279   24.2277 H   0  0  0  0  0  0
  -17.5042  -31.6235   24.5238 H   0  0  0  0  0  0
  -15.5390  -30.3022   23.7540 H   0  0  0  0  0  0
  -15.8735  -28.0813   22.7076 H   0  0  0  0  0  0
  -24.6140  -30.6774   25.7957 H   0  0  0  0  0  0
  -24.9080  -32.2631   26.5127 H   0  0  0  0  0  0
  -25.8410  -30.8692   27.0251 H   0  0  0  0  0  0
  -26.2885  -29.6744   24.1203 H   0  0  0  0  0  0
  -27.4376  -29.7225   25.4365 H   0  0  0  0  0  0
  -27.8649  -30.4379   23.9030 H   0  0  0  0  0  0
  -27.2824  -33.3561   26.2052 H   0  0  0  0  0  0
  -28.3975  -32.6756   25.0271 H   0  0  0  0  0  0
  -28.0867  -31.8370   26.5359 H   0  0  0  0  0  0
  -28.2550  -38.0091   24.7475 H   0  0  0  0  0  0
  -28.1044  -36.2606   24.6349 H   0  0  0  0  0  0
  -27.2308  -37.1453   25.8917 H   0  0  0  0  0  0
  -20.9383  -29.8720   21.6902 H   0  0  0  0  0  0
  -26.0190  -38.2835   24.1460 H   0  0  0  0  0  0
  -30.3428  -20.8133   21.4418 H   0  0  0  0  0  0
  -26.1574  -23.0434   20.4954 H   0  0  0  0  0  0
  -25.2349  -21.7088   19.9011 H   0  0  0  0  0  0
  -26.0851  -22.7457   18.7614 H   0  0  0  0  0  0
  -25.3238  -19.2912   18.9268 H   0  0  0  0  0  0
  -26.4384  -18.8377   17.6405 H   0  0  0  0  0  0
  -25.8141  -20.4765   17.7131 H   0  0  0  0  0  0
  -33.0220  -17.7165   17.0011 H   0  0  0  0  0  0
  -32.4780  -16.4802   18.1218 H   0  0  0  0  0  0
  -33.8578  -17.4929   18.5336 H   0  0  0  0  0  0
  -32.6264  -20.1548   17.4224 H   0  0  0  0  0  0
  -33.4811  -20.0433   18.9508 H   0  0  0  0  0  0
  -31.8526  -20.7038   18.9051 H   0  0  0  0  0  0
  -29.6237  -23.0467   21.8353 H   0  0  0  0  0  0
  -27.9028  -23.1570   21.9965 H   0  0  0  0  0  0
  -27.8751  -24.1627   19.5604 H   0  0  0  0  0  0
  -29.5944  -24.2437   19.6658 H   0  0  0  0  0  0
  -32.2022  -17.3625   20.5310 H   0  0  0  0  0  0
  -32.0917  -19.0594   20.7933 H   0  0  0  0  0  0
  -29.6827  -16.5728   19.1408 H   0  0  0  0  0  0
  -28.4708  -16.7993   20.3566 H   0  0  0  0  0  0
  -27.6695  -25.6061   21.6559 H   0  0  0  0  0  0
  -29.4035  -25.8005   21.6052 H   0  0  0  0  0  0
  -30.1655  -18.1133   21.7317 H   0  0  0  0  0  0
  -30.9865  -18.4647   18.1592 H   0  0  0  0  0  0
  -29.1197  -15.1814   21.5315 H   0  0  0  0  0  0
  1 25  1  0  0  0
  1 30  2  0  0  0
  1 88  1  0  0  0
  2  3  1  0  0  0
  2 25  1  0  0  0
  2 89  1  0  0  0
  2 90  1  0  0  0
  3  4  1  0  0  0
  3 91  1  0  0  0
  3 92  1  0  0  0
  4  5  1  0  0  0
  4 93  1  0  0  0
  4 94  1  0  0  0
  5  6  1  0  0  0
  5 26  1  0  0  0
  5 95  1  0  0  0
  6 25  1  0  0  0
  6 96  1  0  0  0
  6 97  1  0  0  0
  7  8  2  0  0  0
  7 26  1  0  0  0
  7 29  1  0  0  0
  8  9  1  0  0  0
  8 22  1  0  0  0
  9 10  1  0  0  0
  9 27  2  0  0  0
 10 11  2  0  0  0
 10 15  1  0  0  0
 11 12  1  0  0  0
 11 98  1  0  0  0
 12 13  2  0  0  0
 12 99  1  0  0  0
 13 14  1  0  0  0
 13 31  1  0  0  0
 14 15  2  0  0  0
 14100  1  0  0  0
 15101  1  0  0  0
 16 17  2  0  0  0
 16 21  1  0  0  0
 16 31  1  0  0  0
 17 18  1  0  0  0
 17102  1  0  0  0
 18 19  2  0  0  0
 18103  1  0  0  0
 19 20  1  0  0  0
 19 24  1  0  0  0
 20 21  2  0  0  0
 20104  1  0  0  0
 21 23  1  0  0  0
 22 28  1  0  0  0
 22 32  2  0  0  0
 26 27  1  0  0  0
 28105  1  0  0  0
 28106  1  0  0  0
 29107  1  0  0  0
 29108  1  0  0  0
 33 34  1  0  0  0
 33 66  1  0  0  0
 33 70  2  0  0  0
 34 36  1  0  0  0
 34 59  1  0  0  0
 34109  1  0  0  0
 35 44  2  0  0  0
 35 45  1  0  0  0
 35 68  1  0  0  0
 36 56  1  0  0  0
 36110  1  0  0  0
 37 39  1  0  0  0
 37 47  1  0  0  0
 37 66  1  0  0  0
 37111  1  0  0  0
 38 43  2  0  0  0
 38 46  1  0  0  0
 38 47  1  0  0  0
 39 64  1  0  0  0
 39 67  2  0  0  0
 40 52  1  0  0  0
 40 53  2  0  0  0
 40 58  1  0  0  0
 41112  1  0  0  0
 41113  1  0  0  0
 41114  1  0  0  0
 41 48  1  0  0  0
 42 43  1  0  0  0
 42 66  1  0  0  0
 42115  1  0  0  0
 42116  1  0  0  0
 43 44  1  0  0  0
 44117  1  0  0  0
 45 46  2  0  0  0
 45118  1  0  0  0
 46119  1  0  0  0
 47120  1  0  0  0
 47121  1  0  0  0
 48 56  1  0  0  0
 48 65  1  0  0  0
 48122  1  0  0  0
 49 50  1  0  0  0
 49 53  1  0  0  0
 49 64  1  0  0  0
 49123  1  0  0  0
 50 51  1  0  0  0
 50124  1  0  0  0
 50125  1  0  0  0
 51 52  1  0  0  0
 51126  1  0  0  0
 51127  1  0  0  0
 52128  1  0  0  0
 52129  1  0  0  0
 53 54  1  0  0  0
 54 55  2  0  0  0
 54130  1  0  0  0
 55 57  1  0  0  0
 55131  1  0  0  0
 56 69  2  0  0  0
 57 58  2  0  0  0
 57132  1  0  0  0
 58133  1  0  0  0
 59 60  1  0  0  0
 59 61  1  0  0  0
 59 62  1  0  0  0
 60134  1  0  0  0
 60135  1  0  0  0
 60136  1  0  0  0
 61137  1  0  0  0
 61138  1  0  0  0
 61139  1  0  0  0
 62140  1  0  0  0
 62141  1  0  0  0
 62142  1  0  0  0
 63 65  1  0  0  0
 63143  1  0  0  0
 63144  1  0  0  0
 63145  1  0  0  0
 64146  1  0  0  0
 65147  1  0  0  0
 68 84  1  0  0  0
 71 72  2  0  0  0
 71 74  1  0  0  0
 71148  1  0  0  0
 72 73  1  0  0  0
 72 80  1  0  0  0
 73 75  2  0  0  0
 73 76  1  0  0  0
 74 85  1  0  0  0
 74 87  2  0  0  0
 75 77  1  0  0  0
 75 87  1  0  0  0
 76149  1  0  0  0
 76150  1  0  0  0
 76151  1  0  0  0
 77152  1  0  0  0
 77153  1  0  0  0
 77154  1  0  0  0
 78155  1  0  0  0
 78156  1  0  0  0
 78157  1  0  0  0
 78 86  1  0  0  0
 79 86  1  0  0  0
 79158  1  0  0  0
 79159  1  0  0  0
 79160  1  0  0  0
 80 81  1  0  0  0
 80161  1  0  0  0
 80162  1  0  0  0
 81 84  1  0  0  0
 81163  1  0  0  0
 81164  1  0  0  0
 82 86  1  0  0  0
 82165  1  0  0  0
 82166  1  0  0  0
 82 85  1  0  0  0
 83 85  1  0  0  0
 83 88  1  0  0  0
 83167  1  0  0  0
 83168  1  0  0  0
 84169  1  0  0  0
 84170  1  0  0  0
 85171  1  0  0  0
 86172  1  0  0  0
 88173  1  0  0  0
M  ISO  4   1 100  68 101  84 101  88 100
M  END
> <chiral flag>
0

> <version>
0

> <s_m_source_file>
/data/baiqing/PycharmProjects/Reinvent-master-3.2/result/LINK_invent/BTK/process_docking_weight1_custom_sum_contain_oxygen_bond_distance_aromatic_linkinvent_7_9_3/rearranged_h_0085.sdf

> <i_m_source_file_index>
2

> <r_mmod_Potential_Energy-OPLS-2005>
-138.819183349609

> <r_mmod_Stretch_Energy-OPLS-2005>
47.8489227294922

> <r_mmod_Bend_Energy-OPLS-2005>
113.5283203125

> <r_mmod_Torsional_Energy-OPLS-2005>
291.468872070312

> <r_mmod_Improper_Torsional_Energy-OPLS-2005>
8.87541198730469

> <r_mmod_Van_der_Waal_Energy-OPLS-2005>
143.711730957031

> <r_mmod_Electrostatic_Energy-OPLS-2005>
-549.681579589844

> <r_mmod_Solvation_Energy-OPLS-2005>
-209.052673339844

> <b_mmod_Minimization_Converged-OPLS-2005>
0

> <r_mmod_RMS_Derivative-OPLS-2005>
5.57210493087769

$$$$
2
                    3D
 Structure written by MMmdl.
156164  0  0  1  0            999 V2000
  -30.6486  -14.6957   20.4567 C   0  0  0  0  0  0
  -30.4250  -12.4219   19.4732 C   0  0  0  0  0  0
  -29.5068  -12.5014   18.2346 C   0  0  0  0  0  0
  -28.0313  -12.3394   18.6454 C   0  0  0  0  0  0
  -27.6446  -13.2316   19.8552 C   0  0  2  0  0  0
  -28.6904  -13.1581   20.9908 C   0  0  0  0  0  0
  -25.2528  -13.8205   20.5712 C   0  0  0  0  0  0
  -24.1816  -13.0447   20.9216 C   0  0  0  0  0  0
  -24.6404  -11.6922   20.8748 C   0  0  0  0  0  0
  -23.9075  -10.4303   21.0406 C   0  0  0  0  0  0
  -24.3624   -9.4214   21.9181 C   0  0  0  0  0  0
  -23.6298   -8.2250   22.0749 C   0  0  0  0  0  0
  -22.4277   -8.0289   21.3545 C   0  0  0  0  0  0
  -21.9915   -9.0261   20.4646 C   0  0  0  0  0  0
  -22.7245  -10.2141   20.3059 C   0  0  0  0  0  0
  -21.6854   -6.0744   22.5278 C   0  0  0  0  0  0
  -21.4017   -6.5644   23.8213 C   0  0  0  0  0  0
  -21.3661   -5.6795   24.9176 C   0  0  0  0  0  0
  -21.6041   -4.3060   24.7222 C   0  0  0  0  0  0
  -21.8819   -3.8153   23.4343 C   0  0  0  0  0  0
  -21.9197   -4.6972   22.3400 C   0  0  0  0  0  0
  -22.7836  -13.5224   21.1867 C   0  0  0  0  0  0
  -22.1665   -4.2160   21.0976 F   0  0  0  0  0  0
  -21.5630   -3.4540   25.7734 F   0  0  0  0  0  0
  -29.9957  -13.4874   20.4070 N   0  0  0  0  0  0
  -26.2958  -12.9411   20.3317 N   0  0  0  0  0  0
  -25.9337  -11.6547   20.5760 N   0  0  0  0  0  0
  -22.0488  -12.8212   22.0423 N   0  0  0  0  0  0
  -25.4215  -15.1929   20.4126 N   0  0  0  0  0  0
  -31.8366  -14.7661   20.1329 O   0  0  0  0  0  0
  -21.6642   -6.8885   21.4240 O   0  0  0  0  0  0
  -22.3510  -14.5526   20.6714 O   0  0  0  0  0  0
  -24.6283  -31.8576   23.2006 C   0  0  0  0  0  0
  -25.9123  -32.4765   23.8340 C   0  0  1  0  0  0
  -27.2134  -27.2839   20.1289 C   0  0  0  0  0  0
  -25.5929  -33.8566   24.2265 N   0  0  0  0  0  0
  -23.4234  -30.4810   21.5443 C   0  0  2  0  0  0
  -24.8686  -28.9317   20.1114 C   0  0  0  0  0  0
  -22.7484  -29.4614   22.4927 C   0  0  0  0  0  0
  -18.0286  -28.1382   22.8487 C   0  0  0  0  0  0
  -24.1489  -36.7290   23.2638 C   0  0  0  0  0  0
  -25.9674  -30.7770   21.3776 C   0  0  0  0  0  0
  -26.0397  -29.4018   20.7197 C   0  0  0  0  0  0
  -27.2173  -28.5909   20.7162 C   0  0  0  0  0  0
  -26.0257  -26.8823   19.4797 C   0  0  0  0  0  0
  -24.8657  -27.6793   19.4796 C   0  0  0  0  0  0
  -23.6383  -29.8159   20.1600 C   0  0  0  0  0  0
  -25.4115  -36.3076   24.0326 C   0  0  1  0  0  0
  -20.5888  -28.3689   23.1274 C   0  0  2  0  0  0
  -20.6775  -26.9406   22.5408 C   0  0  0  0  0  0
  -19.5751  -26.6378   21.5213 C   0  0  0  0  0  0
  -18.1932  -26.7923   22.1625 C   0  0  0  0  0  0
  -19.1540  -28.8851   23.2875 C   0  0  0  0  0  0
  -18.9462  -30.1457   23.8889 C   0  0  0  0  0  0
  -17.6461  -30.6584   24.0560 C   0  0  0  0  0  0
  -25.9055  -34.9446   23.5097 C   0  0  0  0  0  0
  -16.5352  -29.9079   23.6331 C   0  0  0  0  0  0
  -16.7276  -28.6497   23.0351 C   0  0  0  0  0  0
  -26.4494  -31.6584   25.0724 C   0  0  0  0  0  0
  -25.3724  -31.3731   26.1449 C   0  0  0  0  0  0
  -27.0343  -30.3001   24.6207 C   0  0  0  0  0  0
  -27.6046  -32.4329   25.7496 C   0  0  0  0  0  0
  -27.5583  -37.1794   24.8459 C   0  0  0  0  0  0
  -21.4195  -29.3043   22.3669 N   0  0  0  0  0  0
  -26.4291  -37.3774   23.9409 N   0  0  0  0  0  0
  -24.6920  -31.0559   22.0971 N   0  0  0  0  0  0
  -23.4195  -28.8156   23.3018 O   0  0  0  0  0  0
  -28.3130  -26.4049   20.1573 O   0  0  0  0  0  0
  -26.5628  -34.8920   22.4668 O   0  0  0  0  0  0
  -23.5441  -32.1386   23.7321 O   0  0  0  0  0  0
  -30.9561  -21.7914   18.8863 C   0  0  0  0  0  0
  -31.7430  -20.6902   18.4922 C   0  0  0  0  0  0
  -29.9713  -21.2974   19.7050 C   0  0  0  0  0  0
  -32.9456  -20.6685   17.5965 C   0  0  0  0  0  0
  -28.9083  -22.2611   20.3224 C   0  0  0  0  0  0
  -29.0818  -23.8403   19.9713 C   0  0  0  0  0  0
  -29.5836  -18.6303   20.4141 C   0  0  0  0  0  0
  -30.4292  -17.2446   20.2415 C   0  0  0  0  0  0
  -28.0742  -24.9658   20.5042 C   0  0  0  0  0  0
  -31.2992  -19.5745   19.0191 N   0  0  0  0  0  0
  -30.2087  -19.8653   19.7766 N   0  0  0  0  0  0
  -29.9211  -15.8593   20.6224 N   0  0  0  0  0  0
  -31.4696  -12.5235   19.1727 H   0  0  0  0  0  0
  -30.3467  -11.4430   19.9488 H   0  0  0  0  0  0
  -29.7790  -11.7312   17.5127 H   0  0  0  0  0  0
  -29.6474  -13.4587   17.7290 H   0  0  0  0  0  0
  -27.8730  -11.2893   18.8938 H   0  0  0  0  0  0
  -27.3782  -12.5526   17.7983 H   0  0  0  0  0  0
  -27.6429  -14.2556   19.4809 H   0  0  0  0  0  0
  -28.7142  -12.1632   21.4375 H   0  0  0  0  0  0
  -28.4365  -13.8493   21.7956 H   0  0  0  0  0  0
  -25.2774   -9.5692   22.4751 H   0  0  0  0  0  0
  -24.0015   -7.4636   22.7461 H   0  0  0  0  0  0
  -21.0851   -8.8780   19.8938 H   0  0  0  0  0  0
  -22.3705  -10.9682   19.6169 H   0  0  0  0  0  0
  -21.2007   -7.6153   23.9719 H   0  0  0  0  0  0
  -21.1480   -6.0528   25.9080 H   0  0  0  0  0  0
  -22.0596   -2.7616   23.2839 H   0  0  0  0  0  0
  -22.4118  -11.9872   22.4802 H   0  0  0  0  0  0
  -21.1101  -13.1226   22.2628 H   0  0  0  0  0  0
  -24.6542  -15.8468   20.5256 H   0  0  0  0  0  0
  -26.2692  -15.6332   20.0779 H   0  0  0  0  0  0
  -26.7190  -32.5417   23.1085 H   0  0  0  0  0  0
  -25.0067  -33.9701   25.0404 H   0  0  0  0  0  0
  -22.7192  -31.3031   21.4004 H   0  0  0  0  0  0
  -23.3756  -35.9616   23.3289 H   0  0  0  0  0  0
  -24.3585  -36.8925   22.2056 H   0  0  0  0  0  0
  -23.7237  -37.6484   23.6673 H   0  0  0  0  0  0
  -26.1057  -31.5396   20.6099 H   0  0  0  0  0  0
  -26.8452  -30.8233   22.0106 H   0  0  0  0  0  0
  -28.1158  -28.9453   21.2006 H   0  0  0  0  0  0
  -25.9742  -25.9355   18.9627 H   0  0  0  0  0  0
  -23.9721  -27.3182   18.9890 H   0  0  0  0  0  0
  -23.7589  -30.5918   19.4034 H   0  0  0  0  0  0
  -22.7569  -29.2476   19.8577 H   0  0  0  0  0  0
  -25.1298  -36.1925   25.0819 H   0  0  0  0  0  0
  -20.9984  -28.3264   24.1393 H   0  0  0  0  0  0
  -20.5672  -26.2298   23.3610 H   0  0  0  0  0  0
  -21.6642  -26.7427   22.1203 H   0  0  0  0  0  0
  -19.6910  -25.6287   21.1246 H   0  0  0  0  0  0
  -19.6689  -27.3185   20.6742 H   0  0  0  0  0  0
  -17.4198  -26.6665   21.4030 H   0  0  0  0  0  0
  -18.0335  -26.0065   22.9023 H   0  0  0  0  0  0
  -19.7938  -30.7277   24.2246 H   0  0  0  0  0  0
  -17.5014  -31.6263   24.5164 H   0  0  0  0  0  0
  -15.5353  -30.2976   23.7659 H   0  0  0  0  0  0
  -15.8675  -28.0816   22.7066 H   0  0  0  0  0  0
  -24.5885  -30.7099   25.7775 H   0  0  0  0  0  0
  -24.8935  -32.2904   26.4888 H   0  0  0  0  0  0
  -25.8041  -30.8891   27.0219 H   0  0  0  0  0  0
  -26.2926  -29.6745   24.1225 H   0  0  0  0  0  0
  -27.4016  -29.7267   25.4730 H   0  0  0  0  0  0
  -27.8811  -30.4272   23.9458 H   0  0  0  0  0  0
  -27.2643  -33.3624   26.2074 H   0  0  0  0  0  0
  -28.3855  -32.6898   25.0327 H   0  0  0  0  0  0
  -28.0720  -31.8461   26.5413 H   0  0  0  0  0  0
  -28.2582  -38.0108   24.7532 H   0  0  0  0  0  0
  -28.1098  -36.2641   24.6256 H   0  0  0  0  0  0
  -27.2305  -37.1410   25.8861 H   0  0  0  0  0  0
  -20.9373  -29.8769   21.6880 H   0  0  0  0  0  0
  -26.0171  -38.2846   24.1420 H   0  0  0  0  0  0
  -31.1086  -22.8192   18.5900 H   0  0  0  0  0  0
  -33.8323  -20.3346   18.1354 H   0  0  0  0  0  0
  -33.1574  -21.6601   17.1962 H   0  0  0  0  0  0
  -32.7979  -19.9982   16.7495 H   0  0  0  0  0  0
  -28.9142  -22.1391   21.4056 H   0  0  0  0  0  0
  -27.9191  -21.9379   19.9965 H   0  0  0  0  0  0
  -29.0831  -23.9315   18.8852 H   0  0  0  0  0  0
  -30.0800  -24.1391   20.2912 H   0  0  0  0  0  0
  -29.4323  -18.8417   21.4730 H   0  0  0  0  0  0
  -28.5913  -18.5089   19.9800 H   0  0  0  0  0  0
  -31.3877  -17.3835   20.7450 H   0  0  0  0  0  0
  -30.6717  -17.1415   19.1827 H   0  0  0  0  0  0
  -28.0780  -24.9196   21.5936 H   0  0  0  0  0  0
  -27.0736  -24.6435   20.2247 H   0  0  0  0  0  0
  -28.9440  -15.7632   20.8571 H   0  0  0  0  0  0
  1 25  1  0  0  0
  1 30  2  0  0  0
  1 82  1  0  0  0
  2  3  1  0  0  0
  2 25  1  0  0  0
  2 83  1  0  0  0
  2 84  1  0  0  0
  3  4  1  0  0  0
  3 85  1  0  0  0
  3 86  1  0  0  0
  4  5  1  0  0  0
  4 87  1  0  0  0
  4 88  1  0  0  0
  5  6  1  0  0  0
  5 26  1  0  0  0
  5 89  1  0  0  0
  6 25  1  0  0  0
  6 90  1  0  0  0
  6 91  1  0  0  0
  7  8  2  0  0  0
  7 26  1  0  0  0
  7 29  1  0  0  0
  8  9  1  0  0  0
  8 22  1  0  0  0
  9 10  1  0  0  0
  9 27  2  0  0  0
 10 11  2  0  0  0
 10 15  1  0  0  0
 11 12  1  0  0  0
 11 92  1  0  0  0
 12 13  2  0  0  0
 12 93  1  0  0  0
 13 14  1  0  0  0
 13 31  1  0  0  0
 14 15  2  0  0  0
 14 94  1  0  0  0
 15 95  1  0  0  0
 16 17  2  0  0  0
 16 21  1  0  0  0
 16 31  1  0  0  0
 17 18  1  0  0  0
 17 96  1  0  0  0
 18 19  2  0  0  0
 18 97  1  0  0  0
 19 20  1  0  0  0
 19 24  1  0  0  0
 20 21  2  0  0  0
 20 98  1  0  0  0
 21 23  1  0  0  0
 22 28  1  0  0  0
 22 32  2  0  0  0
 26 27  1  0  0  0
 28 99  1  0  0  0
 28100  1  0  0  0
 29101  1  0  0  0
 29102  1  0  0  0
 33 34  1  0  0  0
 33 66  1  0  0  0
 33 70  2  0  0  0
 34 36  1  0  0  0
 34 59  1  0  0  0
 34103  1  0  0  0
 35 44  2  0  0  0
 35 45  1  0  0  0
 35 68  1  0  0  0
 36 56  1  0  0  0
 36104  1  0  0  0
 37 39  1  0  0  0
 37 47  1  0  0  0
 37 66  1  0  0  0
 37105  1  0  0  0
 38 43  2  0  0  0
 38 46  1  0  0  0
 38 47  1  0  0  0
 39 64  1  0  0  0
 39 67  2  0  0  0
 40 52  1  0  0  0
 40 53  2  0  0  0
 40 58  1  0  0  0
 41106  1  0  0  0
 41107  1  0  0  0
 41108  1  0  0  0
 41 48  1  0  0  0
 42 43  1  0  0  0
 42 66  1  0  0  0
 42109  1  0  0  0
 42110  1  0  0  0
 43 44  1  0  0  0
 44111  1  0  0  0
 45 46  2  0  0  0
 45112  1  0  0  0
 46113  1  0  0  0
 47114  1  0  0  0
 47115  1  0  0  0
 48 56  1  0  0  0
 48 65  1  0  0  0
 48116  1  0  0  0
 49 50  1  0  0  0
 49 53  1  0  0  0
 49 64  1  0  0  0
 49117  1  0  0  0
 50 51  1  0  0  0
 50118  1  0  0  0
 50119  1  0  0  0
 51 52  1  0  0  0
 51120  1  0  0  0
 51121  1  0  0  0
 52122  1  0  0  0
 52123  1  0  0  0
 53 54  1  0  0  0
 54 55  2  0  0  0
 54124  1  0  0  0
 55 57  1  0  0  0
 55125  1  0  0  0
 56 69  2  0  0  0
 57 58  2  0  0  0
 57126  1  0  0  0
 58127  1  0  0  0
 59 60  1  0  0  0
 59 61  1  0  0  0
 59 62  1  0  0  0
 60128  1  0  0  0
 60129  1  0  0  0
 60130  1  0  0  0
 61131  1  0  0  0
 61132  1  0  0  0
 61133  1  0  0  0
 62134  1  0  0  0
 62135  1  0  0  0
 62136  1  0  0  0
 63 65  1  0  0  0
 63137  1  0  0  0
 63138  1  0  0  0
 63139  1  0  0  0
 64140  1  0  0  0
 65141  1  0  0  0
 68 79  1  0  0  0
 71 72  1  0  0  0
 71 73  2  0  0  0
 71142  1  0  0  0
 72 74  1  0  0  0
 72 80  2  0  0  0
 73 75  1  0  0  0
 73 81  1  0  0  0
 74143  1  0  0  0
 74144  1  0  0  0
 74145  1  0  0  0
 75 76  1  0  0  0
 75146  1  0  0  0
 75147  1  0  0  0
 76 79  1  0  0  0
 76148  1  0  0  0
 76149  1  0  0  0
 77 78  1  0  0  0
 77 81  1  0  0  0
 77150  1  0  0  0
 77151  1  0  0  0
 78 82  1  0  0  0
 78152  1  0  0  0
 78153  1  0  0  0
 79154  1  0  0  0
 79155  1  0  0  0
 80 81  1  0  0  0
 82156  1  0  0  0
M  ISO  4   1 100  68 101  79 101  82 100
M  END
> <chiral flag>
0

> <version>
0

> <s_m_source_file>
/data/baiqing/PycharmProjects/Reinvent-master-3.2/result/LINK_invent/BTK/process_docking_weight1_custom_sum_contain_oxygen_bond_distance_aromatic_linkinvent_7_9_3/rearranged_h_0085.sdf

> <i_m_source_file_index>
3

> <r_mmod_Potential_Energy-OPLS-2005>
80.9508514404297

> <r_mmod_Stretch_Energy-OPLS-2005>
116.882278442383

> <r_mmod_Bend_Energy-OPLS-2005>
179.567199707031

> <r_mmod_Torsional_Energy-OPLS-2005>
221.383270263672

> <r_mmod_Improper_Torsional_Energy-OPLS-2005>
5.89601802825928

> <r_mmod_Van_der_Waal_Energy-OPLS-2005>
128.807434082031

> <r_mmod_Electrostatic_Energy-OPLS-2005>
-413.697265625

> <r_mmod_Solvation_Energy-OPLS-2005>
-226.703277587891

> <b_mmod_Minimization_Converged-OPLS-2005>
0

> <r_mmod_RMS_Derivative-OPLS-2005>
1.00559890270233

$$$$
3
                    3D
 Structure written by MMmdl.
183191  0  0  1  0            999 V2000
  -30.7663  -14.3792   20.7066 C   0  0  0  0  0  0
  -30.4160  -12.3077   19.3905 C   0  0  0  0  0  0
  -29.4814  -12.5380   18.1889 C   0  0  0  0  0  0
  -28.0060  -12.3897   18.6060 C   0  0  0  0  0  0
  -27.6649  -13.2072   19.8794 C   0  0  2  0  0  0
  -28.7057  -12.9421   20.9876 C   0  0  0  0  0  0
  -25.2582  -13.8158   20.5653 C   0  0  0  0  0  0
  -24.1837  -13.0428   20.9150 C   0  0  0  0  0  0
  -24.6401  -11.6904   20.8724 C   0  0  0  0  0  0
  -23.9069  -10.4290   21.0398 C   0  0  0  0  0  0
  -24.3616   -9.4211   21.9183 C   0  0  0  0  0  0
  -23.6291   -8.2245   22.0756 C   0  0  0  0  0  0
  -22.4274   -8.0279   21.3546 C   0  0  0  0  0  0
  -21.9915   -9.0249   20.4643 C   0  0  0  0  0  0
  -22.7243  -10.2129   20.3046 C   0  0  0  0  0  0
  -21.6846   -6.0738   22.5283 C   0  0  0  0  0  0
  -21.4007   -6.5641   23.8217 C   0  0  0  0  0  0
  -21.3658   -5.6793   24.9180 C   0  0  0  0  0  0
  -21.6044   -4.3057   24.7227 C   0  0  0  0  0  0
  -21.8820   -3.8148   23.4350 C   0  0  0  0  0  0
  -21.9189   -4.6965   22.3406 C   0  0  0  0  0  0
  -22.7862  -13.5231   21.1830 C   0  0  0  0  0  0
  -22.1660   -4.2154   21.0982 F   0  0  0  0  0  0
  -21.5633   -3.4540   25.7742 F   0  0  0  0  0  0
  -30.0413  -13.2536   20.4543 N   0  0  0  0  0  0
  -26.3047  -12.9344   20.3401 N   0  0  0  0  0  0
  -25.9333  -11.6499   20.5776 N   0  0  0  0  0  0
  -22.0505  -12.8209   22.0382 N   0  0  0  0  0  0
  -25.4267  -15.1862   20.4048 N   0  0  0  0  0  0
  -31.7981  -14.6289   20.0681 O   0  0  0  0  0  0
  -21.6635   -6.8881   21.4243 O   0  0  0  0  0  0
  -22.3539  -14.5544   20.6706 O   0  0  0  0  0  0
  -24.6146  -31.8696   23.2124 C   0  0  0  0  0  0
  -25.9049  -32.4826   23.8404 C   0  0  1  0  0  0
  -27.2305  -27.4429   20.0724 C   0  0  0  0  0  0
  -25.5912  -33.8624   24.2340 N   0  0  0  0  0  0
  -23.3994  -30.4962   21.5540 C   0  0  2  0  0  0
  -24.8409  -28.9657   20.1181 C   0  0  0  0  0  0
  -22.7392  -29.4677   22.5005 C   0  0  0  0  0  0
  -18.0266  -28.1377   22.8495 C   0  0  0  0  0  0
  -24.1482  -36.7309   23.2639 C   0  0  0  0  0  0
  -25.9299  -30.8346   21.3661 C   0  0  0  0  0  0
  -26.0040  -29.4705   20.7117 C   0  0  0  0  0  0
  -27.1992  -28.7151   20.6894 C   0  0  0  0  0  0
  -26.0364  -26.9486   19.4904 C   0  0  0  0  0  0
  -24.8508  -27.7015   19.5106 C   0  0  0  0  0  0
  -23.6051  -29.8329   20.1680 C   0  0  0  0  0  0
  -25.4107  -36.3108   24.0337 C   0  0  1  0  0  0
  -20.5853  -28.3663   23.1321 C   0  0  2  0  0  0
  -20.6756  -26.9401   22.5414 C   0  0  0  0  0  0
  -19.5736  -26.6386   21.5208 C   0  0  0  0  0  0
  -18.1909  -26.7928   22.1613 C   0  0  0  0  0  0
  -19.1515  -28.8834   23.2905 C   0  0  0  0  0  0
  -18.9445  -30.1443   23.8911 C   0  0  0  0  0  0
  -17.6449  -30.6586   24.0570 C   0  0  0  0  0  0
  -25.9040  -34.9473   23.5133 C   0  0  0  0  0  0
  -16.5342  -29.9089   23.6331 C   0  0  0  0  0  0
  -16.7258  -28.6506   23.0354 C   0  0  0  0  0  0
  -26.4476  -31.6599   25.0731 C   0  0  0  0  0  0
  -25.3738  -31.3688   26.1472 C   0  0  0  0  0  0
  -27.0321  -30.3046   24.6106 C   0  0  0  0  0  0
  -27.6040  -32.4325   25.7506 C   0  0  0  0  0  0
  -27.5581  -37.1813   24.8464 C   0  0  0  0  0  0
  -21.4124  -29.3041   22.3737 N   0  0  0  0  0  0
  -26.4290  -37.3793   23.9411 N   0  0  0  0  0  0
  -24.6665  -31.0804   22.1026 N   0  0  0  0  0  0
  -23.4170  -28.8204   23.3029 O   0  0  0  0  0  0
  -28.4189  -26.7348   20.0531 O   0  0  0  0  0  0
  -26.5593  -34.8918   22.4685 O   0  0  0  0  0  0
  -23.5344  -32.1451   23.7525 O   0  0  0  0  0  0
  -27.3156  -17.7322   21.5645 C   0  0  0  0  0  0
  -28.1368  -16.6992   22.0515 C   0  0  0  0  0  0
  -27.7363  -18.5004   20.4645 C   0  0  0  0  0  0
  -29.3620  -16.4375   21.3904 C   0  0  0  0  0  0
  -28.9937  -18.2100   19.8878 C   0  0  0  0  0  0
  -27.6727  -15.9338   23.2823 C   0  0  0  0  0  0
  -26.8293  -19.6099   19.9516 C   0  0  0  0  0  0
  -29.2820  -17.1631   16.9830 C   0  0  0  0  0  0
  -31.5865  -16.0137   22.5085 C   0  0  0  0  0  0
  -32.1146  -23.3299   17.9507 C   0  0  0  0  0  0
  -31.6588  -19.6675   20.0628 C   0  0  0  0  0  0
  -30.2470  -18.1762   17.6270 C   0  0  0  0  0  0
  -29.7705  -24.7465   19.4972 C   0  0  0  0  0  0
  -29.7224  -23.3518   18.8289 C   0  0  0  0  0  0
  -30.8805  -21.1382   18.2358 C   0  0  0  0  0  0
  -28.3957  -25.4304   19.4659 C   0  0  0  0  0  0
  -30.3573  -15.3547   21.8488 C   0  0  2  0  0  0
  -29.6051  -19.0452   18.7472 C   0  0  2  0  0  0
  -31.0652  -22.5800   18.7930 C   0  0  1  0  0  0
  -29.7712  -17.2108   20.3596 N   0  0  0  0  0  0
  -30.4915  -20.1353   19.2679 N   0  3  1  0  0  0
  -31.4575  -12.4094   19.0809 H   0  0  0  0  0  0
  -30.3208  -11.2837   19.7552 H   0  0  0  0  0  0
  -29.7152  -11.8365   17.3871 H   0  0  0  0  0  0
  -29.6483  -13.5368   17.7817 H   0  0  0  0  0  0
  -27.8130  -11.3310   18.7828 H   0  0  0  0  0  0
  -27.3520  -12.6858   17.7848 H   0  0  0  0  0  0
  -27.7228  -14.2632   19.6131 H   0  0  0  0  0  0
  -28.6753  -11.8942   21.2885 H   0  0  0  0  0  0
  -28.4436  -13.4969   21.8809 H   0  0  0  0  0  0
  -25.2758   -9.5689   22.4761 H   0  0  0  0  0  0
  -24.0001   -7.4636   22.7476 H   0  0  0  0  0  0
  -21.0852   -8.8763   19.8941 H   0  0  0  0  0  0
  -22.3706  -10.9665   19.6148 H   0  0  0  0  0  0
  -21.1996   -7.6144   23.9723 H   0  0  0  0  0  0
  -21.1480   -6.0521   25.9082 H   0  0  0  0  0  0
  -22.0599   -2.7612   23.2850 H   0  0  0  0  0  0
  -22.4105  -11.9848   22.4743 H   0  0  0  0  0  0
  -21.1128  -13.1238   22.2604 H   0  0  0  0  0  0
  -24.6663  -15.8440   20.5315 H   0  0  0  0  0  0
  -26.3114  -15.6346   20.1994 H   0  0  0  0  0  0
  -26.7117  -32.5538   23.1166 H   0  0  0  0  0  0
  -25.0080  -33.9793   25.0490 H   0  0  0  0  0  0
  -22.6883  -31.3131   21.4177 H   0  0  0  0  0  0
  -23.3753  -35.9634   23.3294 H   0  0  0  0  0  0
  -24.3580  -36.8939   22.2057 H   0  0  0  0  0  0
  -23.7224  -37.6501   23.6664 H   0  0  0  0  0  0
  -26.0441  -31.6021   20.5992 H   0  0  0  0  0  0
  -26.8181  -30.8844   21.9845 H   0  0  0  0  0  0
  -28.0992  -29.1068   21.1424 H   0  0  0  0  0  0
  -25.9855  -25.9842   19.0075 H   0  0  0  0  0  0
  -23.9542  -27.3044   19.0553 H   0  0  0  0  0  0
  -23.7123  -30.6088   19.4091 H   0  0  0  0  0  0
  -22.7285  -29.2539   19.8723 H   0  0  0  0  0  0
  -25.1282  -36.1974   25.0829 H   0  0  0  0  0  0
  -20.9946  -28.3226   24.1439 H   0  0  0  0  0  0
  -20.5660  -26.2266   23.3596 H   0  0  0  0  0  0
  -21.6629  -26.7440   22.1214 H   0  0  0  0  0  0
  -19.6897  -25.6300   21.1231 H   0  0  0  0  0  0
  -19.6682  -27.3202   20.6744 H   0  0  0  0  0  0
  -17.4186  -26.6696   21.4006 H   0  0  0  0  0  0
  -18.0296  -26.0056   22.8990 H   0  0  0  0  0  0
  -19.7925  -30.7258   24.2284 H   0  0  0  0  0  0
  -17.5007  -31.6268   24.5169 H   0  0  0  0  0  0
  -15.5346  -30.2997   23.7648 H   0  0  0  0  0  0
  -15.8656  -28.0835   22.7056 H   0  0  0  0  0  0
  -24.5920  -30.7033   25.7798 H   0  0  0  0  0  0
  -24.8922  -32.2839   26.4927 H   0  0  0  0  0  0
  -25.8095  -30.8849   27.0221 H   0  0  0  0  0  0
  -26.2874  -29.6799   24.1166 H   0  0  0  0  0  0
  -27.4103  -29.7291   25.4566 H   0  0  0  0  0  0
  -27.8694  -30.4376   23.9253 H   0  0  0  0  0  0
  -27.2653  -33.3629   26.2075 H   0  0  0  0  0  0
  -28.3858  -32.6880   25.0342 H   0  0  0  0  0  0
  -28.0687  -31.8450   26.5433 H   0  0  0  0  0  0
  -28.2586  -38.0121   24.7530 H   0  0  0  0  0  0
  -28.1089  -36.2654   24.6273 H   0  0  0  0  0  0
  -27.2299  -37.1450   25.8866 H   0  0  0  0  0  0
  -20.9268  -29.8791   21.6997 H   0  0  0  0  0  0
  -26.0179  -38.2868   24.1419 H   0  0  0  0  0  0
  -26.3669  -17.9390   22.0400 H   0  0  0  0  0  0
  -26.9102  -16.4967   23.8219 H   0  0  0  0  0  0
  -28.4876  -15.7614   23.9853 H   0  0  0  0  0  0
  -27.2290  -14.9787   23.0055 H   0  0  0  0  0  0
  -25.9224  -19.6928   20.5526 H   0  0  0  0  0  0
  -26.5190  -19.4112   18.9248 H   0  0  0  0  0  0
  -27.3302  -20.5775   19.9852 H   0  0  0  0  0  0
  -29.7802  -16.6046   16.1901 H   0  0  0  0  0  0
  -28.4172  -17.6605   16.5422 H   0  0  0  0  0  0
  -28.9159  -16.4354   17.7086 H   0  0  0  0  0  0
  -31.2902  -16.5940   23.3823 H   0  0  0  0  0  0
  -32.0938  -16.6911   21.8210 H   0  0  0  0  0  0
  -32.3103  -15.2674   22.8357 H   0  0  0  0  0  0
  -32.3419  -24.3134   18.3600 H   0  0  0  0  0  0
  -31.7800  -23.4653   16.9211 H   0  0  0  0  0  0
  -33.0583  -22.7842   17.9215 H   0  0  0  0  0  0
  -32.2957  -20.4990   20.3632 H   0  0  0  0  0  0
  -32.2812  -18.9730   19.4990 H   0  0  0  0  0  0
  -31.3503  -19.1767   20.9852 H   0  0  0  0  0  0
  -30.6363  -18.8155   16.8354 H   0  0  0  0  0  0
  -31.1048  -17.6307   18.0205 H   0  0  0  0  0  0
  -30.4837  -25.3904   18.9840 H   0  0  0  0  0  0
  -30.1143  -24.6562   20.5283 H   0  0  0  0  0  0
  -29.3473  -23.4629   17.8095 H   0  0  0  0  0  0
  -28.9777  -22.7500   19.3510 H   0  0  0  0  0  0
  -31.8010  -20.7904   17.7625 H   0  0  0  0  0  0
  -30.1457  -21.1698   17.4294 H   0  0  0  0  0  0
  -27.6767  -24.8021   19.9949 H   0  0  0  0  0  0
  -28.0772  -25.5061   18.4249 H   0  0  0  0  0  0
  -29.9229  -14.7516   22.6395 H   0  0  0  0  0  0
  -28.7738  -19.5529   18.2597 H   0  0  0  0  0  0
  -31.4580  -22.5309   19.8092 H   0  0  0  0  0  0
  -29.9026  -20.6224   19.9256 H   0  0  0  0  0  0
  1 25  1  0  0  0
  1 30  2  0  0  0
  1 87  1  0  0  0
  2  3  1  0  0  0
  2 25  1  0  0  0
  2 92  1  0  0  0
  2 93  1  0  0  0
  3  4  1  0  0  0
  3 94  1  0  0  0
  3 95  1  0  0  0
  4  5  1  0  0  0
  4 96  1  0  0  0
  4 97  1  0  0  0
  5  6  1  0  0  0
  5 26  1  0  0  0
  5 98  1  0  0  0
  6 25  1  0  0  0
  6 99  1  0  0  0
  6100  1  0  0  0
  7  8  2  0  0  0
  7 26  1  0  0  0
  7 29  1  0  0  0
  8  9  1  0  0  0
  8 22  1  0  0  0
  9 10  1  0  0  0
  9 27  2  0  0  0
 10 11  2  0  0  0
 10 15  1  0  0  0
 11 12  1  0  0  0
 11101  1  0  0  0
 12 13  2  0  0  0
 12102  1  0  0  0
 13 14  1  0  0  0
 13 31  1  0  0  0
 14 15  2  0  0  0
 14103  1  0  0  0
 15104  1  0  0  0
 16 17  2  0  0  0
 16 21  1  0  0  0
 16 31  1  0  0  0
 17 18  1  0  0  0
 17105  1  0  0  0
 18 19  2  0  0  0
 18106  1  0  0  0
 19 20  1  0  0  0
 19 24  1  0  0  0
 20 21  2  0  0  0
 20107  1  0  0  0
 21 23  1  0  0  0
 22 28  1  0  0  0
 22 32  2  0  0  0
 26 27  1  0  0  0
 28108  1  0  0  0
 28109  1  0  0  0
 29110  1  0  0  0
 29111  1  0  0  0
 33 34  1  0  0  0
 33 66  1  0  0  0
 33 70  2  0  0  0
 34 36  1  0  0  0
 34 59  1  0  0  0
 34112  1  0  0  0
 35 44  2  0  0  0
 35 45  1  0  0  0
 35 68  1  0  0  0
 36 56  1  0  0  0
 36113  1  0  0  0
 37 39  1  0  0  0
 37 47  1  0  0  0
 37 66  1  0  0  0
 37114  1  0  0  0
 38 43  2  0  0  0
 38 46  1  0  0  0
 38 47  1  0  0  0
 39 64  1  0  0  0
 39 67  2  0  0  0
 40 52  1  0  0  0
 40 53  2  0  0  0
 40 58  1  0  0  0
 41115  1  0  0  0
 41116  1  0  0  0
 41117  1  0  0  0
 41 48  1  0  0  0
 42 43  1  0  0  0
 42 66  1  0  0  0
 42118  1  0  0  0
 42119  1  0  0  0
 43 44  1  0  0  0
 44120  1  0  0  0
 45 46  2  0  0  0
 45121  1  0  0  0
 46122  1  0  0  0
 47123  1  0  0  0
 47124  1  0  0  0
 48 56  1  0  0  0
 48 65  1  0  0  0
 48125  1  0  0  0
 49 50  1  0  0  0
 49 53  1  0  0  0
 49 64  1  0  0  0
 49126  1  0  0  0
 50 51  1  0  0  0
 50127  1  0  0  0
 50128  1  0  0  0
 51 52  1  0  0  0
 51129  1  0  0  0
 51130  1  0  0  0
 52131  1  0  0  0
 52132  1  0  0  0
 53 54  1  0  0  0
 54 55  2  0  0  0
 54133  1  0  0  0
 55 57  1  0  0  0
 55134  1  0  0  0
 56 69  2  0  0  0
 57 58  2  0  0  0
 57135  1  0  0  0
 58136  1  0  0  0
 59 60  1  0  0  0
 59 61  1  0  0  0
 59 62  1  0  0  0
 60137  1  0  0  0
 60138  1  0  0  0
 60139  1  0  0  0
 61140  1  0  0  0
 61141  1  0  0  0
 61142  1  0  0  0
 62143  1  0  0  0
 62144  1  0  0  0
 62145  1  0  0  0
 63 65  1  0  0  0
 63146  1  0  0  0
 63147  1  0  0  0
 63148  1  0  0  0
 64149  1  0  0  0
 65150  1  0  0  0
 68 86  1  0  0  0
 71 72  2  0  0  0
 71 73  1  0  0  0
 71151  1  0  0  0
 72 74  1  0  0  0
 72 76  1  0  0  0
 73 75  2  0  0  0
 73 77  1  0  0  0
 74 87  1  0  0  0
 74 90  2  0  0  0
 75 88  1  0  0  0
 75 90  1  0  0  0
 76152  1  0  0  0
 76153  1  0  0  0
 76154  1  0  0  0
 77155  1  0  0  0
 77156  1  0  0  0
 77157  1  0  0  0
 78 82  1  0  0  0
 78158  1  0  0  0
 78159  1  0  0  0
 78160  1  0  0  0
 79161  1  0  0  0
 79162  1  0  0  0
 79163  1  0  0  0
 79 87  1  0  0  0
 80164  1  0  0  0
 80165  1  0  0  0
 80166  1  0  0  0
 80 89  1  0  0  0
 81167  1  0  0  0
 81168  1  0  0  0
 81169  1  0  0  0
 81 91  1  0  0  0
 82170  1  0  0  0
 82171  1  0  0  0
 82 88  1  0  0  0
 83 84  1  0  0  0
 83 86  1  0  0  0
 83172  1  0  0  0
 83173  1  0  0  0
 84 89  1  0  0  0
 84174  1  0  0  0
 84175  1  0  0  0
 85 89  1  0  0  0
 85 91  1  0  0  0
 85176  1  0  0  0
 85177  1  0  0  0
 86178  1  0  0  0
 86179  1  0  0  0
 87180  1  0  0  0
 88 91  1  0  0  0
 88181  1  0  0  0
 89182  1  0  0  0
 91183  1  0  0  0
M  CHG  1  91   1
M  ISO  4   1 100  68 101  86 101  87 100
M  END
> <chiral flag>
0

> <version>
0

> <s_m_source_file>
/data/baiqing/PycharmProjects/Reinvent-master-3.2/result/LINK_invent/BTK/process_docking_weight1_custom_sum_contain_oxygen_bond_distance_aromatic_linkinvent_7_9_3/rearranged_h_0085.sdf

> <i_m_source_file_index>
4

> <r_mmod_Potential_Energy-OPLS-2005>
-240.953231811523

> <r_mmod_Stretch_Energy-OPLS-2005>
41.970531463623

> <r_mmod_Bend_Energy-OPLS-2005>
111.512023925781

> <r_mmod_Torsional_Energy-OPLS-2005>
177.953170776367

> <r_mmod_Improper_Torsional_Energy-OPLS-2005>
1.98561668395996

> <r_mmod_Van_der_Waal_Energy-OPLS-2005>
150.466766357422

> <r_mmod_Electrostatic_Energy-OPLS-2005>
-344.707672119141

> <r_mmod_Solvation_Energy-OPLS-2005>
-388.640350341797

> <b_mmod_Minimization_Converged-OPLS-2005>
0

> <r_mmod_RMS_Derivative-OPLS-2005>
0.909615993499756

$$$$
4
                    3D
 Structure written by MMmdl.
167175  0  0  1  0            999 V2000
  -30.6444  -14.7269   20.4701 C   0  0  0  0  0  0
  -30.4247  -12.4495   19.4763 C   0  0  0  0  0  0
  -29.5132  -12.5111   18.2344 C   0  0  0  0  0  0
  -28.0401  -12.3313   18.6429 C   0  0  0  0  0  0
  -27.6416  -13.2332   19.8435 C   0  0  2  0  0  0
  -28.6842  -13.1804   20.9805 C   0  0  0  0  0  0
  -25.2549  -13.8196   20.5711 C   0  0  0  0  0  0
  -24.1837  -13.0447   20.9209 C   0  0  0  0  0  0
  -24.6412  -11.6921   20.8722 C   0  0  0  0  0  0
  -23.9074  -10.4304   21.0380 C   0  0  0  0  0  0
  -24.3624   -9.4228   21.9158 C   0  0  0  0  0  0
  -23.6311   -8.2261   22.0734 C   0  0  0  0  0  0
  -22.4290   -8.0290   21.3539 C   0  0  0  0  0  0
  -21.9919   -9.0251   20.4633 C   0  0  0  0  0  0
  -22.7241  -10.2136   20.3040 C   0  0  0  0  0  0
  -21.6868   -6.0743   22.5271 C   0  0  0  0  0  0
  -21.4013   -6.5638   23.8207 C   0  0  0  0  0  0
  -21.3665   -5.6789   24.9169 C   0  0  0  0  0  0
  -21.6059   -4.3055   24.7221 C   0  0  0  0  0  0
  -21.8828   -3.8153   23.4335 C   0  0  0  0  0  0
  -21.9209   -4.6969   22.3394 C   0  0  0  0  0  0
  -22.7862  -13.5243   21.1861 C   0  0  0  0  0  0
  -22.1688   -4.2160   21.0968 F   0  0  0  0  0  0
  -21.5621   -3.4532   25.7727 F   0  0  0  0  0  0
  -29.9849  -13.5218   20.3978 N   0  0  0  0  0  0
  -26.2954  -12.9395   20.3244 N   0  0  0  0  0  0
  -25.9342  -11.6543   20.5718 N   0  0  0  0  0  0
  -22.0518  -12.8222   22.0408 N   0  0  0  0  0  0
  -25.4283  -15.1914   20.4117 N   0  0  0  0  0  0
  -31.8389  -14.7807   20.1659 O   0  0  0  0  0  0
  -21.6669   -6.8879   21.4233 O   0  0  0  0  0  0
  -22.3553  -14.5554   20.6716 O   0  0  0  0  0  0
  -24.6310  -31.8551   23.1991 C   0  0  0  0  0  0
  -25.9141  -32.4748   23.8329 C   0  0  1  0  0  0
  -27.2161  -27.2604   20.1353 C   0  0  0  0  0  0
  -25.5936  -33.8550   24.2256 N   0  0  0  0  0  0
  -23.4261  -30.4787   21.5421 C   0  0  2  0  0  0
  -24.8740  -28.9276   20.1081 C   0  0  0  0  0  0
  -22.7499  -29.4603   22.4920 C   0  0  0  0  0  0
  -18.0285  -28.1394   22.8487 C   0  0  0  0  0  0
  -24.1486  -36.7289   23.2636 C   0  0  0  0  0  0
  -25.9711  -30.7687   21.3778 C   0  0  0  0  0  0
  -26.0444  -29.3910   20.7219 C   0  0  0  0  0  0
  -27.2162  -28.5693   20.7262 C   0  0  0  0  0  0
  -26.0241  -26.8707   19.4801 C   0  0  0  0  0  0
  -24.8702  -27.6766   19.4750 C   0  0  0  0  0  0
  -23.6437  -29.8130   20.1575 C   0  0  0  0  0  0
  -25.4111  -36.3060   24.0318 C   0  0  1  0  0  0
  -20.5888  -28.3708   23.1275 C   0  0  2  0  0  0
  -20.6777  -26.9426   22.5415 C   0  0  0  0  0  0
  -19.5753  -26.6391   21.5221 C   0  0  0  0  0  0
  -18.1931  -26.7945   22.1631 C   0  0  0  0  0  0
  -19.1536  -28.8873   23.2876 C   0  0  0  0  0  0
  -18.9462  -30.1475   23.8900 C   0  0  0  0  0  0
  -17.6457  -30.6598   24.0572 C   0  0  0  0  0  0
  -25.9059  -34.9433   23.5088 C   0  0  0  0  0  0
  -16.5347  -29.9098   23.6333 C   0  0  0  0  0  0
  -16.7271  -28.6513   23.0355 C   0  0  0  0  0  0
  -26.4509  -31.6572   25.0723 C   0  0  0  0  0  0
  -25.3728  -31.3741   26.1442 C   0  0  0  0  0  0
  -27.0347  -30.2981   24.6218 C   0  0  0  0  0  0
  -27.6055  -32.4312   25.7507 C   0  0  0  0  0  0
  -27.5575  -37.1797   24.8458 C   0  0  0  0  0  0
  -21.4203  -29.3054   22.3669 N   0  0  0  0  0  0
  -26.4283  -37.3759   23.9406 N   0  0  0  0  0  0
  -24.6955  -31.0525   22.0964 N   0  0  0  0  0  0
  -23.4210  -28.8148   23.3007 O   0  0  0  0  0  0
  -28.3043  -26.3591   20.2173 O   0  0  0  0  0  0
  -26.5628  -34.8908   22.4659 O   0  0  0  0  0  0
  -23.5462  -32.1381   23.7293 O   0  0  0  0  0  0
  -27.9051  -21.5145   22.2643 C   0  0  0  0  0  0
  -28.5622  -18.8698   22.3152 C   0  0  0  0  0  0
  -28.6735  -21.0477   21.1748 C   0  0  0  0  0  0
  -29.0204  -19.6032   21.1935 C   0  0  0  0  0  0
  -27.5212  -20.6676   23.3095 C   0  0  0  0  0  0
  -26.7225  -22.6039   26.6129 C   0  0  0  0  0  0
  -28.9522  -22.1888   20.1042 C   0  0  0  0  0  0
  -26.7011  -21.2063   24.4693 C   0  0  0  0  0  0
  -27.5622  -21.9318   25.5170 C   0  0  0  0  0  0
  -29.0885  -23.7591   20.5416 C   0  0  0  0  0  0
  -30.5454  -17.3135   20.6030 C   0  0  0  0  0  0
  -28.0578  -24.8871   20.0211 C   0  0  0  0  0  0
  -29.7862  -18.6937   20.1323 C   0  0  2  0  0  0
  -27.8543  -19.3693   23.3459 N   0  0  0  0  0  0
  -29.9381  -15.9060   20.6641 N   0  0  0  0  0  0
  -30.8107  -19.5368   19.4900 N   0  3  0  0  0  0
  -31.4693  -12.5527   19.1799 H   0  0  0  0  0  0
  -30.3514  -11.4754   19.9600 H   0  0  0  0  0  0
  -29.7994  -11.7412   17.5157 H   0  0  0  0  0  0
  -29.6464  -13.4687   17.7299 H   0  0  0  0  0  0
  -27.9036  -11.2818   18.9057 H   0  0  0  0  0  0
  -27.3853  -12.5189   17.7904 H   0  0  0  0  0  0
  -27.6330  -14.2541   19.4600 H   0  0  0  0  0  0
  -28.7189  -12.1871   21.4304 H   0  0  0  0  0  0
  -28.4223  -13.8743   21.7796 H   0  0  0  0  0  0
  -25.2755   -9.5731   22.4744 H   0  0  0  0  0  0
  -24.0039   -7.4660   22.7446 H   0  0  0  0  0  0
  -21.0861   -8.8743   19.8922 H   0  0  0  0  0  0
  -22.3672  -10.9667   19.6162 H   0  0  0  0  0  0
  -21.1982   -7.6144   23.9713 H   0  0  0  0  0  0
  -21.1486   -6.0515   25.9076 H   0  0  0  0  0  0
  -22.0601   -2.7616   23.2834 H   0  0  0  0  0  0
  -22.4149  -11.9883   22.4771 H   0  0  0  0  0  0
  -21.1117  -13.1204   22.2582 H   0  0  0  0  0  0
  -24.6563  -15.8429   20.5029 H   0  0  0  0  0  0
  -26.2688  -15.6205   20.0473 H   0  0  0  0  0  0
  -26.7208  -32.5398   23.1066 H   0  0  0  0  0  0
  -25.0055  -33.9692   25.0382 H   0  0  0  0  0  0
  -22.7222  -31.3006   21.3956 H   0  0  0  0  0  0
  -23.3737  -35.9631   23.3281 H   0  0  0  0  0  0
  -24.3578  -36.8943   22.2054 H   0  0  0  0  0  0
  -23.7260  -37.6495   23.6676 H   0  0  0  0  0  0
  -26.1038  -31.5261   20.6041 H   0  0  0  0  0  0
  -26.8518  -30.8241   22.0057 H   0  0  0  0  0  0
  -28.1079  -28.9142   21.2332 H   0  0  0  0  0  0
  -25.9505  -25.9163   18.9801 H   0  0  0  0  0  0
  -23.9750  -27.3190   18.9849 H   0  0  0  0  0  0
  -23.7677  -30.5882   19.4004 H   0  0  0  0  0  0
  -22.7624  -29.2439   19.8542 H   0  0  0  0  0  0
  -25.1292  -36.1891   25.0810 H   0  0  0  0  0  0
  -20.9975  -28.3281   24.1400 H   0  0  0  0  0  0
  -20.5687  -26.2317   23.3619 H   0  0  0  0  0  0
  -21.6644  -26.7461   22.1199 H   0  0  0  0  0  0
  -19.6914  -25.6301   21.1262 H   0  0  0  0  0  0
  -19.6690  -27.3199   20.6749 H   0  0  0  0  0  0
  -17.4200  -26.6686   21.4032 H   0  0  0  0  0  0
  -18.0326  -26.0088   22.9030 H   0  0  0  0  0  0
  -19.7933  -30.7289   24.2267 H   0  0  0  0  0  0
  -17.5012  -31.6283   24.5167 H   0  0  0  0  0  0
  -15.5356  -30.3002   23.7666 H   0  0  0  0  0  0
  -15.8663  -28.0837   22.7080 H   0  0  0  0  0  0
  -24.5891  -30.7101   25.7776 H   0  0  0  0  0  0
  -24.8938  -32.2925   26.4850 H   0  0  0  0  0  0
  -25.8041  -30.8929   27.0232 H   0  0  0  0  0  0
  -26.2938  -29.6728   24.1223 H   0  0  0  0  0  0
  -27.3996  -29.7242   25.4750 H   0  0  0  0  0  0
  -27.8828  -30.4236   23.9480 H   0  0  0  0  0  0
  -27.2648  -33.3604   26.2085 H   0  0  0  0  0  0
  -28.3877  -32.6891   25.0355 H   0  0  0  0  0  0
  -28.0704  -31.8440   26.5439 H   0  0  0  0  0  0
  -28.2571  -38.0112   24.7502 H   0  0  0  0  0  0
  -28.1094  -36.2643   24.6269 H   0  0  0  0  0  0
  -27.2297  -37.1424   25.8864 H   0  0  0  0  0  0
  -20.9387  -29.8780   21.6871 H   0  0  0  0  0  0
  -26.0152  -38.2828   24.1421 H   0  0  0  0  0  0
  -27.5781  -22.5434   22.3148 H   0  0  0  0  0  0
  -28.7448  -17.8084   22.3972 H   0  0  0  0  0  0
  -27.3571  -23.1299   27.3268 H   0  0  0  0  0  0
  -26.1340  -21.8737   27.1690 H   0  0  0  0  0  0
  -26.0301  -23.3339   26.1904 H   0  0  0  0  0  0
  -28.1664  -22.1121   19.3525 H   0  0  0  0  0  0
  -29.8684  -21.9371   19.5785 H   0  0  0  0  0  0
  -26.1570  -20.3869   24.9420 H   0  0  0  0  0  0
  -25.9435  -21.8804   24.0673 H   0  0  0  0  0  0
  -28.2623  -21.2285   25.9692 H   0  0  0  0  0  0
  -28.1684  -22.6934   25.0237 H   0  0  0  0  0  0
  -30.0658  -24.0779   20.1791 H   0  0  0  0  0  0
  -29.1918  -23.8419   21.6225 H   0  0  0  0  0  0
  -31.0409  -17.4972   21.5574 H   0  0  0  0  0  0
  -31.3761  -17.1942   19.9052 H   0  0  0  0  0  0
  -27.0987  -24.6401   20.4784 H   0  0  0  0  0  0
  -27.9272  -24.7324   18.9502 H   0  0  0  0  0  0
  -29.0632  -18.4295   19.3581 H   0  0  0  0  0  0
  -28.9504  -15.8243   20.8497 H   0  0  0  0  0  0
  -31.4688  -19.8904   20.1628 H   0  0  0  0  0  0
  -30.3855  -20.3060   19.0061 H   0  0  0  0  0  0
  -31.3141  -18.9965   18.8085 H   0  0  0  0  0  0
  1 25  1  0  0  0
  1 30  2  0  0  0
  1 85  1  0  0  0
  2  3  1  0  0  0
  2 25  1  0  0  0
  2 87  1  0  0  0
  2 88  1  0  0  0
  3  4  1  0  0  0
  3 89  1  0  0  0
  3 90  1  0  0  0
  4  5  1  0  0  0
  4 91  1  0  0  0
  4 92  1  0  0  0
  5  6  1  0  0  0
  5 26  1  0  0  0
  5 93  1  0  0  0
  6 25  1  0  0  0
  6 94  1  0  0  0
  6 95  1  0  0  0
  7  8  2  0  0  0
  7 26  1  0  0  0
  7 29  1  0  0  0
  8  9  1  0  0  0
  8 22  1  0  0  0
  9 10  1  0  0  0
  9 27  2  0  0  0
 10 11  2  0  0  0
 10 15  1  0  0  0
 11 12  1  0  0  0
 11 96  1  0  0  0
 12 13  2  0  0  0
 12 97  1  0  0  0
 13 14  1  0  0  0
 13 31  1  0  0  0
 14 15  2  0  0  0
 14 98  1  0  0  0
 15 99  1  0  0  0
 16 17  2  0  0  0
 16 21  1  0  0  0
 16 31  1  0  0  0
 17 18  1  0  0  0
 17100  1  0  0  0
 18 19  2  0  0  0
 18101  1  0  0  0
 19 20  1  0  0  0
 19 24  1  0  0  0
 20 21  2  0  0  0
 20102  1  0  0  0
 21 23  1  0  0  0
 22 28  1  0  0  0
 22 32  2  0  0  0
 26 27  1  0  0  0
 28103  1  0  0  0
 28104  1  0  0  0
 29105  1  0  0  0
 29106  1  0  0  0
 33 34  1  0  0  0
 33 66  1  0  0  0
 33 70  2  0  0  0
 34 36  1  0  0  0
 34 59  1  0  0  0
 34107  1  0  0  0
 35 44  2  0  0  0
 35 45  1  0  0  0
 35 68  1  0  0  0
 36 56  1  0  0  0
 36108  1  0  0  0
 37 39  1  0  0  0
 37 47  1  0  0  0
 37 66  1  0  0  0
 37109  1  0  0  0
 38 43  2  0  0  0
 38 46  1  0  0  0
 38 47  1  0  0  0
 39 64  1  0  0  0
 39 67  2  0  0  0
 40 52  1  0  0  0
 40 53  2  0  0  0
 40 58  1  0  0  0
 41110  1  0  0  0
 41111  1  0  0  0
 41112  1  0  0  0
 41 48  1  0  0  0
 42 43  1  0  0  0
 42 66  1  0  0  0
 42113  1  0  0  0
 42114  1  0  0  0
 43 44  1  0  0  0
 44115  1  0  0  0
 45 46  2  0  0  0
 45116  1  0  0  0
 46117  1  0  0  0
 47118  1  0  0  0
 47119  1  0  0  0
 48 56  1  0  0  0
 48 65  1  0  0  0
 48120  1  0  0  0
 49 50  1  0  0  0
 49 53  1  0  0  0
 49 64  1  0  0  0
 49121  1  0  0  0
 50 51  1  0  0  0
 50122  1  0  0  0
 50123  1  0  0  0
 51 52  1  0  0  0
 51124  1  0  0  0
 51125  1  0  0  0
 52126  1  0  0  0
 52127  1  0  0  0
 53 54  1  0  0  0
 54 55  2  0  0  0
 54128  1  0  0  0
 55 57  1  0  0  0
 55129  1  0  0  0
 56 69  2  0  0  0
 57 58  2  0  0  0
 57130  1  0  0  0
 58131  1  0  0  0
 59 60  1  0  0  0
 59 61  1  0  0  0
 59 62  1  0  0  0
 60132  1  0  0  0
 60133  1  0  0  0
 60134  1  0  0  0
 61135  1  0  0  0
 61136  1  0  0  0
 61137  1  0  0  0
 62138  1  0  0  0
 62139  1  0  0  0
 62140  1  0  0  0
 63 65  1  0  0  0
 63141  1  0  0  0
 63142  1  0  0  0
 63143  1  0  0  0
 64144  1  0  0  0
 65145  1  0  0  0
 68 82  1  0  0  0
 71 73  2  0  0  0
 71 75  1  0  0  0
 71146  1  0  0  0
 72 74  2  0  0  0
 72 84  1  0  0  0
 72147  1  0  0  0
 73 74  1  0  0  0
 73 77  1  0  0  0
 74 83  1  0  0  0
 75 78  1  0  0  0
 75 84  2  0  0  0
 76 79  1  0  0  0
 76148  1  0  0  0
 76149  1  0  0  0
 76150  1  0  0  0
 77 80  1  0  0  0
 77151  1  0  0  0
 77152  1  0  0  0
 78 79  1  0  0  0
 78153  1  0  0  0
 78154  1  0  0  0
 79155  1  0  0  0
 79156  1  0  0  0
 80 82  1  0  0  0
 80157  1  0  0  0
 80158  1  0  0  0
 81 83  1  0  0  0
 81 85  1  0  0  0
 81159  1  0  0  0
 81160  1  0  0  0
 82161  1  0  0  0
 82162  1  0  0  0
 83 86  1  0  0  0
 83163  1  0  0  0
 85164  1  0  0  0
 86165  1  0  0  0
 86166  1  0  0  0
 86167  1  0  0  0
M  CHG  1  86   1
M  ISO  4   1 100  68 101  82 101  85 100
M  END
> <chiral flag>
0

> <version>
0

> <s_m_source_file>
/data/baiqing/PycharmProjects/Reinvent-master-3.2/result/LINK_invent/BTK/process_docking_weight1_custom_sum_contain_oxygen_bond_distance_aromatic_linkinvent_7_9_3/rearranged_h_0085.sdf

> <i_m_source_file_index>
5

> <r_mmod_Potential_Energy-OPLS-2005>
-211.195373535156

> <r_mmod_Stretch_Energy-OPLS-2005>
139.488464355469

> <r_mmod_Bend_Energy-OPLS-2005>
210.441253662109

> <r_mmod_Torsional_Energy-OPLS-2005>
228.676559448242

> <r_mmod_Improper_Torsional_Energy-OPLS-2005>
5.03115034103394

> <r_mmod_Van_der_Waal_Energy-OPLS-2005>
149.911529541016

> <r_mmod_Electrostatic_Energy-OPLS-2005>
-504.773193359375

> <r_mmod_Solvation_Energy-OPLS-2005>
-524.546813964844

> <b_mmod_Minimization_Converged-OPLS-2005>
0

> <r_mmod_RMS_Derivative-OPLS-2005>
2.51292276382446

$$$$
5
                    3D
 Structure written by MMmdl.
152160  0  0  1  0            999 V2000
  -30.5834  -14.8570   20.4435 C   0  0  0  0  0  0
  -30.4388  -12.5286   19.4907 C   0  0  0  0  0  0
  -29.5185  -12.5191   18.2493 C   0  0  0  0  0  0
  -28.0480  -12.3227   18.6640 C   0  0  0  0  0  0
  -27.6365  -13.2417   19.8445 C   0  0  2  0  0  0
  -28.6806  -13.2312   20.9823 C   0  0  0  0  0  0
  -25.2487  -13.8210   20.5701 C   0  0  0  0  0  0
  -24.1791  -13.0441   20.9216 C   0  0  0  0  0  0
  -24.6397  -11.6923   20.8750 C   0  0  0  0  0  0
  -23.9078  -10.4294   21.0405 C   0  0  0  0  0  0
  -24.3625   -9.4208   21.9182 C   0  0  0  0  0  0
  -23.6297   -8.2245   22.0753 C   0  0  0  0  0  0
  -22.4280   -8.0282   21.3543 C   0  0  0  0  0  0
  -21.9920   -9.0255   20.4644 C   0  0  0  0  0  0
  -22.7252  -10.2132   20.3053 C   0  0  0  0  0  0
  -21.6856   -6.0735   22.5277 C   0  0  0  0  0  0
  -21.4016   -6.5639   23.8210 C   0  0  0  0  0  0
  -21.3660   -5.6792   24.9172 C   0  0  0  0  0  0
  -21.6046   -4.3055   24.7223 C   0  0  0  0  0  0
  -21.8820   -3.8146   23.4344 C   0  0  0  0  0  0
  -21.9194   -4.6962   22.3400 C   0  0  0  0  0  0
  -22.7811  -13.5213   21.1872 C   0  0  0  0  0  0
  -22.1662   -4.2148   21.0978 F   0  0  0  0  0  0
  -21.5629   -3.4539   25.7736 F   0  0  0  0  0  0
  -29.9698  -13.6139   20.3923 N   0  0  0  0  0  0
  -26.2916  -12.9433   20.3263 N   0  0  0  0  0  0
  -25.9329  -11.6568   20.5743 N   0  0  0  0  0  0
  -22.0462  -12.8197   22.0426 N   0  0  0  0  0  0
  -25.4167  -15.1937   20.4115 N   0  0  0  0  0  0
  -31.7779  -14.9353   20.1429 O   0  0  0  0  0  0
  -21.6644   -6.8879   21.4239 O   0  0  0  0  0  0
  -22.3493  -14.5516   20.6718 O   0  0  0  0  0  0
  -24.6407  -31.8497   23.1956 C   0  0  0  0  0  0
  -25.9200  -32.4726   23.8319 C   0  0  1  0  0  0
  -27.2062  -27.1722   20.1370 C   0  0  0  0  0  0
  -25.5965  -33.8530   24.2232 N   0  0  0  0  0  0
  -23.4411  -30.4757   21.5411 C   0  0  2  0  0  0
  -24.8884  -28.9189   20.1104 C   0  0  0  0  0  0
  -22.7554  -29.4588   22.4880 C   0  0  0  0  0  0
  -18.0306  -28.1397   22.8483 C   0  0  0  0  0  0
  -24.1487  -36.7265   23.2641 C   0  0  0  0  0  0
  -25.9977  -30.7329   21.3937 C   0  0  0  0  0  0
  -26.0673  -29.3496   20.7333 C   0  0  0  0  0  0
  -27.2284  -28.4910   20.7377 C   0  0  0  0  0  0
  -26.0088  -26.8608   19.4487 C   0  0  0  0  0  0
  -24.8706  -27.6850   19.4540 C   0  0  0  0  0  0
  -23.6650  -29.8165   20.1571 C   0  0  0  0  0  0
  -25.4119  -36.3051   24.0321 C   0  0  1  0  0  0
  -20.5917  -28.3721   23.1242 C   0  0  2  0  0  0
  -20.6792  -26.9430   22.5398 C   0  0  0  0  0  0
  -19.5762  -26.6386   21.5211 C   0  0  0  0  0  0
  -18.1943  -26.7937   22.1625 C   0  0  0  0  0  0
  -19.1562  -28.8876   23.2854 C   0  0  0  0  0  0
  -18.9482  -30.1472   23.8881 C   0  0  0  0  0  0
  -17.6478  -30.6595   24.0563 C   0  0  0  0  0  0
  -25.9067  -34.9425   23.5077 C   0  0  0  0  0  0
  -16.5369  -29.9090   23.6337 C   0  0  0  0  0  0
  -16.7289  -28.6506   23.0362 C   0  0  0  0  0  0
  -26.4529  -31.6575   25.0743 C   0  0  0  0  0  0
  -25.3721  -31.3758   26.1440 C   0  0  0  0  0  0
  -27.0386  -30.2975   24.6304 C   0  0  0  0  0  0
  -27.6062  -32.4331   25.7529 C   0  0  0  0  0  0
  -27.5574  -37.1797   24.8469 C   0  0  0  0  0  0
  -21.4251  -29.3058   22.3621 N   0  0  0  0  0  0
  -26.4285  -37.3764   23.9411 N   0  0  0  0  0  0
  -24.7128  -31.0393   22.0979 N   0  0  0  0  0  0
  -23.4214  -28.8118   23.3001 O   0  0  0  0  0  0
  -28.2346  -26.1658   20.2016 O   0  0  0  0  0  0
  -26.5641  -34.8910   22.4649 O   0  0  0  0  0  0
  -23.5534  -32.1361   23.7196 O   0  0  0  0  0  0
  -28.6540  -22.4831   19.1768 C   0  0  0  0  0  0
  -28.9279  -21.0657   19.2060 C   0  0  0  0  0  0
  -28.5778  -23.2870   20.3564 C   0  0  0  0  0  0
  -29.1527  -20.3476   20.4165 C   0  0  0  0  0  0
  -28.9038  -22.5052   21.5186 C   0  0  0  0  0  0
  -28.8715  -23.1527   22.8884 C   0  0  0  0  0  0
  -27.7649  -24.7083   20.3848 C   0  0  0  0  0  0
  -29.0098  -18.7184   20.5388 C   0  0  0  0  0  0
  -30.1787  -17.5445   20.5071 C   0  0  0  0  0  0
  -29.1730  -21.1370   21.5405 N   0  0  0  0  0  0
  -29.8166  -16.0231   20.6237 N   0  0  0  0  0  0
  -31.4761  -12.6700   19.1832 H   0  0  0  0  0  0
  -30.4083  -11.5662   20.0040 H   0  0  0  0  0  0
  -29.8214  -11.7302   17.5594 H   0  0  0  0  0  0
  -29.6242  -13.4595   17.7062 H   0  0  0  0  0  0
  -27.9255  -11.2777   18.9515 H   0  0  0  0  0  0
  -27.3885  -12.4826   17.8102 H   0  0  0  0  0  0
  -27.6132  -14.2522   19.4355 H   0  0  0  0  0  0
  -28.7434  -12.2469   21.4481 H   0  0  0  0  0  0
  -28.3956  -13.9283   21.7720 H   0  0  0  0  0  0
  -25.2769   -9.5685   22.4759 H   0  0  0  0  0  0
  -24.0005   -7.4638   22.7474 H   0  0  0  0  0  0
  -21.0852   -8.8774   19.8948 H   0  0  0  0  0  0
  -22.3710  -10.9669   19.6161 H   0  0  0  0  0  0
  -21.2010   -7.6148   23.9713 H   0  0  0  0  0  0
  -21.1483   -6.0522   25.9075 H   0  0  0  0  0  0
  -22.0599   -2.7608   23.2844 H   0  0  0  0  0  0
  -22.4087  -11.9858   22.4810 H   0  0  0  0  0  0
  -21.1076  -13.1208   22.2631 H   0  0  0  0  0  0
  -24.6465  -15.8452   20.5176 H   0  0  0  0  0  0
  -26.2566  -15.6313   20.0560 H   0  0  0  0  0  0
  -26.7263  -32.5345   23.1047 H   0  0  0  0  0  0
  -25.0120  -33.9653   25.0386 H   0  0  0  0  0  0
  -22.7422  -31.3019   21.3941 H   0  0  0  0  0  0
  -23.3754  -35.9592   23.3297 H   0  0  0  0  0  0
  -24.3573  -36.8897   22.2055 H   0  0  0  0  0  0
  -23.7232  -37.6462   23.6673 H   0  0  0  0  0  0
  -26.1534  -31.4895   20.6233 H   0  0  0  0  0  0
  -26.8691  -30.7784   22.0349 H   0  0  0  0  0  0
  -28.1206  -28.8126   21.2570 H   0  0  0  0  0  0
  -25.8990  -25.9518   18.8820 H   0  0  0  0  0  0
  -23.9784  -27.3585   18.9367 H   0  0  0  0  0  0
  -23.8000  -30.5959   19.4059 H   0  0  0  0  0  0
  -22.7796  -29.2600   19.8438 H   0  0  0  0  0  0
  -25.1304  -36.1887   25.0813 H   0  0  0  0  0  0
  -21.0012  -28.3303   24.1361 H   0  0  0  0  0  0
  -20.5696  -26.2338   23.3615 H   0  0  0  0  0  0
  -21.6660  -26.7446   22.1195 H   0  0  0  0  0  0
  -19.6924  -25.6292   21.1250 H   0  0  0  0  0  0
  -19.6692  -27.3190   20.6735 H   0  0  0  0  0  0
  -17.4215  -26.6685   21.4024 H   0  0  0  0  0  0
  -18.0341  -26.0083   22.9026 H   0  0  0  0  0  0
  -19.7955  -30.7293   24.2245 H   0  0  0  0  0  0
  -17.5032  -31.6275   24.5165 H   0  0  0  0  0  0
  -15.5368  -30.2988   23.7670 H   0  0  0  0  0  0
  -15.8689  -28.0814   22.7095 H   0  0  0  0  0  0
  -24.5920  -30.7075   25.7776 H   0  0  0  0  0  0
  -24.8884  -32.2936   26.4795 H   0  0  0  0  0  0
  -25.8015  -30.8997   27.0262 H   0  0  0  0  0  0
  -26.3001  -29.6714   24.1286 H   0  0  0  0  0  0
  -27.3982  -29.7258   25.4868 H   0  0  0  0  0  0
  -27.8918  -30.4220   23.9633 H   0  0  0  0  0  0
  -27.2664  -33.3655   26.2050 H   0  0  0  0  0  0
  -28.3914  -32.6849   25.0386 H   0  0  0  0  0  0
  -28.0684  -31.8490   26.5496 H   0  0  0  0  0  0
  -28.2598  -38.0091   24.7518 H   0  0  0  0  0  0
  -28.1065  -36.2623   24.6294 H   0  0  0  0  0  0
  -27.2293  -37.1444   25.8873 H   0  0  0  0  0  0
  -20.9452  -29.8782   21.6820 H   0  0  0  0  0  0
  -26.0152  -38.2832   24.1415 H   0  0  0  0  0  0
  -28.3790  -22.9276   18.2311 H   0  0  0  0  0  0
  -28.8533  -20.5106   18.2806 H   0  0  0  0  0  0
  -29.2644  -24.1686   22.8454 H   0  0  0  0  0  0
  -29.4750  -22.5953   23.6055 H   0  0  0  0  0  0
  -27.8496  -23.1953   23.2650 H   0  0  0  0  0  0
  -27.1893  -24.7059   21.3111 H   0  0  0  0  0  0
  -27.0294  -24.4934   19.6179 H   0  0  0  0  0  0
  -28.2972  -18.4506   19.7584 H   0  0  0  0  0  0
  -28.4545  -18.5611   21.4637 H   0  0  0  0  0  0
  -30.8888  -17.7624   21.3053 H   0  0  0  0  0  0
  -30.7420  -17.6652   19.5816 H   0  0  0  0  0  0
  -28.8469  -15.8374   20.8332 H   0  0  0  0  0  0
  1 25  1  0  0  0
  1 30  2  0  0  0
  1 81  1  0  0  0
  2  3  1  0  0  0
  2 25  1  0  0  0
  2 82  1  0  0  0
  2 83  1  0  0  0
  3  4  1  0  0  0
  3 84  1  0  0  0
  3 85  1  0  0  0
  4  5  1  0  0  0
  4 86  1  0  0  0
  4 87  1  0  0  0
  5  6  1  0  0  0
  5 26  1  0  0  0
  5 88  1  0  0  0
  6 25  1  0  0  0
  6 89  1  0  0  0
  6 90  1  0  0  0
  7  8  2  0  0  0
  7 26  1  0  0  0
  7 29  1  0  0  0
  8  9  1  0  0  0
  8 22  1  0  0  0
  9 10  1  0  0  0
  9 27  2  0  0  0
 10 11  2  0  0  0
 10 15  1  0  0  0
 11 12  1  0  0  0
 11 91  1  0  0  0
 12 13  2  0  0  0
 12 92  1  0  0  0
 13 14  1  0  0  0
 13 31  1  0  0  0
 14 15  2  0  0  0
 14 93  1  0  0  0
 15 94  1  0  0  0
 16 17  2  0  0  0
 16 21  1  0  0  0
 16 31  1  0  0  0
 17 18  1  0  0  0
 17 95  1  0  0  0
 18 19  2  0  0  0
 18 96  1  0  0  0
 19 20  1  0  0  0
 19 24  1  0  0  0
 20 21  2  0  0  0
 20 97  1  0  0  0
 21 23  1  0  0  0
 22 28  1  0  0  0
 22 32  2  0  0  0
 26 27  1  0  0  0
 28 98  1  0  0  0
 28 99  1  0  0  0
 29100  1  0  0  0
 29101  1  0  0  0
 33 34  1  0  0  0
 33 66  1  0  0  0
 33 70  2  0  0  0
 34 36  1  0  0  0
 34 59  1  0  0  0
 34102  1  0  0  0
 35 44  2  0  0  0
 35 45  1  0  0  0
 35 68  1  0  0  0
 36 56  1  0  0  0
 36103  1  0  0  0
 37 39  1  0  0  0
 37 47  1  0  0  0
 37 66  1  0  0  0
 37104  1  0  0  0
 38 43  2  0  0  0
 38 46  1  0  0  0
 38 47  1  0  0  0
 39 64  1  0  0  0
 39 67  2  0  0  0
 40 52  1  0  0  0
 40 53  2  0  0  0
 40 58  1  0  0  0
 41105  1  0  0  0
 41106  1  0  0  0
 41107  1  0  0  0
 41 48  1  0  0  0
 42 43  1  0  0  0
 42 66  1  0  0  0
 42108  1  0  0  0
 42109  1  0  0  0
 43 44  1  0  0  0
 44110  1  0  0  0
 45 46  2  0  0  0
 45111  1  0  0  0
 46112  1  0  0  0
 47113  1  0  0  0
 47114  1  0  0  0
 48 56  1  0  0  0
 48 65  1  0  0  0
 48115  1  0  0  0
 49 50  1  0  0  0
 49 53  1  0  0  0
 49 64  1  0  0  0
 49116  1  0  0  0
 50 51  1  0  0  0
 50117  1  0  0  0
 50118  1  0  0  0
 51 52  1  0  0  0
 51119  1  0  0  0
 51120  1  0  0  0
 52121  1  0  0  0
 52122  1  0  0  0
 53 54  1  0  0  0
 54 55  2  0  0  0
 54123  1  0  0  0
 55 57  1  0  0  0
 55124  1  0  0  0
 56 69  2  0  0  0
 57 58  2  0  0  0
 57125  1  0  0  0
 58126  1  0  0  0
 59 60  1  0  0  0
 59 61  1  0  0  0
 59 62  1  0  0  0
 60127  1  0  0  0
 60128  1  0  0  0
 60129  1  0  0  0
 61130  1  0  0  0
 61131  1  0  0  0
 61132  1  0  0  0
 62133  1  0  0  0
 62134  1  0  0  0
 62135  1  0  0  0
 63 65  1  0  0  0
 63136  1  0  0  0
 63137  1  0  0  0
 63138  1  0  0  0
 64139  1  0  0  0
 65140  1  0  0  0
 68 77  1  0  0  0
 71 72  2  0  0  0
 71 73  1  0  0  0
 71141  1  0  0  0
 72 74  1  0  0  0
 72142  1  0  0  0
 73 75  2  0  0  0
 73 77  1  0  0  0
 74 78  1  0  0  0
 74 80  2  0  0  0
 75 76  1  0  0  0
 75 80  1  0  0  0
 76143  1  0  0  0
 76144  1  0  0  0
 76145  1  0  0  0
 77146  1  0  0  0
 77147  1  0  0  0
 78 79  1  0  0  0
 78148  1  0  0  0
 78149  1  0  0  0
 79 81  1  0  0  0
 79150  1  0  0  0
 79151  1  0  0  0
 81152  1  0  0  0
M  ISO  4   1 100  68 101  77 101  81 100
M  END
> <chiral flag>
0

> <version>
0

> <s_m_source_file>
/data/baiqing/PycharmProjects/Reinvent-master-3.2/result/LINK_invent/BTK/process_docking_weight1_custom_sum_contain_oxygen_bond_distance_aromatic_linkinvent_7_9_3/rearranged_h_0085.sdf

> <i_m_source_file_index>
6

> <r_mmod_Potential_Energy-OPLS-2005>
257.475280761719

> <r_mmod_Stretch_Energy-OPLS-2005>
191.350402832031

> <r_mmod_Bend_Energy-OPLS-2005>
236.283828735352

> <r_mmod_Torsional_Energy-OPLS-2005>
236.376052856445

> <r_mmod_Improper_Torsional_Energy-OPLS-2005>
11.4778814315796

> <r_mmod_Van_der_Waal_Energy-OPLS-2005>
142.132217407227

> <r_mmod_Electrostatic_Energy-OPLS-2005>
-481.587524414062

> <r_mmod_Solvation_Energy-OPLS-2005>
-230.16535949707

> <b_mmod_Minimization_Converged-OPLS-2005>
0

> <r_mmod_RMS_Derivative-OPLS-2005>
0.623203575611115

$$$$
6
                    3D
 Structure written by MMmdl.
162170  0  0  1  0            999 V2000
  -30.5530  -14.7685   20.4511 C   0  0  0  0  0  0
  -30.4423  -12.4698   19.4469 C   0  0  0  0  0  0
  -29.5012  -12.4913   18.2210 C   0  0  0  0  0  0
  -28.0309  -12.3098   18.6516 C   0  0  0  0  0  0
  -27.6407  -13.2153   19.8492 C   0  0  2  0  0  0
  -28.6900  -13.1407   20.9763 C   0  0  0  0  0  0
  -25.2558  -13.8142   20.5707 C   0  0  0  0  0  0
  -24.1830  -13.0415   20.9198 C   0  0  0  0  0  0
  -24.6393  -11.6872   20.8769 C   0  0  0  0  0  0
  -23.9066  -10.4277   21.0431 C   0  0  0  0  0  0
  -24.3615   -9.4204   21.9205 C   0  0  0  0  0  0
  -23.6292   -8.2243   22.0775 C   0  0  0  0  0  0
  -22.4280   -8.0286   21.3558 C   0  0  0  0  0  0
  -21.9924   -9.0257   20.4660 C   0  0  0  0  0  0
  -22.7247  -10.2134   20.3083 C   0  0  0  0  0  0
  -21.6852   -6.0741   22.5272 C   0  0  0  0  0  0
  -21.4012   -6.5637   23.8202 C   0  0  0  0  0  0
  -21.3657   -5.6801   24.9171 C   0  0  0  0  0  0
  -21.6042   -4.3065   24.7218 C   0  0  0  0  0  0
  -21.8822   -3.8154   23.4340 C   0  0  0  0  0  0
  -21.9192   -4.6972   22.3398 C   0  0  0  0  0  0
  -22.7859  -13.5231   21.1848 C   0  0  0  0  0  0
  -22.1672   -4.2155   21.0970 F   0  0  0  0  0  0
  -21.5627   -3.4545   25.7736 F   0  0  0  0  0  0
  -29.9765  -13.5193   20.3816 N   0  0  0  0  0  0
  -26.2941  -12.9305   20.3286 N   0  0  0  0  0  0
  -25.9309  -11.6471   20.5766 N   0  0  0  0  0  0
  -22.0510  -12.8220   22.0397 N   0  0  0  0  0  0
  -25.4265  -15.1868   20.4120 N   0  0  0  0  0  0
  -31.7570  -14.9113   20.2167 O   0  0  0  0  0  0
  -21.6647   -6.8879   21.4235 O   0  0  0  0  0  0
  -22.3581  -14.5554   20.6695 O   0  0  0  0  0  0
  -24.6306  -31.8536   23.1974 C   0  0  0  0  0  0
  -25.9131  -32.4727   23.8342 C   0  0  1  0  0  0
  -27.2376  -27.2379   20.1520 C   0  0  0  0  0  0
  -25.5900  -33.8533   24.2232 N   0  0  0  0  0  0
  -23.4328  -30.4713   21.5403 C   0  0  2  0  0  0
  -24.8792  -28.8940   20.1278 C   0  0  0  0  0  0
  -22.7502  -29.4617   22.4939 C   0  0  0  0  0  0
  -18.0296  -28.1356   22.8511 C   0  0  0  0  0  0
  -24.1483  -36.7293   23.2661 C   0  0  0  0  0  0
  -25.9757  -30.7558   21.3835 C   0  0  0  0  0  0
  -26.0483  -29.3714   20.7308 C   0  0  0  0  0  0
  -27.2257  -28.5607   20.7192 C   0  0  0  0  0  0
  -26.0410  -26.8126   19.5372 C   0  0  0  0  0  0
  -24.8783  -27.6229   19.5251 C   0  0  0  0  0  0
  -23.6537  -29.7908   20.1633 C   0  0  0  0  0  0
  -25.4123  -36.3056   24.0304 C   0  0  1  0  0  0
  -20.5899  -28.3720   23.1245 C   0  0  2  0  0  0
  -20.6787  -26.9428   22.5405 C   0  0  0  0  0  0
  -19.5765  -26.6371   21.5201 C   0  0  0  0  0  0
  -18.1953  -26.7913   22.1620 C   0  0  0  0  0  0
  -19.1549  -28.8836   23.2873 C   0  0  0  0  0  0
  -18.9490  -30.1427   23.8922 C   0  0  0  0  0  0
  -17.6491  -30.6581   24.0549 C   0  0  0  0  0  0
  -25.9067  -34.9411   23.5087 C   0  0  0  0  0  0
  -16.5379  -29.9080   23.6306 C   0  0  0  0  0  0
  -16.7288  -28.6472   23.0389 C   0  0  0  0  0  0
  -26.4487  -31.6590   25.0774 C   0  0  0  0  0  0
  -25.3653  -31.3708   26.1451 C   0  0  0  0  0  0
  -27.0386  -30.2996   24.6320 C   0  0  0  0  0  0
  -27.6017  -32.4393   25.7497 C   0  0  0  0  0  0
  -27.5602  -37.1771   24.8450 C   0  0  0  0  0  0
  -21.4212  -29.3076   22.3630 N   0  0  0  0  0  0
  -26.4325  -37.3734   23.9394 N   0  0  0  0  0  0
  -24.6998  -31.0463   22.0970 N   0  0  0  0  0  0
  -23.4182  -28.8199   23.3101 O   0  0  0  0  0  0
  -28.4206  -26.4627   20.1259 O   0  0  0  0  0  0
  -26.5698  -34.8889   22.4695 O   0  0  0  0  0  0
  -23.5447  -32.1407   23.7220 O   0  0  0  0  0  0
  -29.1976  -21.2996   20.3489 C   0  0  0  0  0  0
  -28.8405  -19.9075   20.0198 C   0  0  0  0  0  0
  -28.0915  -22.1474   20.1225 C   0  0  0  0  0  0
  -25.7828  -21.4627   17.6111 C   0  0  0  0  0  0
  -30.9228  -18.7340   19.0099 C   0  0  0  0  0  0
  -26.7701  -23.8600   21.5075 C   0  0  0  0  0  0
  -25.7914  -21.4529   19.1519 C   0  0  0  0  0  0
  -29.7955  -17.3517   20.9105 C   0  0  0  0  0  0
  -28.6801  -24.9617   20.2410 C   0  0  0  0  0  0
  -29.5999  -18.5000   19.7705 C   0  0  1  0  0  0
  -27.6595  -23.7007   20.2540 C   0  0  1  0  0  0
  -27.5694  -19.9338   19.6577 N   0  0  0  0  0  0
  -27.1388  -21.2258   19.6719 N   0  0  0  0  0  0
  -29.6840  -15.8466   20.5864 N   0  0  0  0  0  0
  -31.4740  -12.6286   19.1314 H   0  0  0  0  0  0
  -30.4153  -11.4911   19.9283 H   0  0  0  0  0  0
  -29.7758  -11.7030   17.5179 H   0  0  0  0  0  0
  -29.6163  -13.4326   17.6821 H   0  0  0  0  0  0
  -27.8975  -11.2633   18.9281 H   0  0  0  0  0  0
  -27.3620  -12.4832   17.8086 H   0  0  0  0  0  0
  -27.6364  -14.2358   19.4660 H   0  0  0  0  0  0
  -28.7346  -12.1358   21.4005 H   0  0  0  0  0  0
  -28.4205  -13.8020   21.8039 H   0  0  0  0  0  0
  -25.2763   -9.5675   22.4799 H   0  0  0  0  0  0
  -23.9984   -7.4651   22.7524 H   0  0  0  0  0  0
  -21.0848   -8.8788   19.8981 H   0  0  0  0  0  0
  -22.3694  -10.9696   19.6210 H   0  0  0  0  0  0
  -21.2006   -7.6155   23.9691 H   0  0  0  0  0  0
  -21.1474   -6.0544   25.9072 H   0  0  0  0  0  0
  -22.0599   -2.7617   23.2839 H   0  0  0  0  0  0
  -22.4140  -11.9873   22.4747 H   0  0  0  0  0  0
  -21.1165  -13.1277   22.2639 H   0  0  0  0  0  0
  -24.6511  -15.8299   20.5241 H   0  0  0  0  0  0
  -26.2524  -15.6306   20.0368 H   0  0  0  0  0  0
  -26.7203  -32.5337   23.1094 H   0  0  0  0  0  0
  -24.9835  -33.9631   25.0240 H   0  0  0  0  0  0
  -22.7299  -31.2915   21.3866 H   0  0  0  0  0  0
  -23.3739  -35.9635   23.3310 H   0  0  0  0  0  0
  -24.3555  -36.8993   22.2088 H   0  0  0  0  0  0
  -23.7251  -37.6486   23.6722 H   0  0  0  0  0  0
  -26.1293  -31.5175   20.6171 H   0  0  0  0  0  0
  -26.8424  -30.7961   22.0308 H   0  0  0  0  0  0
  -28.1331  -28.9407   21.1677 H   0  0  0  0  0  0
  -25.9945  -25.8491   19.0558 H   0  0  0  0  0  0
  -23.9781  -27.2503   19.0569 H   0  0  0  0  0  0
  -23.7864  -30.5585   19.4010 H   0  0  0  0  0  0
  -22.7659  -29.2353   19.8633 H   0  0  0  0  0  0
  -25.1291  -36.1912   25.0790 H   0  0  0  0  0  0
  -20.9996  -28.3339   24.1356 H   0  0  0  0  0  0
  -20.5692  -26.2340   23.3639 H   0  0  0  0  0  0
  -21.6654  -26.7466   22.1214 H   0  0  0  0  0  0
  -19.6943  -25.6281   21.1247 H   0  0  0  0  0  0
  -19.6672  -27.3147   20.6705 H   0  0  0  0  0  0
  -17.4235  -26.6670   21.4000 H   0  0  0  0  0  0
  -18.0339  -26.0007   22.8963 H   0  0  0  0  0  0
  -19.7955  -30.7183   24.2350 H   0  0  0  0  0  0
  -17.5067  -31.6258   24.5152 H   0  0  0  0  0  0
  -15.5367  -30.3003   23.7610 H   0  0  0  0  0  0
  -15.8685  -28.0748   22.7168 H   0  0  0  0  0  0
  -24.5840  -30.7072   25.7735 H   0  0  0  0  0  0
  -24.8797  -32.2840   26.4860 H   0  0  0  0  0  0
  -25.7918  -30.8871   27.0249 H   0  0  0  0  0  0
  -26.3002  -29.6624   24.1459 H   0  0  0  0  0  0
  -27.4176  -29.7385   25.4885 H   0  0  0  0  0  0
  -27.8806  -30.4265   23.9530 H   0  0  0  0  0  0
  -27.2644  -33.3745   26.1976 H   0  0  0  0  0  0
  -28.3816  -32.6918   25.0297 H   0  0  0  0  0  0
  -28.0712  -31.8638   26.5472 H   0  0  0  0  0  0
  -28.2571  -38.0126   24.7593 H   0  0  0  0  0  0
  -28.1165  -36.2653   24.6187 H   0  0  0  0  0  0
  -27.2314  -37.1352   25.8858 H   0  0  0  0  0  0
  -20.9441  -29.8776   21.6791 H   0  0  0  0  0  0
  -26.0202  -38.2801   24.1433 H   0  0  0  0  0  0
  -30.1730  -21.6378   20.6685 H   0  0  0  0  0  0
  -24.7990  -21.7268   17.2203 H   0  0  0  0  0  0
  -26.0404  -20.4795   17.2090 H   0  0  0  0  0  0
  -26.5042  -22.1832   17.2205 H   0  0  0  0  0  0
  -30.7464  -19.2430   18.0598 H   0  0  0  0  0  0
  -31.4191  -17.7917   18.7681 H   0  0  0  0  0  0
  -31.6276  -19.3356   19.5900 H   0  0  0  0  0  0
  -25.9713  -23.1209   21.5497 H   0  0  0  0  0  0
  -26.3001  -24.8453   21.5281 H   0  0  0  0  0  0
  -27.3512  -23.7535   22.4249 H   0  0  0  0  0  0
  -25.1255  -20.6698   19.5247 H   0  0  0  0  0  0
  -25.3851  -22.3895   19.5325 H   0  0  0  0  0  0
  -29.0013  -17.5098   21.6407 H   0  0  0  0  0  0
  -30.7164  -17.5324   21.4687 H   0  0  0  0  0  0
  -29.3825  -24.7610   19.4279 H   0  0  0  0  0  0
  -29.2983  -24.8660   21.1421 H   0  0  0  0  0  0
  -28.9690  -17.9856   19.0389 H   0  0  0  0  0  0
  -27.0336  -23.8860   19.3796 H   0  0  0  0  0  0
  -28.7286  -15.5298   20.6112 H   0  0  0  0  0  0
  1 25  1  0  0  0
  1 30  2  0  0  0
  1 84  1  0  0  0
  2  3  1  0  0  0
  2 25  1  0  0  0
  2 85  1  0  0  0
  2 86  1  0  0  0
  3  4  1  0  0  0
  3 87  1  0  0  0
  3 88  1  0  0  0
  4  5  1  0  0  0
  4 89  1  0  0  0
  4 90  1  0  0  0
  5  6  1  0  0  0
  5 26  1  0  0  0
  5 91  1  0  0  0
  6 25  1  0  0  0
  6 92  1  0  0  0
  6 93  1  0  0  0
  7  8  2  0  0  0
  7 26  1  0  0  0
  7 29  1  0  0  0
  8  9  1  0  0  0
  8 22  1  0  0  0
  9 10  1  0  0  0
  9 27  2  0  0  0
 10 11  2  0  0  0
 10 15  1  0  0  0
 11 12  1  0  0  0
 11 94  1  0  0  0
 12 13  2  0  0  0
 12 95  1  0  0  0
 13 14  1  0  0  0
 13 31  1  0  0  0
 14 15  2  0  0  0
 14 96  1  0  0  0
 15 97  1  0  0  0
 16 17  2  0  0  0
 16 21  1  0  0  0
 16 31  1  0  0  0
 17 18  1  0  0  0
 17 98  1  0  0  0
 18 19  2  0  0  0
 18 99  1  0  0  0
 19 20  1  0  0  0
 19 24  1  0  0  0
 20 21  2  0  0  0
 20100  1  0  0  0
 21 23  1  0  0  0
 22 28  1  0  0  0
 22 32  2  0  0  0
 26 27  1  0  0  0
 28101  1  0  0  0
 28102  1  0  0  0
 29103  1  0  0  0
 29104  1  0  0  0
 33 34  1  0  0  0
 33 66  1  0  0  0
 33 70  2  0  0  0
 34 36  1  0  0  0
 34 59  1  0  0  0
 34105  1  0  0  0
 35 44  2  0  0  0
 35 45  1  0  0  0
 35 68  1  0  0  0
 36 56  1  0  0  0
 36106  1  0  0  0
 37 39  1  0  0  0
 37 47  1  0  0  0
 37 66  1  0  0  0
 37107  1  0  0  0
 38 43  2  0  0  0
 38 46  1  0  0  0
 38 47  1  0  0  0
 39 64  1  0  0  0
 39 67  2  0  0  0
 40 52  1  0  0  0
 40 53  2  0  0  0
 40 58  1  0  0  0
 41108  1  0  0  0
 41109  1  0  0  0
 41110  1  0  0  0
 41 48  1  0  0  0
 42 43  1  0  0  0
 42 66  1  0  0  0
 42111  1  0  0  0
 42112  1  0  0  0
 43 44  1  0  0  0
 44113  1  0  0  0
 45 46  2  0  0  0
 45114  1  0  0  0
 46115  1  0  0  0
 47116  1  0  0  0
 47117  1  0  0  0
 48 56  1  0  0  0
 48 65  1  0  0  0
 48118  1  0  0  0
 49 50  1  0  0  0
 49 53  1  0  0  0
 49 64  1  0  0  0
 49119  1  0  0  0
 50 51  1  0  0  0
 50120  1  0  0  0
 50121  1  0  0  0
 51 52  1  0  0  0
 51122  1  0  0  0
 51123  1  0  0  0
 52124  1  0  0  0
 52125  1  0  0  0
 53 54  1  0  0  0
 54 55  2  0  0  0
 54126  1  0  0  0
 55 57  1  0  0  0
 55127  1  0  0  0
 56 69  2  0  0  0
 57 58  2  0  0  0
 57128  1  0  0  0
 58129  1  0  0  0
 59 60  1  0  0  0
 59 61  1  0  0  0
 59 62  1  0  0  0
 60130  1  0  0  0
 60131  1  0  0  0
 60132  1  0  0  0
 61133  1  0  0  0
 61134  1  0  0  0
 61135  1  0  0  0
 62136  1  0  0  0
 62137  1  0  0  0
 62138  1  0  0  0
 63 65  1  0  0  0
 63139  1  0  0  0
 63140  1  0  0  0
 63141  1  0  0  0
 64142  1  0  0  0
 65143  1  0  0  0
 68 79  1  0  0  0
 71 72  1  0  0  0
 71 73  2  0  0  0
 71144  1  0  0  0
 72 80  1  0  0  0
 72 82  2  0  0  0
 73 81  1  0  0  0
 73 83  1  0  0  0
 74 77  1  0  0  0
 74145  1  0  0  0
 74146  1  0  0  0
 74147  1  0  0  0
 75148  1  0  0  0
 75149  1  0  0  0
 75150  1  0  0  0
 75 80  1  0  0  0
 76151  1  0  0  0
 76152  1  0  0  0
 76153  1  0  0  0
 76 81  1  0  0  0
 77 83  1  0  0  0
 77154  1  0  0  0
 77155  1  0  0  0
 78 80  1  0  0  0
 78 84  1  0  0  0
 78156  1  0  0  0
 78157  1  0  0  0
 79 81  1  0  0  0
 79158  1  0  0  0
 79159  1  0  0  0
 80160  1  0  0  0
 81161  1  0  0  0
 82 83  1  0  0  0
 84162  1  0  0  0
M  ISO  4   1 100  68 101  79 101  84 100
M  END
> <chiral flag>
0

> <version>
0

> <s_m_source_file>
/data/baiqing/PycharmProjects/Reinvent-master-3.2/result/LINK_invent/BTK/process_docking_weight1_custom_sum_contain_oxygen_bond_distance_aromatic_linkinvent_7_9_3/rearranged_h_0085.sdf

> <i_m_source_file_index>
7

> <r_mmod_Potential_Energy-OPLS-2005>
249.243759155273

> <r_mmod_Stretch_Energy-OPLS-2005>
152.749755859375

> <r_mmod_Bend_Energy-OPLS-2005>
274.261627197266

> <r_mmod_Torsional_Energy-OPLS-2005>
246.247940063477

> <r_mmod_Improper_Torsional_Energy-OPLS-2005>
6.02299976348877

> <r_mmod_Van_der_Waal_Energy-OPLS-2005>
103.574211120605

> <r_mmod_Electrostatic_Energy-OPLS-2005>
-414.158843994141

> <r_mmod_Solvation_Energy-OPLS-2005>
-210.060501098633

> <b_mmod_Minimization_Converged-OPLS-2005>
0

> <r_mmod_RMS_Derivative-OPLS-2005>
4.68820238113403

$$$$
7
                    3D
 Structure written by MMmdl.
157165  0  0  1  0            999 V2000
  -30.6086  -14.6754   20.4881 C   0  0  0  0  0  0
  -30.4234  -12.4145   19.4562 C   0  0  0  0  0  0
  -29.4992  -12.5070   18.2221 C   0  0  0  0  0  0
  -28.0202  -12.3559   18.6298 C   0  0  0  0  0  0
  -27.6408  -13.2254   19.8603 C   0  0  2  0  0  0
  -28.6835  -13.0955   20.9892 C   0  0  0  0  0  0
  -25.2480  -13.8181   20.5704 C   0  0  0  0  0  0
  -24.1769  -13.0442   20.9194 C   0  0  0  0  0  0
  -24.6352  -11.6907   20.8736 C   0  0  0  0  0  0
  -23.9030  -10.4294   21.0403 C   0  0  0  0  0  0
  -24.3598   -9.4215   21.9184 C   0  0  0  0  0  0
  -23.6287   -8.2247   22.0753 C   0  0  0  0  0  0
  -22.4267   -8.0280   21.3549 C   0  0  0  0  0  0
  -21.9890   -9.0241   20.4641 C   0  0  0  0  0  0
  -22.7205  -10.2126   20.3045 C   0  0  0  0  0  0
  -21.6837   -6.0726   22.5272 C   0  0  0  0  0  0
  -21.4024   -6.5629   23.8213 C   0  0  0  0  0  0
  -21.3662   -5.6784   24.9177 C   0  0  0  0  0  0
  -21.6038   -4.3045   24.7230 C   0  0  0  0  0  0
  -21.8820   -3.8135   23.4352 C   0  0  0  0  0  0
  -21.9206   -4.6956   22.3409 C   0  0  0  0  0  0
  -22.7794  -13.5224   21.1914 C   0  0  0  0  0  0
  -22.1657   -4.2134   21.0988 F   0  0  0  0  0  0
  -21.5639   -3.4534   25.7749 F   0  0  0  0  0  0
  -29.9880  -13.4515   20.4179 N   0  0  0  0  0  0
  -26.2902  -12.9373   20.3305 N   0  0  0  0  0  0
  -25.9271  -11.6501   20.5704 N   0  0  0  0  0  0
  -22.0441  -12.8186   22.0441 N   0  0  0  0  0  0
  -25.4207  -15.1919   20.4193 N   0  0  0  0  0  0
  -31.7843  -14.8003   20.1385 O   0  0  0  0  0  0
  -21.6638   -6.8873   21.4235 O   0  0  0  0  0  0
  -22.3472  -14.5549   20.6787 O   0  0  0  0  0  0
  -24.6310  -31.8581   23.2029 C   0  0  0  0  0  0
  -25.9172  -32.4762   23.8369 C   0  0  1  0  0  0
  -27.2067  -27.2695   20.1406 C   0  0  0  0  0  0
  -25.5968  -33.8559   24.2284 N   0  0  0  0  0  0
  -23.4257  -30.4896   21.5418 C   0  0  2  0  0  0
  -24.8687  -28.9420   20.1084 C   0  0  0  0  0  0
  -22.7462  -29.4687   22.4863 C   0  0  0  0  0  0
  -18.0371  -28.1402   22.8437 C   0  0  0  0  0  0
  -24.1502  -36.7262   23.2633 C   0  0  0  0  0  0
  -25.9751  -30.7742   21.3883 C   0  0  0  0  0  0
  -26.0394  -29.4026   20.7214 C   0  0  0  0  0  0
  -27.2101  -28.5797   20.7238 C   0  0  0  0  0  0
  -26.0073  -26.8800   19.4945 C   0  0  0  0  0  0
  -24.8566  -27.6886   19.4835 C   0  0  0  0  0  0
  -23.6417  -29.8278   20.1559 C   0  0  0  0  0  0
  -25.4133  -36.3047   24.0308 C   0  0  1  0  0  0
  -20.5942  -28.3745   23.1184 C   0  0  2  0  0  0
  -20.6867  -26.9433   22.5384 C   0  0  0  0  0  0
  -19.5846  -26.6468   21.5186 C   0  0  0  0  0  0
  -18.2001  -26.7969   22.1528 C   0  0  0  0  0  0
  -19.1616  -28.8900   23.2794 C   0  0  0  0  0  0
  -18.9524  -30.1502   23.8790 C   0  0  0  0  0  0
  -17.6508  -30.6586   24.0522 C   0  0  0  0  0  0
  -25.9070  -34.9422   23.5084 C   0  0  0  0  0  0
  -16.5401  -29.9033   23.6337 C   0  0  0  0  0  0
  -16.7361  -28.6491   23.0312 C   0  0  0  0  0  0
  -26.4515  -31.6606   25.0786 C   0  0  0  0  0  0
  -25.3742  -31.3761   26.1521 C   0  0  0  0  0  0
  -27.0389  -30.2999   24.6358 C   0  0  0  0  0  0
  -27.6049  -32.4377   25.7581 C   0  0  0  0  0  0
  -27.5569  -37.1795   24.8459 C   0  0  0  0  0  0
  -21.4210  -29.2989   22.3441 N   0  0  0  0  0  0
  -26.4294  -37.3747   23.9384 N   0  0  0  0  0  0
  -24.6942  -31.0593   22.0978 N   0  0  0  0  0  0
  -23.4127  -28.8346   23.3095 O   0  0  0  0  0  0
  -28.3187  -26.4000   20.2394 O   0  0  0  0  0  0
  -26.5607  -34.8875   22.4642 O   0  0  0  0  0  0
  -23.5476  -32.1373   23.7368 O   0  0  0  0  0  0
  -29.4681  -19.7902   20.3839 C   0  0  0  0  0  0
  -28.5085  -20.8378   20.6532 C   0  0  0  0  0  0
  -29.2630  -18.4334   20.8415 C   0  0  0  0  0  0
  -27.3738  -20.3722   21.3731 C   0  0  0  0  0  0
  -26.1368  -21.2171   21.6086 C   0  0  0  0  0  0
  -28.0048  -23.8103   22.0880 C   0  0  0  0  0  0
  -28.5745  -22.2760   19.9743 C   0  0  0  0  0  0
  -30.2482  -17.2334   20.5424 C   0  0  0  0  0  0
  -28.2915  -24.9711   19.7859 C   0  0  0  0  0  0
  -28.6933  -23.7174   20.7151 C   0  0  1  0  0  0
  -28.1700  -18.1458   21.5847 N   0  0  0  0  0  0
  -27.2560  -19.0944   21.8359 N   0  0  0  0  0  0
  -29.8338  -15.7859   20.7371 N   0  0  0  0  0  0
  -31.4621  -12.5409   19.1458 H   0  0  0  0  0  0
  -30.3631  -11.4208   19.9062 H   0  0  0  0  0  0
  -29.7635  -11.7374   17.4958 H   0  0  0  0  0  0
  -29.6504  -13.4616   17.7167 H   0  0  0  0  0  0
  -27.8435  -11.3034   18.8502 H   0  0  0  0  0  0
  -27.3712  -12.6000   17.7866 H   0  0  0  0  0  0
  -27.6546  -14.2612   19.5219 H   0  0  0  0  0  0
  -28.6969  -12.0750   21.3743 H   0  0  0  0  0  0
  -28.4234  -13.7343   21.8344 H   0  0  0  0  0  0
  -25.2737   -9.5702   22.4761 H   0  0  0  0  0  0
  -23.9998   -7.4631   22.7456 H   0  0  0  0  0  0
  -21.0831   -8.8747   19.8935 H   0  0  0  0  0  0
  -22.3656  -10.9669   19.6159 H   0  0  0  0  0  0
  -21.1997   -7.6135   23.9713 H   0  0  0  0  0  0
  -21.1482   -6.0514   25.9083 H   0  0  0  0  0  0
  -22.0601   -2.7593   23.2858 H   0  0  0  0  0  0
  -22.4040  -11.9819   22.4779 H   0  0  0  0  0  0
  -21.1069  -13.1207   22.2692 H   0  0  0  0  0  0
  -24.6696  -15.8531   20.5839 H   0  0  0  0  0  0
  -26.2820  -15.6385   20.1301 H   0  0  0  0  0  0
  -26.7216  -32.5384   23.1108 H   0  0  0  0  0  0
  -25.0146  -33.9707   25.0446 H   0  0  0  0  0  0
  -22.7211  -31.3121   21.3990 H   0  0  0  0  0  0
  -23.3747  -35.9615   23.3316 H   0  0  0  0  0  0
  -24.3567  -36.8866   22.2029 H   0  0  0  0  0  0
  -23.7274  -37.6478   23.6661 H   0  0  0  0  0  0
  -26.1415  -31.5482   20.6384 H   0  0  0  0  0  0
  -26.8404  -30.7908   22.0383 H   0  0  0  0  0  0
  -28.1036  -28.9310   21.2168 H   0  0  0  0  0  0
  -25.8866  -25.9327   18.9996 H   0  0  0  0  0  0
  -23.9598  -27.3291   18.9998 H   0  0  0  0  0  0
  -23.7572  -30.6052   19.3994 H   0  0  0  0  0  0
  -22.7635  -29.2547   19.8582 H   0  0  0  0  0  0
  -25.1334  -36.1869   25.0788 H   0  0  0  0  0  0
  -21.0089  -28.3446   24.1293 H   0  0  0  0  0  0
  -20.5707  -26.2355   23.3607 H   0  0  0  0  0  0
  -21.6702  -26.7409   22.1131 H   0  0  0  0  0  0
  -19.7010  -25.6393   21.1200 H   0  0  0  0  0  0
  -19.6831  -27.3350   20.6789 H   0  0  0  0  0  0
  -18.0349  -26.0045   22.8825 H   0  0  0  0  0  0
  -17.4315  -26.6846   21.3870 H   0  0  0  0  0  0
  -19.8008  -30.7374   24.2097 H   0  0  0  0  0  0
  -17.5035  -31.6243   24.5154 H   0  0  0  0  0  0
  -15.5377  -30.2858   23.7720 H   0  0  0  0  0  0
  -15.8797  -28.0783   22.6996 H   0  0  0  0  0  0
  -24.5904  -30.7134   25.7834 H   0  0  0  0  0  0
  -24.8991  -32.2943   26.4962 H   0  0  0  0  0  0
  -25.8069  -30.8906   27.0275 H   0  0  0  0  0  0
  -26.3018  -29.6738   24.1327 H   0  0  0  0  0  0
  -27.3917  -29.7281   25.4948 H   0  0  0  0  0  0
  -27.8957  -30.4205   23.9739 H   0  0  0  0  0  0
  -27.2614  -33.3643   26.2181 H   0  0  0  0  0  0
  -28.3874  -32.6994   25.0455 H   0  0  0  0  0  0
  -28.0733  -31.8520   26.5498 H   0  0  0  0  0  0
  -28.2616  -38.0059   24.7496 H   0  0  0  0  0  0
  -28.1038  -36.2598   24.6348 H   0  0  0  0  0  0
  -27.2269  -37.1511   25.8853 H   0  0  0  0  0  0
  -20.9462  -29.8201   21.6208 H   0  0  0  0  0  0
  -26.0158  -38.2811   24.1386 H   0  0  0  0  0  0
  -30.3311  -20.0042   19.7720 H   0  0  0  0  0  0
  -26.1747  -21.6958   22.5868 H   0  0  0  0  0  0
  -25.2432  -20.5941   21.5801 H   0  0  0  0  0  0
  -26.0124  -21.9816   20.8429 H   0  0  0  0  0  0
  -28.2714  -22.9758   22.7352 H   0  0  0  0  0  0
  -26.9189  -23.8623   21.9946 H   0  0  0  0  0  0
  -28.3181  -24.7145   22.6119 H   0  0  0  0  0  0
  -27.6829  -22.3220   19.3468 H   0  0  0  0  0  0
  -29.3809  -22.2211   19.2426 H   0  0  0  0  0  0
  -31.1499  -17.4037   21.1342 H   0  0  0  0  0  0
  -30.5561  -17.3357   19.5023 H   0  0  0  0  0  0
  -27.3603  -24.6853   19.3159 H   0  0  0  0  0  0
  -29.0009  -24.9498   18.9582 H   0  0  0  0  0  0
  -29.7543  -23.8285   20.9440 H   0  0  0  0  0  0
  -28.8665  -15.6370   20.9773 H   0  0  0  0  0  0
  1 25  1  0  0  0
  1 30  2  0  0  0
  1 83  1  0  0  0
  2  3  1  0  0  0
  2 25  1  0  0  0
  2 84  1  0  0  0
  2 85  1  0  0  0
  3  4  1  0  0  0
  3 86  1  0  0  0
  3 87  1  0  0  0
  4  5  1  0  0  0
  4 88  1  0  0  0
  4 89  1  0  0  0
  5  6  1  0  0  0
  5 26  1  0  0  0
  5 90  1  0  0  0
  6 25  1  0  0  0
  6 91  1  0  0  0
  6 92  1  0  0  0
  7  8  2  0  0  0
  7 26  1  0  0  0
  7 29  1  0  0  0
  8  9  1  0  0  0
  8 22  1  0  0  0
  9 10  1  0  0  0
  9 27  2  0  0  0
 10 11  2  0  0  0
 10 15  1  0  0  0
 11 12  1  0  0  0
 11 93  1  0  0  0
 12 13  2  0  0  0
 12 94  1  0  0  0
 13 14  1  0  0  0
 13 31  1  0  0  0
 14 15  2  0  0  0
 14 95  1  0  0  0
 15 96  1  0  0  0
 16 17  2  0  0  0
 16 21  1  0  0  0
 16 31  1  0  0  0
 17 18  1  0  0  0
 17 97  1  0  0  0
 18 19  2  0  0  0
 18 98  1  0  0  0
 19 20  1  0  0  0
 19 24  1  0  0  0
 20 21  2  0  0  0
 20 99  1  0  0  0
 21 23  1  0  0  0
 22 28  1  0  0  0
 22 32  2  0  0  0
 26 27  1  0  0  0
 28100  1  0  0  0
 28101  1  0  0  0
 29102  1  0  0  0
 29103  1  0  0  0
 33 34  1  0  0  0
 33 66  1  0  0  0
 33 70  2  0  0  0
 34 36  1  0  0  0
 34 59  1  0  0  0
 34104  1  0  0  0
 35 44  2  0  0  0
 35 45  1  0  0  0
 35 68  1  0  0  0
 36 56  1  0  0  0
 36105  1  0  0  0
 37 39  1  0  0  0
 37 47  1  0  0  0
 37 66  1  0  0  0
 37106  1  0  0  0
 38 43  2  0  0  0
 38 46  1  0  0  0
 38 47  1  0  0  0
 39 64  1  0  0  0
 39 67  2  0  0  0
 40 52  1  0  0  0
 40 53  2  0  0  0
 40 58  1  0  0  0
 41107  1  0  0  0
 41108  1  0  0  0
 41109  1  0  0  0
 41 48  1  0  0  0
 42 43  1  0  0  0
 42 66  1  0  0  0
 42110  1  0  0  0
 42111  1  0  0  0
 43 44  1  0  0  0
 44112  1  0  0  0
 45 46  2  0  0  0
 45113  1  0  0  0
 46114  1  0  0  0
 47115  1  0  0  0
 47116  1  0  0  0
 48 56  1  0  0  0
 48 65  1  0  0  0
 48117  1  0  0  0
 49 50  1  0  0  0
 49 53  1  0  0  0
 49 64  1  0  0  0
 49118  1  0  0  0
 50 51  1  0  0  0
 50119  1  0  0  0
 50120  1  0  0  0
 51 52  1  0  0  0
 51121  1  0  0  0
 51122  1  0  0  0
 52123  1  0  0  0
 52124  1  0  0  0
 53 54  1  0  0  0
 54 55  2  0  0  0
 54125  1  0  0  0
 55 57  1  0  0  0
 55126  1  0  0  0
 56 69  2  0  0  0
 57 58  2  0  0  0
 57127  1  0  0  0
 58128  1  0  0  0
 59 60  1  0  0  0
 59 61  1  0  0  0
 59 62  1  0  0  0
 60129  1  0  0  0
 60130  1  0  0  0
 60131  1  0  0  0
 61132  1  0  0  0
 61133  1  0  0  0
 61134  1  0  0  0
 62135  1  0  0  0
 62136  1  0  0  0
 62137  1  0  0  0
 63 65  1  0  0  0
 63138  1  0  0  0
 63139  1  0  0  0
 63140  1  0  0  0
 64141  1  0  0  0
 65142  1  0  0  0
 68 79  1  0  0  0
 71 72  2  0  0  0
 71 73  1  0  0  0
 71143  1  0  0  0
 72 74  1  0  0  0
 72 77  1  0  0  0
 73 78  1  0  0  0
 73 81  2  0  0  0
 74 75  1  0  0  0
 74 82  2  0  0  0
 75144  1  0  0  0
 75145  1  0  0  0
 75146  1  0  0  0
 76147  1  0  0  0
 76148  1  0  0  0
 76149  1  0  0  0
 76 80  1  0  0  0
 77 80  1  0  0  0
 77150  1  0  0  0
 77151  1  0  0  0
 78 83  1  0  0  0
 78152  1  0  0  0
 78153  1  0  0  0
 79 80  1  0  0  0
 79154  1  0  0  0
 79155  1  0  0  0
 80156  1  0  0  0
 81 82  1  0  0  0
 83157  1  0  0  0
M  ISO  4   1 100  68 101  79 101  83 100
M  END
> <chiral flag>
0

> <version>
0

> <s_m_source_file>
/data/baiqing/PycharmProjects/Reinvent-master-3.2/result/LINK_invent/BTK/process_docking_weight1_custom_sum_contain_oxygen_bond_distance_aromatic_linkinvent_7_9_3/rearranged_h_0085.sdf

> <i_m_source_file_index>
8

> <r_mmod_Potential_Energy-OPLS-2005>
50.666015625

> <r_mmod_Stretch_Energy-OPLS-2005>
108.051223754883

> <r_mmod_Bend_Energy-OPLS-2005>
180.791076660156

> <r_mmod_Torsional_Energy-OPLS-2005>
204.972076416016

> <r_mmod_Improper_Torsional_Energy-OPLS-2005>
6.68827438354492

> <r_mmod_Van_der_Waal_Energy-OPLS-2005>
144.636154174805

> <r_mmod_Electrostatic_Energy-OPLS-2005>
-440.22509765625

> <r_mmod_Solvation_Energy-OPLS-2005>
-222.99853515625

> <b_mmod_Minimization_Converged-OPLS-2005>
0

> <r_mmod_RMS_Derivative-OPLS-2005>
4.71845674514771

$$$$
8
                    3D
 Structure written by MMmdl.
161169  0  0  1  0            999 V2000
  -30.6821  -14.5180   20.5530 C   0  0  0  0  0  0
  -30.4307  -12.3316   19.4206 C   0  0  0  0  0  0
  -29.4965  -12.4976   18.2024 C   0  0  0  0  0  0
  -28.0169  -12.3564   18.6168 C   0  0  0  0  0  0
  -27.6589  -13.2069   19.8649 C   0  0  2  0  0  0
  -28.7040  -13.0073   20.9859 C   0  0  0  0  0  0
  -25.2592  -13.8162   20.5656 C   0  0  0  0  0  0
  -24.1850  -13.0440   20.9166 C   0  0  0  0  0  0
  -24.6398  -11.6903   20.8710 C   0  0  0  0  0  0
  -23.9062  -10.4291   21.0391 C   0  0  0  0  0  0
  -24.3612   -9.4208   21.9171 C   0  0  0  0  0  0
  -23.6287   -8.2244   22.0755 C   0  0  0  0  0  0
  -22.4268   -8.0283   21.3549 C   0  0  0  0  0  0
  -21.9905   -9.0248   20.4641 C   0  0  0  0  0  0
  -22.7234  -10.2131   20.3043 C   0  0  0  0  0  0
  -21.6861   -6.0728   22.5276 C   0  0  0  0  0  0
  -21.4021   -6.5633   23.8206 C   0  0  0  0  0  0
  -21.3655   -5.6789   24.9169 C   0  0  0  0  0  0
  -21.6042   -4.3049   24.7221 C   0  0  0  0  0  0
  -21.8826   -3.8141   23.4344 C   0  0  0  0  0  0
  -21.9199   -4.6955   22.3398 C   0  0  0  0  0  0
  -22.7875  -13.5242   21.1827 C   0  0  0  0  0  0
  -22.1667   -4.2144   21.0977 F   0  0  0  0  0  0
  -21.5623   -3.4534   25.7731 F   0  0  0  0  0  0
  -30.0302  -13.3265   20.4279 N   0  0  0  0  0  0
  -26.3015  -12.9325   20.3310 N   0  0  0  0  0  0
  -25.9327  -11.6479   20.5729 N   0  0  0  0  0  0
  -22.0514  -12.8229   22.0379 N   0  0  0  0  0  0
  -25.4343  -15.1876   20.4058 N   0  0  0  0  0  0
  -31.8238  -14.7062   20.1287 O   0  0  0  0  0  0
  -21.6647   -6.8866   21.4237 O   0  0  0  0  0  0
  -22.3553  -14.5537   20.6675 O   0  0  0  0  0  0
  -24.6184  -31.8654   23.2080 C   0  0  0  0  0  0
  -25.9054  -32.4807   23.8391 C   0  0  1  0  0  0
  -27.2446  -27.4086   20.1197 C   0  0  0  0  0  0
  -25.5899  -33.8615   24.2324 N   0  0  0  0  0  0
  -23.4086  -30.4858   21.5503 C   0  0  2  0  0  0
  -24.8577  -28.9383   20.1264 C   0  0  0  0  0  0
  -22.7407  -29.4645   22.5012 C   0  0  0  0  0  0
  -18.0268  -28.1377   22.8486 C   0  0  0  0  0  0
  -24.1494  -36.7324   23.2649 C   0  0  0  0  0  0
  -25.9371  -30.8227   21.3644 C   0  0  0  0  0  0
  -26.0178  -29.4502   20.7221 C   0  0  0  0  0  0
  -27.2146  -28.6933   20.7148 C   0  0  0  0  0  0
  -26.0711  -26.9111   19.5195 C   0  0  0  0  0  0
  -24.8790  -27.6673   19.5222 C   0  0  0  0  0  0
  -23.6198  -29.8086   20.1693 C   0  0  0  0  0  0
  -25.4111  -36.3125   24.0352 C   0  0  1  0  0  0
  -20.5869  -28.3671   23.1331 C   0  0  2  0  0  0
  -20.6771  -26.9411   22.5441 C   0  0  0  0  0  0
  -19.5748  -26.6395   21.5239 C   0  0  0  0  0  0
  -18.1910  -26.7929   22.1629 C   0  0  0  0  0  0
  -19.1515  -28.8841   23.2898 C   0  0  0  0  0  0
  -18.9448  -30.1444   23.8912 C   0  0  0  0  0  0
  -17.6456  -30.6582   24.0578 C   0  0  0  0  0  0
  -25.9055  -34.9481   23.5153 C   0  0  0  0  0  0
  -16.5348  -29.9084   23.6341 C   0  0  0  0  0  0
  -16.7263  -28.6503   23.0359 C   0  0  0  0  0  0
  -26.4469  -31.6590   25.0734 C   0  0  0  0  0  0
  -25.3685  -31.3679   26.1434 C   0  0  0  0  0  0
  -27.0319  -30.3050   24.6111 C   0  0  0  0  0  0
  -27.6074  -32.4300   25.7454 C   0  0  0  0  0  0
  -27.5562  -37.1802   24.8456 C   0  0  0  0  0  0
  -21.4142  -29.3026   22.3721 N   0  0  0  0  0  0
  -26.4289  -37.3806   23.9386 N   0  0  0  0  0  0
  -24.6731  -31.0723   22.1007 N   0  0  0  0  0  0
  -23.4141  -28.8202   23.3100 O   0  0  0  0  0  0
  -28.4121  -26.6729   20.0376 O   0  0  0  0  0  0
  -26.5630  -34.8920   22.4722 O   0  0  0  0  0  0
  -23.5376  -32.1440   23.7450 O   0  0  0  0  0  0
  -27.8605  -19.0668   21.3629 C   0  0  0  0  0  0
  -29.6118  -20.5672   20.6641 C   0  0  0  0  0  0
  -29.1207  -19.2313   20.7592 C   0  0  0  0  0  0
  -27.1593  -20.1857   21.8416 C   0  0  0  0  0  0
  -28.8324  -21.6476   21.1655 C   0  0  0  0  0  0
  -25.8061  -20.0232   22.5004 C   0  0  0  0  0  0
  -30.9740  -18.3079   19.2321 C   0  0  0  0  0  0
  -29.3302  -23.1028   21.2262 C   0  0  0  0  0  0
  -28.5412  -24.1602   20.3893 C   0  0  0  0  0  0
  -30.2952  -16.9440   21.2961 C   0  0  0  0  0  0
  -28.6014  -25.6016   20.9849 C   0  0  0  0  0  0
  -29.8286  -17.9676   20.2011 C   0  0  1  0  0  0
  -27.6303  -21.4446   21.7466 N   0  0  0  0  0  0
  -29.9332  -15.5274   21.0448 N   0  0  0  0  0  0
  -31.4723  -12.4438   19.1145 H   0  0  0  0  0  0
  -30.3481  -11.3262   19.8363 H   0  0  0  0  0  0
  -29.7418  -11.7538   17.4431 H   0  0  0  0  0  0
  -29.6567  -13.4722   17.7392 H   0  0  0  0  0  0
  -27.8318  -11.3014   18.8215 H   0  0  0  0  0  0
  -27.3654  -12.6217   17.7827 H   0  0  0  0  0  0
  -27.6963  -14.2505   19.5510 H   0  0  0  0  0  0
  -28.6924  -11.9746   21.3367 H   0  0  0  0  0  0
  -28.4592  -13.6159   21.8579 H   0  0  0  0  0  0
  -25.2768   -9.5688   22.4732 H   0  0  0  0  0  0
  -24.0002   -7.4644   22.7489 H   0  0  0  0  0  0
  -21.0835   -8.8754   19.8954 H   0  0  0  0  0  0
  -22.3688  -10.9655   19.6137 H   0  0  0  0  0  0
  -21.2022   -7.6143   23.9703 H   0  0  0  0  0  0
  -21.1468   -6.0520   25.9066 H   0  0  0  0  0  0
  -22.0614   -2.7606   23.2843 H   0  0  0  0  0  0
  -22.4144  -11.9890   22.4749 H   0  0  0  0  0  0
  -21.1125  -13.1240   22.2570 H   0  0  0  0  0  0
  -24.6691  -15.8451   20.5063 H   0  0  0  0  0  0
  -26.2806  -15.6180   20.0552 H   0  0  0  0  0  0
  -26.7127  -32.5515   23.1153 H   0  0  0  0  0  0
  -25.0000  -33.9782   25.0433 H   0  0  0  0  0  0
  -22.7024  -31.3056   21.4041 H   0  0  0  0  0  0
  -23.3772  -35.9642   23.3348 H   0  0  0  0  0  0
  -24.3619  -36.8919   22.2060 H   0  0  0  0  0  0
  -23.7220  -37.6527   23.6654 H   0  0  0  0  0  0
  -26.0473  -31.5830   20.5907 H   0  0  0  0  0  0
  -26.8254  -30.8868   21.9808 H   0  0  0  0  0  0
  -28.1126  -29.0927   21.1638 H   0  0  0  0  0  0
  -26.0846  -25.9419   19.0429 H   0  0  0  0  0  0
  -23.9893  -27.2678   19.0576 H   0  0  0  0  0  0
  -23.7263  -30.5795   19.4065 H   0  0  0  0  0  0
  -22.7410  -29.2322   19.8746 H   0  0  0  0  0  0
  -25.1278  -36.2033   25.0850 H   0  0  0  0  0  0
  -20.9943  -28.3253   24.1464 H   0  0  0  0  0  0
  -20.5762  -26.2250   23.3618 H   0  0  0  0  0  0
  -21.6619  -26.7504   22.1175 H   0  0  0  0  0  0
  -19.6974  -25.6324   21.1235 H   0  0  0  0  0  0
  -19.6719  -27.3228   20.6791 H   0  0  0  0  0  0
  -17.4209  -26.6719   21.4004 H   0  0  0  0  0  0
  -18.0290  -26.0053   22.8996 H   0  0  0  0  0  0
  -19.7936  -30.7238   24.2293 H   0  0  0  0  0  0
  -17.5022  -31.6273   24.5154 H   0  0  0  0  0  0
  -15.5348  -30.2999   23.7652 H   0  0  0  0  0  0
  -15.8657  -28.0826   22.7077 H   0  0  0  0  0  0
  -24.5899  -30.7007   25.7716 H   0  0  0  0  0  0
  -24.8803  -32.2811   26.4857 H   0  0  0  0  0  0
  -25.7989  -30.8835   27.0209 H   0  0  0  0  0  0
  -26.2873  -29.6785   24.1182 H   0  0  0  0  0  0
  -27.4137  -29.7318   25.4573 H   0  0  0  0  0  0
  -27.8684  -30.4428   23.9254 H   0  0  0  0  0  0
  -27.2763  -33.3632   26.2023 H   0  0  0  0  0  0
  -28.3838  -32.6797   25.0209 H   0  0  0  0  0  0
  -28.0780  -31.8411   26.5337 H   0  0  0  0  0  0
  -28.2588  -38.0092   24.7508 H   0  0  0  0  0  0
  -28.1054  -36.2627   24.6294 H   0  0  0  0  0  0
  -27.2288  -37.1440   25.8863 H   0  0  0  0  0  0
  -20.9332  -29.8696   21.6872 H   0  0  0  0  0  0
  -26.0223  -38.2899   24.1403 H   0  0  0  0  0  0
  -27.4282  -18.0779   21.4503 H   0  0  0  0  0  0
  -30.5783  -20.7711   20.2283 H   0  0  0  0  0  0
  -25.7868  -19.1257   23.1196 H   0  0  0  0  0  0
  -25.0297  -19.9338   21.7419 H   0  0  0  0  0  0
  -25.5632  -20.8729   23.1389 H   0  0  0  0  0  0
  -30.6266  -18.9525   18.4229 H   0  0  0  0  0  0
  -31.3847  -17.4086   18.7753 H   0  0  0  0  0  0
  -31.7923  -18.8164   19.7424 H   0  0  0  0  0  0
  -30.3843  -23.1360   20.9471 H   0  0  0  0  0  0
  -29.2997  -23.3956   22.2779 H   0  0  0  0  0  0
  -27.4928  -23.8713   20.3186 H   0  0  0  0  0  0
  -28.9221  -24.1512   19.3668 H   0  0  0  0  0  0
  -29.8236  -17.2043   22.2430 H   0  0  0  0  0  0
  -31.3666  -17.0391   21.4836 H   0  0  0  0  0  0
  -29.5971  -25.7559   21.4034 H   0  0  0  0  0  0
  -27.9172  -25.6868   21.8315 H   0  0  0  0  0  0
  -29.0604  -17.4736   19.6032 H   0  0  0  0  0  0
  -29.0020  -15.2589   21.3212 H   0  0  0  0  0  0
  1 25  1  0  0  0
  1 30  2  0  0  0
  1 84  1  0  0  0
  2  3  1  0  0  0
  2 25  1  0  0  0
  2 85  1  0  0  0
  2 86  1  0  0  0
  3  4  1  0  0  0
  3 87  1  0  0  0
  3 88  1  0  0  0
  4  5  1  0  0  0
  4 89  1  0  0  0
  4 90  1  0  0  0
  5  6  1  0  0  0
  5 26  1  0  0  0
  5 91  1  0  0  0
  6 25  1  0  0  0
  6 92  1  0  0  0
  6 93  1  0  0  0
  7  8  2  0  0  0
  7 26  1  0  0  0
  7 29  1  0  0  0
  8  9  1  0  0  0
  8 22  1  0  0  0
  9 10  1  0  0  0
  9 27  2  0  0  0
 10 11  2  0  0  0
 10 15  1  0  0  0
 11 12  1  0  0  0
 11 94  1  0  0  0
 12 13  2  0  0  0
 12 95  1  0  0  0
 13 14  1  0  0  0
 13 31  1  0  0  0
 14 15  2  0  0  0
 14 96  1  0  0  0
 15 97  1  0  0  0
 16 17  2  0  0  0
 16 21  1  0  0  0
 16 31  1  0  0  0
 17 18  1  0  0  0
 17 98  1  0  0  0
 18 19  2  0  0  0
 18 99  1  0  0  0
 19 20  1  0  0  0
 19 24  1  0  0  0
 20 21  2  0  0  0
 20100  1  0  0  0
 21 23  1  0  0  0
 22 28  1  0  0  0
 22 32  2  0  0  0
 26 27  1  0  0  0
 28101  1  0  0  0
 28102  1  0  0  0
 29103  1  0  0  0
 29104  1  0  0  0
 33 34  1  0  0  0
 33 66  1  0  0  0
 33 70  2  0  0  0
 34 36  1  0  0  0
 34 59  1  0  0  0
 34105  1  0  0  0
 35 44  2  0  0  0
 35 45  1  0  0  0
 35 68  1  0  0  0
 36 56  1  0  0  0
 36106  1  0  0  0
 37 39  1  0  0  0
 37 47  1  0  0  0
 37 66  1  0  0  0
 37107  1  0  0  0
 38 43  2  0  0  0
 38 46  1  0  0  0
 38 47  1  0  0  0
 39 64  1  0  0  0
 39 67  2  0  0  0
 40 52  1  0  0  0
 40 53  2  0  0  0
 40 58  1  0  0  0
 41108  1  0  0  0
 41109  1  0  0  0
 41110  1  0  0  0
 41 48  1  0  0  0
 42 43  1  0  0  0
 42 66  1  0  0  0
 42111  1  0  0  0
 42112  1  0  0  0
 43 44  1  0  0  0
 44113  1  0  0  0
 45 46  2  0  0  0
 45114  1  0  0  0
 46115  1  0  0  0
 47116  1  0  0  0
 47117  1  0  0  0
 48 56  1  0  0  0
 48 65  1  0  0  0
 48118  1  0  0  0
 49 50  1  0  0  0
 49 53  1  0  0  0
 49 64  1  0  0  0
 49119  1  0  0  0
 50 51  1  0  0  0
 50120  1  0  0  0
 50121  1  0  0  0
 51 52  1  0  0  0
 51122  1  0  0  0
 51123  1  0  0  0
 52124  1  0  0  0
 52125  1  0  0  0
 53 54  1  0  0  0
 54 55  2  0  0  0
 54126  1  0  0  0
 55 57  1  0  0  0
 55127  1  0  0  0
 56 69  2  0  0  0
 57 58  2  0  0  0
 57128  1  0  0  0
 58129  1  0  0  0
 59 60  1  0  0  0
 59 61  1  0  0  0
 59 62  1  0  0  0
 60130  1  0  0  0
 60131  1  0  0  0
 60132  1  0  0  0
 61133  1  0  0  0
 61134  1  0  0  0
 61135  1  0  0  0
 62136  1  0  0  0
 62137  1  0  0  0
 62138  1  0  0  0
 63 65  1  0  0  0
 63139  1  0  0  0
 63140  1  0  0  0
 63141  1  0  0  0
 64142  1  0  0  0
 65143  1  0  0  0
 68 81  1  0  0  0
 71 73  2  0  0  0
 71 74  1  0  0  0
 71144  1  0  0  0
 72 73  1  0  0  0
 72 75  2  0  0  0
 72145  1  0  0  0
 73 82  1  0  0  0
 74 76  1  0  0  0
 74 83  2  0  0  0
 75 78  1  0  0  0
 75 83  1  0  0  0
 76146  1  0  0  0
 76147  1  0  0  0
 76148  1  0  0  0
 77149  1  0  0  0
 77150  1  0  0  0
 77151  1  0  0  0
 77 82  1  0  0  0
 78 79  1  0  0  0
 78152  1  0  0  0
 78153  1  0  0  0
 79 81  1  0  0  0
 79154  1  0  0  0
 79155  1  0  0  0
 80 82  1  0  0  0
 80 84  1  0  0  0
 80156  1  0  0  0
 80157  1  0  0  0
 81158  1  0  0  0
 81159  1  0  0  0
 82160  1  0  0  0
 84161  1  0  0  0
M  ISO  4   1 100  68 101  81 101  84 100
M  END
> <chiral flag>
0

> <version>
0

> <s_m_source_file>
/data/baiqing/PycharmProjects/Reinvent-master-3.2/result/LINK_invent/BTK/process_docking_weight1_custom_sum_contain_oxygen_bond_distance_aromatic_linkinvent_7_9_3/rearranged_h_0085.sdf

> <i_m_source_file_index>
9

> <r_mmod_Potential_Energy-OPLS-2005>
-234.772262573242

> <r_mmod_Stretch_Energy-OPLS-2005>
45.1779174804688

> <r_mmod_Bend_Energy-OPLS-2005>
106.94938659668

> <r_mmod_Torsional_Energy-OPLS-2005>
243.284057617188

> <r_mmod_Improper_Torsional_Energy-OPLS-2005>
3.88139677047729

> <r_mmod_Van_der_Waal_Energy-OPLS-2005>
141.583389282227

> <r_mmod_Electrostatic_Energy-OPLS-2005>
-576.668334960938

> <r_mmod_Solvation_Energy-OPLS-2005>
-215.839080810547

> <b_mmod_Minimization_Converged-OPLS-2005>
0

> <r_mmod_RMS_Derivative-OPLS-2005>
3.06074714660645

$$$$
9
                    3D
 Structure written by MMmdl.
159167  0  0  1  0            999 V2000
  -30.6393  -14.5841   20.5133 C   0  0  0  0  0  0
  -30.4338  -12.3606   19.4420 C   0  0  0  0  0  0
  -29.5040  -12.5045   18.2175 C   0  0  0  0  0  0
  -28.0261  -12.3500   18.6298 C   0  0  0  0  0  0
  -27.6544  -13.2113   19.8671 C   0  0  2  0  0  0
  -28.6990  -13.0436   20.9937 C   0  0  0  0  0  0
  -25.2545  -13.8151   20.5678 C   0  0  0  0  0  0
  -24.1805  -13.0422   20.9180 C   0  0  0  0  0  0
  -24.6365  -11.6893   20.8710 C   0  0  0  0  0  0
  -23.9016  -10.4284   21.0372 C   0  0  0  0  0  0
  -24.3576   -9.4214   21.9164 C   0  0  0  0  0  0
  -23.6275   -8.2235   22.0741 C   0  0  0  0  0  0
  -22.4257   -8.0250   21.3531 C   0  0  0  0  0  0
  -21.9875   -9.0210   20.4630 C   0  0  0  0  0  0
  -22.7177  -10.2110   20.3040 C   0  0  0  0  0  0
  -21.6857   -6.0701   22.5269 C   0  0  0  0  0  0
  -21.4011   -6.5614   23.8193 C   0  0  0  0  0  0
  -21.3663   -5.6782   24.9164 C   0  0  0  0  0  0
  -21.6055   -4.3046   24.7230 C   0  0  0  0  0  0
  -21.8818   -3.8125   23.4356 C   0  0  0  0  0  0
  -21.9192   -4.6932   22.3404 C   0  0  0  0  0  0
  -22.7832  -13.5222   21.1869 C   0  0  0  0  0  0
  -22.1663   -4.2112   21.0990 F   0  0  0  0  0  0
  -21.5639   -3.4545   25.7747 F   0  0  0  0  0  0
  -30.0169  -13.3720   20.4282 N   0  0  0  0  0  0
  -26.2983  -12.9327   20.3335 N   0  0  0  0  0  0
  -25.9297  -11.6482   20.5740 N   0  0  0  0  0  0
  -22.0496  -12.8188   22.0427 N   0  0  0  0  0  0
  -25.4279  -15.1864   20.4073 N   0  0  0  0  0  0
  -31.7971  -14.7575   20.1235 O   0  0  0  0  0  0
  -21.6643   -6.8834   21.4225 O   0  0  0  0  0  0
  -22.3508  -14.5533   20.6726 O   0  0  0  0  0  0
  -24.6200  -31.8606   23.2019 C   0  0  0  0  0  0
  -25.9039  -32.4774   23.8340 C   0  0  1  0  0  0
  -27.2305  -27.3548   20.0929 C   0  0  0  0  0  0
  -25.5845  -33.8577   24.2264 N   0  0  0  0  0  0
  -23.4111  -30.4866   21.5449 C   0  0  2  0  0  0
  -24.8547  -28.9428   20.1132 C   0  0  0  0  0  0
  -22.7434  -29.4628   22.4932 C   0  0  0  0  0  0
  -18.0260  -28.1409   22.8505 C   0  0  0  0  0  0
  -24.1473  -36.7323   23.2645 C   0  0  0  0  0  0
  -25.9483  -30.8030   21.3663 C   0  0  0  0  0  0
  -26.0220  -29.4322   20.7115 C   0  0  0  0  0  0
  -27.2078  -28.6471   20.6932 C   0  0  0  0  0  0
  -26.0292  -26.8953   19.5008 C   0  0  0  0  0  0
  -24.8583  -27.6780   19.5079 C   0  0  0  0  0  0
  -23.6215  -29.8209   20.1601 C   0  0  0  0  0  0
  -25.4091  -36.3091   24.0336 C   0  0  1  0  0  0
  -20.5858  -28.3704   23.1322 C   0  0  2  0  0  0
  -20.6750  -26.9429   22.5450 C   0  0  0  0  0  0
  -19.5721  -26.6405   21.5255 C   0  0  0  0  0  0
  -18.1897  -26.7952   22.1651 C   0  0  0  0  0  0
  -19.1513  -28.8877   23.2912 C   0  0  0  0  0  0
  -18.9445  -30.1477   23.8926 C   0  0  0  0  0  0
  -17.6443  -30.6617   24.0585 C   0  0  0  0  0  0
  -25.9026  -34.9450   23.5117 C   0  0  0  0  0  0
  -16.5341  -29.9123   23.6340 C   0  0  0  0  0  0
  -16.7254  -28.6542   23.0353 C   0  0  0  0  0  0
  -26.4428  -31.6570   25.0699 C   0  0  0  0  0  0
  -25.3662  -31.3700   26.1440 C   0  0  0  0  0  0
  -27.0246  -30.2976   24.6135 C   0  0  0  0  0  0
  -27.5996  -32.4301   25.7432 C   0  0  0  0  0  0
  -27.5569  -37.1796   24.8463 C   0  0  0  0  0  0
  -21.4151  -29.3057   22.3709 N   0  0  0  0  0  0
  -26.4283  -37.3780   23.9410 N   0  0  0  0  0  0
  -24.6785  -31.0657   22.0957 N   0  0  0  0  0  0
  -23.4182  -28.8168   23.2999 O   0  0  0  0  0  0
  -28.4070  -26.6012   20.1206 O   0  0  0  0  0  0
  -26.5653  -34.8920   22.4716 O   0  0  0  0  0  0
  -23.5369  -32.1402   23.7382 O   0  0  0  0  0  0
  -30.3614  -20.3880   20.6592 C   0  0  0  0  0  0
  -28.2424  -20.2979   19.3713 C   0  0  0  0  0  0
  -30.0269  -21.8511   21.0851 C   0  0  0  0  0  0
  -27.9140  -21.7780   19.7461 C   0  0  0  0  0  0
  -29.0973  -19.5313   20.4200 C   0  0  1  0  0  0
  -29.1576  -22.6500   20.0707 C   0  0  1  0  0  0
  -29.3401  -18.0210   20.0091 C   0  0  0  0  0  0
  -28.8139  -24.1078   20.5964 C   0  0  0  0  0  0
  -30.1588  -17.0867   20.9740 C   0  0  0  0  0  0
  -28.5212  -25.2508   19.5549 C   0  0  0  0  0  0
  -29.8482  -15.6288   20.8785 N   0  0  0  0  0  0
  -31.4778  -12.4777   19.1440 H   0  0  0  0  0  0
  -30.3555  -11.3606   19.8714 H   0  0  0  0  0  0
  -29.7601  -11.7606   17.4615 H   0  0  0  0  0  0
  -29.6567  -13.4793   17.7507 H   0  0  0  0  0  0
  -27.8541  -11.2963   18.8510 H   0  0  0  0  0  0
  -27.3725  -12.5946   17.7907 H   0  0  0  0  0  0
  -27.6792  -14.2502   19.5390 H   0  0  0  0  0  0
  -28.6995  -12.0192   21.3664 H   0  0  0  0  0  0
  -28.4550  -13.6707   21.8527 H   0  0  0  0  0  0
  -25.2716   -9.5714   22.4736 H   0  0  0  0  0  0
  -23.9990   -7.4639   22.7467 H   0  0  0  0  0  0
  -21.0807   -8.8695   19.8946 H   0  0  0  0  0  0
  -22.3595  -10.9629   19.6148 H   0  0  0  0  0  0
  -21.1988   -7.6117   23.9676 H   0  0  0  0  0  0
  -21.1502   -6.0524   25.9064 H   0  0  0  0  0  0
  -22.0594   -2.7584   23.2876 H   0  0  0  0  0  0
  -22.4127  -11.9847   22.4800 H   0  0  0  0  0  0
  -21.1112  -13.1182   22.2662 H   0  0  0  0  0  0
  -24.6595  -15.8421   20.4987 H   0  0  0  0  0  0
  -26.2761  -15.6187   20.0651 H   0  0  0  0  0  0
  -26.7085  -32.5451   23.1072 H   0  0  0  0  0  0
  -24.9844  -33.9707   25.0298 H   0  0  0  0  0  0
  -22.7052  -31.3069   21.4030 H   0  0  0  0  0  0
  -23.3719  -35.9666   23.3305 H   0  0  0  0  0  0
  -24.3575  -36.8977   22.2063 H   0  0  0  0  0  0
  -23.7245  -37.6530   23.6683 H   0  0  0  0  0  0
  -26.0750  -31.5650   20.5965 H   0  0  0  0  0  0
  -26.8300  -30.8517   21.9925 H   0  0  0  0  0  0
  -28.1097  -29.0248   21.1554 H   0  0  0  0  0  0
  -25.9464  -25.9278   19.0340 H   0  0  0  0  0  0
  -23.9558  -27.2949   19.0528 H   0  0  0  0  0  0
  -23.7364  -30.5993   19.4042 H   0  0  0  0  0  0
  -22.7403  -29.2516   19.8568 H   0  0  0  0  0  0
  -25.1250  -36.1955   25.0833 H   0  0  0  0  0  0
  -20.9955  -28.3284   24.1439 H   0  0  0  0  0  0
  -20.5708  -26.2293   23.3639 H   0  0  0  0  0  0
  -21.6606  -26.7490   22.1202 H   0  0  0  0  0  0
  -19.6896  -25.6325   21.1269 H   0  0  0  0  0  0
  -19.6663  -27.3224   20.6793 H   0  0  0  0  0  0
  -17.4166  -26.6726   21.4048 H   0  0  0  0  0  0
  -18.0282  -26.0091   22.9045 H   0  0  0  0  0  0
  -19.7917  -30.7295   24.2299 H   0  0  0  0  0  0
  -17.4995  -31.6292   24.5201 H   0  0  0  0  0  0
  -15.5346  -30.3039   23.7649 H   0  0  0  0  0  0
  -15.8640  -28.0891   22.7047 H   0  0  0  0  0  0
  -24.5847  -30.7029   25.7777 H   0  0  0  0  0  0
  -24.8825  -32.2857   26.4846 H   0  0  0  0  0  0
  -25.7989  -30.8900   27.0226 H   0  0  0  0  0  0
  -26.2795  -29.6735   24.1180 H   0  0  0  0  0  0
  -27.3946  -29.7220   25.4631 H   0  0  0  0  0  0
  -27.8661  -30.4230   23.9319 H   0  0  0  0  0  0
  -27.2619  -33.3625   26.1963 H   0  0  0  0  0  0
  -28.3786  -32.6842   25.0229 H   0  0  0  0  0  0
  -28.0656  -31.8453   26.5370 H   0  0  0  0  0  0
  -28.2578  -38.0092   24.7507 H   0  0  0  0  0  0
  -28.1083  -36.2637   24.6283 H   0  0  0  0  0  0
  -27.2314  -37.1452   25.8874 H   0  0  0  0  0  0
  -20.9316  -29.8799   21.6941 H   0  0  0  0  0  0
  -26.0180  -38.2866   24.1406 H   0  0  0  0  0  0
  -30.9783  -19.9207   21.4284 H   0  0  0  0  0  0
  -30.9671  -20.4047   19.7525 H   0  0  0  0  0  0
  -28.7657  -20.2845   18.4144 H   0  0  0  0  0  0
  -27.3057  -19.7608   19.2062 H   0  0  0  0  0  0
  -30.9622  -22.3867   21.2555 H   0  0  0  0  0  0
  -29.5159  -21.8284   22.0480 H   0  0  0  0  0  0
  -27.2315  -21.7825   20.5971 H   0  0  0  0  0  0
  -27.3639  -22.2362   18.9232 H   0  0  0  0  0  0
  -28.5341  -19.5126   21.3554 H   0  0  0  0  0  0
  -29.7496  -22.7532   19.1594 H   0  0  0  0  0  0
  -29.8118  -17.9920   19.0257 H   0  0  0  0  0  0
  -28.3566  -17.5708   19.8631 H   0  0  0  0  0  0
  -29.6600  -24.4503   21.1920 H   0  0  0  0  0  0
  -27.9829  -24.0439   21.2993 H   0  0  0  0  0  0
  -29.9588  -17.3854   22.0032 H   0  0  0  0  0  0
  -31.2261  -17.2568   20.8210 H   0  0  0  0  0  0
  -27.7017  -24.9556   18.9091 H   0  0  0  0  0  0
  -29.3757  -25.3016   18.8791 H   0  0  0  0  0  0
  -28.9166  -15.3640   21.1617 H   0  0  0  0  0  0
  1 25  1  0  0  0
  1 30  2  0  0  0
  1 81  1  0  0  0
  2  3  1  0  0  0
  2 25  1  0  0  0
  2 82  1  0  0  0
  2 83  1  0  0  0
  3  4  1  0  0  0
  3 84  1  0  0  0
  3 85  1  0  0  0
  4  5  1  0  0  0
  4 86  1  0  0  0
  4 87  1  0  0  0
  5  6  1  0  0  0
  5 26  1  0  0  0
  5 88  1  0  0  0
  6 25  1  0  0  0
  6 89  1  0  0  0
  6 90  1  0  0  0
  7  8  2  0  0  0
  7 26  1  0  0  0
  7 29  1  0  0  0
  8  9  1  0  0  0
  8 22  1  0  0  0
  9 10  1  0  0  0
  9 27  2  0  0  0
 10 11  2  0  0  0
 10 15  1  0  0  0
 11 12  1  0  0  0
 11 91  1  0  0  0
 12 13  2  0  0  0
 12 92  1  0  0  0
 13 14  1  0  0  0
 13 31  1  0  0  0
 14 15  2  0  0  0
 14 93  1  0  0  0
 15 94  1  0  0  0
 16 17  2  0  0  0
 16 21  1  0  0  0
 16 31  1  0  0  0
 17 18  1  0  0  0
 17 95  1  0  0  0
 18 19  2  0  0  0
 18 96  1  0  0  0
 19 20  1  0  0  0
 19 24  1  0  0  0
 20 21  2  0  0  0
 20 97  1  0  0  0
 21 23  1  0  0  0
 22 28  1  0  0  0
 22 32  2  0  0  0
 26 27  1  0  0  0
 28 98  1  0  0  0
 28 99  1  0  0  0
 29100  1  0  0  0
 29101  1  0  0  0
 33 34  1  0  0  0
 33 66  1  0  0  0
 33 70  2  0  0  0
 34 36  1  0  0  0
 34 59  1  0  0  0
 34102  1  0  0  0
 35 44  2  0  0  0
 35 45  1  0  0  0
 35 68  1  0  0  0
 36 56  1  0  0  0
 36103  1  0  0  0
 37 39  1  0  0  0
 37 47  1  0  0  0
 37 66  1  0  0  0
 37104  1  0  0  0
 38 43  2  0  0  0
 38 46  1  0  0  0
 38 47  1  0  0  0
 39 64  1  0  0  0
 39 67  2  0  0  0
 40 52  1  0  0  0
 40 53  2  0  0  0
 40 58  1  0  0  0
 41105  1  0  0  0
 41106  1  0  0  0
 41107  1  0  0  0
 41 48  1  0  0  0
 42 43  1  0  0  0
 42 66  1  0  0  0
 42108  1  0  0  0
 42109  1  0  0  0
 43 44  1  0  0  0
 44110  1  0  0  0
 45 46  2  0  0  0
 45111  1  0  0  0
 46112  1  0  0  0
 47113  1  0  0  0
 47114  1  0  0  0
 48 56  1  0  0  0
 48 65  1  0  0  0
 48115  1  0  0  0
 49 50  1  0  0  0
 49 53  1  0  0  0
 49 64  1  0  0  0
 49116  1  0  0  0
 50 51  1  0  0  0
 50117  1  0  0  0
 50118  1  0  0  0
 51 52  1  0  0  0
 51119  1  0  0  0
 51120  1  0  0  0
 52121  1  0  0  0
 52122  1  0  0  0
 53 54  1  0  0  0
 54 55  2  0  0  0
 54123  1  0  0  0
 55 57  1  0  0  0
 55124  1  0  0  0
 56 69  2  0  0  0
 57 58  2  0  0  0
 57125  1  0  0  0
 58126  1  0  0  0
 59 60  1  0  0  0
 59 61  1  0  0  0
 59 62  1  0  0  0
 60127  1  0  0  0
 60128  1  0  0  0
 60129  1  0  0  0
 61130  1  0  0  0
 61131  1  0  0  0
 61132  1  0  0  0
 62133  1  0  0  0
 62134  1  0  0  0
 62135  1  0  0  0
 63 65  1  0  0  0
 63136  1  0  0  0
 63137  1  0  0  0
 63138  1  0  0  0
 64139  1  0  0  0
 65140  1  0  0  0
 68 80  1  0  0  0
 71 73  1  0  0  0
 71 75  1  0  0  0
 71141  1  0  0  0
 71142  1  0  0  0
 72 74  1  0  0  0
 72 75  1  0  0  0
 72143  1  0  0  0
 72144  1  0  0  0
 73 76  1  0  0  0
 73145  1  0  0  0
 73146  1  0  0  0
 74 76  1  0  0  0
 74147  1  0  0  0
 74148  1  0  0  0
 75 77  1  0  0  0
 75149  1  0  0  0
 76 78  1  0  0  0
 76150  1  0  0  0
 77 79  1  0  0  0
 77151  1  0  0  0
 77152  1  0  0  0
 78 80  1  0  0  0
 78153  1  0  0  0
 78154  1  0  0  0
 79 81  1  0  0  0
 79155  1  0  0  0
 79156  1  0  0  0
 80157  1  0  0  0
 80158  1  0  0  0
 81159  1  0  0  0
M  ISO  4   1 100  68 101  80 101  81 100
M  END
> <chiral flag>
0

> <version>
0

> <s_m_source_file>
/data/baiqing/PycharmProjects/Reinvent-master-3.2/result/LINK_invent/BTK/process_docking_weight1_custom_sum_contain_oxygen_bond_distance_aromatic_linkinvent_7_9_3/rearranged_h_0085.sdf

> <i_m_source_file_index>
10

> <r_mmod_Potential_Energy-OPLS-2005>
24.4977111816406

> <r_mmod_Stretch_Energy-OPLS-2005>
59.4555473327637

> <r_mmod_Bend_Energy-OPLS-2005>
132.707717895508

> <r_mmod_Torsional_Energy-OPLS-2005>
224.09098815918

> <r_mmod_Improper_Torsional_Energy-OPLS-2005>
4.0828742980957

> <r_mmod_Van_der_Waal_Energy-OPLS-2005>
127.53929901123

> <r_mmod_Electrostatic_Energy-OPLS-2005>
-356.419708251953

> <r_mmod_Solvation_Energy-OPLS-2005>
-198.205032348633

> <b_mmod_Minimization_Converged-OPLS-2005>
0

> <r_mmod_RMS_Derivative-OPLS-2005>
2.56221866607666

$$$$
10
                    3D
 Structure written by MMmdl.
150158  0  0  1  0            999 V2000
  -30.4496  -15.2473   20.3913 C   0  0  0  0  0  0
  -30.4363  -12.7836   19.5623 C   0  0  0  0  0  0
  -29.5475  -12.5887   18.3056 C   0  0  0  0  0  0
  -28.0874  -12.3190   18.7060 C   0  0  0  0  0  0
  -27.6157  -13.2782   19.8252 C   0  0  2  0  0  0
  -28.6370  -13.4301   20.9706 C   0  0  0  0  0  0
  -25.2408  -13.8254   20.5731 C   0  0  0  0  0  0
  -24.1758  -13.0440   20.9226 C   0  0  0  0  0  0
  -24.6416  -11.6937   20.8733 C   0  0  0  0  0  0
  -23.9113  -10.4295   21.0397 C   0  0  0  0  0  0
  -24.3660   -9.4212   21.9180 C   0  0  0  0  0  0
  -23.6325   -8.2250   22.0751 C   0  0  0  0  0  0
  -22.4300   -8.0294   21.3544 C   0  0  0  0  0  0
  -21.9945   -9.0269   20.4643 C   0  0  0  0  0  0
  -22.7281  -10.2142   20.3050 C   0  0  0  0  0  0
  -21.6862   -6.0748   22.5283 C   0  0  0  0  0  0
  -21.4021   -6.5646   23.8219 C   0  0  0  0  0  0
  -21.3662   -5.6792   24.9179 C   0  0  0  0  0  0
  -21.6046   -4.3055   24.7224 C   0  0  0  0  0  0
  -21.8822   -3.8152   23.4342 C   0  0  0  0  0  0
  -21.9196   -4.6975   22.3402 C   0  0  0  0  0  0
  -22.7774  -13.5191   21.1898 C   0  0  0  0  0  0
  -22.1663   -4.2164   21.0980 F   0  0  0  0  0  0
  -21.5630   -3.4534   25.7732 F   0  0  0  0  0  0
  -29.8948  -13.9303   20.3897 N   0  0  0  0  0  0
  -26.2831  -12.9534   20.3170 N   0  0  0  0  0  0
  -25.9353  -11.6636   20.5679 N   0  0  0  0  0  0
  -22.0453  -12.8162   22.0461 N   0  0  0  0  0  0
  -25.4080  -15.1995   20.4246 N   0  0  0  0  0  0
  -31.6304  -15.2455   20.0117 O   0  0  0  0  0  0
  -21.6652   -6.8897   21.4247 O   0  0  0  0  0  0
  -22.3439  -14.5491   20.6755 O   0  0  0  0  0  0
  -24.6615  -31.8239   23.1715 C   0  0  0  0  0  0
  -25.9298  -32.4589   23.8181 C   0  0  1  0  0  0
  -27.2186  -26.9357   20.1854 C   0  0  0  0  0  0
  -25.5972  -33.8407   24.2089 N   0  0  0  0  0  0
  -23.4766  -30.4349   21.5189 C   0  0  2  0  0  0
  -24.9311  -28.8225   20.1097 C   0  0  0  0  0  0
  -22.7662  -29.4435   22.4775 C   0  0  0  0  0  0
  -18.0322  -28.1397   22.8469 C   0  0  0  0  0  0
  -24.1491  -36.7206   23.2649 C   0  0  0  0  0  0
  -26.0450  -30.6314   21.4025 C   0  0  0  0  0  0
  -26.1121  -29.2223   20.7470 C   0  0  0  0  0  0
  -27.2489  -28.2977   20.7635 C   0  0  0  0  0  0
  -26.0140  -26.6890   19.4898 C   0  0  0  0  0  0
  -24.9071  -27.5771   19.4604 C   0  0  0  0  0  0
  -23.7172  -29.7499   20.1442 C   0  0  0  0  0  0
  -25.4132  -36.2974   24.0304 C   0  0  1  0  0  0
  -20.5944  -28.3745   23.1189 C   0  0  2  0  0  0
  -20.6792  -26.9424   22.5405 C   0  0  0  0  0  0
  -19.5769  -26.6367   21.5214 C   0  0  0  0  0  0
  -18.1952  -26.7933   22.1623 C   0  0  0  0  0  0
  -19.1582  -28.8892   23.2817 C   0  0  0  0  0  0
  -18.9491  -30.1479   23.8854 C   0  0  0  0  0  0
  -17.6483  -30.6591   24.0550 C   0  0  0  0  0  0
  -25.9094  -34.9353   23.5019 C   0  0  0  0  0  0
  -16.5375  -29.9076   23.6336 C   0  0  0  0  0  0
  -16.7303  -28.6494   23.0366 C   0  0  0  0  0  0
  -26.4555  -31.6533   25.0706 C   0  0  0  0  0  0
  -25.3689  -31.3778   26.1367 C   0  0  0  0  0  0
  -27.0454  -30.2900   24.6440 C   0  0  0  0  0  0
  -27.6048  -32.4345   25.7509 C   0  0  0  0  0  0
  -27.5575  -37.1760   24.8466 C   0  0  0  0  0  0
  -21.4332  -29.3041   22.3537 N   0  0  0  0  0  0
  -26.4281  -37.3709   23.9412 N   0  0  0  0  0  0
  -24.7489  -30.9907   22.0846 N   0  0  0  0  0  0
  -23.4214  -28.8007   23.3016 O   0  0  0  0  0  0
  -28.2194  -25.8360   20.2953 O   0  0  0  0  0  0
  -26.5704  -34.8886   22.4616 O   0  0  0  0  0  0
  -23.5685  -32.1211   23.6802 O   0  0  0  0  0  0
  -29.6811  -18.0917   20.0936 C   0  0  0  0  0  0
  -28.8758  -18.2087   22.6212 C   0  0  0  0  0  0
  -29.7817  -16.7372   20.8230 C   0  0  0  0  0  0
  -29.3741  -16.9542   22.1757 C   0  0  0  0  0  0
  -29.1782  -19.4411   20.6391 C   0  0  0  0  0  0
  -29.5141  -15.8908   23.2617 C   0  0  0  0  0  0
  -28.7896  -20.9927   19.9438 C   0  0  0  0  0  0
  -28.8143  -22.6935   20.5413 C   0  0  0  0  0  0
  -28.0357  -24.2261   19.9871 C   0  0  0  0  0  0
  -28.7635  -19.3634   21.9163 N   0  0  0  0  0  0
  -31.4678  -12.9541   19.2529 H   0  0  0  0  0  0
  -30.4668  -11.8655   20.1511 H   0  0  0  0  0  0
  -29.9269  -11.7681   17.6951 H   0  0  0  0  0  0
  -29.5972  -13.4843   17.6853 H   0  0  0  0  0  0
  -28.0245  -11.2867   19.0514 H   0  0  0  0  0  0
  -27.4331  -12.3915   17.8363 H   0  0  0  0  0  0
  -27.5412  -14.2548   19.3453 H   0  0  0  0  0  0
  -28.7841  -12.4908   21.5062 H   0  0  0  0  0  0
  -28.2471  -14.1403   21.6958 H   0  0  0  0  0  0
  -25.2810   -9.5686   22.4747 H   0  0  0  0  0  0
  -24.0043   -7.4637   22.7457 H   0  0  0  0  0  0
  -21.0881   -8.8788   19.8940 H   0  0  0  0  0  0
  -22.3744  -10.9686   19.6155 H   0  0  0  0  0  0
  -21.2017   -7.6153   23.9730 H   0  0  0  0  0  0
  -21.1479   -6.0518   25.9083 H   0  0  0  0  0  0
  -22.0600   -2.7616   23.2832 H   0  0  0  0  0  0
  -22.4104  -11.9837   22.4848 H   0  0  0  0  0  0
  -21.1066  -13.1161   22.2673 H   0  0  0  0  0  0
  -24.6457  -15.8546   20.5589 H   0  0  0  0  0  0
  -26.2688  -15.6476   20.1367 H   0  0  0  0  0  0
  -26.7369  -32.5126   23.0898 H   0  0  0  0  0  0
  -25.0083  -33.9492   25.0215 H   0  0  0  0  0  0
  -22.7899  -31.2664   21.3471 H   0  0  0  0  0  0
  -23.3773  -35.9516   23.3274 H   0  0  0  0  0  0
  -24.3572  -36.8888   22.2071 H   0  0  0  0  0  0
  -23.7223  -37.6376   23.6724 H   0  0  0  0  0  0
  -26.2264  -31.3719   20.6225 H   0  0  0  0  0  0
  -26.9045  -30.6876   22.0585 H   0  0  0  0  0  0
  -28.1390  -28.5965   21.2994 H   0  0  0  0  0  0
  -25.8917  -25.7384   18.9913 H   0  0  0  0  0  0
  -24.0110  -27.2678   18.9407 H   0  0  0  0  0  0
  -23.8741  -30.5186   19.3863 H   0  0  0  0  0  0
  -22.8277  -29.2037   19.8255 H   0  0  0  0  0  0
  -25.1328  -36.1779   25.0795 H   0  0  0  0  0  0
  -21.0037  -28.3349   24.1309 H   0  0  0  0  0  0
  -20.5661  -26.2365   23.3647 H   0  0  0  0  0  0
  -21.6657  -26.7387   22.1218 H   0  0  0  0  0  0
  -19.6923  -25.6263   21.1279 H   0  0  0  0  0  0
  -19.6707  -27.3148   20.6721 H   0  0  0  0  0  0
  -17.4219  -26.6679   21.4025 H   0  0  0  0  0  0
  -18.0342  -26.0081   22.9027 H   0  0  0  0  0  0
  -19.7965  -30.7306   24.2210 H   0  0  0  0  0  0
  -17.5033  -31.6269   24.5155 H   0  0  0  0  0  0
  -15.5372  -30.2964   23.7678 H   0  0  0  0  0  0
  -15.8706  -28.0790   22.7114 H   0  0  0  0  0  0
  -24.5873  -30.7127   25.7675 H   0  0  0  0  0  0
  -24.8874  -32.2974   26.4702 H   0  0  0  0  0  0
  -25.7922  -30.9000   27.0211 H   0  0  0  0  0  0
  -26.3117  -29.6574   24.1429 H   0  0  0  0  0  0
  -27.3966  -29.7271   25.5100 H   0  0  0  0  0  0
  -27.9071  -30.4088   23.9868 H   0  0  0  0  0  0
  -27.2614  -33.3687   26.1971 H   0  0  0  0  0  0
  -28.3917  -32.6843   25.0378 H   0  0  0  0  0  0
  -28.0652  -31.8550   26.5523 H   0  0  0  0  0  0
  -28.2564  -38.0083   24.7526 H   0  0  0  0  0  0
  -28.1097  -36.2610   24.6273 H   0  0  0  0  0  0
  -27.2292  -37.1377   25.8868 H   0  0  0  0  0  0
  -20.9581  -29.8744   21.6677 H   0  0  0  0  0  0
  -26.0130  -38.2768   24.1426 H   0  0  0  0  0  0
  -29.9951  -18.0856   19.0582 H   0  0  0  0  0  0
  -28.5631  -18.3045   23.6514 H   0  0  0  0  0  0
  -30.2073  -15.0865   23.0216 H   0  0  0  0  0  0
  -28.5430  -15.4584   23.5028 H   0  0  0  0  0  0
  -29.8945  -16.3490   24.1759 H   0  0  0  0  0  0
  -27.7617  -20.8446   19.6112 H   0  0  0  0  0  0
  -29.3559  -21.0088   19.0124 H   0  0  0  0  0  0
  -29.8748  -22.9315   20.6247 H   0  0  0  0  0  0
  -28.4879  -22.6055   21.5777 H   0  0  0  0  0  0
  -26.9749  -24.0501   20.1655 H   0  0  0  0  0  0
  -28.1221  -24.1892   18.9008 H   0  0  0  0  0  0
  1 25  1  0  0  0
  1 30  2  0  0  0
  1 73  1  0  0  0
  2  3  1  0  0  0
  2 25  1  0  0  0
  2 81  1  0  0  0
  2 82  1  0  0  0
  3  4  1  0  0  0
  3 83  1  0  0  0
  3 84  1  0  0  0
  4  5  1  0  0  0
  4 85  1  0  0  0
  4 86  1  0  0  0
  5  6  1  0  0  0
  5 26  1  0  0  0
  5 87  1  0  0  0
  6 25  1  0  0  0
  6 88  1  0  0  0
  6 89  1  0  0  0
  7  8  2  0  0  0
  7 26  1  0  0  0
  7 29  1  0  0  0
  8  9  1  0  0  0
  8 22  1  0  0  0
  9 10  1  0  0  0
  9 27  2  0  0  0
 10 11  2  0  0  0
 10 15  1  0  0  0
 11 12  1  0  0  0
 11 90  1  0  0  0
 12 13  2  0  0  0
 12 91  1  0  0  0
 13 14  1  0  0  0
 13 31  1  0  0  0
 14 15  2  0  0  0
 14 92  1  0  0  0
 15 93  1  0  0  0
 16 17  2  0  0  0
 16 21  1  0  0  0
 16 31  1  0  0  0
 17 18  1  0  0  0
 17 94  1  0  0  0
 18 19  2  0  0  0
 18 95  1  0  0  0
 19 20  1  0  0  0
 19 24  1  0  0  0
 20 21  2  0  0  0
 20 96  1  0  0  0
 21 23  1  0  0  0
 22 28  1  0  0  0
 22 32  2  0  0  0
 26 27  1  0  0  0
 28 97  1  0  0  0
 28 98  1  0  0  0
 29 99  1  0  0  0
 29100  1  0  0  0
 33 34  1  0  0  0
 33 66  1  0  0  0
 33 70  2  0  0  0
 34 36  1  0  0  0
 34 59  1  0  0  0
 34101  1  0  0  0
 35 44  2  0  0  0
 35 45  1  0  0  0
 35 68  1  0  0  0
 36 56  1  0  0  0
 36102  1  0  0  0
 37 39  1  0  0  0
 37 47  1  0  0  0
 37 66  1  0  0  0
 37103  1  0  0  0
 38 43  2  0  0  0
 38 46  1  0  0  0
 38 47  1  0  0  0
 39 64  1  0  0  0
 39 67  2  0  0  0
 40 52  1  0  0  0
 40 53  2  0  0  0
 40 58  1  0  0  0
 41104  1  0  0  0
 41105  1  0  0  0
 41106  1  0  0  0
 41 48  1  0  0  0
 42 43  1  0  0  0
 42 66  1  0  0  0
 42107  1  0  0  0
 42108  1  0  0  0
 43 44  1  0  0  0
 44109  1  0  0  0
 45 46  2  0  0  0
 45110  1  0  0  0
 46111  1  0  0  0
 47112  1  0  0  0
 47113  1  0  0  0
 48 56  1  0  0  0
 48 65  1  0  0  0
 48114  1  0  0  0
 49 50  1  0  0  0
 49 53  1  0  0  0
 49 64  1  0  0  0
 49115  1  0  0  0
 50 51  1  0  0  0
 50116  1  0  0  0
 50117  1  0  0  0
 51 52  1  0  0  0
 51118  1  0  0  0
 51119  1  0  0  0
 52120  1  0  0  0
 52121  1  0  0  0
 53 54  1  0  0  0
 54 55  2  0  0  0
 54122  1  0  0  0
 55 57  1  0  0  0
 55123  1  0  0  0
 56 69  2  0  0  0
 57 58  2  0  0  0
 57124  1  0  0  0
 58125  1  0  0  0
 59 60  1  0  0  0
 59 61  1  0  0  0
 59 62  1  0  0  0
 60126  1  0  0  0
 60127  1  0  0  0
 60128  1  0  0  0
 61129  1  0  0  0
 61130  1  0  0  0
 61131  1  0  0  0
 62132  1  0  0  0
 62133  1  0  0  0
 62134  1  0  0  0
 63 65  1  0  0  0
 63135  1  0  0  0
 63136  1  0  0  0
 63137  1  0  0  0
 64138  1  0  0  0
 65139  1  0  0  0
 68 79  1  0  0  0
 71 73  2  0  0  0
 71 75  1  0  0  0
 71140  1  0  0  0
 72 74  2  0  0  0
 72 80  1  0  0  0
 72141  1  0  0  0
 73 74  1  0  0  0
 74 76  1  0  0  0
 75 77  1  0  0  0
 75 80  2  0  0  0
 76142  1  0  0  0
 76143  1  0  0  0
 76144  1  0  0  0
 77 78  1  0  0  0
 77145  1  0  0  0
 77146  1  0  0  0
 78 79  1  0  0  0
 78147  1  0  0  0
 78148  1  0  0  0
 79149  1  0  0  0
 79150  1  0  0  0
M  ISO  4   1 100  68 101  73 100  79 101
M  END
> <chiral flag>
0

> <version>
0

> <s_m_source_file>
/data/baiqing/PycharmProjects/Reinvent-master-3.2/result/LINK_invent/BTK/process_docking_weight1_custom_sum_contain_oxygen_bond_distance_aromatic_linkinvent_7_9_3/rearranged_h_0085.sdf

> <i_m_source_file_index>
11

> <r_mmod_Potential_Energy-OPLS-2005>
1123.333984375

> <r_mmod_Stretch_Energy-OPLS-2005>
579.193725585938

> <r_mmod_Bend_Energy-OPLS-2005>
417.291015625

> <r_mmod_Torsional_Energy-OPLS-2005>
199.355926513672

> <r_mmod_Improper_Torsional_Energy-OPLS-2005>
3.12048196792603

> <r_mmod_Van_der_Waal_Energy-OPLS-2005>
131.720077514648

> <r_mmod_Electrostatic_Energy-OPLS-2005>
-439.685211181641

> <r_mmod_Solvation_Energy-OPLS-2005>
-206.519485473633

> <b_mmod_Minimization_Converged-OPLS-2005>
0

> <r_mmod_RMS_Derivative-OPLS-2005>
1.1027318239212

$$$$
11
                    3D
 Structure written by MMmdl.
153161  0  0  1  0            999 V2000
  -30.7155  -14.4730   20.5757 C   0  0  0  0  0  0
  -30.4251  -12.2844   19.4253 C   0  0  0  0  0  0
  -29.4988  -12.5059   18.2112 C   0  0  0  0  0  0
  -28.0184  -12.3714   18.6204 C   0  0  0  0  0  0
  -27.6642  -13.2081   19.8800 C   0  0  2  0  0  0
  -28.6975  -12.9815   21.0064 C   0  0  0  0  0  0
  -25.2595  -13.8173   20.5681 C   0  0  0  0  0  0
  -24.1839  -13.0447   20.9154 C   0  0  0  0  0  0
  -24.6391  -11.6912   20.8717 C   0  0  0  0  0  0
  -23.9057  -10.4299   21.0395 C   0  0  0  0  0  0
  -24.3613   -9.4216   21.9176 C   0  0  0  0  0  0
  -23.6293   -8.2249   22.0751 C   0  0  0  0  0  0
  -22.4275   -8.0282   21.3543 C   0  0  0  0  0  0
  -21.9904   -9.0254   20.4645 C   0  0  0  0  0  0
  -22.7227  -10.2136   20.3050 C   0  0  0  0  0  0
  -21.6855   -6.0735   22.5278 C   0  0  0  0  0  0
  -21.4017   -6.5639   23.8211 C   0  0  0  0  0  0
  -21.3662   -5.6792   24.9174 C   0  0  0  0  0  0
  -21.6043   -4.3054   24.7225 C   0  0  0  0  0  0
  -21.8820   -3.8146   23.4346 C   0  0  0  0  0  0
  -21.9195   -4.6962   22.3403 C   0  0  0  0  0  0
  -22.7864  -13.5244   21.1831 C   0  0  0  0  0  0
  -22.1664   -4.2147   21.0980 F   0  0  0  0  0  0
  -21.5629   -3.4538   25.7738 F   0  0  0  0  0  0
  -30.0358  -13.2484   20.4606 N   0  0  0  0  0  0
  -26.3032  -12.9345   20.3370 N   0  0  0  0  0  0
  -25.9318  -11.6500   20.5751 N   0  0  0  0  0  0
  -22.0510  -12.8237   22.0392 N   0  0  0  0  0  0
  -25.4338  -15.1896   20.4131 N   0  0  0  0  0  0
  -31.8121  -14.7132   20.0601 O   0  0  0  0  0  0
  -21.6642   -6.8878   21.4239 O   0  0  0  0  0  0
  -22.3546  -14.5552   20.6685 O   0  0  0  0  0  0
  -24.6155  -31.8675   23.2101 C   0  0  0  0  0  0
  -25.9045  -32.4823   23.8396 C   0  0  1  0  0  0
  -27.2326  -27.4315   20.0975 C   0  0  0  0  0  0
  -25.5896  -33.8622   24.2325 N   0  0  0  0  0  0
  -23.4043  -30.4914   21.5504 C   0  0  2  0  0  0
  -24.8525  -28.9612   20.1104 C   0  0  0  0  0  0
  -22.7421  -29.4653   22.4982 C   0  0  0  0  0  0
  -18.0275  -28.1379   22.8489 C   0  0  0  0  0  0
  -24.1487  -36.7319   23.2637 C   0  0  0  0  0  0
  -25.9343  -30.8334   21.3640 C   0  0  0  0  0  0
  -26.0140  -29.4697   20.7068 C   0  0  0  0  0  0
  -27.2105  -28.7135   20.6951 C   0  0  0  0  0  0
  -26.0581  -26.9455   19.4836 C   0  0  0  0  0  0
  -24.8699  -27.6988   19.4934 C   0  0  0  0  0  0
  -23.6133  -29.8264   20.1638 C   0  0  0  0  0  0
  -25.4109  -36.3114   24.0336 C   0  0  1  0  0  0
  -20.5866  -28.3668   23.1317 C   0  0  2  0  0  0
  -20.6767  -26.9403   22.5419 C   0  0  0  0  0  0
  -19.5748  -26.6384   21.5216 C   0  0  0  0  0  0
  -18.1925  -26.7925   22.1624 C   0  0  0  0  0  0
  -19.1523  -28.8840   23.2899 C   0  0  0  0  0  0
  -18.9452  -30.1445   23.8911 C   0  0  0  0  0  0
  -17.6455  -30.6584   24.0567 C   0  0  0  0  0  0
  -25.9034  -34.9477   23.5128 C   0  0  0  0  0  0
  -16.5346  -29.9088   23.6322 C   0  0  0  0  0  0
  -16.7264  -28.6505   23.0343 C   0  0  0  0  0  0
  -26.4470  -31.6603   25.0724 C   0  0  0  0  0  0
  -25.3738  -31.3711   26.1474 C   0  0  0  0  0  0
  -27.0299  -30.3045   24.6095 C   0  0  0  0  0  0
  -27.6042  -32.4326   25.7489 C   0  0  0  0  0  0
  -27.5583  -37.1814   24.8462 C   0  0  0  0  0  0
  -21.4146  -29.3034   22.3722 N   0  0  0  0  0  0
  -26.4295  -37.3799   23.9407 N   0  0  0  0  0  0
  -24.6696  -31.0777   22.1001 N   0  0  0  0  0  0
  -23.4191  -28.8192   23.3022 O   0  0  0  0  0  0
  -28.3624  -26.6395   20.1378 O   0  0  0  0  0  0
  -26.5600  -34.8928   22.4691 O   0  0  0  0  0  0
  -23.5346  -32.1423   23.7497 O   0  0  0  0  0  0
  -31.2360  -18.8774   20.8119 C   0  0  0  0  0  0
  -31.2346  -17.5190   21.2016 C   0  0  0  0  0  0
  -30.0809  -19.3873   20.1806 C   0  0  0  0  0  0
  -30.0832  -16.7500   20.9145 C   0  0  0  0  0  0
  -30.0302  -20.8149   19.6237 C   0  0  0  0  0  0
  -29.6987  -21.9272   20.6486 C   0  0  0  0  0  0
  -29.4822  -23.3288   20.0061 C   0  0  0  0  0  0
  -29.3784  -24.4937   21.0299 C   0  0  0  0  0  0
  -28.1503  -25.4280   20.8888 C   0  0  0  0  0  0
  -28.9841  -18.6100   19.9826 N   0  0  0  0  0  0
  -28.9877  -17.3158   20.3388 N   0  0  0  0  0  0
  -29.9528  -15.4079   21.2130 O   0  0  0  0  0  0
  -31.4717  -12.3901   19.1337 H   0  0  0  0  0  0
  -30.3206  -11.2677   19.8071 H   0  0  0  0  0  0
  -29.7349  -11.7901   17.4225 H   0  0  0  0  0  0
  -29.6742  -13.4962   17.7877 H   0  0  0  0  0  0
  -27.8233  -11.3155   18.8107 H   0  0  0  0  0  0
  -27.3713  -12.6531   17.7889 H   0  0  0  0  0  0
  -27.7137  -14.2581   19.5896 H   0  0  0  0  0  0
  -28.6545  -11.9496   21.3582 H   0  0  0  0  0  0
  -28.4658  -13.5963   21.8772 H   0  0  0  0  0  0
  -25.2761   -9.5696   22.4746 H   0  0  0  0  0  0
  -24.0007   -7.4643   22.7471 H   0  0  0  0  0  0
  -21.0836   -8.8768   19.8954 H   0  0  0  0  0  0
  -22.3682  -10.9673   19.6158 H   0  0  0  0  0  0
  -21.2009   -7.6148   23.9712 H   0  0  0  0  0  0
  -21.1485   -6.0524   25.9076 H   0  0  0  0  0  0
  -22.0597   -2.7607   23.2846 H   0  0  0  0  0  0
  -22.4132  -11.9904   22.4786 H   0  0  0  0  0  0
  -21.1129  -13.1262   22.2602 H   0  0  0  0  0  0
  -24.6749  -15.8515   20.5347 H   0  0  0  0  0  0
  -26.3043  -15.6318   20.1413 H   0  0  0  0  0  0
  -26.7119  -32.5537   23.1164 H   0  0  0  0  0  0
  -25.0048  -33.9783   25.0471 H   0  0  0  0  0  0
  -22.6929  -31.3084   21.4124 H   0  0  0  0  0  0
  -23.3745  -35.9657   23.3309 H   0  0  0  0  0  0
  -24.3581  -36.8924   22.2049 H   0  0  0  0  0  0
  -23.7244  -37.6528   23.6646 H   0  0  0  0  0  0
  -26.0478  -31.6025   20.5984 H   0  0  0  0  0  0
  -26.8211  -30.8850   21.9837 H   0  0  0  0  0  0
  -28.1049  -29.0956   21.1673 H   0  0  0  0  0  0
  -26.0556  -25.9777   19.0028 H   0  0  0  0  0  0
  -23.9790  -27.3025   19.0262 H   0  0  0  0  0  0
  -23.7209  -30.6032   19.4058 H   0  0  0  0  0  0
  -22.7374  -29.2466   19.8668 H   0  0  0  0  0  0
  -25.1286  -36.1982   25.0829 H   0  0  0  0  0  0
  -20.9957  -28.3236   24.1438 H   0  0  0  0  0  0
  -20.5680  -26.2274   23.3606 H   0  0  0  0  0  0
  -21.6639  -26.7453   22.1208 H   0  0  0  0  0  0
  -19.6912  -25.6298   21.1237 H   0  0  0  0  0  0
  -19.6689  -27.3201   20.6752 H   0  0  0  0  0  0
  -17.4197  -26.6671   21.4023 H   0  0  0  0  0  0
  -18.0325  -26.0065   22.9017 H   0  0  0  0  0  0
  -19.7928  -30.7254   24.2289 H   0  0  0  0  0  0
  -17.5011  -31.6266   24.5167 H   0  0  0  0  0  0
  -15.5348  -30.3000   23.7635 H   0  0  0  0  0  0
  -15.8663  -28.0835   22.7046 H   0  0  0  0  0  0
  -24.5895  -30.7079   25.7808 H   0  0  0  0  0  0
  -24.8953  -32.2872   26.4946 H   0  0  0  0  0  0
  -25.8091  -30.8857   27.0217 H   0  0  0  0  0  0
  -26.2843  -29.6816   24.1141 H   0  0  0  0  0  0
  -27.4060  -29.7270   25.4549 H   0  0  0  0  0  0
  -27.8683  -30.4362   23.9250 H   0  0  0  0  0  0
  -27.2644  -33.3602   26.2112 H   0  0  0  0  0  0
  -28.3829  -32.6933   25.0308 H   0  0  0  0  0  0
  -28.0739  -31.8431   26.5371 H   0  0  0  0  0  0
  -28.2606  -38.0108   24.7512 H   0  0  0  0  0  0
  -28.1073  -36.2639   24.6283 H   0  0  0  0  0  0
  -27.2300  -37.1463   25.8865 H   0  0  0  0  0  0
  -20.9307  -29.8762   21.6949 H   0  0  0  0  0  0
  -26.0184  -38.2877   24.1411 H   0  0  0  0  0  0
  -32.1040  -19.5012   20.9692 H   0  0  0  0  0  0
  -32.0967  -17.0748   21.6765 H   0  0  0  0  0  0
  -29.2953  -20.8398   18.8179 H   0  0  0  0  0  0
  -30.9892  -21.0299   19.1511 H   0  0  0  0  0  0
  -30.5043  -21.9746   21.3824 H   0  0  0  0  0  0
  -28.7995  -21.6486   21.1999 H   0  0  0  0  0  0
  -28.5880  -23.2928   19.3825 H   0  0  0  0  0  0
  -30.3031  -23.5457   19.3212 H   0  0  0  0  0  0
  -30.2975  -25.0809   21.0386 H   0  0  0  0  0  0
  -29.3214  -24.0527   22.0261 H   0  0  0  0  0  0
  -27.8563  -25.7343   21.8948 H   0  0  0  0  0  0
  -27.3083  -24.8515   20.5051 H   0  0  0  0  0  0
  1 25  1  0  0  0
  1 30  2  0  0  0
  1 82  1  0  0  0
  2  3  1  0  0  0
  2 25  1  0  0  0
  2 83  1  0  0  0
  2 84  1  0  0  0
  3  4  1  0  0  0
  3 85  1  0  0  0
  3 86  1  0  0  0
  4  5  1  0  0  0
  4 87  1  0  0  0
  4 88  1  0  0  0
  5  6  1  0  0  0
  5 26  1  0  0  0
  5 89  1  0  0  0
  6 25  1  0  0  0
  6 90  1  0  0  0
  6 91  1  0  0  0
  7  8  2  0  0  0
  7 26  1  0  0  0
  7 29  1  0  0  0
  8  9  1  0  0  0
  8 22  1  0  0  0
  9 10  1  0  0  0
  9 27  2  0  0  0
 10 11  2  0  0  0
 10 15  1  0  0  0
 11 12  1  0  0  0
 11 92  1  0  0  0
 12 13  2  0  0  0
 12 93  1  0  0  0
 13 14  1  0  0  0
 13 31  1  0  0  0
 14 15  2  0  0  0
 14 94  1  0  0  0
 15 95  1  0  0  0
 16 17  2  0  0  0
 16 21  1  0  0  0
 16 31  1  0  0  0
 17 18  1  0  0  0
 17 96  1  0  0  0
 18 19  2  0  0  0
 18 97  1  0  0  0
 19 20  1  0  0  0
 19 24  1  0  0  0
 20 21  2  0  0  0
 20 98  1  0  0  0
 21 23  1  0  0  0
 22 28  1  0  0  0
 22 32  2  0  0  0
 26 27  1  0  0  0
 28 99  1  0  0  0
 28100  1  0  0  0
 29101  1  0  0  0
 29102  1  0  0  0
 33 34  1  0  0  0
 33 66  1  0  0  0
 33 70  2  0  0  0
 34 36  1  0  0  0
 34 59  1  0  0  0
 34103  1  0  0  0
 35 44  2  0  0  0
 35 45  1  0  0  0
 35 68  1  0  0  0
 36 56  1  0  0  0
 36104  1  0  0  0
 37 39  1  0  0  0
 37 47  1  0  0  0
 37 66  1  0  0  0
 37105  1  0  0  0
 38 43  2  0  0  0
 38 46  1  0  0  0
 38 47  1  0  0  0
 39 64  1  0  0  0
 39 67  2  0  0  0
 40 52  1  0  0  0
 40 53  2  0  0  0
 40 58  1  0  0  0
 41106  1  0  0  0
 41107  1  0  0  0
 41108  1  0  0  0
 41 48  1  0  0  0
 42 43  1  0  0  0
 42 66  1  0  0  0
 42109  1  0  0  0
 42110  1  0  0  0
 43 44  1  0  0  0
 44111  1  0  0  0
 45 46  2  0  0  0
 45112  1  0  0  0
 46113  1  0  0  0
 47114  1  0  0  0
 47115  1  0  0  0
 48 56  1  0  0  0
 48 65  1  0  0  0
 48116  1  0  0  0
 49 50  1  0  0  0
 49 53  1  0  0  0
 49 64  1  0  0  0
 49117  1  0  0  0
 50 51  1  0  0  0
 50118  1  0  0  0
 50119  1  0  0  0
 51 52  1  0  0  0
 51120  1  0  0  0
 51121  1  0  0  0
 52122  1  0  0  0
 52123  1  0  0  0
 53 54  1  0  0  0
 54 55  2  0  0  0
 54124  1  0  0  0
 55 57  1  0  0  0
 55125  1  0  0  0
 56 69  2  0  0  0
 57 58  2  0  0  0
 57126  1  0  0  0
 58127  1  0  0  0
 59 60  1  0  0  0
 59 61  1  0  0  0
 59 62  1  0  0  0
 60128  1  0  0  0
 60129  1  0  0  0
 60130  1  0  0  0
 61131  1  0  0  0
 61132  1  0  0  0
 61133  1  0  0  0
 62134  1  0  0  0
 62135  1  0  0  0
 62136  1  0  0  0
 63 65  1  0  0  0
 63137  1  0  0  0
 63138  1  0  0  0
 63139  1  0  0  0
 64140  1  0  0  0
 65141  1  0  0  0
 68 79  1  0  0  0
 71 72  2  0  0  0
 71 73  1  0  0  0
 71142  1  0  0  0
 72 74  1  0  0  0
 72143  1  0  0  0
 73 75  1  0  0  0
 73 80  2  0  0  0
 74 81  2  0  0  0
 74 82  1  0  0  0
 75 76  1  0  0  0
 75144  1  0  0  0
 75145  1  0  0  0
 76 77  1  0  0  0
 76146  1  0  0  0
 76147  1  0  0  0
 77 78  1  0  0  0
 77148  1  0  0  0
 77149  1  0  0  0
 78 79  1  0  0  0
 78150  1  0  0  0
 78151  1  0  0  0
 79152  1  0  0  0
 79153  1  0  0  0
 80 81  1  0  0  0
M  ISO  4   1 100  68 101  79 101  82 100
M  END
> <chiral flag>
0

> <version>
0

> <s_m_source_file>
/data/baiqing/PycharmProjects/Reinvent-master-3.2/result/LINK_invent/BTK/process_docking_weight1_custom_sum_contain_oxygen_bond_distance_aromatic_linkinvent_7_9_3/rearranged_h_0085.sdf

> <i_m_source_file_index>
12

> <r_mmod_Potential_Energy-OPLS-2005>
10.799768447876

> <r_mmod_Stretch_Energy-OPLS-2005>
39.3924827575684

> <r_mmod_Bend_Energy-OPLS-2005>
94.875846862793

> <r_mmod_Torsional_Energy-OPLS-2005>
204.558837890625

> <r_mmod_Improper_Torsional_Energy-OPLS-2005>
3.20614409446716

> <r_mmod_Van_der_Waal_Energy-OPLS-2005>
149.838989257812

> <r_mmod_Electrostatic_Energy-OPLS-2005>
-296.194793701172

> <r_mmod_Solvation_Energy-OPLS-2005>
-197.815231323242

> <b_mmod_Minimization_Converged-OPLS-2005>
0

> <r_mmod_RMS_Derivative-OPLS-2005>
0.402618378400803

$$$$
12
                    3D
 Structure written by MMmdl.
171178  0  0  1  0            999 V2000
  -30.5334  -14.8234   20.5205 C   0  0  0  0  0  0
  -30.4476  -12.5290   19.4881 C   0  0  0  0  0  0
  -29.5234  -12.5599   18.2495 C   0  0  0  0  0  0
  -28.0406  -12.3803   18.6344 C   0  0  0  0  0  0
  -27.6434  -13.2344   19.8678 C   0  0  2  0  0  0
  -28.6778  -13.1014   20.9964 C   0  0  0  0  0  0
  -25.2521  -13.8153   20.5612 C   0  0  0  0  0  0
  -24.1768  -13.0410   20.9189 C   0  0  0  0  0  0
  -24.6362  -11.6887   20.8765 C   0  0  0  0  0  0
  -23.9006  -10.4276   21.0422 C   0  0  0  0  0  0
  -24.3551   -9.4208   21.9211 C   0  0  0  0  0  0
  -23.6253   -8.2227   22.0763 C   0  0  0  0  0  0
  -22.4261   -8.0247   21.3534 C   0  0  0  0  0  0
  -21.9876   -9.0216   20.4652 C   0  0  0  0  0  0
  -22.7178  -10.2117   20.3079 C   0  0  0  0  0  0
  -21.6849   -6.0698   22.5273 C   0  0  0  0  0  0
  -21.4001   -6.5608   23.8198 C   0  0  0  0  0  0
  -21.3673   -5.6781   24.9178 C   0  0  0  0  0  0
  -21.6053   -4.3043   24.7241 C   0  0  0  0  0  0
  -21.8820   -3.8115   23.4367 C   0  0  0  0  0  0
  -21.9193   -4.6922   22.3412 C   0  0  0  0  0  0
  -22.7826  -13.5247   21.1836 C   0  0  0  0  0  0
  -22.1672   -4.2088   21.1002 F   0  0  0  0  0  0
  -21.5649   -3.4544   25.7769 F   0  0  0  0  0  0
  -29.9629  -13.5588   20.4525 N   0  0  0  0  0  0
  -26.2916  -12.9346   20.3291 N   0  0  0  0  0  0
  -25.9287  -11.6488   20.5743 N   0  0  0  0  0  0
  -22.0389  -12.8288   22.0419 N   0  0  0  0  0  0
  -25.4351  -15.1818   20.3854 N   0  0  0  0  0  0
  -31.6753  -14.9246   20.0548 O   0  0  0  0  0  0
  -21.6655   -6.8828   21.4220 O   0  0  0  0  0  0
  -22.3552  -14.5563   20.6706 O   0  0  0  0  0  0
  -24.6346  -31.8455   23.1998 C   0  0  0  0  0  0
  -25.9156  -32.4707   23.8315 C   0  0  1  0  0  0
  -27.2138  -27.1886   20.1705 C   0  0  0  0  0  0
  -25.5907  -33.8527   24.2182 N   0  0  0  0  0  0
  -23.4381  -30.4658   21.5433 C   0  0  2  0  0  0
  -24.8902  -28.8971   20.1170 C   0  0  0  0  0  0
  -22.7533  -29.4520   22.4945 C   0  0  0  0  0  0
  -18.0278  -28.1317   22.8434 C   0  0  0  0  0  0
  -24.1503  -36.7269   23.2652 C   0  0  0  0  0  0
  -25.9853  -30.7407   21.3872 C   0  0  0  0  0  0
  -26.0617  -29.3547   20.7328 C   0  0  0  0  0  0
  -27.2286  -28.5154   20.7371 C   0  0  0  0  0  0
  -26.0196  -26.8053   19.5266 C   0  0  0  0  0  0
  -24.8791  -27.6332   19.4991 C   0  0  0  0  0  0
  -23.6664  -29.7943   20.1622 C   0  0  0  0  0  0
  -25.4122  -36.3008   24.0313 C   0  0  1  0  0  0
  -20.5885  -28.3613   23.1230 C   0  0  2  0  0  0
  -20.6730  -26.9317   22.5393 C   0  0  0  0  0  0
  -19.5705  -26.6301   21.5163 C   0  0  0  0  0  0
  -18.1880  -26.7841   22.1581 C   0  0  0  0  0  0
  -19.1544  -28.8790   23.2789 C   0  0  0  0  0  0
  -18.9481  -30.1398   23.8811 C   0  0  0  0  0  0
  -17.6477  -30.6516   24.0501 C   0  0  0  0  0  0
  -25.9050  -34.9406   23.5035 C   0  0  0  0  0  0
  -16.5359  -29.9010   23.6310 C   0  0  0  0  0  0
  -16.7274  -28.6440   23.0313 C   0  0  0  0  0  0
  -26.4522  -31.6592   25.0736 C   0  0  0  0  0  0
  -25.3749  -31.3768   26.1489 C   0  0  0  0  0  0
  -27.0365  -30.2996   24.6224 C   0  0  0  0  0  0
  -27.5999  -32.4445   25.7523 C   0  0  0  0  0  0
  -27.5577  -37.1770   24.8451 C   0  0  0  0  0  0
  -21.4238  -29.3008   22.3701 N   0  0  0  0  0  0
  -26.4269  -37.3741   23.9421 N   0  0  0  0  0  0
  -24.7072  -31.0345   22.1007 N   0  0  0  0  0  0
  -23.4206  -28.8038   23.3034 O   0  0  0  0  0  0
  -28.2935  -26.2625   20.1839 O   0  0  0  0  0  0
  -26.5646  -34.8869   22.4618 O   0  0  0  0  0  0
  -23.5503  -32.1311   23.7273 O   0  0  0  0  0  0
  -26.9414  -19.1700   18.6557 C   0  0  0  0  0  0
  -29.0142  -16.0439   22.4014 C   0  0  0  0  0  0
  -33.2638  -18.6978   21.6301 C   0  0  0  0  0  0
  -31.8332  -20.0433   23.1870 C   0  0  0  0  0  0
  -27.2264  -20.2111   19.7451 C   0  0  0  0  0  0
  -28.4685  -23.4077   20.0475 C   0  0  0  0  0  0
  -28.6984  -21.9656   20.8500 C   0  0  0  0  0  0
  -29.3485  -17.5286   20.2893 C   0  0  0  0  0  0
  -30.9866  -19.4592   20.8163 C   0  0  0  0  0  0
  -28.1502  -24.8600   20.7876 C   0  0  0  0  0  0
  -29.8910  -16.2084   21.1409 C   0  0  2  0  0  0
  -31.8253  -19.0273   22.0488 C   0  0  0  0  0  0
  -28.7142  -20.4675   20.1115 C   0  0  1  0  0  0
  -29.4677  -19.1317   20.8112 C   0  0  1  0  0  0
  -31.4726  -12.7143   19.1655 H   0  0  0  0  0  0
  -30.4685  -11.5387   19.9460 H   0  0  0  0  0  0
  -29.8278  -11.8064   17.5210 H   0  0  0  0  0  0
  -29.6417  -13.5281   17.7568 H   0  0  0  0  0  0
  -27.8622  -11.3248   18.8405 H   0  0  0  0  0  0
  -27.4028  -12.6343   17.7854 H   0  0  0  0  0  0
  -27.6616  -14.2808   19.5548 H   0  0  0  0  0  0
  -28.7502  -12.0610   21.3234 H   0  0  0  0  0  0
  -28.3588  -13.6541   21.8742 H   0  0  0  0  0  0
  -25.2647   -9.5721   22.4837 H   0  0  0  0  0  0
  -23.9981   -7.4607   22.7460 H   0  0  0  0  0  0
  -21.0821   -8.8672   19.8942 H   0  0  0  0  0  0
  -22.3558  -10.9651   19.6223 H   0  0  0  0  0  0
  -21.1979   -7.6113   23.9667 H   0  0  0  0  0  0
  -21.1521   -6.0537   25.9073 H   0  0  0  0  0  0
  -22.0597   -2.7568   23.2900 H   0  0  0  0  0  0
  -22.3907  -11.9961   22.4912 H   0  0  0  0  0  0
  -21.0997  -13.1392   22.2504 H   0  0  0  0  0  0
  -24.6798  -15.8551   20.4239 H   0  0  0  0  0  0
  -26.2978  -15.5711   20.0248 H   0  0  0  0  0  0
  -26.7242  -32.5289   23.1051 H   0  0  0  0  0  0
  -24.9989  -33.9632   25.0286 H   0  0  0  0  0  0
  -22.7355  -31.2853   21.3932 H   0  0  0  0  0  0
  -23.3713  -35.9649   23.3297 H   0  0  0  0  0  0
  -24.3540  -36.8940   22.2062 H   0  0  0  0  0  0
  -23.7328  -37.6483   23.6721 H   0  0  0  0  0  0
  -26.1110  -31.5044   20.6191 H   0  0  0  0  0  0
  -26.8659  -30.7955   22.0174 H   0  0  0  0  0  0
  -28.1360  -28.8551   21.2184 H   0  0  0  0  0  0
  -25.9651  -25.8339   19.0531 H   0  0  0  0  0  0
  -23.9811  -27.2744   19.0135 H   0  0  0  0  0  0
  -23.8142  -30.5720   19.4141 H   0  0  0  0  0  0
  -22.7767  -29.2455   19.8479 H   0  0  0  0  0  0
  -25.1321  -36.1819   25.0808 H   0  0  0  0  0  0
  -20.9897  -28.3198   24.1363 H   0  0  0  0  0  0
  -20.5520  -26.2232   23.3626 H   0  0  0  0  0  0
  -21.6595  -26.7251   22.1227 H   0  0  0  0  0  0
  -19.6843  -25.6200   21.1192 H   0  0  0  0  0  0
  -19.6647  -27.3110   20.6700 H   0  0  0  0  0  0
  -17.4136  -26.6573   21.3993 H   0  0  0  0  0  0
  -18.0274  -26.0010   22.9021 H   0  0  0  0  0  0
  -19.8017  -30.7152   24.2177 H   0  0  0  0  0  0
  -17.5089  -31.6219   24.5061 H   0  0  0  0  0  0
  -15.5354  -30.2849   23.7746 H   0  0  0  0  0  0
  -15.8681  -28.0743   22.7030 H   0  0  0  0  0  0
  -24.5875  -30.7151   25.7884 H   0  0  0  0  0  0
  -24.8978  -32.2951   26.4934 H   0  0  0  0  0  0
  -25.8104  -30.8967   27.0266 H   0  0  0  0  0  0
  -26.2936  -29.6732   24.1284 H   0  0  0  0  0  0
  -27.4059  -29.7313   25.4763 H   0  0  0  0  0  0
  -27.8828  -30.4249   23.9464 H   0  0  0  0  0  0
  -27.2487  -33.3760   26.1995 H   0  0  0  0  0  0
  -28.3852  -32.7007   25.0394 H   0  0  0  0  0  0
  -28.0598  -31.8654   26.5536 H   0  0  0  0  0  0
  -28.2532  -38.0134   24.7474 H   0  0  0  0  0  0
  -28.1110  -36.2614   24.6283 H   0  0  0  0  0  0
  -27.2229  -37.1431   25.8839 H   0  0  0  0  0  0
  -20.9443  -29.8878   21.7034 H   0  0  0  0  0  0
  -26.0098  -38.2774   24.1505 H   0  0  0  0  0  0
  -26.0077  -19.3936   18.1363 H   0  0  0  0  0  0
  -26.8125  -18.1708   19.0561 H   0  0  0  0  0  0
  -27.7443  -19.1612   17.9182 H   0  0  0  0  0  0
  -29.0151  -16.9602   22.9968 H   0  0  0  0  0  0
  -29.3527  -15.2453   23.0625 H   0  0  0  0  0  0
  -27.9724  -15.8607   22.1331 H   0  0  0  0  0  0
  -33.8819  -18.4432   22.4912 H   0  0  0  0  0  0
  -33.7389  -19.5404   21.1239 H   0  0  0  0  0  0
  -33.2988  -17.8430   20.9537 H   0  0  0  0  0  0
  -32.4621  -19.6813   24.0024 H   0  0  0  0  0  0
  -30.8333  -20.1898   23.5943 H   0  0  0  0  0  0
  -32.2245  -21.0069   22.8700 H   0  0  0  0  0  0
  -26.6458  -19.9921   20.6443 H   0  0  0  0  0  0
  -26.8052  -21.1436   19.3625 H   0  0  0  0  0  0
  -27.6311  -23.2592   19.3704 H   0  0  0  0  0  0
  -29.3451  -23.5363   19.4110 H   0  0  0  0  0  0
  -27.9191  -21.9151   21.6132 H   0  0  0  0  0  0
  -29.6083  -22.0659   21.4406 H   0  0  0  0  0  0
  -28.2959  -17.2849   20.1978 H   0  0  0  0  0  0
  -29.7437  -17.4662   19.2726 H   0  0  0  0  0  0
  -31.3992  -18.9817   19.9266 H   0  0  0  0  0  0
  -31.1562  -20.5226   20.6367 H   0  0  0  0  0  0
  -28.8246  -24.8727   21.6419 H   0  0  0  0  0  0
  -27.1615  -24.7998   21.2471 H   0  0  0  0  0  0
  -30.8319  -16.5430   21.5422 H   0  0  0  0  0  0
  -31.4125  -18.1498   22.5259 H   0  0  0  0  0  0
  -29.2403  -20.6408   19.1694 H   0  0  0  0  0  0
  -29.0941  -19.1451   21.8337 H   0  0  0  0  0  0
  1 25  1  0  0  0
  1 30  2  0  0  0
  1 81  1  0  0  0
  2  3  1  0  0  0
  2 25  1  0  0  0
  2 85  1  0  0  0
  2 86  1  0  0  0
  3  4  1  0  0  0
  3 87  1  0  0  0
  3 88  1  0  0  0
  4  5  1  0  0  0
  4 89  1  0  0  0
  4 90  1  0  0  0
  5  6  1  0  0  0
  5 26  1  0  0  0
  5 91  1  0  0  0
  6 25  1  0  0  0
  6 92  1  0  0  0
  6 93  1  0  0  0
  7  8  2  0  0  0
  7 26  1  0  0  0
  7 29  1  0  0  0
  8  9  1  0  0  0
  8 22  1  0  0  0
  9 10  1  0  0  0
  9 27  2  0  0  0
 10 11  2  0  0  0
 10 15  1  0  0  0
 11 12  1  0  0  0
 11 94  1  0  0  0
 12 13  2  0  0  0
 12 95  1  0  0  0
 13 14  1  0  0  0
 13 31  1  0  0  0
 14 15  2  0  0  0
 14 96  1  0  0  0
 15 97  1  0  0  0
 16 17  2  0  0  0
 16 21  1  0  0  0
 16 31  1  0  0  0
 17 18  1  0  0  0
 17 98  1  0  0  0
 18 19  2  0  0  0
 18 99  1  0  0  0
 19 20  1  0  0  0
 19 24  1  0  0  0
 20 21  2  0  0  0
 20100  1  0  0  0
 21 23  1  0  0  0
 22 28  1  0  0  0
 22 32  2  0  0  0
 26 27  1  0  0  0
 28101  1  0  0  0
 28102  1  0  0  0
 29103  1  0  0  0
 29104  1  0  0  0
 33 34  1  0  0  0
 33 66  1  0  0  0
 33 70  2  0  0  0
 34 36  1  0  0  0
 34 59  1  0  0  0
 34105  1  0  0  0
 35 44  2  0  0  0
 35 45  1  0  0  0
 35 68  1  0  0  0
 36 56  1  0  0  0
 36106  1  0  0  0
 37 39  1  0  0  0
 37 47  1  0  0  0
 37 66  1  0  0  0
 37107  1  0  0  0
 38 43  2  0  0  0
 38 46  1  0  0  0
 38 47  1  0  0  0
 39 64  1  0  0  0
 39 67  2  0  0  0
 40 52  1  0  0  0
 40 53  2  0  0  0
 40 58  1  0  0  0
 41108  1  0  0  0
 41109  1  0  0  0
 41110  1  0  0  0
 41 48  1  0  0  0
 42 43  1  0  0  0
 42 66  1  0  0  0
 42111  1  0  0  0
 42112  1  0  0  0
 43 44  1  0  0  0
 44113  1  0  0  0
 45 46  2  0  0  0
 45114  1  0  0  0
 46115  1  0  0  0
 47116  1  0  0  0
 47117  1  0  0  0
 48 56  1  0  0  0
 48 65  1  0  0  0
 48118  1  0  0  0
 49 50  1  0  0  0
 49 53  1  0  0  0
 49 64  1  0  0  0
 49119  1  0  0  0
 50 51  1  0  0  0
 50120  1  0  0  0
 50121  1  0  0  0
 51 52  1  0  0  0
 51122  1  0  0  0
 51123  1  0  0  0
 52124  1  0  0  0
 52125  1  0  0  0
 53 54  1  0  0  0
 54 55  2  0  0  0
 54126  1  0  0  0
 55 57  1  0  0  0
 55127  1  0  0  0
 56 69  2  0  0  0
 57 58  2  0  0  0
 57128  1  0  0  0
 58129  1  0  0  0
 59 60  1  0  0  0
 59 61  1  0  0  0
 59 62  1  0  0  0
 60130  1  0  0  0
 60131  1  0  0  0
 60132  1  0  0  0
 61133  1  0  0  0
 61134  1  0  0  0
 61135  1  0  0  0
 62136  1  0  0  0
 62137  1  0  0  0
 62138  1  0  0  0
 63 65  1  0  0  0
 63139  1  0  0  0
 63140  1  0  0  0
 63141  1  0  0  0
 64142  1  0  0  0
 65143  1  0  0  0
 68 80  1  0  0  0
 71 75  1  0  0  0
 71144  1  0  0  0
 71145  1  0  0  0
 71146  1  0  0  0
 72147  1  0  0  0
 72148  1  0  0  0
 72149  1  0  0  0
 72 81  1  0  0  0
 73150  1  0  0  0
 73151  1  0  0  0
 73152  1  0  0  0
 73 82  1  0  0  0
 74 82  1  0  0  0
 74153  1  0  0  0
 74154  1  0  0  0
 74155  1  0  0  0
 75156  1  0  0  0
 75157  1  0  0  0
 75 83  1  0  0  0
 76 77  1  0  0  0
 76 80  1  0  0  0
 76158  1  0  0  0
 76159  1  0  0  0
 77 83  1  0  0  0
 77160  1  0  0  0
 77161  1  0  0  0
 78 81  1  0  0  0
 78162  1  0  0  0
 78163  1  0  0  0
 78 84  1  0  0  0
 79 82  1  0  0  0
 79 84  1  0  0  0
 79164  1  0  0  0
 79165  1  0  0  0
 80166  1  0  0  0
 80167  1  0  0  0
 81168  1  0  0  0
 82169  1  0  0  0
 83 84  1  0  0  0
 83170  1  0  0  0
 84171  1  0  0  0
M  ISO  4   1 100  68 101  80 101  81 100
M  END
> <chiral flag>
0

> <version>
0

> <s_m_source_file>
/data/baiqing/PycharmProjects/Reinvent-master-3.2/result/LINK_invent/BTK/process_docking_weight1_custom_sum_contain_oxygen_bond_distance_aromatic_linkinvent_7_9_3/rearranged_h_0085.sdf

> <i_m_source_file_index>
13

> <r_mmod_Potential_Energy-OPLS-2005>
532.805603027344

> <r_mmod_Stretch_Energy-OPLS-2005>
234.00846862793

> <r_mmod_Bend_Energy-OPLS-2005>
288.044891357422

> <r_mmod_Torsional_Energy-OPLS-2005>
247.186737060547

> <r_mmod_Improper_Torsional_Energy-OPLS-2005>
2.24148559570312

> <r_mmod_Van_der_Waal_Energy-OPLS-2005>
118.203559875488

> <r_mmod_Electrostatic_Energy-OPLS-2005>
-312.327911376953

> <r_mmod_Solvation_Energy-OPLS-2005>
-166.89990234375

> <b_mmod_Minimization_Converged-OPLS-2005>
0

> <r_mmod_RMS_Derivative-OPLS-2005>
8.51403331756592

$$$$
13
                    3D
 Structure written by MMmdl.
173181  0  0  1  0            999 V2000
  -30.7325  -14.4420   20.5363 C   0  0  0  0  0  0
  -30.4158  -12.2773   19.4139 C   0  0  0  0  0  0
  -29.4903  -12.4881   18.1991 C   0  0  0  0  0  0
  -28.0106  -12.3637   18.6126 C   0  0  0  0  0  0
  -27.6619  -13.2086   19.8672 C   0  0  2  0  0  0
  -28.7091  -12.9993   20.9869 C   0  0  0  0  0  0
  -25.2617  -13.8162   20.5695 C   0  0  0  0  0  0
  -24.1859  -13.0435   20.9176 C   0  0  0  0  0  0
  -24.6412  -11.6914   20.8741 C   0  0  0  0  0  0
  -23.9064  -10.4301   21.0398 C   0  0  0  0  0  0
  -24.3620   -9.4214   21.9173 C   0  0  0  0  0  0
  -23.6303   -8.2241   22.0741 C   0  0  0  0  0  0
  -22.4291   -8.0278   21.3526 C   0  0  0  0  0  0
  -21.9919   -9.0245   20.4618 C   0  0  0  0  0  0
  -22.7242  -10.2134   20.3033 C   0  0  0  0  0  0
  -21.6854   -6.0745   22.5287 C   0  0  0  0  0  0
  -21.4008   -6.5654   23.8223 C   0  0  0  0  0  0
  -21.3661   -5.6796   24.9182 C   0  0  0  0  0  0
  -21.6055   -4.3060   24.7230 C   0  0  0  0  0  0
  -21.8824   -3.8157   23.4347 C   0  0  0  0  0  0
  -21.9198   -4.6972   22.3402 C   0  0  0  0  0  0
  -22.7887  -13.5229   21.1843 C   0  0  0  0  0  0
  -22.1677   -4.2160   21.0983 F   0  0  0  0  0  0
  -21.5625   -3.4536   25.7740 F   0  0  0  0  0  0
  -30.0444  -13.2745   20.4248 N   0  0  0  0  0  0
  -26.3042  -12.9344   20.3337 N   0  0  0  0  0  0
  -25.9328  -11.6510   20.5757 N   0  0  0  0  0  0
  -22.0522  -12.8192   22.0392 N   0  0  0  0  0  0
  -25.4322  -15.1881   20.4145 N   0  0  0  0  0  0
  -31.8584  -14.6164   20.0702 O   0  0  0  0  0  0
  -21.6654   -6.8885   21.4248 O   0  0  0  0  0  0
  -22.3565  -14.5547   20.6732 O   0  0  0  0  0  0
  -24.6140  -31.8690   23.2040 C   0  0  0  0  0  0
  -25.9020  -32.4852   23.8340 C   0  0  1  0  0  0
  -27.2416  -27.4294   20.0570 C   0  0  0  0  0  0
  -25.5842  -33.8645   24.2277 N   0  0  0  0  0  0
  -23.4022  -30.4900   21.5508 C   0  0  2  0  0  0
  -24.8460  -28.9531   20.1105 C   0  0  0  0  0  0
  -22.7378  -29.4656   22.4982 C   0  0  0  0  0  0
  -18.0259  -28.1395   22.8473 C   0  0  0  0  0  0
  -24.1517  -36.7352   23.2637 C   0  0  0  0  0  0
  -25.9339  -30.8219   21.3666 C   0  0  0  0  0  0
  -26.0068  -29.4562   20.7106 C   0  0  0  0  0  0
  -27.2000  -28.6961   20.6888 C   0  0  0  0  0  0
  -26.0549  -26.9439   19.4575 C   0  0  0  0  0  0
  -24.8642  -27.6934   19.4883 C   0  0  0  0  0  0
  -23.6108  -29.8218   20.1669 C   0  0  0  0  0  0
  -25.4139  -36.3140   24.0329 C   0  0  1  0  0  0
  -20.5852  -28.3675   23.1312 C   0  0  2  0  0  0
  -20.6780  -26.9414   22.5432 C   0  0  0  0  0  0
  -19.5779  -26.6390   21.5221 C   0  0  0  0  0  0
  -18.1934  -26.7940   22.1598 C   0  0  0  0  0  0
  -19.1505  -28.8843   23.2886 C   0  0  0  0  0  0
  -18.9448  -30.1454   23.8906 C   0  0  0  0  0  0
  -17.6450  -30.6608   24.0563 C   0  0  0  0  0  0
  -25.9042  -34.9502   23.5125 C   0  0  0  0  0  0
  -16.5332  -29.9122   23.6340 C   0  0  0  0  0  0
  -16.7238  -28.6539   23.0339 C   0  0  0  0  0  0
  -26.4407  -31.6633   25.0677 C   0  0  0  0  0  0
  -25.3612  -31.3772   26.1386 C   0  0  0  0  0  0
  -27.0262  -30.3076   24.6095 C   0  0  0  0  0  0
  -27.5970  -32.4359   25.7440 C   0  0  0  0  0  0
  -27.5612  -37.1826   24.8433 C   0  0  0  0  0  0
  -21.4114  -29.3048   22.3712 N   0  0  0  0  0  0
  -26.4354  -37.3786   23.9355 N   0  0  0  0  0  0
  -24.6696  -31.0746   22.0978 N   0  0  0  0  0  0
  -23.4138  -28.8231   23.3058 O   0  0  0  0  0  0
  -28.4448  -26.7442   20.0571 O   0  0  0  0  0  0
  -26.5646  -34.8956   22.4717 O   0  0  0  0  0  0
  -23.5339  -32.1460   23.7419 O   0  0  0  0  0  0
  -28.3580  -21.4062   21.9576 C   0  0  0  0  0  0
  -29.3647  -20.3723   20.0291 C   0  0  0  0  0  0
  -28.9206  -21.5612   20.6718 C   0  0  0  0  0  0
  -28.1230  -20.1235   22.4711 C   0  0  0  0  0  0
  -29.1746  -19.1121   20.6597 C   0  0  0  0  0  0
  -28.1484  -19.2791   24.8835 C   0  0  0  0  0  0
  -26.0025  -19.2130   23.5031 C   0  0  0  0  0  0
  -30.2649  -17.8419   18.6837 C   0  0  0  0  0  0
  -26.9586  -24.1569   20.9247 C   0  0  0  0  0  0
  -29.3233  -24.6812   21.7889 C   0  0  0  0  0  0
  -29.0543  -22.9310   19.9565 C   0  0  0  0  0  0
  -30.4258  -16.8828   21.0486 C   0  0  0  0  0  0
  -28.5873  -25.4133   19.5158 C   0  0  0  0  0  0
  -27.3312  -19.9399   23.7629 C   0  0  0  0  0  0
  -29.5774  -17.7464   20.0616 C   0  0  1  0  0  0
  -28.4653  -24.2659   20.5716 C   0  0  0  0  0  0
  -28.5110  -19.0069   21.8304 N   0  0  0  0  0  0
  -30.0314  -15.4648   21.0343 N   0  0  0  0  0  0
  -31.4597  -12.3555   19.1113 H   0  0  0  0  0  0
  -30.2910  -11.2710   19.8212 H   0  0  0  0  0  0
  -29.7156  -11.7598   17.4178 H   0  0  0  0  0  0
  -29.6696  -13.4722   17.7631 H   0  0  0  0  0  0
  -27.8055  -11.3111   18.8083 H   0  0  0  0  0  0
  -27.3633  -12.6453   17.7813 H   0  0  0  0  0  0
  -27.7046  -14.2527   19.5600 H   0  0  0  0  0  0
  -28.6706  -11.9704   21.3498 H   0  0  0  0  0  0
  -28.4789  -13.6231   21.8511 H   0  0  0  0  0  0
  -25.2755   -9.5714   22.4744 H   0  0  0  0  0  0
  -24.0027   -7.4642   22.7464 H   0  0  0  0  0  0
  -21.0852   -8.8760   19.8912 H   0  0  0  0  0  0
  -22.3689  -10.9677   19.6155 H   0  0  0  0  0  0
  -21.1994   -7.6153   23.9729 H   0  0  0  0  0  0
  -21.1479   -6.0523   25.9091 H   0  0  0  0  0  0
  -22.0596   -2.7606   23.2848 H   0  0  0  0  0  0
  -22.4161  -11.9842   22.4764 H   0  0  0  0  0  0
  -21.1119  -13.1180   22.2583 H   0  0  0  0  0  0
  -24.6641  -15.8396   20.5277 H   0  0  0  0  0  0
  -26.2869  -15.6314   20.1044 H   0  0  0  0  0  0
  -26.7060  -32.5557   23.1078 H   0  0  0  0  0  0
  -24.9832  -33.9779   25.0321 H   0  0  0  0  0  0
  -22.6936  -31.3104   21.4091 H   0  0  0  0  0  0
  -23.3786  -35.9673   23.3296 H   0  0  0  0  0  0
  -24.3544  -36.8995   22.2031 H   0  0  0  0  0  0
  -23.7308  -37.6569   23.6670 H   0  0  0  0  0  0
  -26.0517  -31.5896   20.6015 H   0  0  0  0  0  0
  -26.8173  -30.8619   21.9912 H   0  0  0  0  0  0
  -28.1004  -29.0713   21.1580 H   0  0  0  0  0  0
  -26.0169  -25.9874   18.9618 H   0  0  0  0  0  0
  -23.9696  -27.2981   19.0243 H   0  0  0  0  0  0
  -23.7125  -30.5953   19.4052 H   0  0  0  0  0  0
  -22.7330  -29.2401   19.8771 H   0  0  0  0  0  0
  -25.1350  -36.2003   25.0831 H   0  0  0  0  0  0
  -20.9888  -28.3308   24.1459 H   0  0  0  0  0  0
  -20.5751  -26.2292   23.3624 H   0  0  0  0  0  0
  -21.6665  -26.7561   22.1195 H   0  0  0  0  0  0
  -19.6976  -25.6303   21.1282 H   0  0  0  0  0  0
  -19.6769  -27.3203   20.6746 H   0  0  0  0  0  0
  -17.4226  -26.6679   21.3966 H   0  0  0  0  0  0
  -18.0280  -26.0111   22.9003 H   0  0  0  0  0  0
  -19.7942  -30.7221   24.2316 H   0  0  0  0  0  0
  -17.5043  -31.6291   24.5164 H   0  0  0  0  0  0
  -15.5341  -30.3010   23.7713 H   0  0  0  0  0  0
  -15.8631  -28.0870   22.7048 H   0  0  0  0  0  0
  -24.5750  -30.7211   25.7652 H   0  0  0  0  0  0
  -24.8839  -32.2945   26.4837 H   0  0  0  0  0  0
  -25.7857  -30.8867   27.0162 H   0  0  0  0  0  0
  -26.2851  -29.6798   24.1142 H   0  0  0  0  0  0
  -27.4008  -29.7351   25.4588 H   0  0  0  0  0  0
  -27.8664  -30.4389   23.9280 H   0  0  0  0  0  0
  -27.2595  -33.3651   26.2042 H   0  0  0  0  0  0
  -28.3721  -32.6950   25.0221 H   0  0  0  0  0  0
  -28.0681  -31.8480   26.5320 H   0  0  0  0  0  0
  -28.2630  -38.0124   24.7497 H   0  0  0  0  0  0
  -28.1139  -36.2660   24.6292 H   0  0  0  0  0  0
  -27.2278  -37.1483   25.8821 H   0  0  0  0  0  0
  -20.9288  -29.8724   21.6887 H   0  0  0  0  0  0
  -26.0276  -38.2900   24.1318 H   0  0  0  0  0  0
  -28.0557  -22.2451   22.5588 H   0  0  0  0  0  0
  -29.8340  -20.4339   19.0575 H   0  0  0  0  0  0
  -29.0180  -19.8848   25.1416 H   0  0  0  0  0  0
  -28.4970  -18.2863   24.5972 H   0  0  0  0  0  0
  -27.5453  -19.1697   25.7867 H   0  0  0  0  0  0
  -25.4284  -19.7228   22.7278 H   0  0  0  0  0  0
  -25.3908  -19.1802   24.4056 H   0  0  0  0  0  0
  -26.1646  -18.1864   23.1721 H   0  0  0  0  0  0
  -29.5989  -18.2833   17.9423 H   0  0  0  0  0  0
  -30.5550  -16.8582   18.3149 H   0  0  0  0  0  0
  -31.1705  -18.4497   18.7330 H   0  0  0  0  0  0
  -26.6991  -23.3995   21.6492 H   0  0  0  0  0  0
  -26.3635  -23.9389   20.0372 H   0  0  0  0  0  0
  -26.5915  -25.0914   21.3481 H   0  0  0  0  0  0
  -29.3593  -23.9265   22.5700 H   0  0  0  0  0  0
  -28.9565  -25.5975   22.2490 H   0  0  0  0  0  0
  -30.3538  -24.8659   21.4766 H   0  0  0  0  0  0
  -28.6020  -22.7923   18.9724 H   0  0  0  0  0  0
  -30.1159  -23.0806   19.7558 H   0  0  0  0  0  0
  -30.2806  -17.2086   22.0770 H   0  0  0  0  0  0
  -31.4934  -17.0238   20.8630 H   0  0  0  0  0  0
  -27.9491  -25.2318   18.6536 H   0  0  0  0  0  0
  -29.5959  -25.3879   19.1004 H   0  0  0  0  0  0
  -27.0698  -20.9374   24.1196 H   0  0  0  0  0  0
  -28.6328  -17.2245   19.9012 H   0  0  0  0  0  0
  -29.1047  -15.2478   21.3718 H   0  0  0  0  0  0
  1 25  1  0  0  0
  1 30  2  0  0  0
  1 88  1  0  0  0
  2  3  1  0  0  0
  2 25  1  0  0  0
  2 89  1  0  0  0
  2 90  1  0  0  0
  3  4  1  0  0  0
  3 91  1  0  0  0
  3 92  1  0  0  0
  4  5  1  0  0  0
  4 93  1  0  0  0
  4 94  1  0  0  0
  5  6  1  0  0  0
  5 26  1  0  0  0
  5 95  1  0  0  0
  6 25  1  0  0  0
  6 96  1  0  0  0
  6 97  1  0  0  0
  7  8  2  0  0  0
  7 26  1  0  0  0
  7 29  1  0  0  0
  8  9  1  0  0  0
  8 22  1  0  0  0
  9 10  1  0  0  0
  9 27  2  0  0  0
 10 11  2  0  0  0
 10 15  1  0  0  0
 11 12  1  0  0  0
 11 98  1  0  0  0
 12 13  2  0  0  0
 12 99  1  0  0  0
 13 14  1  0  0  0
 13 31  1  0  0  0
 14 15  2  0  0  0
 14100  1  0  0  0
 15101  1  0  0  0
 16 17  2  0  0  0
 16 21  1  0  0  0
 16 31  1  0  0  0
 17 18  1  0  0  0
 17102  1  0  0  0
 18 19  2  0  0  0
 18103  1  0  0  0
 19 20  1  0  0  0
 19 24  1  0  0  0
 20 21  2  0  0  0
 20104  1  0  0  0
 21 23  1  0  0  0
 22 28  1  0  0  0
 22 32  2  0  0  0
 26 27  1  0  0  0
 28105  1  0  0  0
 28106  1  0  0  0
 29107  1  0  0  0
 29108  1  0  0  0
 33 34  1  0  0  0
 33 66  1  0  0  0
 33 70  2  0  0  0
 34 36  1  0  0  0
 34 59  1  0  0  0
 34109  1  0  0  0
 35 44  2  0  0  0
 35 45  1  0  0  0
 35 68  1  0  0  0
 36 56  1  0  0  0
 36110  1  0  0  0
 37 39  1  0  0  0
 37 47  1  0  0  0
 37 66  1  0  0  0
 37111  1  0  0  0
 38 43  2  0  0  0
 38 46  1  0  0  0
 38 47  1  0  0  0
 39 64  1  0  0  0
 39 67  2  0  0  0
 40 52  1  0  0  0
 40 53  2  0  0  0
 40 58  1  0  0  0
 41112  1  0  0  0
 41113  1  0  0  0
 41114  1  0  0  0
 41 48  1  0  0  0
 42 43  1  0  0  0
 42 66  1  0  0  0
 42115  1  0  0  0
 42116  1  0  0  0
 43 44  1  0  0  0
 44117  1  0  0  0
 45 46  2  0  0  0
 45118  1  0  0  0
 46119  1  0  0  0
 47120  1  0  0  0
 47121  1  0  0  0
 48 56  1  0  0  0
 48 65  1  0  0  0
 48122  1  0  0  0
 49 50  1  0  0  0
 49 53  1  0  0  0
 49 64  1  0  0  0
 49123  1  0  0  0
 50 51  1  0  0  0
 50124  1  0  0  0
 50125  1  0  0  0
 51 52  1  0  0  0
 51126  1  0  0  0
 51127  1  0  0  0
 52128  1  0  0  0
 52129  1  0  0  0
 53 54  1  0  0  0
 54 55  2  0  0  0
 54130  1  0  0  0
 55 57  1  0  0  0
 55131  1  0  0  0
 56 69  2  0  0  0
 57 58  2  0  0  0
 57132  1  0  0  0
 58133  1  0  0  0
 59 60  1  0  0  0
 59 61  1  0  0  0
 59 62  1  0  0  0
 60134  1  0  0  0
 60135  1  0  0  0
 60136  1  0  0  0
 61137  1  0  0  0
 61138  1  0  0  0
 61139  1  0  0  0
 62140  1  0  0  0
 62141  1  0  0  0
 62142  1  0  0  0
 63 65  1  0  0  0
 63143  1  0  0  0
 63144  1  0  0  0
 63145  1  0  0  0
 64146  1  0  0  0
 65147  1  0  0  0
 68 83  1  0  0  0
 71 73  2  0  0  0
 71 74  1  0  0  0
 71148  1  0  0  0
 72 73  1  0  0  0
 72 75  2  0  0  0
 72149  1  0  0  0
 73 81  1  0  0  0
 74 84  1  0  0  0
 74 87  2  0  0  0
 75 85  1  0  0  0
 75 87  1  0  0  0
 76150  1  0  0  0
 76151  1  0  0  0
 76152  1  0  0  0
 76 84  1  0  0  0
 77 84  1  0  0  0
 77153  1  0  0  0
 77154  1  0  0  0
 77155  1  0  0  0
 78156  1  0  0  0
 78157  1  0  0  0
 78158  1  0  0  0
 78 85  1  0  0  0
 79159  1  0  0  0
 79160  1  0  0  0
 79161  1  0  0  0
 79 86  1  0  0  0
 80 86  1  0  0  0
 80162  1  0  0  0
 80163  1  0  0  0
 80164  1  0  0  0
 81 86  1  0  0  0
 81165  1  0  0  0
 81166  1  0  0  0
 82 85  1  0  0  0
 82 88  1  0  0  0
 82167  1  0  0  0
 82168  1  0  0  0
 83 86  1  0  0  0
 83169  1  0  0  0
 83170  1  0  0  0
 84171  1  0  0  0
 85172  1  0  0  0
 88173  1  0  0  0
M  ISO  4   1 100  68 101  83 101  88 100
M  END
> <chiral flag>
0

> <version>
0

> <s_m_source_file>
/data/baiqing/PycharmProjects/Reinvent-master-3.2/result/LINK_invent/BTK/process_docking_weight1_custom_sum_contain_oxygen_bond_distance_aromatic_linkinvent_7_9_3/rearranged_h_0085.sdf

> <i_m_source_file_index>
14

> <r_mmod_Potential_Energy-OPLS-2005>
-181.724227905273

> <r_mmod_Stretch_Energy-OPLS-2005>
46.1183319091797

> <r_mmod_Bend_Energy-OPLS-2005>
133.415176391602

> <r_mmod_Torsional_Energy-OPLS-2005>
199.209426879883

> <r_mmod_Improper_Torsional_Energy-OPLS-2005>
4.19977617263794

> <r_mmod_Van_der_Waal_Energy-OPLS-2005>
164.28776550293

> <r_mmod_Electrostatic_Energy-OPLS-2005>
-547.596374511719

> <r_mmod_Solvation_Energy-OPLS-2005>
-194.838851928711

> <b_mmod_Minimization_Converged-OPLS-2005>
0

> <r_mmod_RMS_Derivative-OPLS-2005>
4.69640731811523

$$$$
14
                    3D
 Structure written by MMmdl.
161169  0  0  1  0            999 V2000
  -30.4887  -15.0036   20.4246 C   0  0  0  0  0  0
  -30.4542  -12.6291   19.4842 C   0  0  0  0  0  0
  -29.5234  -12.5277   18.2514 C   0  0  0  0  0  0
  -28.0594  -12.2982   18.6784 C   0  0  0  0  0  0
  -27.6249  -13.2419   19.8287 C   0  0  2  0  0  0
  -28.6715  -13.2819   20.9602 C   0  0  0  0  0  0
  -25.2432  -13.8188   20.5695 C   0  0  0  0  0  0
  -24.1766  -13.0418   20.9245 C   0  0  0  0  0  0
  -24.6383  -11.6902   20.8748 C   0  0  0  0  0  0
  -23.9071  -10.4279   21.0402 C   0  0  0  0  0  0
  -24.3622   -9.4190   21.9178 C   0  0  0  0  0  0
  -23.6300   -8.2226   22.0748 C   0  0  0  0  0  0
  -22.4278   -8.0271   21.3546 C   0  0  0  0  0  0
  -21.9919   -9.0234   20.4639 C   0  0  0  0  0  0
  -22.7244  -10.2117   20.3050 C   0  0  0  0  0  0
  -21.6857   -6.0722   22.5283 C   0  0  0  0  0  0
  -21.4004   -6.5631   23.8209 C   0  0  0  0  0  0
  -21.3661   -5.6787   24.9175 C   0  0  0  0  0  0
  -21.6046   -4.3053   24.7231 C   0  0  0  0  0  0
  -21.8821   -3.8139   23.4354 C   0  0  0  0  0  0
  -21.9182   -4.6947   22.3405 C   0  0  0  0  0  0
  -22.7776  -13.5170   21.1905 C   0  0  0  0  0  0
  -22.1654   -4.2133   21.0983 F   0  0  0  0  0  0
  -21.5637   -3.4542   25.7745 F   0  0  0  0  0  0
  -29.9349  -13.7227   20.3524 N   0  0  0  0  0  0
  -26.2857  -12.9412   20.3201 N   0  0  0  0  0  0
  -25.9312  -11.6552   20.5719 N   0  0  0  0  0  0
  -22.0432  -12.8142   22.0461 N   0  0  0  0  0  0
  -25.4044  -15.1930   20.4099 N   0  0  0  0  0  0
  -31.7091  -15.0944   20.2582 O   0  0  0  0  0  0
  -21.6639   -6.8868   21.4249 O   0  0  0  0  0  0
  -22.3439  -14.5470   20.6754 O   0  0  0  0  0  0
  -24.6470  -31.8407   23.1834 C   0  0  0  0  0  0
  -25.9224  -32.4655   23.8255 C   0  0  1  0  0  0
  -27.2224  -27.1099   20.1784 C   0  0  0  0  0  0
  -25.5935  -33.8470   24.2141 N   0  0  0  0  0  0
  -23.4529  -30.4592   21.5271 C   0  0  2  0  0  0
  -24.9069  -28.8806   20.1129 C   0  0  0  0  0  0
  -22.7606  -29.4527   22.4807 C   0  0  0  0  0  0
  -18.0309  -28.1420   22.8461 C   0  0  0  0  0  0
  -24.1497  -36.7284   23.2645 C   0  0  0  0  0  0
  -26.0106  -30.7102   21.3872 C   0  0  0  0  0  0
  -26.0831  -29.3164   20.7353 C   0  0  0  0  0  0
  -27.2428  -28.4508   20.7475 C   0  0  0  0  0  0
  -26.0210  -26.7826   19.5115 C   0  0  0  0  0  0
  -24.8917  -27.6278   19.4832 C   0  0  0  0  0  0
  -23.6826  -29.7830   20.1489 C   0  0  0  0  0  0
  -25.4120  -36.3022   24.0307 C   0  0  1  0  0  0
  -20.5926  -28.3740   23.1242 C   0  0  2  0  0  0
  -20.6784  -26.9433   22.5422 C   0  0  0  0  0  0
  -19.5764  -26.6393   21.5229 C   0  0  0  0  0  0
  -18.1935  -26.7956   22.1619 C   0  0  0  0  0  0
  -19.1566  -28.8906   23.2832 C   0  0  0  0  0  0
  -18.9480  -30.1483   23.8876 C   0  0  0  0  0  0
  -17.6472  -30.6601   24.0583 C   0  0  0  0  0  0
  -25.9083  -34.9388   23.5046 C   0  0  0  0  0  0
  -16.5367  -29.9094   23.6352 C   0  0  0  0  0  0
  -16.7292  -28.6528   23.0351 C   0  0  0  0  0  0
  -26.4515  -31.6552   25.0735 C   0  0  0  0  0  0
  -25.3654  -31.3765   26.1404 C   0  0  0  0  0  0
  -27.0398  -30.2938   24.6369 C   0  0  0  0  0  0
  -27.6060  -32.4330   25.7507 C   0  0  0  0  0  0
  -27.5570  -37.1778   24.8450 C   0  0  0  0  0  0
  -21.4298  -29.3054   22.3603 N   0  0  0  0  0  0
  -26.4286  -37.3728   23.9388 N   0  0  0  0  0  0
  -24.7224  -31.0253   22.0875 N   0  0  0  0  0  0
  -23.4239  -28.8077   23.2990 O   0  0  0  0  0  0
  -28.2756  -26.1191   20.2362 O   0  0  0  0  0  0
  -26.5709  -34.8902   22.4650 O   0  0  0  0  0  0
  -23.5586  -32.1299   23.7033 O   0  0  0  0  0  0
  -31.1250  -21.1447   19.4433 C   0  0  0  0  0  0
  -32.2730  -20.4920   18.9813 C   0  0  0  0  0  0
  -30.0219  -20.4708   20.0239 C   0  0  0  0  0  0
  -32.3350  -19.1024   19.0887 C   0  0  0  0  0  0
  -30.2122  -18.9521   20.1100 C   0  0  0  0  0  0
  -33.4229  -21.2966   18.3926 C   0  0  0  0  0  0
  -33.5425  -18.3173   18.6162 C   0  0  0  0  0  0
  -29.5529  -17.8462   22.3419 C   0  0  0  0  0  0
  -28.8625  -21.5977   20.4104 C   0  0  0  0  0  0
  -29.0953  -23.2968   20.2264 C   0  0  0  0  0  0
  -27.9970  -24.5785   20.3860 C   0  0  0  0  0  0
  -29.4528  -17.6914   20.8145 C   0  0  2  0  0  0
  -31.3418  -18.3889   19.6300 N   0  0  0  0  0  0
  -29.6054  -16.1255   20.4829 N   0  0  0  0  0  0
  -31.4766  -12.8268   19.1591 H   0  0  0  0  0  0
  -30.4852  -11.6840   20.0293 H   0  0  0  0  0  0
  -29.8516  -11.7201   17.5958 H   0  0  0  0  0  0
  -29.5923  -13.4443   17.6638 H   0  0  0  0  0  0
  -27.9731  -11.2614   19.0069 H   0  0  0  0  0  0
  -27.3909  -12.3995   17.8219 H   0  0  0  0  0  0
  -27.5792  -14.2368   19.3862 H   0  0  0  0  0  0
  -28.7785  -12.3022   21.4286 H   0  0  0  0  0  0
  -28.3616  -13.9731   21.7455 H   0  0  0  0  0  0
  -25.2769   -9.5660   22.4750 H   0  0  0  0  0  0
  -24.0001   -7.4611   22.7476 H   0  0  0  0  0  0
  -21.0850   -8.8751   19.8948 H   0  0  0  0  0  0
  -22.3708  -10.9643   19.6156 H   0  0  0  0  0  0
  -21.1999   -7.6142   23.9711 H   0  0  0  0  0  0
  -21.1488   -6.0520   25.9071 H   0  0  0  0  0  0
  -22.0600   -2.7605   23.2864 H   0  0  0  0  0  0
  -22.4066  -11.9821   22.4864 H   0  0  0  0  0  0
  -21.1035  -13.1122   22.2658 H   0  0  0  0  0  0
  -24.6256  -15.8336   20.5217 H   0  0  0  0  0  0
  -26.2254  -15.6385   20.0253 H   0  0  0  0  0  0
  -26.7290  -32.5249   23.0996 H   0  0  0  0  0  0
  -24.9935  -33.9554   25.0183 H   0  0  0  0  0  0
  -22.7564  -31.2838   21.3646 H   0  0  0  0  0  0
  -23.3746  -35.9622   23.3284 H   0  0  0  0  0  0
  -24.3598  -36.8977   22.2065 H   0  0  0  0  0  0
  -23.7286  -37.6481   23.6728 H   0  0  0  0  0  0
  -26.1700  -31.4608   20.6104 H   0  0  0  0  0  0
  -26.8805  -30.7647   22.0306 H   0  0  0  0  0  0
  -28.1389  -28.7824   21.2550 H   0  0  0  0  0  0
  -25.9254  -25.8324   19.0101 H   0  0  0  0  0  0
  -23.9986  -27.2904   18.9786 H   0  0  0  0  0  0
  -23.8098  -30.5530   19.3868 H   0  0  0  0  0  0
  -22.8006  -29.2158   19.8439 H   0  0  0  0  0  0
  -25.1291  -36.1847   25.0796 H   0  0  0  0  0  0
  -20.9996  -28.3333   24.1376 H   0  0  0  0  0  0
  -20.5698  -26.2338   23.3633 H   0  0  0  0  0  0
  -21.6643  -26.7428   22.1211 H   0  0  0  0  0  0
  -19.6940  -25.6301   21.1273 H   0  0  0  0  0  0
  -19.6747  -27.3192   20.6751 H   0  0  0  0  0  0
  -17.4213  -26.6742   21.4000 H   0  0  0  0  0  0
  -18.0304  -26.0086   22.9003 H   0  0  0  0  0  0
  -19.7948  -30.7303   24.2252 H   0  0  0  0  0  0
  -17.5024  -31.6275   24.5185 H   0  0  0  0  0  0
  -15.5365  -30.2991   23.7692 H   0  0  0  0  0  0
  -15.8692  -28.0851   22.7070 H   0  0  0  0  0  0
  -24.5890  -30.7047   25.7715 H   0  0  0  0  0  0
  -24.8763  -32.2940   26.4683 H   0  0  0  0  0  0
  -25.7900  -30.9055   27.0280 H   0  0  0  0  0  0
  -26.3034  -29.6633   24.1373 H   0  0  0  0  0  0
  -27.3981  -29.7281   25.4985 H   0  0  0  0  0  0
  -27.8949  -30.4167   23.9724 H   0  0  0  0  0  0
  -27.2675  -33.3667   26.2016 H   0  0  0  0  0  0
  -28.3892  -32.6841   25.0335 H   0  0  0  0  0  0
  -28.0701  -31.8496   26.5473 H   0  0  0  0  0  0
  -28.2552  -38.0095   24.7462 H   0  0  0  0  0  0
  -28.1104  -36.2625   24.6296 H   0  0  0  0  0  0
  -27.2304  -37.1442   25.8859 H   0  0  0  0  0  0
  -20.9520  -29.8783   21.6783 H   0  0  0  0  0  0
  -26.0168  -38.2810   24.1363 H   0  0  0  0  0  0
  -31.1408  -22.2156   19.3482 H   0  0  0  0  0  0
  -33.1724  -22.3522   18.2786 H   0  0  0  0  0  0
  -33.7028  -20.9193   17.4091 H   0  0  0  0  0  0
  -34.2974  -21.2325   19.0401 H   0  0  0  0  0  0
  -33.7159  -18.4832   17.5529 H   0  0  0  0  0  0
  -33.4078  -17.2449   18.7670 H   0  0  0  0  0  0
  -34.4322  -18.6323   19.1634 H   0  0  0  0  0  0
  -29.1547  -18.8095   22.6650 H   0  0  0  0  0  0
  -30.5875  -17.7859   22.6806 H   0  0  0  0  0  0
  -28.9853  -17.0738   22.8622 H   0  0  0  0  0  0
  -28.5616  -21.4084   21.4417 H   0  0  0  0  0  0
  -27.9903  -21.3407   19.8066 H   0  0  0  0  0  0
  -29.4592  -23.4438   19.2103 H   0  0  0  0  0  0
  -29.9358  -23.5542   20.8720 H   0  0  0  0  0  0
  -27.5611  -24.4692   21.3810 H   0  0  0  0  0  0
  -27.1865  -24.3201   19.7087 H   0  0  0  0  0  0
  -28.4070  -17.8870   20.5703 H   0  0  0  0  0  0
  -28.6761  -15.7574   20.3693 H   0  0  0  0  0  0
  1 25  1  0  0  0
  1 30  2  0  0  0
  1 84  1  0  0  0
  2  3  1  0  0  0
  2 25  1  0  0  0
  2 85  1  0  0  0
  2 86  1  0  0  0
  3  4  1  0  0  0
  3 87  1  0  0  0
  3 88  1  0  0  0
  4  5  1  0  0  0
  4 89  1  0  0  0
  4 90  1  0  0  0
  5  6  1  0  0  0
  5 26  1  0  0  0
  5 91  1  0  0  0
  6 25  1  0  0  0
  6 92  1  0  0  0
  6 93  1  0  0  0
  7  8  2  0  0  0
  7 26  1  0  0  0
  7 29  1  0  0  0
  8  9  1  0  0  0
  8 22  1  0  0  0
  9 10  1  0  0  0
  9 27  2  0  0  0
 10 11  2  0  0  0
 10 15  1  0  0  0
 11 12  1  0  0  0
 11 94  1  0  0  0
 12 13  2  0  0  0
 12 95  1  0  0  0
 13 14  1  0  0  0
 13 31  1  0  0  0
 14 15  2  0  0  0
 14 96  1  0  0  0
 15 97  1  0  0  0
 16 17  2  0  0  0
 16 21  1  0  0  0
 16 31  1  0  0  0
 17 18  1  0  0  0
 17 98  1  0  0  0
 18 19  2  0  0  0
 18 99  1  0  0  0
 19 20  1  0  0  0
 19 24  1  0  0  0
 20 21  2  0  0  0
 20100  1  0  0  0
 21 23  1  0  0  0
 22 28  1  0  0  0
 22 32  2  0  0  0
 26 27  1  0  0  0
 28101  1  0  0  0
 28102  1  0  0  0
 29103  1  0  0  0
 29104  1  0  0  0
 33 34  1  0  0  0
 33 66  1  0  0  0
 33 70  2  0  0  0
 34 36  1  0  0  0
 34 59  1  0  0  0
 34105  1  0  0  0
 35 44  2  0  0  0
 35 45  1  0  0  0
 35 68  1  0  0  0
 36 56  1  0  0  0
 36106  1  0  0  0
 37 39  1  0  0  0
 37 47  1  0  0  0
 37 66  1  0  0  0
 37107  1  0  0  0
 38 43  2  0  0  0
 38 46  1  0  0  0
 38 47  1  0  0  0
 39 64  1  0  0  0
 39 67  2  0  0  0
 40 52  1  0  0  0
 40 53  2  0  0  0
 40 58  1  0  0  0
 41108  1  0  0  0
 41109  1  0  0  0
 41110  1  0  0  0
 41 48  1  0  0  0
 42 43  1  0  0  0
 42 66  1  0  0  0
 42111  1  0  0  0
 42112  1  0  0  0
 43 44  1  0  0  0
 44113  1  0  0  0
 45 46  2  0  0  0
 45114  1  0  0  0
 46115  1  0  0  0
 47116  1  0  0  0
 47117  1  0  0  0
 48 56  1  0  0  0
 48 65  1  0  0  0
 48118  1  0  0  0
 49 50  1  0  0  0
 49 53  1  0  0  0
 49 64  1  0  0  0
 49119  1  0  0  0
 50 51  1  0  0  0
 50120  1  0  0  0
 50121  1  0  0  0
 51 52  1  0  0  0
 51122  1  0  0  0
 51123  1  0  0  0
 52124  1  0  0  0
 52125  1  0  0  0
 53 54  1  0  0  0
 54 55  2  0  0  0
 54126  1  0  0  0
 55 57  1  0  0  0
 55127  1  0  0  0
 56 69  2  0  0  0
 57 58  2  0  0  0
 57128  1  0  0  0
 58129  1  0  0  0
 59 60  1  0  0  0
 59 61  1  0  0  0
 59 62  1  0  0  0
 60130  1  0  0  0
 60131  1  0  0  0
 60132  1  0  0  0
 61133  1  0  0  0
 61134  1  0  0  0
 61135  1  0  0  0
 62136  1  0  0  0
 62137  1  0  0  0
 62138  1  0  0  0
 63 65  1  0  0  0
 63139  1  0  0  0
 63140  1  0  0  0
 63141  1  0  0  0
 64142  1  0  0  0
 65143  1  0  0  0
 68 81  1  0  0  0
 71 72  2  0  0  0
 71 73  1  0  0  0
 71144  1  0  0  0
 72 74  1  0  0  0
 72 76  1  0  0  0
 73 75  2  0  0  0
 73 79  1  0  0  0
 74 77  1  0  0  0
 74 83  2  0  0  0
 75 82  1  0  0  0
 75 83  1  0  0  0
 76145  1  0  0  0
 76146  1  0  0  0
 76147  1  0  0  0
 77148  1  0  0  0
 77149  1  0  0  0
 77150  1  0  0  0
 78151  1  0  0  0
 78152  1  0  0  0
 78153  1  0  0  0
 78 82  1  0  0  0
 79 80  1  0  0  0
 79154  1  0  0  0
 79155  1  0  0  0
 80 81  1  0  0  0
 80156  1  0  0  0
 80157  1  0  0  0
 81158  1  0  0  0
 81159  1  0  0  0
 82 84  1  0  0  0
 82160  1  0  0  0
 84161  1  0  0  0
M  ISO  4   1 100  68 101  81 101  84 100
M  END
> <chiral flag>
0

> <version>
0

> <s_m_source_file>
/data/baiqing/PycharmProjects/Reinvent-master-3.2/result/LINK_invent/BTK/process_docking_weight1_custom_sum_contain_oxygen_bond_distance_aromatic_linkinvent_7_9_3/rearranged_h_0085.sdf

> <i_m_source_file_index>
15

> <r_mmod_Potential_Energy-OPLS-2005>
411.531188964844

> <r_mmod_Stretch_Energy-OPLS-2005>
314.820983886719

> <r_mmod_Bend_Energy-OPLS-2005>
365.697906494141

> <r_mmod_Torsional_Energy-OPLS-2005>
208.615234375

> <r_mmod_Improper_Torsional_Energy-OPLS-2005>
4.97055196762085

> <r_mmod_Van_der_Waal_Energy-OPLS-2005>
132.37744140625

> <r_mmod_Electrostatic_Energy-OPLS-2005>
-607.244140625

> <r_mmod_Solvation_Energy-OPLS-2005>
-237.87353515625

> <b_mmod_Minimization_Converged-OPLS-2005>
0

> <r_mmod_RMS_Derivative-OPLS-2005>
3.11782383918762

$$$$
15
                    3D
 Structure written by MMmdl.
161168  0  0  1  0            999 V2000
  -30.6406  -14.6215   20.5161 C   0  0  0  0  0  0
  -30.4464  -12.3853   19.4487 C   0  0  0  0  0  0
  -29.5110  -12.5007   18.2239 C   0  0  0  0  0  0
  -28.0326  -12.3577   18.6403 C   0  0  0  0  0  0
  -27.6660  -13.2178   19.8779 C   0  0  2  0  0  0
  -28.7124  -13.0522   21.0041 C   0  0  0  0  0  0
  -25.2629  -13.8173   20.5654 C   0  0  0  0  0  0
  -24.1878  -13.0461   20.9178 C   0  0  0  0  0  0
  -24.6442  -11.6922   20.8741 C   0  0  0  0  0  0
  -23.9094  -10.4296   21.0405 C   0  0  0  0  0  0
  -24.3638   -9.4191   21.9169 C   0  0  0  0  0  0
  -23.6290   -8.2233   22.0743 C   0  0  0  0  0  0
  -22.4254   -8.0289   21.3545 C   0  0  0  0  0  0
  -21.9918   -9.0258   20.4628 C   0  0  0  0  0  0
  -22.7278  -10.2127   20.3035 C   0  0  0  0  0  0
  -21.6848   -6.0723   22.5264 C   0  0  0  0  0  0
  -21.3998   -6.5625   23.8190 C   0  0  0  0  0  0
  -21.3638   -5.6787   24.9161 C   0  0  0  0  0  0
  -21.6051   -4.3051   24.7231 C   0  0  0  0  0  0
  -21.8827   -3.8138   23.4358 C   0  0  0  0  0  0
  -21.9187   -4.6949   22.3403 C   0  0  0  0  0  0
  -22.7895  -13.5239   21.1848 C   0  0  0  0  0  0
  -22.1679   -4.2133   21.0985 F   0  0  0  0  0  0
  -21.5638   -3.4534   25.7754 F   0  0  0  0  0  0
  -30.0288  -13.3950   20.4476 N   0  0  0  0  0  0
  -26.3092  -12.9366   20.3404 N   0  0  0  0  0  0
  -25.9388  -11.6520   20.5803 N   0  0  0  0  0  0
  -22.0541  -12.8165   22.0382 N   0  0  0  0  0  0
  -25.4386  -15.1888   20.3970 N   0  0  0  0  0  0
  -31.7702  -14.7966   20.0520 O   0  0  0  0  0  0
  -21.6638   -6.8865   21.4225 O   0  0  0  0  0  0
  -22.3539  -14.5522   20.6712 O   0  0  0  0  0  0
  -24.6314  -31.8578   23.2011 C   0  0  0  0  0  0
  -25.9189  -32.4744   23.8323 C   0  0  1  0  0  0
  -27.2141  -27.2908   20.1179 C   0  0  0  0  0  0
  -25.6008  -33.8536   24.2293 N   0  0  0  0  0  0
  -23.4217  -30.4847   21.5390 C   0  0  2  0  0  0
  -24.8701  -28.9398   20.1005 C   0  0  0  0  0  0
  -22.7515  -29.4623   22.4894 C   0  0  0  0  0  0
  -18.0316  -28.1386   22.8485 C   0  0  0  0  0  0
  -24.1479  -36.7212   23.2640 C   0  0  0  0  0  0
  -25.9663  -30.7799   21.3772 C   0  0  0  0  0  0
  -26.0360  -29.4059   20.7159 C   0  0  0  0  0  0
  -27.2129  -28.5921   20.7180 C   0  0  0  0  0  0
  -26.0243  -26.8950   19.4590 C   0  0  0  0  0  0
  -24.8674  -27.6940   19.4567 C   0  0  0  0  0  0
  -23.6393  -29.8218   20.1506 C   0  0  0  0  0  0
  -25.4107  -36.3042   24.0345 C   0  0  1  0  0  0
  -20.5923  -28.3676   23.1287 C   0  0  2  0  0  0
  -20.6777  -26.9407   22.5411 C   0  0  0  0  0  0
  -19.5746  -26.6406   21.5199 C   0  0  0  0  0  0
  -18.1936  -26.7943   22.1611 C   0  0  0  0  0  0
  -19.1583  -28.8855   23.2867 C   0  0  0  0  0  0
  -18.9494  -30.1458   23.8878 C   0  0  0  0  0  0
  -17.6493  -30.6579   24.0576 C   0  0  0  0  0  0
  -25.9064  -34.9415   23.5107 C   0  0  0  0  0  0
  -16.5387  -29.9069   23.6332 C   0  0  0  0  0  0
  -16.7303  -28.6494   23.0341 C   0  0  0  0  0  0
  -26.4545  -31.6542   25.0695 C   0  0  0  0  0  0
  -25.3817  -31.3678   26.1462 C   0  0  0  0  0  0
  -27.0392  -30.2972   24.6144 C   0  0  0  0  0  0
  -27.6092  -32.4262   25.7471 C   0  0  0  0  0  0
  -27.5565  -37.1774   24.8474 C   0  0  0  0  0  0
  -21.4238  -29.3025   22.3679 N   0  0  0  0  0  0
  -26.4239  -37.3767   23.9454 N   0  0  0  0  0  0
  -24.6901  -31.0615   22.0936 N   0  0  0  0  0  0
  -23.4257  -28.8162   23.2966 O   0  0  0  0  0  0
  -28.3076  -26.4064   20.1991 O   0  0  0  0  0  0
  -26.5603  -34.8899   22.4656 O   0  0  0  0  0  0
  -23.5483  -32.1370   23.7375 O   0  0  0  0  0  0
  -31.1507  -21.3961   20.3998 C   0  0  0  0  0  0
  -29.5432  -21.0733   22.2853 C   0  0  0  0  0  0
  -29.5228  -19.5407   18.7218 C   0  0  0  0  0  0
  -29.0488  -23.8322   20.5381 C   0  0  0  0  0  0
  -28.7526  -22.2887   20.1737 C   0  0  0  0  0  0
  -29.7319  -17.0040   20.1788 C   0  0  0  0  0  0
  -29.7757  -18.4127   20.9562 C   0  0  0  0  0  0
  -28.0846  -24.9538   19.9279 C   0  0  0  0  0  0
  -29.6738  -21.0753   20.7417 C   0  0  0  0  0  0
  -29.8698  -15.6832   20.9039 N   0  0  0  0  0  0
  -29.3066  -19.6709   20.1916 N   0  3  1  0  0  0
  -31.4836  -12.5137   19.1343 H   0  0  0  0  0  0
  -30.3916  -11.3858   19.8810 H   0  0  0  0  0  0
  -29.7601  -11.7354   17.4869 H   0  0  0  0  0  0
  -29.6719  -13.4585   17.7294 H   0  0  0  0  0  0
  -27.8469  -11.3043   18.8567 H   0  0  0  0  0  0
  -27.3831  -12.6167   17.8053 H   0  0  0  0  0  0
  -27.6931  -14.2582   19.5540 H   0  0  0  0  0  0
  -28.7204  -12.0242   21.3694 H   0  0  0  0  0  0
  -28.4683  -13.6717   21.8667 H   0  0  0  0  0  0
  -25.2795   -9.5665   22.4729 H   0  0  0  0  0  0
  -23.9996   -7.4618   22.7471 H   0  0  0  0  0  0
  -21.0845   -8.8811   19.8908 H   0  0  0  0  0  0
  -22.3769  -10.9675   19.6130 H   0  0  0  0  0  0
  -21.1979   -7.6130   23.9674 H   0  0  0  0  0  0
  -21.1459   -6.0533   25.9057 H   0  0  0  0  0  0
  -22.0616   -2.7601   23.2884 H   0  0  0  0  0  0
  -22.4141  -11.9785   22.4706 H   0  0  0  0  0  0
  -21.1150  -13.1142   22.2588 H   0  0  0  0  0  0
  -24.6774  -15.8547   20.4634 H   0  0  0  0  0  0
  -26.2903  -15.5958   20.0353 H   0  0  0  0  0  0
  -26.7257  -32.5411   23.1051 H   0  0  0  0  0  0
  -25.0251  -33.9667   25.0508 H   0  0  0  0  0  0
  -22.7122  -31.3040   21.3978 H   0  0  0  0  0  0
  -23.3757  -35.9535   23.3286 H   0  0  0  0  0  0
  -24.3566  -36.8836   22.2059 H   0  0  0  0  0  0
  -23.7224  -37.6417   23.6629 H   0  0  0  0  0  0
  -26.1196  -31.5472   20.6186 H   0  0  0  0  0  0
  -26.8403  -30.8163   22.0147 H   0  0  0  0  0  0
  -28.1036  -28.9391   21.2217 H   0  0  0  0  0  0
  -25.9502  -25.9480   18.9442 H   0  0  0  0  0  0
  -23.9781  -27.3461   18.9506 H   0  0  0  0  0  0
  -23.7665  -30.5956   19.3930 H   0  0  0  0  0  0
  -22.7581  -29.2576   19.8401 H   0  0  0  0  0  0
  -25.1291  -36.1825   25.0834 H   0  0  0  0  0  0
  -21.0009  -28.3241   24.1411 H   0  0  0  0  0  0
  -20.5648  -26.2303   23.3620 H   0  0  0  0  0  0
  -21.6650  -26.7420   22.1244 H   0  0  0  0  0  0
  -19.6881  -25.6327   21.1199 H   0  0  0  0  0  0
  -19.6654  -27.3234   20.6737 H   0  0  0  0  0  0
  -17.4222  -26.6744   21.3990 H   0  0  0  0  0  0
  -18.0291  -26.0087   22.8993 H   0  0  0  0  0  0
  -19.7974  -30.7283   24.2238 H   0  0  0  0  0  0
  -17.5052  -31.6248   24.5197 H   0  0  0  0  0  0
  -15.5389  -30.2953   23.7681 H   0  0  0  0  0  0
  -15.8709  -28.0805   22.7051 H   0  0  0  0  0  0
  -24.6018  -30.6954   25.7850 H   0  0  0  0  0  0
  -24.8987  -32.2839   26.4863 H   0  0  0  0  0  0
  -25.8267  -30.8929   27.0224 H   0  0  0  0  0  0
  -26.2976  -29.6718   24.1170 H   0  0  0  0  0  0
  -27.4100  -29.7212   25.4625 H   0  0  0  0  0  0
  -27.8817  -30.4235   23.9353 H   0  0  0  0  0  0
  -27.2707  -33.3560   26.2025 H   0  0  0  0  0  0
  -28.3947  -32.6814   25.0352 H   0  0  0  0  0  0
  -28.0685  -31.8386   26.5440 H   0  0  0  0  0  0
  -28.2582  -38.0066   24.7578 H   0  0  0  0  0  0
  -28.1063  -36.2631   24.6205 H   0  0  0  0  0  0
  -27.2308  -37.1336   25.8875 H   0  0  0  0  0  0
  -20.9453  -29.8761   21.6894 H   0  0  0  0  0  0
  -26.0090  -38.2821   24.1507 H   0  0  0  0  0  0
  -31.4974  -22.2866   20.9243 H   0  0  0  0  0  0
  -31.2946  -21.5760   19.3339 H   0  0  0  0  0  0
  -31.8279  -20.5923   20.6871 H   0  0  0  0  0  0
  -29.7668  -22.0515   22.7092 H   0  0  0  0  0  0
  -30.2422  -20.3843   22.7626 H   0  0  0  0  0  0
  -28.5390  -20.8047   22.6104 H   0  0  0  0  0  0
  -28.9692  -18.7005   18.3094 H   0  0  0  0  0  0
  -30.5767  -19.3905   18.4871 H   0  0  0  0  0  0
  -29.1799  -20.4017   18.1567 H   0  0  0  0  0  0
  -30.0672  -24.0725   20.2366 H   0  0  0  0  0  0
  -29.0274  -23.9392   21.6227 H   0  0  0  0  0  0
  -28.7569  -22.2555   19.0870 H   0  0  0  0  0  0
  -27.7157  -22.0766   20.4448 H   0  0  0  0  0  0
  -30.4722  -17.0297   19.3774 H   0  0  0  0  0  0
  -28.7653  -16.9247   19.6804 H   0  0  0  0  0  0
  -30.8006  -18.5698   21.2907 H   0  0  0  0  0  0
  -29.1746  -18.3350   21.8618 H   0  0  0  0  0  0
  -27.0880  -24.6717   20.2651 H   0  0  0  0  0  0
  -28.0777  -24.8410   18.8408 H   0  0  0  0  0  0
  -29.0547  -15.4083   21.4329 H   0  0  0  0  0  0
  -28.3027  -19.6257   20.2896 H   0  0  0  0  0  0
  1 25  1  0  0  0
  1 30  2  0  0  0
  1 80  1  0  0  0
  2  3  1  0  0  0
  2 25  1  0  0  0
  2 82  1  0  0  0
  2 83  1  0  0  0
  3  4  1  0  0  0
  3 84  1  0  0  0
  3 85  1  0  0  0
  4  5  1  0  0  0
  4 86  1  0  0  0
  4 87  1  0  0  0
  5  6  1  0  0  0
  5 26  1  0  0  0
  5 88  1  0  0  0
  6 25  1  0  0  0
  6 89  1  0  0  0
  6 90  1  0  0  0
  7  8  2  0  0  0
  7 26  1  0  0  0
  7 29  1  0  0  0
  8  9  1  0  0  0
  8 22  1  0  0  0
  9 10  1  0  0  0
  9 27  2  0  0  0
 10 11  2  0  0  0
 10 15  1  0  0  0
 11 12  1  0  0  0
 11 91  1  0  0  0
 12 13  2  0  0  0
 12 92  1  0  0  0
 13 14  1  0  0  0
 13 31  1  0  0  0
 14 15  2  0  0  0
 14 93  1  0  0  0
 15 94  1  0  0  0
 16 17  2  0  0  0
 16 21  1  0  0  0
 16 31  1  0  0  0
 17 18  1  0  0  0
 17 95  1  0  0  0
 18 19  2  0  0  0
 18 96  1  0  0  0
 19 20  1  0  0  0
 19 24  1  0  0  0
 20 21  2  0  0  0
 20 97  1  0  0  0
 21 23  1  0  0  0
 22 28  1  0  0  0
 22 32  2  0  0  0
 26 27  1  0  0  0
 28 98  1  0  0  0
 28 99  1  0  0  0
 29100  1  0  0  0
 29101  1  0  0  0
 33 34  1  0  0  0
 33 66  1  0  0  0
 33 70  2  0  0  0
 34 36  1  0  0  0
 34 59  1  0  0  0
 34102  1  0  0  0
 35 44  2  0  0  0
 35 45  1  0  0  0
 35 68  1  0  0  0
 36 56  1  0  0  0
 36103  1  0  0  0
 37 39  1  0  0  0
 37 47  1  0  0  0
 37 66  1  0  0  0
 37104  1  0  0  0
 38 43  2  0  0  0
 38 46  1  0  0  0
 38 47  1  0  0  0
 39 64  1  0  0  0
 39 67  2  0  0  0
 40 52  1  0  0  0
 40 53  2  0  0  0
 40 58  1  0  0  0
 41105  1  0  0  0
 41106  1  0  0  0
 41107  1  0  0  0
 41 48  1  0  0  0
 42 43  1  0  0  0
 42 66  1  0  0  0
 42108  1  0  0  0
 42109  1  0  0  0
 43 44  1  0  0  0
 44110  1  0  0  0
 45 46  2  0  0  0
 45111  1  0  0  0
 46112  1  0  0  0
 47113  1  0  0  0
 47114  1  0  0  0
 48 56  1  0  0  0
 48 65  1  0  0  0
 48115  1  0  0  0
 49 50  1  0  0  0
 49 53  1  0  0  0
 49 64  1  0  0  0
 49116  1  0  0  0
 50 51  1  0  0  0
 50117  1  0  0  0
 50118  1  0  0  0
 51 52  1  0  0  0
 51119  1  0  0  0
 51120  1  0  0  0
 52121  1  0  0  0
 52122  1  0  0  0
 53 54  1  0  0  0
 54 55  2  0  0  0
 54123  1  0  0  0
 55 57  1  0  0  0
 55124  1  0  0  0
 56 69  2  0  0  0
 57 58  2  0  0  0
 57125  1  0  0  0
 58126  1  0  0  0
 59 60  1  0  0  0
 59 61  1  0  0  0
 59 62  1  0  0  0
 60127  1  0  0  0
 60128  1  0  0  0
 60129  1  0  0  0
 61130  1  0  0  0
 61131  1  0  0  0
 61132  1  0  0  0
 62133  1  0  0  0
 62134  1  0  0  0
 62135  1  0  0  0
 63 65  1  0  0  0
 63136  1  0  0  0
 63137  1  0  0  0
 63138  1  0  0  0
 64139  1  0  0  0
 65140  1  0  0  0
 68 78  1  0  0  0
 71141  1  0  0  0
 71142  1  0  0  0
 71143  1  0  0  0
 71 79  1  0  0  0
 72 79  1  0  0  0
 72144  1  0  0  0
 72145  1  0  0  0
 72146  1  0  0  0
 73147  1  0  0  0
 73148  1  0  0  0
 73149  1  0  0  0
 73 81  1  0  0  0
 74 75  1  0  0  0
 74 78  1  0  0  0
 74150  1  0  0  0
 74151  1  0  0  0
 75 79  1  0  0  0
 75152  1  0  0  0
 75153  1  0  0  0
 76 77  1  0  0  0
 76 80  1  0  0  0
 76154  1  0  0  0
 76155  1  0  0  0
 77 81  1  0  0  0
 77156  1  0  0  0
 77157  1  0  0  0
 78158  1  0  0  0
 78159  1  0  0  0
 79 81  1  0  0  0
 80160  1  0  0  0
 81161  1  0  0  0
M  CHG  1  81   1
M  ISO  4   1 100  68 101  78 101  80 100
M  END
> <chiral flag>
0

> <version>
0

> <s_m_source_file>
/data/baiqing/PycharmProjects/Reinvent-master-3.2/result/LINK_invent/BTK/process_docking_weight1_custom_sum_contain_oxygen_bond_distance_aromatic_linkinvent_7_9_3/rearranged_h_0085.sdf

> <i_m_source_file_index>
16

> <r_mmod_Potential_Energy-OPLS-2005>
-20.4000644683838

> <r_mmod_Stretch_Energy-OPLS-2005>
109.842948913574

> <r_mmod_Bend_Energy-OPLS-2005>
154.79296875

> <r_mmod_Torsional_Energy-OPLS-2005>
245.418685913086

> <r_mmod_Improper_Torsional_Energy-OPLS-2005>
7.46664953231812

> <r_mmod_Van_der_Waal_Energy-OPLS-2005>
137.262924194336

> <r_mmod_Electrostatic_Energy-OPLS-2005>
-272.758819580078

> <r_mmod_Solvation_Energy-OPLS-2005>
-456.129486083984

> <b_mmod_Minimization_Converged-OPLS-2005>
0

> <r_mmod_RMS_Derivative-OPLS-2005>
4.96451473236084

$$$$
16
                    3D
 Structure written by MMmdl.
161169  0  0  1  0            999 V2000
  -30.6121  -14.7328   20.4548 C   0  0  0  0  0  0
  -30.4346  -12.4439   19.4681 C   0  0  0  0  0  0
  -29.5079  -12.4880   18.2345 C   0  0  0  0  0  0
  -28.0367  -12.3063   18.6547 C   0  0  0  0  0  0
  -27.6398  -13.2234   19.8415 C   0  0  2  0  0  0
  -28.6850  -13.1648   20.9747 C   0  0  0  0  0  0
  -25.2503  -13.8194   20.5722 C   0  0  0  0  0  0
  -24.1782  -13.0446   20.9224 C   0  0  0  0  0  0
  -24.6374  -11.6926   20.8758 C   0  0  0  0  0  0
  -23.9060  -10.4303   21.0422 C   0  0  0  0  0  0
  -24.3608   -9.4211   21.9201 C   0  0  0  0  0  0
  -23.6282   -8.2245   22.0768 C   0  0  0  0  0  0
  -22.4268   -8.0289   21.3552 C   0  0  0  0  0  0
  -21.9898   -9.0267   20.4655 C   0  0  0  0  0  0
  -22.7233  -10.2144   20.3071 C   0  0  0  0  0  0
  -21.6844   -6.0743   22.5293 C   0  0  0  0  0  0
  -21.4014   -6.5640   23.8235 C   0  0  0  0  0  0
  -21.3653   -5.6785   24.9191 C   0  0  0  0  0  0
  -21.6041   -4.3053   24.7236 C   0  0  0  0  0  0
  -21.8811   -3.8150   23.4356 C   0  0  0  0  0  0
  -21.9193   -4.6970   22.3412 C   0  0  0  0  0  0
  -22.7797  -13.5239   21.1870 C   0  0  0  0  0  0
  -22.1660   -4.2162   21.0986 F   0  0  0  0  0  0
  -21.5627   -3.4535   25.7739 F   0  0  0  0  0  0
  -29.9840  -13.5108   20.3895 N   0  0  0  0  0  0
  -26.2918  -12.9395   20.3248 N   0  0  0  0  0  0
  -25.9293  -11.6548   20.5736 N   0  0  0  0  0  0
  -22.0417  -12.8252   22.0415 N   0  0  0  0  0  0
  -25.4207  -15.1935   20.4225 N   0  0  0  0  0  0
  -31.8064  -14.8268   20.1654 O   0  0  0  0  0  0
  -21.6629   -6.8892   21.4260 O   0  0  0  0  0  0
  -22.3500  -14.5558   20.6716 O   0  0  0  0  0  0
  -24.6311  -31.8555   23.2001 C   0  0  0  0  0  0
  -25.9155  -32.4760   23.8308 C   0  0  1  0  0  0
  -27.2154  -27.2629   20.1311 C   0  0  0  0  0  0
  -25.5966  -33.8555   24.2240 N   0  0  0  0  0  0
  -23.4244  -30.4798   21.5468 C   0  0  2  0  0  0
  -24.8687  -28.9282   20.1151 C   0  0  0  0  0  0
  -22.7495  -29.4585   22.4950 C   0  0  0  0  0  0
  -18.0287  -28.1347   22.8456 C   0  0  0  0  0  0
  -24.1490  -36.7270   23.2632 C   0  0  0  0  0  0
  -25.9717  -30.7706   21.3764 C   0  0  0  0  0  0
  -26.0439  -29.3947   20.7163 C   0  0  0  0  0  0
  -27.2210  -28.5790   20.7065 C   0  0  0  0  0  0
  -26.0097  -26.8614   19.5105 C   0  0  0  0  0  0
  -24.8575  -27.6693   19.5009 C   0  0  0  0  0  0
  -23.6412  -29.8176   20.1622 C   0  0  0  0  0  0
  -25.4123  -36.3063   24.0314 C   0  0  1  0  0  0
  -20.5882  -28.3662   23.1299 C   0  0  2  0  0  0
  -20.6773  -26.9373   22.5427 C   0  0  0  0  0  0
  -19.5776  -26.6369   21.5197 C   0  0  0  0  0  0
  -18.1945  -26.7901   22.1582 C   0  0  0  0  0  0
  -19.1532  -28.8825   23.2866 C   0  0  0  0  0  0
  -18.9440  -30.1427   23.8879 C   0  0  0  0  0  0
  -17.6442  -30.6552   24.0539 C   0  0  0  0  0  0
  -25.9071  -34.9439   23.5080 C   0  0  0  0  0  0
  -16.5337  -29.9035   23.6314 C   0  0  0  0  0  0
  -16.7276  -28.6453   23.0339 C   0  0  0  0  0  0
  -26.4512  -31.6590   25.0709 C   0  0  0  0  0  0
  -25.3723  -31.3767   26.1430 C   0  0  0  0  0  0
  -27.0370  -30.3005   24.6215 C   0  0  0  0  0  0
  -27.6055  -32.4338   25.7488 C   0  0  0  0  0  0
  -27.5581  -37.1797   24.8468 C   0  0  0  0  0  0
  -21.4203  -29.3026   22.3710 N   0  0  0  0  0  0
  -26.4291  -37.3774   23.9415 N   0  0  0  0  0  0
  -24.6951  -31.0530   22.0972 N   0  0  0  0  0  0
  -23.4217  -28.8113   23.3030 O   0  0  0  0  0  0
  -28.3117  -26.3679   20.1868 O   0  0  0  0  0  0
  -26.5631  -34.8915   22.4647 O   0  0  0  0  0  0
  -23.5475  -32.1373   23.7333 O   0  0  0  0  0  0
  -28.7733  -21.8514   22.6927 C   0  0  0  0  0  0
  -28.7156  -21.1509   23.9054 C   0  0  0  0  0  0
  -28.9839  -21.1917   21.4585 C   0  0  0  0  0  0
  -28.8489  -19.7568   23.8705 C   0  0  0  0  0  0
  -29.1574  -19.7262   21.5326 C   0  0  0  0  0  0
  -28.4725  -21.9172   25.1953 C   0  0  0  0  0  0
  -28.7251  -18.8968   25.1131 C   0  0  0  0  0  0
  -28.8944  -22.1635   20.2096 C   0  0  0  0  0  0
  -29.2818  -18.5953   20.4304 C   0  0  0  0  0  0
  -29.1908  -23.7717   20.3568 C   0  0  0  0  0  0
  -30.2984  -17.3350   20.6862 C   0  0  0  0  0  0
  -28.0423  -24.8856   20.1373 C   0  0  0  0  0  0
  -29.0563  -19.0929   22.7238 N   0  0  0  0  0  0
  -29.8410  -15.8714   20.6415 N   0  0  0  0  0  0
  -31.4746  -12.5742   19.1610 H   0  0  0  0  0  0
  -30.3837  -11.4712   19.9614 H   0  0  0  0  0  0
  -29.7888  -11.7157   17.5180 H   0  0  0  0  0  0
  -29.6242  -13.4411   17.7198 H   0  0  0  0  0  0
  -27.9055  -11.2624   18.9443 H   0  0  0  0  0  0
  -27.3776  -12.4717   17.8028 H   0  0  0  0  0  0
  -27.6341  -14.2372   19.4411 H   0  0  0  0  0  0
  -28.7213  -12.1705   21.4212 H   0  0  0  0  0  0
  -28.4245  -13.8536   21.7780 H   0  0  0  0  0  0
  -25.2753   -9.5697   22.4787 H   0  0  0  0  0  0
  -23.9995   -7.4641   22.7483 H   0  0  0  0  0  0
  -21.0831   -8.8806   19.8959 H   0  0  0  0  0  0
  -22.3706  -10.9700   19.6189 H   0  0  0  0  0  0
  -21.2009   -7.6150   23.9754 H   0  0  0  0  0  0
  -21.1473   -6.0506   25.9095 H   0  0  0  0  0  0
  -22.0590   -2.7613   23.2853 H   0  0  0  0  0  0
  -22.3990  -11.9901   22.4825 H   0  0  0  0  0  0
  -21.1065  -13.1362   22.2644 H   0  0  0  0  0  0
  -24.6535  -15.8454   20.5509 H   0  0  0  0  0  0
  -26.2686  -15.6455   20.1078 H   0  0  0  0  0  0
  -26.7225  -32.5389   23.1044 H   0  0  0  0  0  0
  -25.0148  -33.9661   25.0405 H   0  0  0  0  0  0
  -22.7196  -31.3019   21.4069 H   0  0  0  0  0  0
  -23.3747  -35.9609   23.3297 H   0  0  0  0  0  0
  -24.3573  -36.8895   22.2048 H   0  0  0  0  0  0
  -23.7244  -37.6473   23.6655 H   0  0  0  0  0  0
  -26.1137  -31.5315   20.6072 H   0  0  0  0  0  0
  -26.8466  -30.8153   22.0131 H   0  0  0  0  0  0
  -28.1212  -28.9367   21.1862 H   0  0  0  0  0  0
  -25.9137  -25.8976   19.0361 H   0  0  0  0  0  0
  -23.9561  -27.3017   19.0302 H   0  0  0  0  0  0
  -23.7697  -30.5953   19.4079 H   0  0  0  0  0  0
  -22.7568  -29.2579   19.8553 H   0  0  0  0  0  0
  -25.1306  -36.1904   25.0804 H   0  0  0  0  0  0
  -20.9946  -28.3233   24.1425 H   0  0  0  0  0  0
  -20.5621  -26.2265   23.3628 H   0  0  0  0  0  0
  -21.6651  -26.7369   22.1267 H   0  0  0  0  0  0
  -19.6928  -25.6280   21.1223 H   0  0  0  0  0  0
  -19.6758  -27.3194   20.6745 H   0  0  0  0  0  0
  -17.4237  -26.6647   21.3963 H   0  0  0  0  0  0
  -18.0347  -26.0022   22.8958 H   0  0  0  0  0  0
  -19.7917  -30.7236   24.2256 H   0  0  0  0  0  0
  -17.4990  -31.6231   24.5138 H   0  0  0  0  0  0
  -15.5336  -30.2934   23.7636 H   0  0  0  0  0  0
  -15.8664  -28.0769   22.7066 H   0  0  0  0  0  0
  -24.5846  -30.7193   25.7742 H   0  0  0  0  0  0
  -24.8976  -32.2958   26.4870 H   0  0  0  0  0  0
  -25.8004  -30.8900   27.0198 H   0  0  0  0  0  0
  -26.2976  -29.6747   24.1218 H   0  0  0  0  0  0
  -27.4025  -29.7288   25.4752 H   0  0  0  0  0  0
  -27.8851  -30.4267   23.9485 H   0  0  0  0  0  0
  -27.2639  -33.3612   26.2092 H   0  0  0  0  0  0
  -28.3847  -32.6957   25.0316 H   0  0  0  0  0  0
  -28.0751  -31.8462   26.5385 H   0  0  0  0  0  0
  -28.2608  -38.0083   24.7511 H   0  0  0  0  0  0
  -28.1060  -36.2619   24.6297 H   0  0  0  0  0  0
  -27.2292  -37.1460   25.8866 H   0  0  0  0  0  0
  -20.9369  -29.8809   21.6970 H   0  0  0  0  0  0
  -26.0159  -38.2843   24.1425 H   0  0  0  0  0  0
  -28.6094  -22.9175   22.7325 H   0  0  0  0  0  0
  -27.4222  -22.1963   25.2720 H   0  0  0  0  0  0
  -29.0676  -22.8313   25.2161 H   0  0  0  0  0  0
  -28.7360  -21.3376   26.0789 H   0  0  0  0  0  0
  -29.5233  -19.1266   25.8190 H   0  0  0  0  0  0
  -28.7899  -17.8355   24.8751 H   0  0  0  0  0  0
  -27.7642  -19.0710   25.5991 H   0  0  0  0  0  0
  -27.9023  -22.0293   19.7750 H   0  0  0  0  0  0
  -29.5796  -21.7648   19.4609 H   0  0  0  0  0  0
  -29.5582  -19.0908   19.4991 H   0  0  0  0  0  0
  -28.2761  -18.2085   20.2601 H   0  0  0  0  0  0
  -29.9294  -23.9971   19.5857 H   0  0  0  0  0  0
  -29.7415  -23.9829   21.2739 H   0  0  0  0  0  0
  -30.8075  -17.4696   21.6408 H   0  0  0  0  0  0
  -31.0966  -17.4321   19.9496 H   0  0  0  0  0  0
  -27.2558  -24.6783   20.8634 H   0  0  0  0  0  0
  -27.6180  -24.6600   19.1603 H   0  0  0  0  0  0
  -28.8606  -15.7074   20.8097 H   0  0  0  0  0  0
  1 25  1  0  0  0
  1 30  2  0  0  0
  1 84  1  0  0  0
  2  3  1  0  0  0
  2 25  1  0  0  0
  2 85  1  0  0  0
  2 86  1  0  0  0
  3  4  1  0  0  0
  3 87  1  0  0  0
  3 88  1  0  0  0
  4  5  1  0  0  0
  4 89  1  0  0  0
  4 90  1  0  0  0
  5  6  1  0  0  0
  5 26  1  0  0  0
  5 91  1  0  0  0
  6 25  1  0  0  0
  6 92  1  0  0  0
  6 93  1  0  0  0
  7  8  2  0  0  0
  7 26  1  0  0  0
  7 29  1  0  0  0
  8  9  1  0  0  0
  8 22  1  0  0  0
  9 10  1  0  0  0
  9 27  2  0  0  0
 10 11  2  0  0  0
 10 15  1  0  0  0
 11 12  1  0  0  0
 11 94  1  0  0  0
 12 13  2  0  0  0
 12 95  1  0  0  0
 13 14  1  0  0  0
 13 31  1  0  0  0
 14 15  2  0  0  0
 14 96  1  0  0  0
 15 97  1  0  0  0
 16 17  2  0  0  0
 16 21  1  0  0  0
 16 31  1  0  0  0
 17 18  1  0  0  0
 17 98  1  0  0  0
 18 19  2  0  0  0
 18 99  1  0  0  0
 19 20  1  0  0  0
 19 24  1  0  0  0
 20 21  2  0  0  0
 20100  1  0  0  0
 21 23  1  0  0  0
 22 28  1  0  0  0
 22 32  2  0  0  0
 26 27  1  0  0  0
 28101  1  0  0  0
 28102  1  0  0  0
 29103  1  0  0  0
 29104  1  0  0  0
 33 34  1  0  0  0
 33 66  1  0  0  0
 33 70  2  0  0  0
 34 36  1  0  0  0
 34 59  1  0  0  0
 34105  1  0  0  0
 35 44  2  0  0  0
 35 45  1  0  0  0
 35 68  1  0  0  0
 36 56  1  0  0  0
 36106  1  0  0  0
 37 39  1  0  0  0
 37 47  1  0  0  0
 37 66  1  0  0  0
 37107  1  0  0  0
 38 43  2  0  0  0
 38 46  1  0  0  0
 38 47  1  0  0  0
 39 64  1  0  0  0
 39 67  2  0  0  0
 40 52  1  0  0  0
 40 53  2  0  0  0
 40 58  1  0  0  0
 41108  1  0  0  0
 41109  1  0  0  0
 41110  1  0  0  0
 41 48  1  0  0  0
 42 43  1  0  0  0
 42 66  1  0  0  0
 42111  1  0  0  0
 42112  1  0  0  0
 43 44  1  0  0  0
 44113  1  0  0  0
 45 46  2  0  0  0
 45114  1  0  0  0
 46115  1  0  0  0
 47116  1  0  0  0
 47117  1  0  0  0
 48 56  1  0  0  0
 48 65  1  0  0  0
 48118  1  0  0  0
 49 50  1  0  0  0
 49 53  1  0  0  0
 49 64  1  0  0  0
 49119  1  0  0  0
 50 51  1  0  0  0
 50120  1  0  0  0
 50121  1  0  0  0
 51 52  1  0  0  0
 51122  1  0  0  0
 51123  1  0  0  0
 52124  1  0  0  0
 52125  1  0  0  0
 53 54  1  0  0  0
 54 55  2  0  0  0
 54126  1  0  0  0
 55 57  1  0  0  0
 55127  1  0  0  0
 56 69  2  0  0  0
 57 58  2  0  0  0
 57128  1  0  0  0
 58129  1  0  0  0
 59 60  1  0  0  0
 59 61  1  0  0  0
 59 62  1  0  0  0
 60130  1  0  0  0
 60131  1  0  0  0
 60132  1  0  0  0
 61133  1  0  0  0
 61134  1  0  0  0
 61135  1  0  0  0
 62136  1  0  0  0
 62137  1  0  0  0
 62138  1  0  0  0
 63 65  1  0  0  0
 63139  1  0  0  0
 63140  1  0  0  0
 63141  1  0  0  0
 64142  1  0  0  0
 65143  1  0  0  0
 68 82  1  0  0  0
 71 72  2  0  0  0
 71 73  1  0  0  0
 71144  1  0  0  0
 72 74  1  0  0  0
 72 76  1  0  0  0
 73 75  2  0  0  0
 73 78  1  0  0  0
 74 77  1  0  0  0
 74 83  2  0  0  0
 75 79  1  0  0  0
 75 83  1  0  0  0
 76145  1  0  0  0
 76146  1  0  0  0
 76147  1  0  0  0
 77148  1  0  0  0
 77149  1  0  0  0
 77150  1  0  0  0
 78 80  1  0  0  0
 78151  1  0  0  0
 78152  1  0  0  0
 79 81  1  0  0  0
 79153  1  0  0  0
 79154  1  0  0  0
 80 82  1  0  0  0
 80155  1  0  0  0
 80156  1  0  0  0
 81 84  1  0  0  0
 81157  1  0  0  0
 81158  1  0  0  0
 82159  1  0  0  0
 82160  1  0  0  0
 84161  1  0  0  0
M  ISO  4   1 100  68 101  82 101  84 100
M  END
> <chiral flag>
0

> <version>
0

> <s_m_source_file>
/data/baiqing/PycharmProjects/Reinvent-master-3.2/result/LINK_invent/BTK/process_docking_weight1_custom_sum_contain_oxygen_bond_distance_aromatic_linkinvent_7_9_3/rearranged_h_0085.sdf

> <i_m_source_file_index>
17

> <r_mmod_Potential_Energy-OPLS-2005>
66.0605926513672

> <r_mmod_Stretch_Energy-OPLS-2005>
134.845031738281

> <r_mmod_Bend_Energy-OPLS-2005>
201.221817016602

> <r_mmod_Torsional_Energy-OPLS-2005>
229.737609863281

> <r_mmod_Improper_Torsional_Energy-OPLS-2005>
5.134934425354

> <r_mmod_Van_der_Waal_Energy-OPLS-2005>
147.964019775391

> <r_mmod_Electrostatic_Energy-OPLS-2005>
-512.831665039062

> <r_mmod_Solvation_Energy-OPLS-2005>
-224.292266845703

> <b_mmod_Minimization_Converged-OPLS-2005>
0

> <r_mmod_RMS_Derivative-OPLS-2005>
2.9577202796936

$$$$
17
                    3D
 Structure written by MMmdl.
173181  0  0  1  0            999 V2000
  -30.7118  -14.3871   20.7023 C   0  0  0  0  0  0
  -30.4317  -12.3124   19.3860 C   0  0  0  0  0  0
  -29.5014  -12.5960   18.1837 C   0  0  0  0  0  0
  -28.0077  -12.4670   18.5661 C   0  0  0  0  0  0
  -27.6697  -13.2051   19.8889 C   0  0  2  0  0  0
  -28.7030  -12.8079   20.9577 C   0  0  0  0  0  0
  -25.2598  -13.8140   20.5677 C   0  0  0  0  0  0
  -24.1866  -13.0433   20.9252 C   0  0  0  0  0  0
  -24.6403  -11.6907   20.8724 C   0  0  0  0  0  0
  -23.9041  -10.4303   21.0356 C   0  0  0  0  0  0
  -24.3554   -9.4281   21.9191 C   0  0  0  0  0  0
  -23.6251   -8.2303   22.0782 C   0  0  0  0  0  0
  -22.4261   -8.0283   21.3540 C   0  0  0  0  0  0
  -21.9929   -9.0209   20.4569 C   0  0  0  0  0  0
  -22.7261  -10.2083   20.2946 C   0  0  0  0  0  0
  -21.6824   -6.0762   22.5296 C   0  0  0  0  0  0
  -21.3977   -6.5657   23.8242 C   0  0  0  0  0  0
  -21.3651   -5.6828   24.9209 C   0  0  0  0  0  0
  -21.6051   -4.3090   24.7240 C   0  0  0  0  0  0
  -21.8826   -3.8163   23.4346 C   0  0  0  0  0  0
  -21.9178   -4.6974   22.3419 C   0  0  0  0  0  0
  -22.7875  -13.5194   21.1929 C   0  0  0  0  0  0
  -22.1643   -4.2165   21.0985 F   0  0  0  0  0  0
  -21.5650   -3.4604   25.7753 F   0  0  0  0  0  0
  -30.0389  -13.2160   20.4808 N   0  0  0  0  0  0
  -26.3039  -12.9324   20.3357 N   0  0  0  0  0  0
  -25.9309  -11.6470   20.5655 N   0  0  0  0  0  0
  -22.0582  -12.8164   22.0542 N   0  0  0  0  0  0
  -25.4265  -15.1839   20.4024 N   0  0  0  0  0  0
  -31.7562  -14.6680   20.1044 O   0  0  0  0  0  0
  -21.6615   -6.8905   21.4262 O   0  0  0  0  0  0
  -22.3485  -14.5420   20.6716 O   0  0  0  0  0  0
  -24.6116  -31.8661   23.2131 C   0  0  0  0  0  0
  -25.9017  -32.4820   23.8393 C   0  0  1  0  0  0
  -27.2501  -27.4654   20.0884 C   0  0  0  0  0  0
  -25.5871  -33.8615   24.2329 N   0  0  0  0  0  0
  -23.3985  -30.4917   21.5534 C   0  0  2  0  0  0
  -24.8468  -28.9627   20.1149 C   0  0  0  0  0  0
  -22.7373  -29.4651   22.4994 C   0  0  0  0  0  0
  -18.0268  -28.1367   22.8483 C   0  0  0  0  0  0
  -24.1488  -36.7327   23.2641 C   0  0  0  0  0  0
  -25.9224  -30.8477   21.3563 C   0  0  0  0  0  0
  -26.0024  -29.4816   20.7089 C   0  0  0  0  0  0
  -27.2026  -28.7397   20.6951 C   0  0  0  0  0  0
  -26.0698  -26.9517   19.4959 C   0  0  0  0  0  0
  -24.8743  -27.6959   19.5069 C   0  0  0  0  0  0
  -23.6044  -29.8224   20.1683 C   0  0  0  0  0  0
  -25.4098  -36.3108   24.0339 C   0  0  1  0  0  0
  -20.5847  -28.3643   23.1318 C   0  0  2  0  0  0
  -20.6745  -26.9371   22.5437 C   0  0  0  0  0  0
  -19.5746  -26.6372   21.5211 C   0  0  0  0  0  0
  -18.1911  -26.7918   22.1603 C   0  0  0  0  0  0
  -19.1514  -28.8820   23.2907 C   0  0  0  0  0  0
  -18.9443  -30.1423   23.8923 C   0  0  0  0  0  0
  -17.6449  -30.6574   24.0554 C   0  0  0  0  0  0
  -25.9014  -34.9469   23.5131 C   0  0  0  0  0  0
  -16.5338  -29.9078   23.6317 C   0  0  0  0  0  0
  -16.7262  -28.6495   23.0338 C   0  0  0  0  0  0
  -26.4489  -31.6589   25.0694 C   0  0  0  0  0  0
  -25.3789  -31.3669   26.1469 C   0  0  0  0  0  0
  -27.0303  -30.3039   24.6025 C   0  0  0  0  0  0
  -27.6098  -32.4282   25.7432 C   0  0  0  0  0  0
  -27.5582  -37.1792   24.8450 C   0  0  0  0  0  0
  -21.4108  -29.2999   22.3711 N   0  0  0  0  0  0
  -26.4288  -37.3778   23.9409 N   0  0  0  0  0  0
  -24.6630  -31.0803   22.1014 N   0  0  0  0  0  0
  -23.4157  -28.8184   23.3014 O   0  0  0  0  0  0
  -28.4558  -26.7918   20.1121 O   0  0  0  0  0  0
  -26.5588  -34.8909   22.4701 O   0  0  0  0  0  0
  -23.5323  -32.1390   23.7554 O   0  0  0  0  0  0
  -29.2910  -18.7986   22.9465 C   0  0  0  0  0  0
  -27.0919  -19.7096   22.5864 C   0  0  0  0  0  0
  -28.4821  -19.8936   22.5833 C   0  0  0  0  0  0
  -28.7132  -17.5569   23.3196 C   0  0  0  0  0  0
  -27.2807  -17.5085   23.3225 C   0  0  0  0  0  0
  -26.4128  -16.3502   23.8109 C   0  0  0  0  0  0
  -29.3595  -24.4408   22.3528 C   0  0  0  0  0  0
  -29.3157  -15.9166   25.1802 C   0  0  0  0  0  0
  -31.1370  -16.7404   23.7780 C   0  0  0  0  0  0
  -29.1372  -21.2295   22.2336 C   0  0  0  0  0  0
  -28.1978  -22.2867   21.6161 C   0  0  0  0  0  0
  -27.9659  -24.3608   20.1976 C   0  0  0  0  0  0
  -29.4666  -15.1724   22.7553 C   0  0  0  0  0  0
  -28.5916  -25.5480   19.4277 C   0  0  0  0  0  0
  -28.9018  -23.5834   21.1543 C   0  0  1  0  0  0
  -29.6317  -16.3666   23.7345 C   0  0  0  0  0  0
  -26.5145  -18.5561   22.9507 N   0  0  0  0  0  0
  -30.1416  -15.3362   21.4674 N   0  0  0  0  0  0
  -31.4768  -12.4452   19.0980 H   0  0  0  0  0  0
  -30.3488  -11.2680   19.6955 H   0  0  0  0  0  0
  -29.7417  -11.9444   17.3423 H   0  0  0  0  0  0
  -29.6832  -13.6140   17.8349 H   0  0  0  0  0  0
  -27.7662  -11.4083   18.6508 H   0  0  0  0  0  0
  -27.3823  -12.8572   17.7603 H   0  0  0  0  0  0
  -27.7565  -14.2784   19.7132 H   0  0  0  0  0  0
  -28.6868  -11.7213   21.0534 H   0  0  0  0  0  0
  -28.4212  -13.1092   21.9544 H   0  0  0  0  0  0
  -25.2670   -9.5875   22.4770 H   0  0  0  0  0  0
  -23.9957   -7.4747   22.7545 H   0  0  0  0  0  0
  -21.0927   -8.8629   19.8818 H   0  0  0  0  0  0
  -22.3734  -10.9524   19.5944 H   0  0  0  0  0  0
  -21.1910   -7.6141   23.9769 H   0  0  0  0  0  0
  -21.1478   -6.0512   25.9132 H   0  0  0  0  0  0
  -22.0593   -2.7609   23.2829 H   0  0  0  0  0  0
  -21.1200  -13.1103   22.2802 H   0  0  0  0  0  0
  -22.4319  -11.9940   22.5039 H   0  0  0  0  0  0
  -24.6525  -15.8315   20.4942 H   0  0  0  0  0  0
  -26.2704  -15.6189   20.0520 H   0  0  0  0  0  0
  -26.7051  -32.5558   23.1132 H   0  0  0  0  0  0
  -25.0046  -33.9757   25.0492 H   0  0  0  0  0  0
  -22.6877  -31.3081   21.4144 H   0  0  0  0  0  0
  -23.3739  -35.9674   23.3311 H   0  0  0  0  0  0
  -24.3580  -36.8943   22.2053 H   0  0  0  0  0  0
  -23.7234  -37.6528   23.6660 H   0  0  0  0  0  0
  -26.0117  -31.6128   20.5829 H   0  0  0  0  0  0
  -26.8203  -30.9139   21.9597 H   0  0  0  0  0  0
  -28.1010  -29.1434   21.1428 H   0  0  0  0  0  0
  -26.0488  -25.9784   19.0270 H   0  0  0  0  0  0
  -23.9867  -27.2875   19.0444 H   0  0  0  0  0  0
  -23.6896  -30.5962   19.4040 H   0  0  0  0  0  0
  -22.7345  -29.2292   19.8836 H   0  0  0  0  0  0
  -25.1261  -36.1992   25.0826 H   0  0  0  0  0  0
  -20.9934  -28.3223   24.1438 H   0  0  0  0  0  0
  -20.5586  -26.2249   23.3622 H   0  0  0  0  0  0
  -21.6621  -26.7376   22.1249 H   0  0  0  0  0  0
  -19.6905  -25.6287   21.1222 H   0  0  0  0  0  0
  -19.6715  -27.3199   20.6758 H   0  0  0  0  0  0
  -17.4170  -26.6672   21.4005 H   0  0  0  0  0  0
  -18.0315  -26.0060   22.9002 H   0  0  0  0  0  0
  -19.7923  -30.7220   24.2308 H   0  0  0  0  0  0
  -17.5010  -31.6258   24.5143 H   0  0  0  0  0  0
  -15.5335  -30.2986   23.7627 H   0  0  0  0  0  0
  -15.8663  -28.0822   22.7039 H   0  0  0  0  0  0
  -24.5963  -30.7010   25.7812 H   0  0  0  0  0  0
  -24.8991  -32.2822   26.4944 H   0  0  0  0  0  0
  -25.8179  -30.8817   27.0199 H   0  0  0  0  0  0
  -26.2805  -29.6755   24.1208 H   0  0  0  0  0  0
  -27.4230  -29.7296   25.4426 H   0  0  0  0  0  0
  -27.8568  -30.4355   23.9037 H   0  0  0  0  0  0
  -27.2760  -33.3571   26.2062 H   0  0  0  0  0  0
  -28.3893  -32.6848   25.0243 H   0  0  0  0  0  0
  -28.0806  -31.8372   26.5297 H   0  0  0  0  0  0
  -28.2583  -38.0106   24.7499 H   0  0  0  0  0  0
  -28.1090  -36.2626   24.6273 H   0  0  0  0  0  0
  -27.2301  -37.1431   25.8855 H   0  0  0  0  0  0
  -20.9261  -29.8713   21.6934 H   0  0  0  0  0  0
  -26.0199  -38.2850   24.1472 H   0  0  0  0  0  0
  -30.3569  -18.9591   22.9569 H   0  0  0  0  0  0
  -26.4006  -20.4947   22.3130 H   0  0  0  0  0  0
  -26.1598  -16.5161   24.8584 H   0  0  0  0  0  0
  -26.8400  -15.3570   23.7401 H   0  0  0  0  0  0
  -25.4740  -16.3018   23.2580 H   0  0  0  0  0  0
  -30.0260  -23.8886   23.0162 H   0  0  0  0  0  0
  -28.5144  -24.7787   22.9546 H   0  0  0  0  0  0
  -29.9107  -25.3219   22.0244 H   0  0  0  0  0  0
  -29.4486  -16.7340   25.8895 H   0  0  0  0  0  0
  -29.9878  -15.1177   25.4945 H   0  0  0  0  0  0
  -28.3156  -15.5276   25.3279 H   0  0  0  0  0  0
  -31.3207  -17.5329   24.5035 H   0  0  0  0  0  0
  -31.5353  -17.0795   22.8207 H   0  0  0  0  0  0
  -31.7478  -15.8887   24.0851 H   0  0  0  0  0  0
  -29.9554  -21.0309   21.5396 H   0  0  0  0  0  0
  -29.5912  -21.6250   23.1408 H   0  0  0  0  0  0
  -27.3960  -22.5467   22.3097 H   0  0  0  0  0  0
  -27.7176  -21.8283   20.7500 H   0  0  0  0  0  0
  -27.6159  -23.6577   19.4403 H   0  0  0  0  0  0
  -27.0748  -24.6781   20.7388 H   0  0  0  0  0  0
  -28.4195  -15.0469   22.5209 H   0  0  0  0  0  0
  -29.8226  -14.2551   23.2289 H   0  0  0  0  0  0
  -28.1697  -25.6271   18.4242 H   0  0  0  0  0  0
  -29.6558  -25.3709   19.2674 H   0  0  0  0  0  0
  -29.7865  -23.2965   20.5846 H   0  0  0  0  0  0
  -30.5776  -16.2401   21.3676 H   0  0  0  0  0  0
  1 25  1  0  0  0
  1 30  2  0  0  0
  1 88  1  0  0  0
  2  3  1  0  0  0
  2 25  1  0  0  0
  2 89  1  0  0  0
  2 90  1  0  0  0
  3  4  1  0  0  0
  3 91  1  0  0  0
  3 92  1  0  0  0
  4  5  1  0  0  0
  4 93  1  0  0  0
  4 94  1  0  0  0
  5  6  1  0  0  0
  5 26  1  0  0  0
  5 95  1  0  0  0
  6 25  1  0  0  0
  6 96  1  0  0  0
  6 97  1  0  0  0
  7  8  2  0  0  0
  7 26  1  0  0  0
  7 29  1  0  0  0
  8  9  1  0  0  0
  8 22  1  0  0  0
  9 10  1  0  0  0
  9 27  2  0  0  0
 10 11  2  0  0  0
 10 15  1  0  0  0
 11 12  1  0  0  0
 11 98  1  0  0  0
 12 13  2  0  0  0
 12 99  1  0  0  0
 13 14  1  0  0  0
 13 31  1  0  0  0
 14 15  2  0  0  0
 14100  1  0  0  0
 15101  1  0  0  0
 16 17  2  0  0  0
 16 21  1  0  0  0
 16 31  1  0  0  0
 17 18  1  0  0  0
 17102  1  0  0  0
 18 19  2  0  0  0
 18103  1  0  0  0
 19 20  1  0  0  0
 19 24  1  0  0  0
 20 21  2  0  0  0
 20104  1  0  0  0
 21 23  1  0  0  0
 22 28  1  0  0  0
 22 32  2  0  0  0
 26 27  1  0  0  0
 28105  1  0  0  0
 28106  1  0  0  0
 29107  1  0  0  0
 29108  1  0  0  0
 33 34  1  0  0  0
 33 66  1  0  0  0
 33 70  2  0  0  0
 34 36  1  0  0  0
 34 59  1  0  0  0
 34109  1  0  0  0
 35 44  2  0  0  0
 35 45  1  0  0  0
 35 68  1  0  0  0
 36 56  1  0  0  0
 36110  1  0  0  0
 37 39  1  0  0  0
 37 47  1  0  0  0
 37 66  1  0  0  0
 37111  1  0  0  0
 38 43  2  0  0  0
 38 46  1  0  0  0
 38 47  1  0  0  0
 39 64  1  0  0  0
 39 67  2  0  0  0
 40 52  1  0  0  0
 40 53  2  0  0  0
 40 58  1  0  0  0
 41112  1  0  0  0
 41113  1  0  0  0
 41114  1  0  0  0
 41 48  1  0  0  0
 42 43  1  0  0  0
 42 66  1  0  0  0
 42115  1  0  0  0
 42116  1  0  0  0
 43 44  1  0  0  0
 44117  1  0  0  0
 45 46  2  0  0  0
 45118  1  0  0  0
 46119  1  0  0  0
 47120  1  0  0  0
 47121  1  0  0  0
 48 56  1  0  0  0
 48 65  1  0  0  0
 48122  1  0  0  0
 49 50  1  0  0  0
 49 53  1  0  0  0
 49 64  1  0  0  0
 49123  1  0  0  0
 50 51  1  0  0  0
 50124  1  0  0  0
 50125  1  0  0  0
 51 52  1  0  0  0
 51126  1  0  0  0
 51127  1  0  0  0
 52128  1  0  0  0
 52129  1  0  0  0
 53 54  1  0  0  0
 54 55  2  0  0  0
 54130  1  0  0  0
 55 57  1  0  0  0
 55131  1  0  0  0
 56 69  2  0  0  0
 57 58  2  0  0  0
 57132  1  0  0  0
 58133  1  0  0  0
 59 60  1  0  0  0
 59 61  1  0  0  0
 59 62  1  0  0  0
 60134  1  0  0  0
 60135  1  0  0  0
 60136  1  0  0  0
 61137  1  0  0  0
 61138  1  0  0  0
 61139  1  0  0  0
 62140  1  0  0  0
 62141  1  0  0  0
 62142  1  0  0  0
 63 65  1  0  0  0
 63143  1  0  0  0
 63144  1  0  0  0
 63145  1  0  0  0
 64146  1  0  0  0
 65147  1  0  0  0
 68 84  1  0  0  0
 71 73  2  0  0  0
 71 74  1  0  0  0
 71148  1  0  0  0
 72 73  1  0  0  0
 72 87  2  0  0  0
 72149  1  0  0  0
 73 80  1  0  0  0
 74 75  2  0  0  0
 74 86  1  0  0  0
 75 76  1  0  0  0
 75 87  1  0  0  0
 76150  1  0  0  0
 76151  1  0  0  0
 76152  1  0  0  0
 77153  1  0  0  0
 77154  1  0  0  0
 77155  1  0  0  0
 77 85  1  0  0  0
 78156  1  0  0  0
 78157  1  0  0  0
 78158  1  0  0  0
 78 86  1  0  0  0
 79 86  1  0  0  0
 79159  1  0  0  0
 79160  1  0  0  0
 79161  1  0  0  0
 80 81  1  0  0  0
 80162  1  0  0  0
 80163  1  0  0  0
 81 85  1  0  0  0
 81164  1  0  0  0
 81165  1  0  0  0
 82 84  1  0  0  0
 82 85  1  0  0  0
 82166  1  0  0  0
 82167  1  0  0  0
 83 86  1  0  0  0
 83 88  1  0  0  0
 83168  1  0  0  0
 83169  1  0  0  0
 84170  1  0  0  0
 84171  1  0  0  0
 85172  1  0  0  0
 88173  1  0  0  0
M  ISO  4   1 100  68 101  84 101  88 100
M  END
> <chiral flag>
0

> <version>
0

> <s_m_source_file>
/data/baiqing/PycharmProjects/Reinvent-master-3.2/result/LINK_invent/BTK/process_docking_weight1_custom_sum_contain_oxygen_bond_distance_aromatic_linkinvent_7_9_3/rearranged_h_0085.sdf

> <i_m_source_file_index>
18

> <r_mmod_Potential_Energy-OPLS-2005>
-148.371597290039

> <r_mmod_Stretch_Energy-OPLS-2005>
42.5788192749023

> <r_mmod_Bend_Energy-OPLS-2005>
145.838027954102

> <r_mmod_Torsional_Energy-OPLS-2005>
258.284698486328

> <r_mmod_Improper_Torsional_Energy-OPLS-2005>
6.11540079116821

> <r_mmod_Van_der_Waal_Energy-OPLS-2005>
180.174377441406

> <r_mmod_Electrostatic_Energy-OPLS-2005>
-591.008850097656

> <r_mmod_Solvation_Energy-OPLS-2005>
-202.897857666016

> <b_mmod_Minimization_Converged-OPLS-2005>
0

> <r_mmod_RMS_Derivative-OPLS-2005>
4.31493186950684

$$$$
18
                    3D
 Structure written by MMmdl.
174182  0  0  1  0            999 V2000
  -30.6512  -14.5559   20.5573 C   0  0  0  0  0  0
  -30.4315  -12.3572   19.4243 C   0  0  0  0  0  0
  -29.4952  -12.5103   18.2067 C   0  0  0  0  0  0
  -28.0189  -12.3514   18.6245 C   0  0  0  0  0  0
  -27.6544  -13.2080   19.8668 C   0  0  2  0  0  0
  -28.6998  -13.0165   20.9876 C   0  0  0  0  0  0
  -25.2569  -13.8152   20.5723 C   0  0  0  0  0  0
  -24.1821  -13.0417   20.9203 C   0  0  0  0  0  0
  -24.6382  -11.6887   20.8735 C   0  0  0  0  0  0
  -23.9046  -10.4283   21.0400 C   0  0  0  0  0  0
  -24.3605   -9.4203   21.9174 C   0  0  0  0  0  0
  -23.6286   -8.2224   22.0727 C   0  0  0  0  0  0
  -22.4259   -8.0268   21.3526 C   0  0  0  0  0  0
  -21.9903   -9.0236   20.4619 C   0  0  0  0  0  0
  -22.7217  -10.2130   20.3043 C   0  0  0  0  0  0
  -21.6860   -6.0730   22.5271 C   0  0  0  0  0  0
  -21.4019   -6.5642   23.8209 C   0  0  0  0  0  0
  -21.3657   -5.6796   24.9169 C   0  0  0  0  0  0
  -21.6046   -4.3050   24.7222 C   0  0  0  0  0  0
  -21.8815   -3.8144   23.4343 C   0  0  0  0  0  0
  -21.9207   -4.6965   22.3406 C   0  0  0  0  0  0
  -22.7858  -13.5211   21.1884 C   0  0  0  0  0  0
  -22.1664   -4.2162   21.0977 F   0  0  0  0  0  0
  -21.5637   -3.4534   25.7730 F   0  0  0  0  0  0
  -30.0172  -13.3541   20.4264 N   0  0  0  0  0  0
  -26.2992  -12.9318   20.3345 N   0  0  0  0  0  0
  -25.9301  -11.6473   20.5737 N   0  0  0  0  0  0
  -22.0519  -12.8170   22.0435 N   0  0  0  0  0  0
  -25.4281  -15.1863   20.4147 N   0  0  0  0  0  0
  -31.8035  -14.7445   20.1585 O   0  0  0  0  0  0
  -21.6626   -6.8869   21.4223 O   0  0  0  0  0  0
  -22.3527  -14.5522   20.6751 O   0  0  0  0  0  0
  -24.6184  -31.8633   23.2054 C   0  0  0  0  0  0
  -25.9058  -32.4796   23.8354 C   0  0  1  0  0  0
  -27.2352  -27.3786   20.1257 C   0  0  0  0  0  0
  -25.5896  -33.8606   24.2297 N   0  0  0  0  0  0
  -23.4092  -30.4857   21.5454 C   0  0  2  0  0  0
  -24.8589  -28.9347   20.1234 C   0  0  0  0  0  0
  -22.7416  -29.4659   22.4959 C   0  0  0  0  0  0
  -18.0275  -28.1384   22.8486 C   0  0  0  0  0  0
  -24.1492  -36.7312   23.2643 C   0  0  0  0  0  0
  -25.9421  -30.8129   21.3652 C   0  0  0  0  0  0
  -26.0207  -29.4391   20.7208 C   0  0  0  0  0  0
  -27.2144  -28.6711   20.7132 C   0  0  0  0  0  0
  -26.0578  -26.9008   19.5154 C   0  0  0  0  0  0
  -24.8738  -27.6668   19.5158 C   0  0  0  0  0  0
  -23.6226  -29.8104   20.1638 C   0  0  0  0  0  0
  -25.4113  -36.3113   24.0340 C   0  0  1  0  0  0
  -20.5868  -28.3690   23.1297 C   0  0  2  0  0  0
  -20.6774  -26.9416   22.5420 C   0  0  0  0  0  0
  -19.5753  -26.6388   21.5214 C   0  0  0  0  0  0
  -18.1926  -26.7930   22.1618 C   0  0  0  0  0  0
  -19.1524  -28.8848   23.2893 C   0  0  0  0  0  0
  -18.9458  -30.1447   23.8910 C   0  0  0  0  0  0
  -17.6463  -30.6595   24.0568 C   0  0  0  0  0  0
  -25.9044  -34.9477   23.5123 C   0  0  0  0  0  0
  -16.5352  -29.9101   23.6331 C   0  0  0  0  0  0
  -16.7260  -28.6519   23.0342 C   0  0  0  0  0  0
  -26.4470  -31.6585   25.0694 C   0  0  0  0  0  0
  -25.3727  -31.3702   26.1435 C   0  0  0  0  0  0
  -27.0308  -30.3029   24.6092 C   0  0  0  0  0  0
  -27.6044  -32.4304   25.7457 C   0  0  0  0  0  0
  -27.5581  -37.1808   24.8464 C   0  0  0  0  0  0
  -21.4146  -29.3052   22.3693 N   0  0  0  0  0  0
  -26.4298  -37.3790   23.9411 N   0  0  0  0  0  0
  -24.6744  -31.0695   22.0975 N   0  0  0  0  0  0
  -23.4166  -28.8213   23.3025 O   0  0  0  0  0  0
  -28.4041  -26.6387   20.0437 O   0  0  0  0  0  0
  -26.5609  -34.8924   22.4685 O   0  0  0  0  0  0
  -23.5366  -32.1423   23.7413 O   0  0  0  0  0  0
  -30.1470  -22.6714   19.1046 C   0  0  0  0  0  0
  -31.1370  -21.7444   18.6861 C   0  0  0  0  0  0
  -29.3953  -22.0331   20.0569 C   0  0  0  0  0  0
  -33.6066  -21.5073   18.2705 C   0  0  0  0  0  0
  -32.3652  -23.4128   17.2574 C   0  0  0  0  0  0
  -31.9595  -21.0906   16.4082 C   0  0  0  0  0  0
  -26.9633  -21.7959   20.6633 C   0  0  0  0  0  0
  -28.5608  -22.7653   22.3345 C   0  0  0  0  0  0
  -29.7954  -18.1142   20.4297 C   0  0  0  0  0  0
  -27.8057  -24.1181   20.2952 C   0  0  0  0  0  0
  -29.7322  -19.5632   21.0702 C   0  0  0  0  0  0
  -30.2322  -16.9616   21.4064 C   0  0  0  0  0  0
  -28.5471  -25.4046   20.8024 C   0  0  0  0  0  0
  -32.2529  -21.9298   17.6657 C   0  0  0  0  0  0
  -28.2264  -22.6722   20.8324 C   0  0  0  0  0  0
  -30.9852  -20.5855   19.3022 N   0  0  0  0  0  0
  -29.9405  -20.7206   20.1553 N   0  0  0  0  0  0
  -29.8747  -15.5692   21.0193 N   0  0  0  0  0  0
  -31.4728  -12.4822   19.1200 H   0  0  0  0  0  0
  -30.3593  -11.3514   19.8409 H   0  0  0  0  0  0
  -29.7470  -11.7787   17.4375 H   0  0  0  0  0  0
  -29.6397  -13.4930   17.7538 H   0  0  0  0  0  0
  -27.8491  -11.2961   18.8414 H   0  0  0  0  0  0
  -27.3597  -12.5964   17.7903 H   0  0  0  0  0  0
  -27.6839  -14.2504   19.5454 H   0  0  0  0  0  0
  -28.6987  -11.9808   21.3326 H   0  0  0  0  0  0
  -28.4517  -13.6174   21.8638 H   0  0  0  0  0  0
  -25.2755   -9.5693   22.4741 H   0  0  0  0  0  0
  -24.0028   -7.4609   22.7428 H   0  0  0  0  0  0
  -21.0855   -8.8732   19.8906 H   0  0  0  0  0  0
  -22.3670  -10.9662   19.6138 H   0  0  0  0  0  0
  -21.1985   -7.6146   23.9716 H   0  0  0  0  0  0
  -21.1490   -6.0522   25.9086 H   0  0  0  0  0  0
  -22.0600   -2.7611   23.2832 H   0  0  0  0  0  0
  -22.4170  -11.9841   22.4814 H   0  0  0  0  0  0
  -21.1104  -13.1138   22.2618 H   0  0  0  0  0  0
  -24.6601  -15.8392   20.5269 H   0  0  0  0  0  0
  -26.2770  -15.6293   20.0848 H   0  0  0  0  0  0
  -26.7116  -32.5505   23.1106 H   0  0  0  0  0  0
  -25.0032  -33.9755   25.0431 H   0  0  0  0  0  0
  -22.7020  -31.3055   21.4007 H   0  0  0  0  0  0
  -23.3753  -35.9643   23.3310 H   0  0  0  0  0  0
  -24.3591  -36.8916   22.2057 H   0  0  0  0  0  0
  -23.7242  -37.6516   23.6651 H   0  0  0  0  0  0
  -26.0573  -31.5712   20.5890 H   0  0  0  0  0  0
  -26.8296  -30.8727   21.9842 H   0  0  0  0  0  0
  -28.1176  -29.0657   21.1587 H   0  0  0  0  0  0
  -26.0582  -25.9401   19.0211 H   0  0  0  0  0  0
  -23.9837  -27.2738   19.0440 H   0  0  0  0  0  0
  -23.7363  -30.5830   19.4027 H   0  0  0  0  0  0
  -22.7442  -29.2348   19.8648 H   0  0  0  0  0  0
  -25.1295  -36.1973   25.0831 H   0  0  0  0  0  0
  -20.9965  -28.3273   24.1416 H   0  0  0  0  0  0
  -20.5696  -26.2297   23.3617 H   0  0  0  0  0  0
  -21.6647  -26.7473   22.1202 H   0  0  0  0  0  0
  -19.6938  -25.6303   21.1236 H   0  0  0  0  0  0
  -19.6703  -27.3210   20.6749 H   0  0  0  0  0  0
  -17.4208  -26.6666   21.4010 H   0  0  0  0  0  0
  -18.0333  -26.0072   22.9012 H   0  0  0  0  0  0
  -19.7932  -30.7245   24.2295 H   0  0  0  0  0  0
  -17.5024  -31.6274   24.5161 H   0  0  0  0  0  0
  -15.5357  -30.3009   23.7652 H   0  0  0  0  0  0
  -15.8652  -28.0844   22.7051 H   0  0  0  0  0  0
  -24.5895  -30.7062   25.7758 H   0  0  0  0  0  0
  -24.8929  -32.2864   26.4892 H   0  0  0  0  0  0
  -25.8066  -30.8852   27.0192 H   0  0  0  0  0  0
  -26.2860  -29.6780   24.1160 H   0  0  0  0  0  0
  -27.4085  -29.7274   25.4550 H   0  0  0  0  0  0
  -27.8685  -30.4336   23.9243 H   0  0  0  0  0  0
  -27.2671  -33.3602   26.2054 H   0  0  0  0  0  0
  -28.3847  -32.6868   25.0278 H   0  0  0  0  0  0
  -28.0725  -31.8417   26.5360 H   0  0  0  0  0  0
  -28.2609  -38.0093   24.7514 H   0  0  0  0  0  0
  -28.1065  -36.2634   24.6293 H   0  0  0  0  0  0
  -27.2303  -37.1463   25.8864 H   0  0  0  0  0  0
  -20.9312  -29.8757   21.6896 H   0  0  0  0  0  0
  -26.0194  -38.2872   24.1387 H   0  0  0  0  0  0
  -30.0291  -23.6877   18.7593 H   0  0  0  0  0  0
  -33.8191  -22.0548   19.1888 H   0  0  0  0  0  0
  -34.4259  -21.6925   17.5755 H   0  0  0  0  0  0
  -33.6216  -20.4445   18.5161 H   0  0  0  0  0  0
  -32.5573  -24.0438   18.1255 H   0  0  0  0  0  0
  -31.4506  -23.7723   16.7861 H   0  0  0  0  0  0
  -33.1792  -23.5773   16.5510 H   0  0  0  0  0  0
  -31.9049  -20.0280   16.6479 H   0  0  0  0  0  0
  -32.7375  -21.2175   15.6546 H   0  0  0  0  0  0
  -31.0091  -21.3765   15.9568 H   0  0  0  0  0  0
  -27.1001  -20.7703   20.9963 H   0  0  0  0  0  0
  -26.6508  -21.7503   19.6188 H   0  0  0  0  0  0
  -26.1256  -22.1925   21.2363 H   0  0  0  0  0  0
  -28.7197  -21.7827   22.7756 H   0  0  0  0  0  0
  -27.7608  -23.2496   22.8954 H   0  0  0  0  0  0
  -29.4717  -23.3394   22.5048 H   0  0  0  0  0  0
  -30.4941  -18.0972   19.5936 H   0  0  0  0  0  0
  -28.8213  -17.8902   19.9941 H   0  0  0  0  0  0
  -27.7991  -24.1059   19.2062 H   0  0  0  0  0  0
  -26.7635  -24.2853   20.5656 H   0  0  0  0  0  0
  -30.5236  -19.6306   21.8171 H   0  0  0  0  0  0
  -28.8046  -19.6839   21.6242 H   0  0  0  0  0  0
  -29.7535  -17.1335   22.3704 H   0  0  0  0  0  0
  -31.3038  -17.0266   21.6023 H   0  0  0  0  0  0
  -29.6150  -25.1903   20.8083 H   0  0  0  0  0  0
  -28.2852  -25.6039   21.8426 H   0  0  0  0  0  0
  -28.9289  -15.2911   21.2381 H   0  0  0  0  0  0
  1 25  1  0  0  0
  1 30  2  0  0  0
  1 88  1  0  0  0
  2  3  1  0  0  0
  2 25  1  0  0  0
  2 89  1  0  0  0
  2 90  1  0  0  0
  3  4  1  0  0  0
  3 91  1  0  0  0
  3 92  1  0  0  0
  4  5  1  0  0  0
  4 93  1  0  0  0
  4 94  1  0  0  0
  5  6  1  0  0  0
  5 26  1  0  0  0
  5 95  1  0  0  0
  6 25  1  0  0  0
  6 96  1  0  0  0
  6 97  1  0  0  0
  7  8  2  0  0  0
  7 26  1  0  0  0
  7 29  1  0  0  0
  8  9  1  0  0  0
  8 22  1  0  0  0
  9 10  1  0  0  0
  9 27  2  0  0  0
 10 11  2  0  0  0
 10 15  1  0  0  0
 11 12  1  0  0  0
 11 98  1  0  0  0
 12 13  2  0  0  0
 12 99  1  0  0  0
 13 14  1  0  0  0
 13 31  1  0  0  0
 14 15  2  0  0  0
 14100  1  0  0  0
 15101  1  0  0  0
 16 17  2  0  0  0
 16 21  1  0  0  0
 16 31  1  0  0  0
 17 18  1  0  0  0
 17102  1  0  0  0
 18 19  2  0  0  0
 18103  1  0  0  0
 19 20  1  0  0  0
 19 24  1  0  0  0
 20 21  2  0  0  0
 20104  1  0  0  0
 21 23  1  0  0  0
 22 28  1  0  0  0
 22 32  2  0  0  0
 26 27  1  0  0  0
 28105  1  0  0  0
 28106  1  0  0  0
 29107  1  0  0  0
 29108  1  0  0  0
 33 34  1  0  0  0
 33 66  1  0  0  0
 33 70  2  0  0  0
 34 36  1  0  0  0
 34 59  1  0  0  0
 34109  1  0  0  0
 35 44  2  0  0  0
 35 45  1  0  0  0
 35 68  1  0  0  0
 36 56  1  0  0  0
 36110  1  0  0  0
 37 39  1  0  0  0
 37 47  1  0  0  0
 37 66  1  0  0  0
 37111  1  0  0  0
 38 43  2  0  0  0
 38 46  1  0  0  0
 38 47  1  0  0  0
 39 64  1  0  0  0
 39 67  2  0  0  0
 40 52  1  0  0  0
 40 53  2  0  0  0
 40 58  1  0  0  0
 41112  1  0  0  0
 41113  1  0  0  0
 41114  1  0  0  0
 41 48  1  0  0  0
 42 43  1  0  0  0
 42 66  1  0  0  0
 42115  1  0  0  0
 42116  1  0  0  0
 43 44  1  0  0  0
 44117  1  0  0  0
 45 46  2  0  0  0
 45118  1  0  0  0
 46119  1  0  0  0
 47120  1  0  0  0
 47121  1  0  0  0
 48 56  1  0  0  0
 48 65  1  0  0  0
 48122  1  0  0  0
 49 50  1  0  0  0
 49 53  1  0  0  0
 49 64  1  0  0  0
 49123  1  0  0  0
 50 51  1  0  0  0
 50124  1  0  0  0
 50125  1  0  0  0
 51 52  1  0  0  0
 51126  1  0  0  0
 51127  1  0  0  0
 52128  1  0  0  0
 52129  1  0  0  0
 53 54  1  0  0  0
 54 55  2  0  0  0
 54130  1  0  0  0
 55 57  1  0  0  0
 55131  1  0  0  0
 56 69  2  0  0  0
 57 58  2  0  0  0
 57132  1  0  0  0
 58133  1  0  0  0
 59 60  1  0  0  0
 59 61  1  0  0  0
 59 62  1  0  0  0
 60134  1  0  0  0
 60135  1  0  0  0
 60136  1  0  0  0
 61137  1  0  0  0
 61138  1  0  0  0
 61139  1  0  0  0
 62140  1  0  0  0
 62141  1  0  0  0
 62142  1  0  0  0
 63 65  1  0  0  0
 63143  1  0  0  0
 63144  1  0  0  0
 63145  1  0  0  0
 64146  1  0  0  0
 65147  1  0  0  0
 68 83  1  0  0  0
 71 72  1  0  0  0
 71 73  2  0  0  0
 71148  1  0  0  0
 72 84  1  0  0  0
 72 86  2  0  0  0
 73 85  1  0  0  0
 73 87  1  0  0  0
 74149  1  0  0  0
 74150  1  0  0  0
 74151  1  0  0  0
 74 84  1  0  0  0
 75 84  1  0  0  0
 75152  1  0  0  0
 75153  1  0  0  0
 75154  1  0  0  0
 76 84  1  0  0  0
 76155  1  0  0  0
 76156  1  0  0  0
 76157  1  0  0  0
 77158  1  0  0  0
 77159  1  0  0  0
 77160  1  0  0  0
 77 85  1  0  0  0
 78 85  1  0  0  0
 78161  1  0  0  0
 78162  1  0  0  0
 78163  1  0  0  0
 79 81  1  0  0  0
 79 82  1  0  0  0
 79164  1  0  0  0
 79165  1  0  0  0
 80 83  1  0  0  0
 80 85  1  0  0  0
 80166  1  0  0  0
 80167  1  0  0  0
 81 87  1  0  0  0
 81168  1  0  0  0
 81169  1  0  0  0
 82 88  1  0  0  0
 82170  1  0  0  0
 82171  1  0  0  0
 83172  1  0  0  0
 83173  1  0  0  0
 86 87  1  0  0  0
 88174  1  0  0  0
M  ISO  4   1 100  68 101  83 101  88 100
M  END
> <chiral flag>
0

> <version>
0

> <s_m_source_file>
/data/baiqing/PycharmProjects/Reinvent-master-3.2/result/LINK_invent/BTK/process_docking_weight1_custom_sum_contain_oxygen_bond_distance_aromatic_linkinvent_7_9_3/rearranged_h_0085.sdf

> <i_m_source_file_index>
19

> <r_mmod_Potential_Energy-OPLS-2005>
-54.8357696533203

> <r_mmod_Stretch_Energy-OPLS-2005>
62.5250511169434

> <r_mmod_Bend_Energy-OPLS-2005>
148.439117431641

> <r_mmod_Torsional_Energy-OPLS-2005>
237.694564819336

> <r_mmod_Improper_Torsional_Energy-OPLS-2005>
4.13374376296997

> <r_mmod_Van_der_Waal_Energy-OPLS-2005>
123.317886352539

> <r_mmod_Electrostatic_Energy-OPLS-2005>
-448.044494628906

> <r_mmod_Solvation_Energy-OPLS-2005>
-206.194137573242

> <b_mmod_Minimization_Converged-OPLS-2005>
0

> <r_mmod_RMS_Derivative-OPLS-2005>
2.78153252601624

$$$$
19
                    3D
 Structure written by MMmdl.
149157  0  0  1  0            999 V2000
  -29.7301  -14.4298   20.6011 C   0  0  0  0  0  0
  -30.4880  -12.3629   19.4037 C   0  0  0  0  0  0
  -29.5474  -12.2376   18.1494 C   0  0  0  0  0  0
  -28.0491  -11.8589   18.4988 C   0  0  0  0  0  0
  -27.6787  -12.6339   19.7420 C   0  0  2  0  0  0
  -28.6485  -12.3828   20.9162 C   0  0  0  0  0  0
  -25.7878  -14.4533   20.6032 C   0  0  0  0  0  0
  -24.5329  -13.5819   20.9041 C   0  0  0  0  0  0
  -24.6807  -12.0801   20.8636 C   0  0  0  0  0  0
  -23.9017  -10.7268   21.0574 C   0  0  0  0  0  0
  -24.3670   -9.6587   21.9020 C   0  0  0  0  0  0
  -23.6809   -8.4105   22.0593 C   0  0  0  0  0  0
  -22.4808   -8.1496   21.3554 C   0  0  0  0  0  0
  -22.0381   -9.1585   20.4729 C   0  0  0  0  0  0
  -22.7263  -10.3972   20.3262 C   0  0  0  0  0  0
  -21.7370   -6.1281   22.5160 C   0  0  0  0  0  0
  -21.4396   -6.5995   23.8147 C   0  0  0  0  0  0
  -21.3783   -5.7036   24.9040 C   0  0  0  0  0  0
  -21.6018   -4.3279   24.7049 C   0  0  0  0  0  0
  -21.8767   -3.8467   23.4136 C   0  0  0  0  0  0
  -21.9349   -4.7392   22.3252 C   0  0  0  0  0  0
  -23.0620  -13.9167   21.1845 C   0  0  0  0  0  0
  -22.1735   -4.2502   21.0844 F   0  0  0  0  0  0
  -21.5529   -3.4693   25.7521 F   0  0  0  0  0  0
  -29.8208  -13.0909   20.5097 N   0  0  0  0  0  0
  -26.3722  -13.0883   20.1973 N   0  0  0  0  0  0
  -25.8493  -11.8806   20.4662 N   0  0  0  0  0  0
  -22.3357  -13.1253   21.9980 N   0  0  0  0  0  0
  -27.0402  -16.8502   20.7935 N   0  0  0  0  0  0
  -30.7772  -15.0756   20.3192 O   0  0  0  0  0  0
  -21.7504   -6.9672   21.4167 O   0  0  0  0  0  0
  -22.4956  -14.8348   20.6104 O   0  0  0  0  0  0
  -24.6739  -31.8173   23.1735 C   0  0  0  0  0  0
  -25.9410  -32.4531   23.8158 C   0  0  1  0  0  0
  -26.7970  -26.6572   20.2680 C   0  0  0  0  0  0
  -25.6055  -33.8367   24.2036 N   0  0  0  0  0  0
  -23.4731  -30.4593   21.5308 C   0  0  2  0  0  0
  -24.8539  -28.8426   20.0819 C   0  0  0  0  0  0
  -22.7660  -29.4459   22.4714 C   0  0  0  0  0  0
  -18.0326  -28.1413   22.8467 C   0  0  0  0  0  0
  -24.1495  -36.7180   23.2632 C   0  0  0  0  0  0
  -26.0519  -30.5302   21.4397 C   0  0  0  0  0  0
  -26.0404  -29.1086   20.7759 C   0  0  0  0  0  0
  -27.0417  -28.0230   20.8449 C   0  0  0  0  0  0
  -25.6881  -26.6324   19.4340 C   0  0  0  0  0  0
  -24.7256  -27.6491   19.3697 C   0  0  0  0  0  0
  -23.6991  -29.8319   20.1331 C   0  0  0  0  0  0
  -25.4142  -36.2939   24.0279 C   0  0  1  0  0  0
  -20.5957  -28.3761   23.1158 C   0  0  2  0  0  0
  -20.6815  -26.9439   22.5385 C   0  0  0  0  0  0
  -19.5771  -26.6370   21.5222 C   0  0  0  0  0  0
  -18.1954  -26.7944   22.1629 C   0  0  0  0  0  0
  -19.1591  -28.8909   23.2804 C   0  0  0  0  0  0
  -18.9495  -30.1501   23.8837 C   0  0  0  0  0  0
  -17.6484  -30.6596   24.0559 C   0  0  0  0  0  0
  -25.9137  -34.9326   23.4976 C   0  0  0  0  0  0
  -16.5377  -29.9081   23.6354 C   0  0  0  0  0  0
  -16.7307  -28.6508   23.0364 C   0  0  0  0  0  0
  -26.4594  -31.6553   25.0763 C   0  0  0  0  0  0
  -25.3655  -31.3878   26.1377 C   0  0  0  0  0  0
  -27.0525  -30.2895   24.6668 C   0  0  0  0  0  0
  -27.6064  -32.4400   25.7553 C   0  0  0  0  0  0
  -27.5594  -37.1728   24.8429 C   0  0  0  0  0  0
  -21.4330  -29.3054   22.3484 N   0  0  0  0  0  0
  -26.4259  -37.3711   23.9434 N   0  0  0  0  0  0
  -24.7600  -30.9714   22.0961 N   0  0  0  0  0  0
  -23.4218  -28.7975   23.2911 O   0  0  0  0  0  0
  -27.4052  -25.2834   20.3715 O   0  0  0  0  0  0
  -26.5743  -34.8873   22.4571 O   0  0  0  0  0  0
  -23.5805  -32.1263   23.6777 O   0  0  0  0  0  0
  -27.1352  -15.1996   22.3039 C   0  0  0  0  0  0
  -27.2423  -15.4358   19.0836 C   0  0  0  0  0  0
  -28.1532  -14.9219   20.7034 C   0  0  0  0  0  0
  -24.8338  -16.7356   20.6520 C   0  0  0  0  0  0
  -24.7890  -18.5978   20.5615 C   0  0  0  0  0  0
  -25.9055  -20.1600   20.7612 C   0  0  0  0  0  0
  -26.0343  -22.0150   20.2213 C   0  0  0  0  0  0
  -26.6955  -23.7336   20.7997 C   0  0  0  0  0  0
  -25.4879  -16.0831   22.2042 N   0  0  0  0  0  0
  -25.6187  -16.2523   19.1478 N   0  0  0  0  0  0
  -31.4226  -12.8520   19.1234 H   0  0  0  0  0  0
  -30.7687  -11.3672   19.7526 H   0  0  0  0  0  0
  -29.9565  -11.5057   17.4522 H   0  0  0  0  0  0
  -29.5681  -13.1862   17.6076 H   0  0  0  0  0  0
  -27.9707  -10.7917   18.7065 H   0  0  0  0  0  0
  -27.3819  -12.0560   17.6558 H   0  0  0  0  0  0
  -27.9595  -13.3843   19.0688 H   0  0  0  0  0  0
  -28.8460  -11.3149   21.0208 H   0  0  0  0  0  0
  -28.2745  -12.6901   21.8950 H   0  0  0  0  0  0
  -25.2837   -9.8130   22.4537 H   0  0  0  0  0  0
  -24.0930   -7.6631   22.7220 H   0  0  0  0  0  0
  -21.1434   -8.9885   19.8909 H   0  0  0  0  0  0
  -22.3326  -11.1278   19.6333 H   0  0  0  0  0  0
  -21.2565   -7.6517   23.9773 H   0  0  0  0  0  0
  -21.1586   -6.0729   25.8953 H   0  0  0  0  0  0
  -22.0361   -2.7915   23.2535 H   0  0  0  0  0  0
  -22.7488  -12.3399   22.4784 H   0  0  0  0  0  0
  -21.3564  -13.3252   22.1437 H   0  0  0  0  0  0
  -26.4351  -17.0403   21.6108 H   0  0  0  0  0  0
  -26.5727  -17.1957   19.9452 H   0  0  0  0  0  0
  -26.7437  -32.4932   23.0801 H   0  0  0  0  0  0
  -25.0176  -33.9440   25.0169 H   0  0  0  0  0  0
  -22.7945  -31.3036   21.3922 H   0  0  0  0  0  0
  -23.3814  -35.9446   23.3154 H   0  0  0  0  0  0
  -24.3590  -36.8984   22.2078 H   0  0  0  0  0  0
  -23.7171  -37.6283   23.6791 H   0  0  0  0  0  0
  -26.2837  -31.2551   20.6586 H   0  0  0  0  0  0
  -26.9029  -30.5565   22.1069 H   0  0  0  0  0  0
  -27.9213  -28.1720   21.4566 H   0  0  0  0  0  0
  -25.4674  -25.7138   18.9093 H   0  0  0  0  0  0
  -23.8327  -27.4699   18.7885 H   0  0  0  0  0  0
  -23.9126  -30.6249   19.4149 H   0  0  0  0  0  0
  -22.7833  -29.3547   19.7792 H   0  0  0  0  0  0
  -25.1331  -36.1710   25.0766 H   0  0  0  0  0  0
  -21.0057  -28.3383   24.1280 H   0  0  0  0  0  0
  -20.5733  -26.2381   23.3635 H   0  0  0  0  0  0
  -21.6673  -26.7436   22.1170 H   0  0  0  0  0  0
  -19.6919  -25.6266   21.1294 H   0  0  0  0  0  0
  -19.6701  -27.3150   20.6732 H   0  0  0  0  0  0
  -17.4229  -26.6703   21.4026 H   0  0  0  0  0  0
  -18.0326  -26.0104   22.9040 H   0  0  0  0  0  0
  -19.7968  -30.7342   24.2171 H   0  0  0  0  0  0
  -17.5030  -31.6265   24.5174 H   0  0  0  0  0  0
  -15.5371  -30.2952   23.7712 H   0  0  0  0  0  0
  -15.8717  -28.0802   22.7102 H   0  0  0  0  0  0
  -24.5820  -30.7272   25.7650 H   0  0  0  0  0  0
  -24.8872  -32.3116   26.4642 H   0  0  0  0  0  0
  -25.7795  -30.9110   27.0268 H   0  0  0  0  0  0
  -26.3233  -29.6485   24.1710 H   0  0  0  0  0  0
  -27.3992  -29.7381   25.5415 H   0  0  0  0  0  0
  -27.9208  -30.4033   24.0179 H   0  0  0  0  0  0
  -27.2631  -33.3764   26.1961 H   0  0  0  0  0  0
  -28.3945  -32.6862   25.0427 H   0  0  0  0  0  0
  -28.0655  -31.8655   26.5606 H   0  0  0  0  0  0
  -28.2453  -38.0177   24.7683 H   0  0  0  0  0  0
  -28.1251  -36.2719   24.5997 H   0  0  0  0  0  0
  -27.2339  -37.1046   25.8823 H   0  0  0  0  0  0
  -20.9563  -29.8799   21.6674 H   0  0  0  0  0  0
  -26.0084  -38.2730   24.1564 H   0  0  0  0  0  0
  -27.5155  -14.9396   23.2790 H   0  0  0  0  0  0
  -27.7037  -15.3373   18.1110 H   0  0  0  0  0  0
  -23.9148  -18.8287   21.1694 H   0  0  0  0  0  0
  -24.4162  -18.7252   19.5454 H   0  0  0  0  0  0
  -26.8662  -19.7830   20.4070 H   0  0  0  0  0  0
  -26.0522  -20.2002   21.8404 H   0  0  0  0  0  0
  -24.9953  -22.2549   19.9923 H   0  0  0  0  0  0
  -26.4799  -21.9251   19.2299 H   0  0  0  0  0  0
  -27.4504  -23.4167   21.5195 H   0  0  0  0  0  0
  -25.8825  -24.0789   21.4395 H   0  0  0  0  0  0
  1 25  1  0  0  0
  1 30  2  0  0  0
  1 73  1  0  0  0
  2  3  1  0  0  0
  2 25  1  0  0  0
  2 81  1  0  0  0
  2 82  1  0  0  0
  3  4  1  0  0  0
  3 83  1  0  0  0
  3 84  1  0  0  0
  4  5  1  0  0  0
  4 85  1  0  0  0
  4 86  1  0  0  0
  5  6  1  0  0  0
  5 26  1  0  0  0
  5 87  1  0  0  0
  6 25  1  0  0  0
  6 88  1  0  0  0
  6 89  1  0  0  0
  7  8  2  0  0  0
  7 26  1  0  0  0
  7 29  1  0  0  0
  8  9  1  0  0  0
  8 22  1  0  0  0
  9 10  1  0  0  0
  9 27  2  0  0  0
 10 11  2  0  0  0
 10 15  1  0  0  0
 11 12  1  0  0  0
 11 90  1  0  0  0
 12 13  2  0  0  0
 12 91  1  0  0  0
 13 14  1  0  0  0
 13 31  1  0  0  0
 14 15  2  0  0  0
 14 92  1  0  0  0
 15 93  1  0  0  0
 16 17  2  0  0  0
 16 21  1  0  0  0
 16 31  1  0  0  0
 17 18  1  0  0  0
 17 94  1  0  0  0
 18 19  2  0  0  0
 18 95  1  0  0  0
 19 20  1  0  0  0
 19 24  1  0  0  0
 20 21  2  0  0  0
 20 96  1  0  0  0
 21 23  1  0  0  0
 22 28  1  0  0  0
 22 32  2  0  0  0
 26 27  1  0  0  0
 28 97  1  0  0  0
 28 98  1  0  0  0
 29 99  1  0  0  0
 29100  1  0  0  0
 33 34  1  0  0  0
 33 66  1  0  0  0
 33 70  2  0  0  0
 34 36  1  0  0  0
 34 59  1  0  0  0
 34101  1  0  0  0
 35 44  2  0  0  0
 35 45  1  0  0  0
 35 68  1  0  0  0
 36 56  1  0  0  0
 36102  1  0  0  0
 37 39  1  0  0  0
 37 47  1  0  0  0
 37 66  1  0  0  0
 37103  1  0  0  0
 38 43  2  0  0  0
 38 46  1  0  0  0
 38 47  1  0  0  0
 39 64  1  0  0  0
 39 67  2  0  0  0
 40 52  1  0  0  0
 40 53  2  0  0  0
 40 58  1  0  0  0
 41104  1  0  0  0
 41105  1  0  0  0
 41106  1  0  0  0
 41 48  1  0  0  0
 42 43  1  0  0  0
 42 66  1  0  0  0
 42107  1  0  0  0
 42108  1  0  0  0
 43 44  1  0  0  0
 44109  1  0  0  0
 45 46  2  0  0  0
 45110  1  0  0  0
 46111  1  0  0  0
 47112  1  0  0  0
 47113  1  0  0  0
 48 56  1  0  0  0
 48 65  1  0  0  0
 48114  1  0  0  0
 49 50  1  0  0  0
 49 53  1  0  0  0
 49 64  1  0  0  0
 49115  1  0  0  0
 50 51  1  0  0  0
 50116  1  0  0  0
 50117  1  0  0  0
 51 52  1  0  0  0
 51118  1  0  0  0
 51119  1  0  0  0
 52120  1  0  0  0
 52121  1  0  0  0
 53 54  1  0  0  0
 54 55  2  0  0  0
 54122  1  0  0  0
 55 57  1  0  0  0
 55123  1  0  0  0
 56 69  2  0  0  0
 57 58  2  0  0  0
 57124  1  0  0  0
 58125  1  0  0  0
 59 60  1  0  0  0
 59 61  1  0  0  0
 59 62  1  0  0  0
 60126  1  0  0  0
 60127  1  0  0  0
 60128  1  0  0  0
 61129  1  0  0  0
 61130  1  0  0  0
 61131  1  0  0  0
 62132  1  0  0  0
 62133  1  0  0  0
 62134  1  0  0  0
 63 65  1  0  0  0
 63135  1  0  0  0
 63136  1  0  0  0
 63137  1  0  0  0
 64138  1  0  0  0
 65139  1  0  0  0
 68 78  1  0  0  0
 71 73  2  0  0  0
 71 79  1  0  0  0
 71140  1  0  0  0
 72 73  1  0  0  0
 72 80  2  0  0  0
 72141  1  0  0  0
 74 75  1  0  0  0
 74 79  2  0  0  0
 74 80  1  0  0  0
 75 76  1  0  0  0
 75142  1  0  0  0
 75143  1  0  0  0
 76 77  1  0  0  0
 76144  1  0  0  0
 76145  1  0  0  0
 77 78  1  0  0  0
 77146  1  0  0  0
 77147  1  0  0  0
 78148  1  0  0  0
 78149  1  0  0  0
M  ISO  4   1 100  68 101  73 100  78 101
M  END
> <chiral flag>
0

> <version>
0

> <s_m_source_file>
/data/baiqing/PycharmProjects/Reinvent-master-3.2/result/LINK_invent/BTK/process_docking_weight1_custom_sum_contain_oxygen_bond_distance_aromatic_linkinvent_7_9_3/rearranged_h_0085.sdf

> <i_m_source_file_index>
20

> <r_mmod_Potential_Energy-OPLS-2005>
12273.3837890625

> <r_mmod_Stretch_Energy-OPLS-2005>
7280.79443359375

> <r_mmod_Bend_Energy-OPLS-2005>
962.516662597656

> <r_mmod_Torsional_Energy-OPLS-2005>
370.586029052734

> <r_mmod_Improper_Torsional_Energy-OPLS-2005>
44.8813438415527

> <r_mmod_Van_der_Waal_Energy-OPLS-2005>
2871.32275390625

> <r_mmod_Electrostatic_Energy-OPLS-2005>
-709.852416992188

> <r_mmod_Solvation_Energy-OPLS-2005>
-227.209197998047

> <b_mmod_Minimization_Converged-OPLS-2005>
0

> <r_mmod_RMS_Derivative-OPLS-2005>
3.79345393180847

$$$$
20
                    3D
 Structure written by MMmdl.
155163  0  0  1  0            999 V2000
  -30.6562  -14.5505   20.5182 C   0  0  0  0  0  0
  -30.4288  -12.3398   19.4381 C   0  0  0  0  0  0
  -29.5027  -12.4958   18.2123 C   0  0  0  0  0  0
  -28.0221  -12.3516   18.6218 C   0  0  0  0  0  0
  -27.6554  -13.2073   19.8638 C   0  0  2  0  0  0
  -28.6963  -13.0293   20.9907 C   0  0  0  0  0  0
  -25.2582  -13.8167   20.5689 C   0  0  0  0  0  0
  -24.1829  -13.0449   20.9174 C   0  0  0  0  0  0
  -24.6375  -11.6905   20.8719 C   0  0  0  0  0  0
  -23.9051  -10.4292   21.0395 C   0  0  0  0  0  0
  -24.3615   -9.4215   21.9179 C   0  0  0  0  0  0
  -23.6285   -8.2249   22.0757 C   0  0  0  0  0  0
  -22.4267   -8.0288   21.3542 C   0  0  0  0  0  0
  -21.9890   -9.0269   20.4648 C   0  0  0  0  0  0
  -22.7218  -10.2144   20.3046 C   0  0  0  0  0  0
  -21.6865   -6.0738   22.5277 C   0  0  0  0  0  0
  -21.4027   -6.5645   23.8214 C   0  0  0  0  0  0
  -21.3651   -5.6789   24.9175 C   0  0  0  0  0  0
  -21.6033   -4.3048   24.7212 C   0  0  0  0  0  0
  -21.8823   -3.8150   23.4336 C   0  0  0  0  0  0
  -21.9201   -4.6973   22.3393 C   0  0  0  0  0  0
  -22.7859  -13.5257   21.1838 C   0  0  0  0  0  0
  -22.1674   -4.2168   21.0967 F   0  0  0  0  0  0
  -21.5612   -3.4516   25.7720 F   0  0  0  0  0  0
  -30.0190  -13.3469   20.4306 N   0  0  0  0  0  0
  -26.2990  -12.9326   20.3301 N   0  0  0  0  0  0
  -25.9293  -11.6488   20.5720 N   0  0  0  0  0  0
  -22.0495  -12.8254   22.0387 N   0  0  0  0  0  0
  -25.4327  -15.1882   20.4124 N   0  0  0  0  0  0
  -31.8129  -14.7163   20.1256 O   0  0  0  0  0  0
  -21.6643   -6.8879   21.4232 O   0  0  0  0  0  0
  -22.3549  -14.5566   20.6703 O   0  0  0  0  0  0
  -24.6184  -31.8659   23.2083 C   0  0  0  0  0  0
  -25.9059  -32.4818   23.8399 C   0  0  1  0  0  0
  -27.2283  -27.3939   20.1050 C   0  0  0  0  0  0
  -25.5896  -33.8619   24.2325 N   0  0  0  0  0  0
  -23.4115  -30.4888   21.5485 C   0  0  2  0  0  0
  -24.8613  -28.9532   20.1110 C   0  0  0  0  0  0
  -22.7448  -29.4636   22.4949 C   0  0  0  0  0  0
  -18.0280  -28.1395   22.8503 C   0  0  0  0  0  0
  -24.1478  -36.7314   23.2641 C   0  0  0  0  0  0
  -25.9452  -30.8165   21.3734 C   0  0  0  0  0  0
  -26.0225  -29.4485   20.7185 C   0  0  0  0  0  0
  -27.2129  -28.6741   20.7174 C   0  0  0  0  0  0
  -26.0578  -26.9332   19.4696 C   0  0  0  0  0  0
  -24.8748  -27.6961   19.4836 C   0  0  0  0  0  0
  -23.6243  -29.8244   20.1625 C   0  0  0  0  0  0
  -25.4111  -36.3122   24.0338 C   0  0  1  0  0  0
  -20.5880  -28.3688   23.1300 C   0  0  2  0  0  0
  -20.6772  -26.9413   22.5417 C   0  0  0  0  0  0
  -19.5748  -26.6400   21.5214 C   0  0  0  0  0  0
  -18.1928  -26.7942   22.1628 C   0  0  0  0  0  0
  -19.1534  -28.8856   23.2903 C   0  0  0  0  0  0
  -18.9460  -30.1458   23.8914 C   0  0  0  0  0  0
  -17.6456  -30.6595   24.0572 C   0  0  0  0  0  0
  -25.9045  -34.9479   23.5138 C   0  0  0  0  0  0
  -16.5349  -29.9100   23.6324 C   0  0  0  0  0  0
  -16.7267  -28.6519   23.0350 C   0  0  0  0  0  0
  -26.4477  -31.6608   25.0743 C   0  0  0  0  0  0
  -25.3741  -31.3713   26.1494 C   0  0  0  0  0  0
  -27.0319  -30.3042   24.6159 C   0  0  0  0  0  0
  -27.6057  -32.4335   25.7490 C   0  0  0  0  0  0
  -27.5584  -37.1818   24.8472 C   0  0  0  0  0  0
  -21.4169  -29.3037   22.3693 N   0  0  0  0  0  0
  -26.4301  -37.3804   23.9407 N   0  0  0  0  0  0
  -24.6762  -31.0723   22.1008 N   0  0  0  0  0  0
  -23.4193  -28.8174   23.3011 O   0  0  0  0  0  0
  -28.3368  -26.5612   20.1009 O   0  0  0  0  0  0
  -26.5605  -34.8929   22.4700 O   0  0  0  0  0  0
  -23.5363  -32.1428   23.7437 O   0  0  0  0  0  0
  -29.0757  -20.5442   19.7561 C   0  0  0  0  0  0
  -29.1743  -19.5092   20.6608 C   0  0  0  0  0  0
  -27.1113  -25.1863   21.8636 C   0  0  0  0  0  0
  -29.0262  -17.9907   20.4645 C   0  0  0  0  0  0
  -29.3011  -24.2964   20.8503 C   0  0  0  0  0  0
  -28.6415  -23.0913   20.0835 C   0  0  0  0  0  0
  -30.2251  -17.0552   20.8473 C   0  0  0  0  0  0
  -28.4384  -25.5763   21.1723 C   0  0  1  0  0  0
  -29.2049  -20.0943   21.9289 N   0  0  0  0  0  0
  -29.0874  -21.3908   21.8321 N   0  0  0  0  0  0
  -28.9994  -21.7123   20.5167 N   0  0  0  0  0  0
  -29.8773  -15.6036   20.8683 N   0  0  0  0  0  0
  -31.4736  -12.4490   19.1419 H   0  0  0  0  0  0
  -30.3426  -11.3366   19.8592 H   0  0  0  0  0  0
  -29.7543  -11.7532   17.4544 H   0  0  0  0  0  0
  -29.6636  -13.4685   17.7438 H   0  0  0  0  0  0
  -27.8366  -11.2969   18.8297 H   0  0  0  0  0  0
  -27.3767  -12.6126   17.7819 H   0  0  0  0  0  0
  -27.6894  -14.2476   19.5428 H   0  0  0  0  0  0
  -28.6851  -12.0036   21.3637 H   0  0  0  0  0  0
  -28.4539  -13.6576   21.8503 H   0  0  0  0  0  0
  -25.2777   -9.5696   22.4737 H   0  0  0  0  0  0
  -24.0015   -7.4636   22.7461 H   0  0  0  0  0  0
  -21.0830   -8.8772   19.8949 H   0  0  0  0  0  0
  -22.3684  -10.9680   19.6144 H   0  0  0  0  0  0
  -21.2041   -7.6158   23.9726 H   0  0  0  0  0  0
  -21.1461   -6.0512   25.9076 H   0  0  0  0  0  0
  -22.0613   -2.7611   23.2819 H   0  0  0  0  0  0
  -22.4130  -11.9947   22.4802 H   0  0  0  0  0  0
  -21.1113  -13.1287   22.2596 H   0  0  0  0  0  0
  -24.6647  -15.8419   20.5204 H   0  0  0  0  0  0
  -26.2757  -15.6219   20.0590 H   0  0  0  0  0  0
  -26.7129  -32.5511   23.1158 H   0  0  0  0  0  0
  -25.0016  -33.9780   25.0452 H   0  0  0  0  0  0
  -22.7017  -31.3069   21.4087 H   0  0  0  0  0  0
  -23.3741  -35.9649   23.3335 H   0  0  0  0  0  0
  -24.3560  -36.8907   22.2049 H   0  0  0  0  0  0
  -23.7229  -37.6529   23.6634 H   0  0  0  0  0  0
  -26.0704  -31.5825   20.6066 H   0  0  0  0  0  0
  -26.8266  -30.8636   22.0009 H   0  0  0  0  0  0
  -28.1078  -29.0430   21.1984 H   0  0  0  0  0  0
  -26.0561  -25.9659   18.9868 H   0  0  0  0  0  0
  -23.9831  -27.3125   19.0086 H   0  0  0  0  0  0
  -23.7367  -30.6027   19.4066 H   0  0  0  0  0  0
  -22.7467  -29.2497   19.8616 H   0  0  0  0  0  0
  -25.1283  -36.1998   25.0831 H   0  0  0  0  0  0
  -20.9984  -28.3267   24.1417 H   0  0  0  0  0  0
  -20.5688  -26.2287   23.3613 H   0  0  0  0  0  0
  -21.6641  -26.7462   22.1195 H   0  0  0  0  0  0
  -19.6911  -25.6318   21.1225 H   0  0  0  0  0  0
  -19.6684  -27.3229   20.6758 H   0  0  0  0  0  0
  -17.4193  -26.6697   21.4027 H   0  0  0  0  0  0
  -18.0326  -26.0079   22.9019 H   0  0  0  0  0  0
  -19.7931  -30.7276   24.2292 H   0  0  0  0  0  0
  -17.5007  -31.6274   24.5183 H   0  0  0  0  0  0
  -15.5348  -30.3003   23.7644 H   0  0  0  0  0  0
  -15.8670  -28.0842   22.7052 H   0  0  0  0  0  0
  -24.5908  -30.7070   25.7819 H   0  0  0  0  0  0
  -24.8933  -32.2862   26.4969 H   0  0  0  0  0  0
  -25.8094  -30.8858   27.0242 H   0  0  0  0  0  0
  -26.2880  -29.6798   24.1195 H   0  0  0  0  0  0
  -27.4047  -29.7290   25.4648 H   0  0  0  0  0  0
  -27.8734  -30.4346   23.9352 H   0  0  0  0  0  0
  -27.2689  -33.3628   26.2098 H   0  0  0  0  0  0
  -28.3836  -32.6918   25.0289 H   0  0  0  0  0  0
  -28.0766  -31.8453   26.5382 H   0  0  0  0  0  0
  -28.2627  -38.0091   24.7503 H   0  0  0  0  0  0
  -28.1054  -36.2627   24.6315 H   0  0  0  0  0  0
  -27.2300  -37.1490   25.8876 H   0  0  0  0  0  0
  -20.9337  -29.8749   21.6903 H   0  0  0  0  0  0
  -26.0202  -38.2891   24.1399 H   0  0  0  0  0  0
  -28.9668  -20.5469   18.6781 H   0  0  0  0  0  0
  -27.2826  -24.4596   22.6573 H   0  0  0  0  0  0
  -26.3952  -24.7457   21.1707 H   0  0  0  0  0  0
  -26.6296  -26.0471   22.3305 H   0  0  0  0  0  0
  -28.7714  -17.7927   19.4230 H   0  0  0  0  0  0
  -28.1489  -17.6700   21.0283 H   0  0  0  0  0  0
  -30.2119  -24.5973   20.3321 H   0  0  0  0  0  0
  -29.6510  -23.9272   21.8131 H   0  0  0  0  0  0
  -28.8719  -23.1842   19.0218 H   0  0  0  0  0  0
  -27.5573  -23.1565   20.1434 H   0  0  0  0  0  0
  -30.5910  -17.3212   21.8391 H   0  0  0  0  0  0
  -31.0478  -17.2357   20.1534 H   0  0  0  0  0  0
  -29.0088  -26.1145   21.9299 H   0  0  0  0  0  0
  -28.9341  -15.3722   21.1398 H   0  0  0  0  0  0
  1 25  1  0  0  0
  1 30  2  0  0  0
  1 82  1  0  0  0
  2  3  1  0  0  0
  2 25  1  0  0  0
  2 83  1  0  0  0
  2 84  1  0  0  0
  3  4  1  0  0  0
  3 85  1  0  0  0
  3 86  1  0  0  0
  4  5  1  0  0  0
  4 87  1  0  0  0
  4 88  1  0  0  0
  5  6  1  0  0  0
  5 26  1  0  0  0
  5 89  1  0  0  0
  6 25  1  0  0  0
  6 90  1  0  0  0
  6 91  1  0  0  0
  7  8  2  0  0  0
  7 26  1  0  0  0
  7 29  1  0  0  0
  8  9  1  0  0  0
  8 22  1  0  0  0
  9 10  1  0  0  0
  9 27  2  0  0  0
 10 11  2  0  0  0
 10 15  1  0  0  0
 11 12  1  0  0  0
 11 92  1  0  0  0
 12 13  2  0  0  0
 12 93  1  0  0  0
 13 14  1  0  0  0
 13 31  1  0  0  0
 14 15  2  0  0  0
 14 94  1  0  0  0
 15 95  1  0  0  0
 16 17  2  0  0  0
 16 21  1  0  0  0
 16 31  1  0  0  0
 17 18  1  0  0  0
 17 96  1  0  0  0
 18 19  2  0  0  0
 18 97  1  0  0  0
 19 20  1  0  0  0
 19 24  1  0  0  0
 20 21  2  0  0  0
 20 98  1  0  0  0
 21 23  1  0  0  0
 22 28  1  0  0  0
 22 32  2  0  0  0
 26 27  1  0  0  0
 28 99  1  0  0  0
 28100  1  0  0  0
 29101  1  0  0  0
 29102  1  0  0  0
 33 34  1  0  0  0
 33 66  1  0  0  0
 33 70  2  0  0  0
 34 36  1  0  0  0
 34 59  1  0  0  0
 34103  1  0  0  0
 35 44  2  0  0  0
 35 45  1  0  0  0
 35 68  1  0  0  0
 36 56  1  0  0  0
 36104  1  0  0  0
 37 39  1  0  0  0
 37 47  1  0  0  0
 37 66  1  0  0  0
 37105  1  0  0  0
 38 43  2  0  0  0
 38 46  1  0  0  0
 38 47  1  0  0  0
 39 64  1  0  0  0
 39 67  2  0  0  0
 40 52  1  0  0  0
 40 53  2  0  0  0
 40 58  1  0  0  0
 41106  1  0  0  0
 41107  1  0  0  0
 41108  1  0  0  0
 41 48  1  0  0  0
 42 43  1  0  0  0
 42 66  1  0  0  0
 42109  1  0  0  0
 42110  1  0  0  0
 43 44  1  0  0  0
 44111  1  0  0  0
 45 46  2  0  0  0
 45112  1  0  0  0
 46113  1  0  0  0
 47114  1  0  0  0
 47115  1  0  0  0
 48 56  1  0  0  0
 48 65  1  0  0  0
 48116  1  0  0  0
 49 50  1  0  0  0
 49 53  1  0  0  0
 49 64  1  0  0  0
 49117  1  0  0  0
 50 51  1  0  0  0
 50118  1  0  0  0
 50119  1  0  0  0
 51 52  1  0  0  0
 51120  1  0  0  0
 51121  1  0  0  0
 52122  1  0  0  0
 52123  1  0  0  0
 53 54  1  0  0  0
 54 55  2  0  0  0
 54124  1  0  0  0
 55 57  1  0  0  0
 55125  1  0  0  0
 56 69  2  0  0  0
 57 58  2  0  0  0
 57126  1  0  0  0
 58127  1  0  0  0
 59 60  1  0  0  0
 59 61  1  0  0  0
 59 62  1  0  0  0
 60128  1  0  0  0
 60129  1  0  0  0
 60130  1  0  0  0
 61131  1  0  0  0
 61132  1  0  0  0
 61133  1  0  0  0
 62134  1  0  0  0
 62135  1  0  0  0
 62136  1  0  0  0
 63 65  1  0  0  0
 63137  1  0  0  0
 63138  1  0  0  0
 63139  1  0  0  0
 64140  1  0  0  0
 65141  1  0  0  0
 68 78  1  0  0  0
 71 72  2  0  0  0
 71 81  1  0  0  0
 71142  1  0  0  0
 72 74  1  0  0  0
 72 79  1  0  0  0
 73143  1  0  0  0
 73144  1  0  0  0
 73145  1  0  0  0
 73 78  1  0  0  0
 74 77  1  0  0  0
 74146  1  0  0  0
 74147  1  0  0  0
 75 76  1  0  0  0
 75 78  1  0  0  0
 75148  1  0  0  0
 75149  1  0  0  0
 76 81  1  0  0  0
 76150  1  0  0  0
 76151  1  0  0  0
 77 82  1  0  0  0
 77152  1  0  0  0
 77153  1  0  0  0
 78154  1  0  0  0
 79 80  2  0  0  0
 80 81  1  0  0  0
 82155  1  0  0  0
M  ISO  4   1 100  68 101  78 101  82 100
M  END
> <chiral flag>
0

> <version>
0

> <s_m_source_file>
/data/baiqing/PycharmProjects/Reinvent-master-3.2/result/LINK_invent/BTK/process_docking_weight1_custom_sum_contain_oxygen_bond_distance_aromatic_linkinvent_7_9_3/rearranged_h_0085.sdf

> <i_m_source_file_index>
21

> <r_mmod_Potential_Energy-OPLS-2005>
-51.4339904785156

> <r_mmod_Stretch_Energy-OPLS-2005>
51.5207366943359

> <r_mmod_Bend_Energy-OPLS-2005>
119.218116760254

> <r_mmod_Torsional_Energy-OPLS-2005>
244.718399047852

> <r_mmod_Improper_Torsional_Energy-OPLS-2005>
6.56606912612915

> <r_mmod_Van_der_Waal_Energy-OPLS-2005>
123.414779663086

> <r_mmod_Electrostatic_Energy-OPLS-2005>
-395.739471435547

> <r_mmod_Solvation_Energy-OPLS-2005>
-226.715072631836

> <b_mmod_Minimization_Converged-OPLS-2005>
0

> <r_mmod_RMS_Derivative-OPLS-2005>
2.27390265464783

$$$$
21
                    3D
 Structure written by MMmdl.
175183  0  0  1  0            999 V2000
  -30.7598  -14.5066   20.5464 C   0  0  0  0  0  0
  -30.4020  -12.3313   19.4254 C   0  0  0  0  0  0
  -29.4762  -12.4949   18.2059 C   0  0  0  0  0  0
  -28.0059  -12.3302   18.6295 C   0  0  0  0  0  0
  -27.6473  -13.1875   19.8690 C   0  0  2  0  0  0
  -28.7066  -13.0335   20.9916 C   0  0  0  0  0  0
  -25.2542  -13.8078   20.5717 C   0  0  0  0  0  0
  -24.1798  -13.0371   20.9231 C   0  0  0  0  0  0
  -24.6345  -11.6844   20.8798 C   0  0  0  0  0  0
  -23.9013  -10.4242   21.0437 C   0  0  0  0  0  0
  -24.3579   -9.4162   21.9209 C   0  0  0  0  0  0
  -23.6259   -8.2202   22.0761 C   0  0  0  0  0  0
  -22.4239   -8.0248   21.3550 C   0  0  0  0  0  0
  -21.9867   -9.0212   20.4644 C   0  0  0  0  0  0
  -22.7192  -10.2094   20.3077 C   0  0  0  0  0  0
  -21.6836   -6.0715   22.5301 C   0  0  0  0  0  0
  -21.4000   -6.5630   23.8228 C   0  0  0  0  0  0
  -21.3657   -5.6798   24.9201 C   0  0  0  0  0  0
  -21.6042   -4.3057   24.7256 C   0  0  0  0  0  0
  -21.8818   -3.8139   23.4379 C   0  0  0  0  0  0
  -21.9187   -4.6947   22.3427 C   0  0  0  0  0  0
  -22.7825  -13.5193   21.1888 C   0  0  0  0  0  0
  -22.1657   -4.2132   21.1001 F   0  0  0  0  0  0
  -21.5619   -3.4539   25.7765 F   0  0  0  0  0  0
  -30.0209  -13.3590   20.4173 N   0  0  0  0  0  0
  -26.2953  -12.9207   20.3419 N   0  0  0  0  0  0
  -25.9268  -11.6393   20.5871 N   0  0  0  0  0  0
  -22.0440  -12.8201   22.0434 N   0  0  0  0  0  0
  -25.4202  -15.1800   20.4086 N   0  0  0  0  0  0
  -31.9103  -14.5435   20.1019 O   0  0  0  0  0  0
  -21.6610   -6.8847   21.4257 O   0  0  0  0  0  0
  -22.3526  -14.5504   20.6729 O   0  0  0  0  0  0
  -24.6124  -31.8687   23.2117 C   0  0  0  0  0  0
  -25.9014  -32.4830   23.8399 C   0  0  1  0  0  0
  -27.2395  -27.4515   20.1042 C   0  0  0  0  0  0
  -25.5876  -33.8626   24.2337 N   0  0  0  0  0  0
  -23.4016  -30.4906   21.5494 C   0  0  2  0  0  0
  -24.8518  -28.9568   20.1134 C   0  0  0  0  0  0
  -22.7400  -29.4661   22.4995 C   0  0  0  0  0  0
  -18.0278  -28.1379   22.8488 C   0  0  0  0  0  0
  -24.1481  -36.7320   23.2641 C   0  0  0  0  0  0
  -25.9276  -30.8374   21.3661 C   0  0  0  0  0  0
  -26.0082  -29.4723   20.7162 C   0  0  0  0  0  0
  -27.2057  -28.7241   20.7142 C   0  0  0  0  0  0
  -26.0758  -26.9472   19.4903 C   0  0  0  0  0  0
  -24.8793  -27.6913   19.4993 C   0  0  0  0  0  0
  -23.6114  -29.8201   20.1650 C   0  0  0  0  0  0
  -25.4098  -36.3120   24.0352 C   0  0  1  0  0  0
  -20.5861  -28.3664   23.1320 C   0  0  2  0  0  0
  -20.6773  -26.9399   22.5421 C   0  0  0  0  0  0
  -19.5750  -26.6389   21.5208 C   0  0  0  0  0  0
  -18.1926  -26.7929   22.1613 C   0  0  0  0  0  0
  -19.1525  -28.8838   23.2905 C   0  0  0  0  0  0
  -18.9450  -30.1446   23.8903 C   0  0  0  0  0  0
  -17.6452  -30.6582   24.0567 C   0  0  0  0  0  0
  -25.9016  -34.9481   23.5138 C   0  0  0  0  0  0
  -16.5349  -29.9079   23.6328 C   0  0  0  0  0  0
  -16.7271  -28.6509   23.0333 C   0  0  0  0  0  0
  -26.4453  -31.6604   25.0714 C   0  0  0  0  0  0
  -25.3740  -31.3703   26.1480 C   0  0  0  0  0  0
  -27.0297  -30.3048   24.6097 C   0  0  0  0  0  0
  -27.6027  -32.4328   25.7471 C   0  0  0  0  0  0
  -27.5592  -37.1795   24.8451 C   0  0  0  0  0  0
  -21.4131  -29.3034   22.3725 N   0  0  0  0  0  0
  -26.4284  -37.3811   23.9430 N   0  0  0  0  0  0
  -24.6647  -31.0798   22.1007 N   0  0  0  0  0  0
  -23.4172  -28.8220   23.3050 O   0  0  0  0  0  0
  -28.3719  -26.6753   20.1196 O   0  0  0  0  0  0
  -26.5595  -34.8927   22.4708 O   0  0  0  0  0  0
  -23.5312  -32.1443   23.7509 O   0  0  0  0  0  0
  -30.7431  -19.1379   21.1058 C   0  0  0  0  0  0
  -30.0837  -19.8843   23.0972 C   0  0  0  0  0  0
  -30.7677  -18.0630   21.9613 C   0  0  0  0  0  0
  -30.3291  -18.5428   23.2361 C   0  0  0  0  0  0
  -28.7883  -17.9215   25.1206 C   0  0  0  0  0  0
  -31.2887  -18.1196   25.5203 C   0  0  0  0  0  0
  -28.2926  -21.2294   19.7295 C   0  0  0  0  0  0
  -27.8546  -22.0888   22.0255 C   0  0  0  0  0  0
  -28.9011  -16.1425   20.7827 C   0  0  0  0  0  0
  -31.2254  -16.6490   21.6099 C   0  0  0  0  0  0
  -29.4429  -24.7145   21.1983 C   0  0  0  0  0  0
  -28.9123  -23.5910   20.2711 C   0  0  0  0  0  0
  -30.2667  -21.6358   21.2696 C   0  0  0  0  0  0
  -28.4945  -25.9242   21.3320 C   0  0  0  0  0  0
  -30.1880  -17.7464   24.5156 C   0  0  0  0  0  0
  -28.8497  -22.1400   20.8459 C   0  0  0  0  0  0
  -30.3391  -20.2669   21.7962 N   0  0  0  0  0  0
  -30.2385  -15.6308   21.1380 N   0  0  0  0  0  0
  -31.4435  -12.3989   19.1074 H   0  0  0  0  0  0
  -30.2987  -11.3335   19.8540 H   0  0  0  0  0  0
  -29.7241  -11.7575   17.4397 H   0  0  0  0  0  0
  -29.6274  -13.4758   17.7519 H   0  0  0  0  0  0
  -27.8399  -11.2738   18.8458 H   0  0  0  0  0  0
  -27.3460  -12.5779   17.7974 H   0  0  0  0  0  0
  -27.6503  -14.2084   19.5066 H   0  0  0  0  0  0
  -28.7113  -12.0068   21.3590 H   0  0  0  0  0  0
  -28.4798  -13.6348   21.8708 H   0  0  0  0  0  0
  -25.2718   -9.5630   22.4787 H   0  0  0  0  0  0
  -23.9955   -7.4582   22.7474 H   0  0  0  0  0  0
  -21.0798   -8.8718   19.8942 H   0  0  0  0  0  0
  -22.3647  -10.9630   19.6189 H   0  0  0  0  0  0
  -21.1989   -7.6134   23.9721 H   0  0  0  0  0  0
  -21.1472   -6.0535   25.9101 H   0  0  0  0  0  0
  -22.0597   -2.7594   23.2907 H   0  0  0  0  0  0
  -22.4029  -11.9880   22.4882 H   0  0  0  0  0  0
  -21.1064  -13.1267   22.2600 H   0  0  0  0  0  0
  -24.6483  -15.8290   20.5103 H   0  0  0  0  0  0
  -26.2752  -15.6259   20.1037 H   0  0  0  0  0  0
  -26.7083  -32.5552   23.1165 H   0  0  0  0  0  0
  -25.0019  -33.9790   25.0476 H   0  0  0  0  0  0
  -22.6901  -31.3070   21.4084 H   0  0  0  0  0  0
  -23.3757  -35.9632   23.3270 H   0  0  0  0  0  0
  -24.3591  -36.8972   22.2062 H   0  0  0  0  0  0
  -23.7194  -37.6499   23.6669 H   0  0  0  0  0  0
  -26.0417  -31.6034   20.5989 H   0  0  0  0  0  0
  -26.8137  -30.8892   21.9877 H   0  0  0  0  0  0
  -28.0965  -29.1126   21.1891 H   0  0  0  0  0  0
  -26.0954  -25.9734   19.0234 H   0  0  0  0  0  0
  -23.9904  -27.2870   19.0339 H   0  0  0  0  0  0
  -23.7180  -30.5938   19.4037 H   0  0  0  0  0  0
  -22.7370  -29.2380   19.8688 H   0  0  0  0  0  0
  -25.1267  -36.1991   25.0847 H   0  0  0  0  0  0
  -20.9957  -28.3222   24.1435 H   0  0  0  0  0  0
  -20.5676  -26.2263   23.3606 H   0  0  0  0  0  0
  -21.6644  -26.7442   22.1206 H   0  0  0  0  0  0
  -19.6913  -25.6302   21.1227 H   0  0  0  0  0  0
  -19.6700  -27.3211   20.6746 H   0  0  0  0  0  0
  -17.4210  -26.6697   21.4005 H   0  0  0  0  0  0
  -18.0309  -26.0059   22.8994 H   0  0  0  0  0  0
  -19.7923  -30.7269   24.2265 H   0  0  0  0  0  0
  -17.5003  -31.6255   24.5166 H   0  0  0  0  0  0
  -15.5348  -30.2982   23.7638 H   0  0  0  0  0  0
  -15.8676  -28.0838   22.7014 H   0  0  0  0  0  0
  -24.5870  -30.7106   25.7810 H   0  0  0  0  0  0
  -24.8989  -32.2866   26.4993 H   0  0  0  0  0  0
  -25.8105  -30.8804   27.0196 H   0  0  0  0  0  0
  -26.2848  -29.6799   24.1156 H   0  0  0  0  0  0
  -27.4075  -29.7290   25.4557 H   0  0  0  0  0  0
  -27.8675  -30.4374   23.9251 H   0  0  0  0  0  0
  -27.2631  -33.3596   26.2113 H   0  0  0  0  0  0
  -28.3795  -32.6956   25.0273 H   0  0  0  0  0  0
  -28.0748  -31.8424   26.5340 H   0  0  0  0  0  0
  -28.2564  -38.0142   24.7579 H   0  0  0  0  0  0
  -28.1145  -36.2678   24.6169 H   0  0  0  0  0  0
  -27.2336  -37.1317   25.8860 H   0  0  0  0  0  0
  -20.9291  -29.8731   21.6932 H   0  0  0  0  0  0
  -26.0180  -38.2887   24.1466 H   0  0  0  0  0  0
  -31.0080  -19.2061   20.0597 H   0  0  0  0  0  0
  -29.7596  -20.6158   23.8262 H   0  0  0  0  0  0
  -28.0203  -17.5947   24.4186 H   0  0  0  0  0  0
  -28.5875  -18.9628   25.3751 H   0  0  0  0  0  0
  -28.6731  -17.3314   26.0301 H   0  0  0  0  0  0
  -32.2791  -17.9396   25.1020 H   0  0  0  0  0  0
  -31.2085  -17.5284   26.4328 H   0  0  0  0  0  0
  -31.2346  -19.1712   25.8016 H   0  0  0  0  0  0
  -27.3152  -21.5712   19.3856 H   0  0  0  0  0  0
  -28.1692  -20.1991   20.0670 H   0  0  0  0  0  0
  -28.9526  -21.2101   18.8619 H   0  0  0  0  0  0
  -26.9028  -22.5509   21.7600 H   0  0  0  0  0  0
  -28.2353  -22.6029   22.9075 H   0  0  0  0  0  0
  -27.6360  -21.0606   22.3198 H   0  0  0  0  0  0
  -28.7314  -17.1936   20.9955 H   0  0  0  0  0  0
  -28.1107  -15.6326   21.3261 H   0  0  0  0  0  0
  -28.7285  -16.0441   19.7110 H   0  0  0  0  0  0
  -31.7486  -16.2382   22.4730 H   0  0  0  0  0  0
  -31.9967  -16.8058   20.8534 H   0  0  0  0  0  0
  -30.4187  -25.0553   20.8477 H   0  0  0  0  0  0
  -29.6213  -24.3234   22.1995 H   0  0  0  0  0  0
  -29.5221  -23.5910   19.3671 H   0  0  0  0  0  0
  -27.9159  -23.8715   19.9271 H   0  0  0  0  0  0
  -30.6875  -22.2960   22.0294 H   0  0  0  0  0  0
  -30.9455  -21.7052   20.4190 H   0  0  0  0  0  0
  -28.8673  -26.5890   22.1129 H   0  0  0  0  0  0
  -27.5194  -25.5665   21.6734 H   0  0  0  0  0  0
  -30.3056  -16.6894   24.2710 H   0  0  0  0  0  0
  1 25  1  0  0  0
  1 30  2  0  0  0
  1 88  1  0  0  0
  2  3  1  0  0  0
  2 25  1  0  0  0
  2 89  1  0  0  0
  2 90  1  0  0  0
  3  4  1  0  0  0
  3 91  1  0  0  0
  3 92  1  0  0  0
  4  5  1  0  0  0
  4 93  1  0  0  0
  4 94  1  0  0  0
  5  6  1  0  0  0
  5 26  1  0  0  0
  5 95  1  0  0  0
  6 25  1  0  0  0
  6 96  1  0  0  0
  6 97  1  0  0  0
  7  8  2  0  0  0
  7 26  1  0  0  0
  7 29  1  0  0  0
  8  9  1  0  0  0
  8 22  1  0  0  0
  9 10  1  0  0  0
  9 27  2  0  0  0
 10 11  2  0  0  0
 10 15  1  0  0  0
 11 12  1  0  0  0
 11 98  1  0  0  0
 12 13  2  0  0  0
 12 99  1  0  0  0
 13 14  1  0  0  0
 13 31  1  0  0  0
 14 15  2  0  0  0
 14100  1  0  0  0
 15101  1  0  0  0
 16 17  2  0  0  0
 16 21  1  0  0  0
 16 31  1  0  0  0
 17 18  1  0  0  0
 17102  1  0  0  0
 18 19  2  0  0  0
 18103  1  0  0  0
 19 20  1  0  0  0
 19 24  1  0  0  0
 20 21  2  0  0  0
 20104  1  0  0  0
 21 23  1  0  0  0
 22 28  1  0  0  0
 22 32  2  0  0  0
 26 27  1  0  0  0
 28105  1  0  0  0
 28106  1  0  0  0
 29107  1  0  0  0
 29108  1  0  0  0
 33 34  1  0  0  0
 33 66  1  0  0  0
 33 70  2  0  0  0
 34 36  1  0  0  0
 34 59  1  0  0  0
 34109  1  0  0  0
 35 44  2  0  0  0
 35 45  1  0  0  0
 35 68  1  0  0  0
 36 56  1  0  0  0
 36110  1  0  0  0
 37 39  1  0  0  0
 37 47  1  0  0  0
 37 66  1  0  0  0
 37111  1  0  0  0
 38 43  2  0  0  0
 38 46  1  0  0  0
 38 47  1  0  0  0
 39 64  1  0  0  0
 39 67  2  0  0  0
 40 52  1  0  0  0
 40 53  2  0  0  0
 40 58  1  0  0  0
 41112  1  0  0  0
 41113  1  0  0  0
 41114  1  0  0  0
 41 48  1  0  0  0
 42 43  1  0  0  0
 42 66  1  0  0  0
 42115  1  0  0  0
 42116  1  0  0  0
 43 44  1  0  0  0
 44117  1  0  0  0
 45 46  2  0  0  0
 45118  1  0  0  0
 46119  1  0  0  0
 47120  1  0  0  0
 47121  1  0  0  0
 48 56  1  0  0  0
 48 65  1  0  0  0
 48122  1  0  0  0
 49 50  1  0  0  0
 49 53  1  0  0  0
 49 64  1  0  0  0
 49123  1  0  0  0
 50 51  1  0  0  0
 50124  1  0  0  0
 50125  1  0  0  0
 51 52  1  0  0  0
 51126  1  0  0  0
 51127  1  0  0  0
 52128  1  0  0  0
 52129  1  0  0  0
 53 54  1  0  0  0
 54 55  2  0  0  0
 54130  1  0  0  0
 55 57  1  0  0  0
 55131  1  0  0  0
 56 69  2  0  0  0
 57 58  2  0  0  0
 57132  1  0  0  0
 58133  1  0  0  0
 59 60  1  0  0  0
 59 61  1  0  0  0
 59 62  1  0  0  0
 60134  1  0  0  0
 60135  1  0  0  0
 60136  1  0  0  0
 61137  1  0  0  0
 61138  1  0  0  0
 61139  1  0  0  0
 62140  1  0  0  0
 62141  1  0  0  0
 62142  1  0  0  0
 63 65  1  0  0  0
 63143  1  0  0  0
 63144  1  0  0  0
 63145  1  0  0  0
 64146  1  0  0  0
 65147  1  0  0  0
 68 84  1  0  0  0
 71 73  2  0  0  0
 71 87  1  0  0  0
 71148  1  0  0  0
 72 74  2  0  0  0
 72 87  1  0  0  0
 72149  1  0  0  0
 73 74  1  0  0  0
 73 80  1  0  0  0
 74 85  1  0  0  0
 75150  1  0  0  0
 75151  1  0  0  0
 75152  1  0  0  0
 75 85  1  0  0  0
 76 85  1  0  0  0
 76153  1  0  0  0
 76154  1  0  0  0
 76155  1  0  0  0
 77156  1  0  0  0
 77157  1  0  0  0
 77158  1  0  0  0
 77 86  1  0  0  0
 78 86  1  0  0  0
 78159  1  0  0  0
 78160  1  0  0  0
 78161  1  0  0  0
 79 88  1  0  0  0
 79162  1  0  0  0
 79163  1  0  0  0
 79164  1  0  0  0
 80 88  1  0  0  0
 80165  1  0  0  0
 80166  1  0  0  0
 81 82  1  0  0  0
 81 84  1  0  0  0
 81167  1  0  0  0
 81168  1  0  0  0
 82 86  1  0  0  0
 82169  1  0  0  0
 82170  1  0  0  0
 83 86  1  0  0  0
 83 87  1  0  0  0
 83171  1  0  0  0
 83172  1  0  0  0
 84173  1  0  0  0
 84174  1  0  0  0
 85175  1  0  0  0
M  ISO  4   1 100  68 101  84 101  88 100
M  END
> <chiral flag>
0

> <version>
0

> <s_m_source_file>
/data/baiqing/PycharmProjects/Reinvent-master-3.2/result/LINK_invent/BTK/process_docking_weight1_custom_sum_contain_oxygen_bond_distance_aromatic_linkinvent_7_9_3/rearranged_h_0085.sdf

> <i_m_source_file_index>
22

> <r_mmod_Potential_Energy-OPLS-2005>
119.634178161621

> <r_mmod_Stretch_Energy-OPLS-2005>
43.4294929504395

> <r_mmod_Bend_Energy-OPLS-2005>
129.681900024414

> <r_mmod_Torsional_Energy-OPLS-2005>
310.219665527344

> <r_mmod_Improper_Torsional_Energy-OPLS-2005>
3.70203065872192

> <r_mmod_Van_der_Waal_Energy-OPLS-2005>
139.43049621582

> <r_mmod_Electrostatic_Energy-OPLS-2005>
-344.148254394531

> <r_mmod_Solvation_Energy-OPLS-2005>
-182.620239257812

> <b_mmod_Minimization_Converged-OPLS-2005>
0

> <r_mmod_RMS_Derivative-OPLS-2005>
2.30356740951538

$$$$
22
                    3D
 Structure written by MMmdl.
151159  0  0  1  0            999 V2000
  -30.3766  -15.4059   20.3358 C   0  0  0  0  0  0
  -30.4300  -12.9033   19.5438 C   0  0  0  0  0  0
  -29.5414  -12.6066   18.3068 C   0  0  0  0  0  0
  -28.0957  -12.3044   18.7326 C   0  0  0  0  0  0
  -27.6035  -13.2886   19.8216 C   0  0  2  0  0  0
  -28.6287  -13.5185   20.9547 C   0  0  0  0  0  0
  -25.2348  -13.8263   20.5767 C   0  0  0  0  0  0
  -24.1719  -13.0436   20.9274 C   0  0  0  0  0  0
  -24.6387  -11.6935   20.8756 C   0  0  0  0  0  0
  -23.9083  -10.4287   21.0389 C   0  0  0  0  0  0
  -24.3628   -9.4208   21.9171 C   0  0  0  0  0  0
  -23.6303   -8.2243   22.0743 C   0  0  0  0  0  0
  -22.4286   -8.0274   21.3536 C   0  0  0  0  0  0
  -21.9922   -9.0241   20.4633 C   0  0  0  0  0  0
  -22.7250  -10.2121   20.3042 C   0  0  0  0  0  0
  -21.6857   -6.0728   22.5279 C   0  0  0  0  0  0
  -21.4015   -6.5632   23.8211 C   0  0  0  0  0  0
  -21.3664   -5.6786   24.9174 C   0  0  0  0  0  0
  -21.6050   -4.3050   24.7226 C   0  0  0  0  0  0
  -21.8817   -3.8139   23.4348 C   0  0  0  0  0  0
  -21.9192   -4.6954   22.3404 C   0  0  0  0  0  0
  -22.7736  -13.5178   21.1920 C   0  0  0  0  0  0
  -22.1663   -4.2140   21.0982 F   0  0  0  0  0  0
  -21.5632   -3.4535   25.7739 F   0  0  0  0  0  0
  -29.8413  -14.0690   20.3227 N   0  0  0  0  0  0
  -26.2775  -12.9559   20.3219 N   0  0  0  0  0  0
  -25.9329  -11.6646   20.5709 N   0  0  0  0  0  0
  -22.0396  -12.8151   22.0470 N   0  0  0  0  0  0
  -25.3972  -15.1999   20.4202 N   0  0  0  0  0  0
  -31.5959  -15.3820   20.0967 O   0  0  0  0  0  0
  -21.6648   -6.8873   21.4241 O   0  0  0  0  0  0
  -22.3414  -14.5483   20.6769 O   0  0  0  0  0  0
  -24.6704  -31.8150   23.1615 C   0  0  0  0  0  0
  -25.9345  -32.4547   23.8120 C   0  0  1  0  0  0
  -27.2106  -26.8209   20.1933 C   0  0  0  0  0  0
  -25.5985  -33.8368   24.2025 N   0  0  0  0  0  0
  -23.4911  -30.4215   21.5149 C   0  0  2  0  0  0
  -24.9449  -28.7903   20.1128 C   0  0  0  0  0  0
  -22.7711  -29.4389   22.4763 C   0  0  0  0  0  0
  -18.0335  -28.1425   22.8478 C   0  0  0  0  0  0
  -24.1493  -36.7179   23.2647 C   0  0  0  0  0  0
  -26.0654  -30.5820   21.4123 C   0  0  0  0  0  0
  -26.1300  -29.1608   20.7583 C   0  0  0  0  0  0
  -27.2523  -28.1985   20.7761 C   0  0  0  0  0  0
  -25.9998  -26.6373   19.4826 C   0  0  0  0  0  0
  -24.9116  -27.5514   19.4537 C   0  0  0  0  0  0
  -23.7365  -29.7315   20.1442 C   0  0  0  0  0  0
  -25.4143  -36.2948   24.0290 C   0  0  1  0  0  0
  -20.5962  -28.3766   23.1187 C   0  0  2  0  0  0
  -20.6810  -26.9437   22.5418 C   0  0  0  0  0  0
  -19.5786  -26.6381   21.5234 C   0  0  0  0  0  0
  -18.1965  -26.7960   22.1634 C   0  0  0  0  0  0
  -19.1595  -28.8919   23.2820 C   0  0  0  0  0  0
  -18.9499  -30.1511   23.8854 C   0  0  0  0  0  0
  -17.6491  -30.6613   24.0559 C   0  0  0  0  0  0
  -25.9115  -34.9334   23.4988 C   0  0  0  0  0  0
  -16.5382  -29.9094   23.6352 C   0  0  0  0  0  0
  -16.7316  -28.6521   23.0375 C   0  0  0  0  0  0
  -26.4569  -31.6526   25.0688 C   0  0  0  0  0  0
  -25.3662  -31.3804   26.1317 C   0  0  0  0  0  0
  -27.0475  -30.2876   24.6491 C   0  0  0  0  0  0
  -27.6049  -32.4341   25.7503 C   0  0  0  0  0  0
  -27.5570  -37.1752   24.8471 C   0  0  0  0  0  0
  -21.4371  -29.3035   22.3510 N   0  0  0  0  0  0
  -26.4280  -37.3687   23.9408 N   0  0  0  0  0  0
  -24.7647  -30.9702   22.0819 N   0  0  0  0  0  0
  -23.4219  -28.7983   23.3055 O   0  0  0  0  0  0
  -28.1690  -25.6431   20.2996 O   0  0  0  0  0  0
  -26.5736  -34.8881   22.4592 O   0  0  0  0  0  0
  -23.5753  -32.1177   23.6639 O   0  0  0  0  0  0
  -28.8392  -21.2416   19.5498 C   0  0  0  0  0  0
  -29.1789  -20.0079   20.3010 C   0  0  0  0  0  0
  -28.6919  -21.9809   21.5602 C   0  0  0  0  0  0
  -28.4883  -22.7561   22.8196 C   0  0  0  0  0  0
  -29.8437  -18.3008   18.4258 C   0  0  0  0  0  0
  -27.8343  -24.0684   19.8956 C   0  0  0  0  0  0
  -29.8278  -18.3543   19.9612 C   0  0  2  0  0  0
  -28.5252  -22.4931   20.3077 N   0  0  0  0  0  0
  -29.0537  -20.6321   21.5456 N   0  3  0  0  0  0
  -29.6158  -16.7156   20.4134 N   0  0  0  0  0  0
  -31.4452  -13.1165   19.2072 H   0  0  0  0  0  0
  -30.5215  -12.0180   20.1749 H   0  0  0  0  0  0
  -29.9485  -11.7726   17.7336 H   0  0  0  0  0  0
  -29.5511  -13.4715   17.6415 H   0  0  0  0  0  0
  -28.0724  -11.2863   19.1230 H   0  0  0  0  0  0
  -27.4297  -12.3191   17.8695 H   0  0  0  0  0  0
  -27.4998  -14.2407   19.2998 H   0  0  0  0  0  0
  -28.8291  -12.6004   21.5102 H   0  0  0  0  0  0
  -28.2397  -14.2377   21.6770 H   0  0  0  0  0  0
  -25.2759   -9.5695   22.4757 H   0  0  0  0  0  0
  -24.0007   -7.4639   22.7472 H   0  0  0  0  0  0
  -21.0847   -8.8756   19.8941 H   0  0  0  0  0  0
  -22.3693  -10.9658   19.6159 H   0  0  0  0  0  0
  -21.2010   -7.6140   23.9712 H   0  0  0  0  0  0
  -21.1492   -6.0517   25.9078 H   0  0  0  0  0  0
  -22.0593   -2.7601   23.2850 H   0  0  0  0  0  0
  -22.4029  -11.9823   22.4863 H   0  0  0  0  0  0
  -21.1003  -13.1143   22.2667 H   0  0  0  0  0  0
  -24.6242  -15.8476   20.5292 H   0  0  0  0  0  0
  -26.2296  -15.6378   20.0480 H   0  0  0  0  0  0
  -26.7419  -32.5052   23.0829 H   0  0  0  0  0  0
  -25.0069  -33.9455   25.0136 H   0  0  0  0  0  0
  -22.8080  -31.2553   21.3371 H   0  0  0  0  0  0
  -23.3780  -35.9486   23.3281 H   0  0  0  0  0  0
  -24.3559  -36.8857   22.2066 H   0  0  0  0  0  0
  -23.7231  -37.6346   23.6726 H   0  0  0  0  0  0
  -26.2589  -31.3125   20.6255 H   0  0  0  0  0  0
  -26.9199  -30.6423   22.0730 H   0  0  0  0  0  0
  -28.1410  -28.4772   21.3250 H   0  0  0  0  0  0
  -25.8437  -25.7003   18.9705 H   0  0  0  0  0  0
  -24.0150  -27.2646   18.9226 H   0  0  0  0  0  0
  -23.9035  -30.4974   19.3865 H   0  0  0  0  0  0
  -22.8427  -29.1949   19.8228 H   0  0  0  0  0  0
  -25.1350  -36.1733   25.0781 H   0  0  0  0  0  0
  -21.0059  -28.3382   24.1312 H   0  0  0  0  0  0
  -20.5705  -26.2390   23.3664 H   0  0  0  0  0  0
  -21.6667  -26.7428   22.1208 H   0  0  0  0  0  0
  -19.6944  -25.6282   21.1295 H   0  0  0  0  0  0
  -19.6720  -27.3164   20.6738 H   0  0  0  0  0  0
  -17.4234  -26.6714   21.4028 H   0  0  0  0  0  0
  -18.0342  -26.0110   22.9036 H   0  0  0  0  0  0
  -19.7968  -30.7350   24.2191 H   0  0  0  0  0  0
  -17.5037  -31.6286   24.5169 H   0  0  0  0  0  0
  -15.5380  -30.2982   23.7703 H   0  0  0  0  0  0
  -15.8717  -28.0822   22.7119 H   0  0  0  0  0  0
  -24.5879  -30.7116   25.7627 H   0  0  0  0  0  0
  -24.8809  -32.3015   26.4547 H   0  0  0  0  0  0
  -25.7859  -30.9101   27.0222 H   0  0  0  0  0  0
  -26.3169  -29.6528   24.1466 H   0  0  0  0  0  0
  -27.3944  -29.7264   25.5183 H   0  0  0  0  0  0
  -27.9142  -30.4046   23.9975 H   0  0  0  0  0  0
  -27.2622  -33.3706   26.1920 H   0  0  0  0  0  0
  -28.3950  -32.6791   25.0393 H   0  0  0  0  0  0
  -28.0621  -31.8567   26.5545 H   0  0  0  0  0  0
  -28.2575  -38.0059   24.7512 H   0  0  0  0  0  0
  -28.1081  -36.2584   24.6318 H   0  0  0  0  0  0
  -27.2280  -37.1417   25.8871 H   0  0  0  0  0  0
  -20.9637  -29.8692   21.6599 H   0  0  0  0  0  0
  -26.0120  -38.2746   24.1397 H   0  0  0  0  0  0
  -28.7918  -21.3056   18.4710 H   0  0  0  0  0  0
  -27.9944  -23.7005   22.5966 H   0  0  0  0  0  0
  -29.4638  -22.9420   23.2676 H   0  0  0  0  0  0
  -27.8690  -22.1694   23.4966 H   0  0  0  0  0  0
  -30.3740  -19.1563   18.0065 H   0  0  0  0  0  0
  -28.8293  -18.3108   18.0270 H   0  0  0  0  0  0
  -30.3411  -17.4065   18.0499 H   0  0  0  0  0  0
  -26.7908  -23.9435   20.1852 H   0  0  0  0  0  0
  -27.8303  -24.0665   18.8059 H   0  0  0  0  0  0
  -30.8722  -18.4694   20.2515 H   0  0  0  0  0  0
  -29.2327  -20.1246   22.4050 H   0  0  0  0  0  0
  -28.6563  -16.5447   20.6758 H   0  0  0  0  0  0
  1 25  1  0  0  0
  1 30  2  0  0  0
  1 80  1  0  0  0
  2  3  1  0  0  0
  2 25  1  0  0  0
  2 81  1  0  0  0
  2 82  1  0  0  0
  3  4  1  0  0  0
  3 83  1  0  0  0
  3 84  1  0  0  0
  4  5  1  0  0  0
  4 85  1  0  0  0
  4 86  1  0  0  0
  5  6  1  0  0  0
  5 26  1  0  0  0
  5 87  1  0  0  0
  6 25  1  0  0  0
  6 88  1  0  0  0
  6 89  1  0  0  0
  7  8  2  0  0  0
  7 26  1  0  0  0
  7 29  1  0  0  0
  8  9  1  0  0  0
  8 22  1  0  0  0
  9 10  1  0  0  0
  9 27  2  0  0  0
 10 11  2  0  0  0
 10 15  1  0  0  0
 11 12  1  0  0  0
 11 90  1  0  0  0
 12 13  2  0  0  0
 12 91  1  0  0  0
 13 14  1  0  0  0
 13 31  1  0  0  0
 14 15  2  0  0  0
 14 92  1  0  0  0
 15 93  1  0  0  0
 16 17  2  0  0  0
 16 21  1  0  0  0
 16 31  1  0  0  0
 17 18  1  0  0  0
 17 94  1  0  0  0
 18 19  2  0  0  0
 18 95  1  0  0  0
 19 20  1  0  0  0
 19 24  1  0  0  0
 20 21  2  0  0  0
 20 96  1  0  0  0
 21 23  1  0  0  0
 22 28  1  0  0  0
 22 32  2  0  0  0
 26 27  1  0  0  0
 28 97  1  0  0  0
 28 98  1  0  0  0
 29 99  1  0  0  0
 29100  1  0  0  0
 33 34  1  0  0  0
 33 66  1  0  0  0
 33 70  2  0  0  0
 34 36  1  0  0  0
 34 59  1  0  0  0
 34101  1  0  0  0
 35 44  2  0  0  0
 35 45  1  0  0  0
 35 68  1  0  0  0
 36 56  1  0  0  0
 36102  1  0  0  0
 37 39  1  0  0  0
 37 47  1  0  0  0
 37 66  1  0  0  0
 37103  1  0  0  0
 38 43  2  0  0  0
 38 46  1  0  0  0
 38 47  1  0  0  0
 39 64  1  0  0  0
 39 67  2  0  0  0
 40 52  1  0  0  0
 40 53  2  0  0  0
 40 58  1  0  0  0
 41104  1  0  0  0
 41105  1  0  0  0
 41106  1  0  0  0
 41 48  1  0  0  0
 42 43  1  0  0  0
 42 66  1  0  0  0
 42107  1  0  0  0
 42108  1  0  0  0
 43 44  1  0  0  0
 44109  1  0  0  0
 45 46  2  0  0  0
 45110  1  0  0  0
 46111  1  0  0  0
 47112  1  0  0  0
 47113  1  0  0  0
 48 56  1  0  0  0
 48 65  1  0  0  0
 48114  1  0  0  0
 49 50  1  0  0  0
 49 53  1  0  0  0
 49 64  1  0  0  0
 49115  1  0  0  0
 50 51  1  0  0  0
 50116  1  0  0  0
 50117  1  0  0  0
 51 52  1  0  0  0
 51118  1  0  0  0
 51119  1  0  0  0
 52120  1  0  0  0
 52121  1  0  0  0
 53 54  1  0  0  0
 54 55  2  0  0  0
 54122  1  0  0  0
 55 57  1  0  0  0
 55123  1  0  0  0
 56 69  2  0  0  0
 57 58  2  0  0  0
 57124  1  0  0  0
 58125  1  0  0  0
 59 60  1  0  0  0
 59 61  1  0  0  0
 59 62  1  0  0  0
 60126  1  0  0  0
 60127  1  0  0  0
 60128  1  0  0  0
 61129  1  0  0  0
 61130  1  0  0  0
 61131  1  0  0  0
 62132  1  0  0  0
 62133  1  0  0  0
 62134  1  0  0  0
 63 65  1  0  0  0
 63135  1  0  0  0
 63136  1  0  0  0
 63137  1  0  0  0
 64138  1  0  0  0
 65139  1  0  0  0
 68 76  1  0  0  0
 71 72  2  0  0  0
 71 78  1  0  0  0
 71140  1  0  0  0
 72 77  1  0  0  0
 72 79  1  0  0  0
 73 74  1  0  0  0
 73 78  1  0  0  0
 73 79  2  0  0  0
 74141  1  0  0  0
 74142  1  0  0  0
 74143  1  0  0  0
 75144  1  0  0  0
 75145  1  0  0  0
 75146  1  0  0  0
 75 77  1  0  0  0
 76 78  1  0  0  0
 76147  1  0  0  0
 76148  1  0  0  0
 77 80  1  0  0  0
 77149  1  0  0  0
 79150  1  0  0  0
 80151  1  0  0  0
M  CHG  1  79   1
M  ISO  4   1 100  68 101  76 101  80 100
M  END
> <chiral flag>
0

> <version>
0

> <s_m_source_file>
/data/baiqing/PycharmProjects/Reinvent-master-3.2/result/LINK_invent/BTK/process_docking_weight1_custom_sum_contain_oxygen_bond_distance_aromatic_linkinvent_7_9_3/rearranged_h_0085.sdf

> <i_m_source_file_index>
23

> <r_mmod_Potential_Energy-OPLS-2005>
1480.72644042969

> <r_mmod_Stretch_Energy-OPLS-2005>
737.390686035156

> <r_mmod_Bend_Energy-OPLS-2005>
516.319458007812

> <r_mmod_Torsional_Energy-OPLS-2005>
211.673416137695

> <r_mmod_Improper_Torsional_Energy-OPLS-2005>
7.42743873596191

> <r_mmod_Van_der_Waal_Energy-OPLS-2005>
106.520332336426

> <r_mmod_Electrostatic_Energy-OPLS-2005>
-289.742401123047

> <r_mmod_Solvation_Energy-OPLS-2005>
-437.597106933594

> <b_mmod_Minimization_Converged-OPLS-2005>
0

> <r_mmod_RMS_Derivative-OPLS-2005>
1.85553407669067

$$$$
23
                    3D
 Structure written by MMmdl.
162170  0  0  1  0            999 V2000
  -30.6774  -14.6089   20.4522 C   0  0  0  0  0  0
  -30.4180  -12.3642   19.4633 C   0  0  0  0  0  0
  -29.5008  -12.4797   18.2276 C   0  0  0  0  0  0
  -28.0243  -12.3300   18.6397 C   0  0  0  0  0  0
  -27.6462  -13.2233   19.8516 C   0  0  2  0  0  0
  -28.6899  -13.1276   20.9868 C   0  0  0  0  0  0
  -25.2530  -13.8195   20.5678 C   0  0  0  0  0  0
  -24.1810  -13.0447   20.9200 C   0  0  0  0  0  0
  -24.6389  -11.6922   20.8746 C   0  0  0  0  0  0
  -23.9065  -10.4296   21.0406 C   0  0  0  0  0  0
  -24.3615   -9.4212   21.9185 C   0  0  0  0  0  0
  -23.6291   -8.2247   22.0757 C   0  0  0  0  0  0
  -22.4278   -8.0279   21.3543 C   0  0  0  0  0  0
  -21.9908   -9.0253   20.4646 C   0  0  0  0  0  0
  -22.7234  -10.2136   20.3054 C   0  0  0  0  0  0
  -21.6853   -6.0734   22.5276 C   0  0  0  0  0  0
  -21.4019   -6.5640   23.8209 C   0  0  0  0  0  0
  -21.3656   -5.6795   24.9172 C   0  0  0  0  0  0
  -21.6042   -4.3057   24.7227 C   0  0  0  0  0  0
  -21.8821   -3.8145   23.4347 C   0  0  0  0  0  0
  -21.9196   -4.6961   22.3401 C   0  0  0  0  0  0
  -22.7834  -13.5232   21.1854 C   0  0  0  0  0  0
  -22.1662   -4.2142   21.0980 F   0  0  0  0  0  0
  -21.5626   -3.4540   25.7740 F   0  0  0  0  0  0
  -30.0068  -13.4189   20.4095 N   0  0  0  0  0  0
  -26.2954  -12.9388   20.3285 N   0  0  0  0  0  0
  -25.9316  -11.6537   20.5757 N   0  0  0  0  0  0
  -22.0477  -12.8222   22.0409 N   0  0  0  0  0  0
  -25.4238  -15.1913   20.4066 N   0  0  0  0  0  0
  -31.8753  -14.6704   20.1677 O   0  0  0  0  0  0
  -21.6642   -6.8878   21.4237 O   0  0  0  0  0  0
  -22.3510  -14.5527   20.6694 O   0  0  0  0  0  0
  -24.6240  -31.8627   23.2050 C   0  0  0  0  0  0
  -25.9106  -32.4793   23.8367 C   0  0  1  0  0  0
  -27.2147  -27.3501   20.1162 C   0  0  0  0  0  0
  -25.5923  -33.8592   24.2285 N   0  0  0  0  0  0
  -23.4145  -30.4872   21.5477 C   0  0  2  0  0  0
  -24.8606  -28.9491   20.1083 C   0  0  0  0  0  0
  -22.7461  -29.4625   22.4948 C   0  0  0  0  0  0
  -18.0274  -28.1370   22.8479 C   0  0  0  0  0  0
  -24.1495  -36.7302   23.2640 C   0  0  0  0  0  0
  -25.9534  -30.8039   21.3719 C   0  0  0  0  0  0
  -26.0280  -29.4347   20.7129 C   0  0  0  0  0  0
  -27.2129  -28.6452   20.7088 C   0  0  0  0  0  0
  -26.0360  -26.9162   19.4731 C   0  0  0  0  0  0
  -24.8641  -27.6941   19.4792 C   0  0  0  0  0  0
  -23.6263  -29.8247   20.1614 C   0  0  0  0  0  0
  -25.4117  -36.3088   24.0324 C   0  0  1  0  0  0
  -20.5868  -28.3679   23.1280 C   0  0  2  0  0  0
  -20.6768  -26.9405   22.5403 C   0  0  0  0  0  0
  -19.5755  -26.6373   21.5200 C   0  0  0  0  0  0
  -18.1928  -26.7912   22.1607 C   0  0  0  0  0  0
  -19.1524  -28.8844   23.2874 C   0  0  0  0  0  0
  -18.9463  -30.1446   23.8888 C   0  0  0  0  0  0
  -17.6467  -30.6582   24.0554 C   0  0  0  0  0  0
  -25.9050  -34.9457   23.5103 C   0  0  0  0  0  0
  -16.5354  -29.9082   23.6331 C   0  0  0  0  0  0
  -16.7264  -28.6495   23.0348 C   0  0  0  0  0  0
  -26.4495  -31.6597   25.0730 C   0  0  0  0  0  0
  -25.3735  -31.3718   26.1462 C   0  0  0  0  0  0
  -27.0343  -30.3024   24.6171 C   0  0  0  0  0  0
  -27.6054  -32.4342   25.7497 C   0  0  0  0  0  0
  -27.5587  -37.1801   24.8462 C   0  0  0  0  0  0
  -21.4178  -29.3032   22.3691 N   0  0  0  0  0  0
  -26.4297  -37.3779   23.9407 N   0  0  0  0  0  0
  -24.6825  -31.0674   22.0985 N   0  0  0  0  0  0
  -23.4200  -28.8170   23.3020 O   0  0  0  0  0  0
  -28.3089  -26.4856   20.1630 O   0  0  0  0  0  0
  -26.5627  -34.8925   22.4673 O   0  0  0  0  0  0
  -23.5413  -32.1408   23.7403 O   0  0  0  0  0  0
  -30.4790  -19.6034   19.8287 C   0  0  0  0  0  0
  -29.9609  -20.9092   20.0421 C   0  0  0  0  0  0
  -28.5387  -18.6224   20.8543 C   0  0  0  0  0  0
  -29.7825  -18.4274   20.2157 C   0  0  0  0  0  0
  -28.7074  -21.1114   20.6653 C   0  0  0  0  0  0
  -28.0087  -19.9292   21.0839 C   0  0  0  0  0  0
  -26.8081  -19.7458   23.3094 C   0  0  0  0  0  0
  -30.2089  -16.8672   18.2954 C   0  0  0  0  0  0
  -28.1221  -22.5461   20.9131 C   0  0  0  0  0  0
  -26.6655  -19.9959   21.8037 C   0  0  0  0  0  0
  -28.7427  -23.8578   20.2779 C   0  0  0  0  0  0
  -28.0371  -25.1802   20.7895 C   0  0  0  0  0  0
  -30.3736  -17.0337   19.8204 C   0  0  2  0  0  0
  -29.9328  -15.7583   20.4842 N   0  0  0  0  0  0
  -31.4635  -12.4505   19.1629 H   0  0  0  0  0  0
  -30.3209  -11.3818   19.9282 H   0  0  0  0  0  0
  -29.7610  -11.7173   17.4920 H   0  0  0  0  0  0
  -29.6529  -13.4432   17.7384 H   0  0  0  0  0  0
  -27.8602  -11.2817   18.8895 H   0  0  0  0  0  0
  -27.3710  -12.5451   17.7931 H   0  0  0  0  0  0
  -27.6515  -14.2487   19.4813 H   0  0  0  0  0  0
  -28.6875  -12.1321   21.4330 H   0  0  0  0  0  0
  -28.4519  -13.8259   21.7906 H   0  0  0  0  0  0
  -25.2756   -9.5692   22.4759 H   0  0  0  0  0  0
  -23.9997   -7.4642   22.7477 H   0  0  0  0  0  0
  -21.0839   -8.8772   19.8948 H   0  0  0  0  0  0
  -22.3689  -10.9676   19.6161 H   0  0  0  0  0  0
  -21.2015   -7.6149   23.9711 H   0  0  0  0  0  0
  -21.1473   -6.0526   25.9076 H   0  0  0  0  0  0
  -22.0602   -2.7605   23.2853 H   0  0  0  0  0  0
  -22.4100  -11.9890   22.4810 H   0  0  0  0  0  0
  -21.1087  -13.1239   22.2599 H   0  0  0  0  0  0
  -24.6551  -15.8446   20.5102 H   0  0  0  0  0  0
  -26.2648  -15.6255   20.0500 H   0  0  0  0  0  0
  -26.7181  -32.5469   23.1125 H   0  0  0  0  0  0
  -25.0065  -33.9727   25.0426 H   0  0  0  0  0  0
  -22.7064  -31.3068   21.4098 H   0  0  0  0  0  0
  -23.3751  -35.9645   23.3304 H   0  0  0  0  0  0
  -24.3576  -36.8923   22.2054 H   0  0  0  0  0  0
  -23.7251  -37.6504   23.6667 H   0  0  0  0  0  0
  -26.0821  -31.5719   20.6081 H   0  0  0  0  0  0
  -26.8339  -30.8490   22.0010 H   0  0  0  0  0  0
  -28.1086  -29.0070   21.1937 H   0  0  0  0  0  0
  -26.0122  -25.9538   18.9823 H   0  0  0  0  0  0
  -23.9706  -27.3190   18.9991 H   0  0  0  0  0  0
  -23.7382  -30.6040   19.4059 H   0  0  0  0  0  0
  -22.7480  -29.2511   19.8612 H   0  0  0  0  0  0
  -25.1289  -36.1947   25.0814 H   0  0  0  0  0  0
  -20.9953  -28.3271   24.1399 H   0  0  0  0  0  0
  -20.5674  -26.2289   23.3604 H   0  0  0  0  0  0
  -21.6643  -26.7436   22.1205 H   0  0  0  0  0  0
  -19.6921  -25.6282   21.1236 H   0  0  0  0  0  0
  -19.6699  -27.3187   20.6737 H   0  0  0  0  0  0
  -17.4194  -26.6653   21.4012 H   0  0  0  0  0  0
  -18.0335  -26.0046   22.9000 H   0  0  0  0  0  0
  -19.7945  -30.7249   24.2257 H   0  0  0  0  0  0
  -17.5026  -31.6259   24.5167 H   0  0  0  0  0  0
  -15.5354  -30.2983   23.7658 H   0  0  0  0  0  0
  -15.8655  -28.0819   22.7057 H   0  0  0  0  0  0
  -24.5903  -30.7068   25.7792 H   0  0  0  0  0  0
  -24.8933  -32.2881   26.4910 H   0  0  0  0  0  0
  -25.8060  -30.8885   27.0228 H   0  0  0  0  0  0
  -26.2911  -29.6761   24.1221 H   0  0  0  0  0  0
  -27.4069  -29.7281   25.4663 H   0  0  0  0  0  0
  -27.8769  -30.4304   23.9369 H   0  0  0  0  0  0
  -27.2648  -33.3632   26.2077 H   0  0  0  0  0  0
  -28.3856  -32.6915   25.0321 H   0  0  0  0  0  0
  -28.0739  -31.8474   26.5407 H   0  0  0  0  0  0
  -28.2592  -38.0114   24.7510 H   0  0  0  0  0  0
  -28.1083  -36.2627   24.6276 H   0  0  0  0  0  0
  -27.2294  -37.1442   25.8864 H   0  0  0  0  0  0
  -20.9363  -29.8760   21.6901 H   0  0  0  0  0  0
  -26.0178  -38.2854   24.1411 H   0  0  0  0  0  0
  -31.4319  -19.5072   19.3264 H   0  0  0  0  0  0
  -30.5393  -21.7601   19.7100 H   0  0  0  0  0  0
  -27.9672  -17.7571   21.1606 H   0  0  0  0  0  0
  -25.8372  -19.7879   23.8030 H   0  0  0  0  0  0
  -27.4501  -20.4952   23.7731 H   0  0  0  0  0  0
  -27.2396  -18.7650   23.5108 H   0  0  0  0  0  0
  -30.6581  -17.7000   17.7528 H   0  0  0  0  0  0
  -29.1551  -16.8253   18.0171 H   0  0  0  0  0  0
  -30.6867  -15.9599   17.9256 H   0  0  0  0  0  0
  -28.0734  -22.6798   21.9946 H   0  0  0  0  0  0
  -27.0891  -22.5277   20.5688 H   0  0  0  0  0  0
  -26.0064  -19.2399   21.3737 H   0  0  0  0  0  0
  -26.1508  -20.9404   21.6422 H   0  0  0  0  0  0
  -28.6640  -23.7996   19.1915 H   0  0  0  0  0  0
  -29.8062  -23.9159   20.5086 H   0  0  0  0  0  0
  -28.2962  -25.3011   21.8412 H   0  0  0  0  0  0
  -26.9677  -24.9708   20.8087 H   0  0  0  0  0  0
  -31.4425  -17.1339   20.0221 H   0  0  0  0  0  0
  -28.9544  -15.6646   20.7048 H   0  0  0  0  0  0
  1 25  1  0  0  0
  1 30  2  0  0  0
  1 84  1  0  0  0
  2  3  1  0  0  0
  2 25  1  0  0  0
  2 85  1  0  0  0
  2 86  1  0  0  0
  3  4  1  0  0  0
  3 87  1  0  0  0
  3 88  1  0  0  0
  4  5  1  0  0  0
  4 89  1  0  0  0
  4 90  1  0  0  0
  5  6  1  0  0  0
  5 26  1  0  0  0
  5 91  1  0  0  0
  6 25  1  0  0  0
  6 92  1  0  0  0
  6 93  1  0  0  0
  7  8  2  0  0  0
  7 26  1  0  0  0
  7 29  1  0  0  0
  8  9  1  0  0  0
  8 22  1  0  0  0
  9 10  1  0  0  0
  9 27  2  0  0  0
 10 11  2  0  0  0
 10 15  1  0  0  0
 11 12  1  0  0  0
 11 94  1  0  0  0
 12 13  2  0  0  0
 12 95  1  0  0  0
 13 14  1  0  0  0
 13 31  1  0  0  0
 14 15  2  0  0  0
 14 96  1  0  0  0
 15 97  1  0  0  0
 16 17  2  0  0  0
 16 21  1  0  0  0
 16 31  1  0  0  0
 17 18  1  0  0  0
 17 98  1  0  0  0
 18 19  2  0  0  0
 18 99  1  0  0  0
 19 20  1  0  0  0
 19 24  1  0  0  0
 20 21  2  0  0  0
 20100  1  0  0  0
 21 23  1  0  0  0
 22 28  1  0  0  0
 22 32  2  0  0  0
 26 27  1  0  0  0
 28101  1  0  0  0
 28102  1  0  0  0
 29103  1  0  0  0
 29104  1  0  0  0
 33 34  1  0  0  0
 33 66  1  0  0  0
 33 70  2  0  0  0
 34 36  1  0  0  0
 34 59  1  0  0  0
 34105  1  0  0  0
 35 44  2  0  0  0
 35 45  1  0  0  0
 35 68  1  0  0  0
 36 56  1  0  0  0
 36106  1  0  0  0
 37 39  1  0  0  0
 37 47  1  0  0  0
 37 66  1  0  0  0
 37107  1  0  0  0
 38 43  2  0  0  0
 38 46  1  0  0  0
 38 47  1  0  0  0
 39 64  1  0  0  0
 39 67  2  0  0  0
 40 52  1  0  0  0
 40 53  2  0  0  0
 40 58  1  0  0  0
 41108  1  0  0  0
 41109  1  0  0  0
 41110  1  0  0  0
 41 48  1  0  0  0
 42 43  1  0  0  0
 42 66  1  0  0  0
 42111  1  0  0  0
 42112  1  0  0  0
 43 44  1  0  0  0
 44113  1  0  0  0
 45 46  2  0  0  0
 45114  1  0  0  0
 46115  1  0  0  0
 47116  1  0  0  0
 47117  1  0  0  0
 48 56  1  0  0  0
 48 65  1  0  0  0
 48118  1  0  0  0
 49 50  1  0  0  0
 49 53  1  0  0  0
 49 64  1  0  0  0
 49119  1  0  0  0
 50 51  1  0  0  0
 50120  1  0  0  0
 50121  1  0  0  0
 51 52  1  0  0  0
 51122  1  0  0  0
 51123  1  0  0  0
 52124  1  0  0  0
 52125  1  0  0  0
 53 54  1  0  0  0
 54 55  2  0  0  0
 54126  1  0  0  0
 55 57  1  0  0  0
 55127  1  0  0  0
 56 69  2  0  0  0
 57 58  2  0  0  0
 57128  1  0  0  0
 58129  1  0  0  0
 59 60  1  0  0  0
 59 61  1  0  0  0
 59 62  1  0  0  0
 60130  1  0  0  0
 60131  1  0  0  0
 60132  1  0  0  0
 61133  1  0  0  0
 61134  1  0  0  0
 61135  1  0  0  0
 62136  1  0  0  0
 62137  1  0  0  0
 62138  1  0  0  0
 63 65  1  0  0  0
 63139  1  0  0  0
 63140  1  0  0  0
 63141  1  0  0  0
 64142  1  0  0  0
 65143  1  0  0  0
 68 82  1  0  0  0
 71 72  2  0  0  0
 71 74  1  0  0  0
 71144  1  0  0  0
 72 75  1  0  0  0
 72145  1  0  0  0
 73 74  2  0  0  0
 73 76  1  0  0  0
 73146  1  0  0  0
 74 83  1  0  0  0
 75 76  2  0  0  0
 75 79  1  0  0  0
 76 80  1  0  0  0
 77 80  1  0  0  0
 77147  1  0  0  0
 77148  1  0  0  0
 77149  1  0  0  0
 78150  1  0  0  0
 78151  1  0  0  0
 78152  1  0  0  0
 78 83  1  0  0  0
 79 81  1  0  0  0
 79153  1  0  0  0
 79154  1  0  0  0
 80155  1  0  0  0
 80156  1  0  0  0
 81 82  1  0  0  0
 81157  1  0  0  0
 81158  1  0  0  0
 82159  1  0  0  0
 82160  1  0  0  0
 83 84  1  0  0  0
 83161  1  0  0  0
 84162  1  0  0  0
M  ISO  4   1 100  68 101  82 101  84 100
M  END
> <chiral flag>
0

> <version>
0

> <s_m_source_file>
/data/baiqing/PycharmProjects/Reinvent-master-3.2/result/LINK_invent/BTK/process_docking_weight1_custom_sum_contain_oxygen_bond_distance_aromatic_linkinvent_7_9_3/rearranged_h_0085.sdf

> <i_m_source_file_index>
24

> <r_mmod_Potential_Energy-OPLS-2005>
11.2465887069702

> <r_mmod_Stretch_Energy-OPLS-2005>
68.3234939575195

> <r_mmod_Bend_Energy-OPLS-2005>
134.12663269043

> <r_mmod_Torsional_Energy-OPLS-2005>
227.716125488281

> <r_mmod_Improper_Torsional_Energy-OPLS-2005>
9.70731639862061

> <r_mmod_Van_der_Waal_Energy-OPLS-2005>
143.768157958984

> <r_mmod_Electrostatic_Energy-OPLS-2005>
-420.067565917969

> <r_mmod_Solvation_Energy-OPLS-2005>
-198.615081787109

> <b_mmod_Minimization_Converged-OPLS-2005>
0

> <r_mmod_RMS_Derivative-OPLS-2005>
1.37178170681

$$$$
24
                    3D
 Structure written by MMmdl.
166174  0  0  1  0            999 V2000
  -30.7093  -14.4944   20.5449 C   0  0  0  0  0  0
  -30.4108  -12.3149   19.4284 C   0  0  0  0  0  0
  -29.4872  -12.4954   18.2070 C   0  0  0  0  0  0
  -28.0094  -12.3599   18.6214 C   0  0  0  0  0  0
  -27.6538  -13.2157   19.8676 C   0  0  2  0  0  0
  -28.6973  -13.0322   20.9922 C   0  0  0  0  0  0
  -25.2539  -13.8181   20.5689 C   0  0  0  0  0  0
  -24.1810  -13.0438   20.9194 C   0  0  0  0  0  0
  -24.6384  -11.6913   20.8744 C   0  0  0  0  0  0
  -23.9058  -10.4289   21.0403 C   0  0  0  0  0  0
  -24.3610   -9.4204   21.9180 C   0  0  0  0  0  0
  -23.6290   -8.2238   22.0749 C   0  0  0  0  0  0
  -22.4272   -8.0276   21.3541 C   0  0  0  0  0  0
  -21.9906   -9.0244   20.4644 C   0  0  0  0  0  0
  -22.7230  -10.2128   20.3054 C   0  0  0  0  0  0
  -21.6850   -6.0732   22.5279 C   0  0  0  0  0  0
  -21.4011   -6.5639   23.8211 C   0  0  0  0  0  0
  -21.3664   -5.6791   24.9173 C   0  0  0  0  0  0
  -21.6043   -4.3054   24.7224 C   0  0  0  0  0  0
  -21.8820   -3.8148   23.4348 C   0  0  0  0  0  0
  -21.9192   -4.6962   22.3401 C   0  0  0  0  0  0
  -22.7831  -13.5225   21.1861 C   0  0  0  0  0  0
  -22.1660   -4.2148   21.0981 F   0  0  0  0  0  0
  -21.5631   -3.4541   25.7739 F   0  0  0  0  0  0
  -30.0220  -13.3250   20.4278 N   0  0  0  0  0  0
  -26.2982  -12.9374   20.3350 N   0  0  0  0  0  0
  -25.9312  -11.6523   20.5769 N   0  0  0  0  0  0
  -22.0487  -12.8207   22.0423 N   0  0  0  0  0  0
  -25.4234  -15.1894   20.4099 N   0  0  0  0  0  0
  -31.8567  -14.6223   20.1114 O   0  0  0  0  0  0
  -21.6637   -6.8872   21.4240 O   0  0  0  0  0  0
  -22.3514  -14.5531   20.6714 O   0  0  0  0  0  0
  -24.6174  -31.8661   23.2088 C   0  0  0  0  0  0
  -25.9061  -32.4805   23.8383 C   0  0  1  0  0  0
  -27.2153  -27.3912   20.0900 C   0  0  0  0  0  0
  -25.5905  -33.8607   24.2303 N   0  0  0  0  0  0
  -23.4045  -30.4933   21.5525 C   0  0  2  0  0  0
  -24.8464  -28.9626   20.1127 C   0  0  0  0  0  0
  -22.7425  -29.4647   22.4977 C   0  0  0  0  0  0
  -18.0277  -28.1366   22.8475 C   0  0  0  0  0  0
  -24.1494  -36.7301   23.2637 C   0  0  0  0  0  0
  -25.9408  -30.8187   21.3709 C   0  0  0  0  0  0
  -26.0137  -29.4533   20.7103 C   0  0  0  0  0  0
  -27.2018  -28.6772   20.6927 C   0  0  0  0  0  0
  -26.0219  -26.9322   19.4829 C   0  0  0  0  0  0
  -24.8476  -27.7031   19.4956 C   0  0  0  0  0  0
  -23.6127  -29.8346   20.1654 C   0  0  0  0  0  0
  -25.4112  -36.3094   24.0330 C   0  0  1  0  0  0
  -20.5864  -28.3658   23.1303 C   0  0  2  0  0  0
  -20.6777  -26.9391   22.5402 C   0  0  0  0  0  0
  -19.5749  -26.6374   21.5206 C   0  0  0  0  0  0
  -18.1923  -26.7911   22.1611 C   0  0  0  0  0  0
  -19.1524  -28.8833   23.2881 C   0  0  0  0  0  0
  -18.9455  -30.1440   23.8893 C   0  0  0  0  0  0
  -17.6456  -30.6571   24.0559 C   0  0  0  0  0  0
  -25.9039  -34.9464   23.5111 C   0  0  0  0  0  0
  -16.5350  -29.9065   23.6331 C   0  0  0  0  0  0
  -16.7264  -28.6487   23.0337 C   0  0  0  0  0  0
  -26.4479  -31.6592   25.0726 C   0  0  0  0  0  0
  -25.3722  -31.3711   26.1461 C   0  0  0  0  0  0
  -27.0323  -30.3023   24.6142 C   0  0  0  0  0  0
  -27.6050  -32.4320   25.7491 C   0  0  0  0  0  0
  -27.5576  -37.1800   24.8461 C   0  0  0  0  0  0
  -21.4157  -29.3030   22.3727 N   0  0  0  0  0  0
  -26.4299  -37.3775   23.9403 N   0  0  0  0  0  0
  -24.6730  -31.0733   22.1014 N   0  0  0  0  0  0
  -23.4195  -28.8179   23.3010 O   0  0  0  0  0  0
  -28.3661  -26.6113   20.1159 O   0  0  0  0  0  0
  -26.5604  -34.8917   22.4671 O   0  0  0  0  0  0
  -23.5359  -32.1438   23.7444 O   0  0  0  0  0  0
  -29.7891  -21.8494   20.5530 C   0  0  0  0  0  0
  -29.9686  -20.7056   19.8103 C   0  0  0  0  0  0
  -29.6907  -21.0774   18.4544 C   0  0  0  0  0  0
  -29.4002  -22.4213   18.4280 C   0  0  0  0  0  0
  -29.1042  -23.2871   17.2406 C   0  0  0  0  0  0
  -31.1559  -20.3015   16.5386 C   0  0  0  0  0  0
  -28.6383  -17.7478   19.6075 C   0  0  0  0  0  0
  -30.5604  -19.3717   20.3036 C   0  0  0  0  0  0
  -29.7928  -20.1888   17.2326 C   0  0  0  0  0  0
  -29.4920  -24.3546   20.1442 C   0  0  0  0  0  0
  -30.5897  -16.9403   21.0920 C   0  0  0  0  0  0
  -28.2271  -25.1976   19.8096 C   0  0  0  0  0  0
  -29.6631  -18.1404   20.6823 C   0  0  2  0  0  0
  -29.5038  -22.9293   19.7205 N   0  0  0  0  0  0
  -30.0305  -15.5666   21.0154 N   0  0  0  0  0  0
  -31.4561  -12.3989   19.1263 H   0  0  0  0  0  0
  -30.3030  -11.3125   19.8461 H   0  0  0  0  0  0
  -29.7260  -11.7570   17.4404 H   0  0  0  0  0  0
  -29.6549  -13.4736   17.7532 H   0  0  0  0  0  0
  -27.8212  -11.3061   18.8298 H   0  0  0  0  0  0
  -27.3581  -12.6227   17.7865 H   0  0  0  0  0  0
  -27.6877  -14.2577   19.5493 H   0  0  0  0  0  0
  -28.6764  -12.0080   21.3672 H   0  0  0  0  0  0
  -28.4657  -13.6672   21.8485 H   0  0  0  0  0  0
  -25.2755   -9.5685   22.4751 H   0  0  0  0  0  0
  -24.0006   -7.4631   22.7466 H   0  0  0  0  0  0
  -21.0840   -8.8757   19.8948 H   0  0  0  0  0  0
  -22.3683  -10.9663   19.6163 H   0  0  0  0  0  0
  -21.2001   -7.6144   23.9713 H   0  0  0  0  0  0
  -21.1487   -6.0523   25.9076 H   0  0  0  0  0  0
  -22.0597   -2.7611   23.2847 H   0  0  0  0  0  0
  -22.4119  -11.9868   22.4798 H   0  0  0  0  0  0
  -21.1105  -13.1219   22.2648 H   0  0  0  0  0  0
  -24.6548  -15.8420   20.5177 H   0  0  0  0  0  0
  -26.2704  -15.6295   20.0757 H   0  0  0  0  0  0
  -26.7131  -32.5518   23.1142 H   0  0  0  0  0  0
  -25.0087  -33.9788   25.0466 H   0  0  0  0  0  0
  -22.6921  -31.3096   21.4168 H   0  0  0  0  0  0
  -23.3760  -35.9629   23.3309 H   0  0  0  0  0  0
  -24.3577  -36.8911   22.2049 H   0  0  0  0  0  0
  -23.7267  -37.6511   23.6652 H   0  0  0  0  0  0
  -26.0612  -31.5880   20.6067 H   0  0  0  0  0  0
  -26.8259  -30.8646   21.9941 H   0  0  0  0  0  0
  -28.1021  -29.0513   21.1594 H   0  0  0  0  0  0
  -25.9631  -25.9738   18.9894 H   0  0  0  0  0  0
  -23.9508  -27.3212   19.0279 H   0  0  0  0  0  0
  -23.7230  -30.6149   19.4117 H   0  0  0  0  0  0
  -22.7348  -29.2603   19.8649 H   0  0  0  0  0  0
  -25.1288  -36.1955   25.0824 H   0  0  0  0  0  0
  -20.9936  -28.3233   24.1428 H   0  0  0  0  0  0
  -20.5687  -26.2259   23.3583 H   0  0  0  0  0  0
  -21.6646  -26.7421   22.1190 H   0  0  0  0  0  0
  -19.6909  -25.6282   21.1244 H   0  0  0  0  0  0
  -19.6705  -27.3198   20.6744 H   0  0  0  0  0  0
  -17.4182  -26.6647   21.4021 H   0  0  0  0  0  0
  -18.0325  -26.0047   22.9000 H   0  0  0  0  0  0
  -19.7934  -30.7262   24.2243 H   0  0  0  0  0  0
  -17.5011  -31.6261   24.5151 H   0  0  0  0  0  0
  -15.5346  -30.2965   23.7660 H   0  0  0  0  0  0
  -15.8662  -28.0827   22.7019 H   0  0  0  0  0  0
  -24.5893  -30.7066   25.7794 H   0  0  0  0  0  0
  -24.8921  -32.2875   26.4897 H   0  0  0  0  0  0
  -25.8052  -30.8879   27.0228 H   0  0  0  0  0  0
  -26.2892  -29.6782   24.1171 H   0  0  0  0  0  0
  -27.4059  -29.7256   25.4616 H   0  0  0  0  0  0
  -27.8728  -30.4322   23.9322 H   0  0  0  0  0  0
  -27.2665  -33.3614   26.2073 H   0  0  0  0  0  0
  -28.3854  -32.6890   25.0317 H   0  0  0  0  0  0
  -28.0723  -31.8448   26.5404 H   0  0  0  0  0  0
  -28.2580  -38.0104   24.7501 H   0  0  0  0  0  0
  -28.1088  -36.2635   24.6300 H   0  0  0  0  0  0
  -27.2289  -37.1463   25.8862 H   0  0  0  0  0  0
  -20.9315  -29.8759   21.6963 H   0  0  0  0  0  0
  -26.0184  -38.2846   24.1422 H   0  0  0  0  0  0
  -29.9423  -22.0130   21.6124 H   0  0  0  0  0  0
  -28.0308  -23.4469   17.1372 H   0  0  0  0  0  0
  -29.4473  -22.8252   16.3158 H   0  0  0  0  0  0
  -29.5971  -24.2560   17.3106 H   0  0  0  0  0  0
  -31.2058  -19.6394   15.6730 H   0  0  0  0  0  0
  -31.9651  -20.0260   17.2149 H   0  0  0  0  0  0
  -31.3427  -21.3177   16.1903 H   0  0  0  0  0  0
  -28.0396  -18.6050   19.2989 H   0  0  0  0  0  0
  -27.9463  -16.9957   19.9876 H   0  0  0  0  0  0
  -29.1228  -17.3283   18.7266 H   0  0  0  0  0  0
  -31.1896  -19.6050   21.1630 H   0  0  0  0  0  0
  -31.2588  -19.0578   19.5270 H   0  0  0  0  0  0
  -28.9971  -20.4471   16.5324 H   0  0  0  0  0  0
  -29.6195  -19.1533   17.5106 H   0  0  0  0  0  0
  -29.6590  -24.3938   21.2209 H   0  0  0  0  0  0
  -30.3629  -24.8304   19.6938 H   0  0  0  0  0  0
  -30.9481  -17.0995   22.1099 H   0  0  0  0  0  0
  -31.4861  -16.9891   20.4717 H   0  0  0  0  0  0
  -27.3876  -24.7726   20.3632 H   0  0  0  0  0  0
  -27.9918  -25.1146   18.7516 H   0  0  0  0  0  0
  -29.0822  -18.4260   21.5598 H   0  0  0  0  0  0
  -29.0826  -15.4193   21.3279 H   0  0  0  0  0  0
  1 25  1  0  0  0
  1 30  2  0  0  0
  1 85  1  0  0  0
  2  3  1  0  0  0
  2 25  1  0  0  0
  2 86  1  0  0  0
  2 87  1  0  0  0
  3  4  1  0  0  0
  3 88  1  0  0  0
  3 89  1  0  0  0
  4  5  1  0  0  0
  4 90  1  0  0  0
  4 91  1  0  0  0
  5  6  1  0  0  0
  5 26  1  0  0  0
  5 92  1  0  0  0
  6 25  1  0  0  0
  6 93  1  0  0  0
  6 94  1  0  0  0
  7  8  2  0  0  0
  7 26  1  0  0  0
  7 29  1  0  0  0
  8  9  1  0  0  0
  8 22  1  0  0  0
  9 10  1  0  0  0
  9 27  2  0  0  0
 10 11  2  0  0  0
 10 15  1  0  0  0
 11 12  1  0  0  0
 11 95  1  0  0  0
 12 13  2  0  0  0
 12 96  1  0  0  0
 13 14  1  0  0  0
 13 31  1  0  0  0
 14 15  2  0  0  0
 14 97  1  0  0  0
 15 98  1  0  0  0
 16 17  2  0  0  0
 16 21  1  0  0  0
 16 31  1  0  0  0
 17 18  1  0  0  0
 17 99  1  0  0  0
 18 19  2  0  0  0
 18100  1  0  0  0
 19 20  1  0  0  0
 19 24  1  0  0  0
 20 21  2  0  0  0
 20101  1  0  0  0
 21 23  1  0  0  0
 22 28  1  0  0  0
 22 32  2  0  0  0
 26 27  1  0  0  0
 28102  1  0  0  0
 28103  1  0  0  0
 29104  1  0  0  0
 29105  1  0  0  0
 33 34  1  0  0  0
 33 66  1  0  0  0
 33 70  2  0  0  0
 34 36  1  0  0  0
 34 59  1  0  0  0
 34106  1  0  0  0
 35 44  2  0  0  0
 35 45  1  0  0  0
 35 68  1  0  0  0
 36 56  1  0  0  0
 36107  1  0  0  0
 37 39  1  0  0  0
 37 47  1  0  0  0
 37 66  1  0  0  0
 37108  1  0  0  0
 38 43  2  0  0  0
 38 46  1  0  0  0
 38 47  1  0  0  0
 39 64  1  0  0  0
 39 67  2  0  0  0
 40 52  1  0  0  0
 40 53  2  0  0  0
 40 58  1  0  0  0
 41109  1  0  0  0
 41110  1  0  0  0
 41111  1  0  0  0
 41 48  1  0  0  0
 42 43  1  0  0  0
 42 66  1  0  0  0
 42112  1  0  0  0
 42113  1  0  0  0
 43 44  1  0  0  0
 44114  1  0  0  0
 45 46  2  0  0  0
 45115  1  0  0  0
 46116  1  0  0  0
 47117  1  0  0  0
 47118  1  0  0  0
 48 56  1  0  0  0
 48 65  1  0  0  0
 48119  1  0  0  0
 49 50  1  0  0  0
 49 53  1  0  0  0
 49 64  1  0  0  0
 49120  1  0  0  0
 50 51  1  0  0  0
 50121  1  0  0  0
 50122  1  0  0  0
 51 52  1  0  0  0
 51123  1  0  0  0
 51124  1  0  0  0
 52125  1  0  0  0
 52126  1  0  0  0
 53 54  1  0  0  0
 54 55  2  0  0  0
 54127  1  0  0  0
 55 57  1  0  0  0
 55128  1  0  0  0
 56 69  2  0  0  0
 57 58  2  0  0  0
 57129  1  0  0  0
 58130  1  0  0  0
 59 60  1  0  0  0
 59 61  1  0  0  0
 59 62  1  0  0  0
 60131  1  0  0  0
 60132  1  0  0  0
 60133  1  0  0  0
 61134  1  0  0  0
 61135  1  0  0  0
 61136  1  0  0  0
 62137  1  0  0  0
 62138  1  0  0  0
 62139  1  0  0  0
 63 65  1  0  0  0
 63140  1  0  0  0
 63141  1  0  0  0
 63142  1  0  0  0
 64143  1  0  0  0
 65144  1  0  0  0
 68 82  1  0  0  0
 71 72  2  0  0  0
 71 84  1  0  0  0
 71145  1  0  0  0
 72 73  1  0  0  0
 72 78  1  0  0  0
 73 74  2  0  0  0
 73 79  1  0  0  0
 74 75  1  0  0  0
 74 84  1  0  0  0
 75146  1  0  0  0
 75147  1  0  0  0
 75148  1  0  0  0
 76 79  1  0  0  0
 76149  1  0  0  0
 76150  1  0  0  0
 76151  1  0  0  0
 77152  1  0  0  0
 77153  1  0  0  0
 77154  1  0  0  0
 77 83  1  0  0  0
 78 83  1  0  0  0
 78155  1  0  0  0
 78156  1  0  0  0
 79157  1  0  0  0
 79158  1  0  0  0
 80 82  1  0  0  0
 80 84  1  0  0  0
 80159  1  0  0  0
 80160  1  0  0  0
 81 83  1  0  0  0
 81 85  1  0  0  0
 81161  1  0  0  0
 81162  1  0  0  0
 82163  1  0  0  0
 82164  1  0  0  0
 83165  1  0  0  0
 85166  1  0  0  0
M  ISO  4   1 100  68 101  82 101  85 100
M  END
> <chiral flag>
0

> <version>
0

> <s_m_source_file>
/data/baiqing/PycharmProjects/Reinvent-master-3.2/result/LINK_invent/BTK/process_docking_weight1_custom_sum_contain_oxygen_bond_distance_aromatic_linkinvent_7_9_3/rearranged_h_0085.sdf

> <i_m_source_file_index>
25

> <r_mmod_Potential_Energy-OPLS-2005>
-79.7994537353516

> <r_mmod_Stretch_Energy-OPLS-2005>
46.6746101379395

> <r_mmod_Bend_Energy-OPLS-2005>
121.53734588623

> <r_mmod_Torsional_Energy-OPLS-2005>
221.103546142578

> <r_mmod_Improper_Torsional_Energy-OPLS-2005>
5.67116785049438

> <r_mmod_Van_der_Waal_Energy-OPLS-2005>
130.570037841797

> <r_mmod_Electrostatic_Energy-OPLS-2005>
-418.919036865234

> <r_mmod_Solvation_Energy-OPLS-2005>
-206.708877563477

> <b_mmod_Minimization_Converged-OPLS-2005>
0

> <r_mmod_RMS_Derivative-OPLS-2005>
1.6194041967392

$$$$
25
                    3D
 Structure written by MMmdl.
176184  0  0  1  0            999 V2000
  -30.6873  -14.4282   20.7068 C   0  0  0  0  0  0
  -30.4444  -12.3379   19.3878 C   0  0  0  0  0  0
  -29.4930  -12.5520   18.1918 C   0  0  0  0  0  0
  -28.0160  -12.3879   18.6069 C   0  0  0  0  0  0
  -27.6699  -13.2006   19.8805 C   0  0  2  0  0  0
  -28.7062  -12.9010   20.9845 C   0  0  0  0  0  0
  -25.2640  -13.8139   20.5697 C   0  0  0  0  0  0
  -24.1868  -13.0424   20.9181 C   0  0  0  0  0  0
  -24.6415  -11.6887   20.8722 C   0  0  0  0  0  0
  -23.9073  -10.4274   21.0395 C   0  0  0  0  0  0
  -24.3627   -9.4175   21.9172 C   0  0  0  0  0  0
  -23.6305   -8.2220   22.0734 C   0  0  0  0  0  0
  -22.4277   -8.0267   21.3550 C   0  0  0  0  0  0
  -21.9921   -9.0226   20.4632 C   0  0  0  0  0  0
  -22.7247  -10.2107   20.3035 C   0  0  0  0  0  0
  -21.6834   -6.0739   22.5294 C   0  0  0  0  0  0
  -21.3989   -6.5641   23.8220 C   0  0  0  0  0  0
  -21.3666   -5.6788   24.9182 C   0  0  0  0  0  0
  -21.6059   -4.3056   24.7223 C   0  0  0  0  0  0
  -21.8815   -3.8154   23.4336 C   0  0  0  0  0  0
  -21.9187   -4.6981   22.3395 C   0  0  0  0  0  0
  -22.7902  -13.5220   21.1849 C   0  0  0  0  0  0
  -22.1668   -4.2171   21.0976 F   0  0  0  0  0  0
  -21.5644   -3.4537   25.7728 F   0  0  0  0  0  0
  -30.0487  -13.2486   20.4722 N   0  0  0  0  0  0
  -26.3061  -12.9304   20.3368 N   0  0  0  0  0  0
  -25.9331  -11.6469   20.5732 N   0  0  0  0  0  0
  -22.0529  -12.8210   22.0398 N   0  0  0  0  0  0
  -25.4447  -15.1836   20.4155 N   0  0  0  0  0  0
  -31.6920  -14.7881   20.0777 O   0  0  0  0  0  0
  -21.6622   -6.8885   21.4247 O   0  0  0  0  0  0
  -22.3590  -14.5538   20.6695 O   0  0  0  0  0  0
  -24.6151  -31.8626   23.2038 C   0  0  0  0  0  0
  -25.9036  -32.4787   23.8340 C   0  0  1  0  0  0
  -27.2455  -27.4187   20.0585 C   0  0  0  0  0  0
  -25.5904  -33.8591   24.2263 N   0  0  0  0  0  0
  -23.4080  -30.4892   21.5420 C   0  0  2  0  0  0
  -24.8528  -28.9518   20.1110 C   0  0  0  0  0  0
  -22.7460  -29.4628   22.4902 C   0  0  0  0  0  0
  -18.0317  -28.1392   22.8497 C   0  0  0  0  0  0
  -24.1455  -36.7210   23.2669 C   0  0  0  0  0  0
  -25.9429  -30.8097   21.3760 C   0  0  0  0  0  0
  -26.0137  -29.4466   20.7179 C   0  0  0  0  0  0
  -27.2049  -28.6836   20.6989 C   0  0  0  0  0  0
  -26.0577  -26.9467   19.4520 C   0  0  0  0  0  0
  -24.8711  -27.6994   19.4790 C   0  0  0  0  0  0
  -23.6208  -29.8243   20.1574 C   0  0  0  0  0  0
  -25.4090  -36.3073   24.0352 C   0  0  1  0  0  0
  -20.5917  -28.3647   23.1284 C   0  0  2  0  0  0
  -20.6770  -26.9374   22.5403 C   0  0  0  0  0  0
  -19.5738  -26.6365   21.5225 C   0  0  0  0  0  0
  -18.1940  -26.7922   22.1650 C   0  0  0  0  0  0
  -19.1575  -28.8844   23.2896 C   0  0  0  0  0  0
  -18.9508  -30.1468   23.8874 C   0  0  0  0  0  0
  -17.6511  -30.6593   24.0594 C   0  0  0  0  0  0
  -25.9054  -34.9454   23.5108 C   0  0  0  0  0  0
  -16.5401  -29.9095   23.6364 C   0  0  0  0  0  0
  -16.7310  -28.6541   23.0324 C   0  0  0  0  0  0
  -26.4457  -31.6614   25.0699 C   0  0  0  0  0  0
  -25.3731  -31.3734   26.1466 C   0  0  0  0  0  0
  -27.0334  -30.3071   24.6107 C   0  0  0  0  0  0
  -27.5978  -32.4407   25.7431 C   0  0  0  0  0  0
  -27.5556  -37.1746   24.8511 C   0  0  0  0  0  0
  -21.4182  -29.3011   22.3669 N   0  0  0  0  0  0
  -26.4262  -37.3773   23.9487 N   0  0  0  0  0  0
  -24.6728  -31.0715   22.0950 N   0  0  0  0  0  0
  -23.4240  -28.8160   23.2936 O   0  0  0  0  0  0
  -28.4243  -26.6880   20.0617 O   0  0  0  0  0  0
  -26.5622  -34.8960   22.4686 O   0  0  0  0  0  0
  -23.5317  -32.1377   23.7379 O   0  0  0  0  0  0
  -28.5615  -16.4338   22.7534 C   0  0  0  0  0  0
  -27.9809  -17.6557   23.1131 C   0  0  0  0  0  0
  -28.5798  -18.8486   22.6424 C   0  0  0  0  0  0
  -29.7213  -18.7460   21.7928 C   0  0  0  0  0  0
  -29.7002  -16.3881   21.9331 C   0  0  0  0  0  0
  -26.7516  -17.6340   24.0170 C   0  0  0  0  0  0
  -26.7666  -20.6246   22.3474 C   0  0  0  0  0  0
  -31.1196  -22.7760   22.2515 C   0  0  0  0  0  0
  -27.3160  -23.8434   20.1244 C   0  0  0  0  0  0
  -28.8042  -23.3593   18.1635 C   0  0  0  0  0  0
  -28.0253  -20.1872   23.1130 C   0  0  0  0  0  0
  -30.5806  -19.9526   21.3462 C   0  0  0  0  0  0
  -29.9391  -21.1801   20.5899 C   0  0  0  0  0  0
  -29.8807  -23.8697   20.3688 C   0  0  0  0  0  0
  -28.6794  -25.7078   19.0293 C   0  0  0  0  0  0
  -29.9212  -22.5966   21.2908 C   0  0  2  0  0  0
  -28.6575  -24.1913   19.4519 C   0  0  0  0  0  0
  -30.2465  -17.5337   21.4499 N   0  0  0  0  0  0
  -30.2065  -15.0698   21.7848 N   0  0  0  0  0  0
  -31.4789  -12.4976   19.0801 H   0  0  0  0  0  0
  -30.3980  -11.3063   19.7380 H   0  0  0  0  0  0
  -29.7315  -11.8553   17.3879 H   0  0  0  0  0  0
  -29.6453  -13.5531   17.7843 H   0  0  0  0  0  0
  -27.8363  -11.3283   18.7904 H   0  0  0  0  0  0
  -27.3558  -12.6689   17.7857 H   0  0  0  0  0  0
  -27.7328  -14.2589   19.6239 H   0  0  0  0  0  0
  -28.6868  -11.8365   21.2264 H   0  0  0  0  0  0
  -28.4262  -13.4000   21.9116 H   0  0  0  0  0  0
  -25.2773   -9.5651   22.4754 H   0  0  0  0  0  0
  -24.0016   -7.4596   22.7440 H   0  0  0  0  0  0
  -21.0859   -8.8720   19.8943 H   0  0  0  0  0  0
  -22.3698  -10.9633   19.6138 H   0  0  0  0  0  0
  -21.1954   -7.6138   23.9738 H   0  0  0  0  0  0
  -21.1518   -6.0511   25.9093 H   0  0  0  0  0  0
  -22.0597   -2.7619   23.2806 H   0  0  0  0  0  0
  -22.4146  -11.9852   22.4775 H   0  0  0  0  0  0
  -21.1149  -13.1230   22.2595 H   0  0  0  0  0  0
  -24.7033  -15.8578   20.5629 H   0  0  0  0  0  0
  -26.3182  -15.6112   20.1373 H   0  0  0  0  0  0
  -26.7085  -32.5488   23.1077 H   0  0  0  0  0  0
  -25.0136  -33.9719   25.0465 H   0  0  0  0  0  0
  -22.7013  -31.3072   21.3964 H   0  0  0  0  0  0
  -23.3758  -35.9506   23.3360 H   0  0  0  0  0  0
  -24.3553  -36.8761   22.2083 H   0  0  0  0  0  0
  -23.7125  -37.6389   23.6637 H   0  0  0  0  0  0
  -26.0940  -31.5758   20.6138 H   0  0  0  0  0  0
  -26.8182  -30.8369   22.0129 H   0  0  0  0  0  0
  -28.1024  -29.0626   21.1675 H   0  0  0  0  0  0
  -26.0216  -25.9984   18.9462 H   0  0  0  0  0  0
  -23.9831  -27.3132   18.9986 H   0  0  0  0  0  0
  -23.7443  -30.5975   19.3989 H   0  0  0  0  0  0
  -22.7452  -29.2492   19.8506 H   0  0  0  0  0  0
  -25.1243  -36.1885   25.0822 H   0  0  0  0  0  0
  -21.0070  -28.3191   24.1377 H   0  0  0  0  0  0
  -20.5648  -26.2258   23.3585 H   0  0  0  0  0  0
  -21.6630  -26.7354   22.1219 H   0  0  0  0  0  0
  -19.6885  -25.6276   21.1241 H   0  0  0  0  0  0
  -19.6688  -27.3191   20.6772 H   0  0  0  0  0  0
  -17.4202  -26.6722   21.4060 H   0  0  0  0  0  0
  -18.0329  -26.0063   22.9039 H   0  0  0  0  0  0
  -19.7999  -30.7323   24.2165 H   0  0  0  0  0  0
  -17.5088  -31.6271   24.5195 H   0  0  0  0  0  0
  -15.5398  -30.3012   23.7704 H   0  0  0  0  0  0
  -15.8719  -28.0915   22.6939 H   0  0  0  0  0  0
  -24.5880  -30.7096   25.7831 H   0  0  0  0  0  0
  -24.8970  -32.2909   26.4943 H   0  0  0  0  0  0
  -25.8111  -30.8892   27.0218 H   0  0  0  0  0  0
  -26.2881  -29.6769   24.1235 H   0  0  0  0  0  0
  -27.4244  -29.7350   25.4533 H   0  0  0  0  0  0
  -27.8652  -30.4443   23.9192 H   0  0  0  0  0  0
  -27.2535  -33.3728   26.1938 H   0  0  0  0  0  0
  -28.3764  -32.6962   25.0230 H   0  0  0  0  0  0
  -28.0675  -31.8618   26.5386 H   0  0  0  0  0  0
  -28.2586  -38.0036   24.7568 H   0  0  0  0  0  0
  -28.1020  -36.2565   24.6284 H   0  0  0  0  0  0
  -27.2309  -37.1316   25.8928 H   0  0  0  0  0  0
  -20.9335  -29.8748   21.6922 H   0  0  0  0  0  0
  -26.0121  -38.2837   24.1541 H   0  0  0  0  0  0
  -28.1257  -15.5209   23.1330 H   0  0  0  0  0  0
  -26.5851  -16.6383   24.4286 H   0  0  0  0  0  0
  -25.8542  -17.8982   23.4599 H   0  0  0  0  0  0
  -26.8418  -18.3080   24.8668 H   0  0  0  0  0  0
  -26.4334  -21.6099   22.6761 H   0  0  0  0  0  0
  -25.9345  -19.9424   22.5152 H   0  0  0  0  0  0
  -26.9395  -20.6696   21.2741 H   0  0  0  0  0  0
  -31.2286  -23.8043   22.5962 H   0  0  0  0  0  0
  -32.0599  -22.5086   21.7691 H   0  0  0  0  0  0
  -31.0138  -22.1768   23.1555 H   0  0  0  0  0  0
  -27.2718  -22.7982   20.4233 H   0  0  0  0  0  0
  -26.4783  -23.9901   19.4431 H   0  0  0  0  0  0
  -27.1479  -24.4583   21.0088 H   0  0  0  0  0  0
  -28.7291  -22.2895   18.3509 H   0  0  0  0  0  0
  -29.7700  -23.5432   17.6896 H   0  0  0  0  0  0
  -28.0364  -23.6044   17.4299 H   0  0  0  0  0  0
  -28.8048  -20.9366   23.0829 H   0  0  0  0  0  0
  -27.7896  -20.1342   24.1741 H   0  0  0  0  0  0
  -31.3426  -19.5561   20.6718 H   0  0  0  0  0  0
  -31.1623  -20.2395   22.2163 H   0  0  0  0  0  0
  -28.9555  -20.8999   20.2181 H   0  0  0  0  0  0
  -30.5297  -21.3035   19.6816 H   0  0  0  0  0  0
  -30.7886  -23.8967   19.7662 H   0  0  0  0  0  0
  -29.9736  -24.7326   21.0307 H   0  0  0  0  0  0
  -28.0485  -25.8846   18.1572 H   0  0  0  0  0  0
  -29.6844  -25.9297   18.6654 H   0  0  0  0  0  0
  -29.0289  -22.6660   21.9067 H   0  0  0  0  0  0
  -29.6707  -14.4252   22.3419 H   0  0  0  0  0  0
  1 25  1  0  0  0
  1 30  2  0  0  0
  1 89  1  0  0  0
  2  3  1  0  0  0
  2 25  1  0  0  0
  2 90  1  0  0  0
  2 91  1  0  0  0
  3  4  1  0  0  0
  3 92  1  0  0  0
  3 93  1  0  0  0
  4  5  1  0  0  0
  4 94  1  0  0  0
  4 95  1  0  0  0
  5  6  1  0  0  0
  5 26  1  0  0  0
  5 96  1  0  0  0
  6 25  1  0  0  0
  6 97  1  0  0  0
  6 98  1  0  0  0
  7  8  2  0  0  0
  7 26  1  0  0  0
  7 29  1  0  0  0
  8  9  1  0  0  0
  8 22  1  0  0  0
  9 10  1  0  0  0
  9 27  2  0  0  0
 10 11  2  0  0  0
 10 15  1  0  0  0
 11 12  1  0  0  0
 11 99  1  0  0  0
 12 13  2  0  0  0
 12100  1  0  0  0
 13 14  1  0  0  0
 13 31  1  0  0  0
 14 15  2  0  0  0
 14101  1  0  0  0
 15102  1  0  0  0
 16 17  2  0  0  0
 16 21  1  0  0  0
 16 31  1  0  0  0
 17 18  1  0  0  0
 17103  1  0  0  0
 18 19  2  0  0  0
 18104  1  0  0  0
 19 20  1  0  0  0
 19 24  1  0  0  0
 20 21  2  0  0  0
 20105  1  0  0  0
 21 23  1  0  0  0
 22 28  1  0  0  0
 22 32  2  0  0  0
 26 27  1  0  0  0
 28106  1  0  0  0
 28107  1  0  0  0
 29108  1  0  0  0
 29109  1  0  0  0
 33 34  1  0  0  0
 33 66  1  0  0  0
 33 70  2  0  0  0
 34 36  1  0  0  0
 34 59  1  0  0  0
 34110  1  0  0  0
 35 44  2  0  0  0
 35 45  1  0  0  0
 35 68  1  0  0  0
 36 56  1  0  0  0
 36111  1  0  0  0
 37 39  1  0  0  0
 37 47  1  0  0  0
 37 66  1  0  0  0
 37112  1  0  0  0
 38 43  2  0  0  0
 38 46  1  0  0  0
 38 47  1  0  0  0
 39 64  1  0  0  0
 39 67  2  0  0  0
 40 52  1  0  0  0
 40 53  2  0  0  0
 40 58  1  0  0  0
 41113  1  0  0  0
 41114  1  0  0  0
 41115  1  0  0  0
 41 48  1  0  0  0
 42 43  1  0  0  0
 42 66  1  0  0  0
 42116  1  0  0  0
 42117  1  0  0  0
 43 44  1  0  0  0
 44118  1  0  0  0
 45 46  2  0  0  0
 45119  1  0  0  0
 46120  1  0  0  0
 47121  1  0  0  0
 47122  1  0  0  0
 48 56  1  0  0  0
 48 65  1  0  0  0
 48123  1  0  0  0
 49 50  1  0  0  0
 49 53  1  0  0  0
 49 64  1  0  0  0
 49124  1  0  0  0
 50 51  1  0  0  0
 50125  1  0  0  0
 50126  1  0  0  0
 51 52  1  0  0  0
 51127  1  0  0  0
 51128  1  0  0  0
 52129  1  0  0  0
 52130  1  0  0  0
 53 54  1  0  0  0
 54 55  2  0  0  0
 54131  1  0  0  0
 55 57  1  0  0  0
 55132  1  0  0  0
 56 69  2  0  0  0
 57 58  2  0  0  0
 57133  1  0  0  0
 58134  1  0  0  0
 59 60  1  0  0  0
 59 61  1  0  0  0
 59 62  1  0  0  0
 60135  1  0  0  0
 60136  1  0  0  0
 60137  1  0  0  0
 61138  1  0  0  0
 61139  1  0  0  0
 61140  1  0  0  0
 62141  1  0  0  0
 62142  1  0  0  0
 62143  1  0  0  0
 63 65  1  0  0  0
 63144  1  0  0  0
 63145  1  0  0  0
 63146  1  0  0  0
 64147  1  0  0  0
 65148  1  0  0  0
 68 85  1  0  0  0
 71 72  2  0  0  0
 71 75  1  0  0  0
 71149  1  0  0  0
 72 73  1  0  0  0
 72 76  1  0  0  0
 73 74  2  0  0  0
 73 81  1  0  0  0
 74 82  1  0  0  0
 74 88  1  0  0  0
 75 88  2  0  0  0
 75 89  1  0  0  0
 76150  1  0  0  0
 76151  1  0  0  0
 76152  1  0  0  0
 77 81  1  0  0  0
 77153  1  0  0  0
 77154  1  0  0  0
 77155  1  0  0  0
 78156  1  0  0  0
 78157  1  0  0  0
 78158  1  0  0  0
 78 86  1  0  0  0
 79159  1  0  0  0
 79160  1  0  0  0
 79161  1  0  0  0
 79 87  1  0  0  0
 80 87  1  0  0  0
 80162  1  0  0  0
 80163  1  0  0  0
 80164  1  0  0  0
 81165  1  0  0  0
 81166  1  0  0  0
 82 83  1  0  0  0
 82167  1  0  0  0
 82168  1  0  0  0
 83 86  1  0  0  0
 83169  1  0  0  0
 83170  1  0  0  0
 84 86  1  0  0  0
 84 87  1  0  0  0
 84171  1  0  0  0
 84172  1  0  0  0
 85 87  1  0  0  0
 85173  1  0  0  0
 85174  1  0  0  0
 86175  1  0  0  0
 89176  1  0  0  0
M  ISO  4   1 100  68 101  85 101  89 100
M  END
> <chiral flag>
0

> <version>
0

> <s_m_source_file>
/data/baiqing/PycharmProjects/Reinvent-master-3.2/result/LINK_invent/BTK/process_docking_weight1_custom_sum_contain_oxygen_bond_distance_aromatic_linkinvent_7_9_3/rearranged_h_0085.sdf

> <i_m_source_file_index>
26

> <r_mmod_Potential_Energy-OPLS-2005>
-75.1787033081055

> <r_mmod_Stretch_Energy-OPLS-2005>
51.7147827148438

> <r_mmod_Bend_Energy-OPLS-2005>
162.87370300293

> <r_mmod_Torsional_Energy-OPLS-2005>
254.523178100586

> <r_mmod_Improper_Torsional_Energy-OPLS-2005>
7.40102577209473

> <r_mmod_Van_der_Waal_Energy-OPLS-2005>
159.813827514648

> <r_mmod_Electrostatic_Energy-OPLS-2005>
-511.825775146484

> <r_mmod_Solvation_Energy-OPLS-2005>
-214.713714599609

> <b_mmod_Minimization_Converged-OPLS-2005>
0

> <r_mmod_RMS_Derivative-OPLS-2005>
4.26484823226929

$$$$
26
                    3D
 Structure written by MMmdl.
166174  0  0  1  0            999 V2000
  -30.5930  -14.7518   20.4628 C   0  0  0  0  0  0
  -30.4344  -12.4613   19.4684 C   0  0  0  0  0  0
  -29.5064  -12.5135   18.2346 C   0  0  0  0  0  0
  -28.0307  -12.3430   18.6497 C   0  0  0  0  0  0
  -27.6376  -13.2328   19.8587 C   0  0  2  0  0  0
  -28.6864  -13.1552   20.9882 C   0  0  0  0  0  0
  -25.2478  -13.8088   20.5884 C   0  0  0  0  0  0
  -24.1738  -13.0347   20.9244 C   0  0  0  0  0  0
  -24.6362  -11.6856   20.8751 C   0  0  0  0  0  0
  -23.9037  -10.4254   21.0377 C   0  0  0  0  0  0
  -24.3591   -9.4183   21.9161 C   0  0  0  0  0  0
  -23.6272   -8.2224   22.0730 C   0  0  0  0  0  0
  -22.4255   -8.0274   21.3529 C   0  0  0  0  0  0
  -21.9872   -9.0237   20.4626 C   0  0  0  0  0  0
  -22.7199  -10.2109   20.3020 C   0  0  0  0  0  0
  -21.6855   -6.0745   22.5296 C   0  0  0  0  0  0
  -21.4019   -6.5642   23.8224 C   0  0  0  0  0  0
  -21.3631   -5.6780   24.9182 C   0  0  0  0  0  0
  -21.6023   -4.3044   24.7208 C   0  0  0  0  0  0
  -21.8820   -3.8159   23.4325 C   0  0  0  0  0  0
  -21.9189   -4.6984   22.3396 C   0  0  0  0  0  0
  -22.7766  -13.5185   21.1855 C   0  0  0  0  0  0
  -22.1669   -4.2186   21.0972 F   0  0  0  0  0  0
  -21.5597   -3.4493   25.7692 F   0  0  0  0  0  0
  -29.9857  -13.5163   20.4064 N   0  0  0  0  0  0
  -26.2914  -12.9355   20.3377 N   0  0  0  0  0  0
  -25.9307  -11.6489   20.5777 N   0  0  0  0  0  0
  -22.0392  -12.8218   22.0427 N   0  0  0  0  0  0
  -25.4139  -15.1769   20.4603 N   0  0  0  0  0  0
  -31.7759  -14.8706   20.1302 O   0  0  0  0  0  0
  -21.6628   -6.8870   21.4246 O   0  0  0  0  0  0
  -22.3485  -14.5492   20.6673 O   0  0  0  0  0  0
  -24.6298  -31.8558   23.1976 C   0  0  0  0  0  0
  -25.9128  -32.4762   23.8321 C   0  0  1  0  0  0
  -27.2348  -27.2801   20.1412 C   0  0  0  0  0  0
  -25.5917  -33.8562   24.2243 N   0  0  0  0  0  0
  -23.4268  -30.4755   21.5418 C   0  0  2  0  0  0
  -24.8773  -28.9177   20.1174 C   0  0  0  0  0  0
  -22.7491  -29.4602   22.4928 C   0  0  0  0  0  0
  -18.0297  -28.1396   22.8479 C   0  0  0  0  0  0
  -24.1497  -36.7290   23.2641 C   0  0  0  0  0  0
  -25.9713  -30.7738   21.3744 C   0  0  0  0  0  0
  -26.0477  -29.3963   20.7214 C   0  0  0  0  0  0
  -27.2304  -28.5920   20.7181 C   0  0  0  0  0  0
  -26.0437  -26.8605   19.5112 C   0  0  0  0  0  0
  -24.8797  -27.6560   19.5002 C   0  0  0  0  0  0
  -23.6449  -29.8012   20.1614 C   0  0  0  0  0  0
  -25.4123  -36.3078   24.0324 C   0  0  1  0  0  0
  -20.5896  -28.3698   23.1276 C   0  0  2  0  0  0
  -20.6790  -26.9411   22.5414 C   0  0  0  0  0  0
  -19.5764  -26.6382   21.5221 C   0  0  0  0  0  0
  -18.1941  -26.7935   22.1623 C   0  0  0  0  0  0
  -19.1545  -28.8866   23.2873 C   0  0  0  0  0  0
  -18.9465  -30.1472   23.8888 C   0  0  0  0  0  0
  -17.6459  -30.6593   24.0566 C   0  0  0  0  0  0
  -25.9058  -34.9442   23.5092 C   0  0  0  0  0  0
  -16.5354  -29.9086   23.6340 C   0  0  0  0  0  0
  -16.7279  -28.6510   23.0351 C   0  0  0  0  0  0
  -26.4482  -31.6590   25.0714 C   0  0  0  0  0  0
  -25.3698  -31.3732   26.1436 C   0  0  0  0  0  0
  -27.0336  -30.3012   24.6201 C   0  0  0  0  0  0
  -27.6039  -32.4335   25.7485 C   0  0  0  0  0  0
  -27.5584  -37.1801   24.8461 C   0  0  0  0  0  0
  -21.4198  -29.3042   22.3662 N   0  0  0  0  0  0
  -26.4299  -37.3775   23.9401 N   0  0  0  0  0  0
  -24.6958  -31.0534   22.0942 N   0  0  0  0  0  0
  -23.4193  -28.8156   23.3036 O   0  0  0  0  0  0
  -28.3463  -26.4103   20.1505 O   0  0  0  0  0  0
  -26.5634  -34.8915   22.4660 O   0  0  0  0  0  0
  -23.5450  -32.1365   23.7273 O   0  0  0  0  0  0
  -27.7133  -17.8557   19.7708 C   0  0  0  0  0  0
  -27.5377  -20.0601   19.6731 C   0  0  0  0  0  0
  -26.8257  -18.9229   19.4493 C   0  0  0  0  0  0
  -28.9225  -18.3289   20.2192 C   0  0  0  0  0  0
  -24.4612  -18.6149   20.1762 C   0  0  0  0  0  0
  -25.2130  -17.7121   17.9416 C   0  0  0  0  0  0
  -24.9565  -20.1663   18.2890 C   0  0  0  0  0  0
  -30.1002  -17.3680   20.6259 C   0  0  0  0  0  0
  -28.9760  -22.3651   20.9587 C   0  0  0  0  0  0
  -29.0274  -23.7535   20.1245 C   0  0  0  0  0  0
  -29.6823  -20.9681   20.4858 C   0  0  0  0  0  0
  -28.1629  -25.0124   20.6616 C   0  0  0  0  0  0
  -25.3817  -18.8469   18.9658 C   0  0  0  0  0  0
  -28.7932  -19.7808   20.1858 N   0  0  0  0  0  0
  -29.7995  -15.8625   20.7005 N   0  0  0  0  0  0
  -31.4723  -12.5938   19.1603 H   0  0  0  0  0  0
  -30.3910  -11.4819   19.9471 H   0  0  0  0  0  0
  -29.7852  -11.7412   17.5167 H   0  0  0  0  0  0
  -29.6349  -13.4679   17.7221 H   0  0  0  0  0  0
  -27.8794  -11.2940   18.9051 H   0  0  0  0  0  0
  -27.3735  -12.5469   17.8025 H   0  0  0  0  0  0
  -27.6273  -14.2576   19.4897 H   0  0  0  0  0  0
  -28.7257  -12.1534   21.4147 H   0  0  0  0  0  0
  -28.4225  -13.8231   21.8088 H   0  0  0  0  0  0
  -25.2704   -9.5666   22.4773 H   0  0  0  0  0  0
  -23.9988   -7.4603   22.7433 H   0  0  0  0  0  0
  -21.0793   -8.8721   19.8936 H   0  0  0  0  0  0
  -22.3630  -10.9650   19.6142 H   0  0  0  0  0  0
  -21.2067   -7.6159   23.9728 H   0  0  0  0  0  0
  -21.1427   -6.0520   25.9076 H   0  0  0  0  0  0
  -22.0635   -2.7633   23.2806 H   0  0  0  0  0  0
  -22.4005  -11.9880   22.4810 H   0  0  0  0  0  0
  -21.0996  -13.1236   22.2586 H   0  0  0  0  0  0
  -24.6462  -15.8226   20.5987 H   0  0  0  0  0  0
  -26.2706  -15.6343   20.1932 H   0  0  0  0  0  0
  -26.7192  -32.5424   23.1065 H   0  0  0  0  0  0
  -25.0070  -33.9708   25.0393 H   0  0  0  0  0  0
  -22.7239  -31.2981   21.3923 H   0  0  0  0  0  0
  -23.3761  -35.9620   23.3297 H   0  0  0  0  0  0
  -24.3589  -36.8924   22.2058 H   0  0  0  0  0  0
  -23.7250  -37.6484   23.6674 H   0  0  0  0  0  0
  -26.1102  -31.5311   20.6019 H   0  0  0  0  0  0
  -26.8486  -30.8243   22.0084 H   0  0  0  0  0  0
  -28.1295  -28.9568   21.1947 H   0  0  0  0  0  0
  -26.0025  -25.8946   19.0268 H   0  0  0  0  0  0
  -23.9852  -27.2818   19.0211 H   0  0  0  0  0  0
  -23.7645  -30.5733   19.4005 H   0  0  0  0  0  0
  -22.7632  -29.2303   19.8627 H   0  0  0  0  0  0
  -25.1310  -36.1923   25.0817 H   0  0  0  0  0  0
  -20.9995  -28.3286   24.1397 H   0  0  0  0  0  0
  -20.5710  -26.2299   23.3619 H   0  0  0  0  0  0
  -21.6657  -26.7459   22.1193 H   0  0  0  0  0  0
  -19.6926  -25.6293   21.1261 H   0  0  0  0  0  0
  -19.6716  -27.3194   20.6751 H   0  0  0  0  0  0
  -17.4216  -26.6684   21.4024 H   0  0  0  0  0  0
  -18.0328  -26.0096   22.9030 H   0  0  0  0  0  0
  -19.7943  -30.7296   24.2241 H   0  0  0  0  0  0
  -17.5018  -31.6277   24.5161 H   0  0  0  0  0  0
  -15.5355  -30.2982   23.7684 H   0  0  0  0  0  0
  -15.8680  -28.0839   22.7056 H   0  0  0  0  0  0
  -24.5874  -30.7093   25.7745 H   0  0  0  0  0  0
  -24.8893  -32.2899   26.4866 H   0  0  0  0  0  0
  -25.8012  -30.8894   27.0212 H   0  0  0  0  0  0
  -26.2927  -29.6759   24.1216 H   0  0  0  0  0  0
  -27.4006  -29.7282   25.4726 H   0  0  0  0  0  0
  -27.8802  -30.4291   23.9454 H   0  0  0  0  0  0
  -27.2653  -33.3645   26.2049 H   0  0  0  0  0  0
  -28.3851  -32.6888   25.0310 H   0  0  0  0  0  0
  -28.0707  -31.8471   26.5414 H   0  0  0  0  0  0
  -28.2591  -38.0108   24.7526 H   0  0  0  0  0  0
  -28.1092  -36.2641   24.6272 H   0  0  0  0  0  0
  -27.2301  -37.1431   25.8862 H   0  0  0  0  0  0
  -20.9381  -29.8733   21.6843 H   0  0  0  0  0  0
  -26.0176  -38.2849   24.1396 H   0  0  0  0  0  0
  -27.4825  -16.8077   19.6730 H   0  0  0  0  0  0
  -27.2323  -21.0841   19.5114 H   0  0  0  0  0  0
  -24.7285  -17.7127   20.7222 H   0  0  0  0  0  0
  -23.4164  -18.5287   19.8746 H   0  0  0  0  0  0
  -24.5301  -19.4391   20.8874 H   0  0  0  0  0  0
  -25.4808  -16.7410   18.3518 H   0  0  0  0  0  0
  -25.8435  -17.8784   17.0685 H   0  0  0  0  0  0
  -24.1825  -17.6405   17.5913 H   0  0  0  0  0  0
  -24.9797  -21.0073   18.9849 H   0  0  0  0  0  0
  -23.9384  -20.1024   17.9036 H   0  0  0  0  0  0
  -25.6070  -20.4153   17.4489 H   0  0  0  0  0  0
  -30.4905  -17.6798   21.5963 H   0  0  0  0  0  0
  -30.9240  -17.5113   19.9257 H   0  0  0  0  0  0
  -27.9408  -22.1751   21.2386 H   0  0  0  0  0  0
  -29.4330  -22.6016   21.9203 H   0  0  0  0  0  0
  -28.7259  -23.5495   19.0961 H   0  0  0  0  0  0
  -30.0695  -24.0672   20.0584 H   0  0  0  0  0  0
  -30.3764  -20.6549   21.2662 H   0  0  0  0  0  0
  -30.2977  -21.1547   19.6056 H   0  0  0  0  0  0
  -28.3503  -25.0866   21.7339 H   0  0  0  0  0  0
  -27.1144  -24.7246   20.5954 H   0  0  0  0  0  0
  -28.8523  -15.6411   20.9601 H   0  0  0  0  0  0
  1 25  1  0  0  0
  1 30  2  0  0  0
  1 85  1  0  0  0
  2  3  1  0  0  0
  2 25  1  0  0  0
  2 86  1  0  0  0
  2 87  1  0  0  0
  3  4  1  0  0  0
  3 88  1  0  0  0
  3 89  1  0  0  0
  4  5  1  0  0  0
  4 90  1  0  0  0
  4 91  1  0  0  0
  5  6  1  0  0  0
  5 26  1  0  0  0
  5 92  1  0  0  0
  6 25  1  0  0  0
  6 93  1  0  0  0
  6 94  1  0  0  0
  7  8  2  0  0  0
  7 26  1  0  0  0
  7 29  1  0  0  0
  8  9  1  0  0  0
  8 22  1  0  0  0
  9 10  1  0  0  0
  9 27  2  0  0  0
 10 11  2  0  0  0
 10 15  1  0  0  0
 11 12  1  0  0  0
 11 95  1  0  0  0
 12 13  2  0  0  0
 12 96  1  0  0  0
 13 14  1  0  0  0
 13 31  1  0  0  0
 14 15  2  0  0  0
 14 97  1  0  0  0
 15 98  1  0  0  0
 16 17  2  0  0  0
 16 21  1  0  0  0
 16 31  1  0  0  0
 17 18  1  0  0  0
 17 99  1  0  0  0
 18 19  2  0  0  0
 18100  1  0  0  0
 19 20  1  0  0  0
 19 24  1  0  0  0
 20 21  2  0  0  0
 20101  1  0  0  0
 21 23  1  0  0  0
 22 28  1  0  0  0
 22 32  2  0  0  0
 26 27  1  0  0  0
 28102  1  0  0  0
 28103  1  0  0  0
 29104  1  0  0  0
 29105  1  0  0  0
 33 34  1  0  0  0
 33 66  1  0  0  0
 33 70  2  0  0  0
 34 36  1  0  0  0
 34 59  1  0  0  0
 34106  1  0  0  0
 35 44  2  0  0  0
 35 45  1  0  0  0
 35 68  1  0  0  0
 36 56  1  0  0  0
 36107  1  0  0  0
 37 39  1  0  0  0
 37 47  1  0  0  0
 37 66  1  0  0  0
 37108  1  0  0  0
 38 43  2  0  0  0
 38 46  1  0  0  0
 38 47  1  0  0  0
 39 64  1  0  0  0
 39 67  2  0  0  0
 40 52  1  0  0  0
 40 53  2  0  0  0
 40 58  1  0  0  0
 41109  1  0  0  0
 41110  1  0  0  0
 41111  1  0  0  0
 41 48  1  0  0  0
 42 43  1  0  0  0
 42 66  1  0  0  0
 42112  1  0  0  0
 42113  1  0  0  0
 43 44  1  0  0  0
 44114  1  0  0  0
 45 46  2  0  0  0
 45115  1  0  0  0
 46116  1  0  0  0
 47117  1  0  0  0
 47118  1  0  0  0
 48 56  1  0  0  0
 48 65  1  0  0  0
 48119  1  0  0  0
 49 50  1  0  0  0
 49 53  1  0  0  0
 49 64  1  0  0  0
 49120  1  0  0  0
 50 51  1  0  0  0
 50121  1  0  0  0
 50122  1  0  0  0
 51 52  1  0  0  0
 51123  1  0  0  0
 51124  1  0  0  0
 52125  1  0  0  0
 52126  1  0  0  0
 53 54  1  0  0  0
 54 55  2  0  0  0
 54127  1  0  0  0
 55 57  1  0  0  0
 55128  1  0  0  0
 56 69  2  0  0  0
 57 58  2  0  0  0
 57129  1  0  0  0
 58130  1  0  0  0
 59 60  1  0  0  0
 59 61  1  0  0  0
 59 62  1  0  0  0
 60131  1  0  0  0
 60132  1  0  0  0
 60133  1  0  0  0
 61134  1  0  0  0
 61135  1  0  0  0
 61136  1  0  0  0
 62137  1  0  0  0
 62138  1  0  0  0
 62139  1  0  0  0
 63 65  1  0  0  0
 63140  1  0  0  0
 63141  1  0  0  0
 63142  1  0  0  0
 64143  1  0  0  0
 65144  1  0  0  0
 68 82  1  0  0  0
 71 73  1  0  0  0
 71 74  2  0  0  0
 71145  1  0  0  0
 72 73  2  0  0  0
 72 84  1  0  0  0
 72146  1  0  0  0
 73 83  1  0  0  0
 74 78  1  0  0  0
 74 84  1  0  0  0
 75147  1  0  0  0
 75148  1  0  0  0
 75149  1  0  0  0
 75 83  1  0  0  0
 76 83  1  0  0  0
 76150  1  0  0  0
 76151  1  0  0  0
 76152  1  0  0  0
 77 83  1  0  0  0
 77153  1  0  0  0
 77154  1  0  0  0
 77155  1  0  0  0
 78 85  1  0  0  0
 78156  1  0  0  0
 78157  1  0  0  0
 79 80  1  0  0  0
 79 81  1  0  0  0
 79158  1  0  0  0
 79159  1  0  0  0
 80 82  1  0  0  0
 80160  1  0  0  0
 80161  1  0  0  0
 81 84  1  0  0  0
 81162  1  0  0  0
 81163  1  0  0  0
 82164  1  0  0  0
 82165  1  0  0  0
 85166  1  0  0  0
M  ISO  4   1 100  68 101  82 101  85 100
M  END
> <chiral flag>
0

> <version>
0

> <s_m_source_file>
/data/baiqing/PycharmProjects/Reinvent-master-3.2/result/LINK_invent/BTK/process_docking_weight1_custom_sum_contain_oxygen_bond_distance_aromatic_linkinvent_7_9_3/rearranged_h_0085.sdf

> <i_m_source_file_index>
27

> <r_mmod_Potential_Energy-OPLS-2005>
98.0311737060547

> <r_mmod_Stretch_Energy-OPLS-2005>
126.492645263672

> <r_mmod_Bend_Energy-OPLS-2005>
189.970199584961

> <r_mmod_Torsional_Energy-OPLS-2005>
238.959014892578

> <r_mmod_Improper_Torsional_Energy-OPLS-2005>
4.33271312713623

> <r_mmod_Van_der_Waal_Energy-OPLS-2005>
115.167892456055

> <r_mmod_Electrostatic_Energy-OPLS-2005>
-462.4140625

> <r_mmod_Solvation_Energy-OPLS-2005>
-194.762771606445

> <b_mmod_Minimization_Converged-OPLS-2005>
0

> <r_mmod_RMS_Derivative-OPLS-2005>
2.40192413330078

$$$$
27
                    3D
 Structure written by MMmdl.
169177  0  0  1  0            999 V2000
  -30.5950  -14.6522   20.6643 C   0  0  0  0  0  0
  -30.4228  -12.4207   19.5018 C   0  0  0  0  0  0
  -29.5282  -12.5321   18.2507 C   0  0  0  0  0  0
  -28.0398  -12.3585   18.6175 C   0  0  0  0  0  0
  -27.6372  -13.2217   19.8464 C   0  0  2  0  0  0
  -28.6498  -13.0927   20.9955 C   0  0  0  0  0  0
  -25.2478  -13.8182   20.5518 C   0  0  0  0  0  0
  -24.1748  -13.0475   20.9041 C   0  0  0  0  0  0
  -24.6275  -11.6921   20.8547 C   0  0  0  0  0  0
  -23.9009  -10.4323   21.0344 C   0  0  0  0  0  0
  -24.3586   -9.4291   21.9136 C   0  0  0  0  0  0
  -23.6323   -8.2304   22.0727 C   0  0  0  0  0  0
  -22.4295   -8.0253   21.3526 C   0  0  0  0  0  0
  -21.9870   -9.0221   20.4622 C   0  0  0  0  0  0
  -22.7149  -10.2167   20.3049 C   0  0  0  0  0  0
  -21.6925   -6.0712   22.5231 C   0  0  0  0  0  0
  -21.4023   -6.5642   23.8139 C   0  0  0  0  0  0
  -21.3691   -5.6823   24.9123 C   0  0  0  0  0  0
  -21.6073   -4.3080   24.7203 C   0  0  0  0  0  0
  -21.8825   -3.8135   23.4330 C   0  0  0  0  0  0
  -21.9190   -4.6928   22.3359 C   0  0  0  0  0  0
  -22.7831  -13.5280   21.1876 C   0  0  0  0  0  0
  -22.1666   -4.2108   21.0962 F   0  0  0  0  0  0
  -21.5638   -3.4558   25.7728 F   0  0  0  0  0  0
  -29.9600  -13.4565   20.4510 N   0  0  0  0  0  0
  -26.2831  -12.9352   20.3062 N   0  0  0  0  0  0
  -25.9187  -11.6529   20.5527 N   0  0  0  0  0  0
  -22.0588  -12.8231   22.0501 N   0  0  0  0  0  0
  -25.4276  -15.1908   20.3841 N   0  0  0  0  0  0
  -31.7857  -14.7801   20.3625 O   0  0  0  0  0  0
  -21.6681   -6.8846   21.4213 O   0  0  0  0  0  0
  -22.3469  -14.5609   20.6800 O   0  0  0  0  0  0
  -24.6244  -31.8638   23.1958 C   0  0  0  0  0  0
  -25.9111  -32.4779   23.8316 C   0  0  1  0  0  0
  -27.2362  -27.3256   20.1814 C   0  0  0  0  0  0
  -25.5918  -33.8557   24.2242 N   0  0  0  0  0  0
  -23.4175  -30.4803   21.5402 C   0  0  2  0  0  0
  -24.8700  -28.9289   20.1113 C   0  0  0  0  0  0
  -22.7453  -29.4659   22.4980 C   0  0  0  0  0  0
  -18.0305  -28.1325   22.8606 C   0  0  0  0  0  0
  -24.1499  -36.7297   23.2617 C   0  0  0  0  0  0
  -25.9504  -30.8073   21.3605 C   0  0  0  0  0  0
  -26.0311  -29.4260   20.7153 C   0  0  0  0  0  0
  -27.2161  -28.6395   20.7370 C   0  0  0  0  0  0
  -26.0616  -26.8622   19.5511 C   0  0  0  0  0  0
  -24.8927  -27.6552   19.5102 C   0  0  0  0  0  0
  -23.6264  -29.7967   20.1565 C   0  0  0  0  0  0
  -25.4137  -36.3101   24.0311 C   0  0  1  0  0  0
  -20.5917  -28.3690   23.1356 C   0  0  2  0  0  0
  -20.6818  -26.9379   22.5538 C   0  0  0  0  0  0
  -19.5762  -26.6396   21.5355 C   0  0  0  0  0  0
  -18.1979  -26.7819   22.1787 C   0  0  0  0  0  0
  -19.1548  -28.8860   23.2926 C   0  0  0  0  0  0
  -18.9501  -30.1441   23.8936 C   0  0  0  0  0  0
  -17.6476  -30.6592   24.0525 C   0  0  0  0  0  0
  -25.9070  -34.9466   23.5086 C   0  0  0  0  0  0
  -16.5372  -29.9057   23.6308 C   0  0  0  0  0  0
  -16.7300  -28.6461   23.0350 C   0  0  0  0  0  0
  -26.4466  -31.6594   25.0683 C   0  0  0  0  0  0
  -25.3613  -31.3837   26.1364 C   0  0  0  0  0  0
  -27.0298  -30.3012   24.6119 C   0  0  0  0  0  0
  -27.6095  -32.4314   25.7401 C   0  0  0  0  0  0
  -27.5628  -37.1796   24.8470 C   0  0  0  0  0  0
  -21.4164  -29.3003   22.3666 N   0  0  0  0  0  0
  -26.4338  -37.3791   23.9391 N   0  0  0  0  0  0
  -24.6826  -31.0708   22.0878 N   0  0  0  0  0  0
  -23.4193  -28.8275   23.3053 O   0  0  0  0  0  0
  -28.3920  -26.5498   20.3002 O   0  0  0  0  0  0
  -26.5657  -34.8947   22.4680 O   0  0  0  0  0  0
  -23.5424  -32.1398   23.7326 O   0  0  0  0  0  0
  -28.9793  -19.2173   21.4661 C   0  0  0  0  0  0
  -27.8041  -19.9869   21.7230 C   0  0  0  0  0  0
  -28.9504  -17.9833   22.0947 C   0  0  0  0  0  0
  -27.0148  -19.1577   22.4961 C   0  0  0  0  0  0
  -25.5889  -19.4453   22.9400 C   0  0  0  0  0  0
  -31.5044  -17.5550   21.7651 C   0  0  0  0  0  0
  -26.4460  -17.4684   25.0293 C   0  0  0  0  0  0
  -27.9978  -15.7272   24.1875 C   0  0  0  0  0  0
  -27.4248  -21.4118   21.1948 C   0  0  0  0  0  0
  -28.5467  -22.5244   21.0275 C   0  0  0  0  0  0
  -28.1196  -24.0620   21.1892 C   0  0  0  0  0  0
  -28.4652  -25.0987   20.0386 C   0  0  0  0  0  0
  -30.0906  -16.9015   22.0156 C   0  0  2  0  0  0
  -27.1100  -16.9086   23.7300 C   0  0  0  0  0  0
  -27.7215  -17.9681   22.8333 N   0  0  0  0  0  0
  -29.8168  -15.7253   21.0913 N   0  0  0  0  0  0
  -31.4790  -12.5173   19.2550 H   0  0  0  0  0  0
  -30.3103  -11.4300   19.9496 H   0  0  0  0  0  0
  -29.8125  -11.7930   17.5023 H   0  0  0  0  0  0
  -29.6869  -13.5128   17.8026 H   0  0  0  0  0  0
  -27.8560  -11.3074   18.8315 H   0  0  0  0  0  0
  -27.4115  -12.6126   17.7611 H   0  0  0  0  0  0
  -27.6555  -14.2534   19.5064 H   0  0  0  0  0  0
  -28.6543  -12.0793   21.4043 H   0  0  0  0  0  0
  -28.3494  -13.7285   21.8243 H   0  0  0  0  0  0
  -25.2735   -9.5847   22.4660 H   0  0  0  0  0  0
  -24.0056   -7.4746   22.7473 H   0  0  0  0  0  0
  -21.0780   -8.8723   19.8950 H   0  0  0  0  0  0
  -22.3534  -10.9673   19.6166 H   0  0  0  0  0  0
  -21.2035   -7.6129   23.9623 H   0  0  0  0  0  0
  -21.1524   -6.0553   25.9028 H   0  0  0  0  0  0
  -22.0572   -2.7559   23.2833 H   0  0  0  0  0  0
  -22.4266  -11.9949   22.4833 H   0  0  0  0  0  0
  -21.1163  -13.1173   22.2790 H   0  0  0  0  0  0
  -24.6664  -15.8585   20.4745 H   0  0  0  0  0  0
  -26.2752  -15.6021   20.0231 H   0  0  0  0  0  0
  -26.7177  -32.5433   23.1045 H   0  0  0  0  0  0
  -24.9988  -33.9737   25.0347 H   0  0  0  0  0  0
  -22.7094  -31.2980   21.3888 H   0  0  0  0  0  0
  -23.3776  -35.9638   23.3311 H   0  0  0  0  0  0
  -24.3587  -36.8859   22.2041 H   0  0  0  0  0  0
  -23.7264  -37.6486   23.6615 H   0  0  0  0  0  0
  -26.0708  -31.5641   20.5844 H   0  0  0  0  0  0
  -26.8361  -30.8664   21.9822 H   0  0  0  0  0  0
  -28.1068  -29.0267   21.2160 H   0  0  0  0  0  0
  -26.0210  -25.8777   19.1171 H   0  0  0  0  0  0
  -24.0004  -27.2555   19.0458 H   0  0  0  0  0  0
  -23.7141  -30.5589   19.3819 H   0  0  0  0  0  0
  -22.7532  -29.1947   19.8787 H   0  0  0  0  0  0
  -25.1318  -36.1954   25.0807 H   0  0  0  0  0  0
  -21.0025  -28.3401   24.1458 H   0  0  0  0  0  0
  -20.5712  -26.2345   23.3845 H   0  0  0  0  0  0
  -21.6730  -26.7423   22.1367 H   0  0  0  0  0  0
  -19.6879  -25.6299   21.1364 H   0  0  0  0  0  0
  -19.6764  -27.3226   20.6867 H   0  0  0  0  0  0
  -17.4245  -26.6481   21.4251 H   0  0  0  0  0  0
  -18.0462  -26.0032   22.9259 H   0  0  0  0  0  0
  -19.7961  -30.7253   24.2354 H   0  0  0  0  0  0
  -17.5019  -31.6235   24.5172 H   0  0  0  0  0  0
  -15.5353  -30.3005   23.7595 H   0  0  0  0  0  0
  -15.8682  -28.0809   22.7062 H   0  0  0  0  0  0
  -24.5779  -30.7206   25.7631 H   0  0  0  0  0  0
  -24.8811  -32.3050   26.4671 H   0  0  0  0  0  0
  -25.7840  -30.9023   27.0186 H   0  0  0  0  0  0
  -26.2882  -29.6743   24.1119 H   0  0  0  0  0  0
  -27.3961  -29.7291   25.4659 H   0  0  0  0  0  0
  -27.8769  -30.4289   23.9371 H   0  0  0  0  0  0
  -27.2756  -33.3614   26.2035 H   0  0  0  0  0  0
  -28.3830  -32.6860   25.0131 H   0  0  0  0  0  0
  -28.0805  -31.8336   26.5195 H   0  0  0  0  0  0
  -28.2644  -38.0080   24.7497 H   0  0  0  0  0  0
  -28.1085  -36.2619   24.6300 H   0  0  0  0  0  0
  -27.2315  -37.1462   25.8848 H   0  0  0  0  0  0
  -20.9331  -29.8668   21.6849 H   0  0  0  0  0  0
  -26.0214  -38.2858   24.1351 H   0  0  0  0  0  0
  -29.7929  -19.5577   20.8424 H   0  0  0  0  0  0
  -25.1596  -20.3129   22.4330 H   0  0  0  0  0  0
  -25.5081  -19.6772   24.0034 H   0  0  0  0  0  0
  -24.9137  -18.6235   22.7123 H   0  0  0  0  0  0
  -31.7357  -18.3621   22.4810 H   0  0  0  0  0  0
  -31.5833  -17.9958   20.7711 H   0  0  0  0  0  0
  -32.3370  -16.8520   21.8687 H   0  0  0  0  0  0
  -26.4720  -16.7705   25.8771 H   0  0  0  0  0  0
  -25.3838  -17.6847   24.9098 H   0  0  0  0  0  0
  -26.9430  -18.3764   25.3774 H   0  0  0  0  0  0
  -27.3797  -14.9958   24.7277 H   0  0  0  0  0  0
  -28.7754  -16.0458   24.8904 H   0  0  0  0  0  0
  -28.4381  -15.1743   23.3699 H   0  0  0  0  0  0
  -26.6597  -21.8160   21.8558 H   0  0  0  0  0  0
  -26.9141  -21.2894   20.2331 H   0  0  0  0  0  0
  -29.0798  -22.3742   20.0833 H   0  0  0  0  0  0
  -29.3011  -22.2995   21.7824 H   0  0  0  0  0  0
  -27.0491  -24.1008   21.3995 H   0  0  0  0  0  0
  -28.6073  -24.4166   22.1022 H   0  0  0  0  0  0
  -27.9466  -24.8359   19.1214 H   0  0  0  0  0  0
  -29.5164  -24.9478   19.8027 H   0  0  0  0  0  0
  -30.2177  -16.5195   23.0348 H   0  0  0  0  0  0
  -26.3094  -16.4474   23.1419 H   0  0  0  0  0  0
  -28.8386  -15.6794   20.7850 H   0  0  0  0  0  0
  1 25  1  0  0  0
  1 30  2  0  0  0
  1 86  1  0  0  0
  2  3  1  0  0  0
  2 25  1  0  0  0
  2 87  1  0  0  0
  2 88  1  0  0  0
  3  4  1  0  0  0
  3 89  1  0  0  0
  3 90  1  0  0  0
  4  5  1  0  0  0
  4 91  1  0  0  0
  4 92  1  0  0  0
  5  6  1  0  0  0
  5 26  1  0  0  0
  5 93  1  0  0  0
  6 25  1  0  0  0
  6 94  1  0  0  0
  6 95  1  0  0  0
  7  8  2  0  0  0
  7 26  1  0  0  0
  7 29  1  0  0  0
  8  9  1  0  0  0
  8 22  1  0  0  0
  9 10  1  0  0  0
  9 27  2  0  0  0
 10 11  2  0  0  0
 10 15  1  0  0  0
 11 12  1  0  0  0
 11 96  1  0  0  0
 12 13  2  0  0  0
 12 97  1  0  0  0
 13 14  1  0  0  0
 13 31  1  0  0  0
 14 15  2  0  0  0
 14 98  1  0  0  0
 15 99  1  0  0  0
 16 17  2  0  0  0
 16 21  1  0  0  0
 16 31  1  0  0  0
 17 18  1  0  0  0
 17100  1  0  0  0
 18 19  2  0  0  0
 18101  1  0  0  0
 19 20  1  0  0  0
 19 24  1  0  0  0
 20 21  2  0  0  0
 20102  1  0  0  0
 21 23  1  0  0  0
 22 28  1  0  0  0
 22 32  2  0  0  0
 26 27  1  0  0  0
 28103  1  0  0  0
 28104  1  0  0  0
 29105  1  0  0  0
 29106  1  0  0  0
 33 34  1  0  0  0
 33 66  1  0  0  0
 33 70  2  0  0  0
 34 36  1  0  0  0
 34 59  1  0  0  0
 34107  1  0  0  0
 35 44  2  0  0  0
 35 45  1  0  0  0
 35 68  1  0  0  0
 36 56  1  0  0  0
 36108  1  0  0  0
 37 39  1  0  0  0
 37 47  1  0  0  0
 37 66  1  0  0  0
 37109  1  0  0  0
 38 43  2  0  0  0
 38 46  1  0  0  0
 38 47  1  0  0  0
 39 64  1  0  0  0
 39 67  2  0  0  0
 40 52  1  0  0  0
 40 53  2  0  0  0
 40 58  1  0  0  0
 41110  1  0  0  0
 41111  1  0  0  0
 41112  1  0  0  0
 41 48  1  0  0  0
 42 43  1  0  0  0
 42 66  1  0  0  0
 42113  1  0  0  0
 42114  1  0  0  0
 43 44  1  0  0  0
 44115  1  0  0  0
 45 46  2  0  0  0
 45116  1  0  0  0
 46117  1  0  0  0
 47118  1  0  0  0
 47119  1  0  0  0
 48 56  1  0  0  0
 48 65  1  0  0  0
 48120  1  0  0  0
 49 50  1  0  0  0
 49 53  1  0  0  0
 49 64  1  0  0  0
 49121  1  0  0  0
 50 51  1  0  0  0
 50122  1  0  0  0
 50123  1  0  0  0
 51 52  1  0  0  0
 51124  1  0  0  0
 51125  1  0  0  0
 52126  1  0  0  0
 52127  1  0  0  0
 53 54  1  0  0  0
 54 55  2  0  0  0
 54128  1  0  0  0
 55 57  1  0  0  0
 55129  1  0  0  0
 56 69  2  0  0  0
 57 58  2  0  0  0
 57130  1  0  0  0
 58131  1  0  0  0
 59 60  1  0  0  0
 59 61  1  0  0  0
 59 62  1  0  0  0
 60132  1  0  0  0
 60133  1  0  0  0
 60134  1  0  0  0
 61135  1  0  0  0
 61136  1  0  0  0
 61137  1  0  0  0
 62138  1  0  0  0
 62139  1  0  0  0
 62140  1  0  0  0
 63 65  1  0  0  0
 63141  1  0  0  0
 63142  1  0  0  0
 63143  1  0  0  0
 64144  1  0  0  0
 65145  1  0  0  0
 68 82  1  0  0  0
 71 72  1  0  0  0
 71 73  2  0  0  0
 71146  1  0  0  0
 72 74  2  0  0  0
 72 79  1  0  0  0
 73 83  1  0  0  0
 73 85  1  0  0  0
 74 75  1  0  0  0
 74 85  1  0  0  0
 75147  1  0  0  0
 75148  1  0  0  0
 75149  1  0  0  0
 76150  1  0  0  0
 76151  1  0  0  0
 76152  1  0  0  0
 76 83  1  0  0  0
 77153  1  0  0  0
 77154  1  0  0  0
 77155  1  0  0  0
 77 84  1  0  0  0
 78 84  1  0  0  0
 78156  1  0  0  0
 78157  1  0  0  0
 78158  1  0  0  0
 79 80  1  0  0  0
 79159  1  0  0  0
 79160  1  0  0  0
 80 81  1  0  0  0
 80161  1  0  0  0
 80162  1  0  0  0
 81 82  1  0  0  0
 81163  1  0  0  0
 81164  1  0  0  0
 82165  1  0  0  0
 82166  1  0  0  0
 83 86  1  0  0  0
 83167  1  0  0  0
 84 85  1  0  0  0
 84168  1  0  0  0
 86169  1  0  0  0
M  ISO  4   1 100  68 101  82 101  86 100
M  END
> <chiral flag>
0

> <version>
0

> <s_m_source_file>
/data/baiqing/PycharmProjects/Reinvent-master-3.2/result/LINK_invent/BTK/process_docking_weight1_custom_sum_contain_oxygen_bond_distance_aromatic_linkinvent_7_9_3/rearranged_h_0085.sdf

> <i_m_source_file_index>
28

> <r_mmod_Potential_Energy-OPLS-2005>
99.7856750488281

> <r_mmod_Stretch_Energy-OPLS-2005>
107.78539276123

> <r_mmod_Bend_Energy-OPLS-2005>
189.840423583984

> <r_mmod_Torsional_Energy-OPLS-2005>
267.154235839844

> <r_mmod_Improper_Torsional_Energy-OPLS-2005>
3.47759199142456

> <r_mmod_Van_der_Waal_Energy-OPLS-2005>
120.575553894043

> <r_mmod_Electrostatic_Energy-OPLS-2005>
-456.522125244141

> <r_mmod_Solvation_Energy-OPLS-2005>
-196.230102539062

> <b_mmod_Minimization_Converged-OPLS-2005>
0

> <r_mmod_RMS_Derivative-OPLS-2005>
16.4793167114258

$$$$
29
                    3D
 Structure written by MMmdl.
169177  0  0  1  0            999 V2000
  -30.6476  -14.5291   20.5441 C   0  0  0  0  0  0
  -30.4210  -12.3286   19.4367 C   0  0  0  0  0  0
  -29.4960  -12.5117   18.2138 C   0  0  0  0  0  0
  -28.0152  -12.3687   18.6205 C   0  0  0  0  0  0
  -27.6580  -13.2027   19.8796 C   0  0  2  0  0  0
  -28.6979  -12.9909   21.0041 C   0  0  0  0  0  0
  -25.2569  -13.8092   20.5684 C   0  0  0  0  0  0
  -24.1826  -13.0395   20.9190 C   0  0  0  0  0  0
  -24.6391  -11.6853   20.8750 C   0  0  0  0  0  0
  -23.9033  -10.4269   21.0397 C   0  0  0  0  0  0
  -24.3569   -9.4200   21.9194 C   0  0  0  0  0  0
  -23.6256   -8.2228   22.0760 C   0  0  0  0  0  0
  -22.4231   -8.0270   21.3551 C   0  0  0  0  0  0
  -21.9858   -9.0240   20.4638 C   0  0  0  0  0  0
  -22.7193  -10.2125   20.3062 C   0  0  0  0  0  0
  -21.6842   -6.0726   22.5268 C   0  0  0  0  0  0
  -21.4007   -6.5637   23.8205 C   0  0  0  0  0  0
  -21.3670   -5.6790   24.9174 C   0  0  0  0  0  0
  -21.6046   -4.3053   24.7215 C   0  0  0  0  0  0
  -21.8823   -3.8143   23.4337 C   0  0  0  0  0  0
  -21.9185   -4.6951   22.3394 C   0  0  0  0  0  0
  -22.7851  -13.5205   21.1863 C   0  0  0  0  0  0
  -22.1652   -4.2148   21.0969 F   0  0  0  0  0  0
  -21.5632   -3.4546   25.7730 F   0  0  0  0  0  0
  -30.0258  -13.3183   20.4534 N   0  0  0  0  0  0
  -26.2993  -12.9264   20.3360 N   0  0  0  0  0  0
  -25.9312  -11.6424   20.5743 N   0  0  0  0  0  0
  -22.0448  -12.8251   22.0400 N   0  0  0  0  0  0
  -25.4314  -15.1827   20.4099 N   0  0  0  0  0  0
  -31.7795  -14.7293   20.0889 O   0  0  0  0  0  0
  -21.6612   -6.8868   21.4229 O   0  0  0  0  0  0
  -22.3575  -14.5532   20.6705 O   0  0  0  0  0  0
  -24.6204  -31.8638   23.2032 C   0  0  0  0  0  0
  -25.9062  -32.4789   23.8368 C   0  0  1  0  0  0
  -27.2506  -27.3967   20.0960 C   0  0  0  0  0  0
  -25.5902  -33.8577   24.2291 N   0  0  0  0  0  0
  -23.4111  -30.4823   21.5436 C   0  0  2  0  0  0
  -24.8577  -28.9350   20.1144 C   0  0  0  0  0  0
  -22.7451  -29.4659   22.5001 C   0  0  0  0  0  0
  -18.0292  -28.1329   22.8444 C   0  0  0  0  0  0
  -24.1481  -36.7310   23.2631 C   0  0  0  0  0  0
  -25.9413  -30.8144   21.3626 C   0  0  0  0  0  0
  -26.0161  -29.4412   20.7172 C   0  0  0  0  0  0
  -27.2067  -28.6750   20.7102 C   0  0  0  0  0  0
  -26.0674  -26.9106   19.4926 C   0  0  0  0  0  0
  -24.8828  -27.6732   19.4955 C   0  0  0  0  0  0
  -23.6165  -29.7982   20.1623 C   0  0  0  0  0  0
  -25.4106  -36.3113   24.0331 C   0  0  1  0  0  0
  -20.5887  -28.3616   23.1240 C   0  0  2  0  0  0
  -20.6831  -26.9388   22.5266 C   0  0  0  0  0  0
  -19.5780  -26.6378   21.5094 C   0  0  0  0  0  0
  -18.1938  -26.7917   22.1466 C   0  0  0  0  0  0
  -19.1542  -28.8776   23.2841 C   0  0  0  0  0  0
  -18.9485  -30.1376   23.8846 C   0  0  0  0  0  0
  -17.6503  -30.6520   24.0529 C   0  0  0  0  0  0
  -25.9036  -34.9459   23.5099 C   0  0  0  0  0  0
  -16.5366  -29.9041   23.6299 C   0  0  0  0  0  0
  -16.7287  -28.6459   23.0313 C   0  0  0  0  0  0
  -26.4485  -31.6599   25.0723 C   0  0  0  0  0  0
  -25.3723  -31.3717   26.1452 C   0  0  0  0  0  0
  -27.0332  -30.3036   24.6128 C   0  0  0  0  0  0
  -27.6073  -32.4321   25.7474 C   0  0  0  0  0  0
  -27.5578  -37.1806   24.8460 C   0  0  0  0  0  0
  -21.4178  -29.3033   22.3712 N   0  0  0  0  0  0
  -26.4299  -37.3791   23.9401 N   0  0  0  0  0  0
  -24.6759  -31.0715   22.0932 N   0  0  0  0  0  0
  -23.4198  -28.8216   23.3065 O   0  0  0  0  0  0
  -28.4459  -26.6882   20.1223 O   0  0  0  0  0  0
  -26.5620  -34.8937   22.4668 O   0  0  0  0  0  0
  -23.5394  -32.1383   23.7408 O   0  0  0  0  0  0
  -29.2670  -20.3907   20.6313 C   0  0  0  0  0  0
  -28.4426  -21.5435   20.5263 C   0  0  0  0  0  0
  -28.8023  -19.3276   21.4528 C   0  0  0  0  0  0
  -26.9758  -20.6157   22.0104 C   0  0  0  0  0  0
  -28.4706  -22.4429   24.3719 C   0  0  0  0  0  0
  -29.1494  -17.1865   19.2585 C   0  0  0  0  0  0
  -28.7237  -22.7770   19.6520 C   0  0  0  0  0  0
  -29.5425  -17.9846   21.7324 C   0  0  0  0  0  0
  -25.7885  -20.8662   22.9228 C   0  0  0  0  0  0
  -27.0986  -21.9854   24.8921 C   0  0  0  0  0  0
  -28.5069  -24.1597   20.3688 C   0  0  0  0  0  0
  -25.9682  -22.0920   23.8489 C   0  0  0  0  0  0
  -28.6211  -25.4155   19.4523 C   0  0  0  0  0  0
  -29.9337  -16.9937   20.5712 C   0  0  1  0  0  0
  -27.2763  -21.6008   21.1819 N   0  0  0  0  0  0
  -27.6607  -19.4877   22.1570 N   0  0  0  0  0  0
  -29.8582  -15.5506   20.9600 N   0  0  0  0  0  0
  -31.4661  -12.4333   19.1448 H   0  0  0  0  0  0
  -30.3170  -11.3203   19.8377 H   0  0  0  0  0  0
  -29.7385  -11.7864   17.4371 H   0  0  0  0  0  0
  -29.6597  -13.4945   17.7695 H   0  0  0  0  0  0
  -27.8241  -11.3111   18.8089 H   0  0  0  0  0  0
  -27.3638  -12.6477   17.7898 H   0  0  0  0  0  0
  -27.6957  -14.2496   19.5792 H   0  0  0  0  0  0
  -28.6822  -11.9515   21.3364 H   0  0  0  0  0  0
  -28.4551  -13.5797   21.8900 H   0  0  0  0  0  0
  -25.2723   -9.5670   22.4775 H   0  0  0  0  0  0
  -23.9959   -7.4612   22.7479 H   0  0  0  0  0  0
  -21.0802   -8.8782   19.8941 H   0  0  0  0  0  0
  -22.3672  -10.9668   19.6181 H   0  0  0  0  0  0
  -21.2007   -7.6151   23.9715 H   0  0  0  0  0  0
  -21.1481   -6.0520   25.9084 H   0  0  0  0  0  0
  -22.0585   -2.7601   23.2827 H   0  0  0  0  0  0
  -22.3999  -11.9928   22.4875 H   0  0  0  0  0  0
  -21.1080  -13.1321   22.2557 H   0  0  0  0  0  0
  -24.6695  -15.8375   20.5451 H   0  0  0  0  0  0
  -26.2907  -15.6270   20.1092 H   0  0  0  0  0  0
  -26.7113  -32.5500   23.1128 H   0  0  0  0  0  0
  -25.0096  -33.9709   25.0469 H   0  0  0  0  0  0
  -22.7041  -31.2995   21.3933 H   0  0  0  0  0  0
  -23.3751  -35.9637   23.3322 H   0  0  0  0  0  0
  -24.3567  -36.8907   22.2045 H   0  0  0  0  0  0
  -23.7239  -37.6512   23.6638 H   0  0  0  0  0  0
  -26.0485  -31.5739   20.5862 H   0  0  0  0  0  0
  -26.8303  -30.8757   21.9786 H   0  0  0  0  0  0
  -28.1041  -29.0557   21.1745 H   0  0  0  0  0  0
  -26.0337  -25.9453   19.0151 H   0  0  0  0  0  0
  -23.9953  -27.2861   19.0112 H   0  0  0  0  0  0
  -23.7025  -30.5571   19.3831 H   0  0  0  0  0  0
  -22.7491  -29.1959   19.8877 H   0  0  0  0  0  0
  -25.1285  -36.1971   25.0829 H   0  0  0  0  0  0
  -20.9938  -28.3137   24.1371 H   0  0  0  0  0  0
  -20.5882  -26.2164   23.3394 H   0  0  0  0  0  0
  -21.6667  -26.7553   22.0922 H   0  0  0  0  0  0
  -19.6931  -25.6310   21.1061 H   0  0  0  0  0  0
  -19.6681  -27.3207   20.6654 H   0  0  0  0  0  0
  -17.4262  -26.6807   21.3772 H   0  0  0  0  0  0
  -18.0189  -25.9954   22.8723 H   0  0  0  0  0  0
  -19.7968  -30.7182   24.2183 H   0  0  0  0  0  0
  -17.5077  -31.6202   24.5115 H   0  0  0  0  0  0
  -15.5366  -30.2960   23.7595 H   0  0  0  0  0  0
  -15.8692  -28.0781   22.6989 H   0  0  0  0  0  0
  -24.5887  -30.7076   25.7768 H   0  0  0  0  0  0
  -24.8921  -32.2883   26.4892 H   0  0  0  0  0  0
  -25.8039  -30.8879   27.0213 H   0  0  0  0  0  0
  -26.2890  -29.6785   24.1176 H   0  0  0  0  0  0
  -27.4085  -29.7283   25.4599 H   0  0  0  0  0  0
  -27.8732  -30.4350   23.9299 H   0  0  0  0  0  0
  -27.2700  -33.3601   26.2087 H   0  0  0  0  0  0
  -28.3865  -32.6888   25.0286 H   0  0  0  0  0  0
  -28.0772  -31.8422   26.5356 H   0  0  0  0  0  0
  -28.2605  -38.0092   24.7512 H   0  0  0  0  0  0
  -28.1058  -36.2621   24.6286 H   0  0  0  0  0  0
  -27.2289  -37.1476   25.8860 H   0  0  0  0  0  0
  -20.9384  -29.8687   21.6841 H   0  0  0  0  0  0
  -26.0200  -38.2864   24.1395 H   0  0  0  0  0  0
  -30.2058  -20.3168   20.0928 H   0  0  0  0  0  0
  -29.1876  -22.5060   25.1897 H   0  0  0  0  0  0
  -28.4147  -23.4301   23.9128 H   0  0  0  0  0  0
  -28.8793  -21.7580   23.6309 H   0  0  0  0  0  0
  -29.1251  -18.2297   18.9478 H   0  0  0  0  0  0
  -28.1194  -16.8368   19.3340 H   0  0  0  0  0  0
  -29.6303  -16.6374   18.4484 H   0  0  0  0  0  0
  -28.0858  -22.7056   18.7721 H   0  0  0  0  0  0
  -29.7429  -22.7157   19.2706 H   0  0  0  0  0  0
  -28.9120  -17.4276   22.4288 H   0  0  0  0  0  0
  -30.4379  -18.2197   22.3065 H   0  0  0  0  0  0
  -25.5841  -19.9744   23.5218 H   0  0  0  0  0  0
  -24.9144  -21.0251   22.2922 H   0  0  0  0  0  0
  -26.8397  -22.6240   25.7378 H   0  0  0  0  0  0
  -27.1550  -20.9712   25.2974 H   0  0  0  0  0  0
  -29.2174  -24.2369   21.1925 H   0  0  0  0  0  0
  -27.5193  -24.1814   20.8296 H   0  0  0  0  0  0
  -25.0274  -22.2395   24.3807 H   0  0  0  0  0  0
  -26.1058  -22.9924   23.2412 H   0  0  0  0  0  0
  -29.6360  -25.4388   19.0539 H   0  0  0  0  0  0
  -27.9930  -25.3179   18.5646 H   0  0  0  0  0  0
  -30.9716  -17.2285   20.3299 H   0  0  0  0  0  0
  -28.9812  -15.2514   21.3624 H   0  0  0  0  0  0
  1 25  1  0  0  0
  1 30  2  0  0  0
  1 87  1  0  0  0
  2  3  1  0  0  0
  2 25  1  0  0  0
  2 88  1  0  0  0
  2 89  1  0  0  0
  3  4  1  0  0  0
  3 90  1  0  0  0
  3 91  1  0  0  0
  4  5  1  0  0  0
  4 92  1  0  0  0
  4 93  1  0  0  0
  5  6  1  0  0  0
  5 26  1  0  0  0
  5 94  1  0  0  0
  6 25  1  0  0  0
  6 95  1  0  0  0
  6 96  1  0  0  0
  7  8  2  0  0  0
  7 26  1  0  0  0
  7 29  1  0  0  0
  8  9  1  0  0  0
  8 22  1  0  0  0
  9 10  1  0  0  0
  9 27  2  0  0  0
 10 11  2  0  0  0
 10 15  1  0  0  0
 11 12  1  0  0  0
 11 97  1  0  0  0
 12 13  2  0  0  0
 12 98  1  0  0  0
 13 14  1  0  0  0
 13 31  1  0  0  0
 14 15  2  0  0  0
 14 99  1  0  0  0
 15100  1  0  0  0
 16 17  2  0  0  0
 16 21  1  0  0  0
 16 31  1  0  0  0
 17 18  1  0  0  0
 17101  1  0  0  0
 18 19  2  0  0  0
 18102  1  0  0  0
 19 20  1  0  0  0
 19 24  1  0  0  0
 20 21  2  0  0  0
 20103  1  0  0  0
 21 23  1  0  0  0
 22 28  1  0  0  0
 22 32  2  0  0  0
 26 27  1  0  0  0
 28104  1  0  0  0
 28105  1  0  0  0
 29106  1  0  0  0
 29107  1  0  0  0
 33 34  1  0  0  0
 33 66  1  0  0  0
 33 70  2  0  0  0
 34 36  1  0  0  0
 34 59  1  0  0  0
 34108  1  0  0  0
 35 44  2  0  0  0
 35 45  1  0  0  0
 35 68  1  0  0  0
 36 56  1  0  0  0
 36109  1  0  0  0
 37 39  1  0  0  0
 37 47  1  0  0  0
 37 66  1  0  0  0
 37110  1  0  0  0
 38 43  2  0  0  0
 38 46  1  0  0  0
 38 47  1  0  0  0
 39 64  1  0  0  0
 39 67  2  0  0  0
 40 52  1  0  0  0
 40 53  2  0  0  0
 40 58  1  0  0  0
 41111  1  0  0  0
 41112  1  0  0  0
 41113  1  0  0  0
 41 48  1  0  0  0
 42 43  1  0  0  0
 42 66  1  0  0  0
 42114  1  0  0  0
 42115  1  0  0  0
 43 44  1  0  0  0
 44116  1  0  0  0
 45 46  2  0  0  0
 45117  1  0  0  0
 46118  1  0  0  0
 47119  1  0  0  0
 47120  1  0  0  0
 48 56  1  0  0  0
 48 65  1  0  0  0
 48121  1  0  0  0
 49 50  1  0  0  0
 49 53  1  0  0  0
 49 64  1  0  0  0
 49122  1  0  0  0
 50 51  1  0  0  0
 50123  1  0  0  0
 50124  1  0  0  0
 51 52  1  0  0  0
 51125  1  0  0  0
 51126  1  0  0  0
 52127  1  0  0  0
 52128  1  0  0  0
 53 54  1  0  0  0
 54 55  2  0  0  0
 54129  1  0  0  0
 55 57  1  0  0  0
 55130  1  0  0  0
 56 69  2  0  0  0
 57 58  2  0  0  0
 57131  1  0  0  0
 58132  1  0  0  0
 59 60  1  0  0  0
 59 61  1  0  0  0
 59 62  1  0  0  0
 60133  1  0  0  0
 60134  1  0  0  0
 60135  1  0  0  0
 61136  1  0  0  0
 61137  1  0  0  0
 61138  1  0  0  0
 62139  1  0  0  0
 62140  1  0  0  0
 62141  1  0  0  0
 63 65  1  0  0  0
 63142  1  0  0  0
 63143  1  0  0  0
 63144  1  0  0  0
 64145  1  0  0  0
 65146  1  0  0  0
 68 83  1  0  0  0
 71 72  2  0  0  0
 71 73  1  0  0  0
 71147  1  0  0  0
 72 77  1  0  0  0
 72 85  1  0  0  0
 73 78  1  0  0  0
 73 86  2  0  0  0
 74 79  1  0  0  0
 74 85  2  0  0  0
 74 86  1  0  0  0
 75 80  1  0  0  0
 75148  1  0  0  0
 75149  1  0  0  0
 75150  1  0  0  0
 76151  1  0  0  0
 76152  1  0  0  0
 76153  1  0  0  0
 76 84  1  0  0  0
 77 81  1  0  0  0
 77154  1  0  0  0
 77155  1  0  0  0
 78 84  1  0  0  0
 78156  1  0  0  0
 78157  1  0  0  0
 79 82  1  0  0  0
 79158  1  0  0  0
 79159  1  0  0  0
 80 82  1  0  0  0
 80160  1  0  0  0
 80161  1  0  0  0
 81 83  1  0  0  0
 81162  1  0  0  0
 81163  1  0  0  0
 82164  1  0  0  0
 82165  1  0  0  0
 83166  1  0  0  0
 83167  1  0  0  0
 84 87  1  0  0  0
 84168  1  0  0  0
 87169  1  0  0  0
M  ISO  4   1 100  68 101  83 101  87 100
M  END
> <chiral flag>
0

> <version>
0

> <s_m_source_file>
/data/baiqing/PycharmProjects/Reinvent-master-3.2/result/LINK_invent/BTK/process_docking_weight1_custom_sum_contain_oxygen_bond_distance_aromatic_linkinvent_7_9_3/rearranged_h_0085.sdf

> <i_m_source_file_index>
29

> <r_mmod_Potential_Energy-OPLS-2005>
-384.386199951172

> <r_mmod_Stretch_Energy-OPLS-2005>
51.3646850585938

> <r_mmod_Bend_Energy-OPLS-2005>
135.394027709961

> <r_mmod_Torsional_Energy-OPLS-2005>
199.288314819336

> <r_mmod_Improper_Torsional_Energy-OPLS-2005>
6.38931941986084

> <r_mmod_Van_der_Waal_Energy-OPLS-2005>
144.878311157227

> <r_mmod_Electrostatic_Energy-OPLS-2005>
-716.862854003906

> <r_mmod_Solvation_Energy-OPLS-2005>
-224.529159545898

> <b_mmod_Minimization_Converged-OPLS-2005>
0

> <r_mmod_RMS_Derivative-OPLS-2005>
5.30287981033325

$$$$
30
                    3D
 Structure written by MMmdl.
161169  0  0  1  0            999 V2000
  -30.7492  -14.4241   20.5963 C   0  0  0  0  0  0
  -30.4079  -12.2773   19.4323 C   0  0  0  0  0  0
  -29.4946  -12.5372   18.2180 C   0  0  0  0  0  0
  -28.0157  -12.3947   18.6285 C   0  0  0  0  0  0
  -27.6705  -13.2239   19.8935 C   0  0  2  0  0  0
  -28.7124  -12.9955   21.0166 C   0  0  0  0  0  0
  -25.2628  -13.8194   20.5715 C   0  0  0  0  0  0
  -24.1882  -13.0425   20.9173 C   0  0  0  0  0  0
  -24.6501  -11.6923   20.8815 C   0  0  0  0  0  0
  -23.9180  -10.4281   21.0448 C   0  0  0  0  0  0
  -24.3694   -9.4167   21.9228 C   0  0  0  0  0  0
  -23.6316   -8.2226   22.0787 C   0  0  0  0  0  0
  -22.4294   -8.0286   21.3571 C   0  0  0  0  0  0
  -21.9978   -9.0291   20.4688 C   0  0  0  0  0  0
  -22.7355  -10.2143   20.3096 C   0  0  0  0  0  0
  -21.6853   -6.0736   22.5295 C   0  0  0  0  0  0
  -21.3998   -6.5633   23.8230 C   0  0  0  0  0  0
  -21.3677   -5.6798   24.9204 C   0  0  0  0  0  0
  -21.6047   -4.3058   24.7270 C   0  0  0  0  0  0
  -21.8806   -3.8144   23.4390 C   0  0  0  0  0  0
  -21.9187   -4.6953   22.3436 C   0  0  0  0  0  0
  -22.7899  -13.5196   21.1848 C   0  0  0  0  0  0
  -22.1642   -4.2129   21.1020 F   0  0  0  0  0  0
  -21.5690   -3.4550   25.7788 F   0  0  0  0  0  0
  -30.0520  -13.2649   20.4634 N   0  0  0  0  0  0
  -26.3115  -12.9423   20.3505 N   0  0  0  0  0  0
  -25.9442  -11.6560   20.5876 N   0  0  0  0  0  0
  -22.0587  -12.8150   22.0419 N   0  0  0  0  0  0
  -25.4289  -15.1898   20.4071 N   0  0  0  0  0  0
  -31.8213  -14.6337   20.0254 O   0  0  0  0  0  0
  -21.6628   -6.8896   21.4260 O   0  0  0  0  0  0
  -22.3556  -14.5508   20.6743 O   0  0  0  0  0  0
  -24.6124  -31.8676   23.2098 C   0  0  0  0  0  0
  -25.9001  -32.4828   23.8398 C   0  0  1  0  0  0
  -27.2440  -27.4505   20.0838 C   0  0  0  0  0  0
  -25.5851  -33.8613   24.2343 N   0  0  0  0  0  0
  -23.4018  -30.4885   21.5503 C   0  0  2  0  0  0
  -24.8505  -28.9600   20.1115 C   0  0  0  0  0  0
  -22.7399  -29.4658   22.5014 C   0  0  0  0  0  0
  -18.0252  -28.1391   22.8466 C   0  0  0  0  0  0
  -24.1464  -36.7341   23.2634 C   0  0  0  0  0  0
  -25.9292  -30.8402   21.3597 C   0  0  0  0  0  0
  -26.0098  -29.4740   20.7056 C   0  0  0  0  0  0
  -27.2117  -28.7287   20.6854 C   0  0  0  0  0  0
  -26.0725  -26.9575   19.4663 C   0  0  0  0  0  0
  -24.8767  -27.7013   19.4870 C   0  0  0  0  0  0
  -23.6066  -29.8172   20.1683 C   0  0  0  0  0  0
  -25.4080  -36.3116   24.0347 C   0  0  1  0  0  0
  -20.5849  -28.3676   23.1319 C   0  0  2  0  0  0
  -20.6737  -26.9414   22.5414 C   0  0  0  0  0  0
  -19.5730  -26.6391   21.5194 C   0  0  0  0  0  0
  -18.1907  -26.7933   22.1619 C   0  0  0  0  0  0
  -19.1506  -28.8848   23.2885 C   0  0  0  0  0  0
  -18.9426  -30.1449   23.8900 C   0  0  0  0  0  0
  -17.6438  -30.6583   24.0557 C   0  0  0  0  0  0
  -25.9003  -34.9482   23.5146 C   0  0  0  0  0  0
  -16.5323  -29.9086   23.6331 C   0  0  0  0  0  0
  -16.7247  -28.6516   23.0318 C   0  0  0  0  0  0
  -26.4436  -31.6588   25.0721 C   0  0  0  0  0  0
  -25.3691  -31.3672   26.1480 C   0  0  0  0  0  0
  -27.0283  -30.3024   24.6076 C   0  0  0  0  0  0
  -27.6016  -32.4321   25.7460 C   0  0  0  0  0  0
  -27.5582  -37.1803   24.8456 C   0  0  0  0  0  0
  -21.4131  -29.3057   22.3772 N   0  0  0  0  0  0
  -26.4280  -37.3797   23.9411 N   0  0  0  0  0  0
  -24.6660  -31.0761   22.1009 N   0  0  0  0  0  0
  -23.4176  -28.8207   23.3057 O   0  0  0  0  0  0
  -28.4112  -26.7134   20.0995 O   0  0  0  0  0  0
  -26.5571  -34.8927   22.4708 O   0  0  0  0  0  0
  -23.5308  -32.1488   23.7439 O   0  0  0  0  0  0
  -30.0417  -20.0547   19.4452 C   0  0  0  0  0  0
  -30.1547  -19.1711   20.4864 C   0  0  0  0  0  0
  -28.8423  -24.8588   18.0803 C   0  0  0  0  0  0
  -27.7989  -23.0883   19.5277 C   0  0  0  0  0  0
  -29.6917  -17.7344   20.5715 C   0  0  0  0  0  0
  -30.2008  -23.7618   19.9481 C   0  0  0  0  0  0
  -30.7822  -22.5042   19.2335 C   0  0  0  0  0  0
  -30.5981  -16.7908   21.4047 C   0  0  0  0  0  0
  -28.2784  -25.3463   20.5256 C   0  0  0  0  0  0
  -28.7897  -24.2699   19.5104 C   0  0  0  0  0  0
  -30.7114  -19.8560   21.5679 N   0  0  0  0  0  0
  -31.0025  -21.0702   21.2100 N   0  0  0  0  0  0
  -30.5658  -21.2365   19.9344 N   0  0  0  0  0  0
  -30.1599  -15.3841   21.3231 N   0  0  0  0  0  0
  -31.4606  -12.3272   19.1464 H   0  0  0  0  0  0
  -30.2539  -11.2636   19.8124 H   0  0  0  0  0  0
  -29.7300  -11.8488   17.4067 H   0  0  0  0  0  0
  -29.6785  -13.5398   17.8339 H   0  0  0  0  0  0
  -27.8291  -11.3381   18.8209 H   0  0  0  0  0  0
  -27.3584  -12.6737   17.8034 H   0  0  0  0  0  0
  -27.7136  -14.2739   19.6013 H   0  0  0  0  0  0
  -28.6685  -11.9651   21.3701 H   0  0  0  0  0  0
  -28.4835  -13.6068   21.8931 H   0  0  0  0  0  0
  -25.2854   -9.5572   22.4808 H   0  0  0  0  0  0
  -24.0002   -7.4591   22.7493 H   0  0  0  0  0  0
  -21.0917   -8.8839   19.8992 H   0  0  0  0  0  0
  -22.3849  -10.9688   19.6197 H   0  0  0  0  0  0
  -21.1926   -7.6127   23.9728 H   0  0  0  0  0  0
  -21.1542   -6.0539   25.9117 H   0  0  0  0  0  0
  -22.0567   -2.7602   23.2906 H   0  0  0  0  0  0
  -22.4169  -11.9691   22.4602 H   0  0  0  0  0  0
  -21.1284  -13.1226   22.2839 H   0  0  0  0  0  0
  -24.6616  -15.8470   20.4994 H   0  0  0  0  0  0
  -26.2905  -15.6334   20.1175 H   0  0  0  0  0  0
  -26.7081  -32.5535   23.1182 H   0  0  0  0  0  0
  -24.9966  -33.9764   25.0464 H   0  0  0  0  0  0
  -22.6909  -31.3042   21.4056 H   0  0  0  0  0  0
  -23.3727  -35.9674   23.3293 H   0  0  0  0  0  0
  -24.3560  -36.8958   22.2055 H   0  0  0  0  0  0
  -23.7242  -37.6545   23.6660 H   0  0  0  0  0  0
  -26.0299  -31.6090   20.5920 H   0  0  0  0  0  0
  -26.8224  -30.9026   21.9688 H   0  0  0  0  0  0
  -28.1099  -29.1180   21.1405 H   0  0  0  0  0  0
  -26.0775  -25.9988   18.9624 H   0  0  0  0  0  0
  -23.9905  -27.3039   19.0133 H   0  0  0  0  0  0
  -23.7020  -30.5894   19.4055 H   0  0  0  0  0  0
  -22.7358  -29.2249   19.8806 H   0  0  0  0  0  0
  -25.1252  -36.1998   25.0848 H   0  0  0  0  0  0
  -20.9897  -28.3224   24.1454 H   0  0  0  0  0  0
  -20.5596  -26.2285   23.3597 H   0  0  0  0  0  0
  -21.6606  -26.7433   22.1224 H   0  0  0  0  0  0
  -19.6881  -25.6293   21.1231 H   0  0  0  0  0  0
  -19.6654  -27.3191   20.6714 H   0  0  0  0  0  0
  -17.4153  -26.6639   21.4040 H   0  0  0  0  0  0
  -18.0326  -26.0091   22.9042 H   0  0  0  0  0  0
  -19.7908  -30.7249   24.2287 H   0  0  0  0  0  0
  -17.4995  -31.6256   24.5170 H   0  0  0  0  0  0
  -15.5332  -30.2974   23.7668 H   0  0  0  0  0  0
  -15.8651  -28.0845   22.7016 H   0  0  0  0  0  0
  -24.5897  -30.6974   25.7842 H   0  0  0  0  0  0
  -24.8833  -32.2808   26.4909 H   0  0  0  0  0  0
  -25.8065  -30.8889   27.0255 H   0  0  0  0  0  0
  -26.2851  -29.6764   24.1134 H   0  0  0  0  0  0
  -27.4086  -29.7265   25.4521 H   0  0  0  0  0  0
  -27.8652  -30.4359   23.9218 H   0  0  0  0  0  0
  -27.2653  -33.3645   26.1999 H   0  0  0  0  0  0
  -28.3819  -32.6841   25.0269 H   0  0  0  0  0  0
  -28.0692  -31.8475   26.5387 H   0  0  0  0  0  0
  -28.2582  -38.0112   24.7520 H   0  0  0  0  0  0
  -28.1096  -36.2655   24.6259 H   0  0  0  0  0  0
  -27.2294  -37.1425   25.8849 H   0  0  0  0  0  0
  -20.9311  -29.8823   21.7019 H   0  0  0  0  0  0
  -26.0188  -38.2872   24.1418 H   0  0  0  0  0  0
  -29.6446  -19.9546   18.4420 H   0  0  0  0  0  0
  -29.5861  -25.6515   17.9994 H   0  0  0  0  0  0
  -27.8877  -25.2946   17.7848 H   0  0  0  0  0  0
  -29.0913  -24.1002   17.3399 H   0  0  0  0  0  0
  -28.0238  -22.3557   18.7543 H   0  0  0  0  0  0
  -26.7707  -23.4179   19.3722 H   0  0  0  0  0  0
  -27.8355  -22.5653   20.4837 H   0  0  0  0  0  0
  -29.6250  -17.3340   19.5592 H   0  0  0  0  0  0
  -28.6751  -17.7045   20.9623 H   0  0  0  0  0  0
  -30.9080  -24.5808   19.8121 H   0  0  0  0  0  0
  -30.2017  -23.5829   21.0227 H   0  0  0  0  0  0
  -31.8618  -22.6166   19.1369 H   0  0  0  0  0  0
  -30.4068  -22.4169   18.2141 H   0  0  0  0  0  0
  -30.5798  -17.0910   22.4527 H   0  0  0  0  0  0
  -31.6385  -16.8941   21.0855 H   0  0  0  0  0  0
  -28.8217  -25.2604   21.4666 H   0  0  0  0  0  0
  -27.2532  -25.1228   20.8280 H   0  0  0  0  0  0
  -29.3117  -15.1253   21.8084 H   0  0  0  0  0  0
  1 25  1  0  0  0
  1 30  2  0  0  0
  1 84  1  0  0  0
  2  3  1  0  0  0
  2 25  1  0  0  0
  2 85  1  0  0  0
  2 86  1  0  0  0
  3  4  1  0  0  0
  3 87  1  0  0  0
  3 88  1  0  0  0
  4  5  1  0  0  0
  4 89  1  0  0  0
  4 90  1  0  0  0
  5  6  1  0  0  0
  5 26  1  0  0  0
  5 91  1  0  0  0
  6 25  1  0  0  0
  6 92  1  0  0  0
  6 93  1  0  0  0
  7  8  2  0  0  0
  7 26  1  0  0  0
  7 29  1  0  0  0
  8  9  1  0  0  0
  8 22  1  0  0  0
  9 10  1  0  0  0
  9 27  2  0  0  0
 10 11  2  0  0  0
 10 15  1  0  0  0
 11 12  1  0  0  0
 11 94  1  0  0  0
 12 13  2  0  0  0
 12 95  1  0  0  0
 13 14  1  0  0  0
 13 31  1  0  0  0
 14 15  2  0  0  0
 14 96  1  0  0  0
 15 97  1  0  0  0
 16 17  2  0  0  0
 16 21  1  0  0  0
 16 31  1  0  0  0
 17 18  1  0  0  0
 17 98  1  0  0  0
 18 19  2  0  0  0
 18 99  1  0  0  0
 19 20  1  0  0  0
 19 24  1  0  0  0
 20 21  2  0  0  0
 20100  1  0  0  0
 21 23  1  0  0  0
 22 28  1  0  0  0
 22 32  2  0  0  0
 26 27  1  0  0  0
 28101  1  0  0  0
 28102  1  0  0  0
 29103  1  0  0  0
 29104  1  0  0  0
 33 34  1  0  0  0
 33 66  1  0  0  0
 33 70  2  0  0  0
 34 36  1  0  0  0
 34 59  1  0  0  0
 34105  1  0  0  0
 35 44  2  0  0  0
 35 45  1  0  0  0
 35 68  1  0  0  0
 36 56  1  0  0  0
 36106  1  0  0  0
 37 39  1  0  0  0
 37 47  1  0  0  0
 37 66  1  0  0  0
 37107  1  0  0  0
 38 43  2  0  0  0
 38 46  1  0  0  0
 38 47  1  0  0  0
 39 64  1  0  0  0
 39 67  2  0  0  0
 40 52  1  0  0  0
 40 53  2  0  0  0
 40 58  1  0  0  0
 41108  1  0  0  0
 41109  1  0  0  0
 41110  1  0  0  0
 41 48  1  0  0  0
 42 43  1  0  0  0
 42 66  1  0  0  0
 42111  1  0  0  0
 42112  1  0  0  0
 43 44  1  0  0  0
 44113  1  0  0  0
 45 46  2  0  0  0
 45114  1  0  0  0
 46115  1  0  0  0
 47116  1  0  0  0
 47117  1  0  0  0
 48 56  1  0  0  0
 48 65  1  0  0  0
 48118  1  0  0  0
 49 50  1  0  0  0
 49 53  1  0  0  0
 49 64  1  0  0  0
 49119  1  0  0  0
 50 51  1  0  0  0
 50120  1  0  0  0
 50121  1  0  0  0
 51 52  1  0  0  0
 51122  1  0  0  0
 51123  1  0  0  0
 52124  1  0  0  0
 52125  1  0  0  0
 53 54  1  0  0  0
 54 55  2  0  0  0
 54126  1  0  0  0
 55 57  1  0  0  0
 55127  1  0  0  0
 56 69  2  0  0  0
 57 58  2  0  0  0
 57128  1  0  0  0
 58129  1  0  0  0
 59 60  1  0  0  0
 59 61  1  0  0  0
 59 62  1  0  0  0
 60130  1  0  0  0
 60131  1  0  0  0
 60132  1  0  0  0
 61133  1  0  0  0
 61134  1  0  0  0
 61135  1  0  0  0
 62136  1  0  0  0
 62137  1  0  0  0
 62138  1  0  0  0
 63 65  1  0  0  0
 63139  1  0  0  0
 63140  1  0  0  0
 63141  1  0  0  0
 64142  1  0  0  0
 65143  1  0  0  0
 68 79  1  0  0  0
 71 72  2  0  0  0
 71 83  1  0  0  0
 71144  1  0  0  0
 72 75  1  0  0  0
 72 81  1  0  0  0
 73145  1  0  0  0
 73146  1  0  0  0
 73147  1  0  0  0
 73 80  1  0  0  0
 74 80  1  0  0  0
 74148  1  0  0  0
 74149  1  0  0  0
 74150  1  0  0  0
 75 78  1  0  0  0
 75151  1  0  0  0
 75152  1  0  0  0
 76 77  1  0  0  0
 76 80  1  0  0  0
 76153  1  0  0  0
 76154  1  0  0  0
 77 83  1  0  0  0
 77155  1  0  0  0
 77156  1  0  0  0
 78 84  1  0  0  0
 78157  1  0  0  0
 78158  1  0  0  0
 79 80  1  0  0  0
 79159  1  0  0  0
 79160  1  0  0  0
 81 82  2  0  0  0
 82 83  1  0  0  0
 84161  1  0  0  0
M  ISO  4   1 100  68 101  79 101  84 100
M  END
> <chiral flag>
0

> <version>
0

> <s_m_source_file>
/data/baiqing/PycharmProjects/Reinvent-master-3.2/result/LINK_invent/BTK/process_docking_weight1_custom_sum_contain_oxygen_bond_distance_aromatic_linkinvent_7_9_3/rearranged_h_0085.sdf

> <i_m_source_file_index>
30

> <r_mmod_Potential_Energy-OPLS-2005>
-75.2696151733398

> <r_mmod_Stretch_Energy-OPLS-2005>
38.2457580566406

> <r_mmod_Bend_Energy-OPLS-2005>
102.034973144531

> <r_mmod_Torsional_Energy-OPLS-2005>
243.336761474609

> <r_mmod_Improper_Torsional_Energy-OPLS-2005>
2.85437345504761

> <r_mmod_Van_der_Waal_Energy-OPLS-2005>
134.749771118164

> <r_mmod_Electrostatic_Energy-OPLS-2005>
-384.820159912109

> <r_mmod_Solvation_Energy-OPLS-2005>
-221.582153320312

> <b_mmod_Minimization_Converged-OPLS-2005>
0

> <r_mmod_RMS_Derivative-OPLS-2005>
4.88293695449829

$$$$
31
                    3D
 Structure written by MMmdl.
160168  0  0  1  0            999 V2000
  -30.5799  -14.7285   20.4483 C   0  0  0  0  0  0
  -30.4263  -12.4442   19.4570 C   0  0  0  0  0  0
  -29.5025  -12.5296   18.2229 C   0  0  0  0  0  0
  -28.0267  -12.3527   18.6333 C   0  0  0  0  0  0
  -27.6368  -13.2299   19.8519 C   0  0  2  0  0  0
  -28.6806  -13.1337   20.9835 C   0  0  0  0  0  0
  -25.2467  -13.8212   20.5704 C   0  0  0  0  0  0
  -24.1774  -13.0450   20.9217 C   0  0  0  0  0  0
  -24.6359  -11.6933   20.8720 C   0  0  0  0  0  0
  -23.9046  -10.4313   21.0399 C   0  0  0  0  0  0
  -24.3614   -9.4228   21.9181 C   0  0  0  0  0  0
  -23.6280   -8.2263   22.0756 C   0  0  0  0  0  0
  -22.4239   -8.0300   21.3554 C   0  0  0  0  0  0
  -21.9872   -9.0288   20.4658 C   0  0  0  0  0  0
  -22.7209  -10.2171   20.3060 C   0  0  0  0  0  0
  -21.6860   -6.0720   22.5293 C   0  0  0  0  0  0
  -21.4002   -6.5619   23.8225 C   0  0  0  0  0  0
  -21.3683   -5.6794   24.9190 C   0  0  0  0  0  0
  -21.6057   -4.3050   24.7248 C   0  0  0  0  0  0
  -21.8815   -3.8118   23.4375 C   0  0  0  0  0  0
  -21.9204   -4.6929   22.3423 C   0  0  0  0  0  0
  -22.7811  -13.5214   21.1932 C   0  0  0  0  0  0
  -22.1661   -4.2122   21.0988 F   0  0  0  0  0  0
  -21.5670   -3.4526   25.7750 F   0  0  0  0  0  0
  -29.9801  -13.4928   20.4026 N   0  0  0  0  0  0
  -26.2880  -12.9417   20.3236 N   0  0  0  0  0  0
  -25.9287  -11.6563   20.5702 N   0  0  0  0  0  0
  -22.0465  -12.8181   22.0488 N   0  0  0  0  0  0
  -25.4117  -15.1947   20.4165 N   0  0  0  0  0  0
  -31.7722  -14.8489   20.1476 O   0  0  0  0  0  0
  -21.6655   -6.8854   21.4245 O   0  0  0  0  0  0
  -22.3481  -14.5518   20.6806 O   0  0  0  0  0  0
  -24.6350  -31.8567   23.2018 C   0  0  0  0  0  0
  -25.9164  -32.4762   23.8361 C   0  0  1  0  0  0
  -27.1988  -27.2596   20.1193 C   0  0  0  0  0  0
  -25.5947  -33.8557   24.2260 N   0  0  0  0  0  0
  -23.4283  -30.4882   21.5501 C   0  0  2  0  0  0
  -24.8652  -28.9384   20.1208 C   0  0  0  0  0  0
  -22.7512  -29.4651   22.4943 C   0  0  0  0  0  0
  -18.0307  -28.1374   22.8515 C   0  0  0  0  0  0
  -24.1505  -36.7276   23.2645 C   0  0  0  0  0  0
  -25.9799  -30.7740   21.3775 C   0  0  0  0  0  0
  -26.0478  -29.4013   20.7124 C   0  0  0  0  0  0
  -27.2245  -28.5836   20.6825 C   0  0  0  0  0  0
  -25.9774  -26.8553   19.5478 C   0  0  0  0  0  0
  -24.8366  -27.6731   19.5265 C   0  0  0  0  0  0
  -23.6409  -29.8300   20.1673 C   0  0  0  0  0  0
  -25.4130  -36.3070   24.0328 C   0  0  1  0  0  0
  -20.5911  -28.3689   23.1266 C   0  0  2  0  0  0
  -20.6786  -26.9410   22.5414 C   0  0  0  0  0  0
  -19.5747  -26.6385   21.5227 C   0  0  0  0  0  0
  -18.1933  -26.7930   22.1651 C   0  0  0  0  0  0
  -19.1556  -28.8853   23.2887 C   0  0  0  0  0  0
  -18.9478  -30.1453   23.8906 C   0  0  0  0  0  0
  -17.6468  -30.6580   24.0567 C   0  0  0  0  0  0
  -25.9079  -34.9434   23.5093 C   0  0  0  0  0  0
  -16.5362  -29.9073   23.6330 C   0  0  0  0  0  0
  -16.7291  -28.6489   23.0368 C   0  0  0  0  0  0
  -26.4493  -31.6585   25.0753 C   0  0  0  0  0  0
  -25.3699  -31.3735   26.1474 C   0  0  0  0  0  0
  -27.0338  -30.3012   24.6205 C   0  0  0  0  0  0
  -27.6064  -32.4319   25.7494 C   0  0  0  0  0  0
  -27.5585  -37.1804   24.8465 C   0  0  0  0  0  0
  -21.4233  -29.3046   22.3662 N   0  0  0  0  0  0
  -26.4305  -37.3764   23.9402 N   0  0  0  0  0  0
  -24.7015  -31.0565   22.0992 N   0  0  0  0  0  0
  -23.4220  -28.8182   23.3032 O   0  0  0  0  0  0
  -28.3101  -26.3856   20.0858 O   0  0  0  0  0  0
  -26.5669  -34.8907   22.4689 O   0  0  0  0  0  0
  -23.5500  -32.1376   23.7313 O   0  0  0  0  0  0
  -28.6176  -20.9236   17.4926 C   0  0  0  0  0  0
  -29.3729  -22.0195   17.8359 C   0  0  0  0  0  0
  -28.4880  -21.1825   19.6406 C   0  0  0  0  0  0
  -30.2754  -22.8361   16.9703 C   0  0  0  0  0  0
  -26.9036  -23.7942   18.3153 C   0  0  0  0  0  0
  -29.3746  -20.0815   20.3687 C   0  0  0  0  0  0
  -29.0154  -18.4796   20.3049 C   0  0  0  0  0  0
  -30.1421  -17.3353   20.5865 C   0  0  0  0  0  0
  -28.1944  -24.8894   20.3122 C   0  0  0  0  0  0
  -28.2447  -23.8378   19.0848 C   0  0  1  0  0  0
  -28.8883  -22.3961   19.0808 N   0  0  0  0  0  0
  -27.8806  -20.6126   18.5994 N   0  3  0  0  0  0
  -29.7750  -15.8477   20.6226 N   0  0  0  0  0  0
  -31.4683  -12.5705   19.1594 H   0  0  0  0  0  0
  -30.3630  -11.4579   19.9188 H   0  0  0  0  0  0
  -29.7827  -11.7749   17.4878 H   0  0  0  0  0  0
  -29.6385  -13.4955   17.7316 H   0  0  0  0  0  0
  -27.8777  -11.2975   18.8695 H   0  0  0  0  0  0
  -27.3674  -12.5744   17.7934 H   0  0  0  0  0  0
  -27.6383  -14.2588   19.4949 H   0  0  0  0  0  0
  -28.7126  -12.1249   21.4008 H   0  0  0  0  0  0
  -28.4230  -13.7978   21.8081 H   0  0  0  0  0  0
  -25.2771   -9.5740   22.4737 H   0  0  0  0  0  0
  -24.0056   -7.4647   22.7434 H   0  0  0  0  0  0
  -21.0829   -8.8761   19.8941 H   0  0  0  0  0  0
  -22.3635  -10.9710   19.6159 H   0  0  0  0  0  0
  -21.1929   -7.6115   23.9684 H   0  0  0  0  0  0
  -21.1530   -6.0548   25.9105 H   0  0  0  0  0  0
  -22.0553   -2.7574   23.2903 H   0  0  0  0  0  0
  -22.4038  -11.9825   22.4903 H   0  0  0  0  0  0
  -21.1064  -13.1205   22.2612 H   0  0  0  0  0  0
  -24.6312  -15.8360   20.5209 H   0  0  0  0  0  0
  -26.2326  -15.6321   20.0216 H   0  0  0  0  0  0
  -26.7242  -32.5365   23.1108 H   0  0  0  0  0  0
  -25.0022  -33.9687   25.0350 H   0  0  0  0  0  0
  -22.7231  -31.3109   21.4100 H   0  0  0  0  0  0
  -23.3765  -35.9612   23.3305 H   0  0  0  0  0  0
  -24.3603  -36.8898   22.2064 H   0  0  0  0  0  0
  -23.7242  -37.6472   23.6662 H   0  0  0  0  0  0
  -26.1244  -31.5406   20.6157 H   0  0  0  0  0  0
  -26.8577  -30.8130   22.0129 H   0  0  0  0  0  0
  -28.1410  -28.9501   21.1267 H   0  0  0  0  0  0
  -25.8586  -25.8839   19.1206 H   0  0  0  0  0  0
  -23.9268  -27.3035   19.0707 H   0  0  0  0  0  0
  -23.7619  -30.6079   19.4118 H   0  0  0  0  0  0
  -22.7566  -29.2665   19.8647 H   0  0  0  0  0  0
  -25.1310  -36.1943   25.0817 H   0  0  0  0  0  0
  -21.0000  -28.3286   24.1382 H   0  0  0  0  0  0
  -20.5668  -26.2330   23.3632 H   0  0  0  0  0  0
  -21.6649  -26.7432   22.1198 H   0  0  0  0  0  0
  -19.6904  -25.6297   21.1249 H   0  0  0  0  0  0
  -19.6654  -27.3207   20.6756 H   0  0  0  0  0  0
  -17.4198  -26.6700   21.4053 H   0  0  0  0  0  0
  -18.0322  -26.0059   22.9030 H   0  0  0  0  0  0
  -19.7940  -30.7278   24.2274 H   0  0  0  0  0  0
  -17.5012  -31.6263   24.5161 H   0  0  0  0  0  0
  -15.5348  -30.2971   23.7621 H   0  0  0  0  0  0
  -15.8708  -28.0783   22.7070 H   0  0  0  0  0  0
  -24.5872  -30.7093   25.7782 H   0  0  0  0  0  0
  -24.8893  -32.2914   26.4883 H   0  0  0  0  0  0
  -25.8017  -30.8916   27.0261 H   0  0  0  0  0  0
  -26.2945  -29.6788   24.1161 H   0  0  0  0  0  0
  -27.3983  -29.7219   25.4691 H   0  0  0  0  0  0
  -27.8823  -30.4307   23.9483 H   0  0  0  0  0  0
  -27.2690  -33.3614   26.2081 H   0  0  0  0  0  0
  -28.3847  -32.6890   25.0295 H   0  0  0  0  0  0
  -28.0770  -31.8450   26.5388 H   0  0  0  0  0  0
  -28.2609  -38.0093   24.7507 H   0  0  0  0  0  0
  -28.1081  -36.2630   24.6310 H   0  0  0  0  0  0
  -27.2311  -37.1467   25.8868 H   0  0  0  0  0  0
  -20.9432  -29.8752   21.6844 H   0  0  0  0  0  0
  -26.0192  -38.2846   24.1381 H   0  0  0  0  0  0
  -28.5358  -20.3801   16.5601 H   0  0  0  0  0  0
  -30.6953  -22.2111   16.1816 H   0  0  0  0  0  0
  -31.0925  -23.2451   17.5630 H   0  0  0  0  0  0
  -29.7300  -23.6477   16.4900 H   0  0  0  0  0  0
  -26.0586  -23.6849   18.9961 H   0  0  0  0  0  0
  -26.7818  -24.6983   17.7183 H   0  0  0  0  0  0
  -26.8268  -22.9821   17.5941 H   0  0  0  0  0  0
  -30.3779  -20.2209   19.9627 H   0  0  0  0  0  0
  -29.4330  -20.3996   21.4102 H   0  0  0  0  0  0
  -28.6303  -18.2480   19.3137 H   0  0  0  0  0  0
  -28.1762  -18.3137   20.9827 H   0  0  0  0  0  0
  -30.6213  -17.5490   21.5427 H   0  0  0  0  0  0
  -30.9303  -17.4637   19.8402 H   0  0  0  0  0  0
  -29.0402  -24.6466   20.9574 H   0  0  0  0  0  0
  -27.3182  -24.6820   20.9280 H   0  0  0  0  0  0
  -28.9125  -24.3949   18.4324 H   0  0  0  0  0  0
  -27.3033  -19.7836   18.6579 H   0  0  0  0  0  0
  -28.8096  -15.6389   20.8330 H   0  0  0  0  0  0
  1 25  1  0  0  0
  1 30  2  0  0  0
  1 83  1  0  0  0
  2  3  1  0  0  0
  2 25  1  0  0  0
  2 84  1  0  0  0
  2 85  1  0  0  0
  3  4  1  0  0  0
  3 86  1  0  0  0
  3 87  1  0  0  0
  4  5  1  0  0  0
  4 88  1  0  0  0
  4 89  1  0  0  0
  5  6  1  0  0  0
  5 26  1  0  0  0
  5 90  1  0  0  0
  6 25  1  0  0  0
  6 91  1  0  0  0
  6 92  1  0  0  0
  7  8  2  0  0  0
  7 26  1  0  0  0
  7 29  1  0  0  0
  8  9  1  0  0  0
  8 22  1  0  0  0
  9 10  1  0  0  0
  9 27  2  0  0  0
 10 11  2  0  0  0
 10 15  1  0  0  0
 11 12  1  0  0  0
 11 93  1  0  0  0
 12 13  2  0  0  0
 12 94  1  0  0  0
 13 14  1  0  0  0
 13 31  1  0  0  0
 14 15  2  0  0  0
 14 95  1  0  0  0
 15 96  1  0  0  0
 16 17  2  0  0  0
 16 21  1  0  0  0
 16 31  1  0  0  0
 17 18  1  0  0  0
 17 97  1  0  0  0
 18 19  2  0  0  0
 18 98  1  0  0  0
 19 20  1  0  0  0
 19 24  1  0  0  0
 20 21  2  0  0  0
 20 99  1  0  0  0
 21 23  1  0  0  0
 22 28  1  0  0  0
 22 32  2  0  0  0
 26 27  1  0  0  0
 28100  1  0  0  0
 28101  1  0  0  0
 29102  1  0  0  0
 29103  1  0  0  0
 33 34  1  0  0  0
 33 66  1  0  0  0
 33 70  2  0  0  0
 34 36  1  0  0  0
 34 59  1  0  0  0
 34104  1  0  0  0
 35 44  2  0  0  0
 35 45  1  0  0  0
 35 68  1  0  0  0
 36 56  1  0  0  0
 36105  1  0  0  0
 37 39  1  0  0  0
 37 47  1  0  0  0
 37 66  1  0  0  0
 37106  1  0  0  0
 38 43  2  0  0  0
 38 46  1  0  0  0
 38 47  1  0  0  0
 39 64  1  0  0  0
 39 67  2  0  0  0
 40 52  1  0  0  0
 40 53  2  0  0  0
 40 58  1  0  0  0
 41107  1  0  0  0
 41108  1  0  0  0
 41109  1  0  0  0
 41 48  1  0  0  0
 42 43  1  0  0  0
 42 66  1  0  0  0
 42110  1  0  0  0
 42111  1  0  0  0
 43 44  1  0  0  0
 44112  1  0  0  0
 45 46  2  0  0  0
 45113  1  0  0  0
 46114  1  0  0  0
 47115  1  0  0  0
 47116  1  0  0  0
 48 56  1  0  0  0
 48 65  1  0  0  0
 48117  1  0  0  0
 49 50  1  0  0  0
 49 53  1  0  0  0
 49 64  1  0  0  0
 49118  1  0  0  0
 50 51  1  0  0  0
 50119  1  0  0  0
 50120  1  0  0  0
 51 52  1  0  0  0
 51121  1  0  0  0
 51122  1  0  0  0
 52123  1  0  0  0
 52124  1  0  0  0
 53 54  1  0  0  0
 54 55  2  0  0  0
 54125  1  0  0  0
 55 57  1  0  0  0
 55126  1  0  0  0
 56 69  2  0  0  0
 57 58  2  0  0  0
 57127  1  0  0  0
 58128  1  0  0  0
 59 60  1  0  0  0
 59 61  1  0  0  0
 59 62  1  0  0  0
 60129  1  0  0  0
 60130  1  0  0  0
 60131  1  0  0  0
 61132  1  0  0  0
 61133  1  0  0  0
 61134  1  0  0  0
 62135  1  0  0  0
 62136  1  0  0  0
 62137  1  0  0  0
 63 65  1  0  0  0
 63138  1  0  0  0
 63139  1  0  0  0
 63140  1  0  0  0
 64141  1  0  0  0
 65142  1  0  0  0
 68 79  1  0  0  0
 71 72  2  0  0  0
 71 82  1  0  0  0
 71143  1  0  0  0
 72 74  1  0  0  0
 72 81  1  0  0  0
 73 76  1  0  0  0
 73 81  1  0  0  0
 73 82  2  0  0  0
 74144  1  0  0  0
 74145  1  0  0  0
 74146  1  0  0  0
 75147  1  0  0  0
 75148  1  0  0  0
 75149  1  0  0  0
 75 80  1  0  0  0
 76 77  1  0  0  0
 76150  1  0  0  0
 76151  1  0  0  0
 77 78  1  0  0  0
 77152  1  0  0  0
 77153  1  0  0  0
 78 83  1  0  0  0
 78154  1  0  0  0
 78155  1  0  0  0
 79 80  1  0  0  0
 79156  1  0  0  0
 79157  1  0  0  0
 80 81  1  0  0  0
 80158  1  0  0  0
 82159  1  0  0  0
 83160  1  0  0  0
M  CHG  1  82   1
M  ISO  4   1 100  68 101  79 101  83 100
M  END
> <chiral flag>
0

> <version>
0

> <s_m_source_file>
/data/baiqing/PycharmProjects/Reinvent-master-3.2/result/LINK_invent/BTK/process_docking_weight1_custom_sum_contain_oxygen_bond_distance_aromatic_linkinvent_7_9_3/rearranged_h_0085.sdf

> <i_m_source_file_index>
31

> <r_mmod_Potential_Energy-OPLS-2005>
443.901641845703

> <r_mmod_Stretch_Energy-OPLS-2005>
148.163635253906

> <r_mmod_Bend_Energy-OPLS-2005>
252.47314453125

> <r_mmod_Torsional_Energy-OPLS-2005>
447.624847412109

> <r_mmod_Improper_Torsional_Energy-OPLS-2005>
39.689769744873

> <r_mmod_Van_der_Waal_Energy-OPLS-2005>
128.167770385742

> <r_mmod_Electrostatic_Energy-OPLS-2005>
-215.96955871582

> <r_mmod_Solvation_Energy-OPLS-2005>
-435.754486083984

> <b_mmod_Minimization_Converged-OPLS-2005>
0

> <r_mmod_RMS_Derivative-OPLS-2005>
4.39696025848389

$$$$
32
                    3D
 Structure written by MMmdl.
166174  0  0  1  0            999 V2000
  -30.5328  -14.9767   20.4201 C   0  0  0  0  0  0
  -30.4402  -12.6119   19.4868 C   0  0  0  0  0  0
  -29.5178  -12.5282   18.2490 C   0  0  0  0  0  0
  -28.0521  -12.3111   18.6717 C   0  0  0  0  0  0
  -27.6247  -13.2494   19.8301 C   0  0  2  0  0  0
  -28.6700  -13.2939   20.9631 C   0  0  0  0  0  0
  -25.2448  -13.8222   20.5711 C   0  0  0  0  0  0
  -24.1768  -13.0442   20.9237 C   0  0  0  0  0  0
  -24.6387  -11.6930   20.8755 C   0  0  0  0  0  0
  -23.9072  -10.4298   21.0411 C   0  0  0  0  0  0
  -24.3621   -9.4212   21.9187 C   0  0  0  0  0  0
  -23.6295   -8.2246   22.0756 C   0  0  0  0  0  0
  -22.4279   -8.0280   21.3544 C   0  0  0  0  0  0
  -21.9914   -9.0256   20.4646 C   0  0  0  0  0  0
  -22.7244  -10.2137   20.3059 C   0  0  0  0  0  0
  -21.6857   -6.0732   22.5277 C   0  0  0  0  0  0
  -21.4017   -6.5637   23.8211 C   0  0  0  0  0  0
  -21.3657   -5.6791   24.9172 C   0  0  0  0  0  0
  -21.6052   -4.3054   24.7224 C   0  0  0  0  0  0
  -21.8818   -3.8143   23.4345 C   0  0  0  0  0  0
  -21.9196   -4.6960   22.3402 C   0  0  0  0  0  0
  -22.7789  -13.5215   21.1893 C   0  0  0  0  0  0
  -22.1664   -4.2147   21.0979 F   0  0  0  0  0  0
  -21.5627   -3.4538   25.7736 F   0  0  0  0  0  0
  -29.9360  -13.7171   20.3518 N   0  0  0  0  0  0
  -26.2863  -12.9451   20.3218 N   0  0  0  0  0  0
  -25.9317  -11.6582   20.5726 N   0  0  0  0  0  0
  -22.0446  -12.8196   22.0447 N   0  0  0  0  0  0
  -25.4110  -15.1949   20.4122 N   0  0  0  0  0  0
  -31.7502  -15.0289   20.2154 O   0  0  0  0  0  0
  -21.6645   -6.8874   21.4238 O   0  0  0  0  0  0
  -22.3475  -14.5519   20.6740 O   0  0  0  0  0  0
  -24.6462  -31.8414   23.1862 C   0  0  0  0  0  0
  -25.9219  -32.4679   23.8260 C   0  0  1  0  0  0
  -27.2132  -27.1033   20.1616 C   0  0  0  0  0  0
  -25.5961  -33.8487   24.2175 N   0  0  0  0  0  0
  -23.4516  -30.4600   21.5319 C   0  0  2  0  0  0
  -24.9018  -28.8830   20.1122 C   0  0  0  0  0  0
  -22.7583  -29.4526   22.4835 C   0  0  0  0  0  0
  -18.0306  -28.1394   22.8463 C   0  0  0  0  0  0
  -24.1495  -36.7252   23.2644 C   0  0  0  0  0  0
  -26.0103  -30.7058   21.3908 C   0  0  0  0  0  0
  -26.0805  -29.3135   20.7343 C   0  0  0  0  0  0
  -27.2382  -28.4414   20.7390 C   0  0  0  0  0  0
  -26.0115  -26.7904   19.4887 C   0  0  0  0  0  0
  -24.8821  -27.6362   19.4721 C   0  0  0  0  0  0
  -23.6808  -29.7893   20.1518 C   0  0  0  0  0  0
  -25.4124  -36.3020   24.0312 C   0  0  1  0  0  0
  -20.5918  -28.3723   23.1222 C   0  0  2  0  0  0
  -20.6793  -26.9420   22.5400 C   0  0  0  0  0  0
  -19.5769  -26.6378   21.5207 C   0  0  0  0  0  0
  -18.1947  -26.7931   22.1614 C   0  0  0  0  0  0
  -19.1560  -28.8875   23.2836 C   0  0  0  0  0  0
  -18.9482  -30.1472   23.8862 C   0  0  0  0  0  0
  -17.6477  -30.6586   24.0553 C   0  0  0  0  0  0
  -25.9081  -34.9397   23.5056 C   0  0  0  0  0  0
  -16.5368  -29.9080   23.6332 C   0  0  0  0  0  0
  -16.7291  -28.6500   23.0350 C   0  0  0  0  0  0
  -26.4531  -31.6553   25.0713 C   0  0  0  0  0  0
  -25.3712  -31.3752   26.1408 C   0  0  0  0  0  0
  -27.0398  -30.2941   24.6316 C   0  0  0  0  0  0
  -27.6049  -32.4333   25.7506 C   0  0  0  0  0  0
  -27.5574  -37.1782   24.8468 C   0  0  0  0  0  0
  -21.4268  -29.3046   22.3591 N   0  0  0  0  0  0
  -26.4281  -37.3739   23.9416 N   0  0  0  0  0  0
  -24.7224  -31.0249   22.0909 N   0  0  0  0  0  0
  -23.4212  -28.8078   23.2992 O   0  0  0  0  0  0
  -28.2560  -26.0952   20.2039 O   0  0  0  0  0  0
  -26.5670  -34.8899   22.4634 O   0  0  0  0  0  0
  -23.5575  -32.1293   23.7067 O   0  0  0  0  0  0
  -27.1203  -21.7337   21.4949 C   0  0  0  0  0  0
  -27.5939  -19.5708   21.4312 C   0  0  0  0  0  0
  -26.6688  -20.4516   21.8978 C   0  0  0  0  0  0
  -28.2820  -21.6779   20.7659 C   0  0  0  0  0  0
  -29.2491  -23.0155   18.7606 C   0  0  0  0  0  0
  -24.8865  -21.3343   23.4489 C   0  0  0  0  0  0
  -25.6402  -18.9545   23.6408 C   0  0  0  0  0  0
  -24.3151  -19.6897   21.6436 C   0  0  0  0  0  0
  -29.6143  -19.1570   20.0980 C   0  0  0  0  0  0
  -30.1011  -17.6927   20.8422 C   0  0  0  0  0  0
  -27.9354  -24.5706   20.4362 C   0  0  0  0  0  0
  -28.8513  -23.1301   20.2349 C   0  0  1  0  0  0
  -25.3926  -20.1136   22.6563 C   0  0  0  0  0  0
  -28.6154  -20.1973   20.7333 N   0  0  0  0  0  0
  -29.7541  -16.1714   20.5191 N   0  0  0  0  0  0
  -31.4695  -12.7837   19.1679 H   0  0  0  0  0  0
  -30.4488  -11.6667   20.0323 H   0  0  0  0  0  0
  -29.8403  -11.7223   17.5885 H   0  0  0  0  0  0
  -29.5990  -13.4499   17.6702 H   0  0  0  0  0  0
  -27.9506  -11.2711   18.9843 H   0  0  0  0  0  0
  -27.3880  -12.4372   17.8161 H   0  0  0  0  0  0
  -27.5806  -14.2479   19.3938 H   0  0  0  0  0  0
  -28.7682  -12.3226   21.4501 H   0  0  0  0  0  0
  -28.3655  -14.0003   21.7370 H   0  0  0  0  0  0
  -25.2765   -9.5692   22.4764 H   0  0  0  0  0  0
  -24.0007   -7.4638   22.7477 H   0  0  0  0  0  0
  -21.0844   -8.8772   19.8951 H   0  0  0  0  0  0
  -22.3697  -10.9674   19.6170 H   0  0  0  0  0  0
  -21.2011   -7.6146   23.9711 H   0  0  0  0  0  0
  -21.1481   -6.0521   25.9075 H   0  0  0  0  0  0
  -22.0600   -2.7605   23.2847 H   0  0  0  0  0  0
  -22.4066  -11.9848   22.4817 H   0  0  0  0  0  0
  -21.1069  -13.1214   22.2666 H   0  0  0  0  0  0
  -24.6393  -15.8431   20.5219 H   0  0  0  0  0  0
  -26.2460  -15.6342   20.0492 H   0  0  0  0  0  0
  -26.7281  -32.5267   23.0983 H   0  0  0  0  0  0
  -25.0080  -33.9604   25.0303 H   0  0  0  0  0  0
  -22.7563  -31.2873   21.3752 H   0  0  0  0  0  0
  -23.3758  -35.9584   23.3295 H   0  0  0  0  0  0
  -24.3573  -36.8895   22.2060 H   0  0  0  0  0  0
  -23.7253  -37.6444   23.6689 H   0  0  0  0  0  0
  -26.1677  -31.4582   20.6167 H   0  0  0  0  0  0
  -26.8796  -30.7575   22.0348 H   0  0  0  0  0  0
  -28.1363  -28.7669   21.2442 H   0  0  0  0  0  0
  -25.9136  -25.8519   18.9654 H   0  0  0  0  0  0
  -23.9868  -27.3069   18.9633 H   0  0  0  0  0  0
  -23.8229  -30.5644   19.3981 H   0  0  0  0  0  0
  -22.7946  -29.2350   19.8373 H   0  0  0  0  0  0
  -25.1312  -36.1842   25.0805 H   0  0  0  0  0  0
  -21.0000  -28.3315   24.1348 H   0  0  0  0  0  0
  -20.5681  -26.2335   23.3621 H   0  0  0  0  0  0
  -21.6660  -26.7425   22.1201 H   0  0  0  0  0  0
  -19.6942  -25.6281   21.1257 H   0  0  0  0  0  0
  -19.6716  -27.3163   20.6717 H   0  0  0  0  0  0
  -17.4220  -26.6659   21.4020 H   0  0  0  0  0  0
  -18.0354  -26.0083   22.9018 H   0  0  0  0  0  0
  -19.7964  -30.7288   24.2219 H   0  0  0  0  0  0
  -17.5039  -31.6264   24.5159 H   0  0  0  0  0  0
  -15.5366  -30.2975   23.7684 H   0  0  0  0  0  0
  -15.8690  -28.0816   22.7083 H   0  0  0  0  0  0
  -24.5913  -30.7073   25.7737 H   0  0  0  0  0  0
  -24.8872  -32.2933   26.4747 H   0  0  0  0  0  0
  -25.7993  -30.8993   27.0239 H   0  0  0  0  0  0
  -26.3019  -29.6663   24.1308 H   0  0  0  0  0  0
  -27.3984  -29.7251   25.4901 H   0  0  0  0  0  0
  -27.8945  -30.4165   23.9658 H   0  0  0  0  0  0
  -27.2632  -33.3664   26.2003 H   0  0  0  0  0  0
  -28.3905  -32.6840   25.0367 H   0  0  0  0  0  0
  -28.0671  -31.8513   26.5492 H   0  0  0  0  0  0
  -28.2574  -38.0091   24.7505 H   0  0  0  0  0  0
  -28.1082  -36.2615   24.6301 H   0  0  0  0  0  0
  -27.2294  -37.1436   25.8872 H   0  0  0  0  0  0
  -20.9483  -29.8767   21.6771 H   0  0  0  0  0  0
  -26.0148  -38.2808   24.1410 H   0  0  0  0  0  0
  -26.5915  -22.6485   21.7139 H   0  0  0  0  0  0
  -27.5885  -18.4925   21.5162 H   0  0  0  0  0  0
  -29.7103  -23.9383   18.4082 H   0  0  0  0  0  0
  -28.3789  -22.8173   18.1349 H   0  0  0  0  0  0
  -29.9628  -22.2056   18.6081 H   0  0  0  0  0  0
  -25.6434  -21.6974   24.1460 H   0  0  0  0  0  0
  -23.9955  -21.0897   24.0287 H   0  0  0  0  0  0
  -24.6193  -22.1619   22.7912 H   0  0  0  0  0  0
  -26.4323  -19.1977   24.3498 H   0  0  0  0  0  0
  -25.9271  -18.0368   23.1267 H   0  0  0  0  0  0
  -24.7434  -18.7261   24.2174 H   0  0  0  0  0  0
  -24.1104  -20.4842   20.9253 H   0  0  0  0  0  0
  -23.3744  -19.4446   22.1379 H   0  0  0  0  0  0
  -24.6266  -18.8113   21.0772 H   0  0  0  0  0  0
  -29.2331  -18.9176   19.1051 H   0  0  0  0  0  0
  -30.5253  -19.7245   19.9052 H   0  0  0  0  0  0
  -29.9177  -17.8113   21.9105 H   0  0  0  0  0  0
  -31.1894  -17.7122   20.7787 H   0  0  0  0  0  0
  -27.6617  -24.5765   21.4910 H   0  0  0  0  0  0
  -27.0037  -24.3547   19.9211 H   0  0  0  0  0  0
  -29.7729  -23.3046   20.7912 H   0  0  0  0  0  0
  -28.7640  -15.9783   20.5417 H   0  0  0  0  0  0
  1 25  1  0  0  0
  1 30  2  0  0  0
  1 85  1  0  0  0
  2  3  1  0  0  0
  2 25  1  0  0  0
  2 86  1  0  0  0
  2 87  1  0  0  0
  3  4  1  0  0  0
  3 88  1  0  0  0
  3 89  1  0  0  0
  4  5  1  0  0  0
  4 90  1  0  0  0
  4 91  1  0  0  0
  5  6  1  0  0  0
  5 26  1  0  0  0
  5 92  1  0  0  0
  6 25  1  0  0  0
  6 93  1  0  0  0
  6 94  1  0  0  0
  7  8  2  0  0  0
  7 26  1  0  0  0
  7 29  1  0  0  0
  8  9  1  0  0  0
  8 22  1  0  0  0
  9 10  1  0  0  0
  9 27  2  0  0  0
 10 11  2  0  0  0
 10 15  1  0  0  0
 11 12  1  0  0  0
 11 95  1  0  0  0
 12 13  2  0  0  0
 12 96  1  0  0  0
 13 14  1  0  0  0
 13 31  1  0  0  0
 14 15  2  0  0  0
 14 97  1  0  0  0
 15 98  1  0  0  0
 16 17  2  0  0  0
 16 21  1  0  0  0
 16 31  1  0  0  0
 17 18  1  0  0  0
 17 99  1  0  0  0
 18 19  2  0  0  0
 18100  1  0  0  0
 19 20  1  0  0  0
 19 24  1  0  0  0
 20 21  2  0  0  0
 20101  1  0  0  0
 21 23  1  0  0  0
 22 28  1  0  0  0
 22 32  2  0  0  0
 26 27  1  0  0  0
 28102  1  0  0  0
 28103  1  0  0  0
 29104  1  0  0  0
 29105  1  0  0  0
 33 34  1  0  0  0
 33 66  1  0  0  0
 33 70  2  0  0  0
 34 36  1  0  0  0
 34 59  1  0  0  0
 34106  1  0  0  0
 35 44  2  0  0  0
 35 45  1  0  0  0
 35 68  1  0  0  0
 36 56  1  0  0  0
 36107  1  0  0  0
 37 39  1  0  0  0
 37 47  1  0  0  0
 37 66  1  0  0  0
 37108  1  0  0  0
 38 43  2  0  0  0
 38 46  1  0  0  0
 38 47  1  0  0  0
 39 64  1  0  0  0
 39 67  2  0  0  0
 40 52  1  0  0  0
 40 53  2  0  0  0
 40 58  1  0  0  0
 41109  1  0  0  0
 41110  1  0  0  0
 41111  1  0  0  0
 41 48  1  0  0  0
 42 43  1  0  0  0
 42 66  1  0  0  0
 42112  1  0  0  0
 42113  1  0  0  0
 43 44  1  0  0  0
 44114  1  0  0  0
 45 46  2  0  0  0
 45115  1  0  0  0
 46116  1  0  0  0
 47117  1  0  0  0
 47118  1  0  0  0
 48 56  1  0  0  0
 48 65  1  0  0  0
 48119  1  0  0  0
 49 50  1  0  0  0
 49 53  1  0  0  0
 49 64  1  0  0  0
 49120  1  0  0  0
 50 51  1  0  0  0
 50121  1  0  0  0
 50122  1  0  0  0
 51 52  1  0  0  0
 51123  1  0  0  0
 51124  1  0  0  0
 52125  1  0  0  0
 52126  1  0  0  0
 53 54  1  0  0  0
 54 55  2  0  0  0
 54127  1  0  0  0
 55 57  1  0  0  0
 55128  1  0  0  0
 56 69  2  0  0  0
 57 58  2  0  0  0
 57129  1  0  0  0
 58130  1  0  0  0
 59 60  1  0  0  0
 59 61  1  0  0  0
 59 62  1  0  0  0
 60131  1  0  0  0
 60132  1  0  0  0
 60133  1  0  0  0
 61134  1  0  0  0
 61135  1  0  0  0
 61136  1  0  0  0
 62137  1  0  0  0
 62138  1  0  0  0
 62139  1  0  0  0
 63 65  1  0  0  0
 63140  1  0  0  0
 63141  1  0  0  0
 63142  1  0  0  0
 64143  1  0  0  0
 65144  1  0  0  0
 68 81  1  0  0  0
 71 73  1  0  0  0
 71 74  2  0  0  0
 71145  1  0  0  0
 72 73  2  0  0  0
 72 84  1  0  0  0
 72146  1  0  0  0
 73 83  1  0  0  0
 74 82  1  0  0  0
 74 84  1  0  0  0
 75147  1  0  0  0
 75148  1  0  0  0
 75149  1  0  0  0
 75 82  1  0  0  0
 76150  1  0  0  0
 76151  1  0  0  0
 76152  1  0  0  0
 76 83  1  0  0  0
 77 83  1  0  0  0
 77153  1  0  0  0
 77154  1  0  0  0
 77155  1  0  0  0
 78 83  1  0  0  0
 78156  1  0  0  0
 78157  1  0  0  0
 78158  1  0  0  0
 79 80  1  0  0  0
 79 84  1  0  0  0
 79159  1  0  0  0
 79160  1  0  0  0
 80 85  1  0  0  0
 80161  1  0  0  0
 80162  1  0  0  0
 81 82  1  0  0  0
 81163  1  0  0  0
 81164  1  0  0  0
 82165  1  0  0  0
 85166  1  0  0  0
M  ISO  4   1 100  68 101  81 101  85 100
M  END
> <chiral flag>
0

> <version>
0

> <s_m_source_file>
/data/baiqing/PycharmProjects/Reinvent-master-3.2/result/LINK_invent/BTK/process_docking_weight1_custom_sum_contain_oxygen_bond_distance_aromatic_linkinvent_7_9_3/rearranged_h_0085.sdf

> <i_m_source_file_index>
32

> <r_mmod_Potential_Energy-OPLS-2005>
625.5498046875

> <r_mmod_Stretch_Energy-OPLS-2005>
318.629791259766

> <r_mmod_Bend_Energy-OPLS-2005>
358.773284912109

> <r_mmod_Torsional_Energy-OPLS-2005>
244.619689941406

> <r_mmod_Improper_Torsional_Energy-OPLS-2005>
4.98352527618408

> <r_mmod_Van_der_Waal_Energy-OPLS-2005>
110.284980773926

> <r_mmod_Electrostatic_Energy-OPLS-2005>
-425.708618164062

> <r_mmod_Solvation_Energy-OPLS-2005>
-204.941482543945

> <b_mmod_Minimization_Converged-OPLS-2005>
0

> <r_mmod_RMS_Derivative-OPLS-2005>
1.19036221504211

$$$$
33
                    3D
 Structure written by MMmdl.
163171  0  0  1  0            999 V2000
  -30.6471  -14.4600   20.5619 C   0  0  0  0  0  0
  -30.4406  -12.2933   19.4070 C   0  0  0  0  0  0
  -29.4992  -12.4870   18.1979 C   0  0  0  0  0  0
  -28.0248  -12.3305   18.6227 C   0  0  0  0  0  0
  -27.6713  -13.1747   19.8759 C   0  0  2  0  0  0
  -28.7102  -12.9251   20.9947 C   0  0  0  0  0  0
  -25.2718  -13.8079   20.5597 C   0  0  0  0  0  0
  -24.1908  -13.0412   20.9130 C   0  0  0  0  0  0
  -24.6424  -11.6876   20.8726 C   0  0  0  0  0  0
  -23.9075  -10.4294   21.0427 C   0  0  0  0  0  0
  -24.3608   -9.4205   21.9227 C   0  0  0  0  0  0
  -23.6271   -8.2236   22.0788 C   0  0  0  0  0  0
  -22.4271   -8.0282   21.3545 C   0  0  0  0  0  0
  -21.9905   -9.0274   20.4670 C   0  0  0  0  0  0
  -22.7235  -10.2146   20.3101 C   0  0  0  0  0  0
  -21.6863   -6.0750   22.5289 C   0  0  0  0  0  0
  -21.4008   -6.5642   23.8206 C   0  0  0  0  0  0
  -21.3648   -5.6789   24.9165 C   0  0  0  0  0  0
  -21.6044   -4.3063   24.7211 C   0  0  0  0  0  0
  -21.8815   -3.8145   23.4340 C   0  0  0  0  0  0
  -21.9194   -4.6976   22.3378 C   0  0  0  0  0  0
  -22.7964  -13.5301   21.1720 C   0  0  0  0  0  0
  -22.1671   -4.2151   21.0976 F   0  0  0  0  0  0
  -21.5622   -3.4545   25.7731 F   0  0  0  0  0  0
  -30.0427  -13.2488   20.4502 N   0  0  0  0  0  0
  -26.3084  -12.9172   20.3350 N   0  0  0  0  0  0
  -25.9328  -11.6372   20.5776 N   0  0  0  0  0  0
  -22.0569  -12.8329   22.0284 N   0  0  0  0  0  0
  -25.4420  -15.1760   20.3812 N   0  0  0  0  0  0
  -31.7468  -14.7272   20.0681 O   0  0  0  0  0  0
  -21.6636   -6.8881   21.4244 O   0  0  0  0  0  0
  -22.3665  -14.5590   20.6570 O   0  0  0  0  0  0
  -24.6092  -31.8709   23.2085 C   0  0  0  0  0  0
  -25.9027  -32.4829   23.8353 C   0  0  1  0  0  0
  -27.2488  -27.4802   20.0807 C   0  0  0  0  0  0
  -25.5914  -33.8621   24.2355 N   0  0  0  0  0  0
  -23.3930  -30.4977   21.5469 C   0  0  2  0  0  0
  -24.8394  -28.9555   20.1268 C   0  0  0  0  0  0
  -22.7341  -29.4792   22.5009 C   0  0  0  0  0  0
  -18.0315  -28.1423   22.8335 C   0  0  0  0  0  0
  -24.1485  -36.7323   23.2645 C   0  0  0  0  0  0
  -25.9175  -30.8514   21.3528 C   0  0  0  0  0  0
  -25.9953  -29.4812   20.7171 C   0  0  0  0  0  0
  -27.1984  -28.7486   20.6946 C   0  0  0  0  0  0
  -26.0716  -26.9604   19.4962 C   0  0  0  0  0  0
  -24.8679  -27.6885   19.5198 C   0  0  0  0  0  0
  -23.5966  -29.8147   20.1673 C   0  0  0  0  0  0
  -25.4105  -36.3127   24.0357 C   0  0  1  0  0  0
  -20.5885  -28.3704   23.1214 C   0  0  2  0  0  0
  -20.6875  -26.9470   22.5217 C   0  0  0  0  0  0
  -19.5847  -26.6520   21.4996 C   0  0  0  0  0  0
  -18.2002  -26.8003   22.1386 C   0  0  0  0  0  0
  -19.1530  -28.8865   23.2869 C   0  0  0  0  0  0
  -18.9394  -30.1405   23.8998 C   0  0  0  0  0  0
  -17.6349  -30.6489   24.0657 C   0  0  0  0  0  0
  -25.9021  -34.9477   23.5143 C   0  0  0  0  0  0
  -16.5267  -29.8988   23.6329 C   0  0  0  0  0  0
  -16.7296  -28.6483   23.0218 C   0  0  0  0  0  0
  -26.4460  -31.6616   25.0691 C   0  0  0  0  0  0
  -25.3784  -31.3689   26.1491 C   0  0  0  0  0  0
  -27.0273  -30.3069   24.6062 C   0  0  0  0  0  0
  -27.6038  -32.4336   25.7483 C   0  0  0  0  0  0
  -27.5590  -37.1815   24.8479 C   0  0  0  0  0  0
  -21.4125  -29.3068   22.3610 N   0  0  0  0  0  0
  -26.4301  -37.3823   23.9417 N   0  0  0  0  0  0
  -24.6585  -31.0869   22.0948 N   0  0  0  0  0  0
  -23.4108  -28.8416   23.3115 O   0  0  0  0  0  0
  -28.4695  -26.8619   19.9699 O   0  0  0  0  0  0
  -26.5579  -34.8909   22.4717 O   0  0  0  0  0  0
  -23.5296  -32.1404   23.7532 O   0  0  0  0  0  0
  -28.6634  -19.6840   19.9927 C   0  0  0  0  0  0
  -28.2427  -18.8677   21.0212 C   0  0  0  0  0  0
  -26.9083  -20.6648   20.9436 C   0  0  0  0  0  0
  -25.7879  -21.6094   21.2836 C   0  0  0  0  0  0
  -28.9878  -17.5977   23.0505 C   0  0  0  0  0  0
  -28.7260  -23.0926   19.7120 C   0  0  0  0  0  0
  -28.0453  -24.4610   19.5822 C   0  0  0  0  0  0
  -27.8975  -21.9481   19.0802 C   0  0  0  0  0  0
  -29.8365  -16.8411   20.7780 C   0  0  0  0  0  0
  -28.6306  -25.5526   20.4961 C   0  0  0  0  0  0
  -28.6700  -17.5171   21.5462 C   0  0  1  0  0  0
  -27.8319  -20.7807   19.9764 N   0  0  0  0  0  0
  -27.1699  -19.5186   21.5774 N   0  3  0  0  0  0
  -29.8497  -15.4042   21.0819 N   0  0  0  0  0  0
  -31.4806  -12.4082   19.1017 H   0  0  0  0  0  0
  -30.3545  -11.2754   19.7848 H   0  0  0  0  0  0
  -29.7385  -11.7585   17.4216 H   0  0  0  0  0  0
  -29.6589  -13.4691   17.7487 H   0  0  0  0  0  0
  -27.8629  -11.2741   18.8408 H   0  0  0  0  0  0
  -27.3576  -12.5688   17.7941 H   0  0  0  0  0  0
  -27.7311  -14.2234   19.5821 H   0  0  0  0  0  0
  -28.6958  -11.8800   21.3043 H   0  0  0  0  0  0
  -28.4662  -13.4898   21.8985 H   0  0  0  0  0  0
  -25.2762   -9.5688   22.4779 H   0  0  0  0  0  0
  -23.9989   -7.4655   22.7539 H   0  0  0  0  0  0
  -21.0814   -8.8787   19.8995 H   0  0  0  0  0  0
  -22.3693  -10.9686   19.6192 H   0  0  0  0  0  0
  -21.2000   -7.6156   23.9696 H   0  0  0  0  0  0
  -21.1477   -6.0536   25.9060 H   0  0  0  0  0  0
  -22.0607   -2.7617   23.2832 H   0  0  0  0  0  0
  -22.4131  -12.0002   22.4709 H   0  0  0  0  0  0
  -21.1215  -13.1431   22.2482 H   0  0  0  0  0  0
  -24.6300  -15.7838   20.3771 H   0  0  0  0  0  0
  -26.2212  -15.5636   19.8611 H   0  0  0  0  0  0
  -26.7125  -32.5547   23.1131 H   0  0  0  0  0  0
  -25.0022  -33.9816   25.0470 H   0  0  0  0  0  0
  -22.6789  -31.3121   21.4025 H   0  0  0  0  0  0
  -23.3737  -35.9660   23.3304 H   0  0  0  0  0  0
  -24.3565  -36.8935   22.2049 H   0  0  0  0  0  0
  -23.7228  -37.6542   23.6633 H   0  0  0  0  0  0
  -26.0249  -31.6107   20.5777 H   0  0  0  0  0  0
  -26.8086  -30.9098   21.9678 H   0  0  0  0  0  0
  -28.1018  -29.1696   21.1083 H   0  0  0  0  0  0
  -26.0629  -26.0277   18.9559 H   0  0  0  0  0  0
  -23.9779  -27.2834   19.0528 H   0  0  0  0  0  0
  -23.6951  -30.5777   19.3905 H   0  0  0  0  0  0
  -22.7248  -29.2189   19.8891 H   0  0  0  0  0  0
  -25.1265  -36.1985   25.0845 H   0  0  0  0  0  0
  -20.9937  -28.3346   24.1329 H   0  0  0  0  0  0
  -20.5858  -26.2194   23.3281 H   0  0  0  0  0  0
  -21.6741  -26.7682   22.0878 H   0  0  0  0  0  0
  -19.7039  -25.6420   21.1016 H   0  0  0  0  0  0
  -19.6740  -27.3364   20.6548 H   0  0  0  0  0  0
  -17.4347  -26.6725   21.3727 H   0  0  0  0  0  0
  -18.0521  -26.0094   22.8736 H   0  0  0  0  0  0
  -19.7916  -30.7249   24.2280 H   0  0  0  0  0  0
  -17.4831  -31.6152   24.5336 H   0  0  0  0  0  0
  -15.5229  -30.2794   23.7541 H   0  0  0  0  0  0
  -15.8784  -28.0855   22.6643 H   0  0  0  0  0  0
  -24.5947  -30.7056   25.7858 H   0  0  0  0  0  0
  -24.8956  -32.2794   26.5023 H   0  0  0  0  0  0
  -25.8166  -30.8809   27.0201 H   0  0  0  0  0  0
  -26.2768  -29.6872   24.1142 H   0  0  0  0  0  0
  -27.4096  -29.7306   25.4497 H   0  0  0  0  0  0
  -27.8587  -30.4419   23.9146 H   0  0  0  0  0  0
  -27.2665  -33.3613   26.2116 H   0  0  0  0  0  0
  -28.3812  -32.6957   25.0311 H   0  0  0  0  0  0
  -28.0753  -31.8428   26.5356 H   0  0  0  0  0  0
  -28.2623  -38.0100   24.7507 H   0  0  0  0  0  0
  -28.1062  -36.2628   24.6292 H   0  0  0  0  0  0
  -27.2300  -37.1463   25.8887 H   0  0  0  0  0  0
  -20.9433  -29.8526   21.6496 H   0  0  0  0  0  0
  -26.0179  -38.2910   24.1409 H   0  0  0  0  0  0
  -29.4742  -19.5721   19.2833 H   0  0  0  0  0  0
  -24.9491  -21.4017   20.6205 H   0  0  0  0  0  0
  -26.1063  -22.6404   21.1533 H   0  0  0  0  0  0
  -25.4904  -21.4616   22.3246 H   0  0  0  0  0  0
  -28.1168  -17.9040   23.6329 H   0  0  0  0  0  0
  -29.7771  -18.3263   23.2409 H   0  0  0  0  0  0
  -29.3341  -16.6398   23.4501 H   0  0  0  0  0  0
  -28.9179  -22.8862   20.7681 H   0  0  0  0  0  0
  -29.7072  -23.1286   19.2367 H   0  0  0  0  0  0
  -26.9851  -24.3494   19.8162 H   0  0  0  0  0  0
  -28.1080  -24.7895   18.5446 H   0  0  0  0  0  0
  -28.3237  -21.6341   18.1259 H   0  0  0  0  0  0
  -26.8745  -22.2537   18.8505 H   0  0  0  0  0  0
  -30.7901  -17.3091   21.0312 H   0  0  0  0  0  0
  -29.6855  -16.9629   19.7032 H   0  0  0  0  0  0
  -29.7116  -25.4106   20.5835 H   0  0  0  0  0  0
  -28.2508  -25.4939   21.5159 H   0  0  0  0  0  0
  -27.7878  -16.8818   21.4272 H   0  0  0  0  0  0
  -26.6341  -19.1832   22.3684 H   0  0  0  0  0  0
  -29.0054  -15.0560   21.5082 H   0  0  0  0  0  0
  1 25  1  0  0  0
  1 30  2  0  0  0
  1 84  1  0  0  0
  2  3  1  0  0  0
  2 25  1  0  0  0
  2 85  1  0  0  0
  2 86  1  0  0  0
  3  4  1  0  0  0
  3 87  1  0  0  0
  3 88  1  0  0  0
  4  5  1  0  0  0
  4 89  1  0  0  0
  4 90  1  0  0  0
  5  6  1  0  0  0
  5 26  1  0  0  0
  5 91  1  0  0  0
  6 25  1  0  0  0
  6 92  1  0  0  0
  6 93  1  0  0  0
  7  8  2  0  0  0
  7 26  1  0  0  0
  7 29  1  0  0  0
  8  9  1  0  0  0
  8 22  1  0  0  0
  9 10  1  0  0  0
  9 27  2  0  0  0
 10 11  2  0  0  0
 10 15  1  0  0  0
 11 12  1  0  0  0
 11 94  1  0  0  0
 12 13  2  0  0  0
 12 95  1  0  0  0
 13 14  1  0  0  0
 13 31  1  0  0  0
 14 15  2  0  0  0
 14 96  1  0  0  0
 15 97  1  0  0  0
 16 17  2  0  0  0
 16 21  1  0  0  0
 16 31  1  0  0  0
 17 18  1  0  0  0
 17 98  1  0  0  0
 18 19  2  0  0  0
 18 99  1  0  0  0
 19 20  1  0  0  0
 19 24  1  0  0  0
 20 21  2  0  0  0
 20100  1  0  0  0
 21 23  1  0  0  0
 22 28  1  0  0  0
 22 32  2  0  0  0
 26 27  1  0  0  0
 28101  1  0  0  0
 28102  1  0  0  0
 29103  1  0  0  0
 29104  1  0  0  0
 33 34  1  0  0  0
 33 66  1  0  0  0
 33 70  2  0  0  0
 34 36  1  0  0  0
 34 59  1  0  0  0
 34105  1  0  0  0
 35 44  2  0  0  0
 35 45  1  0  0  0
 35 68  1  0  0  0
 36 56  1  0  0  0
 36106  1  0  0  0
 37 39  1  0  0  0
 37 47  1  0  0  0
 37 66  1  0  0  0
 37107  1  0  0  0
 38 43  2  0  0  0
 38 46  1  0  0  0
 38 47  1  0  0  0
 39 64  1  0  0  0
 39 67  2  0  0  0
 40 52  1  0  0  0
 40 53  2  0  0  0
 40 58  1  0  0  0
 41108  1  0  0  0
 41109  1  0  0  0
 41110  1  0  0  0
 41 48  1  0  0  0
 42 43  1  0  0  0
 42 66  1  0  0  0
 42111  1  0  0  0
 42112  1  0  0  0
 43 44  1  0  0  0
 44113  1  0  0  0
 45 46  2  0  0  0
 45114  1  0  0  0
 46115  1  0  0  0
 47116  1  0  0  0
 47117  1  0  0  0
 48 56  1  0  0  0
 48 65  1  0  0  0
 48118  1  0  0  0
 49 50  1  0  0  0
 49 53  1  0  0  0
 49 64  1  0  0  0
 49119  1  0  0  0
 50 51  1  0  0  0
 50120  1  0  0  0
 50121  1  0  0  0
 51 52  1  0  0  0
 51122  1  0  0  0
 51123  1  0  0  0
 52124  1  0  0  0
 52125  1  0  0  0
 53 54  1  0  0  0
 54 55  2  0  0  0
 54126  1  0  0  0
 55 57  1  0  0  0
 55127  1  0  0  0
 56 69  2  0  0  0
 57 58  2  0  0  0
 57128  1  0  0  0
 58129  1  0  0  0
 59 60  1  0  0  0
 59 61  1  0  0  0
 59 62  1  0  0  0
 60130  1  0  0  0
 60131  1  0  0  0
 60132  1  0  0  0
 61133  1  0  0  0
 61134  1  0  0  0
 61135  1  0  0  0
 62136  1  0  0  0
 62137  1  0  0  0
 62138  1  0  0  0
 63 65  1  0  0  0
 63139  1  0  0  0
 63140  1  0  0  0
 63141  1  0  0  0
 64142  1  0  0  0
 65143  1  0  0  0
 68 80  1  0  0  0
 71 72  2  0  0  0
 71 82  1  0  0  0
 71144  1  0  0  0
 72 81  1  0  0  0
 72 83  1  0  0  0
 73 74  1  0  0  0
 73 82  1  0  0  0
 73 83  2  0  0  0
 74145  1  0  0  0
 74146  1  0  0  0
 74147  1  0  0  0
 75148  1  0  0  0
 75149  1  0  0  0
 75150  1  0  0  0
 75 81  1  0  0  0
 76 77  1  0  0  0
 76 78  1  0  0  0
 76151  1  0  0  0
 76152  1  0  0  0
 77 80  1  0  0  0
 77153  1  0  0  0
 77154  1  0  0  0
 78 82  1  0  0  0
 78155  1  0  0  0
 78156  1  0  0  0
 79 81  1  0  0  0
 79 84  1  0  0  0
 79157  1  0  0  0
 79158  1  0  0  0
 80159  1  0  0  0
 80160  1  0  0  0
 81161  1  0  0  0
 83162  1  0  0  0
 84163  1  0  0  0
M  CHG  1  83   1
M  ISO  4   1 100  68 101  80 101  84 100
M  END
> <chiral flag>
0

> <version>
0

> <s_m_source_file>
/data/baiqing/PycharmProjects/Reinvent-master-3.2/result/LINK_invent/BTK/process_docking_weight1_custom_sum_contain_oxygen_bond_distance_aromatic_linkinvent_7_9_3/rearranged_h_0085.sdf

> <i_m_source_file_index>
33

> <r_mmod_Potential_Energy-OPLS-2005>
-121.212188720703

> <r_mmod_Stretch_Energy-OPLS-2005>
32.8170051574707

> <r_mmod_Bend_Energy-OPLS-2005>
97.4771881103516

> <r_mmod_Torsional_Energy-OPLS-2005>
260.617004394531

> <r_mmod_Improper_Torsional_Energy-OPLS-2005>
8.0753288269043

> <r_mmod_Van_der_Waal_Energy-OPLS-2005>
128.846221923828

> <r_mmod_Electrostatic_Energy-OPLS-2005>
-238.106689453125

> <r_mmod_Solvation_Energy-OPLS-2005>
-424.981658935547

> <b_mmod_Minimization_Converged-OPLS-2005>
0

> <r_mmod_RMS_Derivative-OPLS-2005>
8.01004981994629

$$$$
34
                    3D
 Structure written by MMmdl.
182190  0  0  1  0            999 V2000
  -30.7839  -14.5920   20.4505 C   0  0  0  0  0  0
  -30.3821  -12.3606   19.4755 C   0  0  0  0  0  0
  -29.4921  -12.4914   18.2261 C   0  0  0  0  0  0
  -28.0140  -12.3562   18.6294 C   0  0  0  0  0  0
  -27.6398  -13.2436   19.8437 C   0  0  2  0  0  0
  -28.6901  -13.1793   20.9802 C   0  0  0  0  0  0
  -25.2548  -13.8210   20.5721 C   0  0  0  0  0  0
  -24.1837  -13.0440   20.9195 C   0  0  0  0  0  0
  -24.6434  -11.6921   20.8706 C   0  0  0  0  0  0
  -23.9112  -10.4291   21.0393 C   0  0  0  0  0  0
  -24.3647   -9.4188   21.9167 C   0  0  0  0  0  0
  -23.6311   -8.2240   22.0750 C   0  0  0  0  0  0
  -22.4300   -8.0280   21.3547 C   0  0  0  0  0  0
  -21.9940   -9.0257   20.4649 C   0  0  0  0  0  0
  -22.7281  -10.2134   20.3051 C   0  0  0  0  0  0
  -21.6858   -6.0730   22.5292 C   0  0  0  0  0  0
  -21.4027   -6.5656   23.8212 C   0  0  0  0  0  0
  -21.3650   -5.6800   24.9179 C   0  0  0  0  0  0
  -21.6029   -4.3065   24.7217 C   0  0  0  0  0  0
  -21.8826   -3.8150   23.4351 C   0  0  0  0  0  0
  -21.9220   -4.6966   22.3405 C   0  0  0  0  0  0
  -22.7863  -13.5205   21.1856 C   0  0  0  0  0  0
  -22.1674   -4.2131   21.0979 F   0  0  0  0  0  0
  -21.5633   -3.4552   25.7745 F   0  0  0  0  0  0
  -30.0114  -13.4533   20.4059 N   0  0  0  0  0  0
  -26.2940  -12.9444   20.3219 N   0  0  0  0  0  0
  -25.9368  -11.6577   20.5686 N   0  0  0  0  0  0
  -22.0540  -12.8143   22.0383 N   0  0  0  0  0  0
  -25.4245  -15.1923   20.4233 N   0  0  0  0  0  0
  -31.9431  -14.5066   20.0407 O   0  0  0  0  0  0
  -21.6668   -6.8886   21.4252 O   0  0  0  0  0  0
  -22.3514  -14.5511   20.6733 O   0  0  0  0  0  0
  -24.6177  -31.8686   23.2056 C   0  0  0  0  0  0
  -25.9064  -32.4825   23.8356 C   0  0  1  0  0  0
  -27.2328  -27.3935   20.1089 C   0  0  0  0  0  0
  -25.5874  -33.8605   24.2331 N   0  0  0  0  0  0
  -23.4050  -30.4909   21.5500 C   0  0  2  0  0  0
  -24.8508  -28.9487   20.1206 C   0  0  0  0  0  0
  -22.7423  -29.4654   22.5013 C   0  0  0  0  0  0
  -18.0245  -28.1375   22.8477 C   0  0  0  0  0  0
  -24.1505  -36.7325   23.2646 C   0  0  0  0  0  0
  -25.9402  -30.8222   21.3658 C   0  0  0  0  0  0
  -26.0128  -29.4481   20.7205 C   0  0  0  0  0  0
  -27.1996  -28.6761   20.7186 C   0  0  0  0  0  0
  -26.0501  -26.9276   19.4891 C   0  0  0  0  0  0
  -24.8657  -27.6858   19.5058 C   0  0  0  0  0  0
  -23.6174  -29.8222   20.1658 C   0  0  0  0  0  0
  -25.4109  -36.3119   24.0361 C   0  0  1  0  0  0
  -20.5850  -28.3681   23.1306 C   0  0  2  0  0  0
  -20.6781  -26.9431   22.5407 C   0  0  0  0  0  0
  -19.5775  -26.6378   21.5217 C   0  0  0  0  0  0
  -18.1922  -26.7906   22.1610 C   0  0  0  0  0  0
  -19.1501  -28.8846   23.2885 C   0  0  0  0  0  0
  -18.9466  -30.1426   23.8935 C   0  0  0  0  0  0
  -17.6481  -30.6598   24.0562 C   0  0  0  0  0  0
  -25.9042  -34.9472   23.5171 C   0  0  0  0  0  0
  -16.5367  -29.9090   23.6329 C   0  0  0  0  0  0
  -16.7244  -28.6489   23.0368 C   0  0  0  0  0  0
  -26.4463  -31.6580   25.0694 C   0  0  0  0  0  0
  -25.3706  -31.3676   26.1443 C   0  0  0  0  0  0
  -27.0273  -30.3011   24.6039 C   0  0  0  0  0  0
  -27.6045  -32.4269   25.7466 C   0  0  0  0  0  0
  -27.5595  -37.1806   24.8456 C   0  0  0  0  0  0
  -21.4153  -29.3057   22.3750 N   0  0  0  0  0  0
  -26.4296  -37.3800   23.9425 N   0  0  0  0  0  0
  -24.6728  -31.0749   22.0977 N   0  0  0  0  0  0
  -23.4174  -28.8228   23.3105 O   0  0  0  0  0  0
  -28.4216  -26.6763   20.1323 O   0  0  0  0  0  0
  -26.5618  -34.8927   22.4731 O   0  0  0  0  0  0
  -23.5362  -32.1433   23.7427 O   0  0  0  0  0  0
  -28.4948  -19.1599   20.5514 C   0  0  0  0  0  0
  -28.9077  -20.1101   22.5077 C   0  0  0  0  0  0
  -28.5307  -20.4293   21.2319 C   0  0  0  0  0  0
  -28.8409  -18.1279   21.4039 C   0  0  0  0  0  0
  -28.1297  -16.8674   26.5661 C   0  0  0  0  0  0
  -29.1086  -18.8849   27.7253 C   0  0  0  0  0  0
  -27.8734  -21.7786   19.2033 C   0  0  0  0  0  0
  -26.8519  -22.2574   21.4409 C   0  0  0  0  0  0
  -31.4717  -16.6452   21.7427 C   0  0  0  0  0  0
  -28.9814  -16.6038   21.1593 C   0  0  0  0  0  0
  -28.8777  -24.4472   21.1620 C   0  0  0  0  0  0
  -29.2606  -22.9285   20.9920 C   0  0  0  0  0  0
  -29.0145  -18.8251   25.1859 C   0  0  0  0  0  0
  -29.3904  -18.0541   23.9034 C   0  0  0  0  0  0
  -28.4685  -25.2463   19.8946 C   0  0  0  0  0  0
  -29.1751  -17.9919   26.4760 C   0  0  0  0  0  0
  -28.1477  -21.8457   20.7170 C   0  0  0  0  0  0
  -30.4124  -16.1144   20.7277 C   0  0  2  0  0  0
  -29.0450  -18.7341   22.6498 N   0  0  0  0  0  0
  -30.7027  -16.7729   19.4326 N   0  3  0  0  0  0
  -31.4346  -12.3564   19.1894 H   0  0  0  0  0  0
  -30.2165  -11.3925   19.9537 H   0  0  0  0  0  0
  -29.7556  -11.7281   17.4914 H   0  0  0  0  0  0
  -29.6627  -13.4496   17.7370 H   0  0  0  0  0  0
  -27.8345  -11.3088   18.8717 H   0  0  0  0  0  0
  -27.3678  -12.5902   17.7812 H   0  0  0  0  0  0
  -27.6313  -14.2615   19.4599 H   0  0  0  0  0  0
  -28.6920  -12.1938   21.4447 H   0  0  0  0  0  0
  -28.4474  -13.8784   21.7771 H   0  0  0  0  0  0
  -25.2783   -9.5652   22.4739 H   0  0  0  0  0  0
  -24.0027   -7.4625   22.7467 H   0  0  0  0  0  0
  -21.0878   -8.8778   19.8929 H   0  0  0  0  0  0
  -22.3733  -10.9686   19.6169 H   0  0  0  0  0  0
  -21.2014   -7.6157   23.9695 H   0  0  0  0  0  0
  -21.1463   -6.0534   25.9065 H   0  0  0  0  0  0
  -22.0620   -2.7612   23.2854 H   0  0  0  0  0  0
  -22.4250  -11.9812   22.4694 H   0  0  0  0  0  0
  -21.1142  -13.1063   22.2600 H   0  0  0  0  0  0
  -24.6696  -15.8489   20.5872 H   0  0  0  0  0  0
  -26.2591  -15.6378   20.0656 H   0  0  0  0  0  0
  -26.7154  -32.5544   23.1142 H   0  0  0  0  0  0
  -25.0030  -33.9736   25.0486 H   0  0  0  0  0  0
  -22.6988  -31.3119   21.4100 H   0  0  0  0  0  0
  -23.3767  -35.9661   23.3284 H   0  0  0  0  0  0
  -24.3635  -36.8938   22.2070 H   0  0  0  0  0  0
  -23.7238  -37.6513   23.6667 H   0  0  0  0  0  0
  -26.0502  -31.5786   20.5867 H   0  0  0  0  0  0
  -26.8290  -30.8816   21.9810 H   0  0  0  0  0  0
  -28.0901  -29.0542   21.2018 H   0  0  0  0  0  0
  -25.9995  -25.9892   18.9637 H   0  0  0  0  0  0
  -23.9756  -27.2929   19.0343 H   0  0  0  0  0  0
  -23.7317  -30.5961   19.4052 H   0  0  0  0  0  0
  -22.7384  -29.2449   19.8703 H   0  0  0  0  0  0
  -25.1279  -36.2034   25.0852 H   0  0  0  0  0  0
  -20.9924  -28.3299   24.1442 H   0  0  0  0  0  0
  -20.5752  -26.2326   23.3632 H   0  0  0  0  0  0
  -21.6651  -26.7527   22.1224 H   0  0  0  0  0  0
  -19.6985  -25.6296   21.1239 H   0  0  0  0  0  0
  -19.6695  -27.3229   20.6792 H   0  0  0  0  0  0
  -17.4225  -26.6652   21.3976 H   0  0  0  0  0  0
  -18.0293  -26.0040   22.8996 H   0  0  0  0  0  0
  -19.7976  -30.7156   24.2381 H   0  0  0  0  0  0
  -17.5074  -31.6294   24.5130 H   0  0  0  0  0  0
  -15.5376  -30.3034   23.7609 H   0  0  0  0  0  0
  -15.8628  -28.0797   22.7117 H   0  0  0  0  0  0
  -24.6001  -30.6872   25.7835 H   0  0  0  0  0  0
  -24.8757  -32.2822   26.4745 H   0  0  0  0  0  0
  -25.8080  -30.9030   27.0307 H   0  0  0  0  0  0
  -26.2826  -29.6777   24.1103 H   0  0  0  0  0  0
  -27.4089  -29.7210   25.4450 H   0  0  0  0  0  0
  -27.8630  -30.4314   23.9148 H   0  0  0  0  0  0
  -27.2712  -33.3626   26.1945 H   0  0  0  0  0  0
  -28.3899  -32.6697   25.0304 H   0  0  0  0  0  0
  -28.0651  -31.8436   26.5444 H   0  0  0  0  0  0
  -28.2588  -38.0135   24.7554 H   0  0  0  0  0  0
  -28.1103  -36.2658   24.6221 H   0  0  0  0  0  0
  -27.2313  -37.1384   25.8854 H   0  0  0  0  0  0
  -20.9372  -29.8741   21.6906 H   0  0  0  0  0  0
  -26.0198  -38.2894   24.1393 H   0  0  0  0  0  0
  -28.2227  -19.0153   19.5152 H   0  0  0  0  0  0
  -29.0476  -20.7720   23.3517 H   0  0  0  0  0  0
  -28.2126  -16.3217   27.5069 H   0  0  0  0  0  0
  -28.2492  -16.1338   25.7698 H   0  0  0  0  0  0
  -27.1179  -17.2668   26.5000 H   0  0  0  0  0  0
  -29.2108  -18.2969   28.6381 H   0  0  0  0  0  0
  -28.1587  -19.4190   27.7799 H   0  0  0  0  0  0
  -29.9098  -19.6254   27.7298 H   0  0  0  0  0  0
  -27.0536  -21.0933   18.9823 H   0  0  0  0  0  0
  -28.7542  -21.4402   18.6541 H   0  0  0  0  0  0
  -27.5951  -22.7469   18.7956 H   0  0  0  0  0  0
  -26.0595  -21.5193   21.3075 H   0  0  0  0  0  0
  -26.4684  -23.2054   21.0613 H   0  0  0  0  0  0
  -27.0205  -22.3788   22.5134 H   0  0  0  0  0  0
  -31.3759  -17.7090   21.9468 H   0  0  0  0  0  0
  -32.4946  -16.5368   21.3802 H   0  0  0  0  0  0
  -31.4111  -16.1144   22.6932 H   0  0  0  0  0  0
  -28.2667  -16.3223   20.3879 H   0  0  0  0  0  0
  -28.6636  -16.0554   22.0421 H   0  0  0  0  0  0
  -29.7583  -24.9404   21.5750 H   0  0  0  0  0  0
  -28.1149  -24.5706   21.9326 H   0  0  0  0  0  0
  -29.7402  -22.6635   21.9344 H   0  0  0  0  0  0
  -30.0589  -22.8351   20.2514 H   0  0  0  0  0  0
  -27.9887  -19.1887   25.1116 H   0  0  0  0  0  0
  -29.6546  -19.7059   25.2612 H   0  0  0  0  0  0
  -28.8892  -17.0927   23.9042 H   0  0  0  0  0  0
  -30.4613  -17.8628   23.9207 H   0  0  0  0  0  0
  -27.5560  -24.8261   19.4926 H   0  0  0  0  0  0
  -29.2230  -25.0801   19.1256 H   0  0  0  0  0  0
  -30.1634  -17.5310   26.4682 H   0  0  0  0  0  0
  -30.6384  -17.7731   19.5027 H   0  0  0  0  0  0
  -30.0862  -16.4477   18.7086 H   0  0  0  0  0  0
  -31.6366  -16.5021   19.1692 H   0  0  0  0  0  0
  1 25  1  0  0  0
  1 30  2  0  0  0
  1 88  1  0  0  0
  2  3  1  0  0  0
  2 25  1  0  0  0
  2 91  1  0  0  0
  2 92  1  0  0  0
  3  4  1  0  0  0
  3 93  1  0  0  0
  3 94  1  0  0  0
  4  5  1  0  0  0
  4 95  1  0  0  0
  4 96  1  0  0  0
  5  6  1  0  0  0
  5 26  1  0  0  0
  5 97  1  0  0  0
  6 25  1  0  0  0
  6 98  1  0  0  0
  6 99  1  0  0  0
  7  8  2  0  0  0
  7 26  1  0  0  0
  7 29  1  0  0  0
  8  9  1  0  0  0
  8 22  1  0  0  0
  9 10  1  0  0  0
  9 27  2  0  0  0
 10 11  2  0  0  0
 10 15  1  0  0  0
 11 12  1  0  0  0
 11100  1  0  0  0
 12 13  2  0  0  0
 12101  1  0  0  0
 13 14  1  0  0  0
 13 31  1  0  0  0
 14 15  2  0  0  0
 14102  1  0  0  0
 15103  1  0  0  0
 16 17  2  0  0  0
 16 21  1  0  0  0
 16 31  1  0  0  0
 17 18  1  0  0  0
 17104  1  0  0  0
 18 19  2  0  0  0
 18105  1  0  0  0
 19 20  1  0  0  0
 19 24  1  0  0  0
 20 21  2  0  0  0
 20106  1  0  0  0
 21 23  1  0  0  0
 22 28  1  0  0  0
 22 32  2  0  0  0
 26 27  1  0  0  0
 28107  1  0  0  0
 28108  1  0  0  0
 29109  1  0  0  0
 29110  1  0  0  0
 33 34  1  0  0  0
 33 66  1  0  0  0
 33 70  2  0  0  0
 34 36  1  0  0  0
 34 59  1  0  0  0
 34111  1  0  0  0
 35 44  2  0  0  0
 35 45  1  0  0  0
 35 68  1  0  0  0
 36 56  1  0  0  0
 36112  1  0  0  0
 37 39  1  0  0  0
 37 47  1  0  0  0
 37 66  1  0  0  0
 37113  1  0  0  0
 38 43  2  0  0  0
 38 46  1  0  0  0
 38 47  1  0  0  0
 39 64  1  0  0  0
 39 67  2  0  0  0
 40 52  1  0  0  0
 40 53  2  0  0  0
 40 58  1  0  0  0
 41114  1  0  0  0
 41115  1  0  0  0
 41116  1  0  0  0
 41 48  1  0  0  0
 42 43  1  0  0  0
 42 66  1  0  0  0
 42117  1  0  0  0
 42118  1  0  0  0
 43 44  1  0  0  0
 44119  1  0  0  0
 45 46  2  0  0  0
 45120  1  0  0  0
 46121  1  0  0  0
 47122  1  0  0  0
 47123  1  0  0  0
 48 56  1  0  0  0
 48 65  1  0  0  0
 48124  1  0  0  0
 49 50  1  0  0  0
 49 53  1  0  0  0
 49 64  1  0  0  0
 49125  1  0  0  0
 50 51  1  0  0  0
 50126  1  0  0  0
 50127  1  0  0  0
 51 52  1  0  0  0
 51128  1  0  0  0
 51129  1  0  0  0
 52130  1  0  0  0
 52131  1  0  0  0
 53 54  1  0  0  0
 54 55  2  0  0  0
 54132  1  0  0  0
 55 57  1  0  0  0
 55133  1  0  0  0
 56 69  2  0  0  0
 57 58  2  0  0  0
 57134  1  0  0  0
 58135  1  0  0  0
 59 60  1  0  0  0
 59 61  1  0  0  0
 59 62  1  0  0  0
 60136  1  0  0  0
 60137  1  0  0  0
 60138  1  0  0  0
 61139  1  0  0  0
 61140  1  0  0  0
 61141  1  0  0  0
 62142  1  0  0  0
 62143  1  0  0  0
 62144  1  0  0  0
 63 65  1  0  0  0
 63145  1  0  0  0
 63146  1  0  0  0
 63147  1  0  0  0
 64148  1  0  0  0
 65149  1  0  0  0
 68 85  1  0  0  0
 71 73  1  0  0  0
 71 74  2  0  0  0
 71150  1  0  0  0
 72 73  2  0  0  0
 72 89  1  0  0  0
 72151  1  0  0  0
 73 87  1  0  0  0
 74 80  1  0  0  0
 74 89  1  0  0  0
 75152  1  0  0  0
 75153  1  0  0  0
 75154  1  0  0  0
 75 86  1  0  0  0
 76 86  1  0  0  0
 76155  1  0  0  0
 76156  1  0  0  0
 76157  1  0  0  0
 77158  1  0  0  0
 77159  1  0  0  0
 77160  1  0  0  0
 77 87  1  0  0  0
 78 87  1  0  0  0
 78161  1  0  0  0
 78162  1  0  0  0
 78163  1  0  0  0
 79164  1  0  0  0
 79165  1  0  0  0
 79166  1  0  0  0
 79 88  1  0  0  0
 80 88  1  0  0  0
 80167  1  0  0  0
 80168  1  0  0  0
 81 82  1  0  0  0
 81 85  1  0  0  0
 81169  1  0  0  0
 81170  1  0  0  0
 82 87  1  0  0  0
 82171  1  0  0  0
 82172  1  0  0  0
 83 84  1  0  0  0
 83 86  1  0  0  0
 83173  1  0  0  0
 83174  1  0  0  0
 84 89  1  0  0  0
 84175  1  0  0  0
 84176  1  0  0  0
 85177  1  0  0  0
 85178  1  0  0  0
 86179  1  0  0  0
 88 90  1  0  0  0
 90180  1  0  0  0
 90181  1  0  0  0
 90182  1  0  0  0
M  CHG  1  90   1
M  ISO  4   1 100  68 101  85 101  88 100
M  END
> <chiral flag>
0

> <version>
0

> <s_m_source_file>
/data/baiqing/PycharmProjects/Reinvent-master-3.2/result/LINK_invent/BTK/process_docking_weight1_custom_sum_contain_oxygen_bond_distance_aromatic_linkinvent_7_9_3/rearranged_h_0085.sdf

> <i_m_source_file_index>
34

> <r_mmod_Potential_Energy-OPLS-2005>
-170.46418762207

> <r_mmod_Stretch_Energy-OPLS-2005>
63.6133193969727

> <r_mmod_Bend_Energy-OPLS-2005>
191.256759643555

> <r_mmod_Torsional_Energy-OPLS-2005>
233.914489746094

> <r_mmod_Improper_Torsional_Energy-OPLS-2005>
4.76118421554565

> <r_mmod_Van_der_Waal_Energy-OPLS-2005>
144.128936767578

> <r_mmod_Electrostatic_Energy-OPLS-2005>
-416.383514404297

> <r_mmod_Solvation_Energy-OPLS-2005>
-432.559539794922

> <b_mmod_Minimization_Converged-OPLS-2005>
0

> <r_mmod_RMS_Derivative-OPLS-2005>
4.94883823394775

$$$$
35
                    3D
 Structure written by MMmdl.
164172  0  0  1  0            999 V2000
  -30.7050  -14.6699   20.5882 C   0  0  0  0  0  0
  -30.4346  -12.4285   19.5056 C   0  0  0  0  0  0
  -29.5286  -12.5218   18.2574 C   0  0  0  0  0  0
  -28.0500  -12.3459   18.6484 C   0  0  0  0  0  0
  -27.6592  -13.2234   19.8637 C   0  0  2  0  0  0
  -28.6922  -13.0901   21.0032 C   0  0  0  0  0  0
  -25.2585  -13.8147   20.5625 C   0  0  0  0  0  0
  -24.1859  -13.0425   20.9179 C   0  0  0  0  0  0
  -24.6437  -11.6889   20.8734 C   0  0  0  0  0  0
  -23.9101  -10.4262   21.0404 C   0  0  0  0  0  0
  -24.3642   -9.4155   21.9147 C   0  0  0  0  0  0
  -23.6286   -8.2220   22.0730 C   0  0  0  0  0  0
  -22.4250   -8.0281   21.3553 C   0  0  0  0  0  0
  -21.9881   -9.0272   20.4672 C   0  0  0  0  0  0
  -22.7257  -10.2120   20.3072 C   0  0  0  0  0  0
  -21.6837   -6.0724   22.5287 C   0  0  0  0  0  0
  -21.4001   -6.5641   23.8214 C   0  0  0  0  0  0
  -21.3643   -5.6815   24.9185 C   0  0  0  0  0  0
  -21.6047   -4.3079   24.7248 C   0  0  0  0  0  0
  -21.8804   -3.8149   23.4374 C   0  0  0  0  0  0
  -21.9181   -4.6948   22.3416 C   0  0  0  0  0  0
  -22.7870  -13.5219   21.1839 C   0  0  0  0  0  0
  -22.1661   -4.2127   21.1001 F   0  0  0  0  0  0
  -21.5614   -3.4576   25.7763 F   0  0  0  0  0  0
  -30.0238  -13.4638   20.5019 N   0  0  0  0  0  0
  -26.3024  -12.9346   20.3268 N   0  0  0  0  0  0
  -25.9364  -11.6501   20.5752 N   0  0  0  0  0  0
  -22.0503  -12.8259   22.0402 N   0  0  0  0  0  0
  -25.4304  -15.1863   20.3970 N   0  0  0  0  0  0
  -31.7084  -14.8036   19.8786 O   0  0  0  0  0  0
  -21.6622   -6.8870   21.4247 O   0  0  0  0  0  0
  -22.3529  -14.5486   20.6618 O   0  0  0  0  0  0
  -24.6301  -31.8589   23.2063 C   0  0  0  0  0  0
  -25.9163  -32.4750   23.8367 C   0  0  1  0  0  0
  -27.2096  -27.2690   20.1078 C   0  0  0  0  0  0
  -25.6004  -33.8556   24.2309 N   0  0  0  0  0  0
  -23.4233  -30.4919   21.5431 C   0  0  2  0  0  0
  -24.8697  -28.9471   20.1013 C   0  0  0  0  0  0
  -22.7470  -29.4668   22.4838 C   0  0  0  0  0  0
  -18.0303  -28.1404   22.8463 C   0  0  0  0  0  0
  -24.1494  -36.7270   23.2628 C   0  0  0  0  0  0
  -25.9737  -30.7642   21.3969 C   0  0  0  0  0  0
  -26.0387  -29.3921   20.7307 C   0  0  0  0  0  0
  -27.2056  -28.5600   20.7374 C   0  0  0  0  0  0
  -26.0286  -26.9163   19.4128 C   0  0  0  0  0  0
  -24.8714  -27.7161   19.4333 C   0  0  0  0  0  0
  -23.6450  -29.8428   20.1519 C   0  0  0  0  0  0
  -25.4113  -36.3053   24.0329 C   0  0  1  0  0  0
  -20.5906  -28.3742   23.1220 C   0  0  2  0  0  0
  -20.6790  -26.9446   22.5380 C   0  0  0  0  0  0
  -19.5775  -26.6396   21.5184 C   0  0  0  0  0  0
  -18.1959  -26.7943   22.1602 C   0  0  0  0  0  0
  -19.1551  -28.8880   23.2858 C   0  0  0  0  0  0
  -18.9477  -30.1462   23.8898 C   0  0  0  0  0  0
  -17.6482  -30.6592   24.0574 C   0  0  0  0  0  0
  -25.9059  -34.9429   23.5103 C   0  0  0  0  0  0
  -16.5375  -29.9104   23.6323 C   0  0  0  0  0  0
  -16.7289  -28.6529   23.0331 C   0  0  0  0  0  0
  -26.4542  -31.6562   25.0744 C   0  0  0  0  0  0
  -25.3766  -31.3734   26.1464 C   0  0  0  0  0  0
  -27.0379  -30.2958   24.6256 C   0  0  0  0  0  0
  -27.6101  -32.4281   25.7521 C   0  0  0  0  0  0
  -27.5573  -37.1797   24.8462 C   0  0  0  0  0  0
  -21.4187  -29.3105   22.3594 N   0  0  0  0  0  0
  -26.4274  -37.3758   23.9415 N   0  0  0  0  0  0
  -24.6934  -31.0547   22.1046 N   0  0  0  0  0  0
  -23.4170  -28.8173   23.2913 O   0  0  0  0  0  0
  -28.3035  -26.3716   20.1957 O   0  0  0  0  0  0
  -26.5581  -34.8906   22.4638 O   0  0  0  0  0  0
  -23.5465  -32.1442   23.7362 O   0  0  0  0  0  0
  -30.2467  -18.6707   20.5091 C   0  0  0  0  0  0
  -30.1325  -20.0202   20.0356 C   0  0  0  0  0  0
  -29.2951  -18.0959   21.4026 C   0  0  0  0  0  0
  -29.0585  -20.8545   20.4352 C   0  0  0  0  0  0
  -28.2494  -19.0396   21.7497 C   0  0  0  0  0  0
  -27.1181  -18.7805   22.7287 C   0  0  0  0  0  0
  -31.8627  -15.8545   22.3155 C   0  0  0  0  0  0
  -28.7134  -22.2539   19.7665 C   0  0  0  0  0  0
  -28.8593  -23.6828   20.4964 C   0  0  0  0  0  0
  -28.4281  -16.0171   22.9851 C   0  0  0  0  0  0
  -28.1730  -24.9393   19.7502 C   0  0  0  0  0  0
  -29.5402  -16.6456   22.0916 C   0  0  1  0  0  0
  -28.1498  -20.3211   21.2779 N   0  0  0  0  0  0
  -30.5684  -15.5733   21.6479 N   0  0  0  0  0  0
  -28.9183  -14.9473   23.8854 N   0  3  0  0  0  0
  -31.4849  -12.5068   19.2146 H   0  0  0  0  0  0
  -30.3534  -11.4345   19.9486 H   0  0  0  0  0  0
  -29.8162  -11.7594   17.5333 H   0  0  0  0  0  0
  -29.6734  -13.4846   17.7651 H   0  0  0  0  0  0
  -27.8956  -11.2949   18.8974 H   0  0  0  0  0  0
  -27.4063  -12.5568   17.7947 H   0  0  0  0  0  0
  -27.6773  -14.2594   19.5257 H   0  0  0  0  0  0
  -28.7099  -12.0636   21.3738 H   0  0  0  0  0  0
  -28.3759  -13.6828   21.8421 H   0  0  0  0  0  0
  -25.2821   -9.5576   22.4699 H   0  0  0  0  0  0
  -23.9978   -7.4588   22.7448 H   0  0  0  0  0  0
  -21.0773   -8.8861   19.9006 H   0  0  0  0  0  0
  -22.3744  -10.9668   19.6186 H   0  0  0  0  0  0
  -21.1994   -7.6154   23.9719 H   0  0  0  0  0  0
  -21.1486   -6.0547   25.9082 H   0  0  0  0  0  0
  -22.0585   -2.7608   23.2909 H   0  0  0  0  0  0
  -22.4140  -11.9994   22.4930 H   0  0  0  0  0  0
  -21.1078  -13.1270   22.2502 H   0  0  0  0  0  0
  -24.6239  -15.8009   20.3709 H   0  0  0  0  0  0
  -26.2478  -15.5937   19.9620 H   0  0  0  0  0  0
  -26.7211  -32.5395   23.1081 H   0  0  0  0  0  0
  -25.0264  -33.9703   25.0527 H   0  0  0  0  0  0
  -22.7224  -31.3178   21.4041 H   0  0  0  0  0  0
  -23.3747  -35.9604   23.3280 H   0  0  0  0  0  0
  -24.3594  -36.8886   22.2040 H   0  0  0  0  0  0
  -23.7249  -37.6476   23.6652 H   0  0  0  0  0  0
  -26.1249  -31.5297   20.6341 H   0  0  0  0  0  0
  -26.8474  -30.8010   22.0356 H   0  0  0  0  0  0
  -28.0895  -28.8860   21.2673 H   0  0  0  0  0  0
  -25.9507  -26.0105   18.8314 H   0  0  0  0  0  0
  -23.9874  -27.3836   18.9067 H   0  0  0  0  0  0
  -23.7873  -30.6332   19.4143 H   0  0  0  0  0  0
  -22.7572  -29.2976   19.8250 H   0  0  0  0  0  0
  -25.1279  -36.1896   25.0816 H   0  0  0  0  0  0
  -21.0037  -28.3369   24.1324 H   0  0  0  0  0  0
  -20.5668  -26.2372   23.3611 H   0  0  0  0  0  0
  -21.6674  -26.7459   22.1198 H   0  0  0  0  0  0
  -19.6950  -25.6303   21.1237 H   0  0  0  0  0  0
  -19.6710  -27.3185   20.6702 H   0  0  0  0  0  0
  -17.4215  -26.6670   21.4017 H   0  0  0  0  0  0
  -18.0381  -26.0082   22.9004 H   0  0  0  0  0  0
  -19.7960  -30.7266   24.2275 H   0  0  0  0  0  0
  -17.5049  -31.6262   24.5192 H   0  0  0  0  0  0
  -15.5387  -30.3019   23.7632 H   0  0  0  0  0  0
  -15.8693  -28.0860   22.7029 H   0  0  0  0  0  0
  -24.5980  -30.7015   25.7842 H   0  0  0  0  0  0
  -24.8913  -32.2907   26.4818 H   0  0  0  0  0  0
  -25.8107  -30.9009   27.0284 H   0  0  0  0  0  0
  -26.2985  -29.6679   24.1273 H   0  0  0  0  0  0
  -27.4028  -29.7245   25.4801 H   0  0  0  0  0  0
  -27.8887  -30.4187   23.9543 H   0  0  0  0  0  0
  -27.2738  -33.3595   26.2090 H   0  0  0  0  0  0
  -28.3953  -32.6800   25.0379 H   0  0  0  0  0  0
  -28.0723  -31.8389   26.5452 H   0  0  0  0  0  0
  -28.2578  -38.0105   24.7491 H   0  0  0  0  0  0
  -28.1086  -36.2630   24.6302 H   0  0  0  0  0  0
  -27.2296  -37.1457   25.8867 H   0  0  0  0  0  0
  -20.9343  -29.8860   21.6845 H   0  0  0  0  0  0
  -26.0146  -38.2819   24.1430 H   0  0  0  0  0  0
  -31.0963  -18.0837   20.1907 H   0  0  0  0  0  0
  -30.8636  -20.3984   19.3341 H   0  0  0  0  0  0
  -27.4922  -18.7848   23.7531 H   0  0  0  0  0  0
  -26.5884  -17.8556   22.5100 H   0  0  0  0  0  0
  -26.3644  -19.5675   22.6858 H   0  0  0  0  0  0
  -31.7565  -15.9176   23.3992 H   0  0  0  0  0  0
  -32.2745  -16.7995   21.9585 H   0  0  0  0  0  0
  -32.6243  -15.0883   22.1519 H   0  0  0  0  0  0
  -27.6707  -22.1611   19.4606 H   0  0  0  0  0  0
  -29.2608  -22.3016   18.8250 H   0  0  0  0  0  0
  -29.9175  -23.8811   20.6661 H   0  0  0  0  0  0
  -28.4079  -23.6000   21.4850 H   0  0  0  0  0  0
  -27.5744  -15.6807   22.3954 H   0  0  0  0  0  0
  -28.0589  -16.7267   23.7133 H   0  0  0  0  0  0
  -27.1285  -24.6432   19.7298 H   0  0  0  0  0  0
  -28.4999  -24.9219   18.7098 H   0  0  0  0  0  0
  -30.0687  -17.1369   22.9090 H   0  0  0  0  0  0
  -29.6745  -15.2835   24.4569 H   0  0  0  0  0  0
  -29.2298  -14.1329   23.3883 H   0  0  0  0  0  0
  -28.1779  -14.6709   24.5070 H   0  0  0  0  0  0
  1 25  1  0  0  0
  1 30  2  0  0  0
  1 84  1  0  0  0
  2  3  1  0  0  0
  2 25  1  0  0  0
  2 86  1  0  0  0
  2 87  1  0  0  0
  3  4  1  0  0  0
  3 88  1  0  0  0
  3 89  1  0  0  0
  4  5  1  0  0  0
  4 90  1  0  0  0
  4 91  1  0  0  0
  5  6  1  0  0  0
  5 26  1  0  0  0
  5 92  1  0  0  0
  6 25  1  0  0  0
  6 93  1  0  0  0
  6 94  1  0  0  0
  7  8  2  0  0  0
  7 26  1  0  0  0
  7 29  1  0  0  0
  8  9  1  0  0  0
  8 22  1  0  0  0
  9 10  1  0  0  0
  9 27  2  0  0  0
 10 11  2  0  0  0
 10 15  1  0  0  0
 11 12  1  0  0  0
 11 95  1  0  0  0
 12 13  2  0  0  0
 12 96  1  0  0  0
 13 14  1  0  0  0
 13 31  1  0  0  0
 14 15  2  0  0  0
 14 97  1  0  0  0
 15 98  1  0  0  0
 16 17  2  0  0  0
 16 21  1  0  0  0
 16 31  1  0  0  0
 17 18  1  0  0  0
 17 99  1  0  0  0
 18 19  2  0  0  0
 18100  1  0  0  0
 19 20  1  0  0  0
 19 24  1  0  0  0
 20 21  2  0  0  0
 20101  1  0  0  0
 21 23  1  0  0  0
 22 28  1  0  0  0
 22 32  2  0  0  0
 26 27  1  0  0  0
 28102  1  0  0  0
 28103  1  0  0  0
 29104  1  0  0  0
 29105  1  0  0  0
 33 34  1  0  0  0
 33 66  1  0  0  0
 33 70  2  0  0  0
 34 36  1  0  0  0
 34 59  1  0  0  0
 34106  1  0  0  0
 35 44  2  0  0  0
 35 45  1  0  0  0
 35 68  1  0  0  0
 36 56  1  0  0  0
 36107  1  0  0  0
 37 39  1  0  0  0
 37 47  1  0  0  0
 37 66  1  0  0  0
 37108  1  0  0  0
 38 43  2  0  0  0
 38 46  1  0  0  0
 38 47  1  0  0  0
 39 64  1  0  0  0
 39 67  2  0  0  0
 40 52  1  0  0  0
 40 53  2  0  0  0
 40 58  1  0  0  0
 41109  1  0  0  0
 41110  1  0  0  0
 41111  1  0  0  0
 41 48  1  0  0  0
 42 43  1  0  0  0
 42 66  1  0  0  0
 42112  1  0  0  0
 42113  1  0  0  0
 43 44  1  0  0  0
 44114  1  0  0  0
 45 46  2  0  0  0
 45115  1  0  0  0
 46116  1  0  0  0
 47117  1  0  0  0
 47118  1  0  0  0
 48 56  1  0  0  0
 48 65  1  0  0  0
 48119  1  0  0  0
 49 50  1  0  0  0
 49 53  1  0  0  0
 49 64  1  0  0  0
 49120  1  0  0  0
 50 51  1  0  0  0
 50121  1  0  0  0
 50122  1  0  0  0
 51 52  1  0  0  0
 51123  1  0  0  0
 51124  1  0  0  0
 52125  1  0  0  0
 52126  1  0  0  0
 53 54  1  0  0  0
 54 55  2  0  0  0
 54127  1  0  0  0
 55 57  1  0  0  0
 55128  1  0  0  0
 56 69  2  0  0  0
 57 58  2  0  0  0
 57129  1  0  0  0
 58130  1  0  0  0
 59 60  1  0  0  0
 59 61  1  0  0  0
 59 62  1  0  0  0
 60131  1  0  0  0
 60132  1  0  0  0
 60133  1  0  0  0
 61134  1  0  0  0
 61135  1  0  0  0
 61136  1  0  0  0
 62137  1  0  0  0
 62138  1  0  0  0
 62139  1  0  0  0
 63 65  1  0  0  0
 63140  1  0  0  0
 63141  1  0  0  0
 63142  1  0  0  0
 64143  1  0  0  0
 65144  1  0  0  0
 68 81  1  0  0  0
 71 72  2  0  0  0
 71 73  1  0  0  0
 71145  1  0  0  0
 72 74  1  0  0  0
 72146  1  0  0  0
 73 75  2  0  0  0
 73 82  1  0  0  0
 74 78  1  0  0  0
 74 83  2  0  0  0
 75 76  1  0  0  0
 75 83  1  0  0  0
 76147  1  0  0  0
 76148  1  0  0  0
 76149  1  0  0  0
 77 84  1  0  0  0
 77150  1  0  0  0
 77151  1  0  0  0
 77152  1  0  0  0
 78 79  1  0  0  0
 78153  1  0  0  0
 78154  1  0  0  0
 79 81  1  0  0  0
 79155  1  0  0  0
 79156  1  0  0  0
 80 85  1  0  0  0
 80157  1  0  0  0
 80158  1  0  0  0
 80 82  1  0  0  0
 81159  1  0  0  0
 81160  1  0  0  0
 82 84  1  0  0  0
 82161  1  0  0  0
 85162  1  0  0  0
 85163  1  0  0  0
 85164  1  0  0  0
M  CHG  1  85   1
M  ISO  4   1 100  68 101  81 101  84 100
M  END
> <chiral flag>
0

> <version>
0

> <s_m_source_file>
/data/baiqing/PycharmProjects/Reinvent-master-3.2/result/LINK_invent/BTK/process_docking_weight1_custom_sum_contain_oxygen_bond_distance_aromatic_linkinvent_7_9_3/rearranged_h_0085.sdf

> <i_m_source_file_index>
35

> <r_mmod_Potential_Energy-OPLS-2005>
10.1471376419067

> <r_mmod_Stretch_Energy-OPLS-2005>
138.248977661133

> <r_mmod_Bend_Energy-OPLS-2005>
275.063781738281

> <r_mmod_Torsional_Energy-OPLS-2005>
290.6748046875

> <r_mmod_Improper_Torsional_Energy-OPLS-2005>
15.0096082687378

> <r_mmod_Van_der_Waal_Energy-OPLS-2005>
170.445022583008

> <r_mmod_Electrostatic_Energy-OPLS-2005>
-435.576934814453

> <r_mmod_Solvation_Energy-OPLS-2005>
-515.199829101562

> <b_mmod_Minimization_Converged-OPLS-2005>
0

> <r_mmod_RMS_Derivative-OPLS-2005>
3.48237609863281

$$$$
36
                    3D
 Structure written by MMmdl.
174182  0  0  1  0            999 V2000
  -30.6820  -14.4964   20.5953 C   0  0  0  0  0  0
  -30.4250  -12.3239   19.4286 C   0  0  0  0  0  0
  -29.4974  -12.5155   18.2109 C   0  0  0  0  0  0
  -28.0174  -12.3719   18.6200 C   0  0  0  0  0  0
  -27.6600  -13.2077   19.8775 C   0  0  2  0  0  0
  -28.7011  -12.9861   20.9967 C   0  0  0  0  0  0
  -25.2579  -13.8141   20.5699 C   0  0  0  0  0  0
  -24.1838  -13.0418   20.9191 C   0  0  0  0  0  0
  -24.6393  -11.6885   20.8744 C   0  0  0  0  0  0
  -23.9056  -10.4282   21.0419 C   0  0  0  0  0  0
  -24.3612   -9.4202   21.9197 C   0  0  0  0  0  0
  -23.6294   -8.2235   22.0755 C   0  0  0  0  0  0
  -22.4272   -8.0279   21.3549 C   0  0  0  0  0  0
  -21.9912   -9.0247   20.4643 C   0  0  0  0  0  0
  -22.7230  -10.2130   20.3064 C   0  0  0  0  0  0
  -21.6854   -6.0734   22.5284 C   0  0  0  0  0  0
  -21.4010   -6.5637   23.8218 C   0  0  0  0  0  0
  -21.3669   -5.6795   24.9184 C   0  0  0  0  0  0
  -21.6049   -4.3056   24.7232 C   0  0  0  0  0  0
  -21.8822   -3.8146   23.4356 C   0  0  0  0  0  0
  -21.9190   -4.6962   22.3412 C   0  0  0  0  0  0
  -22.7854  -13.5207   21.1861 C   0  0  0  0  0  0
  -22.1658   -4.2146   21.0993 F   0  0  0  0  0  0
  -21.5640   -3.4544   25.7750 F   0  0  0  0  0  0
  -30.0261  -13.3088   20.4487 N   0  0  0  0  0  0
  -26.3020  -12.9318   20.3390 N   0  0  0  0  0  0
  -25.9319  -11.6470   20.5764 N   0  0  0  0  0  0
  -22.0499  -12.8202   22.0419 N   0  0  0  0  0  0
  -25.4292  -15.1870   20.4111 N   0  0  0  0  0  0
  -31.8051  -14.6641   20.1085 O   0  0  0  0  0  0
  -21.6636   -6.8878   21.4243 O   0  0  0  0  0  0
  -22.3540  -14.5523   20.6718 O   0  0  0  0  0  0
  -24.6166  -31.8668   23.2107 C   0  0  0  0  0  0
  -25.9061  -32.4812   23.8405 C   0  0  1  0  0  0
  -27.2261  -27.4229   20.1113 C   0  0  0  0  0  0
  -25.5925  -33.8620   24.2327 N   0  0  0  0  0  0
  -23.4040  -30.4908   21.5511 C   0  0  2  0  0  0
  -24.8499  -28.9530   20.1164 C   0  0  0  0  0  0
  -22.7410  -29.4676   22.5008 C   0  0  0  0  0  0
  -18.0279  -28.1386   22.8491 C   0  0  0  0  0  0
  -24.1487  -36.7308   23.2635 C   0  0  0  0  0  0
  -25.9316  -30.8272   21.3655 C   0  0  0  0  0  0
  -26.0076  -29.4585   20.7219 C   0  0  0  0  0  0
  -27.2006  -28.6977   20.7235 C   0  0  0  0  0  0
  -26.0632  -26.9442   19.4770 C   0  0  0  0  0  0
  -24.8728  -27.6948   19.4898 C   0  0  0  0  0  0
  -23.6116  -29.8193   20.1673 C   0  0  0  0  0  0
  -25.4104  -36.3099   24.0333 C   0  0  1  0  0  0
  -20.5862  -28.3683   23.1315 C   0  0  2  0  0  0
  -20.6786  -26.9429   22.5413 C   0  0  0  0  0  0
  -19.5765  -26.6394   21.5217 C   0  0  0  0  0  0
  -18.1933  -26.7939   22.1619 C   0  0  0  0  0  0
  -19.1521  -28.8855   23.2900 C   0  0  0  0  0  0
  -18.9455  -30.1456   23.8920 C   0  0  0  0  0  0
  -17.6461  -30.6601   24.0567 C   0  0  0  0  0  0
  -25.9038  -34.9467   23.5118 C   0  0  0  0  0  0
  -16.5350  -29.9098   23.6335 C   0  0  0  0  0  0
  -16.7264  -28.6508   23.0362 C   0  0  0  0  0  0
  -26.4482  -31.6602   25.0742 C   0  0  0  0  0  0
  -25.3743  -31.3713   26.1493 C   0  0  0  0  0  0
  -27.0313  -30.3050   24.6110 C   0  0  0  0  0  0
  -27.6059  -32.4330   25.7502 C   0  0  0  0  0  0
  -27.5573  -37.1801   24.8460 C   0  0  0  0  0  0
  -21.4149  -29.3041   22.3718 N   0  0  0  0  0  0
  -26.4281  -37.3791   23.9411 N   0  0  0  0  0  0
  -24.6690  -31.0757   22.1018 N   0  0  0  0  0  0
  -23.4167  -28.8244   23.3084 O   0  0  0  0  0  0
  -28.3740  -26.6651   20.0754 O   0  0  0  0  0  0
  -26.5577  -34.8915   22.4666 O   0  0  0  0  0  0
  -23.5366  -32.1435   23.7497 O   0  0  0  0  0  0
  -30.6091  -21.1337   18.3037 C   0  0  0  0  0  0
  -30.0358  -22.1880   19.0250 C   0  0  0  0  0  0
  -30.8846  -19.9121   18.9514 C   0  0  0  0  0  0
  -29.6976  -21.9901   20.3728 C   0  0  0  0  0  0
  -30.4780  -19.7645   20.3061 C   0  0  0  0  0  0
  -26.3096  -22.5542   20.1697 C   0  0  0  0  0  0
  -33.1089  -19.3632   17.8824 C   0  0  0  0  0  0
  -30.9623  -18.4030   16.9061 C   0  0  0  0  0  0
  -30.2065  -15.7248   22.8013 C   0  0  0  0  0  0
  -29.2533  -23.1705   21.2535 C   0  0  0  0  0  0
  -30.8361  -18.5217   21.1465 C   0  0  0  0  0  0
  -26.7886  -23.7854   20.9526 C   0  0  0  0  0  0
  -30.3449  -17.1226   20.5835 C   0  0  0  0  0  0
  -28.5158  -25.6716   21.1071 C   0  0  0  0  0  0
  -31.6883  -18.8578   18.1831 C   0  0  0  0  0  0
  -29.9850  -15.7332   21.2686 C   0  0  1  0  0  0
  -28.2434  -24.2028   20.6357 C   0  0  1  0  0  0
  -29.8860  -20.7881   20.9829 N   0  0  0  0  0  0
  -31.4709  -12.4251   19.1320 H   0  0  0  0  0  0
  -30.3297  -11.3124   19.8255 H   0  0  0  0  0  0
  -29.7422  -11.7907   17.4331 H   0  0  0  0  0  0
  -29.6637  -13.5035   17.7773 H   0  0  0  0  0  0
  -27.8262  -11.3164   18.8127 H   0  0  0  0  0  0
  -27.3690  -12.6514   17.7888 H   0  0  0  0  0  0
  -27.7018  -14.2547   19.5797 H   0  0  0  0  0  0
  -28.6838  -11.9462   21.3268 H   0  0  0  0  0  0
  -28.4601  -13.5686   21.8851 H   0  0  0  0  0  0
  -25.2761   -9.5688   22.4767 H   0  0  0  0  0  0
  -24.0019   -7.4626   22.7471 H   0  0  0  0  0  0
  -21.0853   -8.8760   19.8936 H   0  0  0  0  0  0
  -22.3699  -10.9675   19.6178 H   0  0  0  0  0  0
  -21.1993   -7.6141   23.9726 H   0  0  0  0  0  0
  -21.1495   -6.0520   25.9089 H   0  0  0  0  0  0
  -22.0594   -2.7606   23.2859 H   0  0  0  0  0  0
  -22.4087  -11.9844   22.4796 H   0  0  0  0  0  0
  -21.1122  -13.1242   22.2626 H   0  0  0  0  0  0
  -24.6630  -15.8422   20.5215 H   0  0  0  0  0  0
  -26.2848  -15.6289   20.0987 H   0  0  0  0  0  0
  -26.7136  -32.5512   23.1179 H   0  0  0  0  0  0
  -25.0155  -33.9801   25.0528 H   0  0  0  0  0  0
  -22.6946  -31.3089   21.4107 H   0  0  0  0  0  0
  -23.3743  -35.9648   23.3309 H   0  0  0  0  0  0
  -24.3587  -36.8916   22.2047 H   0  0  0  0  0  0
  -23.7252  -37.6523   23.6645 H   0  0  0  0  0  0
  -26.0361  -31.5849   20.5876 H   0  0  0  0  0  0
  -26.8236  -30.8903   21.9764 H   0  0  0  0  0  0
  -28.0946  -29.0804   21.1952 H   0  0  0  0  0  0
  -26.0779  -25.9894   18.9697 H   0  0  0  0  0  0
  -23.9867  -27.3074   19.0046 H   0  0  0  0  0  0
  -23.7133  -30.5890   19.4020 H   0  0  0  0  0  0
  -22.7368  -29.2332   19.8800 H   0  0  0  0  0  0
  -25.1280  -36.1963   25.0825 H   0  0  0  0  0  0
  -20.9939  -28.3258   24.1441 H   0  0  0  0  0  0
  -20.5729  -26.2300   23.3604 H   0  0  0  0  0  0
  -21.6657  -26.7514   22.1186 H   0  0  0  0  0  0
  -19.6945  -25.6304   21.1251 H   0  0  0  0  0  0
  -19.6704  -27.3207   20.6746 H   0  0  0  0  0  0
  -17.4213  -26.6694   21.4002 H   0  0  0  0  0  0
  -18.0328  -26.0074   22.9004 H   0  0  0  0  0  0
  -19.7933  -30.7253   24.2307 H   0  0  0  0  0  0
  -17.5025  -31.6288   24.5153 H   0  0  0  0  0  0
  -15.5359  -30.3009   23.7656 H   0  0  0  0  0  0
  -15.8663  -28.0831   22.7083 H   0  0  0  0  0  0
  -24.5922  -30.7054   25.7833 H   0  0  0  0  0  0
  -24.8930  -32.2872   26.4932 H   0  0  0  0  0  0
  -25.8092  -30.8895   27.0259 H   0  0  0  0  0  0
  -26.2862  -29.6821   24.1147 H   0  0  0  0  0  0
  -27.4084  -29.7275   25.4558 H   0  0  0  0  0  0
  -27.8693  -30.4386   23.9261 H   0  0  0  0  0  0
  -27.2682  -33.3626   26.2096 H   0  0  0  0  0  0
  -28.3853  -32.6900   25.0317 H   0  0  0  0  0  0
  -28.0748  -31.8453   26.5404 H   0  0  0  0  0  0
  -28.2578  -38.0107   24.7520 H   0  0  0  0  0  0
  -28.1071  -36.2638   24.6262 H   0  0  0  0  0  0
  -27.2291  -37.1433   25.8861 H   0  0  0  0  0  0
  -20.9333  -29.8711   21.6884 H   0  0  0  0  0  0
  -26.0159  -38.2857   24.1451 H   0  0  0  0  0  0
  -30.9006  -21.2933   17.2754 H   0  0  0  0  0  0
  -29.9187  -23.1479   18.5435 H   0  0  0  0  0  0
  -25.2631  -22.3388   20.3898 H   0  0  0  0  0  0
  -26.8854  -21.6626   20.4207 H   0  0  0  0  0  0
  -26.3933  -22.7136   19.0948 H   0  0  0  0  0  0
  -33.6352  -19.6234   18.8015 H   0  0  0  0  0  0
  -33.1052  -20.2463   17.2425 H   0  0  0  0  0  0
  -33.7005  -18.5978   17.3806 H   0  0  0  0  0  0
  -29.9873  -17.9740   17.1407 H   0  0  0  0  0  0
  -31.5368  -17.6393   16.3810 H   0  0  0  0  0  0
  -30.8035  -19.2233   16.2062 H   0  0  0  0  0  0
  -31.2454  -15.9251   23.0673 H   0  0  0  0  0  0
  -29.9448  -14.7602   23.2374 H   0  0  0  0  0  0
  -29.5881  -16.4764   23.2915 H   0  0  0  0  0  0
  -30.1831  -23.6782   21.5106 H   0  0  0  0  0  0
  -28.8690  -22.7920   22.2024 H   0  0  0  0  0  0
  -30.4761  -18.6689   22.1697 H   0  0  0  0  0  0
  -31.9262  -18.6099   21.2417 H   0  0  0  0  0  0
  -26.6864  -23.6026   22.0231 H   0  0  0  0  0  0
  -26.1063  -24.6058   20.7434 H   0  0  0  0  0  0
  -29.3844  -17.4855   20.9550 H   0  0  0  0  0  0
  -31.3013  -16.8694   21.0303 H   0  0  0  0  0  0
  -29.5481  -25.7714   21.4406 H   0  0  0  0  0  0
  -27.9141  -25.9168   21.9849 H   0  0  0  0  0  0
  -31.8290  -17.9704   18.7908 H   0  0  0  0  0  0
  -28.9150  -15.5856   21.1129 H   0  0  0  0  0  0
  -28.3704  -24.2252   19.5556 H   0  0  0  0  0  0
  1 25  1  0  0  0
  1 30  2  0  0  0
  1 86  1  0  0  0
  2  3  1  0  0  0
  2 25  1  0  0  0
  2 89  1  0  0  0
  2 90  1  0  0  0
  3  4  1  0  0  0
  3 91  1  0  0  0
  3 92  1  0  0  0
  4  5  1  0  0  0
  4 93  1  0  0  0
  4 94  1  0  0  0
  5  6  1  0  0  0
  5 26  1  0  0  0
  5 95  1  0  0  0
  6 25  1  0  0  0
  6 96  1  0  0  0
  6 97  1  0  0  0
  7  8  2  0  0  0
  7 26  1  0  0  0
  7 29  1  0  0  0
  8  9  1  0  0  0
  8 22  1  0  0  0
  9 10  1  0  0  0
  9 27  2  0  0  0
 10 11  2  0  0  0
 10 15  1  0  0  0
 11 12  1  0  0  0
 11 98  1  0  0  0
 12 13  2  0  0  0
 12 99  1  0  0  0
 13 14  1  0  0  0
 13 31  1  0  0  0
 14 15  2  0  0  0
 14100  1  0  0  0
 15101  1  0  0  0
 16 17  2  0  0  0
 16 21  1  0  0  0
 16 31  1  0  0  0
 17 18  1  0  0  0
 17102  1  0  0  0
 18 19  2  0  0  0
 18103  1  0  0  0
 19 20  1  0  0  0
 19 24  1  0  0  0
 20 21  2  0  0  0
 20104  1  0  0  0
 21 23  1  0  0  0
 22 28  1  0  0  0
 22 32  2  0  0  0
 26 27  1  0  0  0
 28105  1  0  0  0
 28106  1  0  0  0
 29107  1  0  0  0
 29108  1  0  0  0
 33 34  1  0  0  0
 33 66  1  0  0  0
 33 70  2  0  0  0
 34 36  1  0  0  0
 34 59  1  0  0  0
 34109  1  0  0  0
 35 44  2  0  0  0
 35 45  1  0  0  0
 35 68  1  0  0  0
 36 56  1  0  0  0
 36110  1  0  0  0
 37 39  1  0  0  0
 37 47  1  0  0  0
 37 66  1  0  0  0
 37111  1  0  0  0
 38 43  2  0  0  0
 38 46  1  0  0  0
 38 47  1  0  0  0
 39 64  1  0  0  0
 39 67  2  0  0  0
 40 52  1  0  0  0
 40 53  2  0  0  0
 40 58  1  0  0  0
 41112  1  0  0  0
 41113  1  0  0  0
 41114  1  0  0  0
 41 48  1  0  0  0
 42 43  1  0  0  0
 42 66  1  0  0  0
 42115  1  0  0  0
 42116  1  0  0  0
 43 44  1  0  0  0
 44117  1  0  0  0
 45 46  2  0  0  0
 45118  1  0  0  0
 46119  1  0  0  0
 47120  1  0  0  0
 47121  1  0  0  0
 48 56  1  0  0  0
 48 65  1  0  0  0
 48122  1  0  0  0
 49 50  1  0  0  0
 49 53  1  0  0  0
 49 64  1  0  0  0
 49123  1  0  0  0
 50 51  1  0  0  0
 50124  1  0  0  0
 50125  1  0  0  0
 51 52  1  0  0  0
 51126  1  0  0  0
 51127  1  0  0  0
 52128  1  0  0  0
 52129  1  0  0  0
 53 54  1  0  0  0
 54 55  2  0  0  0
 54130  1  0  0  0
 55 57  1  0  0  0
 55131  1  0  0  0
 56 69  2  0  0  0
 57 58  2  0  0  0
 57132  1  0  0  0
 58133  1  0  0  0
 59 60  1  0  0  0
 59 61  1  0  0  0
 59 62  1  0  0  0
 60134  1  0  0  0
 60135  1  0  0  0
 60136  1  0  0  0
 61137  1  0  0  0
 61138  1  0  0  0
 61139  1  0  0  0
 62140  1  0  0  0
 62141  1  0  0  0
 62142  1  0  0  0
 63 65  1  0  0  0
 63143  1  0  0  0
 63144  1  0  0  0
 63145  1  0  0  0
 64146  1  0  0  0
 65147  1  0  0  0
 68 84  1  0  0  0
 71 72  2  0  0  0
 71 73  1  0  0  0
 71148  1  0  0  0
 72 74  1  0  0  0
 72149  1  0  0  0
 73 75  2  0  0  0
 73 85  1  0  0  0
 74 80  1  0  0  0
 74 88  2  0  0  0
 75 81  1  0  0  0
 75 88  1  0  0  0
 76 82  1  0  0  0
 76150  1  0  0  0
 76151  1  0  0  0
 76152  1  0  0  0
 77153  1  0  0  0
 77154  1  0  0  0
 77155  1  0  0  0
 77 85  1  0  0  0
 78 85  1  0  0  0
 78156  1  0  0  0
 78157  1  0  0  0
 78158  1  0  0  0
 79159  1  0  0  0
 79160  1  0  0  0
 79161  1  0  0  0
 79 86  1  0  0  0
 80162  1  0  0  0
 80163  1  0  0  0
 80 87  1  0  0  0
 81 83  1  0  0  0
 81164  1  0  0  0
 81165  1  0  0  0
 82 87  1  0  0  0
 82166  1  0  0  0
 82167  1  0  0  0
 83 86  1  0  0  0
 83168  1  0  0  0
 83169  1  0  0  0
 84 87  1  0  0  0
 84170  1  0  0  0
 84171  1  0  0  0
 85172  1  0  0  0
 86173  1  0  0  0
 87174  1  0  0  0
M  ISO  4   1 100  68 101  84 101  86 100
M  END
> <chiral flag>
0

> <version>
0

> <s_m_source_file>
/data/baiqing/PycharmProjects/Reinvent-master-3.2/result/LINK_invent/BTK/process_docking_weight1_custom_sum_contain_oxygen_bond_distance_aromatic_linkinvent_7_9_3/rearranged_h_0085.sdf

> <i_m_source_file_index>
36

> <r_mmod_Potential_Energy-OPLS-2005>
156.135864257812

> <r_mmod_Stretch_Energy-OPLS-2005>
52.8084030151367

> <r_mmod_Bend_Energy-OPLS-2005>
338.246490478516

> <r_mmod_Torsional_Energy-OPLS-2005>
234.592636108398

> <r_mmod_Improper_Torsional_Energy-OPLS-2005>
4.04227495193481

> <r_mmod_Van_der_Waal_Energy-OPLS-2005>
170.322387695312

> <r_mmod_Electrostatic_Energy-OPLS-2005>
-468.881744384766

> <r_mmod_Solvation_Energy-OPLS-2005>
-188.899307250977

> <b_mmod_Minimization_Converged-OPLS-2005>
0

> <r_mmod_RMS_Derivative-OPLS-2005>
1.94506347179413

$$$$
37
                    3D
 Structure written by MMmdl.
166174  0  0  1  0            999 V2000
  -30.6779  -14.5757   20.5128 C   0  0  0  0  0  0
  -30.4293  -12.3499   19.4545 C   0  0  0  0  0  0
  -29.5054  -12.4783   18.2250 C   0  0  0  0  0  0
  -28.0278  -12.3319   18.6391 C   0  0  0  0  0  0
  -27.6564  -13.2090   19.8656 C   0  0  2  0  0  0
  -28.7000  -13.0661   20.9965 C   0  0  0  0  0  0
  -25.2585  -13.8136   20.5678 C   0  0  0  0  0  0
  -24.1845  -13.0424   20.9169 C   0  0  0  0  0  0
  -24.6392  -11.6889   20.8731 C   0  0  0  0  0  0
  -23.9040  -10.4277   21.0376 C   0  0  0  0  0  0
  -24.3580   -9.4203   21.9170 C   0  0  0  0  0  0
  -23.6257   -8.2244   22.0763 C   0  0  0  0  0  0
  -22.4251   -8.0267   21.3547 C   0  0  0  0  0  0
  -21.9877   -9.0237   20.4654 C   0  0  0  0  0  0
  -22.7195  -10.2117   20.3052 C   0  0  0  0  0  0
  -21.6847   -6.0722   22.5275 C   0  0  0  0  0  0
  -21.4011   -6.5630   23.8207 C   0  0  0  0  0  0
  -21.3668   -5.6787   24.9173 C   0  0  0  0  0  0
  -21.6047   -4.3050   24.7228 C   0  0  0  0  0  0
  -21.8817   -3.8141   23.4348 C   0  0  0  0  0  0
  -21.9192   -4.6951   22.3400 C   0  0  0  0  0  0
  -22.7873  -13.5238   21.1817 C   0  0  0  0  0  0
  -22.1664   -4.2136   21.0977 F   0  0  0  0  0  0
  -21.5629   -3.4532   25.7740 F   0  0  0  0  0  0
  -30.0208  -13.3796   20.4296 N   0  0  0  0  0  0
  -26.3011  -12.9317   20.3345 N   0  0  0  0  0  0
  -25.9318  -11.6475   20.5753 N   0  0  0  0  0  0
  -22.0476  -12.8281   22.0372 N   0  0  0  0  0  0
  -25.4342  -15.1859   20.4100 N   0  0  0  0  0  0
  -31.8354  -14.6931   20.1057 O   0  0  0  0  0  0
  -21.6637   -6.8856   21.4231 O   0  0  0  0  0  0
  -22.3592  -14.5547   20.6643 O   0  0  0  0  0  0
  -24.6210  -31.8641   23.2065 C   0  0  0  0  0  0
  -25.9082  -32.4788   23.8383 C   0  0  1  0  0  0
  -27.2188  -27.3729   20.1059 C   0  0  0  0  0  0
  -25.5933  -33.8595   24.2306 N   0  0  0  0  0  0
  -23.4102  -30.4890   21.5512 C   0  0  2  0  0  0
  -24.8532  -28.9545   20.1086 C   0  0  0  0  0  0
  -22.7458  -29.4629   22.4971 C   0  0  0  0  0  0
  -18.0282  -28.1335   22.8529 C   0  0  0  0  0  0
  -24.1489  -36.7299   23.2635 C   0  0  0  0  0  0
  -25.9453  -30.8094   21.3717 C   0  0  0  0  0  0
  -26.0177  -29.4425   20.7128 C   0  0  0  0  0  0
  -27.2048  -28.6637   20.7009 C   0  0  0  0  0  0
  -26.0360  -26.9266   19.4737 C   0  0  0  0  0  0
  -24.8632  -27.7011   19.4772 C   0  0  0  0  0  0
  -23.6160  -29.8257   20.1642 C   0  0  0  0  0  0
  -25.4120  -36.3091   24.0328 C   0  0  1  0  0  0
  -20.5879  -28.3655   23.1278 C   0  0  2  0  0  0
  -20.6807  -26.9403   22.5346 C   0  0  0  0  0  0
  -19.5723  -26.6374   21.5207 C   0  0  0  0  0  0
  -18.1939  -26.7863   22.1708 C   0  0  0  0  0  0
  -19.1538  -28.8820   23.2894 C   0  0  0  0  0  0
  -18.9477  -30.1418   23.8905 C   0  0  0  0  0  0
  -17.6484  -30.6566   24.0569 C   0  0  0  0  0  0
  -25.9049  -34.9456   23.5112 C   0  0  0  0  0  0
  -16.5365  -29.9071   23.6336 C   0  0  0  0  0  0
  -16.7275  -28.6465   23.0407 C   0  0  0  0  0  0
  -26.4482  -31.6591   25.0738 C   0  0  0  0  0  0
  -25.3733  -31.3745   26.1486 C   0  0  0  0  0  0
  -27.0316  -30.3029   24.6154 C   0  0  0  0  0  0
  -27.6043  -32.4333   25.7508 C   0  0  0  0  0  0
  -27.5586  -37.1809   24.8464 C   0  0  0  0  0  0
  -21.4176  -29.3047   22.3722 N   0  0  0  0  0  0
  -26.4296  -37.3778   23.9393 N   0  0  0  0  0  0
  -24.6779  -31.0697   22.0995 N   0  0  0  0  0  0
  -23.4221  -28.8157   23.3008 O   0  0  0  0  0  0
  -28.3521  -26.5643   20.1525 O   0  0  0  0  0  0
  -26.5595  -34.8912   22.4667 O   0  0  0  0  0  0
  -23.5386  -32.1411   23.7431 O   0  0  0  0  0  0
  -28.2785  -17.4515   19.1051 C   0  0  0  0  0  0
  -29.0746  -17.9305   20.1134 C   0  0  0  0  0  0
  -27.5115  -19.4632   19.6254 C   0  0  0  0  0  0
  -26.5032  -20.5686   19.6890 C   0  0  0  0  0  0
  -31.5325  -17.5571   20.2127 C   0  0  0  0  0  0
  -27.6724  -25.0454   21.9227 C   0  0  0  0  0  0
  -29.3365  -22.7377   19.9855 C   0  0  0  0  0  0
  -28.9291  -21.8286   21.1957 C   0  0  0  0  0  0
  -29.4569  -24.2939   20.2387 C   0  0  0  0  0  0
  -29.2910  -20.2824   21.2333 C   0  0  0  0  0  0
  -30.1791  -17.1484   20.8277 C   0  0  2  0  0  0
  -28.1606  -25.1445   20.4618 C   0  0  2  0  0  0
  -28.6598  -19.2643   20.3184 N   0  0  0  0  0  0
  -27.3442  -18.4019   18.8353 N   0  3  0  0  0  0
  -29.9278  -15.6572   20.8756 N   0  0  0  0  0  0
  -31.4732  -12.4478   19.1496 H   0  0  0  0  0  0
  -30.3436  -11.3559   19.8964 H   0  0  0  0  0  0
  -29.7599  -11.7167   17.4851 H   0  0  0  0  0  0
  -29.6646  -13.4426   17.7410 H   0  0  0  0  0  0
  -27.8613  -11.2802   18.8759 H   0  0  0  0  0  0
  -27.3737  -12.5576   17.7976 H   0  0  0  0  0  0
  -27.6788  -14.2433   19.5239 H   0  0  0  0  0  0
  -28.6974  -12.0481   21.3929 H   0  0  0  0  0  0
  -28.4524  -13.7120   21.8397 H   0  0  0  0  0  0
  -25.2701   -9.5707   22.4773 H   0  0  0  0  0  0
  -23.9958   -7.4647   22.7499 H   0  0  0  0  0  0
  -21.0815   -8.8734   19.8968 H   0  0  0  0  0  0
  -22.3608  -10.9656   19.6190 H   0  0  0  0  0  0
  -21.2002   -7.6141   23.9695 H   0  0  0  0  0  0
  -21.1499   -6.0531   25.9070 H   0  0  0  0  0  0
  -22.0591   -2.7602   23.2855 H   0  0  0  0  0  0
  -22.4003  -11.9926   22.4807 H   0  0  0  0  0  0
  -21.1106  -13.1395   22.2501 H   0  0  0  0  0  0
  -24.6688  -15.8402   20.5307 H   0  0  0  0  0  0
  -26.2949  -15.6245   20.1198 H   0  0  0  0  0  0
  -26.7160  -32.5476   23.1147 H   0  0  0  0  0  0
  -25.0132  -33.9743   25.0499 H   0  0  0  0  0  0
  -22.7009  -31.3095   21.4189 H   0  0  0  0  0  0
  -23.3737  -35.9642   23.3296 H   0  0  0  0  0  0
  -24.3597  -36.8918   22.2047 H   0  0  0  0  0  0
  -23.7239  -37.6507   23.6655 H   0  0  0  0  0  0
  -26.0710  -31.5750   20.6064 H   0  0  0  0  0  0
  -26.8292  -30.8536   21.9980 H   0  0  0  0  0  0
  -28.1009  -29.0302   21.1818 H   0  0  0  0  0  0
  -25.9936  -25.9756   18.9643 H   0  0  0  0  0  0
  -23.9751  -27.3275   18.9860 H   0  0  0  0  0  0
  -23.7199  -30.6046   19.4086 H   0  0  0  0  0  0
  -22.7383  -29.2491   19.8663 H   0  0  0  0  0  0
  -25.1287  -36.1971   25.0822 H   0  0  0  0  0  0
  -20.9968  -28.3206   24.1395 H   0  0  0  0  0  0
  -20.5806  -26.2237   23.3510 H   0  0  0  0  0  0
  -21.6650  -26.7523   22.1033 H   0  0  0  0  0  0
  -19.6902  -25.6294   21.1228 H   0  0  0  0  0  0
  -19.6571  -27.3198   20.6739 H   0  0  0  0  0  0
  -17.4152  -26.6533   21.4183 H   0  0  0  0  0  0
  -18.0423  -26.0008   22.9141 H   0  0  0  0  0  0
  -19.7957  -30.7218   24.2277 H   0  0  0  0  0  0
  -17.5049  -31.6234   24.5192 H   0  0  0  0  0  0
  -15.5361  -30.2979   23.7655 H   0  0  0  0  0  0
  -15.8676  -28.0751   22.7188 H   0  0  0  0  0  0
  -24.5882  -30.7109   25.7842 H   0  0  0  0  0  0
  -24.8951  -32.2908   26.4945 H   0  0  0  0  0  0
  -25.8071  -30.8916   27.0253 H   0  0  0  0  0  0
  -26.2869  -29.6803   24.1174 H   0  0  0  0  0  0
  -27.4015  -29.7264   25.4645 H   0  0  0  0  0  0
  -27.8742  -30.4316   23.9357 H   0  0  0  0  0  0
  -27.2633  -33.3620   26.2109 H   0  0  0  0  0  0
  -28.3835  -32.6933   25.0328 H   0  0  0  0  0  0
  -28.0727  -31.8460   26.5414 H   0  0  0  0  0  0
  -28.2596  -38.0113   24.7512 H   0  0  0  0  0  0
  -28.1082  -36.2645   24.6283 H   0  0  0  0  0  0
  -27.2307  -37.1449   25.8868 H   0  0  0  0  0  0
  -20.9369  -29.8779   21.6927 H   0  0  0  0  0  0
  -26.0181  -38.2856   24.1417 H   0  0  0  0  0  0
  -28.2893  -16.4961   18.5998 H   0  0  0  0  0  0
  -26.2391  -20.7488   20.7304 H   0  0  0  0  0  0
  -25.6020  -20.2476   19.1643 H   0  0  0  0  0  0
  -26.8859  -21.4623   19.2070 H   0  0  0  0  0  0
  -31.6804  -18.6344   20.2503 H   0  0  0  0  0  0
  -31.5918  -17.2685   19.1634 H   0  0  0  0  0  0
  -32.3745  -17.1104   20.7391 H   0  0  0  0  0  0
  -28.3962  -25.4835   22.6105 H   0  0  0  0  0  0
  -27.5169  -24.0152   22.2355 H   0  0  0  0  0  0
  -26.7240  -25.5617   22.0711 H   0  0  0  0  0  0
  -28.6875  -22.5728   19.1281 H   0  0  0  0  0  0
  -30.3155  -22.3984   19.6448 H   0  0  0  0  0  0
  -27.8802  -21.9785   21.4346 H   0  0  0  0  0  0
  -29.4453  -22.2517   22.0578 H   0  0  0  0  0  0
  -29.9407  -24.7088   19.3541 H   0  0  0  0  0  0
  -30.1629  -24.4787   21.0500 H   0  0  0  0  0  0
  -29.0918  -19.9266   22.2451 H   0  0  0  0  0  0
  -30.3672  -20.1952   21.1043 H   0  0  0  0  0  0
  -30.1845  -17.4783   21.8690 H   0  0  0  0  0  0
  -27.4132  -24.7070   19.8048 H   0  0  0  0  0  0
  -26.5988  -18.3023   18.1559 H   0  0  0  0  0  0
  -29.0168  -15.4012   21.2264 H   0  0  0  0  0  0
  1 25  1  0  0  0
  1 30  2  0  0  0
  1 85  1  0  0  0
  2  3  1  0  0  0
  2 25  1  0  0  0
  2 86  1  0  0  0
  2 87  1  0  0  0
  3  4  1  0  0  0
  3 88  1  0  0  0
  3 89  1  0  0  0
  4  5  1  0  0  0
  4 90  1  0  0  0
  4 91  1  0  0  0
  5  6  1  0  0  0
  5 26  1  0  0  0
  5 92  1  0  0  0
  6 25  1  0  0  0
  6 93  1  0  0  0
  6 94  1  0  0  0
  7  8  2  0  0  0
  7 26  1  0  0  0
  7 29  1  0  0  0
  8  9  1  0  0  0
  8 22  1  0  0  0
  9 10  1  0  0  0
  9 27  2  0  0  0
 10 11  2  0  0  0
 10 15  1  0  0  0
 11 12  1  0  0  0
 11 95  1  0  0  0
 12 13  2  0  0  0
 12 96  1  0  0  0
 13 14  1  0  0  0
 13 31  1  0  0  0
 14 15  2  0  0  0
 14 97  1  0  0  0
 15 98  1  0  0  0
 16 17  2  0  0  0
 16 21  1  0  0  0
 16 31  1  0  0  0
 17 18  1  0  0  0
 17 99  1  0  0  0
 18 19  2  0  0  0
 18100  1  0  0  0
 19 20  1  0  0  0
 19 24  1  0  0  0
 20 21  2  0  0  0
 20101  1  0  0  0
 21 23  1  0  0  0
 22 28  1  0  0  0
 22 32  2  0  0  0
 26 27  1  0  0  0
 28102  1  0  0  0
 28103  1  0  0  0
 29104  1  0  0  0
 29105  1  0  0  0
 33 34  1  0  0  0
 33 66  1  0  0  0
 33 70  2  0  0  0
 34 36  1  0  0  0
 34 59  1  0  0  0
 34106  1  0  0  0
 35 44  2  0  0  0
 35 45  1  0  0  0
 35 68  1  0  0  0
 36 56  1  0  0  0
 36107  1  0  0  0
 37 39  1  0  0  0
 37 47  1  0  0  0
 37 66  1  0  0  0
 37108  1  0  0  0
 38 43  2  0  0  0
 38 46  1  0  0  0
 38 47  1  0  0  0
 39 64  1  0  0  0
 39 67  2  0  0  0
 40 52  1  0  0  0
 40 53  2  0  0  0
 40 58  1  0  0  0
 41109  1  0  0  0
 41110  1  0  0  0
 41111  1  0  0  0
 41 48  1  0  0  0
 42 43  1  0  0  0
 42 66  1  0  0  0
 42112  1  0  0  0
 42113  1  0  0  0
 43 44  1  0  0  0
 44114  1  0  0  0
 45 46  2  0  0  0
 45115  1  0  0  0
 46116  1  0  0  0
 47117  1  0  0  0
 47118  1  0  0  0
 48 56  1  0  0  0
 48 65  1  0  0  0
 48119  1  0  0  0
 49 50  1  0  0  0
 49 53  1  0  0  0
 49 64  1  0  0  0
 49120  1  0  0  0
 50 51  1  0  0  0
 50121  1  0  0  0
 50122  1  0  0  0
 51 52  1  0  0  0
 51123  1  0  0  0
 51124  1  0  0  0
 52125  1  0  0  0
 52126  1  0  0  0
 53 54  1  0  0  0
 54 55  2  0  0  0
 54127  1  0  0  0
 55 57  1  0  0  0
 55128  1  0  0  0
 56 69  2  0  0  0
 57 58  2  0  0  0
 57129  1  0  0  0
 58130  1  0  0  0
 59 60  1  0  0  0
 59 61  1  0  0  0
 59 62  1  0  0  0
 60131  1  0  0  0
 60132  1  0  0  0
 60133  1  0  0  0
 61134  1  0  0  0
 61135  1  0  0  0
 61136  1  0  0  0
 62137  1  0  0  0
 62138  1  0  0  0
 62139  1  0  0  0
 63 65  1  0  0  0
 63140  1  0  0  0
 63141  1  0  0  0
 63142  1  0  0  0
 64143  1  0  0  0
 65144  1  0  0  0
 68 82  1  0  0  0
 71 72  2  0  0  0
 71 84  1  0  0  0
 71145  1  0  0  0
 72 81  1  0  0  0
 72 83  1  0  0  0
 73 74  1  0  0  0
 73 83  1  0  0  0
 73 84  2  0  0  0
 74146  1  0  0  0
 74147  1  0  0  0
 74148  1  0  0  0
 75149  1  0  0  0
 75150  1  0  0  0
 75151  1  0  0  0
 75 81  1  0  0  0
 76152  1  0  0  0
 76153  1  0  0  0
 76154  1  0  0  0
 76 82  1  0  0  0
 77 78  1  0  0  0
 77 79  1  0  0  0
 77155  1  0  0  0
 77156  1  0  0  0
 78 80  1  0  0  0
 78157  1  0  0  0
 78158  1  0  0  0
 79 82  1  0  0  0
 79159  1  0  0  0
 79160  1  0  0  0
 80 83  1  0  0  0
 80161  1  0  0  0
 80162  1  0  0  0
 81 85  1  0  0  0
 81163  1  0  0  0
 82164  1  0  0  0
 84165  1  0  0  0
 85166  1  0  0  0
M  CHG  1  84   1
M  ISO  4   1 100  68 101  82 101  85 100
M  END
> <chiral flag>
0

> <version>
0

> <s_m_source_file>
/data/baiqing/PycharmProjects/Reinvent-master-3.2/result/LINK_invent/BTK/process_docking_weight1_custom_sum_contain_oxygen_bond_distance_aromatic_linkinvent_7_9_3/rearranged_h_0085.sdf

> <i_m_source_file_index>
37

> <r_mmod_Potential_Energy-OPLS-2005>
-52.3093490600586

> <r_mmod_Stretch_Energy-OPLS-2005>
65.2584915161133

> <r_mmod_Bend_Energy-OPLS-2005>
150.589111328125

> <r_mmod_Torsional_Energy-OPLS-2005>
231.158874511719

> <r_mmod_Improper_Torsional_Energy-OPLS-2005>
4.60657691955566

> <r_mmod_Van_der_Waal_Energy-OPLS-2005>
123.774345397949

> <r_mmod_Electrostatic_Energy-OPLS-2005>
-224.406875610352

> <r_mmod_Solvation_Energy-OPLS-2005>
-434.351318359375

> <b_mmod_Minimization_Converged-OPLS-2005>
0

> <r_mmod_RMS_Derivative-OPLS-2005>
3.17368197441101

$$$$
38
                    3D
 Structure written by MMmdl.
158166  0  0  1  0            999 V2000
  -30.6946  -14.4521   20.4841 C   0  0  0  0  0  0
  -30.4111  -12.2714   19.4200 C   0  0  0  0  0  0
  -29.4791  -12.4526   18.2047 C   0  0  0  0  0  0
  -27.9992  -12.3355   18.6181 C   0  0  0  0  0  0
  -27.6486  -13.1980   19.8602 C   0  0  2  0  0  0
  -28.6957  -13.0219   20.9842 C   0  0  0  0  0  0
  -25.2561  -13.8138   20.5701 C   0  0  0  0  0  0
  -24.1797  -13.0433   20.9192 C   0  0  0  0  0  0
  -24.6349  -11.6908   20.8761 C   0  0  0  0  0  0
  -23.9025  -10.4287   21.0421 C   0  0  0  0  0  0
  -24.3592   -9.4195   21.9176 C   0  0  0  0  0  0
  -23.6279   -8.2229   22.0749 C   0  0  0  0  0  0
  -22.4264   -8.0267   21.3539 C   0  0  0  0  0  0
  -21.9891   -9.0242   20.4638 C   0  0  0  0  0  0
  -22.7217  -10.2117   20.3046 C   0  0  0  0  0  0
  -21.6847   -6.0733   22.5270 C   0  0  0  0  0  0
  -21.4019   -6.5644   23.8209 C   0  0  0  0  0  0
  -21.3663   -5.6800   24.9171 C   0  0  0  0  0  0
  -21.6041   -4.3063   24.7222 C   0  0  0  0  0  0
  -21.8819   -3.8148   23.4342 C   0  0  0  0  0  0
  -21.9186   -4.6966   22.3397 C   0  0  0  0  0  0
  -22.7818  -13.5236   21.1845 C   0  0  0  0  0  0
  -22.1654   -4.2158   21.0975 F   0  0  0  0  0  0
  -21.5619   -3.4538   25.7727 F   0  0  0  0  0  0
  -30.0234  -13.2795   20.4131 N   0  0  0  0  0  0
  -26.2953  -12.9299   20.3337 N   0  0  0  0  0  0
  -25.9269  -11.6468   20.5791 N   0  0  0  0  0  0
  -22.0445  -12.8237   22.0411 N   0  0  0  0  0  0
  -25.4319  -15.1853   20.4123 N   0  0  0  0  0  0
  -31.8955  -14.5679   20.2410 O   0  0  0  0  0  0
  -21.6638   -6.8868   21.4231 O   0  0  0  0  0  0
  -22.3502  -14.5536   20.6681 O   0  0  0  0  0  0
  -24.6125  -31.8714   23.2158 C   0  0  0  0  0  0
  -25.9044  -32.4835   23.8430 C   0  0  1  0  0  0
  -27.2217  -27.4556   20.1109 C   0  0  0  0  0  0
  -25.5912  -33.8630   24.2362 N   0  0  0  0  0  0
  -23.3990  -30.5003   21.5525 C   0  0  2  0  0  0
  -24.8464  -28.9715   20.1116 C   0  0  0  0  0  0
  -22.7362  -29.4737   22.4993 C   0  0  0  0  0  0
  -18.0246  -28.1372   22.8520 C   0  0  0  0  0  0
  -24.1490  -36.7321   23.2639 C   0  0  0  0  0  0
  -25.9278  -30.8429   21.3703 C   0  0  0  0  0  0
  -26.0035  -29.4797   20.7176 C   0  0  0  0  0  0
  -27.1967  -28.7263   20.7224 C   0  0  0  0  0  0
  -26.0656  -26.9712   19.4665 C   0  0  0  0  0  0
  -24.8721  -27.7136   19.4818 C   0  0  0  0  0  0
  -23.6083  -29.8368   20.1648 C   0  0  0  0  0  0
  -25.4108  -36.3124   24.0346 C   0  0  1  0  0  0
  -20.5830  -28.3697   23.1248 C   0  0  2  0  0  0
  -20.6811  -26.9518   22.5166 C   0  0  0  0  0  0
  -19.5624  -26.6314   21.5198 C   0  0  0  0  0  0
  -18.1851  -26.7902   22.1693 C   0  0  0  0  0  0
  -19.1499  -28.8848   23.2873 C   0  0  0  0  0  0
  -18.9454  -30.1459   23.8872 C   0  0  0  0  0  0
  -17.6470  -30.6618   24.0546 C   0  0  0  0  0  0
  -25.9028  -34.9489   23.5150 C   0  0  0  0  0  0
  -16.5357  -29.9120   23.6354 C   0  0  0  0  0  0
  -16.7247  -28.6522   23.0409 C   0  0  0  0  0  0
  -26.4480  -31.6599   25.0740 C   0  0  0  0  0  0
  -25.3759  -31.3699   26.1493 C   0  0  0  0  0  0
  -27.0308  -30.3043   24.6113 C   0  0  0  0  0  0
  -27.6057  -32.4312   25.7500 C   0  0  0  0  0  0
  -27.5582  -37.1820   24.8466 C   0  0  0  0  0  0
  -21.4080  -29.3174   22.3773 N   0  0  0  0  0  0
  -26.4297  -37.3802   23.9406 N   0  0  0  0  0  0
  -24.6639  -31.0849   22.1037 N   0  0  0  0  0  0
  -23.4149  -28.8217   23.2974 O   0  0  0  0  0  0
  -28.3433  -26.6669   20.1593 O   0  0  0  0  0  0
  -26.5581  -34.8921   22.4704 O   0  0  0  0  0  0
  -23.5327  -32.1475   23.7560 O   0  0  0  0  0  0
  -26.8358  -19.2831   20.6082 C   0  0  0  0  0  0
  -28.0828  -18.7311   20.5213 C   0  0  0  0  0  0
  -28.5164  -17.4273   19.9216 C   0  0  0  0  0  0
  -27.4181  -23.6239   22.3971 C   0  0  0  0  0  0
  -26.2631  -22.5862   22.3647 C   0  0  0  0  0  0
  -27.4366  -24.5835   21.1871 C   0  0  0  0  0  0
  -26.1321  -21.6870   21.1112 C   0  0  0  0  0  0
  -29.2423  -16.4643   20.8879 C   0  0  0  0  0  0
  -28.3817  -25.8041   21.3088 C   0  0  0  0  0  0
  -29.0152  -19.6860   20.9256 N   0  0  0  0  0  0
  -28.4008  -20.7874   21.2205 N   0  0  0  0  0  0
  -27.0768  -20.5795   21.0264 N   0  0  0  0  0  0
  -29.9395  -15.4741   20.0758 N   0  0  0  0  0  0
  -31.4512  -12.3784   19.1078 H   0  0  0  0  0  0
  -30.3198  -11.2663   19.8366 H   0  0  0  0  0  0
  -29.7074  -11.7087   17.4416 H   0  0  0  0  0  0
  -29.6535  -13.4254   17.7464 H   0  0  0  0  0  0
  -27.7914  -11.2829   18.8213 H   0  0  0  0  0  0
  -27.3563  -12.6123   17.7826 H   0  0  0  0  0  0
  -27.6716  -14.2354   19.5275 H   0  0  0  0  0  0
  -28.6555  -12.0088   21.3871 H   0  0  0  0  0  0
  -28.4870  -13.6990   21.8135 H   0  0  0  0  0  0
  -25.2723   -9.5694   22.4774 H   0  0  0  0  0  0
  -23.9997   -7.4626   22.7467 H   0  0  0  0  0  0
  -21.0824   -8.8763   19.8936 H   0  0  0  0  0  0
  -22.3670  -10.9672   19.6172 H   0  0  0  0  0  0
  -21.2032   -7.6156   23.9719 H   0  0  0  0  0  0
  -21.1481   -6.0524   25.9077 H   0  0  0  0  0  0
  -22.0595   -2.7614   23.2827 H   0  0  0  0  0  0
  -22.4070  -11.9914   22.4824 H   0  0  0  0  0  0
  -21.1050  -13.1241   22.2587 H   0  0  0  0  0  0
  -24.6749  -15.8484   20.5311 H   0  0  0  0  0  0
  -26.2994  -15.6131   20.1191 H   0  0  0  0  0  0
  -26.7126  -32.5551   23.1206 H   0  0  0  0  0  0
  -25.0084  -33.9811   25.0520 H   0  0  0  0  0  0
  -22.6900  -31.3182   21.4145 H   0  0  0  0  0  0
  -23.3749  -35.9655   23.3315 H   0  0  0  0  0  0
  -24.3591  -36.8912   22.2049 H   0  0  0  0  0  0
  -23.7245  -37.6533   23.6638 H   0  0  0  0  0  0
  -26.0441  -31.6128   20.6055 H   0  0  0  0  0  0
  -26.8138  -30.8883   21.9933 H   0  0  0  0  0  0
  -28.0871  -29.1053   21.2073 H   0  0  0  0  0  0
  -26.0824  -26.0052   18.9814 H   0  0  0  0  0  0
  -23.9861  -27.3166   19.0078 H   0  0  0  0  0  0
  -23.7165  -30.6165   19.4086 H   0  0  0  0  0  0
  -22.7320  -29.2584   19.8684 H   0  0  0  0  0  0
  -25.1288  -36.2004   25.0840 H   0  0  0  0  0  0
  -20.9943  -28.3156   24.1355 H   0  0  0  0  0  0
  -20.6191  -26.2274   23.3292 H   0  0  0  0  0  0
  -21.6560  -26.7858   22.0582 H   0  0  0  0  0  0
  -19.6775  -25.6145   21.1415 H   0  0  0  0  0  0
  -19.6424  -27.2968   20.6580 H   0  0  0  0  0  0
  -17.4093  -26.6693   21.4112 H   0  0  0  0  0  0
  -18.0215  -26.0051   22.9089 H   0  0  0  0  0  0
  -19.7927  -30.7262   24.2242 H   0  0  0  0  0  0
  -17.5067  -31.6303   24.5142 H   0  0  0  0  0  0
  -15.5357  -30.3037   23.7673 H   0  0  0  0  0  0
  -15.8628  -28.0841   22.7208 H   0  0  0  0  0  0
  -24.5930  -30.7047   25.7844 H   0  0  0  0  0  0
  -24.8950  -32.2844   26.4966 H   0  0  0  0  0  0
  -25.8115  -30.8859   27.0241 H   0  0  0  0  0  0
  -26.2854  -29.6801   24.1170 H   0  0  0  0  0  0
  -27.4086  -29.7279   25.4567 H   0  0  0  0  0  0
  -27.8686  -30.4360   23.9262 H   0  0  0  0  0  0
  -27.2684  -33.3597   26.2120 H   0  0  0  0  0  0
  -28.3845  -32.6895   25.0315 H   0  0  0  0  0  0
  -28.0756  -31.8411   26.5380 H   0  0  0  0  0  0
  -28.2618  -38.0102   24.7503 H   0  0  0  0  0  0
  -28.1064  -36.2635   24.6312 H   0  0  0  0  0  0
  -27.2297  -37.1491   25.8868 H   0  0  0  0  0  0
  -20.9213  -29.9113   21.7204 H   0  0  0  0  0  0
  -26.0196  -38.2885   24.1388 H   0  0  0  0  0  0
  -25.8474  -18.9136   20.3489 H   0  0  0  0  0  0
  -29.1675  -17.6498   19.0727 H   0  0  0  0  0  0
  -27.6540  -16.9202   19.4881 H   0  0  0  0  0  0
  -28.3835  -23.1276   22.4966 H   0  0  0  0  0  0
  -27.2960  -24.2138   23.3088 H   0  0  0  0  0  0
  -25.3237  -23.1293   22.4713 H   0  0  0  0  0  0
  -26.3232  -21.9477   23.2472 H   0  0  0  0  0  0
  -26.4159  -24.9271   21.0373 H   0  0  0  0  0  0
  -27.7242  -24.0300   20.2964 H   0  0  0  0  0  0
  -26.1994  -22.2745   20.1934 H   0  0  0  0  0  0
  -25.1302  -21.2547   21.1119 H   0  0  0  0  0  0
  -29.9869  -17.0073   21.4740 H   0  0  0  0  0  0
  -28.5420  -16.0066   21.5865 H   0  0  0  0  0  0
  -29.4085  -25.4569   21.4212 H   0  0  0  0  0  0
  -28.1495  -26.3681   22.2151 H   0  0  0  0  0  0
  -30.4085  -15.9401   19.3136 H   0  0  0  0  0  0
  1 25  1  0  0  0
  1 30  2  0  0  0
  1 83  1  0  0  0
  2  3  1  0  0  0
  2 25  1  0  0  0
  2 84  1  0  0  0
  2 85  1  0  0  0
  3  4  1  0  0  0
  3 86  1  0  0  0
  3 87  1  0  0  0
  4  5  1  0  0  0
  4 88  1  0  0  0
  4 89  1  0  0  0
  5  6  1  0  0  0
  5 26  1  0  0  0
  5 90  1  0  0  0
  6 25  1  0  0  0
  6 91  1  0  0  0
  6 92  1  0  0  0
  7  8  2  0  0  0
  7 26  1  0  0  0
  7 29  1  0  0  0
  8  9  1  0  0  0
  8 22  1  0  0  0
  9 10  1  0  0  0
  9 27  2  0  0  0
 10 11  2  0  0  0
 10 15  1  0  0  0
 11 12  1  0  0  0
 11 93  1  0  0  0
 12 13  2  0  0  0
 12 94  1  0  0  0
 13 14  1  0  0  0
 13 31  1  0  0  0
 14 15  2  0  0  0
 14 95  1  0  0  0
 15 96  1  0  0  0
 16 17  2  0  0  0
 16 21  1  0  0  0
 16 31  1  0  0  0
 17 18  1  0  0  0
 17 97  1  0  0  0
 18 19  2  0  0  0
 18 98  1  0  0  0
 19 20  1  0  0  0
 19 24  1  0  0  0
 20 21  2  0  0  0
 20 99  1  0  0  0
 21 23  1  0  0  0
 22 28  1  0  0  0
 22 32  2  0  0  0
 26 27  1  0  0  0
 28100  1  0  0  0
 28101  1  0  0  0
 29102  1  0  0  0
 29103  1  0  0  0
 33 34  1  0  0  0
 33 66  1  0  0  0
 33 70  2  0  0  0
 34 36  1  0  0  0
 34 59  1  0  0  0
 34104  1  0  0  0
 35 44  2  0  0  0
 35 45  1  0  0  0
 35 68  1  0  0  0
 36 56  1  0  0  0
 36105  1  0  0  0
 37 39  1  0  0  0
 37 47  1  0  0  0
 37 66  1  0  0  0
 37106  1  0  0  0
 38 43  2  0  0  0
 38 46  1  0  0  0
 38 47  1  0  0  0
 39 64  1  0  0  0
 39 67  2  0  0  0
 40 52  1  0  0  0
 40 53  2  0  0  0
 40 58  1  0  0  0
 41107  1  0  0  0
 41108  1  0  0  0
 41109  1  0  0  0
 41 48  1  0  0  0
 42 43  1  0  0  0
 42 66  1  0  0  0
 42110  1  0  0  0
 42111  1  0  0  0
 43 44  1  0  0  0
 44112  1  0  0  0
 45 46  2  0  0  0
 45113  1  0  0  0
 46114  1  0  0  0
 47115  1  0  0  0
 47116  1  0  0  0
 48 56  1  0  0  0
 48 65  1  0  0  0
 48117  1  0  0  0
 49 50  1  0  0  0
 49 53  1  0  0  0
 49 64  1  0  0  0
 49118  1  0  0  0
 50 51  1  0  0  0
 50119  1  0  0  0
 50120  1  0  0  0
 51 52  1  0  0  0
 51121  1  0  0  0
 51122  1  0  0  0
 52123  1  0  0  0
 52124  1  0  0  0
 53 54  1  0  0  0
 54 55  2  0  0  0
 54125  1  0  0  0
 55 57  1  0  0  0
 55126  1  0  0  0
 56 69  2  0  0  0
 57 58  2  0  0  0
 57127  1  0  0  0
 58128  1  0  0  0
 59 60  1  0  0  0
 59 61  1  0  0  0
 59 62  1  0  0  0
 60129  1  0  0  0
 60130  1  0  0  0
 60131  1  0  0  0
 61132  1  0  0  0
 61133  1  0  0  0
 61134  1  0  0  0
 62135  1  0  0  0
 62136  1  0  0  0
 62137  1  0  0  0
 63 65  1  0  0  0
 63138  1  0  0  0
 63139  1  0  0  0
 63140  1  0  0  0
 64141  1  0  0  0
 65142  1  0  0  0
 68 79  1  0  0  0
 71 72  2  0  0  0
 71 82  1  0  0  0
 71143  1  0  0  0
 72 73  1  0  0  0
 72 80  1  0  0  0
 73 78  1  0  0  0
 73144  1  0  0  0
 73145  1  0  0  0
 74 75  1  0  0  0
 74 76  1  0  0  0
 74146  1  0  0  0
 74147  1  0  0  0
 75 77  1  0  0  0
 75148  1  0  0  0
 75149  1  0  0  0
 76 79  1  0  0  0
 76150  1  0  0  0
 76151  1  0  0  0
 77 82  1  0  0  0
 77152  1  0  0  0
 77153  1  0  0  0
 78 83  1  0  0  0
 78154  1  0  0  0
 78155  1  0  0  0
 79156  1  0  0  0
 79157  1  0  0  0
 80 81  2  0  0  0
 81 82  1  0  0  0
 83158  1  0  0  0
M  ISO  4   1 100  68 101  79 101  83 100
M  END
> <chiral flag>
0

> <version>
0

> <s_m_source_file>
/data/baiqing/PycharmProjects/Reinvent-master-3.2/result/LINK_invent/BTK/process_docking_weight1_custom_sum_contain_oxygen_bond_distance_aromatic_linkinvent_7_9_3/rearranged_h_0085.sdf

> <i_m_source_file_index>
38

> <r_mmod_Potential_Energy-OPLS-2005>
22.0955562591553

> <r_mmod_Stretch_Energy-OPLS-2005>
30.3503379821777

> <r_mmod_Bend_Energy-OPLS-2005>
108.682647705078

> <r_mmod_Torsional_Energy-OPLS-2005>
303.981079101562

> <r_mmod_Improper_Torsional_Energy-OPLS-2005>
33.1831893920898

> <r_mmod_Van_der_Waal_Energy-OPLS-2005>
116.389038085938

> <r_mmod_Electrostatic_Energy-OPLS-2005>
-373.290985107422

> <r_mmod_Solvation_Energy-OPLS-2005>
-219.561920166016

> <b_mmod_Minimization_Converged-OPLS-2005>
0

> <r_mmod_RMS_Derivative-OPLS-2005>
4.00169658660889

$$$$
40
                    3D
 Structure written by MMmdl.
168176  0  0  1  0            999 V2000
  -30.5318  -15.0049   20.3997 C   0  0  0  0  0  0
  -30.4408  -12.6239   19.5084 C   0  0  0  0  0  0
  -29.5224  -12.5333   18.2661 C   0  0  0  0  0  0
  -28.0574  -12.3098   18.6840 C   0  0  0  0  0  0
  -27.6286  -13.2527   19.8374 C   0  0  2  0  0  0
  -28.6721  -13.3085   20.9747 C   0  0  0  0  0  0
  -25.2475  -13.8227   20.5747 C   0  0  0  0  0  0
  -24.1782  -13.0448   20.9229 C   0  0  0  0  0  0
  -24.6400  -11.6939   20.8767 C   0  0  0  0  0  0
  -23.9080  -10.4312   21.0409 C   0  0  0  0  0  0
  -24.3631   -9.4229   21.9188 C   0  0  0  0  0  0
  -23.6306   -8.2264   22.0759 C   0  0  0  0  0  0
  -22.4295   -8.0280   21.3542 C   0  0  0  0  0  0
  -21.9928   -9.0258   20.4647 C   0  0  0  0  0  0
  -22.7254  -10.2141   20.3063 C   0  0  0  0  0  0
  -21.6847   -6.0748   22.5289 C   0  0  0  0  0  0
  -21.4001   -6.5650   23.8219 C   0  0  0  0  0  0
  -21.3658   -5.6804   24.9177 C   0  0  0  0  0  0
  -21.6042   -4.3070   24.7222 C   0  0  0  0  0  0
  -21.8810   -3.8158   23.4347 C   0  0  0  0  0  0
  -21.9192   -4.6978   22.3409 C   0  0  0  0  0  0
  -22.7810  -13.5210   21.1868 C   0  0  0  0  0  0
  -22.1659   -4.2168   21.0983 F   0  0  0  0  0  0
  -21.5629   -3.4552   25.7730 F   0  0  0  0  0  0
  -29.9442  -13.7354   20.3771 N   0  0  0  0  0  0
  -26.2897  -12.9471   20.3289 N   0  0  0  0  0  0
  -25.9339  -11.6594   20.5770 N   0  0  0  0  0  0
  -22.0470  -12.8198   22.0424 N   0  0  0  0  0  0
  -25.4161  -15.1961   20.4189 N   0  0  0  0  0  0
  -31.7284  -15.0613   20.1012 O   0  0  0  0  0  0
  -21.6644   -6.8884   21.4248 O   0  0  0  0  0  0
  -22.3511  -14.5509   20.6707 O   0  0  0  0  0  0
  -24.6517  -31.8376   23.1874 C   0  0  0  0  0  0
  -25.9248  -32.4692   23.8274 C   0  0  1  0  0  0
  -27.2054  -27.0746   20.1410 C   0  0  0  0  0  0
  -25.5966  -33.8498   24.2189 N   0  0  0  0  0  0
  -23.4585  -30.4611   21.5333 C   0  0  2  0  0  0
  -24.9058  -28.8887   20.1082 C   0  0  0  0  0  0
  -22.7593  -29.4513   22.4782 C   0  0  0  0  0  0
  -18.0317  -28.1415   22.8437 C   0  0  0  0  0  0
  -24.1472  -36.7243   23.2652 C   0  0  0  0  0  0
  -26.0209  -30.6944   21.3989 C   0  0  0  0  0  0
  -26.0902  -29.3024   20.7299 C   0  0  0  0  0  0
  -27.2398  -28.4105   20.7354 C   0  0  0  0  0  0
  -25.9957  -26.7942   19.4626 C   0  0  0  0  0  0
  -24.8761  -27.6501   19.4575 C   0  0  0  0  0  0
  -23.6860  -29.7975   20.1523 C   0  0  0  0  0  0
  -25.4117  -36.3021   24.0304 C   0  0  1  0  0  0
  -20.5939  -28.3725   23.1207 C   0  0  2  0  0  0
  -20.6781  -26.9412   22.5417 C   0  0  0  0  0  0
  -19.5775  -26.6381   21.5222 C   0  0  0  0  0  0
  -18.1938  -26.7952   22.1608 C   0  0  0  0  0  0
  -19.1572  -28.8881   23.2808 C   0  0  0  0  0  0
  -18.9505  -30.1445   23.8840 C   0  0  0  0  0  0
  -17.6513  -30.6587   24.0545 C   0  0  0  0  0  0
  -25.9099  -34.9398   23.5065 C   0  0  0  0  0  0
  -16.5388  -29.9069   23.6371 C   0  0  0  0  0  0
  -16.7309  -28.6522   23.0335 C   0  0  0  0  0  0
  -26.4542  -31.6559   25.0723 C   0  0  0  0  0  0
  -25.3682  -31.3792   26.1385 C   0  0  0  0  0  0
  -27.0454  -30.2938   24.6378 C   0  0  0  0  0  0
  -27.6059  -32.4343   25.7514 C   0  0  0  0  0  0
  -27.5553  -37.1753   24.8470 C   0  0  0  0  0  0
  -21.4294  -29.3069   22.3561 N   0  0  0  0  0  0
  -26.4268  -37.3719   23.9412 N   0  0  0  0  0  0
  -24.7302  -31.0155   22.0971 N   0  0  0  0  0  0
  -23.4209  -28.8039   23.2946 O   0  0  0  0  0  0
  -28.2080  -26.0100   20.2189 O   0  0  0  0  0  0
  -26.5681  -34.8892   22.4643 O   0  0  0  0  0  0
  -23.5612  -32.1334   23.7025 O   0  0  0  0  0  0
  -28.2202  -21.8229   20.7169 C   0  0  0  0  0  0
  -29.1150  -20.6858   20.3629 C   0  0  0  0  0  0
  -28.5859  -23.0705   20.1386 C   0  0  0  0  0  0
  -28.3841  -23.4889   16.2037 C   0  0  0  0  0  0
  -28.8376  -20.9992   16.4577 C   0  0  0  0  0  0
  -27.6455  -18.6408   20.7808 C   0  0  0  0  0  0
  -29.5847  -19.0839   22.3053 C   0  0  0  0  0  0
  -27.7583  -24.5175   19.9674 C   0  0  0  0  0  0
  -30.6955  -22.6851   17.0768 C   0  0  0  0  0  0
  -30.5000  -23.3658   18.4609 C   0  0  0  0  0  0
  -29.9625  -17.7451   20.1526 C   0  0  0  0  0  0
  -29.4519  -22.3849   16.1952 C   0  0  0  0  0  0
  -29.1215  -19.0695   20.8377 C   0  0  0  0  0  0
  -30.0597  -21.2763   19.6346 N   0  0  0  0  0  0
  -29.6977  -22.6091   19.4098 N   0  0  0  0  0  0
  -29.7519  -16.2016   20.5412 N   0  0  0  0  0  0
  -31.4734  -12.7807   19.1919 H   0  0  0  0  0  0
  -30.4420  -11.6844   20.0638 H   0  0  0  0  0  0
  -29.8525  -11.7303   17.6064 H   0  0  0  0  0  0
  -29.5959  -13.4552   17.6867 H   0  0  0  0  0  0
  -27.9558  -11.2710   19.0031 H   0  0  0  0  0  0
  -27.3912  -12.4296   17.8289 H   0  0  0  0  0  0
  -27.5824  -14.2465   19.3919 H   0  0  0  0  0  0
  -28.7780  -12.3413   21.4687 H   0  0  0  0  0  0
  -28.3646  -14.0211   21.7421 H   0  0  0  0  0  0
  -25.2775   -9.5700   22.4757 H   0  0  0  0  0  0
  -24.0019   -7.4645   22.7488 H   0  0  0  0  0  0
  -21.0857   -8.8759   19.8955 H   0  0  0  0  0  0
  -22.3705  -10.9666   19.6161 H   0  0  0  0  0  0
  -21.1991   -7.6155   23.9714 H   0  0  0  0  0  0
  -21.1488   -6.0542   25.9075 H   0  0  0  0  0  0
  -22.0598   -2.7621   23.2842 H   0  0  0  0  0  0
  -22.4111  -11.9840   22.4771 H   0  0  0  0  0  0
  -21.1084  -13.1206   22.2646 H   0  0  0  0  0  0
  -24.6451  -15.8462   20.5272 H   0  0  0  0  0  0
  -26.2573  -15.6356   20.0683 H   0  0  0  0  0  0
  -26.7311  -32.5285   23.0988 H   0  0  0  0  0  0
  -25.0064  -33.9636   25.0302 H   0  0  0  0  0  0
  -22.7669  -31.2921   21.3775 H   0  0  0  0  0  0
  -23.3741  -35.9566   23.3305 H   0  0  0  0  0  0
  -24.3589  -36.8904   22.2086 H   0  0  0  0  0  0
  -23.7211  -37.6407   23.6722 H   0  0  0  0  0  0
  -26.1811  -31.4552   20.6341 H   0  0  0  0  0  0
  -26.8920  -30.7472   22.0399 H   0  0  0  0  0  0
  -28.1315  -28.7088   21.2687 H   0  0  0  0  0  0
  -25.8467  -25.8641   18.9376 H   0  0  0  0  0  0
  -23.9770  -27.3295   18.9522 H   0  0  0  0  0  0
  -23.8342  -30.5786   19.4065 H   0  0  0  0  0  0
  -22.7969  -29.2493   19.8354 H   0  0  0  0  0  0
  -25.1278  -36.1839   25.0788 H   0  0  0  0  0  0
  -21.0024  -28.3338   24.1340 H   0  0  0  0  0  0
  -20.5692  -26.2322   23.3635 H   0  0  0  0  0  0
  -21.6638  -26.7458   22.1180 H   0  0  0  0  0  0
  -19.6977  -25.6296   21.1259 H   0  0  0  0  0  0
  -19.6726  -27.3171   20.6727 H   0  0  0  0  0  0
  -17.4235  -26.6703   21.3996 H   0  0  0  0  0  0
  -18.0288  -26.0119   22.9022 H   0  0  0  0  0  0
  -19.7985  -30.7255   24.2188 H   0  0  0  0  0  0
  -17.5090  -31.6269   24.5127 H   0  0  0  0  0  0
  -15.5377  -30.2944   23.7734 H   0  0  0  0  0  0
  -15.8718  -28.0824   22.7036 H   0  0  0  0  0  0
  -24.5957  -30.7041   25.7707 H   0  0  0  0  0  0
  -24.8745  -32.2954   26.4630 H   0  0  0  0  0  0
  -25.7920  -30.9128   27.0287 H   0  0  0  0  0  0
  -26.3139  -29.6588   24.1369 H   0  0  0  0  0  0
  -27.4029  -29.7320   25.5019 H   0  0  0  0  0  0
  -27.9023  -30.4163   23.9752 H   0  0  0  0  0  0
  -27.2730  -33.3773   26.1883 H   0  0  0  0  0  0
  -28.3966  -32.6710   25.0382 H   0  0  0  0  0  0
  -28.0591  -31.8586   26.5595 H   0  0  0  0  0  0
  -28.2514  -38.0086   24.7529 H   0  0  0  0  0  0
  -28.1091  -36.2612   24.6266 H   0  0  0  0  0  0
  -27.2296  -37.1362   25.8876 H   0  0  0  0  0  0
  -20.9484  -29.8809   21.6766 H   0  0  0  0  0  0
  -26.0135  -38.2761   24.1483 H   0  0  0  0  0  0
  -27.3314  -21.7070   21.3212 H   0  0  0  0  0  0
  -27.6531  -23.3371   15.4066 H   0  0  0  0  0  0
  -28.8215  -24.4800   16.0717 H   0  0  0  0  0  0
  -27.8261  -23.4758   17.1355 H   0  0  0  0  0  0
  -28.0924  -20.7502   15.7003 H   0  0  0  0  0  0
  -28.3474  -20.9452   17.4291 H   0  0  0  0  0  0
  -29.6053  -20.2250   16.4230 H   0  0  0  0  0  0
  -27.0136  -19.3248   21.3476 H   0  0  0  0  0  0
  -27.4885  -17.6428   21.1925 H   0  0  0  0  0  0
  -27.2867  -18.6394   19.7497 H   0  0  0  0  0  0
  -29.0116  -19.7899   22.9078 H   0  0  0  0  0  0
  -30.6311  -19.3792   22.3753 H   0  0  0  0  0  0
  -29.4839  -18.1028   22.7653 H   0  0  0  0  0  0
  -26.8264  -24.3837   20.5175 H   0  0  0  0  0  0
  -27.4666  -24.5315   18.9239 H   0  0  0  0  0  0
  -31.2633  -21.7615   17.2029 H   0  0  0  0  0  0
  -31.3546  -23.3392   16.5058 H   0  0  0  0  0  0
  -30.0601  -24.3545   18.3304 H   0  0  0  0  0  0
  -31.4735  -23.5309   18.9248 H   0  0  0  0  0  0
  -31.0309  -17.9520   20.2422 H   0  0  0  0  0  0
  -29.7733  -17.7768   19.0794 H   0  0  0  0  0  0
  -29.8203  -22.3373   15.1688 H   0  0  0  0  0  0
  -28.8061  -15.9973   20.8185 H   0  0  0  0  0  0
  1 25  1  0  0  0
  1 30  2  0  0  0
  1 86  1  0  0  0
  2  3  1  0  0  0
  2 25  1  0  0  0
  2 87  1  0  0  0
  2 88  1  0  0  0
  3  4  1  0  0  0
  3 89  1  0  0  0
  3 90  1  0  0  0
  4  5  1  0  0  0
  4 91  1  0  0  0
  4 92  1  0  0  0
  5  6  1  0  0  0
  5 26  1  0  0  0
  5 93  1  0  0  0
  6 25  1  0  0  0
  6 94  1  0  0  0
  6 95  1  0  0  0
  7  8  2  0  0  0
  7 26  1  0  0  0
  7 29  1  0  0  0
  8  9  1  0  0  0
  8 22  1  0  0  0
  9 10  1  0  0  0
  9 27  2  0  0  0
 10 11  2  0  0  0
 10 15  1  0  0  0
 11 12  1  0  0  0
 11 96  1  0  0  0
 12 13  2  0  0  0
 12 97  1  0  0  0
 13 14  1  0  0  0
 13 31  1  0  0  0
 14 15  2  0  0  0
 14 98  1  0  0  0
 15 99  1  0  0  0
 16 17  2  0  0  0
 16 21  1  0  0  0
 16 31  1  0  0  0
 17 18  1  0  0  0
 17100  1  0  0  0
 18 19  2  0  0  0
 18101  1  0  0  0
 19 20  1  0  0  0
 19 24  1  0  0  0
 20 21  2  0  0  0
 20102  1  0  0  0
 21 23  1  0  0  0
 22 28  1  0  0  0
 22 32  2  0  0  0
 26 27  1  0  0  0
 28103  1  0  0  0
 28104  1  0  0  0
 29105  1  0  0  0
 29106  1  0  0  0
 33 34  1  0  0  0
 33 66  1  0  0  0
 33 70  2  0  0  0
 34 36  1  0  0  0
 34 59  1  0  0  0
 34107  1  0  0  0
 35 44  2  0  0  0
 35 45  1  0  0  0
 35 68  1  0  0  0
 36 56  1  0  0  0
 36108  1  0  0  0
 37 39  1  0  0  0
 37 47  1  0  0  0
 37 66  1  0  0  0
 37109  1  0  0  0
 38 43  2  0  0  0
 38 46  1  0  0  0
 38 47  1  0  0  0
 39 64  1  0  0  0
 39 67  2  0  0  0
 40 52  1  0  0  0
 40 53  2  0  0  0
 40 58  1  0  0  0
 41110  1  0  0  0
 41111  1  0  0  0
 41112  1  0  0  0
 41 48  1  0  0  0
 42 43  1  0  0  0
 42 66  1  0  0  0
 42113  1  0  0  0
 42114  1  0  0  0
 43 44  1  0  0  0
 44115  1  0  0  0
 45 46  2  0  0  0
 45116  1  0  0  0
 46117  1  0  0  0
 47118  1  0  0  0
 47119  1  0  0  0
 48 56  1  0  0  0
 48 65  1  0  0  0
 48120  1  0  0  0
 49 50  1  0  0  0
 49 53  1  0  0  0
 49 64  1  0  0  0
 49121  1  0  0  0
 50 51  1  0  0  0
 50122  1  0  0  0
 50123  1  0  0  0
 51 52  1  0  0  0
 51124  1  0  0  0
 51125  1  0  0  0
 52126  1  0  0  0
 52127  1  0  0  0
 53 54  1  0  0  0
 54 55  2  0  0  0
 54128  1  0  0  0
 55 57  1  0  0  0
 55129  1  0  0  0
 56 69  2  0  0  0
 57 58  2  0  0  0
 57130  1  0  0  0
 58131  1  0  0  0
 59 60  1  0  0  0
 59 61  1  0  0  0
 59 62  1  0  0  0
 60132  1  0  0  0
 60133  1  0  0  0
 60134  1  0  0  0
 61135  1  0  0  0
 61136  1  0  0  0
 61137  1  0  0  0
 62138  1  0  0  0
 62139  1  0  0  0
 62140  1  0  0  0
 63 65  1  0  0  0
 63141  1  0  0  0
 63142  1  0  0  0
 63143  1  0  0  0
 64144  1  0  0  0
 65145  1  0  0  0
 68 78  1  0  0  0
 71 72  1  0  0  0
 71 73  2  0  0  0
 71146  1  0  0  0
 72 83  1  0  0  0
 72 84  2  0  0  0
 73 78  1  0  0  0
 73 85  1  0  0  0
 74147  1  0  0  0
 74148  1  0  0  0
 74149  1  0  0  0
 74 82  1  0  0  0
 75 82  1  0  0  0
 75150  1  0  0  0
 75151  1  0  0  0
 75152  1  0  0  0
 76153  1  0  0  0
 76154  1  0  0  0
 76155  1  0  0  0
 76 83  1  0  0  0
 77 83  1  0  0  0
 77156  1  0  0  0
 77157  1  0  0  0
 77158  1  0  0  0
 78159  1  0  0  0
 78160  1  0  0  0
 79 80  1  0  0  0
 79 82  1  0  0  0
 79161  1  0  0  0
 79162  1  0  0  0
 80 85  1  0  0  0
 80163  1  0  0  0
 80164  1  0  0  0
 81 83  1  0  0  0
 81 86  1  0  0  0
 81165  1  0  0  0
 81166  1  0  0  0
 82167  1  0  0  0
 84 85  1  0  0  0
 86168  1  0  0  0
M  ISO  4   1 100  68 101  78 101  86 100
M  END
> <chiral flag>
0

> <version>
0

> <s_m_source_file>
/data/baiqing/PycharmProjects/Reinvent-master-3.2/result/LINK_invent/BTK/process_docking_weight1_custom_sum_contain_oxygen_bond_distance_aromatic_linkinvent_7_9_3/rearranged_h_0085.sdf

> <i_m_source_file_index>
39

> <r_mmod_Potential_Energy-OPLS-2005>
632.112731933594

> <r_mmod_Stretch_Energy-OPLS-2005>
316.277648925781

> <r_mmod_Bend_Energy-OPLS-2005>
335.749877929688

> <r_mmod_Torsional_Energy-OPLS-2005>
248.822799682617

> <r_mmod_Improper_Torsional_Energy-OPLS-2005>
7.75331878662109

> <r_mmod_Van_der_Waal_Energy-OPLS-2005>
105.272369384766

> <r_mmod_Electrostatic_Energy-OPLS-2005>
-414.699768066406

> <r_mmod_Solvation_Energy-OPLS-2005>
-215.421371459961

> <b_mmod_Minimization_Converged-OPLS-2005>
0

> <r_mmod_RMS_Derivative-OPLS-2005>
4.63599348068237

$$$$
41
                    3D
 Structure written by MMmdl.
154162  0  0  1  0            999 V2000
  -31.4206  -14.6729   19.2874 C   0  0  0  0  0  0
  -31.2014  -12.5110   19.9317 C   0  0  0  0  0  0
  -29.8982  -12.2488   19.3951 C   0  0  0  0  0  0
  -28.9261  -13.5899   20.1077 C   0  0  0  0  0  0
  -26.9628  -14.3054   19.6171 C   0  0  2  0  0  0
  -29.4345  -14.4349   20.6551 C   0  0  0  0  0  0
  -24.6544  -14.1600   20.5698 C   0  0  0  0  0  0
  -23.8212  -13.2036   21.0406 C   0  0  0  0  0  0
  -24.3161  -11.8999   20.7705 C   0  0  0  0  0  0
  -23.7764  -10.5320   20.9813 C   0  0  0  0  0  0
  -24.3046   -9.5509   21.8666 C   0  0  0  0  0  0
  -23.6392   -8.3071   22.0460 C   0  0  0  0  0  0
  -22.4381   -8.0395   21.3409 C   0  0  0  0  0  0
  -21.9571   -8.9953   20.4342 C   0  0  0  0  0  0
  -22.6187  -10.2175   20.2549 C   0  0  0  0  0  0
  -21.7108   -6.0760   22.5343 C   0  0  0  0  0  0
  -21.4215   -6.5694   23.8262 C   0  0  0  0  0  0
  -21.3725   -5.6828   24.9220 C   0  0  0  0  0  0
  -21.6035   -4.3073   24.7261 C   0  0  0  0  0  0
  -21.8797   -3.8137   23.4394 C   0  0  0  0  0  0
  -21.9277   -4.6962   22.3463 C   0  0  0  0  0  0
  -22.4563  -13.5519   21.3778 C   0  0  0  0  0  0
  -22.1683   -4.2139   21.1028 F   0  0  0  0  0  0
  -21.5578   -3.4546   25.7767 F   0  0  0  0  0  0
  -31.0336  -13.9206   20.2589 N   0  0  0  0  0  0
  -25.4954  -13.5421   19.8044 N   0  0  0  0  0  0
  -25.1404  -12.1392   19.8013 N   0  0  0  0  0  0
  -21.8256  -12.7654   22.2270 N   0  0  0  0  0  0
  -24.7884  -15.5360   20.6292 N   0  0  0  0  0  0
  -32.3123  -15.4084   19.6179 O   0  0  0  0  0  0
  -21.7028   -6.8792   21.4236 O   0  0  0  0  0  0
  -21.9635  -14.5495   20.8577 O   0  0  0  0  0  0
  -24.7249  -31.7486   23.1206 C   0  0  0  0  0  0
  -25.9634  -32.4196   23.7887 C   0  0  1  0  0  0
  -26.9854  -26.1628   20.2982 C   0  0  0  0  0  0
  -25.6046  -33.8062   24.1716 N   0  0  0  0  0  0
  -23.5555  -30.3502   21.4876 C   0  0  2  0  0  0
  -24.9633  -28.5933   20.1215 C   0  0  0  0  0  0
  -22.7888  -29.4082   22.4587 C   0  0  0  0  0  0
  -18.0353  -28.1434   22.8433 C   0  0  0  0  0  0
  -24.1486  -36.7039   23.2668 C   0  0  0  0  0  0
  -26.1459  -30.2958   21.4608 C   0  0  0  0  0  0
  -26.1543  -28.8089   20.8198 C   0  0  0  0  0  0
  -27.1495  -27.6334   20.8616 C   0  0  0  0  0  0
  -25.8214  -26.3016   19.4910 C   0  0  0  0  0  0
  -24.8703  -27.3775   19.4221 C   0  0  0  0  0  0
  -23.8184  -29.6336   20.1283 C   0  0  0  0  0  0
  -25.4156  -36.2748   24.0254 C   0  0  1  0  0  0
  -20.5998  -28.3812   23.1062 C   0  0  2  0  0  0
  -20.6794  -26.9434   22.5406 C   0  0  0  0  0  0
  -19.5781  -26.6351   21.5214 C   0  0  0  0  0  0
  -18.1961  -26.7957   22.1607 C   0  0  0  0  0  0
  -19.1625  -28.8956   23.2720 C   0  0  0  0  0  0
  -18.9532  -30.1524   23.8790 C   0  0  0  0  0  0
  -17.6522  -30.6611   24.0540 C   0  0  0  0  0  0
  -25.9170  -34.9148   23.4848 C   0  0  0  0  0  0
  -16.5405  -29.9090   23.6353 C   0  0  0  0  0  0
  -16.7331  -28.6509   23.0372 C   0  0  0  0  0  0
  -26.4667  -31.6460   25.0722 C   0  0  0  0  0  0
  -25.3614  -31.3917   26.1261 C   0  0  0  0  0  0
  -27.0690  -30.2757   24.6978 C   0  0  0  0  0  0
  -27.6026  -32.4453   25.7551 C   0  0  0  0  0  0
  -27.5544  -37.1679   24.8470 C   0  0  0  0  0  0
  -21.4510  -29.2995   22.3344 N   0  0  0  0  0  0
  -26.4243  -37.3561   23.9416 N   0  0  0  0  0  0
  -24.8421  -30.8463   22.0724 N   0  0  0  0  0  0
  -23.4156  -28.7706   23.3075 O   0  0  0  0  0  0
  -27.7153  -24.6561   20.3515 O   0  0  0  0  0  0
  -26.5865  -34.8814   22.4504 O   0  0  0  0  0  0
  -23.6192  -32.0821   23.5881 O   0  0  0  0  0  0
  -28.4650  -15.6703   18.6512 C   0  0  0  0  0  0
  -27.3160  -14.7389   21.7424 C   0  0  0  0  0  0
  -27.8171  -16.2981   20.4084 C   0  0  0  0  0  0
  -28.3096  -13.7860   17.9238 C   0  0  0  0  0  0
  -29.5313  -14.6484   15.8748 C   0  0  0  0  0  0
  -27.5485  -18.3687   20.6947 C   0  0  0  0  0  0
  -27.8593  -20.5259   20.2412 C   0  0  0  0  0  0
  -27.3519  -22.6880   20.4834 C   0  0  0  0  0  0
  -29.7177  -13.8649   17.1855 C   0  0  2  0  0  0
  -27.1741  -12.7682   21.2062 N   0  0  0  0  0  0
  -27.5108  -12.2414   19.1371 N   0  0  0  0  0  0
  -30.8892  -14.5555   17.9815 N   0  0  0  0  0  0
  -32.0128  -12.2791   19.2316 H   0  0  0  0  0  0
  -31.3918  -11.9632   20.8565 H   0  0  0  0  0  0
  -29.6720  -11.2190   19.7348 H   0  0  0  0  0  0
  -29.9310  -11.9167   18.3768 H   0  0  0  0  0  0
  -29.1169  -12.5583   20.7712 H   0  0  0  0  0  0
  -27.8138  -14.1500   19.8473 H   0  0  0  0  0  0
  -26.5035  -14.9193   18.7799 H   0  0  0  0  0  0
  -29.5829  -14.4361   21.8091 H   0  0  0  0  0  0
  -29.8215  -15.4792   20.7715 H   0  0  0  0  0  0
  -25.2045   -9.7676   22.4254 H   0  0  0  0  0  0
  -24.0498   -7.5736   22.7249 H   0  0  0  0  0  0
  -21.0591   -8.7883   19.8669 H   0  0  0  0  0  0
  -22.2040  -10.9408   19.5655 H   0  0  0  0  0  0
  -21.2288   -7.6211   23.9793 H   0  0  0  0  0  0
  -21.1542   -6.0539   25.9123 H   0  0  0  0  0  0
  -22.0478   -2.7589   23.2894 H   0  0  0  0  0  0
  -22.2834  -11.9604   22.6283 H   0  0  0  0  0  0
  -20.8707  -12.9697   22.4865 H   0  0  0  0  0  0
  -25.3671  -16.0529   19.9778 H   0  0  0  0  0  0
  -24.0637  -16.1054   21.0510 H   0  0  0  0  0  0
  -26.7765  -32.4516   23.0626 H   0  0  0  0  0  0
  -25.0056  -33.9036   24.9779 H   0  0  0  0  0  0
  -22.9085  -31.2049   21.2817 H   0  0  0  0  0  0
  -23.3779  -35.9332   23.3246 H   0  0  0  0  0  0
  -24.3533  -36.8810   22.2097 H   0  0  0  0  0  0
  -23.7208  -37.6163   23.6832 H   0  0  0  0  0  0
  -26.4142  -30.9782   20.6531 H   0  0  0  0  0  0
  -26.9828  -30.3571   22.1417 H   0  0  0  0  0  0
  -28.0384  -27.8015   21.4505 H   0  0  0  0  0  0
  -25.5520  -25.4220   18.9218 H   0  0  0  0  0  0
  -23.9873  -27.2090   18.8225 H   0  0  0  0  0  0
  -24.0648  -30.3846   19.3773 H   0  0  0  0  0  0
  -22.9001  -29.1630   19.7736 H   0  0  0  0  0  0
  -25.1377  -36.1456   25.0740 H   0  0  0  0  0  0
  -21.0074  -28.3465   24.1190 H   0  0  0  0  0  0
  -20.5608  -26.2447   23.3696 H   0  0  0  0  0  0
  -21.6647  -26.7308   22.1248 H   0  0  0  0  0  0
  -19.6922  -25.6229   21.1314 H   0  0  0  0  0  0
  -19.6732  -27.3093   20.6688 H   0  0  0  0  0  0
  -17.4227  -26.6692   21.4011 H   0  0  0  0  0  0
  -18.0342  -26.0127   22.9030 H   0  0  0  0  0  0
  -19.8005  -30.7361   24.2113 H   0  0  0  0  0  0
  -17.5070  -31.6281   24.5162 H   0  0  0  0  0  0
  -15.5395  -30.2960   23.7748 H   0  0  0  0  0  0
  -15.8726  -28.0796   22.7156 H   0  0  0  0  0  0
  -24.5837  -30.7231   25.7559 H   0  0  0  0  0  0
  -24.8779  -32.3184   26.4358 H   0  0  0  0  0  0
  -25.7690  -30.9295   27.0261 H   0  0  0  0  0  0
  -26.3478  -29.6189   24.2118 H   0  0  0  0  0  0
  -27.4060  -29.7448   25.5892 H   0  0  0  0  0  0
  -27.9476  -30.3796   24.0616 H   0  0  0  0  0  0
  -27.2493  -33.3868   26.1766 H   0  0  0  0  0  0
  -28.3996  -32.6838   25.0499 H   0  0  0  0  0  0
  -28.0522  -31.8855   26.5760 H   0  0  0  0  0  0
  -28.2507  -38.0025   24.7517 H   0  0  0  0  0  0
  -28.1097  -36.2541   24.6294 H   0  0  0  0  0  0
  -27.2272  -37.1303   25.8878 H   0  0  0  0  0  0
  -20.9883  -29.8640   21.6353 H   0  0  0  0  0  0
  -26.0032  -38.2591   24.1432 H   0  0  0  0  0  0
  -28.8923  -16.4208   18.0043 H   0  0  0  0  0  0
  -26.9968  -14.9715   22.7488 H   0  0  0  0  0  0
  -29.3825  -15.7145   16.0275 H   0  0  0  0  0  0
  -28.6665  -14.2734   15.3244 H   0  0  0  0  0  0
  -30.4026  -14.5369   15.2289 H   0  0  0  0  0  0
  -27.7745  -18.3768   21.7614 H   0  0  0  0  0  0
  -26.4589  -18.3537   20.6734 H   0  0  0  0  0  0
  -27.7860  -20.4672   19.1552 H   0  0  0  0  0  0
  -28.9330  -20.5760   20.4183 H   0  0  0  0  0  0
  -27.1577  -22.6755   21.5555 H   0  0  0  0  0  0
  -26.3514  -22.6843   20.0496 H   0  0  0  0  0  0
  -30.0275  -12.9159   16.7550 H   0  0  0  0  0  0
  -31.3779  -15.1956   17.3762 H   0  0  0  0  0  0
  1 25  1  0  0  0
  1 30  2  0  0  0
  1 82  1  0  0  0
  2  3  1  0  0  0
  2 25  1  0  0  0
  2 83  1  0  0  0
  2 84  1  0  0  0
  3  4  1  0  0  0
  3 85  1  0  0  0
  3 86  1  0  0  0
  4  5  1  0  0  0
  4 87  1  0  0  0
  4 88  1  0  0  0
  5  6  1  0  0  0
  5 26  1  0  0  0
  5 89  1  0  0  0
  6 25  1  0  0  0
  6 90  1  0  0  0
  6 91  1  0  0  0
  7  8  2  0  0  0
  7 26  1  0  0  0
  7 29  1  0  0  0
  8  9  1  0  0  0
  8 22  1  0  0  0
  9 10  1  0  0  0
  9 27  2  0  0  0
 10 11  2  0  0  0
 10 15  1  0  0  0
 11 12  1  0  0  0
 11 92  1  0  0  0
 12 13  2  0  0  0
 12 93  1  0  0  0
 13 14  1  0  0  0
 13 31  1  0  0  0
 14 15  2  0  0  0
 14 94  1  0  0  0
 15 95  1  0  0  0
 16 17  2  0  0  0
 16 21  1  0  0  0
 16 31  1  0  0  0
 17 18  1  0  0  0
 17 96  1  0  0  0
 18 19  2  0  0  0
 18 97  1  0  0  0
 19 20  1  0  0  0
 19 24  1  0  0  0
 20 21  2  0  0  0
 20 98  1  0  0  0
 21 23  1  0  0  0
 22 28  1  0  0  0
 22 32  2  0  0  0
 26 27  1  0  0  0
 28 99  1  0  0  0
 28100  1  0  0  0
 29101  1  0  0  0
 29102  1  0  0  0
 33 34  1  0  0  0
 33 66  1  0  0  0
 33 70  2  0  0  0
 34 36  1  0  0  0
 34 59  1  0  0  0
 34103  1  0  0  0
 35 44  2  0  0  0
 35 45  1  0  0  0
 35 68  1  0  0  0
 36 56  1  0  0  0
 36104  1  0  0  0
 37 39  1  0  0  0
 37 47  1  0  0  0
 37 66  1  0  0  0
 37105  1  0  0  0
 38 43  2  0  0  0
 38 46  1  0  0  0
 38 47  1  0  0  0
 39 64  1  0  0  0
 39 67  2  0  0  0
 40 52  1  0  0  0
 40 53  2  0  0  0
 40 58  1  0  0  0
 41106  1  0  0  0
 41107  1  0  0  0
 41108  1  0  0  0
 41 48  1  0  0  0
 42 43  1  0  0  0
 42 66  1  0  0  0
 42109  1  0  0  0
 42110  1  0  0  0
 43 44  1  0  0  0
 44111  1  0  0  0
 45 46  2  0  0  0
 45112  1  0  0  0
 46113  1  0  0  0
 47114  1  0  0  0
 47115  1  0  0  0
 48 56  1  0  0  0
 48 65  1  0  0  0
 48116  1  0  0  0
 49 50  1  0  0  0
 49 53  1  0  0  0
 49 64  1  0  0  0
 49117  1  0  0  0
 50 51  1  0  0  0
 50118  1  0  0  0
 50119  1  0  0  0
 51 52  1  0  0  0
 51120  1  0  0  0
 51121  1  0  0  0
 52122  1  0  0  0
 52123  1  0  0  0
 53 54  1  0  0  0
 54 55  2  0  0  0
 54124  1  0  0  0
 55 57  1  0  0  0
 55125  1  0  0  0
 56 69  2  0  0  0
 57 58  2  0  0  0
 57126  1  0  0  0
 58127  1  0  0  0
 59 60  1  0  0  0
 59 61  1  0  0  0
 59 62  1  0  0  0
 60128  1  0  0  0
 60129  1  0  0  0
 60130  1  0  0  0
 61131  1  0  0  0
 61132  1  0  0  0
 61133  1  0  0  0
 62134  1  0  0  0
 62135  1  0  0  0
 62136  1  0  0  0
 63 65  1  0  0  0
 63137  1  0  0  0
 63138  1  0  0  0
 63139  1  0  0  0
 64140  1  0  0  0
 65141  1  0  0  0
 68 78  1  0  0  0
 71 73  2  0  0  0
 71 74  1  0  0  0
 71142  1  0  0  0
 72 73  1  0  0  0
 72 80  2  0  0  0
 72143  1  0  0  0
 73 76  1  0  0  0
 74 79  1  0  0  0
 74 81  2  0  0  0
 75144  1  0  0  0
 75145  1  0  0  0
 75146  1  0  0  0
 75 79  1  0  0  0
 76 77  1  0  0  0
 76147  1  0  0  0
 76148  1  0  0  0
 77 78  1  0  0  0
 77149  1  0  0  0
 77150  1  0  0  0
 78151  1  0  0  0
 78152  1  0  0  0
 79 82  1  0  0  0
 79153  1  0  0  0
 80 81  1  0  0  0
 82154  1  0  0  0
M  ISO  4   1 100  68 101  78 101  82 100
M  END
> <chiral flag>
0

> <version>
0

> <s_m_source_file>
/data/baiqing/PycharmProjects/Reinvent-master-3.2/result/LINK_invent/BTK/process_docking_weight1_custom_sum_contain_oxygen_bond_distance_aromatic_linkinvent_7_9_3/rearranged_h_0085.sdf

> <i_m_source_file_index>
40

> <r_mmod_Potential_Energy-OPLS-2005>
20931.7109375

> <r_mmod_Stretch_Energy-OPLS-2005>
10915.1591796875

> <r_mmod_Bend_Energy-OPLS-2005>
2717.44482421875

> <r_mmod_Torsional_Energy-OPLS-2005>
462.50927734375

> <r_mmod_Improper_Torsional_Energy-OPLS-2005>
48.2150039672852

> <r_mmod_Van_der_Waal_Energy-OPLS-2005>
4229.107421875

> <r_mmod_Electrostatic_Energy-OPLS-2005>
-350.661651611328

> <r_mmod_Solvation_Energy-OPLS-2005>
-265.842742919922

> <b_mmod_Minimization_Converged-OPLS-2005>
0

> <r_mmod_RMS_Derivative-OPLS-2005>
6.72346162796021

$$$$
42
                    3D
 Structure written by MMmdl.
159166  0  0  1  0            999 V2000
  -30.5426  -14.8704   20.3941 C   0  0  0  0  0  0
  -30.4446  -12.5214   19.4925 C   0  0  0  0  0  0
  -29.5222  -12.5227   18.2493 C   0  0  0  0  0  0
  -28.0479  -12.3289   18.6556 C   0  0  0  0  0  0
  -27.6379  -13.2408   19.8413 C   0  0  2  0  0  0
  -28.6825  -13.2216   20.9766 C   0  0  0  0  0  0
  -25.2508  -13.8196   20.5712 C   0  0  0  0  0  0
  -24.1809  -13.0440   20.9206 C   0  0  0  0  0  0
  -24.6411  -11.6922   20.8750 C   0  0  0  0  0  0
  -23.9081  -10.4294   21.0415 C   0  0  0  0  0  0
  -24.3629   -9.4206   21.9190 C   0  0  0  0  0  0
  -23.6307   -8.2239   22.0755 C   0  0  0  0  0  0
  -22.4288   -8.0279   21.3550 C   0  0  0  0  0  0
  -21.9940   -9.0246   20.4646 C   0  0  0  0  0  0
  -22.7257  -10.2128   20.3061 C   0  0  0  0  0  0
  -21.6856   -6.0738   22.5277 C   0  0  0  0  0  0
  -21.4016   -6.5643   23.8213 C   0  0  0  0  0  0
  -21.3664   -5.6801   24.9176 C   0  0  0  0  0  0
  -21.6041   -4.3065   24.7227 C   0  0  0  0  0  0
  -21.8823   -3.8146   23.4353 C   0  0  0  0  0  0
  -21.9198   -4.6960   22.3407 C   0  0  0  0  0  0
  -22.7823  -13.5208   21.1875 C   0  0  0  0  0  0
  -22.1667   -4.2139   21.0988 F   0  0  0  0  0  0
  -21.5631   -3.4562   25.7742 F   0  0  0  0  0  0
  -29.9776  -13.6015   20.4007 N   0  0  0  0  0  0
  -26.2938  -12.9424   20.3251 N   0  0  0  0  0  0
  -25.9344  -11.6554   20.5719 N   0  0  0  0  0  0
  -22.0489  -12.8184   22.0428 N   0  0  0  0  0  0
  -25.4221  -15.1923   20.4159 N   0  0  0  0  0  0
  -31.7506  -14.9410   20.1462 O   0  0  0  0  0  0
  -21.6647   -6.8880   21.4241 O   0  0  0  0  0  0
  -22.3502  -14.5520   20.6734 O   0  0  0  0  0  0
  -24.6404  -31.8478   23.1910 C   0  0  0  0  0  0
  -25.9189  -32.4712   23.8291 C   0  0  1  0  0  0
  -27.2215  -27.1814   20.1336 C   0  0  0  0  0  0
  -25.5948  -33.8517   24.2213 N   0  0  0  0  0  0
  -23.4417  -30.4664   21.5382 C   0  0  2  0  0  0
  -24.8892  -28.9020   20.1077 C   0  0  0  0  0  0
  -22.7564  -29.4554   22.4908 C   0  0  0  0  0  0
  -18.0301  -28.1385   22.8495 C   0  0  0  0  0  0
  -24.1495  -36.7265   23.2642 C   0  0  0  0  0  0
  -25.9936  -30.7360   21.3808 C   0  0  0  0  0  0
  -26.0658  -29.3513   20.7207 C   0  0  0  0  0  0
  -27.2340  -28.5068   20.7153 C   0  0  0  0  0  0
  -26.0182  -26.8232   19.4848 C   0  0  0  0  0  0
  -24.8766  -27.6507   19.4742 C   0  0  0  0  0  0
  -23.6618  -29.7966   20.1563 C   0  0  0  0  0  0
  -25.4122  -36.3040   24.0320 C   0  0  1  0  0  0
  -20.5915  -28.3697   23.1275 C   0  0  2  0  0  0
  -20.6782  -26.9410   22.5423 C   0  0  0  0  0  0
  -19.5751  -26.6374   21.5229 C   0  0  0  0  0  0
  -18.1931  -26.7929   22.1636 C   0  0  0  0  0  0
  -19.1559  -28.8866   23.2865 C   0  0  0  0  0  0
  -18.9464  -30.1464   23.8884 C   0  0  0  0  0  0
  -17.6457  -30.6582   24.0556 C   0  0  0  0  0  0
  -25.9072  -34.9413   23.5072 C   0  0  0  0  0  0
  -16.5352  -29.9070   23.6331 C   0  0  0  0  0  0
  -16.7280  -28.6487   23.0360 C   0  0  0  0  0  0
  -26.4510  -31.6561   25.0713 C   0  0  0  0  0  0
  -25.3706  -31.3726   26.1409 C   0  0  0  0  0  0
  -27.0366  -30.2968   24.6250 C   0  0  0  0  0  0
  -27.6041  -32.4319   25.7504 C   0  0  0  0  0  0
  -27.5577  -37.1795   24.8466 C   0  0  0  0  0  0
  -21.4265  -29.3022   22.3663 N   0  0  0  0  0  0
  -26.4285  -37.3751   23.9409 N   0  0  0  0  0  0
  -24.7119  -31.0374   22.0920 N   0  0  0  0  0  0
  -23.4225  -28.8107   23.3042 O   0  0  0  0  0  0
  -28.2907  -26.2278   20.2029 O   0  0  0  0  0  0
  -26.5659  -34.8909   22.4650 O   0  0  0  0  0  0
  -23.5533  -32.1329   23.7154 O   0  0  0  0  0  0
  -31.6411  -17.9400   20.8876 C   0  0  0  0  0  0
  -31.1627  -21.0657   19.8355 C   0  0  0  0  0  0
  -29.4988  -18.9459   18.5522 C   0  0  0  0  0  0
  -29.6477  -16.2580   20.3648 C   0  0  0  0  0  0
  -29.0787  -23.4782   20.3617 C   0  0  0  0  0  0
  -28.7477  -21.8548   20.1181 C   0  0  0  0  0  0
  -28.0349  -24.7219   20.0016 C   0  0  0  0  0  0
  -30.1119  -17.8315   20.7471 C   0  0  2  0  0  0
  -29.8123  -20.6026   20.4331 C   0  0  1  0  0  0
  -29.4742  -19.1022   20.0270 N   0  3  1  0  0  0
  -31.4825  -12.6611   19.1843 H   0  0  0  0  0  0
  -30.4122  -11.5551   19.9987 H   0  0  0  0  0  0
  -29.8248  -11.7426   17.5500 H   0  0  0  0  0  0
  -29.6297  -13.4675   17.7159 H   0  0  0  0  0  0
  -27.9162  -11.2829   18.9313 H   0  0  0  0  0  0
  -27.3931  -12.5026   17.7999 H   0  0  0  0  0  0
  -27.6165  -14.2527   19.4374 H   0  0  0  0  0  0
  -28.7405  -12.2352   21.4403 H   0  0  0  0  0  0
  -28.4005  -13.9128   21.7714 H   0  0  0  0  0  0
  -25.2779   -9.5676   22.4757 H   0  0  0  0  0  0
  -24.0012   -7.4638   22.7487 H   0  0  0  0  0  0
  -21.0870   -8.8771   19.8958 H   0  0  0  0  0  0
  -22.3721  -10.9668   19.6165 H   0  0  0  0  0  0
  -21.2007   -7.6154   23.9708 H   0  0  0  0  0  0
  -21.1486   -6.0539   25.9078 H   0  0  0  0  0  0
  -22.0598   -2.7609   23.2857 H   0  0  0  0  0  0
  -22.4143  -11.9832   22.4769 H   0  0  0  0  0  0
  -21.1104  -13.1170   22.2659 H   0  0  0  0  0  0
  -24.6583  -15.8498   20.5285 H   0  0  0  0  0  0
  -26.2721  -15.6285   20.0858 H   0  0  0  0  0  0
  -26.7263  -32.5335   23.1033 H   0  0  0  0  0  0
  -25.0061  -33.9649   25.0337 H   0  0  0  0  0  0
  -22.7406  -31.2894   21.3888 H   0  0  0  0  0  0
  -23.3760  -35.9595   23.3285 H   0  0  0  0  0  0
  -24.3580  -36.8912   22.2059 H   0  0  0  0  0  0
  -23.7252  -37.6457   23.6689 H   0  0  0  0  0  0
  -26.1430  -31.4935   20.6104 H   0  0  0  0  0  0
  -26.8672  -30.7858   22.0182 H   0  0  0  0  0  0
  -28.1341  -28.8484   21.2071 H   0  0  0  0  0  0
  -25.9261  -25.8676   18.9918 H   0  0  0  0  0  0
  -23.9791  -27.3042   18.9795 H   0  0  0  0  0  0
  -23.7884  -30.5711   19.3991 H   0  0  0  0  0  0
  -22.7778  -29.2328   19.8525 H   0  0  0  0  0  0
  -25.1311  -36.1869   25.0813 H   0  0  0  0  0  0
  -20.9983  -28.3256   24.1403 H   0  0  0  0  0  0
  -20.5690  -26.2300   23.3627 H   0  0  0  0  0  0
  -21.6646  -26.7433   22.1212 H   0  0  0  0  0  0
  -19.6907  -25.6287   21.1255 H   0  0  0  0  0  0
  -19.6670  -27.3186   20.6761 H   0  0  0  0  0  0
  -17.4208  -26.6695   21.4024 H   0  0  0  0  0  0
  -18.0295  -26.0072   22.9028 H   0  0  0  0  0  0
  -19.7931  -30.7293   24.2242 H   0  0  0  0  0  0
  -17.4999  -31.6263   24.5153 H   0  0  0  0  0  0
  -15.5346  -30.2952   23.7668 H   0  0  0  0  0  0
  -15.8686  -28.0791   22.7082 H   0  0  0  0  0  0
  -24.5902  -30.7054   25.7725 H   0  0  0  0  0  0
  -24.8869  -32.2893   26.4789 H   0  0  0  0  0  0
  -25.7999  -30.8932   27.0216 H   0  0  0  0  0  0
  -26.2964  -29.6703   24.1257 H   0  0  0  0  0  0
  -27.3996  -29.7243   25.4794 H   0  0  0  0  0  0
  -27.8864  -30.4211   23.9535 H   0  0  0  0  0  0
  -27.2629  -33.3630   26.2037 H   0  0  0  0  0  0
  -28.3875  -32.6863   25.0355 H   0  0  0  0  0  0
  -28.0681  -31.8476   26.5458 H   0  0  0  0  0  0
  -28.2588  -38.0099   24.7519 H   0  0  0  0  0  0
  -28.1087  -36.2633   24.6287 H   0  0  0  0  0  0
  -27.2305  -37.1431   25.8872 H   0  0  0  0  0  0
  -20.9478  -29.8719   21.6839 H   0  0  0  0  0  0
  -26.0154  -38.2824   24.1392 H   0  0  0  0  0  0
  -32.0372  -17.1195   21.4839 H   0  0  0  0  0  0
  -31.9360  -18.8412   21.4220 H   0  0  0  0  0  0
  -32.1401  -17.9149   19.9195 H   0  0  0  0  0  0
  -31.5285  -21.9518   20.3549 H   0  0  0  0  0  0
  -31.0497  -21.3385   18.7866 H   0  0  0  0  0  0
  -31.9601  -20.3304   19.8800 H   0  0  0  0  0  0
  -28.9569  -18.0617   18.2255 H   0  0  0  0  0  0
  -30.5239  -18.8740   18.1862 H   0  0  0  0  0  0
  -29.0241  -19.7874   18.0494 H   0  0  0  0  0  0
  -29.2991  -16.2649   19.3350 H   0  0  0  0  0  0
  -28.7432  -16.0579   20.9373 H   0  0  0  0  0  0
  -29.9937  -23.6962   19.8108 H   0  0  0  0  0  0
  -29.3564  -23.5922   21.4095 H   0  0  0  0  0  0
  -28.4644  -21.7712   19.0700 H   0  0  0  0  0  0
  -27.8317  -21.6329   20.6663 H   0  0  0  0  0  0
  -27.1074  -24.4931   20.5265 H   0  0  0  0  0  0
  -27.8000  -24.6076   18.9432 H   0  0  0  0  0  0
  -29.7545  -17.9507   21.7710 H   0  0  0  0  0  0
  -29.9309  -20.5703   21.5164 H   0  0  0  0  0  0
  -28.4950  -19.0277   20.2627 H   0  0  0  0  0  0
  1 25  1  0  0  0
  1 30  2  0  0  0
  1 74  1  0  0  0
  2  3  1  0  0  0
  2 25  1  0  0  0
  2 81  1  0  0  0
  2 82  1  0  0  0
  3  4  1  0  0  0
  3 83  1  0  0  0
  3 84  1  0  0  0
  4  5  1  0  0  0
  4 85  1  0  0  0
  4 86  1  0  0  0
  5  6  1  0  0  0
  5 26  1  0  0  0
  5 87  1  0  0  0
  6 25  1  0  0  0
  6 88  1  0  0  0
  6 89  1  0  0  0
  7  8  2  0  0  0
  7 26  1  0  0  0
  7 29  1  0  0  0
  8  9  1  0  0  0
  8 22  1  0  0  0
  9 10  1  0  0  0
  9 27  2  0  0  0
 10 11  2  0  0  0
 10 15  1  0  0  0
 11 12  1  0  0  0
 11 90  1  0  0  0
 12 13  2  0  0  0
 12 91  1  0  0  0
 13 14  1  0  0  0
 13 31  1  0  0  0
 14 15  2  0  0  0
 14 92  1  0  0  0
 15 93  1  0  0  0
 16 17  2  0  0  0
 16 21  1  0  0  0
 16 31  1  0  0  0
 17 18  1  0  0  0
 17 94  1  0  0  0
 18 19  2  0  0  0
 18 95  1  0  0  0
 19 20  1  0  0  0
 19 24  1  0  0  0
 20 21  2  0  0  0
 20 96  1  0  0  0
 21 23  1  0  0  0
 22 28  1  0  0  0
 22 32  2  0  0  0
 26 27  1  0  0  0
 28 97  1  0  0  0
 28 98  1  0  0  0
 29 99  1  0  0  0
 29100  1  0  0  0
 33 34  1  0  0  0
 33 66  1  0  0  0
 33 70  2  0  0  0
 34 36  1  0  0  0
 34 59  1  0  0  0
 34101  1  0  0  0
 35 44  2  0  0  0
 35 45  1  0  0  0
 35 68  1  0  0  0
 36 56  1  0  0  0
 36102  1  0  0  0
 37 39  1  0  0  0
 37 47  1  0  0  0
 37 66  1  0  0  0
 37103  1  0  0  0
 38 43  2  0  0  0
 38 46  1  0  0  0
 38 47  1  0  0  0
 39 64  1  0  0  0
 39 67  2  0  0  0
 40 52  1  0  0  0
 40 53  2  0  0  0
 40 58  1  0  0  0
 41104  1  0  0  0
 41105  1  0  0  0
 41106  1  0  0  0
 41 48  1  0  0  0
 42 43  1  0  0  0
 42 66  1  0  0  0
 42107  1  0  0  0
 42108  1  0  0  0
 43 44  1  0  0  0
 44109  1  0  0  0
 45 46  2  0  0  0
 45110  1  0  0  0
 46111  1  0  0  0
 47112  1  0  0  0
 47113  1  0  0  0
 48 56  1  0  0  0
 48 65  1  0  0  0
 48114  1  0  0  0
 49 50  1  0  0  0
 49 53  1  0  0  0
 49 64  1  0  0  0
 49115  1  0  0  0
 50 51  1  0  0  0
 50116  1  0  0  0
 50117  1  0  0  0
 51 52  1  0  0  0
 51118  1  0  0  0
 51119  1  0  0  0
 52120  1  0  0  0
 52121  1  0  0  0
 53 54  1  0  0  0
 54 55  2  0  0  0
 54122  1  0  0  0
 55 57  1  0  0  0
 55123  1  0  0  0
 56 69  2  0  0  0
 57 58  2  0  0  0
 57124  1  0  0  0
 58125  1  0  0  0
 59 60  1  0  0  0
 59 61  1  0  0  0
 59 62  1  0  0  0
 60126  1  0  0  0
 60127  1  0  0  0
 60128  1  0  0  0
 61129  1  0  0  0
 61130  1  0  0  0
 61131  1  0  0  0
 62132  1  0  0  0
 62133  1  0  0  0
 62134  1  0  0  0
 63 65  1  0  0  0
 63135  1  0  0  0
 63136  1  0  0  0
 63137  1  0  0  0
 64138  1  0  0  0
 65139  1  0  0  0
 68 77  1  0  0  0
 71140  1  0  0  0
 71141  1  0  0  0
 71142  1  0  0  0
 71 78  1  0  0  0
 72143  1  0  0  0
 72144  1  0  0  0
 72145  1  0  0  0
 72 79  1  0  0  0
 73146  1  0  0  0
 73147  1  0  0  0
 73148  1  0  0  0
 73 80  1  0  0  0
 74 78  1  0  0  0
 74149  1  0  0  0
 74150  1  0  0  0
 75 76  1  0  0  0
 75 77  1  0  0  0
 75151  1  0  0  0
 75152  1  0  0  0
 76 79  1  0  0  0
 76153  1  0  0  0
 76154  1  0  0  0
 77155  1  0  0  0
 77156  1  0  0  0
 78 80  1  0  0  0
 78157  1  0  0  0
 79 80  1  0  0  0
 79158  1  0  0  0
 80159  1  0  0  0
M  CHG  1  80   1
M  ISO  4   1 100  68 101  74 100  77 101
M  END
> <chiral flag>
0

> <version>
0

> <s_m_source_file>
/data/baiqing/PycharmProjects/Reinvent-master-3.2/result/LINK_invent/BTK/process_docking_weight1_custom_sum_contain_oxygen_bond_distance_aromatic_linkinvent_7_9_3/rearranged_h_0085.sdf

> <i_m_source_file_index>
41

> <r_mmod_Potential_Energy-OPLS-2005>
344.353912353516

> <r_mmod_Stretch_Energy-OPLS-2005>
240.17170715332

> <r_mmod_Bend_Energy-OPLS-2005>
245.338928222656

> <r_mmod_Torsional_Energy-OPLS-2005>
205.576156616211

> <r_mmod_Improper_Torsional_Energy-OPLS-2005>
7.2645320892334

> <r_mmod_Van_der_Waal_Energy-OPLS-2005>
121.133926391602

> <r_mmod_Electrostatic_Energy-OPLS-2005>
-187.452072143555

> <r_mmod_Solvation_Energy-OPLS-2005>
-433.624328613281

> <b_mmod_Minimization_Converged-OPLS-2005>
0

> <r_mmod_RMS_Derivative-OPLS-2005>
2.02961397171021

$$$$
44
                    3D
 Structure written by MMmdl.
158166  0  0  1  0            999 V2000
  -30.6447  -14.6184   20.5034 C   0  0  0  0  0  0
  -30.4304  -12.3807   19.4520 C   0  0  0  0  0  0
  -29.5039  -12.5017   18.2230 C   0  0  0  0  0  0
  -28.0271  -12.3424   18.6362 C   0  0  0  0  0  0
  -27.6509  -13.2174   19.8616 C   0  0  2  0  0  0
  -28.6954  -13.0812   20.9922 C   0  0  0  0  0  0
  -25.2543  -13.8173   20.5682 C   0  0  0  0  0  0
  -24.1816  -13.0437   20.9197 C   0  0  0  0  0  0
  -24.6387  -11.6909   20.8743 C   0  0  0  0  0  0
  -23.9059  -10.4288   21.0403 C   0  0  0  0  0  0
  -24.3612   -9.4205   21.9180 C   0  0  0  0  0  0
  -23.6289   -8.2241   22.0751 C   0  0  0  0  0  0
  -22.4274   -8.0276   21.3540 C   0  0  0  0  0  0
  -21.9906   -9.0251   20.4645 C   0  0  0  0  0  0
  -22.7232  -10.2130   20.3054 C   0  0  0  0  0  0
  -21.6853   -6.0729   22.5274 C   0  0  0  0  0  0
  -21.4017   -6.5634   23.8207 C   0  0  0  0  0  0
  -21.3663   -5.6787   24.9170 C   0  0  0  0  0  0
  -21.6048   -4.3051   24.7220 C   0  0  0  0  0  0
  -21.8819   -3.8141   23.4345 C   0  0  0  0  0  0
  -21.9193   -4.6955   22.3397 C   0  0  0  0  0  0
  -22.7838  -13.5227   21.1859 C   0  0  0  0  0  0
  -22.1659   -4.2141   21.0975 F   0  0  0  0  0  0
  -21.5634   -3.4538   25.7737 F   0  0  0  0  0  0
  -30.0104  -13.4089   20.4235 N   0  0  0  0  0  0
  -26.2972  -12.9357   20.3315 N   0  0  0  0  0  0
  -25.9315  -11.6511   20.5760 N   0  0  0  0  0  0
  -22.0483  -12.8220   22.0421 N   0  0  0  0  0  0
  -25.4251  -15.1894   20.4077 N   0  0  0  0  0  0
  -31.8143  -14.7584   20.1366 O   0  0  0  0  0  0
  -21.6640   -6.8872   21.4236 O   0  0  0  0  0  0
  -22.3520  -14.5530   20.6702 O   0  0  0  0  0  0
  -24.6238  -31.8613   23.2036 C   0  0  0  0  0  0
  -25.9094  -32.4786   23.8358 C   0  0  1  0  0  0
  -27.2258  -27.3389   20.1127 C   0  0  0  0  0  0
  -25.5916  -33.8585   24.2287 N   0  0  0  0  0  0
  -23.4161  -30.4854   21.5458 C   0  0  2  0  0  0
  -24.8623  -28.9429   20.1104 C   0  0  0  0  0  0
  -22.7460  -29.4634   22.4944 C   0  0  0  0  0  0
  -18.0283  -28.1383   22.8488 C   0  0  0  0  0  0
  -24.1488  -36.7298   23.2641 C   0  0  0  0  0  0
  -25.9550  -30.7992   21.3706 C   0  0  0  0  0  0
  -26.0300  -29.4283   20.7124 C   0  0  0  0  0  0
  -27.2147  -28.6378   20.7028 C   0  0  0  0  0  0
  -26.0347  -26.9007   19.4882 C   0  0  0  0  0  0
  -24.8658  -27.6842   19.4900 C   0  0  0  0  0  0
  -23.6290  -29.8204   20.1607 C   0  0  0  0  0  0
  -25.4112  -36.3088   24.0332 C   0  0  1  0  0  0
  -20.5881  -28.3685   23.1288 C   0  0  2  0  0  0
  -20.6771  -26.9411   22.5409 C   0  0  0  0  0  0
  -19.5749  -26.6385   21.5208 C   0  0  0  0  0  0
  -18.1930  -26.7927   22.1623 C   0  0  0  0  0  0
  -19.1535  -28.8851   23.2885 C   0  0  0  0  0  0
  -18.9461  -30.1453   23.8901 C   0  0  0  0  0  0
  -17.6463  -30.6587   24.0565 C   0  0  0  0  0  0
  -25.9047  -34.9456   23.5110 C   0  0  0  0  0  0
  -16.5353  -29.9088   23.6327 C   0  0  0  0  0  0
  -16.7272  -28.6504   23.0350 C   0  0  0  0  0  0
  -26.4487  -31.6589   25.0720 C   0  0  0  0  0  0
  -25.3728  -31.3719   26.1454 C   0  0  0  0  0  0
  -27.0330  -30.3020   24.6155 C   0  0  0  0  0  0
  -27.6050  -32.4322   25.7489 C   0  0  0  0  0  0
  -27.5579  -37.1805   24.8467 C   0  0  0  0  0  0
  -21.4177  -29.3043   22.3685 N   0  0  0  0  0  0
  -26.4293  -37.3780   23.9407 N   0  0  0  0  0  0
  -24.6837  -31.0645   22.0974 N   0  0  0  0  0  0
  -23.4193  -28.8175   23.3015 O   0  0  0  0  0  0
  -28.3561  -26.5132   20.1645 O   0  0  0  0  0  0
  -26.5616  -34.8920   22.4677 O   0  0  0  0  0  0
  -23.5406  -32.1403   23.7377 O   0  0  0  0  0  0
  -28.7836  -20.5225   21.4189 C   0  0  0  0  0  0
  -29.2650  -19.7047   20.3677 C   0  0  0  0  0  0
  -29.7769  -20.4059   19.2400 C   0  0  0  0  0  0
  -29.7685  -21.8408   19.2269 C   0  0  0  0  0  0
  -29.2671  -22.5682   20.3448 C   0  0  0  0  0  0
  -30.3107  -19.6402   18.0354 C   0  0  0  0  0  0
  -30.3106  -22.5958   18.0147 C   0  0  0  0  0  0
  -29.0525  -18.1454   20.4171 C   0  0  0  0  0  0
  -29.3684  -24.1343   20.4880 C   0  0  0  0  0  0
  -30.2440  -17.1606   20.7631 C   0  0  0  0  0  0
  -28.1752  -25.0541   20.0122 C   0  0  0  0  0  0
  -28.7847  -21.8854   21.4124 N   0  0  0  0  0  0
  -29.8722  -15.7036   20.8085 N   0  0  0  0  0  0
  -31.4735  -12.4947   19.1521 H   0  0  0  0  0  0
  -30.3541  -11.3875   19.8966 H   0  0  0  0  0  0
  -29.7661  -11.7492   17.4781 H   0  0  0  0  0  0
  -29.6504  -13.4715   17.7447 H   0  0  0  0  0  0
  -27.8644  -11.2903   18.8729 H   0  0  0  0  0  0
  -27.3716  -12.5688   17.7944 H   0  0  0  0  0  0
  -27.6688  -14.2509   19.5162 H   0  0  0  0  0  0
  -28.7016  -12.0655   21.3899 H   0  0  0  0  0  0
  -28.4482  -13.7312   21.8329 H   0  0  0  0  0  0
  -25.2756   -9.5686   22.4753 H   0  0  0  0  0  0
  -24.0000   -7.4634   22.7473 H   0  0  0  0  0  0
  -21.0836   -8.8770   19.8953 H   0  0  0  0  0  0
  -22.3688  -10.9668   19.6163 H   0  0  0  0  0  0
  -21.2006   -7.6142   23.9708 H   0  0  0  0  0  0
  -21.1490   -6.0517   25.9073 H   0  0  0  0  0  0
  -22.0596   -2.7603   23.2845 H   0  0  0  0  0  0
  -22.4097  -11.9882   22.4808 H   0  0  0  0  0  0
  -21.1101  -13.1247   22.2630 H   0  0  0  0  0  0
  -24.6552  -15.8418   20.5088 H   0  0  0  0  0  0
  -26.2670  -15.6258   20.0550 H   0  0  0  0  0  0
  -26.7160  -32.5462   23.1106 H   0  0  0  0  0  0
  -25.0054  -33.9731   25.0425 H   0  0  0  0  0  0
  -22.7087  -31.3051   21.4038 H   0  0  0  0  0  0
  -23.3747  -35.9635   23.3310 H   0  0  0  0  0  0
  -24.3579  -36.8910   22.2054 H   0  0  0  0  0  0
  -23.7244  -37.6504   23.6656 H   0  0  0  0  0  0
  -26.0822  -31.5652   20.6042 H   0  0  0  0  0  0
  -26.8369  -30.8478   21.9977 H   0  0  0  0  0  0
  -28.1119  -29.0071   21.1798 H   0  0  0  0  0  0
  -25.9806  -25.9397   18.9987 H   0  0  0  0  0  0
  -23.9710  -27.3075   19.0139 H   0  0  0  0  0  0
  -23.7444  -30.5967   19.4030 H   0  0  0  0  0  0
  -22.7497  -29.2475   19.8608 H   0  0  0  0  0  0
  -25.1292  -36.1944   25.0824 H   0  0  0  0  0  0
  -20.9973  -28.3256   24.1409 H   0  0  0  0  0  0
  -20.5666  -26.2296   23.3607 H   0  0  0  0  0  0
  -21.6642  -26.7441   22.1207 H   0  0  0  0  0  0
  -19.6911  -25.6295   21.1239 H   0  0  0  0  0  0
  -19.6685  -27.3194   20.6736 H   0  0  0  0  0  0
  -17.4197  -26.6671   21.4029 H   0  0  0  0  0  0
  -18.0338  -26.0068   22.9020 H   0  0  0  0  0  0
  -19.7939  -30.7266   24.2271 H   0  0  0  0  0  0
  -17.5020  -31.6267   24.5167 H   0  0  0  0  0  0
  -15.5355  -30.2994   23.7648 H   0  0  0  0  0  0
  -15.8671  -28.0825   22.7064 H   0  0  0  0  0  0
  -24.5898  -30.7074   25.7783 H   0  0  0  0  0  0
  -24.8924  -32.2885   26.4892 H   0  0  0  0  0  0
  -25.8061  -30.8887   27.0220 H   0  0  0  0  0  0
  -26.2898  -29.6773   24.1186 H   0  0  0  0  0  0
  -27.4049  -29.7270   25.4645 H   0  0  0  0  0  0
  -27.8756  -30.4320   23.9359 H   0  0  0  0  0  0
  -27.2662  -33.3617   26.2077 H   0  0  0  0  0  0
  -28.3855  -32.6892   25.0315 H   0  0  0  0  0  0
  -28.0725  -31.8441   26.5397 H   0  0  0  0  0  0
  -28.2604  -38.0095   24.7504 H   0  0  0  0  0  0
  -28.1068  -36.2627   24.6305 H   0  0  0  0  0  0
  -27.2298  -37.1469   25.8871 H   0  0  0  0  0  0
  -20.9346  -29.8769   21.6904 H   0  0  0  0  0  0
  -26.0178  -38.2858   24.1400 H   0  0  0  0  0  0
  -28.3470  -20.0668   22.2956 H   0  0  0  0  0  0
  -30.4757  -18.5847   18.2359 H   0  0  0  0  0  0
  -31.2698  -20.0464   17.7136 H   0  0  0  0  0  0
  -29.6102  -19.7115   17.2030 H   0  0  0  0  0  0
  -30.0749  -22.0853   17.0813 H   0  0  0  0  0  0
  -31.3942  -22.6970   18.0839 H   0  0  0  0  0  0
  -29.8835  -23.5934   17.9221 H   0  0  0  0  0  0
  -28.6229  -17.8463   19.4605 H   0  0  0  0  0  0
  -28.2540  -17.9601   21.1366 H   0  0  0  0  0  0
  -30.2828  -24.4671   19.9986 H   0  0  0  0  0  0
  -29.5424  -24.3485   21.5428 H   0  0  0  0  0  0
  -30.6548  -17.4263   21.7378 H   0  0  0  0  0  0
  -31.0560  -17.2994   20.0487 H   0  0  0  0  0  0
  -27.2874  -24.7421   20.5646 H   0  0  0  0  0  0
  -27.9808  -24.8430   18.9604 H   0  0  0  0  0  0
  -28.9198  -15.4948   21.0670 H   0  0  0  0  0  0
  1 25  1  0  0  0
  1 30  2  0  0  0
  1 83  1  0  0  0
  2  3  1  0  0  0
  2 25  1  0  0  0
  2 84  1  0  0  0
  2 85  1  0  0  0
  3  4  1  0  0  0
  3 86  1  0  0  0
  3 87  1  0  0  0
  4  5  1  0  0  0
  4 88  1  0  0  0
  4 89  1  0  0  0
  5  6  1  0  0  0
  5 26  1  0  0  0
  5 90  1  0  0  0
  6 25  1  0  0  0
  6 91  1  0  0  0
  6 92  1  0  0  0
  7  8  2  0  0  0
  7 26  1  0  0  0
  7 29  1  0  0  0
  8  9  1  0  0  0
  8 22  1  0  0  0
  9 10  1  0  0  0
  9 27  2  0  0  0
 10 11  2  0  0  0
 10 15  1  0  0  0
 11 12  1  0  0  0
 11 93  1  0  0  0
 12 13  2  0  0  0
 12 94  1  0  0  0
 13 14  1  0  0  0
 13 31  1  0  0  0
 14 15  2  0  0  0
 14 95  1  0  0  0
 15 96  1  0  0  0
 16 17  2  0  0  0
 16 21  1  0  0  0
 16 31  1  0  0  0
 17 18  1  0  0  0
 17 97  1  0  0  0
 18 19  2  0  0  0
 18 98  1  0  0  0
 19 20  1  0  0  0
 19 24  1  0  0  0
 20 21  2  0  0  0
 20 99  1  0  0  0
 21 23  1  0  0  0
 22 28  1  0  0  0
 22 32  2  0  0  0
 26 27  1  0  0  0
 28100  1  0  0  0
 28101  1  0  0  0
 29102  1  0  0  0
 29103  1  0  0  0
 33 34  1  0  0  0
 33 66  1  0  0  0
 33 70  2  0  0  0
 34 36  1  0  0  0
 34 59  1  0  0  0
 34104  1  0  0  0
 35 44  2  0  0  0
 35 45  1  0  0  0
 35 68  1  0  0  0
 36 56  1  0  0  0
 36105  1  0  0  0
 37 39  1  0  0  0
 37 47  1  0  0  0
 37 66  1  0  0  0
 37106  1  0  0  0
 38 43  2  0  0  0
 38 46  1  0  0  0
 38 47  1  0  0  0
 39 64  1  0  0  0
 39 67  2  0  0  0
 40 52  1  0  0  0
 40 53  2  0  0  0
 40 58  1  0  0  0
 41107  1  0  0  0
 41108  1  0  0  0
 41109  1  0  0  0
 41 48  1  0  0  0
 42 43  1  0  0  0
 42 66  1  0  0  0
 42110  1  0  0  0
 42111  1  0  0  0
 43 44  1  0  0  0
 44112  1  0  0  0
 45 46  2  0  0  0
 45113  1  0  0  0
 46114  1  0  0  0
 47115  1  0  0  0
 47116  1  0  0  0
 48 56  1  0  0  0
 48 65  1  0  0  0
 48117  1  0  0  0
 49 50  1  0  0  0
 49 53  1  0  0  0
 49 64  1  0  0  0
 49118  1  0  0  0
 50 51  1  0  0  0
 50119  1  0  0  0
 50120  1  0  0  0
 51 52  1  0  0  0
 51121  1  0  0  0
 51122  1  0  0  0
 52123  1  0  0  0
 52124  1  0  0  0
 53 54  1  0  0  0
 54 55  2  0  0  0
 54125  1  0  0  0
 55 57  1  0  0  0
 55126  1  0  0  0
 56 69  2  0  0  0
 57 58  2  0  0  0
 57127  1  0  0  0
 58128  1  0  0  0
 59 60  1  0  0  0
 59 61  1  0  0  0
 59 62  1  0  0  0
 60129  1  0  0  0
 60130  1  0  0  0
 60131  1  0  0  0
 61132  1  0  0  0
 61133  1  0  0  0
 61134  1  0  0  0
 62135  1  0  0  0
 62136  1  0  0  0
 62137  1  0  0  0
 63 65  1  0  0  0
 63138  1  0  0  0
 63139  1  0  0  0
 63140  1  0  0  0
 64141  1  0  0  0
 65142  1  0  0  0
 68 81  1  0  0  0
 71 72  2  0  0  0
 71 82  1  0  0  0
 71143  1  0  0  0
 72 73  1  0  0  0
 72 78  1  0  0  0
 73 74  2  0  0  0
 73 76  1  0  0  0
 74 75  1  0  0  0
 74 77  1  0  0  0
 75 79  1  0  0  0
 75 82  2  0  0  0
 76144  1  0  0  0
 76145  1  0  0  0
 76146  1  0  0  0
 77147  1  0  0  0
 77148  1  0  0  0
 77149  1  0  0  0
 78 80  1  0  0  0
 78150  1  0  0  0
 78151  1  0  0  0
 79 81  1  0  0  0
 79152  1  0  0  0
 79153  1  0  0  0
 80 83  1  0  0  0
 80154  1  0  0  0
 80155  1  0  0  0
 81156  1  0  0  0
 81157  1  0  0  0
 83158  1  0  0  0
M  ISO  4   1 100  68 101  81 101  83 100
M  END
> <chiral flag>
0

> <version>
0

> <s_m_source_file>
/data/baiqing/PycharmProjects/Reinvent-master-3.2/result/LINK_invent/BTK/process_docking_weight1_custom_sum_contain_oxygen_bond_distance_aromatic_linkinvent_7_9_3/rearranged_h_0085.sdf

> <i_m_source_file_index>
42

> <r_mmod_Potential_Energy-OPLS-2005>
-182.038711547852

> <r_mmod_Stretch_Energy-OPLS-2005>
73.2216491699219

> <r_mmod_Bend_Energy-OPLS-2005>
122.591728210449

> <r_mmod_Torsional_Energy-OPLS-2005>
192.956680297852

> <r_mmod_Improper_Torsional_Energy-OPLS-2005>
5.59415769577026

> <r_mmod_Van_der_Waal_Energy-OPLS-2005>
151.198974609375

> <r_mmod_Electrostatic_Energy-OPLS-2005>
-538.236572265625

> <r_mmod_Solvation_Energy-OPLS-2005>
-231.10578918457

> <b_mmod_Minimization_Converged-OPLS-2005>
0

> <r_mmod_RMS_Derivative-OPLS-2005>
0.669741809368134

$$$$
45
                    3D
 Structure written by MMmdl.
167175  0  0  1  0            999 V2000
  -30.7518  -14.4182   20.6405 C   0  0  0  0  0  0
  -30.4142  -12.3046   19.4087 C   0  0  0  0  0  0
  -29.4859  -12.5190   18.1986 C   0  0  0  0  0  0
  -28.0102  -12.3745   18.6153 C   0  0  0  0  0  0
  -27.6621  -13.2091   19.8766 C   0  0  2  0  0  0
  -28.7028  -12.9809   20.9954 C   0  0  0  0  0  0
  -25.2582  -13.8172   20.5684 C   0  0  0  0  0  0
  -24.1834  -13.0443   20.9174 C   0  0  0  0  0  0
  -24.6392  -11.6913   20.8730 C   0  0  0  0  0  0
  -23.9057  -10.4297   21.0400 C   0  0  0  0  0  0
  -24.3613   -9.4214   21.9179 C   0  0  0  0  0  0
  -23.6290   -8.2248   22.0753 C   0  0  0  0  0  0
  -22.4269   -8.0284   21.3547 C   0  0  0  0  0  0
  -21.9906   -9.0256   20.4646 C   0  0  0  0  0  0
  -22.7231  -10.2135   20.3052 C   0  0  0  0  0  0
  -21.6853   -6.0737   22.5280 C   0  0  0  0  0  0
  -21.4013   -6.5639   23.8212 C   0  0  0  0  0  0
  -21.3660   -5.6791   24.9177 C   0  0  0  0  0  0
  -21.6046   -4.3056   24.7226 C   0  0  0  0  0  0
  -21.8820   -3.8147   23.4346 C   0  0  0  0  0  0
  -21.9192   -4.6962   22.3404 C   0  0  0  0  0  0
  -22.7857  -13.5239   21.1839 C   0  0  0  0  0  0
  -22.1661   -4.2148   21.0980 F   0  0  0  0  0  0
  -21.5629   -3.4539   25.7740 F   0  0  0  0  0  0
  -30.0382  -13.2768   20.4475 N   0  0  0  0  0  0
  -26.3026  -12.9349   20.3380 N   0  0  0  0  0  0
  -25.9320  -11.6502   20.5769 N   0  0  0  0  0  0
  -22.0498  -12.8232   22.0398 N   0  0  0  0  0  0
  -25.4306  -15.1888   20.4102 N   0  0  0  0  0  0
  -31.8148  -14.6502   20.0586 O   0  0  0  0  0  0
  -21.6639   -6.8878   21.4242 O   0  0  0  0  0  0
  -22.3541  -14.5547   20.6693 O   0  0  0  0  0  0
  -24.6145  -31.8678   23.2113 C   0  0  0  0  0  0
  -25.9042  -32.4811   23.8405 C   0  0  1  0  0  0
  -27.2339  -27.4323   20.0883 C   0  0  0  0  0  0
  -25.5908  -33.8615   24.2332 N   0  0  0  0  0  0
  -23.4016  -30.4915   21.5516 C   0  0  2  0  0  0
  -24.8462  -28.9562   20.1137 C   0  0  0  0  0  0
  -22.7404  -29.4658   22.4998 C   0  0  0  0  0  0
  -18.0268  -28.1369   22.8495 C   0  0  0  0  0  0
  -24.1493  -36.7314   23.2637 C   0  0  0  0  0  0
  -25.9302  -30.8305   21.3649 C   0  0  0  0  0  0
  -26.0041  -29.4642   20.7130 C   0  0  0  0  0  0
  -27.1960  -28.7064   20.7013 C   0  0  0  0  0  0
  -26.0575  -26.9424   19.4757 C   0  0  0  0  0  0
  -24.8672  -27.6942   19.4948 C   0  0  0  0  0  0
  -23.6084  -29.8225   20.1658 C   0  0  0  0  0  0
  -25.4110  -36.3098   24.0330 C   0  0  1  0  0  0
  -20.5860  -28.3658   23.1321 C   0  0  2  0  0  0
  -20.6757  -26.9396   22.5415 C   0  0  0  0  0  0
  -19.5733  -26.6383   21.5212 C   0  0  0  0  0  0
  -18.1914  -26.7913   22.1626 C   0  0  0  0  0  0
  -19.1519  -28.8827   23.2905 C   0  0  0  0  0  0
  -18.9446  -30.1435   23.8909 C   0  0  0  0  0  0
  -17.6448  -30.6576   24.0565 C   0  0  0  0  0  0
  -25.9037  -34.9466   23.5125 C   0  0  0  0  0  0
  -16.5339  -29.9080   23.6324 C   0  0  0  0  0  0
  -16.7258  -28.6495   23.0348 C   0  0  0  0  0  0
  -26.4474  -31.6589   25.0733 C   0  0  0  0  0  0
  -25.3735  -31.3674   26.1476 C   0  0  0  0  0  0
  -27.0308  -30.3037   24.6098 C   0  0  0  0  0  0
  -27.6064  -32.4301   25.7476 C   0  0  0  0  0  0
  -27.5575  -37.1808   24.8460 C   0  0  0  0  0  0
  -21.4133  -29.3031   22.3732 N   0  0  0  0  0  0
  -26.4292  -37.3781   23.9401 N   0  0  0  0  0  0
  -24.6670  -31.0777   22.1011 N   0  0  0  0  0  0
  -23.4178  -28.8199   23.3037 O   0  0  0  0  0  0
  -28.4250  -26.7340   20.1202 O   0  0  0  0  0  0
  -26.5598  -34.8912   22.4688 O   0  0  0  0  0  0
  -23.5339  -32.1447   23.7502 O   0  0  0  0  0  0
  -27.4653  -20.2318   22.5340 C   0  0  0  0  0  0
  -29.1113  -19.6804   20.8568 C   0  0  0  0  0  0
  -28.0650  -20.5235   21.2957 C   0  0  0  0  0  0
  -27.9433  -19.1486   23.2896 C   0  0  0  0  0  0
  -29.5359  -18.6093   21.6814 C   0  0  0  0  0  0
  -26.2919  -17.6216   24.4448 C   0  0  0  0  0  0
  -32.0311  -18.7041   21.6443 C   0  0  0  0  0  0
  -27.5646  -21.7166   20.4820 C   0  0  0  0  0  0
  -27.2949  -18.7716   24.6077 C   0  0  0  0  0  0
  -28.5266  -22.9297   20.4445 C   0  0  0  0  0  0
  -27.8113  -24.3095   20.4253 C   0  0  0  0  0  0
  -30.9800  -16.4420   22.0769 C   0  0  0  0  0  0
  -28.5308  -25.4026   19.5938 C   0  0  0  0  0  0
  -30.8100  -17.8157   21.3466 C   0  0  1  0  0  0
  -28.9707  -18.3749   22.8867 N   0  0  0  0  0  0
  -30.2443  -15.2958   21.5203 N   0  0  0  0  0  0
  -31.4588  -12.3961   19.1053 H   0  0  0  0  0  0
  -30.3091  -11.2898   19.7959 H   0  0  0  0  0  0
  -29.7232  -11.8048   17.4088 H   0  0  0  0  0  0
  -29.6541  -13.5110   17.7762 H   0  0  0  0  0  0
  -27.8213  -11.3176   18.8071 H   0  0  0  0  0  0
  -27.3567  -12.6538   17.7881 H   0  0  0  0  0  0
  -27.7107  -14.2591   19.5873 H   0  0  0  0  0  0
  -28.6745  -11.9439   21.3328 H   0  0  0  0  0  0
  -28.4548  -13.5768   21.8738 H   0  0  0  0  0  0
  -25.2758   -9.5691   22.4751 H   0  0  0  0  0  0
  -24.0000   -7.4642   22.7473 H   0  0  0  0  0  0
  -21.0836   -8.8771   19.8953 H   0  0  0  0  0  0
  -22.3688  -10.9672   19.6158 H   0  0  0  0  0  0
  -21.2005   -7.6147   23.9716 H   0  0  0  0  0  0
  -21.1482   -6.0523   25.9078 H   0  0  0  0  0  0
  -22.0598   -2.7609   23.2848 H   0  0  0  0  0  0
  -22.4111  -11.9891   22.4784 H   0  0  0  0  0  0
  -21.1119  -13.1264   22.2604 H   0  0  0  0  0  0
  -24.6701  -15.8488   20.5298 H   0  0  0  0  0  0
  -26.2958  -15.6295   20.1232 H   0  0  0  0  0  0
  -26.7114  -32.5508   23.1168 H   0  0  0  0  0  0
  -25.0048  -33.9787   25.0467 H   0  0  0  0  0  0
  -22.6907  -31.3087   21.4123 H   0  0  0  0  0  0
  -23.3738  -35.9665   23.3308 H   0  0  0  0  0  0
  -24.3577  -36.8928   22.2049 H   0  0  0  0  0  0
  -23.7283  -37.6536   23.6654 H   0  0  0  0  0  0
  -26.0427  -31.5954   20.5957 H   0  0  0  0  0  0
  -26.8196  -30.8849   21.9809 H   0  0  0  0  0  0
  -28.0912  -29.0945   21.1677 H   0  0  0  0  0  0
  -26.0389  -25.9874   18.9744 H   0  0  0  0  0  0
  -23.9764  -27.3010   19.0252 H   0  0  0  0  0  0
  -23.7138  -30.5972   19.4053 H   0  0  0  0  0  0
  -22.7336  -29.2400   19.8723 H   0  0  0  0  0  0
  -25.1293  -36.1954   25.0823 H   0  0  0  0  0  0
  -20.9950  -28.3219   24.1445 H   0  0  0  0  0  0
  -20.5661  -26.2268   23.3602 H   0  0  0  0  0  0
  -21.6626  -26.7430   22.1213 H   0  0  0  0  0  0
  -19.6894  -25.6301   21.1227 H   0  0  0  0  0  0
  -19.6669  -27.3206   20.6753 H   0  0  0  0  0  0
  -17.4188  -26.6669   21.4024 H   0  0  0  0  0  0
  -18.0303  -26.0045   22.9012 H   0  0  0  0  0  0
  -19.7923  -30.7249   24.2285 H   0  0  0  0  0  0
  -17.5004  -31.6256   24.5167 H   0  0  0  0  0  0
  -15.5340  -30.2988   23.7635 H   0  0  0  0  0  0
  -15.8657  -28.0820   22.7053 H   0  0  0  0  0  0
  -24.5931  -30.6992   25.7805 H   0  0  0  0  0  0
  -24.8880  -32.2807   26.4924 H   0  0  0  0  0  0
  -25.8089  -30.8850   27.0234 H   0  0  0  0  0  0
  -26.2848  -29.6790   24.1164 H   0  0  0  0  0  0
  -27.4110  -29.7274   25.4541 H   0  0  0  0  0  0
  -27.8666  -30.4369   23.9225 H   0  0  0  0  0  0
  -27.2717  -33.3607   26.2067 H   0  0  0  0  0  0
  -28.3856  -32.6846   25.0279 H   0  0  0  0  0  0
  -28.0751  -31.8412   26.5370 H   0  0  0  0  0  0
  -28.2594  -38.0102   24.7502 H   0  0  0  0  0  0
  -28.1073  -36.2635   24.6295 H   0  0  0  0  0  0
  -27.2286  -37.1471   25.8861 H   0  0  0  0  0  0
  -20.9295  -29.8762   21.6959 H   0  0  0  0  0  0
  -26.0172  -38.2855   24.1401 H   0  0  0  0  0  0
  -26.6437  -20.8307   22.9029 H   0  0  0  0  0  0
  -29.6152  -19.8780   19.9206 H   0  0  0  0  0  0
  -25.8350  -17.3636   25.3998 H   0  0  0  0  0  0
  -26.7794  -16.7280   24.0532 H   0  0  0  0  0  0
  -25.4951  -17.8961   23.7532 H   0  0  0  0  0  0
  -31.9802  -19.6415   21.0899 H   0  0  0  0  0  0
  -32.9620  -18.2121   21.3615 H   0  0  0  0  0  0
  -32.0883  -18.9509   22.7048 H   0  0  0  0  0  0
  -26.6051  -22.0239   20.8998 H   0  0  0  0  0  0
  -27.3445  -21.3895   19.4649 H   0  0  0  0  0  0
  -26.7946  -19.6446   25.0277 H   0  0  0  0  0  0
  -28.0702  -18.4924   25.3223 H   0  0  0  0  0  0
  -29.1943  -22.8160   19.5890 H   0  0  0  0  0  0
  -29.1738  -22.9063   21.3225 H   0  0  0  0  0  0
  -27.6959  -24.6495   21.4551 H   0  0  0  0  0  0
  -26.7979  -24.1929   20.0434 H   0  0  0  0  0  0
  -30.7395  -16.5336   23.1359 H   0  0  0  0  0  0
  -32.0392  -16.1784   22.0761 H   0  0  0  0  0  0
  -28.2215  -25.3677   18.5487 H   0  0  0  0  0  0
  -29.5993  -25.1852   19.5868 H   0  0  0  0  0  0
  -30.8022  -17.6265   20.2721 H   0  0  0  0  0  0
  -29.3581  -15.0650   21.9444 H   0  0  0  0  0  0
  1 25  1  0  0  0
  1 30  2  0  0  0
  1 86  1  0  0  0
  2  3  1  0  0  0
  2 25  1  0  0  0
  2 87  1  0  0  0
  2 88  1  0  0  0
  3  4  1  0  0  0
  3 89  1  0  0  0
  3 90  1  0  0  0
  4  5  1  0  0  0
  4 91  1  0  0  0
  4 92  1  0  0  0
  5  6  1  0  0  0
  5 26  1  0  0  0
  5 93  1  0  0  0
  6 25  1  0  0  0
  6 94  1  0  0  0
  6 95  1  0  0  0
  7  8  2  0  0  0
  7 26  1  0  0  0
  7 29  1  0  0  0
  8  9  1  0  0  0
  8 22  1  0  0  0
  9 10  1  0  0  0
  9 27  2  0  0  0
 10 11  2  0  0  0
 10 15  1  0  0  0
 11 12  1  0  0  0
 11 96  1  0  0  0
 12 13  2  0  0  0
 12 97  1  0  0  0
 13 14  1  0  0  0
 13 31  1  0  0  0
 14 15  2  0  0  0
 14 98  1  0  0  0
 15 99  1  0  0  0
 16 17  2  0  0  0
 16 21  1  0  0  0
 16 31  1  0  0  0
 17 18  1  0  0  0
 17100  1  0  0  0
 18 19  2  0  0  0
 18101  1  0  0  0
 19 20  1  0  0  0
 19 24  1  0  0  0
 20 21  2  0  0  0
 20102  1  0  0  0
 21 23  1  0  0  0
 22 28  1  0  0  0
 22 32  2  0  0  0
 26 27  1  0  0  0
 28103  1  0  0  0
 28104  1  0  0  0
 29105  1  0  0  0
 29106  1  0  0  0
 33 34  1  0  0  0
 33 66  1  0  0  0
 33 70  2  0  0  0
 34 36  1  0  0  0
 34 59  1  0  0  0
 34107  1  0  0  0
 35 44  2  0  0  0
 35 45  1  0  0  0
 35 68  1  0  0  0
 36 56  1  0  0  0
 36108  1  0  0  0
 37 39  1  0  0  0
 37 47  1  0  0  0
 37 66  1  0  0  0
 37109  1  0  0  0
 38 43  2  0  0  0
 38 46  1  0  0  0
 38 47  1  0  0  0
 39 64  1  0  0  0
 39 67  2  0  0  0
 40 52  1  0  0  0
 40 53  2  0  0  0
 40 58  1  0  0  0
 41110  1  0  0  0
 41111  1  0  0  0
 41112  1  0  0  0
 41 48  1  0  0  0
 42 43  1  0  0  0
 42 66  1  0  0  0
 42113  1  0  0  0
 42114  1  0  0  0
 43 44  1  0  0  0
 44115  1  0  0  0
 45 46  2  0  0  0
 45116  1  0  0  0
 46117  1  0  0  0
 47118  1  0  0  0
 47119  1  0  0  0
 48 56  1  0  0  0
 48 65  1  0  0  0
 48120  1  0  0  0
 49 50  1  0  0  0
 49 53  1  0  0  0
 49 64  1  0  0  0
 49121  1  0  0  0
 50 51  1  0  0  0
 50122  1  0  0  0
 50123  1  0  0  0
 51 52  1  0  0  0
 51124  1  0  0  0
 51125  1  0  0  0
 52126  1  0  0  0
 52127  1  0  0  0
 53 54  1  0  0  0
 54 55  2  0  0  0
 54128  1  0  0  0
 55 57  1  0  0  0
 55129  1  0  0  0
 56 69  2  0  0  0
 57 58  2  0  0  0
 57130  1  0  0  0
 58131  1  0  0  0
 59 60  1  0  0  0
 59 61  1  0  0  0
 59 62  1  0  0  0
 60132  1  0  0  0
 60133  1  0  0  0
 60134  1  0  0  0
 61135  1  0  0  0
 61136  1  0  0  0
 61137  1  0  0  0
 62138  1  0  0  0
 62139  1  0  0  0
 62140  1  0  0  0
 63 65  1  0  0  0
 63141  1  0  0  0
 63142  1  0  0  0
 63143  1  0  0  0
 64144  1  0  0  0
 65145  1  0  0  0
 68 83  1  0  0  0
 71 73  2  0  0  0
 71 74  1  0  0  0
 71146  1  0  0  0
 72 73  1  0  0  0
 72 75  2  0  0  0
 72147  1  0  0  0
 73 78  1  0  0  0
 74 79  1  0  0  0
 74 85  2  0  0  0
 75 84  1  0  0  0
 75 85  1  0  0  0
 76 79  1  0  0  0
 76148  1  0  0  0
 76149  1  0  0  0
 76150  1  0  0  0
 77151  1  0  0  0
 77152  1  0  0  0
 77153  1  0  0  0
 77 84  1  0  0  0
 78 80  1  0  0  0
 78154  1  0  0  0
 78155  1  0  0  0
 79156  1  0  0  0
 79157  1  0  0  0
 80 81  1  0  0  0
 80158  1  0  0  0
 80159  1  0  0  0
 81 83  1  0  0  0
 81160  1  0  0  0
 81161  1  0  0  0
 82 84  1  0  0  0
 82 86  1  0  0  0
 82162  1  0  0  0
 82163  1  0  0  0
 83164  1  0  0  0
 83165  1  0  0  0
 84166  1  0  0  0
 86167  1  0  0  0
M  ISO  4   1 100  68 101  83 101  86 100
M  END
> <chiral flag>
0

> <version>
0

> <s_m_source_file>
/data/baiqing/PycharmProjects/Reinvent-master-3.2/result/LINK_invent/BTK/process_docking_weight1_custom_sum_contain_oxygen_bond_distance_aromatic_linkinvent_7_9_3/rearranged_h_0085.sdf

> <i_m_source_file_index>
43

> <r_mmod_Potential_Energy-OPLS-2005>
-223.376190185547

> <r_mmod_Stretch_Energy-OPLS-2005>
37.5812759399414

> <r_mmod_Bend_Energy-OPLS-2005>
109.557235717773

> <r_mmod_Torsional_Energy-OPLS-2005>
207.069732666016

> <r_mmod_Improper_Torsional_Energy-OPLS-2005>
2.91605854034424

> <r_mmod_Van_der_Waal_Energy-OPLS-2005>
153.897888183594

> <r_mmod_Electrostatic_Energy-OPLS-2005>
-543.3525390625

> <r_mmod_Solvation_Energy-OPLS-2005>
-201.049179077148

> <b_mmod_Minimization_Converged-OPLS-2005>
0

> <r_mmod_RMS_Derivative-OPLS-2005>
0.979767322540283

$$$$
46
                    3D
 Structure written by MMmdl.
164172  0  0  1  0            999 V2000
  -30.7624  -14.4258   20.5342 C   0  0  0  0  0  0
  -30.3960  -12.2699   19.4381 C   0  0  0  0  0  0
  -29.4887  -12.4825   18.2114 C   0  0  0  0  0  0
  -28.0105  -12.3554   18.6239 C   0  0  0  0  0  0
  -27.6560  -13.2150   19.8680 C   0  0  2  0  0  0
  -28.6962  -13.0431   20.9992 C   0  0  0  0  0  0
  -25.2550  -13.8187   20.5677 C   0  0  0  0  0  0
  -24.1813  -13.0448   20.9172 C   0  0  0  0  0  0
  -24.6391  -11.6920   20.8743 C   0  0  0  0  0  0
  -23.9070  -10.4292   21.0408 C   0  0  0  0  0  0
  -24.3611   -9.4205   21.9190 C   0  0  0  0  0  0
  -23.6276   -8.2244   22.0773 C   0  0  0  0  0  0
  -22.4257   -8.0287   21.3557 C   0  0  0  0  0  0
  -21.9896   -9.0271   20.4664 C   0  0  0  0  0  0
  -22.7238  -10.2142   20.3062 C   0  0  0  0  0  0
  -21.6861   -6.0729   22.5279 C   0  0  0  0  0  0
  -21.4025   -6.5635   23.8212 C   0  0  0  0  0  0
  -21.3649   -5.6790   24.9175 C   0  0  0  0  0  0
  -21.6038   -4.3053   24.7225 C   0  0  0  0  0  0
  -21.8814   -3.8141   23.4349 C   0  0  0  0  0  0
  -21.9192   -4.6954   22.3402 C   0  0  0  0  0  0
  -22.7830  -13.5251   21.1828 C   0  0  0  0  0  0
  -22.1656   -4.2140   21.0979 F   0  0  0  0  0  0
  -21.5622   -3.4536   25.7736 F   0  0  0  0  0  0
  -30.0280  -13.2903   20.4322 N   0  0  0  0  0  0
  -26.2991  -12.9371   20.3342 N   0  0  0  0  0  0
  -25.9318  -11.6527   20.5772 N   0  0  0  0  0  0
  -22.0464  -12.8267   22.0388 N   0  0  0  0  0  0
  -25.4271  -15.1908   20.4080 N   0  0  0  0  0  0
  -31.9229  -14.4966   20.1245 O   0  0  0  0  0  0
  -21.6641   -6.8873   21.4238 O   0  0  0  0  0  0
  -22.3517  -14.5553   20.6669 O   0  0  0  0  0  0
  -24.6109  -31.8709   23.2118 C   0  0  0  0  0  0
  -25.9024  -32.4838   23.8391 C   0  0  1  0  0  0
  -27.2288  -27.4662   20.0863 C   0  0  0  0  0  0
  -25.5898  -33.8631   24.2323 N   0  0  0  0  0  0
  -23.3959  -30.4954   21.5527 C   0  0  2  0  0  0
  -24.8378  -28.9599   20.1188 C   0  0  0  0  0  0
  -22.7375  -29.4682   22.5009 C   0  0  0  0  0  0
  -18.0269  -28.1372   22.8497 C   0  0  0  0  0  0
  -24.1490  -36.7317   23.2637 C   0  0  0  0  0  0
  -25.9215  -30.8462   21.3577 C   0  0  0  0  0  0
  -25.9972  -29.4819   20.7066 C   0  0  0  0  0  0
  -27.1973  -28.7422   20.6848 C   0  0  0  0  0  0
  -26.0558  -26.9491   19.4957 C   0  0  0  0  0  0
  -24.8590  -27.6895   19.5146 C   0  0  0  0  0  0
  -23.5995  -29.8246   20.1677 C   0  0  0  0  0  0
  -25.4115  -36.3117   24.0329 C   0  0  1  0  0  0
  -20.5855  -28.3656   23.1331 C   0  0  2  0  0  0
  -20.6766  -26.9398   22.5421 C   0  0  0  0  0  0
  -19.5738  -26.6384   21.5221 C   0  0  0  0  0  0
  -18.1917  -26.7921   22.1629 C   0  0  0  0  0  0
  -19.1518  -28.8827   23.2917 C   0  0  0  0  0  0
  -18.9448  -30.1437   23.8925 C   0  0  0  0  0  0
  -17.6448  -30.6581   24.0573 C   0  0  0  0  0  0
  -25.9037  -34.9483   23.5120 C   0  0  0  0  0  0
  -16.5339  -29.9087   23.6325 C   0  0  0  0  0  0
  -16.7259  -28.6505   23.0346 C   0  0  0  0  0  0
  -26.4470  -31.6615   25.0709 C   0  0  0  0  0  0
  -25.3754  -31.3708   26.1469 C   0  0  0  0  0  0
  -27.0302  -30.3063   24.6072 C   0  0  0  0  0  0
  -27.6057  -32.4326   25.7467 C   0  0  0  0  0  0
  -27.5588  -37.1817   24.8462 C   0  0  0  0  0  0
  -21.4113  -29.3035   22.3745 N   0  0  0  0  0  0
  -26.4303  -37.3799   23.9404 N   0  0  0  0  0  0
  -24.6613  -31.0844   22.0995 N   0  0  0  0  0  0
  -23.4168  -28.8224   23.3035 O   0  0  0  0  0  0
  -28.4171  -26.7823   20.0422 O   0  0  0  0  0  0
  -26.5601  -34.8933   22.4684 O   0  0  0  0  0  0
  -23.5315  -32.1448   23.7539 O   0  0  0  0  0  0
  -30.6437  -21.8143   19.8093 C   0  0  0  0  0  0
  -30.6776  -20.6528   20.5259 C   0  0  0  0  0  0
  -31.5477  -25.2205   22.7814 C   0  0  0  0  0  0
  -31.2467  -26.6524   20.7908 C   0  0  0  0  0  0
  -30.7577  -19.2521   19.9981 C   0  0  0  0  0  0
  -29.9712  -18.1442   20.7454 C   0  0  0  0  0  0
  -29.3086  -25.2170   21.6439 C   0  0  0  0  0  0
  -31.3542  -24.1758   20.4467 C   0  0  0  0  0  0
  -30.7960  -16.8452   20.6457 C   0  0  0  0  0  0
  -28.4024  -25.4052   20.4119 C   0  0  0  0  0  0
  -30.8443  -25.2936   21.4062 C   0  0  0  0  0  0
  -30.9687  -20.9688   21.8521 N   0  0  0  0  0  0
  -31.1413  -22.2500   21.9599 N   0  0  0  0  0  0
  -30.9747  -22.7915   20.7284 N   0  0  0  0  0  0
  -30.1252  -15.5582   20.8922 N   0  0  0  0  0  0
  -31.4456  -12.3128   19.1451 H   0  0  0  0  0  0
  -30.2504  -11.2732   19.8568 H   0  0  0  0  0  0
  -29.7257  -11.7514   17.4369 H   0  0  0  0  0  0
  -29.6720  -13.4650   17.7737 H   0  0  0  0  0  0
  -27.8216  -11.3030   18.8387 H   0  0  0  0  0  0
  -27.3604  -12.6150   17.7868 H   0  0  0  0  0  0
  -27.6918  -14.2557   19.5466 H   0  0  0  0  0  0
  -28.6538  -12.0329   21.4086 H   0  0  0  0  0  0
  -28.4805  -13.7130   21.8328 H   0  0  0  0  0  0
  -25.2759   -9.5671   22.4768 H   0  0  0  0  0  0
  -23.9984   -7.4632   22.7495 H   0  0  0  0  0  0
  -21.0832   -8.8802   19.8968 H   0  0  0  0  0  0
  -22.3714  -10.9686   19.6169 H   0  0  0  0  0  0
  -21.2037   -7.6147   23.9712 H   0  0  0  0  0  0
  -21.1468   -6.0526   25.9079 H   0  0  0  0  0  0
  -22.0602   -2.7605   23.2858 H   0  0  0  0  0  0
  -22.4083  -11.9942   22.4799 H   0  0  0  0  0  0
  -21.1085  -13.1326   22.2577 H   0  0  0  0  0  0
  -24.6636  -15.8488   20.5221 H   0  0  0  0  0  0
  -26.2811  -15.6277   20.0837 H   0  0  0  0  0  0
  -26.7095  -32.5557   23.1159 H   0  0  0  0  0  0
  -25.0069  -33.9792   25.0481 H   0  0  0  0  0  0
  -22.6850  -31.3125   21.4153 H   0  0  0  0  0  0
  -23.3745  -35.9659   23.3317 H   0  0  0  0  0  0
  -24.3583  -36.8913   22.2049 H   0  0  0  0  0  0
  -23.7245  -37.6528   23.6641 H   0  0  0  0  0  0
  -26.0306  -31.6138   20.5897 H   0  0  0  0  0  0
  -26.8113  -30.8985   21.9739 H   0  0  0  0  0  0
  -28.0981  -29.1457   21.1255 H   0  0  0  0  0  0
  -26.0680  -25.9855   19.0071 H   0  0  0  0  0  0
  -23.9682  -27.2810   19.0572 H   0  0  0  0  0  0
  -23.7057  -30.5978   19.4054 H   0  0  0  0  0  0
  -22.7237  -29.2421   19.8754 H   0  0  0  0  0  0
  -25.1296  -36.1993   25.0821 H   0  0  0  0  0  0
  -20.9963  -28.3218   24.1442 H   0  0  0  0  0  0
  -20.5674  -26.2261   23.3601 H   0  0  0  0  0  0
  -21.6639  -26.7452   22.1211 H   0  0  0  0  0  0
  -19.6899  -25.6303   21.1227 H   0  0  0  0  0  0
  -19.6669  -27.3218   20.6769 H   0  0  0  0  0  0
  -17.4191  -26.6675   21.4026 H   0  0  0  0  0  0
  -18.0308  -26.0055   22.9015 H   0  0  0  0  0  0
  -19.7924  -30.7255   24.2295 H   0  0  0  0  0  0
  -17.5006  -31.6265   24.5172 H   0  0  0  0  0  0
  -15.5342  -30.3004   23.7635 H   0  0  0  0  0  0
  -15.8658  -28.0844   22.7037 H   0  0  0  0  0  0
  -24.5922  -30.7066   25.7805 H   0  0  0  0  0  0
  -24.8952  -32.2854   26.4954 H   0  0  0  0  0  0
  -25.8122  -30.8852   27.0202 H   0  0  0  0  0  0
  -26.2832  -29.6809   24.1169 H   0  0  0  0  0  0
  -27.4122  -29.7327   25.4529 H   0  0  0  0  0  0
  -27.8641  -30.4388   23.9174 H   0  0  0  0  0  0
  -27.2691  -33.3615   26.2091 H   0  0  0  0  0  0
  -28.3846  -32.6899   25.0276 H   0  0  0  0  0  0
  -28.0751  -31.8414   26.5342 H   0  0  0  0  0  0
  -28.2621  -38.0106   24.7529 H   0  0  0  0  0  0
  -28.1072  -36.2639   24.6276 H   0  0  0  0  0  0
  -27.2303  -37.1461   25.8865 H   0  0  0  0  0  0
  -20.9249  -29.8752   21.6978 H   0  0  0  0  0  0
  -26.0190  -38.2876   24.1403 H   0  0  0  0  0  0
  -30.5463  -22.0026   18.7471 H   0  0  0  0  0  0
  -31.3532  -26.1190   23.3695 H   0  0  0  0  0  0
  -32.6299  -25.1359   22.6747 H   0  0  0  0  0  0
  -31.2071  -24.3809   23.3859 H   0  0  0  0  0  0
  -30.8494  -27.4898   21.3666 H   0  0  0  0  0  0
  -30.8894  -26.7599   19.7660 H   0  0  0  0  0  0
  -32.3308  -26.7656   20.7511 H   0  0  0  0  0  0
  -31.8181  -18.9942   19.9823 H   0  0  0  0  0  0
  -30.4624  -19.2356   18.9480 H   0  0  0  0  0  0
  -28.9741  -18.0377   20.3169 H   0  0  0  0  0  0
  -29.8427  -18.4025   21.7961 H   0  0  0  0  0  0
  -29.0677  -24.2550   22.0970 H   0  0  0  0  0  0
  -29.0178  -25.9590   22.3890 H   0  0  0  0  0  0
  -32.4437  -24.2064   20.3988 H   0  0  0  0  0  0
  -31.0224  -24.3962   19.4316 H   0  0  0  0  0  0
  -31.6615  -16.9256   21.3085 H   0  0  0  0  0  0
  -31.2015  -16.8071   19.6310 H   0  0  0  0  0  0
  -27.4016  -25.0570   20.6734 H   0  0  0  0  0  0
  -28.7320  -24.7916   19.5735 H   0  0  0  0  0  0
  -29.1584  -15.5264   21.1804 H   0  0  0  0  0  0
  1 25  1  0  0  0
  1 30  2  0  0  0
  1 85  1  0  0  0
  2  3  1  0  0  0
  2 25  1  0  0  0
  2 86  1  0  0  0
  2 87  1  0  0  0
  3  4  1  0  0  0
  3 88  1  0  0  0
  3 89  1  0  0  0
  4  5  1  0  0  0
  4 90  1  0  0  0
  4 91  1  0  0  0
  5  6  1  0  0  0
  5 26  1  0  0  0
  5 92  1  0  0  0
  6 25  1  0  0  0
  6 93  1  0  0  0
  6 94  1  0  0  0
  7  8  2  0  0  0
  7 26  1  0  0  0
  7 29  1  0  0  0
  8  9  1  0  0  0
  8 22  1  0  0  0
  9 10  1  0  0  0
  9 27  2  0  0  0
 10 11  2  0  0  0
 10 15  1  0  0  0
 11 12  1  0  0  0
 11 95  1  0  0  0
 12 13  2  0  0  0
 12 96  1  0  0  0
 13 14  1  0  0  0
 13 31  1  0  0  0
 14 15  2  0  0  0
 14 97  1  0  0  0
 15 98  1  0  0  0
 16 17  2  0  0  0
 16 21  1  0  0  0
 16 31  1  0  0  0
 17 18  1  0  0  0
 17 99  1  0  0  0
 18 19  2  0  0  0
 18100  1  0  0  0
 19 20  1  0  0  0
 19 24  1  0  0  0
 20 21  2  0  0  0
 20101  1  0  0  0
 21 23  1  0  0  0
 22 28  1  0  0  0
 22 32  2  0  0  0
 26 27  1  0  0  0
 28102  1  0  0  0
 28103  1  0  0  0
 29104  1  0  0  0
 29105  1  0  0  0
 33 34  1  0  0  0
 33 66  1  0  0  0
 33 70  2  0  0  0
 34 36  1  0  0  0
 34 59  1  0  0  0
 34106  1  0  0  0
 35 44  2  0  0  0
 35 45  1  0  0  0
 35 68  1  0  0  0
 36 56  1  0  0  0
 36107  1  0  0  0
 37 39  1  0  0  0
 37 47  1  0  0  0
 37 66  1  0  0  0
 37108  1  0  0  0
 38 43  2  0  0  0
 38 46  1  0  0  0
 38 47  1  0  0  0
 39 64  1  0  0  0
 39 67  2  0  0  0
 40 52  1  0  0  0
 40 53  2  0  0  0
 40 58  1  0  0  0
 41109  1  0  0  0
 41110  1  0  0  0
 41111  1  0  0  0
 41 48  1  0  0  0
 42 43  1  0  0  0
 42 66  1  0  0  0
 42112  1  0  0  0
 42113  1  0  0  0
 43 44  1  0  0  0
 44114  1  0  0  0
 45 46  2  0  0  0
 45115  1  0  0  0
 46116  1  0  0  0
 47117  1  0  0  0
 47118  1  0  0  0
 48 56  1  0  0  0
 48 65  1  0  0  0
 48119  1  0  0  0
 49 50  1  0  0  0
 49 53  1  0  0  0
 49 64  1  0  0  0
 49120  1  0  0  0
 50 51  1  0  0  0
 50121  1  0  0  0
 50122  1  0  0  0
 51 52  1  0  0  0
 51123  1  0  0  0
 51124  1  0  0  0
 52125  1  0  0  0
 52126  1  0  0  0
 53 54  1  0  0  0
 54 55  2  0  0  0
 54127  1  0  0  0
 55 57  1  0  0  0
 55128  1  0  0  0
 56 69  2  0  0  0
 57 58  2  0  0  0
 57129  1  0  0  0
 58130  1  0  0  0
 59 60  1  0  0  0
 59 61  1  0  0  0
 59 62  1  0  0  0
 60131  1  0  0  0
 60132  1  0  0  0
 60133  1  0  0  0
 61134  1  0  0  0
 61135  1  0  0  0
 61136  1  0  0  0
 62137  1  0  0  0
 62138  1  0  0  0
 62139  1  0  0  0
 63 65  1  0  0  0
 63140  1  0  0  0
 63141  1  0  0  0
 63142  1  0  0  0
 64143  1  0  0  0
 65144  1  0  0  0
 68 80  1  0  0  0
 71 72  2  0  0  0
 71 84  1  0  0  0
 71145  1  0  0  0
 72 75  1  0  0  0
 72 82  1  0  0  0
 73146  1  0  0  0
 73147  1  0  0  0
 73148  1  0  0  0
 73 81  1  0  0  0
 74 81  1  0  0  0
 74149  1  0  0  0
 74150  1  0  0  0
 74151  1  0  0  0
 75 76  1  0  0  0
 75152  1  0  0  0
 75153  1  0  0  0
 76 79  1  0  0  0
 76154  1  0  0  0
 76155  1  0  0  0
 77 80  1  0  0  0
 77 81  1  0  0  0
 77156  1  0  0  0
 77157  1  0  0  0
 78 81  1  0  0  0
 78 84  1  0  0  0
 78158  1  0  0  0
 78159  1  0  0  0
 79 85  1  0  0  0
 79160  1  0  0  0
 79161  1  0  0  0
 80162  1  0  0  0
 80163  1  0  0  0
 82 83  2  0  0  0
 83 84  1  0  0  0
 85164  1  0  0  0
M  ISO  4   1 100  68 101  80 101  85 100
M  END
> <chiral flag>
0

> <version>
0

> <s_m_source_file>
/data/baiqing/PycharmProjects/Reinvent-master-3.2/result/LINK_invent/BTK/process_docking_weight1_custom_sum_contain_oxygen_bond_distance_aromatic_linkinvent_7_9_3/rearranged_h_0085.sdf

> <i_m_source_file_index>
44

> <r_mmod_Potential_Energy-OPLS-2005>
-33.8178253173828

> <r_mmod_Stretch_Energy-OPLS-2005>
33.427562713623

> <r_mmod_Bend_Energy-OPLS-2005>
120.909156799316

> <r_mmod_Torsional_Energy-OPLS-2005>
240.529281616211

> <r_mmod_Improper_Torsional_Energy-OPLS-2005>
8.40866279602051

> <r_mmod_Van_der_Waal_Energy-OPLS-2005>
142.450973510742

> <r_mmod_Electrostatic_Energy-OPLS-2005>
-378.491180419922

> <r_mmod_Solvation_Energy-OPLS-2005>
-217.653198242188

> <b_mmod_Minimization_Converged-OPLS-2005>
0

> <r_mmod_RMS_Derivative-OPLS-2005>
1.88480544090271

$$$$
47
                    3D
 Structure written by MMmdl.
163171  0  0  1  0            999 V2000
  -30.6521  -14.5677   20.5300 C   0  0  0  0  0  0
  -30.4503  -12.3682   19.4070 C   0  0  0  0  0  0
  -29.5062  -12.5392   18.2002 C   0  0  0  0  0  0
  -28.0230  -12.4155   18.6098 C   0  0  0  0  0  0
  -27.6673  -13.2348   19.8781 C   0  0  2  0  0  0
  -28.7198  -13.0189   20.9911 C   0  0  0  0  0  0
  -25.2642  -13.8255   20.5720 C   0  0  0  0  0  0
  -24.1925  -13.0461   20.9245 C   0  0  0  0  0  0
  -24.6544  -11.6967   20.8813 C   0  0  0  0  0  0
  -23.9231  -10.4303   21.0455 C   0  0  0  0  0  0
  -24.3757   -9.4180   21.9196 C   0  0  0  0  0  0
  -23.6381   -8.2234   22.0752 C   0  0  0  0  0  0
  -22.4334   -8.0320   21.3572 C   0  0  0  0  0  0
  -22.0033   -9.0324   20.4664 C   0  0  0  0  0  0
  -22.7433  -10.2167   20.3080 C   0  0  0  0  0  0
  -21.6840   -6.0778   22.5304 C   0  0  0  0  0  0
  -21.3973   -6.5653   23.8245 C   0  0  0  0  0  0
  -21.3669   -5.6794   24.9210 C   0  0  0  0  0  0
  -21.6059   -4.3052   24.7233 C   0  0  0  0  0  0
  -21.8831   -3.8171   23.4332 C   0  0  0  0  0  0
  -21.9192   -4.7010   22.3406 C   0  0  0  0  0  0
  -22.7940  -13.5228   21.1868 C   0  0  0  0  0  0
  -22.1668   -4.2211   21.0986 F   0  0  0  0  0  0
  -21.5647   -3.4520   25.7715 F   0  0  0  0  0  0
  -30.0427  -13.3481   20.4278 N   0  0  0  0  0  0
  -26.3097  -12.9470   20.3399 N   0  0  0  0  0  0
  -25.9460  -11.6611   20.5802 N   0  0  0  0  0  0
  -22.0549  -12.8224   22.0425 N   0  0  0  0  0  0
  -25.4319  -15.1974   20.4131 N   0  0  0  0  0  0
  -31.7926  -14.7791   20.1121 O   0  0  0  0  0  0
  -21.6655   -6.8940   21.4274 O   0  0  0  0  0  0
  -22.3615  -14.5493   20.6679 O   0  0  0  0  0  0
  -24.6188  -31.8634   23.2061 C   0  0  0  0  0  0
  -25.9086  -32.4763   23.8332 C   0  0  1  0  0  0
  -27.2094  -27.3450   20.1230 C   0  0  0  0  0  0
  -25.5946  -33.8562   24.2273 N   0  0  0  0  0  0
  -23.4064  -30.4901   21.5492 C   0  0  2  0  0  0
  -24.8492  -28.9459   20.1076 C   0  0  0  0  0  0
  -22.7407  -29.4654   22.4975 C   0  0  0  0  0  0
  -18.0275  -28.1372   22.8490 C   0  0  0  0  0  0
  -24.1493  -36.7239   23.2633 C   0  0  0  0  0  0
  -25.9449  -30.7964   21.3754 C   0  0  0  0  0  0
  -26.0139  -29.4269   20.7176 C   0  0  0  0  0  0
  -27.1978  -28.6379   20.7199 C   0  0  0  0  0  0
  -26.0374  -26.9175   19.4655 C   0  0  0  0  0  0
  -24.8601  -27.6945   19.4708 C   0  0  0  0  0  0
  -23.6139  -29.8252   20.1622 C   0  0  0  0  0  0
  -25.4123  -36.3057   24.0327 C   0  0  1  0  0  0
  -20.5874  -28.3678   23.1295 C   0  0  2  0  0  0
  -20.6781  -26.9409   22.5430 C   0  0  0  0  0  0
  -19.5773  -26.6379   21.5222 C   0  0  0  0  0  0
  -18.1934  -26.7924   22.1595 C   0  0  0  0  0  0
  -19.1525  -28.8843   23.2883 C   0  0  0  0  0  0
  -18.9449  -30.1455   23.8888 C   0  0  0  0  0  0
  -17.6458  -30.6578   24.0563 C   0  0  0  0  0  0
  -25.9063  -34.9441   23.5087 C   0  0  0  0  0  0
  -16.5352  -29.9066   23.6350 C   0  0  0  0  0  0
  -16.7265  -28.6479   23.0369 C   0  0  0  0  0  0
  -26.4485  -31.6541   25.0662 C   0  0  0  0  0  0
  -25.3726  -31.3698   26.1390 C   0  0  0  0  0  0
  -27.0303  -30.2954   24.6103 C   0  0  0  0  0  0
  -27.6057  -32.4276   25.7393 C   0  0  0  0  0  0
  -27.5581  -37.1767   24.8470 C   0  0  0  0  0  0
  -21.4144  -29.3003   22.3661 N   0  0  0  0  0  0
  -26.4297  -37.3755   23.9428 N   0  0  0  0  0  0
  -24.6749  -31.0670   22.0994 N   0  0  0  0  0  0
  -23.4150  -28.8235   23.3074 O   0  0  0  0  0  0
  -28.3460  -26.5337   20.1446 O   0  0  0  0  0  0
  -26.5614  -34.8922   22.4649 O   0  0  0  0  0  0
  -23.5380  -32.1422   23.7425 O   0  0  0  0  0  0
  -30.5730  -22.4425   21.7844 C   0  0  0  0  0  0
  -31.3888  -21.4924   22.3483 C   0  0  0  0  0  0
  -30.1269  -20.5028   20.7762 C   0  0  0  0  0  0
  -32.3981  -21.5913   23.4548 C   0  0  0  0  0  0
  -26.9749  -24.7070   21.3380 C   0  0  0  0  0  0
  -29.4938  -19.4038   19.9241 C   0  0  0  0  0  0
  -30.0679  -17.9270   19.8731 C   0  0  0  0  0  0
  -28.8578  -24.0570   19.6970 C   0  0  0  0  0  0
  -28.7388  -22.5004   20.0155 C   0  0  0  0  0  0
  -29.9763  -17.0266   21.1485 C   0  0  0  0  0  0
  -28.3062  -25.1549   20.6887 C   0  0  1  0  0  0
  -29.8154  -21.8334   20.8159 N   0  0  0  0  0  0
  -31.0862  -20.3197   21.6967 N   0  3  0  0  0  0
  -29.8330  -15.5580   20.9615 N   0  0  0  0  0  0
  -31.4827  -12.5196   19.0834 H   0  0  0  0  0  0
  -30.4008  -11.3484   19.7896 H   0  0  0  0  0  0
  -29.7324  -11.8028   17.4288 H   0  0  0  0  0  0
  -29.6883  -13.5128   17.7447 H   0  0  0  0  0  0
  -27.8132  -11.3615   18.7787 H   0  0  0  0  0  0
  -27.3872  -12.7237   17.7808 H   0  0  0  0  0  0
  -27.6962  -14.2881   19.5968 H   0  0  0  0  0  0
  -28.7141  -11.9886   21.3436 H   0  0  0  0  0  0
  -28.4841  -13.6258   21.8667 H   0  0  0  0  0  0
  -25.2914   -9.5572   22.4795 H   0  0  0  0  0  0
  -24.0070   -7.4585   22.7435 H   0  0  0  0  0  0
  -21.0959   -8.8914   19.8969 H   0  0  0  0  0  0
  -22.3960  -10.9733   19.6177 H   0  0  0  0  0  0
  -21.1911   -7.6143   23.9770 H   0  0  0  0  0  0
  -21.1491   -6.0501   25.9118 H   0  0  0  0  0  0
  -22.0594   -2.7638   23.2819 H   0  0  0  0  0  0
  -22.4104  -11.9881   22.4857 H   0  0  0  0  0  0
  -21.1140  -13.1245   22.2530 H   0  0  0  0  0  0
  -24.6696  -15.8551   20.5346 H   0  0  0  0  0  0
  -26.2733  -15.6354   20.0600 H   0  0  0  0  0  0
  -26.7133  -32.5402   23.1049 H   0  0  0  0  0  0
  -25.0112  -33.9739   25.0436 H   0  0  0  0  0  0
  -22.6986  -31.3120   21.4185 H   0  0  0  0  0  0
  -23.3780  -35.9540   23.3290 H   0  0  0  0  0  0
  -24.3585  -36.8843   22.2041 H   0  0  0  0  0  0
  -23.7224  -37.6444   23.6640 H   0  0  0  0  0  0
  -26.0878  -31.5653   20.6149 H   0  0  0  0  0  0
  -26.8225  -30.8310   22.0079 H   0  0  0  0  0  0
  -28.0903  -29.0027   21.2073 H   0  0  0  0  0  0
  -26.0187  -25.9655   18.9546 H   0  0  0  0  0  0
  -23.9718  -27.3280   18.9751 H   0  0  0  0  0  0
  -23.7193  -30.6039   19.4076 H   0  0  0  0  0  0
  -22.7299  -29.2563   19.8682 H   0  0  0  0  0  0
  -25.1321  -36.1880   25.0817 H   0  0  0  0  0  0
  -20.9982  -28.3264   24.1414 H   0  0  0  0  0  0
  -20.5707  -26.2283   23.3623 H   0  0  0  0  0  0
  -21.6652  -26.7462   22.1234 H   0  0  0  0  0  0
  -19.6949  -25.6295   21.1229 H   0  0  0  0  0  0
  -19.6735  -27.3207   20.6774 H   0  0  0  0  0  0
  -17.4250  -26.6728   21.3946 H   0  0  0  0  0  0
  -18.0291  -26.0046   22.8948 H   0  0  0  0  0  0
  -19.7939  -30.7275   24.2234 H   0  0  0  0  0  0
  -17.5016  -31.6267   24.5160 H   0  0  0  0  0  0
  -15.5348  -30.2955   23.7711 H   0  0  0  0  0  0
  -15.8654  -28.0792   22.7100 H   0  0  0  0  0  0
  -24.5989  -30.6910   25.7786 H   0  0  0  0  0  0
  -24.8771  -32.2835   26.4670 H   0  0  0  0  0  0
  -25.8057  -30.9042   27.0244 H   0  0  0  0  0  0
  -26.2845  -29.6692   24.1168 H   0  0  0  0  0  0
  -27.4063  -29.7217   25.4589 H   0  0  0  0  0  0
  -27.8702  -30.4245   23.9267 H   0  0  0  0  0  0
  -27.2701  -33.3606   26.1943 H   0  0  0  0  0  0
  -28.3837  -32.6785   25.0166 H   0  0  0  0  0  0
  -28.0744  -31.8397   26.5299 H   0  0  0  0  0  0
  -28.2629  -38.0043   24.7525 H   0  0  0  0  0  0
  -28.1062  -36.2578   24.6296 H   0  0  0  0  0  0
  -27.2298  -37.1409   25.8877 H   0  0  0  0  0  0
  -20.9326  -29.8588   21.6756 H   0  0  0  0  0  0
  -26.0155  -38.2819   24.1469 H   0  0  0  0  0  0
  -30.4730  -23.4931   22.0146 H   0  0  0  0  0  0
  -31.9022  -21.5739   24.4259 H   0  0  0  0  0  0
  -32.9690  -22.5198   23.3768 H   0  0  0  0  0  0
  -33.0999  -20.7578   23.4319 H   0  0  0  0  0  0
  -27.1081  -23.7862   21.9049 H   0  0  0  0  0  0
  -26.2101  -24.4938   20.5932 H   0  0  0  0  0  0
  -26.5837  -25.4491   22.0362 H   0  0  0  0  0  0
  -29.5276  -19.8014   18.9099 H   0  0  0  0  0  0
  -28.4426  -19.3881   20.2094 H   0  0  0  0  0  0
  -31.0934  -17.9386   19.5066 H   0  0  0  0  0  0
  -29.5056  -17.4185   19.0873 H   0  0  0  0  0  0
  -28.3128  -24.2103   18.7654 H   0  0  0  0  0  0
  -29.8942  -24.2880   19.4473 H   0  0  0  0  0  0
  -28.7169  -21.9804   19.0590 H   0  0  0  0  0  0
  -27.7878  -22.2501   20.4827 H   0  0  0  0  0  0
  -29.0536  -17.3180   21.6509 H   0  0  0  0  0  0
  -30.7917  -17.2243   21.8435 H   0  0  0  0  0  0
  -29.0150  -25.2030   21.5166 H   0  0  0  0  0  0
  -31.5103  -19.4251   21.9082 H   0  0  0  0  0  0
  -28.9367  -15.2077   21.2706 H   0  0  0  0  0  0
  1 25  1  0  0  0
  1 30  2  0  0  0
  1 84  1  0  0  0
  2  3  1  0  0  0
  2 25  1  0  0  0
  2 85  1  0  0  0
  2 86  1  0  0  0
  3  4  1  0  0  0
  3 87  1  0  0  0
  3 88  1  0  0  0
  4  5  1  0  0  0
  4 89  1  0  0  0
  4 90  1  0  0  0
  5  6  1  0  0  0
  5 26  1  0  0  0
  5 91  1  0  0  0
  6 25  1  0  0  0
  6 92  1  0  0  0
  6 93  1  0  0  0
  7  8  2  0  0  0
  7 26  1  0  0  0
  7 29  1  0  0  0
  8  9  1  0  0  0
  8 22  1  0  0  0
  9 10  1  0  0  0
  9 27  2  0  0  0
 10 11  2  0  0  0
 10 15  1  0  0  0
 11 12  1  0  0  0
 11 94  1  0  0  0
 12 13  2  0  0  0
 12 95  1  0  0  0
 13 14  1  0  0  0
 13 31  1  0  0  0
 14 15  2  0  0  0
 14 96  1  0  0  0
 15 97  1  0  0  0
 16 17  2  0  0  0
 16 21  1  0  0  0
 16 31  1  0  0  0
 17 18  1  0  0  0
 17 98  1  0  0  0
 18 19  2  0  0  0
 18 99  1  0  0  0
 19 20  1  0  0  0
 19 24  1  0  0  0
 20 21  2  0  0  0
 20100  1  0  0  0
 21 23  1  0  0  0
 22 28  1  0  0  0
 22 32  2  0  0  0
 26 27  1  0  0  0
 28101  1  0  0  0
 28102  1  0  0  0
 29103  1  0  0  0
 29104  1  0  0  0
 33 34  1  0  0  0
 33 66  1  0  0  0
 33 70  2  0  0  0
 34 36  1  0  0  0
 34 59  1  0  0  0
 34105  1  0  0  0
 35 44  2  0  0  0
 35 45  1  0  0  0
 35 68  1  0  0  0
 36 56  1  0  0  0
 36106  1  0  0  0
 37 39  1  0  0  0
 37 47  1  0  0  0
 37 66  1  0  0  0
 37107  1  0  0  0
 38 43  2  0  0  0
 38 46  1  0  0  0
 38 47  1  0  0  0
 39 64  1  0  0  0
 39 67  2  0  0  0
 40 52  1  0  0  0
 40 53  2  0  0  0
 40 58  1  0  0  0
 41108  1  0  0  0
 41109  1  0  0  0
 41110  1  0  0  0
 41 48  1  0  0  0
 42 43  1  0  0  0
 42 66  1  0  0  0
 42111  1  0  0  0
 42112  1  0  0  0
 43 44  1  0  0  0
 44113  1  0  0  0
 45 46  2  0  0  0
 45114  1  0  0  0
 46115  1  0  0  0
 47116  1  0  0  0
 47117  1  0  0  0
 48 56  1  0  0  0
 48 65  1  0  0  0
 48118  1  0  0  0
 49 50  1  0  0  0
 49 53  1  0  0  0
 49 64  1  0  0  0
 49119  1  0  0  0
 50 51  1  0  0  0
 50120  1  0  0  0
 50121  1  0  0  0
 51 52  1  0  0  0
 51122  1  0  0  0
 51123  1  0  0  0
 52124  1  0  0  0
 52125  1  0  0  0
 53 54  1  0  0  0
 54 55  2  0  0  0
 54126  1  0  0  0
 55 57  1  0  0  0
 55127  1  0  0  0
 56 69  2  0  0  0
 57 58  2  0  0  0
 57128  1  0  0  0
 58129  1  0  0  0
 59 60  1  0  0  0
 59 61  1  0  0  0
 59 62  1  0  0  0
 60130  1  0  0  0
 60131  1  0  0  0
 60132  1  0  0  0
 61133  1  0  0  0
 61134  1  0  0  0
 61135  1  0  0  0
 62136  1  0  0  0
 62137  1  0  0  0
 62138  1  0  0  0
 63 65  1  0  0  0
 63139  1  0  0  0
 63140  1  0  0  0
 63141  1  0  0  0
 64142  1  0  0  0
 65143  1  0  0  0
 68 81  1  0  0  0
 71 72  2  0  0  0
 71 82  1  0  0  0
 71144  1  0  0  0
 72 74  1  0  0  0
 72 83  1  0  0  0
 73 76  1  0  0  0
 73 82  1  0  0  0
 73 83  2  0  0  0
 74145  1  0  0  0
 74146  1  0  0  0
 74147  1  0  0  0
 75148  1  0  0  0
 75149  1  0  0  0
 75150  1  0  0  0
 75 81  1  0  0  0
 76 77  1  0  0  0
 76151  1  0  0  0
 76152  1  0  0  0
 77 80  1  0  0  0
 77153  1  0  0  0
 77154  1  0  0  0
 78 79  1  0  0  0
 78 81  1  0  0  0
 78155  1  0  0  0
 78156  1  0  0  0
 79 82  1  0  0  0
 79157  1  0  0  0
 79158  1  0  0  0
 80 84  1  0  0  0
 80159  1  0  0  0
 80160  1  0  0  0
 81161  1  0  0  0
 83162  1  0  0  0
 84163  1  0  0  0
M  CHG  1  83   1
M  ISO  4   1 100  68 101  81 101  84 100
M  END
> <chiral flag>
0

> <version>
0

> <s_m_source_file>
/data/baiqing/PycharmProjects/Reinvent-master-3.2/result/LINK_invent/BTK/process_docking_weight1_custom_sum_contain_oxygen_bond_distance_aromatic_linkinvent_7_9_3/rearranged_h_0085.sdf

> <i_m_source_file_index>
45

> <r_mmod_Potential_Energy-OPLS-2005>
-10.951247215271

> <r_mmod_Stretch_Energy-OPLS-2005>
63.3321075439453

> <r_mmod_Bend_Energy-OPLS-2005>
155.04931640625

> <r_mmod_Torsional_Energy-OPLS-2005>
248.111907958984

> <r_mmod_Improper_Torsional_Energy-OPLS-2005>
4.54129076004028

> <r_mmod_Van_der_Waal_Energy-OPLS-2005>
120.019897460938

> <r_mmod_Electrostatic_Energy-OPLS-2005>
-218.163360595703

> <r_mmod_Solvation_Energy-OPLS-2005>
-415.962219238281

> <b_mmod_Minimization_Converged-OPLS-2005>
0

> <r_mmod_RMS_Derivative-OPLS-2005>
6.04400825500488

$$$$
48
                    3D
 Structure written by MMmdl.
158165  0  0  1  0            999 V2000
  -30.4236  -15.1926   20.3895 C   0  0  0  0  0  0
  -30.4409  -12.7597   19.5036 C   0  0  0  0  0  0
  -29.5186  -12.5510   18.2752 C   0  0  0  0  0  0
  -28.0694  -12.2797   18.7162 C   0  0  0  0  0  0
  -27.6115  -13.2579   19.8257 C   0  0  2  0  0  0
  -28.6489  -13.3823   20.9582 C   0  0  0  0  0  0
  -25.2386  -13.8216   20.5718 C   0  0  0  0  0  0
  -24.1724  -13.0429   20.9234 C   0  0  0  0  0  0
  -24.6353  -11.6914   20.8790 C   0  0  0  0  0  0
  -23.9070  -10.4285   21.0430 C   0  0  0  0  0  0
  -24.3629   -9.4199   21.9195 C   0  0  0  0  0  0
  -23.6301   -8.2231   22.0765 C   0  0  0  0  0  0
  -22.4281   -8.0276   21.3561 C   0  0  0  0  0  0
  -21.9919   -9.0246   20.4662 C   0  0  0  0  0  0
  -22.7247  -10.2119   20.3073 C   0  0  0  0  0  0
  -21.6841   -6.0739   22.5272 C   0  0  0  0  0  0
  -21.3999   -6.5648   23.8212 C   0  0  0  0  0  0
  -21.3660   -5.6798   24.9172 C   0  0  0  0  0  0
  -21.6033   -4.3059   24.7212 C   0  0  0  0  0  0
  -21.8824   -3.8159   23.4338 C   0  0  0  0  0  0
  -21.9186   -4.6975   22.3398 C   0  0  0  0  0  0
  -22.7758  -13.5187   21.1885 C   0  0  0  0  0  0
  -22.1663   -4.2169   21.0971 F   0  0  0  0  0  0
  -21.5631   -3.4533   25.7725 F   0  0  0  0  0  0
  -29.8802  -13.8860   20.3329 N   0  0  0  0  0  0
  -26.2799  -12.9444   20.3251 N   0  0  0  0  0  0
  -25.9288  -11.6584   20.5781 N   0  0  0  0  0  0
  -22.0414  -12.8174   22.0447 N   0  0  0  0  0  0
  -25.4031  -15.1944   20.4081 N   0  0  0  0  0  0
  -31.6461  -15.2308   20.1986 O   0  0  0  0  0  0
  -21.6636   -6.8888   21.4241 O   0  0  0  0  0  0
  -22.3436  -14.5477   20.6715 O   0  0  0  0  0  0
  -24.6536  -31.8305   23.1730 C   0  0  0  0  0  0
  -25.9232  -32.4625   23.8187 C   0  0  1  0  0  0
  -27.1967  -26.9623   20.1955 C   0  0  0  0  0  0
  -25.5955  -33.8433   24.2112 N   0  0  0  0  0  0
  -23.4634  -30.4458   21.5221 C   0  0  2  0  0  0
  -24.9109  -28.8298   20.1216 C   0  0  0  0  0  0
  -22.7603  -29.4489   22.4787 C   0  0  0  0  0  0
  -18.0332  -28.1414   22.8500 C   0  0  0  0  0  0
  -24.1457  -36.7172   23.2643 C   0  0  0  0  0  0
  -26.0293  -30.6505   21.3914 C   0  0  0  0  0  0
  -26.0972  -29.2388   20.7474 C   0  0  0  0  0  0
  -27.2376  -28.3268   20.7607 C   0  0  0  0  0  0
  -25.9820  -26.6908   19.5322 C   0  0  0  0  0  0
  -24.8744  -27.5740   19.4977 C   0  0  0  0  0  0
  -23.6998  -29.7577   20.1497 C   0  0  0  0  0  0
  -25.4101  -36.2959   24.0302 C   0  0  1  0  0  0
  -20.5961  -28.3714   23.1215 C   0  0  2  0  0  0
  -20.6814  -26.9408   22.5401 C   0  0  0  0  0  0
  -19.5793  -26.6382   21.5218 C   0  0  0  0  0  0
  -18.1968  -26.7984   22.1618 C   0  0  0  0  0  0
  -19.1599  -28.8889   23.2870 C   0  0  0  0  0  0
  -18.9523  -30.1500   23.8869 C   0  0  0  0  0  0
  -17.6518  -30.6622   24.0567 C   0  0  0  0  0  0
  -25.9080  -34.9369   23.5011 C   0  0  0  0  0  0
  -16.5402  -29.9103   23.6367 C   0  0  0  0  0  0
  -16.7306  -28.6523   23.0385 C   0  0  0  0  0  0
  -26.4553  -31.6532   25.0642 C   0  0  0  0  0  0
  -25.3710  -31.3783   26.1306 C   0  0  0  0  0  0
  -27.0433  -30.2942   24.6230 C   0  0  0  0  0  0
  -27.6079  -32.4296   25.7439 C   0  0  0  0  0  0
  -27.5544  -37.1743   24.8476 C   0  0  0  0  0  0
  -21.4293  -29.3036   22.3573 N   0  0  0  0  0  0
  -26.4242  -37.3698   23.9426 N   0  0  0  0  0  0
  -24.7373  -31.0016   22.0840 N   0  0  0  0  0  0
  -23.4205  -28.8052   23.2988 O   0  0  0  0  0  0
  -28.2222  -25.8991   20.1858 O   0  0  0  0  0  0
  -26.5669  -34.8888   22.4600 O   0  0  0  0  0  0
  -23.5634  -32.1252   23.6873 O   0  0  0  0  0  0
  -30.4901  -19.8921   18.0761 C   0  0  0  0  0  0
  -26.9609  -19.0934   21.8325 C   0  0  0  0  0  0
  -29.0930  -19.4805   18.5694 C   0  0  0  0  0  0
  -27.4130  -19.1040   20.3575 C   0  0  0  0  0  0
  -28.5355  -22.7468   19.9131 C   0  0  0  0  0  0
  -29.0251  -21.1851   20.6274 C   0  0  0  0  0  0
  -29.8280  -18.0503   20.6682 C   0  0  0  0  0  0
  -28.0450  -24.3259   20.5840 C   0  0  0  0  0  0
  -28.9025  -19.4729   20.1063 C   0  0  0  0  0  0
  -29.6117  -16.4201   20.4724 N   0  0  0  0  0  0
  -31.4501  -12.9854   19.1547 H   0  0  0  0  0  0
  -30.5308  -11.8428   20.0918 H   0  0  0  0  0  0
  -29.8812  -11.7308   17.6551 H   0  0  0  0  0  0
  -29.5435  -13.4453   17.6511 H   0  0  0  0  0  0
  -28.0235  -11.2570   19.0944 H   0  0  0  0  0  0
  -27.3915  -12.3193   17.8631 H   0  0  0  0  0  0
  -27.5417  -14.2326   19.3400 H   0  0  0  0  0  0
  -28.8091  -12.4239   21.4559 H   0  0  0  0  0  0
  -28.3069  -14.0807   21.7226 H   0  0  0  0  0  0
  -25.2763   -9.5653   22.4784 H   0  0  0  0  0  0
  -23.9993   -7.4613   22.7483 H   0  0  0  0  0  0
  -21.0856   -8.8768   19.8968 H   0  0  0  0  0  0
  -22.3708  -10.9665   19.6198 H   0  0  0  0  0  0
  -21.1987   -7.6153   23.9716 H   0  0  0  0  0  0
  -21.1474   -6.0528   25.9079 H   0  0  0  0  0  0
  -22.0600   -2.7620   23.2815 H   0  0  0  0  0  0
  -22.4029  -11.9804   22.4764 H   0  0  0  0  0  0
  -21.1065  -13.1230   22.2733 H   0  0  0  0  0  0
  -24.6255  -15.8386   20.4938 H   0  0  0  0  0  0
  -26.2390  -15.6300   20.0406 H   0  0  0  0  0  0
  -26.7252  -32.5191   23.0881 H   0  0  0  0  0  0
  -25.0113  -33.9573   25.0269 H   0  0  0  0  0  0
  -22.7749  -31.2750   21.3532 H   0  0  0  0  0  0
  -23.3739  -35.9476   23.3289 H   0  0  0  0  0  0
  -24.3571  -36.8831   22.2063 H   0  0  0  0  0  0
  -23.7167  -37.6339   23.6710 H   0  0  0  0  0  0
  -26.1916  -31.3839   20.6007 H   0  0  0  0  0  0
  -26.9012  -30.7274   22.0295 H   0  0  0  0  0  0
  -28.1406  -28.6401   21.2691 H   0  0  0  0  0  0
  -25.8700  -25.7305   19.0501 H   0  0  0  0  0  0
  -23.9685  -27.2597   18.9983 H   0  0  0  0  0  0
  -23.8560  -30.5231   19.3905 H   0  0  0  0  0  0
  -22.8089  -29.2134   19.8323 H   0  0  0  0  0  0
  -25.1305  -36.1757   25.0791 H   0  0  0  0  0  0
  -21.0099  -28.3290   24.1324 H   0  0  0  0  0  0
  -20.5692  -26.2319   23.3632 H   0  0  0  0  0  0
  -21.6674  -26.7403   22.1209 H   0  0  0  0  0  0
  -19.6931  -25.6280   21.1259 H   0  0  0  0  0  0
  -19.6732  -27.3210   20.6768 H   0  0  0  0  0  0
  -17.4244  -26.6763   21.4007 H   0  0  0  0  0  0
  -18.0330  -26.0138   22.9016 H   0  0  0  0  0  0
  -19.7994  -30.7368   24.2172 H   0  0  0  0  0  0
  -17.5064  -31.6299   24.5184 H   0  0  0  0  0  0
  -15.5401  -30.3004   23.7711 H   0  0  0  0  0  0
  -15.8724  -28.0850   22.7072 H   0  0  0  0  0  0
  -24.5944  -30.7063   25.7661 H   0  0  0  0  0  0
  -24.8830  -32.2983   26.4528 H   0  0  0  0  0  0
  -25.7972  -30.9132   27.0197 H   0  0  0  0  0  0
  -26.3080  -29.6656   24.1194 H   0  0  0  0  0  0
  -27.4061  -29.7223   25.4777 H   0  0  0  0  0  0
  -27.8979  -30.4235   23.9579 H   0  0  0  0  0  0
  -27.2731  -33.3704   26.1824 H   0  0  0  0  0  0
  -28.4017  -32.6659   25.0337 H   0  0  0  0  0  0
  -28.0570  -31.8486   26.5513 H   0  0  0  0  0  0
  -28.2544  -38.0056   24.7534 H   0  0  0  0  0  0
  -28.1052  -36.2588   24.6285 H   0  0  0  0  0  0
  -27.2294  -37.1364   25.8889 H   0  0  0  0  0  0
  -20.9483  -29.8698   21.6740 H   0  0  0  0  0  0
  -26.0073  -38.2729   24.1514 H   0  0  0  0  0  0
  -30.5173  -19.9109   16.9850 H   0  0  0  0  0  0
  -31.2610  -19.1938   18.4013 H   0  0  0  0  0  0
  -30.7687  -20.8869   18.4244 H   0  0  0  0  0  0
  -26.0055  -18.5772   21.9372 H   0  0  0  0  0  0
  -26.8078  -20.1020   22.2193 H   0  0  0  0  0  0
  -27.6753  -18.5915   22.4834 H   0  0  0  0  0  0
  -28.8695  -18.4893   18.1653 H   0  0  0  0  0  0
  -28.3616  -20.1488   18.1134 H   0  0  0  0  0  0
  -26.7628  -19.7944   19.8146 H   0  0  0  0  0  0
  -27.2129  -18.1229   19.9239 H   0  0  0  0  0  0
  -27.7141  -22.4884   19.2433 H   0  0  0  0  0  0
  -29.3459  -22.9810   19.2218 H   0  0  0  0  0  0
  -28.6002  -21.2137   21.6289 H   0  0  0  0  0  0
  -30.0870  -21.3188   20.8327 H   0  0  0  0  0  0
  -29.8270  -18.1565   21.7544 H   0  0  0  0  0  0
  -30.8703  -18.2242   20.4051 H   0  0  0  0  0  0
  -28.4660  -24.3085   21.5882 H   0  0  0  0  0  0
  -26.9766  -24.2241   20.7788 H   0  0  0  0  0  0
  -28.6368  -16.1717   20.5510 H   0  0  0  0  0  0
  1 25  1  0  0  0
  1 30  2  0  0  0
  1 80  1  0  0  0
  2  3  1  0  0  0
  2 25  1  0  0  0
  2 81  1  0  0  0
  2 82  1  0  0  0
  3  4  1  0  0  0
  3 83  1  0  0  0
  3 84  1  0  0  0
  4  5  1  0  0  0
  4 85  1  0  0  0
  4 86  1  0  0  0
  5  6  1  0  0  0
  5 26  1  0  0  0
  5 87  1  0  0  0
  6 25  1  0  0  0
  6 88  1  0  0  0
  6 89  1  0  0  0
  7  8  2  0  0  0
  7 26  1  0  0  0
  7 29  1  0  0  0
  8  9  1  0  0  0
  8 22  1  0  0  0
  9 10  1  0  0  0
  9 27  2  0  0  0
 10 11  2  0  0  0
 10 15  1  0  0  0
 11 12  1  0  0  0
 11 90  1  0  0  0
 12 13  2  0  0  0
 12 91  1  0  0  0
 13 14  1  0  0  0
 13 31  1  0  0  0
 14 15  2  0  0  0
 14 92  1  0  0  0
 15 93  1  0  0  0
 16 17  2  0  0  0
 16 21  1  0  0  0
 16 31  1  0  0  0
 17 18  1  0  0  0
 17 94  1  0  0  0
 18 19  2  0  0  0
 18 95  1  0  0  0
 19 20  1  0  0  0
 19 24  1  0  0  0
 20 21  2  0  0  0
 20 96  1  0  0  0
 21 23  1  0  0  0
 22 28  1  0  0  0
 22 32  2  0  0  0
 26 27  1  0  0  0
 28 97  1  0  0  0
 28 98  1  0  0  0
 29 99  1  0  0  0
 29100  1  0  0  0
 33 34  1  0  0  0
 33 66  1  0  0  0
 33 70  2  0  0  0
 34 36  1  0  0  0
 34 59  1  0  0  0
 34101  1  0  0  0
 35 44  2  0  0  0
 35 45  1  0  0  0
 35 68  1  0  0  0
 36 56  1  0  0  0
 36102  1  0  0  0
 37 39  1  0  0  0
 37 47  1  0  0  0
 37 66  1  0  0  0
 37103  1  0  0  0
 38 43  2  0  0  0
 38 46  1  0  0  0
 38 47  1  0  0  0
 39 64  1  0  0  0
 39 67  2  0  0  0
 40 52  1  0  0  0
 40 53  2  0  0  0
 40 58  1  0  0  0
 41104  1  0  0  0
 41105  1  0  0  0
 41106  1  0  0  0
 41 48  1  0  0  0
 42 43  1  0  0  0
 42 66  1  0  0  0
 42107  1  0  0  0
 42108  1  0  0  0
 43 44  1  0  0  0
 44109  1  0  0  0
 45 46  2  0  0  0
 45110  1  0  0  0
 46111  1  0  0  0
 47112  1  0  0  0
 47113  1  0  0  0
 48 56  1  0  0  0
 48 65  1  0  0  0
 48114  1  0  0  0
 49 50  1  0  0  0
 49 53  1  0  0  0
 49 64  1  0  0  0
 49115  1  0  0  0
 50 51  1  0  0  0
 50116  1  0  0  0
 50117  1  0  0  0
 51 52  1  0  0  0
 51118  1  0  0  0
 51119  1  0  0  0
 52120  1  0  0  0
 52121  1  0  0  0
 53 54  1  0  0  0
 54 55  2  0  0  0
 54122  1  0  0  0
 55 57  1  0  0  0
 55123  1  0  0  0
 56 69  2  0  0  0
 57 58  2  0  0  0
 57124  1  0  0  0
 58125  1  0  0  0
 59 60  1  0  0  0
 59 61  1  0  0  0
 59 62  1  0  0  0
 60126  1  0  0  0
 60127  1  0  0  0
 60128  1  0  0  0
 61129  1  0  0  0
 61130  1  0  0  0
 61131  1  0  0  0
 62132  1  0  0  0
 62133  1  0  0  0
 62134  1  0  0  0
 63 65  1  0  0  0
 63135  1  0  0  0
 63136  1  0  0  0
 63137  1  0  0  0
 64138  1  0  0  0
 65139  1  0  0  0
 68 78  1  0  0  0
 71 73  1  0  0  0
 71140  1  0  0  0
 71141  1  0  0  0
 71142  1  0  0  0
 72 74  1  0  0  0
 72143  1  0  0  0
 72144  1  0  0  0
 72145  1  0  0  0
 73146  1  0  0  0
 73147  1  0  0  0
 73 79  1  0  0  0
 74 79  1  0  0  0
 74148  1  0  0  0
 74149  1  0  0  0
 75 76  1  0  0  0
 75 78  1  0  0  0
 75150  1  0  0  0
 75151  1  0  0  0
 76 79  1  0  0  0
 76152  1  0  0  0
 76153  1  0  0  0
 77 79  1  0  0  0
 77 80  1  0  0  0
 77154  1  0  0  0
 77155  1  0  0  0
 78156  1  0  0  0
 78157  1  0  0  0
 80158  1  0  0  0
M  ISO  4   1 100  68 101  78 101  80 100
M  END
> <chiral flag>
0

> <version>
0

> <s_m_source_file>
/data/baiqing/PycharmProjects/Reinvent-master-3.2/result/LINK_invent/BTK/process_docking_weight1_custom_sum_contain_oxygen_bond_distance_aromatic_linkinvent_7_9_3/rearranged_h_0085.sdf

> <i_m_source_file_index>
46

> <r_mmod_Potential_Energy-OPLS-2005>
1169.22912597656

> <r_mmod_Stretch_Energy-OPLS-2005>
563.908386230469

> <r_mmod_Bend_Energy-OPLS-2005>
430.013763427734

> <r_mmod_Torsional_Energy-OPLS-2005>
266.558776855469

> <r_mmod_Improper_Torsional_Energy-OPLS-2005>
4.01588010787964

> <r_mmod_Van_der_Waal_Energy-OPLS-2005>
104.920021057129

> <r_mmod_Electrostatic_Energy-OPLS-2005>
-394.061553955078

> <r_mmod_Solvation_Energy-OPLS-2005>
-196.868927001953

> <b_mmod_Minimization_Converged-OPLS-2005>
0

> <r_mmod_RMS_Derivative-OPLS-2005>
4.31149435043335

$$$$
49
                    3D
 Structure written by MMmdl.
159167  0  0  1  0            999 V2000
  -30.6324  -14.5840   20.5403 C   0  0  0  0  0  0
  -30.4374  -12.3718   19.4319 C   0  0  0  0  0  0
  -29.5033  -12.5185   18.2109 C   0  0  0  0  0  0
  -28.0249  -12.3557   18.6222 C   0  0  0  0  0  0
  -27.6548  -13.2082   19.8656 C   0  0  2  0  0  0
  -28.6994  -13.0263   20.9894 C   0  0  0  0  0  0
  -25.2563  -13.8150   20.5659 C   0  0  0  0  0  0
  -24.1824  -13.0428   20.9176 C   0  0  0  0  0  0
  -24.6379  -11.6897   20.8729 C   0  0  0  0  0  0
  -23.9047  -10.4288   21.0399 C   0  0  0  0  0  0
  -24.3606   -9.4208   21.9176 C   0  0  0  0  0  0
  -23.6287   -8.2242   22.0750 C   0  0  0  0  0  0
  -22.4270   -8.0275   21.3545 C   0  0  0  0  0  0
  -21.9901   -9.0242   20.4642 C   0  0  0  0  0  0
  -22.7220  -10.2128   20.3048 C   0  0  0  0  0  0
  -21.6851   -6.0732   22.5279 C   0  0  0  0  0  0
  -21.4009   -6.5637   23.8212 C   0  0  0  0  0  0
  -21.3663   -5.6790   24.9175 C   0  0  0  0  0  0
  -21.6049   -4.3052   24.7226 C   0  0  0  0  0  0
  -21.8817   -3.8145   23.4345 C   0  0  0  0  0  0
  -21.9193   -4.6961   22.3402 C   0  0  0  0  0  0
  -22.7851  -13.5234   21.1840 C   0  0  0  0  0  0
  -22.1659   -4.2146   21.0977 F   0  0  0  0  0  0
  -21.5633   -3.4537   25.7741 F   0  0  0  0  0  0
  -30.0165  -13.3702   20.4292 N   0  0  0  0  0  0
  -26.2988  -12.9314   20.3315 N   0  0  0  0  0  0
  -25.9306  -11.6479   20.5744 N   0  0  0  0  0  0
  -22.0485  -12.8244   22.0403 N   0  0  0  0  0  0
  -25.4285  -15.1870   20.4066 N   0  0  0  0  0  0
  -31.7912  -14.7746   20.1616 O   0  0  0  0  0  0
  -21.6637   -6.8872   21.4242 O   0  0  0  0  0  0
  -22.3548  -14.5545   20.6689 O   0  0  0  0  0  0
  -24.6249  -31.8630   23.2071 C   0  0  0  0  0  0
  -25.9108  -32.4801   23.8388 C   0  0  1  0  0  0
  -27.2213  -27.3480   20.0896 C   0  0  0  0  0  0
  -25.5930  -33.8603   24.2300 N   0  0  0  0  0  0
  -23.4145  -30.4914   21.5506 C   0  0  2  0  0  0
  -24.8558  -28.9544   20.1130 C   0  0  0  0  0  0
  -22.7457  -29.4644   22.4960 C   0  0  0  0  0  0
  -18.0282  -28.1376   22.8481 C   0  0  0  0  0  0
  -24.1477  -36.7308   23.2638 C   0  0  0  0  0  0
  -25.9560  -30.8003   21.3756 C   0  0  0  0  0  0
  -26.0264  -29.4313   20.7153 C   0  0  0  0  0  0
  -27.2087  -28.6373   20.7001 C   0  0  0  0  0  0
  -26.0156  -26.9173   19.4809 C   0  0  0  0  0  0
  -24.8510  -27.7000   19.4920 C   0  0  0  0  0  0
  -23.6248  -29.8320   20.1641 C   0  0  0  0  0  0
  -25.4101  -36.3097   24.0325 C   0  0  1  0  0  0
  -20.5878  -28.3672   23.1289 C   0  0  2  0  0  0
  -20.6770  -26.9399   22.5400 C   0  0  0  0  0  0
  -19.5742  -26.6380   21.5204 C   0  0  0  0  0  0
  -18.1924  -26.7920   22.1617 C   0  0  0  0  0  0
  -19.1535  -28.8840   23.2880 C   0  0  0  0  0  0
  -18.9457  -30.1443   23.8893 C   0  0  0  0  0  0
  -17.6459  -30.6579   24.0556 C   0  0  0  0  0  0
  -25.9038  -34.9464   23.5102 C   0  0  0  0  0  0
  -16.5349  -29.9072   23.6335 C   0  0  0  0  0  0
  -16.7271  -28.6489   23.0357 C   0  0  0  0  0  0
  -26.4489  -31.6622   25.0762 C   0  0  0  0  0  0
  -25.3729  -31.3767   26.1498 C   0  0  0  0  0  0
  -27.0332  -30.3050   24.6216 C   0  0  0  0  0  0
  -27.6043  -32.4368   25.7534 C   0  0  0  0  0  0
  -27.5567  -37.1808   24.8459 C   0  0  0  0  0  0
  -21.4172  -29.3042   22.3700 N   0  0  0  0  0  0
  -26.4272  -37.3794   23.9411 N   0  0  0  0  0  0
  -24.6842  -31.0674   22.1008 N   0  0  0  0  0  0
  -23.4197  -28.8168   23.3010 O   0  0  0  0  0  0
  -28.3661  -26.5358   20.1165 O   0  0  0  0  0  0
  -26.5600  -34.8922   22.4667 O   0  0  0  0  0  0
  -23.5416  -32.1412   23.7413 O   0  0  0  0  0  0
  -29.8808  -20.7173   20.4665 C   0  0  0  0  0  0
  -27.7822  -20.9942   20.9100 C   0  0  0  0  0  0
  -29.2519  -19.4707   20.4074 C   0  0  0  0  0  0
  -30.9004  -18.1201   19.0182 C   0  0  0  0  0  0
  -28.4863  -25.4103   17.9822 C   0  0  0  0  0  0
  -29.4215  -24.1528   19.9708 C   0  0  0  0  0  0
  -29.0710  -23.1462   21.1239 C   0  0  0  0  0  0
  -30.0770  -17.0542   21.1860 C   0  0  0  0  0  0
  -29.7339  -18.0495   20.0121 C   0  0  1  0  0  0
  -28.3337  -25.1978   19.5032 C   0  0  1  0  0  0
  -27.9027  -19.6837   20.6946 N   0  0  0  0  0  0
  -28.9202  -21.6965   20.8044 N   0  0  0  0  0  0
  -29.8232  -15.6008   20.9365 N   0  0  0  0  0  0
  -31.4779  -12.5045   19.1304 H   0  0  0  0  0  0
  -30.3700  -11.3668   19.8510 H   0  0  0  0  0  0
  -29.7637  -11.7874   17.4448 H   0  0  0  0  0  0
  -29.6481  -13.5000   17.7552 H   0  0  0  0  0  0
  -27.8541  -11.2994   18.8334 H   0  0  0  0  0  0
  -27.3716  -12.6073   17.7858 H   0  0  0  0  0  0
  -27.6822  -14.2497   19.5446 H   0  0  0  0  0  0
  -28.7035  -11.9942   21.3437 H   0  0  0  0  0  0
  -28.4482  -13.6333   21.8610 H   0  0  0  0  0  0
  -25.2749   -9.5694   22.4750 H   0  0  0  0  0  0
  -23.9999   -7.4638   22.7472 H   0  0  0  0  0  0
  -21.0832   -8.8756   19.8952 H   0  0  0  0  0  0
  -22.3667  -10.9665   19.6160 H   0  0  0  0  0  0
  -21.1999   -7.6144   23.9718 H   0  0  0  0  0  0
  -21.1488   -6.0516   25.9078 H   0  0  0  0  0  0
  -22.0597   -2.7607   23.2846 H   0  0  0  0  0  0
  -22.4088  -11.9905   22.4801 H   0  0  0  0  0  0
  -21.1103  -13.1282   22.2590 H   0  0  0  0  0  0
  -24.6606  -15.8416   20.5087 H   0  0  0  0  0  0
  -26.2794  -15.6285   20.0820 H   0  0  0  0  0  0
  -26.7175  -32.5461   23.1135 H   0  0  0  0  0  0
  -25.0115  -33.9764   25.0468 H   0  0  0  0  0  0
  -22.7077  -31.3121   21.4118 H   0  0  0  0  0  0
  -23.3732  -35.9650   23.3305 H   0  0  0  0  0  0
  -24.3568  -36.8927   22.2052 H   0  0  0  0  0  0
  -23.7233  -37.6511   23.6659 H   0  0  0  0  0  0
  -26.0868  -31.5647   20.6085 H   0  0  0  0  0  0
  -26.8378  -30.8449   22.0038 H   0  0  0  0  0  0
  -28.1085  -29.0022   21.1739 H   0  0  0  0  0  0
  -25.9253  -25.9678   18.9792 H   0  0  0  0  0  0
  -23.9537  -27.3274   19.0177 H   0  0  0  0  0  0
  -23.7391  -30.6092   19.4075 H   0  0  0  0  0  0
  -22.7449  -29.2599   19.8644 H   0  0  0  0  0  0
  -25.1280  -36.1950   25.0815 H   0  0  0  0  0  0
  -20.9967  -28.3225   24.1410 H   0  0  0  0  0  0
  -20.5663  -26.2271   23.3588 H   0  0  0  0  0  0
  -21.6638  -26.7425   22.1192 H   0  0  0  0  0  0
  -19.6896  -25.6292   21.1226 H   0  0  0  0  0  0
  -19.6684  -27.3197   20.6738 H   0  0  0  0  0  0
  -17.4194  -26.6673   21.4020 H   0  0  0  0  0  0
  -18.0312  -26.0067   22.9013 H   0  0  0  0  0  0
  -19.7938  -30.7259   24.2258 H   0  0  0  0  0  0
  -17.5019  -31.6262   24.5148 H   0  0  0  0  0  0
  -15.5349  -30.2970   23.7672 H   0  0  0  0  0  0
  -15.8667  -28.0805   22.7082 H   0  0  0  0  0  0
  -24.5888  -30.7125   25.7839 H   0  0  0  0  0  0
  -24.8940  -32.2940   26.4937 H   0  0  0  0  0  0
  -25.8061  -30.8940   27.0268 H   0  0  0  0  0  0
  -26.2913  -29.6818   24.1206 H   0  0  0  0  0  0
  -27.3996  -29.7293   25.4728 H   0  0  0  0  0  0
  -27.8792  -30.4344   23.9461 H   0  0  0  0  0  0
  -27.2644  -33.3664   26.2112 H   0  0  0  0  0  0
  -28.3854  -32.6950   25.0371 H   0  0  0  0  0  0
  -28.0713  -31.8504   26.5457 H   0  0  0  0  0  0
  -28.2581  -38.0111   24.7520 H   0  0  0  0  0  0
  -28.1064  -36.2643   24.6258 H   0  0  0  0  0  0
  -27.2291  -37.1430   25.8863 H   0  0  0  0  0  0
  -20.9335  -29.8786   21.6943 H   0  0  0  0  0  0
  -26.0150  -38.2858   24.1448 H   0  0  0  0  0  0
  -30.9176  -20.9812   20.3068 H   0  0  0  0  0  0
  -26.8407  -21.4507   21.1846 H   0  0  0  0  0  0
  -30.6314  -18.7009   18.1359 H   0  0  0  0  0  0
  -31.1924  -17.1253   18.6820 H   0  0  0  0  0  0
  -31.7756  -18.5869   19.4709 H   0  0  0  0  0  0
  -28.3676  -24.4727   17.4382 H   0  0  0  0  0  0
  -29.4722  -25.8086   17.7426 H   0  0  0  0  0  0
  -27.7535  -26.1050   17.5747 H   0  0  0  0  0  0
  -29.7343  -23.5493   19.1179 H   0  0  0  0  0  0
  -30.3171  -24.7088   20.2489 H   0  0  0  0  0  0
  -28.1668  -23.4823   21.6331 H   0  0  0  0  0  0
  -29.8540  -23.2136   21.8798 H   0  0  0  0  0  0
  -29.4393  -17.3108   22.0329 H   0  0  0  0  0  0
  -31.0978  -17.2088   21.5380 H   0  0  0  0  0  0
  -28.9077  -17.5895   19.4670 H   0  0  0  0  0  0
  -27.3816  -24.7097   19.7055 H   0  0  0  0  0  0
  -28.8846  -15.3008   21.1539 H   0  0  0  0  0  0
  1 25  1  0  0  0
  1 30  2  0  0  0
  1 83  1  0  0  0
  2  3  1  0  0  0
  2 25  1  0  0  0
  2 84  1  0  0  0
  2 85  1  0  0  0
  3  4  1  0  0  0
  3 86  1  0  0  0
  3 87  1  0  0  0
  4  5  1  0  0  0
  4 88  1  0  0  0
  4 89  1  0  0  0
  5  6  1  0  0  0
  5 26  1  0  0  0
  5 90  1  0  0  0
  6 25  1  0  0  0
  6 91  1  0  0  0
  6 92  1  0  0  0
  7  8  2  0  0  0
  7 26  1  0  0  0
  7 29  1  0  0  0
  8  9  1  0  0  0
  8 22  1  0  0  0
  9 10  1  0  0  0
  9 27  2  0  0  0
 10 11  2  0  0  0
 10 15  1  0  0  0
 11 12  1  0  0  0
 11 93  1  0  0  0
 12 13  2  0  0  0
 12 94  1  0  0  0
 13 14  1  0  0  0
 13 31  1  0  0  0
 14 15  2  0  0  0
 14 95  1  0  0  0
 15 96  1  0  0  0
 16 17  2  0  0  0
 16 21  1  0  0  0
 16 31  1  0  0  0
 17 18  1  0  0  0
 17 97  1  0  0  0
 18 19  2  0  0  0
 18 98  1  0  0  0
 19 20  1  0  0  0
 19 24  1  0  0  0
 20 21  2  0  0  0
 20 99  1  0  0  0
 21 23  1  0  0  0
 22 28  1  0  0  0
 22 32  2  0  0  0
 26 27  1  0  0  0
 28100  1  0  0  0
 28101  1  0  0  0
 29102  1  0  0  0
 29103  1  0  0  0
 33 34  1  0  0  0
 33 66  1  0  0  0
 33 70  2  0  0  0
 34 36  1  0  0  0
 34 59  1  0  0  0
 34104  1  0  0  0
 35 44  2  0  0  0
 35 45  1  0  0  0
 35 68  1  0  0  0
 36 56  1  0  0  0
 36105  1  0  0  0
 37 39  1  0  0  0
 37 47  1  0  0  0
 37 66  1  0  0  0
 37106  1  0  0  0
 38 43  2  0  0  0
 38 46  1  0  0  0
 38 47  1  0  0  0
 39 64  1  0  0  0
 39 67  2  0  0  0
 40 52  1  0  0  0
 40 53  2  0  0  0
 40 58  1  0  0  0
 41107  1  0  0  0
 41108  1  0  0  0
 41109  1  0  0  0
 41 48  1  0  0  0
 42 43  1  0  0  0
 42 66  1  0  0  0
 42110  1  0  0  0
 42111  1  0  0  0
 43 44  1  0  0  0
 44112  1  0  0  0
 45 46  2  0  0  0
 45113  1  0  0  0
 46114  1  0  0  0
 47115  1  0  0  0
 47116  1  0  0  0
 48 56  1  0  0  0
 48 65  1  0  0  0
 48117  1  0  0  0
 49 50  1  0  0  0
 49 53  1  0  0  0
 49 64  1  0  0  0
 49118  1  0  0  0
 50 51  1  0  0  0
 50119  1  0  0  0
 50120  1  0  0  0
 51 52  1  0  0  0
 51121  1  0  0  0
 51122  1  0  0  0
 52123  1  0  0  0
 52124  1  0  0  0
 53 54  1  0  0  0
 54 55  2  0  0  0
 54125  1  0  0  0
 55 57  1  0  0  0
 55126  1  0  0  0
 56 69  2  0  0  0
 57 58  2  0  0  0
 57127  1  0  0  0
 58128  1  0  0  0
 59 60  1  0  0  0
 59 61  1  0  0  0
 59 62  1  0  0  0
 60129  1  0  0  0
 60130  1  0  0  0
 60131  1  0  0  0
 61132  1  0  0  0
 61133  1  0  0  0
 61134  1  0  0  0
 62135  1  0  0  0
 62136  1  0  0  0
 62137  1  0  0  0
 63 65  1  0  0  0
 63138  1  0  0  0
 63139  1  0  0  0
 63140  1  0  0  0
 64141  1  0  0  0
 65142  1  0  0  0
 68 80  1  0  0  0
 71 73  2  0  0  0
 71 82  1  0  0  0
 71143  1  0  0  0
 72 81  2  0  0  0
 72 82  1  0  0  0
 72144  1  0  0  0
 73 79  1  0  0  0
 73 81  1  0  0  0
 74145  1  0  0  0
 74146  1  0  0  0
 74147  1  0  0  0
 74 79  1  0  0  0
 75148  1  0  0  0
 75149  1  0  0  0
 75150  1  0  0  0
 75 80  1  0  0  0
 76 77  1  0  0  0
 76 80  1  0  0  0
 76151  1  0  0  0
 76152  1  0  0  0
 77 82  1  0  0  0
 77153  1  0  0  0
 77154  1  0  0  0
 78 79  1  0  0  0
 78 83  1  0  0  0
 78155  1  0  0  0
 78156  1  0  0  0
 79157  1  0  0  0
 80158  1  0  0  0
 83159  1  0  0  0
M  ISO  4   1 100  68 101  80 101  83 100
M  END
> <chiral flag>
0

> <version>
0

> <s_m_source_file>
/data/baiqing/PycharmProjects/Reinvent-master-3.2/result/LINK_invent/BTK/process_docking_weight1_custom_sum_contain_oxygen_bond_distance_aromatic_linkinvent_7_9_3/rearranged_h_0085.sdf

> <i_m_source_file_index>
47

> <r_mmod_Potential_Energy-OPLS-2005>
-34.6079902648926

> <r_mmod_Stretch_Energy-OPLS-2005>
63.298526763916

> <r_mmod_Bend_Energy-OPLS-2005>
142.309234619141

> <r_mmod_Torsional_Energy-OPLS-2005>
224.995620727539

> <r_mmod_Improper_Torsional_Energy-OPLS-2005>
4.37636137008667

> <r_mmod_Van_der_Waal_Energy-OPLS-2005>
125.836059570312

> <r_mmod_Electrostatic_Energy-OPLS-2005>
-412.535186767578

> <r_mmod_Solvation_Energy-OPLS-2005>
-217.258575439453

> <b_mmod_Minimization_Converged-OPLS-2005>
0

> <r_mmod_RMS_Derivative-OPLS-2005>
1.24409127235413

$$$$
50
                    3D
 Structure written by MMmdl.
157165  0  0  1  0            999 V2000
  -30.6714  -14.5074   20.5282 C   0  0  0  0  0  0
  -30.4259  -12.3173   19.4279 C   0  0  0  0  0  0
  -29.5024  -12.5197   18.2047 C   0  0  0  0  0  0
  -28.0174  -12.3840   18.6099 C   0  0  0  0  0  0
  -27.6566  -13.2106   19.8721 C   0  0  2  0  0  0
  -28.6999  -12.9933   20.9920 C   0  0  0  0  0  0
  -25.2584  -13.8120   20.5717 C   0  0  0  0  0  0
  -24.1843  -13.0407   20.9195 C   0  0  0  0  0  0
  -24.6376  -11.6858   20.8692 C   0  0  0  0  0  0
  -23.9021  -10.4255   21.0370 C   0  0  0  0  0  0
  -24.3570   -9.4177   21.9170 C   0  0  0  0  0  0
  -23.6255   -8.2211   22.0757 C   0  0  0  0  0  0
  -22.4244   -8.0246   21.3532 C   0  0  0  0  0  0
  -21.9845   -9.0214   20.4633 C   0  0  0  0  0  0
  -22.7164  -10.2098   20.3049 C   0  0  0  0  0  0
  -21.6840   -6.0713   22.5275 C   0  0  0  0  0  0
  -21.4005   -6.5627   23.8211 C   0  0  0  0  0  0
  -21.3666   -5.6787   24.9169 C   0  0  0  0  0  0
  -21.6050   -4.3049   24.7232 C   0  0  0  0  0  0
  -21.8823   -3.8132   23.4353 C   0  0  0  0  0  0
  -21.9200   -4.6942   22.3407 C   0  0  0  0  0  0
  -22.7866  -13.5191   21.1916 C   0  0  0  0  0  0
  -22.1684   -4.2121   21.0984 F   0  0  0  0  0  0
  -21.5610   -3.4553   25.7756 F   0  0  0  0  0  0
  -30.0289  -13.3094   20.4411 N   0  0  0  0  0  0
  -26.2996  -12.9293   20.3325 N   0  0  0  0  0  0
  -25.9303  -11.6434   20.5691 N   0  0  0  0  0  0
  -22.0471  -12.8198   22.0444 N   0  0  0  0  0  0
  -25.4359  -15.1851   20.4190 N   0  0  0  0  0  0
  -31.8204  -14.6753   20.1099 O   0  0  0  0  0  0
  -21.6616   -6.8845   21.4239 O   0  0  0  0  0  0
  -22.3570  -14.5526   20.6812 O   0  0  0  0  0  0
  -24.6155  -31.8672   23.2014 C   0  0  0  0  0  0
  -25.9034  -32.4826   23.8328 C   0  0  1  0  0  0
  -27.2410  -27.4146   20.1118 C   0  0  0  0  0  0
  -25.5877  -33.8604   24.2306 N   0  0  0  0  0  0
  -23.4032  -30.4873   21.5402 C   0  0  2  0  0  0
  -24.8536  -28.9443   20.1152 C   0  0  0  0  0  0
  -22.7395  -29.4651   22.4917 C   0  0  0  0  0  0
  -18.0277  -28.1388   22.8484 C   0  0  0  0  0  0
  -24.1480  -36.7309   23.2631 C   0  0  0  0  0  0
  -25.9286  -30.8368   21.3447 C   0  0  0  0  0  0
  -26.0131  -29.4616   20.7056 C   0  0  0  0  0  0
  -27.2119  -28.7070   20.6928 C   0  0  0  0  0  0
  -26.0642  -26.9148   19.5193 C   0  0  0  0  0  0
  -24.8757  -27.6717   19.5163 C   0  0  0  0  0  0
  -23.6145  -29.8116   20.1568 C   0  0  0  0  0  0
  -25.4094  -36.3123   24.0359 C   0  0  1  0  0  0
  -20.5876  -28.3677   23.1324 C   0  0  2  0  0  0
  -20.6774  -26.9415   22.5415 C   0  0  0  0  0  0
  -19.5746  -26.6408   21.5209 C   0  0  0  0  0  0
  -18.1926  -26.7933   22.1623 C   0  0  0  0  0  0
  -19.1524  -28.8841   23.2920 C   0  0  0  0  0  0
  -18.9446  -30.1451   23.8930 C   0  0  0  0  0  0
  -17.6452  -30.6595   24.0569 C   0  0  0  0  0  0
  -25.9010  -34.9485   23.5135 C   0  0  0  0  0  0
  -16.5348  -29.9098   23.6310 C   0  0  0  0  0  0
  -16.7271  -28.6513   23.0336 C   0  0  0  0  0  0
  -26.4470  -31.6564   25.0629 C   0  0  0  0  0  0
  -25.3728  -31.3688   26.1367 C   0  0  0  0  0  0
  -27.0234  -30.2986   24.5955 C   0  0  0  0  0  0
  -27.6063  -32.4213   25.7411 C   0  0  0  0  0  0
  -27.5589  -37.1807   24.8461 C   0  0  0  0  0  0
  -21.4111  -29.3064   22.3695 N   0  0  0  0  0  0
  -26.4287  -37.3811   23.9413 N   0  0  0  0  0  0
  -24.6685  -31.0786   22.0877 N   0  0  0  0  0  0
  -23.4170  -28.8215   23.2983 O   0  0  0  0  0  0
  -28.4141  -26.6841   20.0992 O   0  0  0  0  0  0
  -26.5568  -34.8959   22.4700 O   0  0  0  0  0  0
  -23.5349  -32.1386   23.7451 O   0  0  0  0  0  0
  -28.5992  -21.6677   19.7251 C   0  0  0  0  0  0
  -29.2417  -22.9371   19.6852 C   0  0  0  0  0  0
  -29.3939  -20.4933   19.8646 C   0  0  0  0  0  0
  -30.6558  -22.9119   19.8040 C   0  0  0  0  0  0
  -31.5125  -24.1605   19.6734 C   0  0  0  0  0  0
  -28.4684  -24.2482   19.3822 C   0  0  0  0  0  0
  -28.8259  -19.0778   19.6330 C   0  0  0  0  0  0
  -29.0270  -17.9777   20.7290 C   0  0  0  0  0  0
  -30.1945  -16.9655   20.4768 C   0  0  0  0  0  0
  -28.3723  -25.3014   20.5292 C   0  0  0  0  0  0
  -30.7387  -20.5729   20.0085 N   0  0  0  0  0  0
  -31.3520  -21.7605   19.9940 N   0  0  0  0  0  0
  -29.9010  -15.5672   20.8660 N   0  0  0  0  0  0
  -31.4729  -12.4137   19.1353 H   0  0  0  0  0  0
  -30.3179  -11.3050   19.8260 H   0  0  0  0  0  0
  -29.7406  -11.8002   17.4217 H   0  0  0  0  0  0
  -29.6780  -13.5044   17.7689 H   0  0  0  0  0  0
  -27.8206  -11.3265   18.7895 H   0  0  0  0  0  0
  -27.3719  -12.6722   17.7810 H   0  0  0  0  0  0
  -27.6909  -14.2592   19.5798 H   0  0  0  0  0  0
  -28.6783  -11.9530   21.3212 H   0  0  0  0  0  0
  -28.4632  -13.5888   21.8747 H   0  0  0  0  0  0
  -25.2708   -9.5672   22.4749 H   0  0  0  0  0  0
  -23.9980   -7.4587   22.7452 H   0  0  0  0  0  0
  -21.0795   -8.8697   19.8925 H   0  0  0  0  0  0
  -22.3597  -10.9648   19.6169 H   0  0  0  0  0  0
  -21.2011   -7.6128   23.9725 H   0  0  0  0  0  0
  -21.1501   -6.0499   25.9071 H   0  0  0  0  0  0
  -22.0615   -2.7598   23.2850 H   0  0  0  0  0  0
  -22.4025  -11.9854   22.4879 H   0  0  0  0  0  0
  -21.1110  -13.1282   22.2663 H   0  0  0  0  0  0
  -24.6673  -15.8400   20.5201 H   0  0  0  0  0  0
  -26.2899  -15.6193   20.0942 H   0  0  0  0  0  0
  -26.7093  -32.5582   23.1092 H   0  0  0  0  0  0
  -25.0108  -33.9723   25.0513 H   0  0  0  0  0  0
  -22.6932  -31.3035   21.3967 H   0  0  0  0  0  0
  -23.3759  -35.9625   23.3287 H   0  0  0  0  0  0
  -24.3604  -36.8901   22.2044 H   0  0  0  0  0  0
  -23.7199  -37.6520   23.6606 H   0  0  0  0  0  0
  -26.0226  -31.6009   20.5704 H   0  0  0  0  0  0
  -26.8191  -30.9119   21.9560 H   0  0  0  0  0  0
  -28.1088  -29.1080   21.1462 H   0  0  0  0  0  0
  -26.0635  -25.9455   19.0446 H   0  0  0  0  0  0
  -23.9875  -27.2713   19.0478 H   0  0  0  0  0  0
  -23.7188  -30.5774   19.3870 H   0  0  0  0  0  0
  -22.7387  -29.2280   19.8695 H   0  0  0  0  0  0
  -25.1285  -36.1992   25.0862 H   0  0  0  0  0  0
  -20.9999  -28.3253   24.1438 H   0  0  0  0  0  0
  -20.5670  -26.2284   23.3608 H   0  0  0  0  0  0
  -21.6647  -26.7458   22.1221 H   0  0  0  0  0  0
  -19.6903  -25.6324   21.1225 H   0  0  0  0  0  0
  -19.6686  -27.3216   20.6741 H   0  0  0  0  0  0
  -17.4202  -26.6676   21.4030 H   0  0  0  0  0  0
  -18.0336  -26.0088   22.9036 H   0  0  0  0  0  0
  -19.7925  -30.7254   24.2306 H   0  0  0  0  0  0
  -17.5011  -31.6264   24.5182 H   0  0  0  0  0  0
  -15.5344  -30.3022   23.7600 H   0  0  0  0  0  0
  -15.8676  -28.0848   22.7029 H   0  0  0  0  0  0
  -24.5943  -30.6982   25.7711 H   0  0  0  0  0  0
  -24.8891  -32.2861   26.4728 H   0  0  0  0  0  0
  -25.8104  -30.8937   27.0150 H   0  0  0  0  0  0
  -26.2749  -29.6813   24.0964 H   0  0  0  0  0  0
  -27.3941  -29.7158   25.4394 H   0  0  0  0  0  0
  -27.8621  -30.4279   23.9104 H   0  0  0  0  0  0
  -27.2714  -33.3515   26.2005 H   0  0  0  0  0  0
  -28.3900  -32.6712   25.0245 H   0  0  0  0  0  0
  -28.0669  -31.8277   26.5322 H   0  0  0  0  0  0
  -28.2615  -38.0108   24.7576 H   0  0  0  0  0  0
  -28.1097  -36.2659   24.6215 H   0  0  0  0  0  0
  -27.2330  -37.1368   25.8872 H   0  0  0  0  0  0
  -20.9214  -29.8810   21.6964 H   0  0  0  0  0  0
  -26.0197  -38.2902   24.1427 H   0  0  0  0  0  0
  -27.5329  -21.5885   19.5689 H   0  0  0  0  0  0
  -31.2483  -24.7380   18.7875 H   0  0  0  0  0  0
  -32.5697  -23.9022   19.5849 H   0  0  0  0  0  0
  -31.3987  -24.8057   20.5421 H   0  0  0  0  0  0
  -27.4620  -24.0017   19.0418 H   0  0  0  0  0  0
  -28.9528  -24.7137   18.5240 H   0  0  0  0  0  0
  -29.2162  -18.7132   18.6821 H   0  0  0  0  0  0
  -27.7536  -19.1863   19.4677 H   0  0  0  0  0  0
  -28.0989  -17.4056   20.7428 H   0  0  0  0  0  0
  -29.0904  -18.4267   21.7205 H   0  0  0  0  0  0
  -30.4295  -16.9447   19.4107 H   0  0  0  0  0  0
  -31.1052  -17.3039   20.9742 H   0  0  0  0  0  0
  -29.2340  -25.1848   21.1849 H   0  0  0  0  0  0
  -27.5125  -25.0989   21.1688 H   0  0  0  0  0  0
  -28.9687  -15.3613   21.1928 H   0  0  0  0  0  0
  1 25  1  0  0  0
  1 30  2  0  0  0
  1 83  1  0  0  0
  2  3  1  0  0  0
  2 25  1  0  0  0
  2 84  1  0  0  0
  2 85  1  0  0  0
  3  4  1  0  0  0
  3 86  1  0  0  0
  3 87  1  0  0  0
  4  5  1  0  0  0
  4 88  1  0  0  0
  4 89  1  0  0  0
  5  6  1  0  0  0
  5 26  1  0  0  0
  5 90  1  0  0  0
  6 25  1  0  0  0
  6 91  1  0  0  0
  6 92  1  0  0  0
  7  8  2  0  0  0
  7 26  1  0  0  0
  7 29  1  0  0  0
  8  9  1  0  0  0
  8 22  1  0  0  0
  9 10  1  0  0  0
  9 27  2  0  0  0
 10 11  2  0  0  0
 10 15  1  0  0  0
 11 12  1  0  0  0
 11 93  1  0  0  0
 12 13  2  0  0  0
 12 94  1  0  0  0
 13 14  1  0  0  0
 13 31  1  0  0  0
 14 15  2  0  0  0
 14 95  1  0  0  0
 15 96  1  0  0  0
 16 17  2  0  0  0
 16 21  1  0  0  0
 16 31  1  0  0  0
 17 18  1  0  0  0
 17 97  1  0  0  0
 18 19  2  0  0  0
 18 98  1  0  0  0
 19 20  1  0  0  0
 19 24  1  0  0  0
 20 21  2  0  0  0
 20 99  1  0  0  0
 21 23  1  0  0  0
 22 28  1  0  0  0
 22 32  2  0  0  0
 26 27  1  0  0  0
 28100  1  0  0  0
 28101  1  0  0  0
 29102  1  0  0  0
 29103  1  0  0  0
 33 34  1  0  0  0
 33 66  1  0  0  0
 33 70  2  0  0  0
 34 36  1  0  0  0
 34 59  1  0  0  0
 34104  1  0  0  0
 35 44  2  0  0  0
 35 45  1  0  0  0
 35 68  1  0  0  0
 36 56  1  0  0  0
 36105  1  0  0  0
 37 39  1  0  0  0
 37 47  1  0  0  0
 37 66  1  0  0  0
 37106  1  0  0  0
 38 43  2  0  0  0
 38 46  1  0  0  0
 38 47  1  0  0  0
 39 64  1  0  0  0
 39 67  2  0  0  0
 40 52  1  0  0  0
 40 53  2  0  0  0
 40 58  1  0  0  0
 41107  1  0  0  0
 41108  1  0  0  0
 41109  1  0  0  0
 41 48  1  0  0  0
 42 43  1  0  0  0
 42 66  1  0  0  0
 42110  1  0  0  0
 42111  1  0  0  0
 43 44  1  0  0  0
 44112  1  0  0  0
 45 46  2  0  0  0
 45113  1  0  0  0
 46114  1  0  0  0
 47115  1  0  0  0
 47116  1  0  0  0
 48 56  1  0  0  0
 48 65  1  0  0  0
 48117  1  0  0  0
 49 50  1  0  0  0
 49 53  1  0  0  0
 49 64  1  0  0  0
 49118  1  0  0  0
 50 51  1  0  0  0
 50119  1  0  0  0
 50120  1  0  0  0
 51 52  1  0  0  0
 51121  1  0  0  0
 51122  1  0  0  0
 52123  1  0  0  0
 52124  1  0  0  0
 53 54  1  0  0  0
 54 55  2  0  0  0
 54125  1  0  0  0
 55 57  1  0  0  0
 55126  1  0  0  0
 56 69  2  0  0  0
 57 58  2  0  0  0
 57127  1  0  0  0
 58128  1  0  0  0
 59 60  1  0  0  0
 59 61  1  0  0  0
 59 62  1  0  0  0
 60129  1  0  0  0
 60130  1  0  0  0
 60131  1  0  0  0
 61132  1  0  0  0
 61133  1  0  0  0
 61134  1  0  0  0
 62135  1  0  0  0
 62136  1  0  0  0
 62137  1  0  0  0
 63 65  1  0  0  0
 63138  1  0  0  0
 63139  1  0  0  0
 63140  1  0  0  0
 64141  1  0  0  0
 65142  1  0  0  0
 68 80  1  0  0  0
 71 72  2  0  0  0
 71 73  1  0  0  0
 71143  1  0  0  0
 72 74  1  0  0  0
 72 76  1  0  0  0
 73 77  1  0  0  0
 73 81  2  0  0  0
 74 75  1  0  0  0
 74 82  2  0  0  0
 75144  1  0  0  0
 75145  1  0  0  0
 75146  1  0  0  0
 76 80  1  0  0  0
 76147  1  0  0  0
 76148  1  0  0  0
 77 78  1  0  0  0
 77149  1  0  0  0
 77150  1  0  0  0
 78 79  1  0  0  0
 78151  1  0  0  0
 78152  1  0  0  0
 79 83  1  0  0  0
 79153  1  0  0  0
 79154  1  0  0  0
 80155  1  0  0  0
 80156  1  0  0  0
 81 82  1  0  0  0
 83157  1  0  0  0
M  ISO  4   1 100  68 101  80 101  83 100
M  END
> <chiral flag>
0

> <version>
0

> <s_m_source_file>
/data/baiqing/PycharmProjects/Reinvent-master-3.2/result/LINK_invent/BTK/process_docking_weight1_custom_sum_contain_oxygen_bond_distance_aromatic_linkinvent_7_9_3/rearranged_h_0085.sdf

> <i_m_source_file_index>
48

> <r_mmod_Potential_Energy-OPLS-2005>
-50.1469421386719

> <r_mmod_Stretch_Energy-OPLS-2005>
48.5667762756348

> <r_mmod_Bend_Energy-OPLS-2005>
109.804321289062

> <r_mmod_Torsional_Energy-OPLS-2005>
237.712982177734

> <r_mmod_Improper_Torsional_Energy-OPLS-2005>
7.85569667816162

> <r_mmod_Van_der_Waal_Energy-OPLS-2005>
146.676147460938

> <r_mmod_Electrostatic_Energy-OPLS-2005>
-376.623687744141

> <r_mmod_Solvation_Energy-OPLS-2005>
-240.398178100586

> <b_mmod_Minimization_Converged-OPLS-2005>
0

> <r_mmod_RMS_Derivative-OPLS-2005>
4.27861166000366

$$$$
51
                    3D
 Structure written by MMmdl.
177185  0  0  1  0            999 V2000
  -30.7864  -14.3507   20.6604 C   0  0  0  0  0  0
  -30.4045  -12.2699   19.4038 C   0  0  0  0  0  0
  -29.4806  -12.5106   18.1965 C   0  0  0  0  0  0
  -28.0056  -12.3731   18.6138 C   0  0  0  0  0  0
  -27.6641  -13.2051   19.8778 C   0  0  2  0  0  0
  -28.7016  -12.9653   20.9982 C   0  0  0  0  0  0
  -25.2593  -13.8170   20.5683 C   0  0  0  0  0  0
  -24.1836  -13.0446   20.9172 C   0  0  0  0  0  0
  -24.6385  -11.6914   20.8730 C   0  0  0  0  0  0
  -23.9054  -10.4299   21.0398 C   0  0  0  0  0  0
  -24.3606   -9.4219   21.9179 C   0  0  0  0  0  0
  -23.6285   -8.2248   22.0753 C   0  0  0  0  0  0
  -22.4269   -8.0281   21.3541 C   0  0  0  0  0  0
  -21.9904   -9.0253   20.4643 C   0  0  0  0  0  0
  -22.7224  -10.2135   20.3049 C   0  0  0  0  0  0
  -21.6853   -6.0735   22.5280 C   0  0  0  0  0  0
  -21.4010   -6.5638   23.8211 C   0  0  0  0  0  0
  -21.3659   -5.6792   24.9176 C   0  0  0  0  0  0
  -21.6045   -4.3055   24.7225 C   0  0  0  0  0  0
  -21.8819   -3.8146   23.4345 C   0  0  0  0  0  0
  -21.9192   -4.6962   22.3402 C   0  0  0  0  0  0
  -22.7863  -13.5248   21.1840 C   0  0  0  0  0  0
  -22.1662   -4.2148   21.0980 F   0  0  0  0  0  0
  -21.5633   -3.4539   25.7739 F   0  0  0  0  0  0
  -30.0456  -13.2331   20.4548 N   0  0  0  0  0  0
  -26.3029  -12.9338   20.3379 N   0  0  0  0  0  0
  -25.9311  -11.6499   20.5765 N   0  0  0  0  0  0
  -22.0500  -12.8230   22.0395 N   0  0  0  0  0  0
  -25.4341  -15.1886   20.4103 N   0  0  0  0  0  0
  -31.8289  -14.5886   20.0442 O   0  0  0  0  0  0
  -21.6637   -6.8875   21.4240 O   0  0  0  0  0  0
  -22.3549  -14.5557   20.6704 O   0  0  0  0  0  0
  -24.6086  -31.8730   23.2133 C   0  0  0  0  0  0
  -25.9010  -32.4845   23.8419 C   0  0  1  0  0  0
  -27.2359  -27.4873   20.0897 C   0  0  0  0  0  0
  -25.5896  -33.8642   24.2360 N   0  0  0  0  0  0
  -23.3935  -30.4945   21.5524 C   0  0  2  0  0  0
  -24.8413  -28.9673   20.1120 C   0  0  0  0  0  0
  -22.7380  -29.4665   22.5007 C   0  0  0  0  0  0
  -18.0260  -28.1352   22.8495 C   0  0  0  0  0  0
  -24.1486  -36.7306   23.2640 C   0  0  0  0  0  0
  -25.9150  -30.8544   21.3589 C   0  0  0  0  0  0
  -25.9945  -29.4910   20.7101 C   0  0  0  0  0  0
  -27.1949  -28.7552   20.7050 C   0  0  0  0  0  0
  -26.0779  -26.9708   19.4770 C   0  0  0  0  0  0
  -24.8740  -27.7019   19.4958 C   0  0  0  0  0  0
  -23.5997  -29.8264   20.1654 C   0  0  0  0  0  0
  -25.4109  -36.3122   24.0338 C   0  0  1  0  0  0
  -20.5849  -28.3638   23.1324 C   0  0  2  0  0  0
  -20.6749  -26.9378   22.5420 C   0  0  0  0  0  0
  -19.5734  -26.6369   21.5204 C   0  0  0  0  0  0
  -18.1908  -26.7905   22.1612 C   0  0  0  0  0  0
  -19.1510  -28.8810   23.2909 C   0  0  0  0  0  0
  -18.9453  -30.1423   23.8919 C   0  0  0  0  0  0
  -17.6464  -30.6586   24.0552 C   0  0  0  0  0  0
  -25.9029  -34.9488   23.5140 C   0  0  0  0  0  0
  -16.5350  -29.9085   23.6324 C   0  0  0  0  0  0
  -16.7257  -28.6485   23.0367 C   0  0  0  0  0  0
  -26.4473  -31.6598   25.0716 C   0  0  0  0  0  0
  -25.3757  -31.3670   26.1473 C   0  0  0  0  0  0
  -27.0297  -30.3058   24.6025 C   0  0  0  0  0  0
  -27.6054  -32.4315   25.7485 C   0  0  0  0  0  0
  -27.5579  -37.1812   24.8470 C   0  0  0  0  0  0
  -21.4116  -29.3012   22.3741 N   0  0  0  0  0  0
  -26.4295  -37.3801   23.9405 N   0  0  0  0  0  0
  -24.6565  -31.0877   22.1009 N   0  0  0  0  0  0
  -23.4183  -28.8211   23.3024 O   0  0  0  0  0  0
  -28.3856  -26.7429   20.0807 O   0  0  0  0  0  0
  -26.5589  -34.8934   22.4704 O   0  0  0  0  0  0
  -23.5295  -32.1459   23.7567 O   0  0  0  0  0  0
  -29.5882  -18.0882   20.6712 C   0  0  0  0  0  0
  -31.9967  -18.6458   21.2015 C   0  0  0  0  0  0
  -29.1336  -19.0724   21.7645 C   0  0  0  0  0  0
  -31.5271  -19.6004   22.3063 C   0  0  0  0  0  0
  -30.9952  -17.5154   20.9220 C   0  0  1  0  0  0
  -30.1492  -20.2335   21.9655 C   0  0  2  0  0  0
  -31.3549  -23.0502   22.1546 C   0  0  0  0  0  0
  -27.6858  -22.7117   24.9111 C   0  0  0  0  0  0
  -31.0285  -16.4129   22.0088 C   0  0  0  0  0  0
  -27.9859  -25.0217   21.7308 C   0  0  0  0  0  0
  -28.3003  -24.4883   23.1416 C   0  0  0  0  0  0
  -30.7625  -22.2493   23.3353 C   0  0  0  0  0  0
  -28.3926  -21.9108   22.5363 C   0  0  0  0  0  0
  -28.7778  -26.2897   21.3737 C   0  0  0  0  0  0
  -27.7789  -23.0514   23.4103 C   0  0  1  0  0  0
  -30.3334  -15.1941   21.5954 N   0  0  0  0  0  0
  -29.6900  -21.2786   22.9519 N   0  3  1  0  0  0
  -31.4509  -12.3430   19.1017 H   0  0  0  0  0  0
  -30.2801  -11.2536   19.7808 H   0  0  0  0  0  0
  -29.7098  -11.8022   17.3995 H   0  0  0  0  0  0
  -29.6591  -13.5052   17.7850 H   0  0  0  0  0  0
  -27.8128  -11.3167   18.8037 H   0  0  0  0  0  0
  -27.3522  -12.6566   17.7887 H   0  0  0  0  0  0
  -27.7185  -14.2565   19.5935 H   0  0  0  0  0  0
  -28.6554  -11.9307   21.3413 H   0  0  0  0  0  0
  -28.4569  -13.5698   21.8718 H   0  0  0  0  0  0
  -25.2749   -9.5699   22.4760 H   0  0  0  0  0  0
  -23.9999   -7.4641   22.7476 H   0  0  0  0  0  0
  -21.0838   -8.8763   19.8947 H   0  0  0  0  0  0
  -22.3678  -10.9671   19.6160 H   0  0  0  0  0  0
  -21.1996   -7.6146   23.9715 H   0  0  0  0  0  0
  -21.1486   -6.0523   25.9080 H   0  0  0  0  0  0
  -22.0596   -2.7608   23.2847 H   0  0  0  0  0  0
  -22.4104  -11.9874   22.4761 H   0  0  0  0  0  0
  -21.1123  -13.1265   22.2611 H   0  0  0  0  0  0
  -24.6738  -15.8501   20.5232 H   0  0  0  0  0  0
  -26.2967  -15.6240   20.1080 H   0  0  0  0  0  0
  -26.7082  -32.5577   23.1190 H   0  0  0  0  0  0
  -25.0076  -33.9819   25.0522 H   0  0  0  0  0  0
  -22.6786  -31.3083   21.4156 H   0  0  0  0  0  0
  -23.3754  -35.9631   23.3323 H   0  0  0  0  0  0
  -24.3576  -36.8894   22.2050 H   0  0  0  0  0  0
  -23.7231  -37.6510   23.6644 H   0  0  0  0  0  0
  -26.0214  -31.6247   20.5926 H   0  0  0  0  0  0
  -26.8038  -30.9081   21.9751 H   0  0  0  0  0  0
  -28.0855  -29.1586   21.1686 H   0  0  0  0  0  0
  -26.1084  -26.0010   19.0005 H   0  0  0  0  0  0
  -23.9864  -27.2925   19.0323 H   0  0  0  0  0  0
  -23.7021  -30.6025   19.4061 H   0  0  0  0  0  0
  -22.7266  -29.2404   19.8731 H   0  0  0  0  0  0
  -25.1286  -36.1992   25.0829 H   0  0  0  0  0  0
  -20.9941  -28.3204   24.1445 H   0  0  0  0  0  0
  -20.5635  -26.2252   23.3605 H   0  0  0  0  0  0
  -21.6625  -26.7420   22.1230 H   0  0  0  0  0  0
  -19.6902  -25.6285   21.1228 H   0  0  0  0  0  0
  -19.6679  -27.3188   20.6740 H   0  0  0  0  0  0
  -17.4183  -26.6663   21.4010 H   0  0  0  0  0  0
  -18.0296  -26.0039   22.8999 H   0  0  0  0  0  0
  -19.7935  -30.7202   24.2322 H   0  0  0  0  0  0
  -17.5031  -31.6275   24.5141 H   0  0  0  0  0  0
  -15.5355  -30.3001   23.7635 H   0  0  0  0  0  0
  -15.8646  -28.0810   22.7103 H   0  0  0  0  0  0
  -24.5939  -30.7011   25.7802 H   0  0  0  0  0  0
  -24.8943  -32.2815   26.4955 H   0  0  0  0  0  0
  -25.8128  -30.8824   27.0211 H   0  0  0  0  0  0
  -26.2808  -29.6818   24.1137 H   0  0  0  0  0  0
  -27.4160  -29.7290   25.4433 H   0  0  0  0  0  0
  -27.8604  -30.4394   23.9088 H   0  0  0  0  0  0
  -27.2671  -33.3599   26.2110 H   0  0  0  0  0  0
  -28.3854  -32.6909   25.0309 H   0  0  0  0  0  0
  -28.0741  -31.8410   26.5369 H   0  0  0  0  0  0
  -28.2622  -38.0094   24.7526 H   0  0  0  0  0  0
  -28.1057  -36.2629   24.6297 H   0  0  0  0  0  0
  -27.2300  -37.1463   25.8877 H   0  0  0  0  0  0
  -20.9267  -29.8730   21.6973 H   0  0  0  0  0  0
  -26.0191  -38.2877   24.1419 H   0  0  0  0  0  0
  -29.5885  -18.6096   19.7124 H   0  0  0  0  0  0
  -28.8615  -17.2819   20.5647 H   0  0  0  0  0  0
  -32.9735  -18.2313   21.4540 H   0  0  0  0  0  0
  -32.1504  -19.2173   20.2840 H   0  0  0  0  0  0
  -28.9787  -18.5387   22.7025 H   0  0  0  0  0  0
  -28.1566  -19.4331   21.4522 H   0  0  0  0  0  0
  -32.3128  -20.3466   22.4027 H   0  0  0  0  0  0
  -31.4812  -19.0772   23.2620 H   0  0  0  0  0  0
  -31.3235  -17.0696   19.9825 H   0  0  0  0  0  0
  -30.2558  -20.7394   21.0035 H   0  0  0  0  0  0
  -32.0578  -23.7991   22.5204 H   0  0  0  0  0  0
  -30.5918  -23.5766   21.5848 H   0  0  0  0  0  0
  -31.9033  -22.4184   21.4571 H   0  0  0  0  0  0
  -27.0700  -23.4450   25.4328 H   0  0  0  0  0  0
  -28.6545  -22.6990   25.4078 H   0  0  0  0  0  0
  -27.2167  -21.7394   25.0670 H   0  0  0  0  0  0
  -30.5879  -16.7717   22.9387 H   0  0  0  0  0  0
  -32.0627  -16.1553   22.2471 H   0  0  0  0  0  0
  -26.9151  -25.2186   21.6623 H   0  0  0  0  0  0
  -28.2036  -24.2796   20.9664 H   0  0  0  0  0  0
  -27.8333  -25.1684   23.8555 H   0  0  0  0  0  0
  -29.3634  -24.5857   23.3354 H   0  0  0  0  0  0
  -30.4062  -22.9285   24.1023 H   0  0  0  0  0  0
  -31.5622  -21.7281   23.8597 H   0  0  0  0  0  0
  -28.4646  -22.2169   21.4948 H   0  0  0  0  0  0
  -27.6332  -21.1318   22.5474 H   0  0  0  0  0  0
  -29.8451  -26.0710   21.3480 H   0  0  0  0  0  0
  -28.6420  -27.0510   22.1430 H   0  0  0  0  0  0
  -26.7360  -23.0919   23.0879 H   0  0  0  0  0  0
  -29.4816  -14.9445   22.0759 H   0  0  0  0  0  0
  -29.4806  -20.7806   23.8054 H   0  0  0  0  0  0
  1 25  1  0  0  0
  1 30  2  0  0  0
  1 86  1  0  0  0
  2  3  1  0  0  0
  2 25  1  0  0  0
  2 88  1  0  0  0
  2 89  1  0  0  0
  3  4  1  0  0  0
  3 90  1  0  0  0
  3 91  1  0  0  0
  4  5  1  0  0  0
  4 92  1  0  0  0
  4 93  1  0  0  0
  5  6  1  0  0  0
  5 26  1  0  0  0
  5 94  1  0  0  0
  6 25  1  0  0  0
  6 95  1  0  0  0
  6 96  1  0  0  0
  7  8  2  0  0  0
  7 26  1  0  0  0
  7 29  1  0  0  0
  8  9  1  0  0  0
  8 22  1  0  0  0
  9 10  1  0  0  0
  9 27  2  0  0  0
 10 11  2  0  0  0
 10 15  1  0  0  0
 11 12  1  0  0  0
 11 97  1  0  0  0
 12 13  2  0  0  0
 12 98  1  0  0  0
 13 14  1  0  0  0
 13 31  1  0  0  0
 14 15  2  0  0  0
 14 99  1  0  0  0
 15100  1  0  0  0
 16 17  2  0  0  0
 16 21  1  0  0  0
 16 31  1  0  0  0
 17 18  1  0  0  0
 17101  1  0  0  0
 18 19  2  0  0  0
 18102  1  0  0  0
 19 20  1  0  0  0
 19 24  1  0  0  0
 20 21  2  0  0  0
 20103  1  0  0  0
 21 23  1  0  0  0
 22 28  1  0  0  0
 22 32  2  0  0  0
 26 27  1  0  0  0
 28104  1  0  0  0
 28105  1  0  0  0
 29106  1  0  0  0
 29107  1  0  0  0
 33 34  1  0  0  0
 33 66  1  0  0  0
 33 70  2  0  0  0
 34 36  1  0  0  0
 34 59  1  0  0  0
 34108  1  0  0  0
 35 44  2  0  0  0
 35 45  1  0  0  0
 35 68  1  0  0  0
 36 56  1  0  0  0
 36109  1  0  0  0
 37 39  1  0  0  0
 37 47  1  0  0  0
 37 66  1  0  0  0
 37110  1  0  0  0
 38 43  2  0  0  0
 38 46  1  0  0  0
 38 47  1  0  0  0
 39 64  1  0  0  0
 39 67  2  0  0  0
 40 52  1  0  0  0
 40 53  2  0  0  0
 40 58  1  0  0  0
 41111  1  0  0  0
 41112  1  0  0  0
 41113  1  0  0  0
 41 48  1  0  0  0
 42 43  1  0  0  0
 42 66  1  0  0  0
 42114  1  0  0  0
 42115  1  0  0  0
 43 44  1  0  0  0
 44116  1  0  0  0
 45 46  2  0  0  0
 45117  1  0  0  0
 46118  1  0  0  0
 47119  1  0  0  0
 47120  1  0  0  0
 48 56  1  0  0  0
 48 65  1  0  0  0
 48121  1  0  0  0
 49 50  1  0  0  0
 49 53  1  0  0  0
 49 64  1  0  0  0
 49122  1  0  0  0
 50 51  1  0  0  0
 50123  1  0  0  0
 50124  1  0  0  0
 51 52  1  0  0  0
 51125  1  0  0  0
 51126  1  0  0  0
 52127  1  0  0  0
 52128  1  0  0  0
 53 54  1  0  0  0
 54 55  2  0  0  0
 54129  1  0  0  0
 55 57  1  0  0  0
 55130  1  0  0  0
 56 69  2  0  0  0
 57 58  2  0  0  0
 57131  1  0  0  0
 58132  1  0  0  0
 59 60  1  0  0  0
 59 61  1  0  0  0
 59 62  1  0  0  0
 60133  1  0  0  0
 60134  1  0  0  0
 60135  1  0  0  0
 61136  1  0  0  0
 61137  1  0  0  0
 61138  1  0  0  0
 62139  1  0  0  0
 62140  1  0  0  0
 62141  1  0  0  0
 63 65  1  0  0  0
 63142  1  0  0  0
 63143  1  0  0  0
 63144  1  0  0  0
 64145  1  0  0  0
 65146  1  0  0  0
 68 84  1  0  0  0
 71 73  1  0  0  0
 71 75  1  0  0  0
 71147  1  0  0  0
 71148  1  0  0  0
 72 74  1  0  0  0
 72 75  1  0  0  0
 72149  1  0  0  0
 72150  1  0  0  0
 73151  1  0  0  0
 73152  1  0  0  0
 73 76  1  0  0  0
 74 76  1  0  0  0
 74153  1  0  0  0
 74154  1  0  0  0
 75 79  1  0  0  0
 75155  1  0  0  0
 76 87  1  0  0  0
 76156  1  0  0  0
 77 82  1  0  0  0
 77157  1  0  0  0
 77158  1  0  0  0
 77159  1  0  0  0
 78160  1  0  0  0
 78161  1  0  0  0
 78162  1  0  0  0
 78 85  1  0  0  0
 79 86  1  0  0  0
 79163  1  0  0  0
 79164  1  0  0  0
 80 81  1  0  0  0
 80 84  1  0  0  0
 80165  1  0  0  0
 80166  1  0  0  0
 81 85  1  0  0  0
 81167  1  0  0  0
 81168  1  0  0  0
 82169  1  0  0  0
 82170  1  0  0  0
 82 87  1  0  0  0
 83 85  1  0  0  0
 83 87  1  0  0  0
 83171  1  0  0  0
 83172  1  0  0  0
 84173  1  0  0  0
 84174  1  0  0  0
 85175  1  0  0  0
 86176  1  0  0  0
 87177  1  0  0  0
M  CHG  1  87   1
M  ISO  4   1 100  68 101  84 101  86 100
M  END
> <chiral flag>
0

> <version>
0

> <s_m_source_file>
/data/baiqing/PycharmProjects/Reinvent-master-3.2/result/LINK_invent/BTK/process_docking_weight1_custom_sum_contain_oxygen_bond_distance_aromatic_linkinvent_7_9_3/rearranged_h_0085.sdf

> <i_m_source_file_index>
49

> <r_mmod_Potential_Energy-OPLS-2005>
-61.4706726074219

> <r_mmod_Stretch_Energy-OPLS-2005>
37.9538421630859

> <r_mmod_Bend_Energy-OPLS-2005>
118.133590698242

> <r_mmod_Torsional_Energy-OPLS-2005>
277.593505859375

> <r_mmod_Improper_Torsional_Energy-OPLS-2005>
1.63849627971649

> <r_mmod_Van_der_Waal_Energy-OPLS-2005>
152.320404052734

> <r_mmod_Electrostatic_Energy-OPLS-2005>
-236.734100341797

> <r_mmod_Solvation_Energy-OPLS-2005>
-419.547302246094

> <b_mmod_Minimization_Converged-OPLS-2005>
0

> <r_mmod_RMS_Derivative-OPLS-2005>
1.47870671749115

$$$$
52
                    3D
 Structure written by MMmdl.
167175  0  0  1  0            999 V2000
  -30.7127  -14.6269   20.5330 C   0  0  0  0  0  0
  -30.4379  -12.4017   19.4686 C   0  0  0  0  0  0
  -29.5138  -12.5175   18.2426 C   0  0  0  0  0  0
  -28.0408  -12.3501   18.6544 C   0  0  0  0  0  0
  -27.6590  -13.2313   19.8701 C   0  0  2  0  0  0
  -28.7093  -13.1532   21.0035 C   0  0  0  0  0  0
  -25.2569  -13.8159   20.5711 C   0  0  0  0  0  0
  -24.1900  -13.0440   20.9200 C   0  0  0  0  0  0
  -24.6484  -11.6921   20.8790 C   0  0  0  0  0  0
  -23.9175  -10.4317   21.0401 C   0  0  0  0  0  0
  -24.3706   -9.4196   21.9150 C   0  0  0  0  0  0
  -23.6353   -8.2248   22.0736 C   0  0  0  0  0  0
  -22.4316   -8.0324   21.3541 C   0  0  0  0  0  0
  -21.9986   -9.0302   20.4621 C   0  0  0  0  0  0
  -22.7357  -10.2159   20.3023 C   0  0  0  0  0  0
  -21.6840   -6.0801   22.5271 C   0  0  0  0  0  0
  -21.4022   -6.5705   23.8212 C   0  0  0  0  0  0
  -21.3645   -5.6831   24.9146 C   0  0  0  0  0  0
  -21.6050   -4.3100   24.7189 C   0  0  0  0  0  0
  -21.8819   -3.8218   23.4297 C   0  0  0  0  0  0
  -21.9202   -4.7041   22.3365 C   0  0  0  0  0  0
  -22.7891  -13.5221   21.1833 C   0  0  0  0  0  0
  -22.1657   -4.2237   21.0935 F   0  0  0  0  0  0
  -21.5597   -3.4566   25.7684 F   0  0  0  0  0  0
  -30.0306  -13.4490   20.4271 N   0  0  0  0  0  0
  -26.3068  -12.9395   20.3459 N   0  0  0  0  0  0
  -25.9446  -11.6536   20.5898 N   0  0  0  0  0  0
  -22.0601  -12.8167   22.0369 N   0  0  0  0  0  0
  -25.4267  -15.1903   20.4057 N   0  0  0  0  0  0
  -31.8727  -14.7339   20.1217 O   0  0  0  0  0  0
  -21.6634   -6.8947   21.4258 O   0  0  0  0  0  0
  -22.3535  -14.5507   20.6682 O   0  0  0  0  0  0
  -24.6122  -31.8638   23.1939 C   0  0  0  0  0  0
  -25.9049  -32.4750   23.8211 C   0  0  1  0  0  0
  -27.2588  -27.4124   20.1339 C   0  0  0  0  0  0
  -25.5949  -33.8549   24.2143 N   0  0  0  0  0  0
  -23.3986  -30.4882   21.5262 C   0  0  2  0  0  0
  -24.8526  -28.9312   20.1142 C   0  0  0  0  0  0
  -22.7373  -29.4736   22.4830 C   0  0  0  0  0  0
  -18.0311  -28.1477   22.8450 C   0  0  0  0  0  0
  -24.1543  -36.7297   23.2638 C   0  0  0  0  0  0
  -25.9262  -30.8277   21.3486 C   0  0  0  0  0  0
  -26.0053  -29.4493   20.7185 C   0  0  0  0  0  0
  -27.2038  -28.7008   20.7248 C   0  0  0  0  0  0
  -26.0882  -26.9104   19.5319 C   0  0  0  0  0  0
  -24.8889  -27.6516   19.5211 C   0  0  0  0  0  0
  -23.6111  -29.7985   20.1436 C   0  0  0  0  0  0
  -25.4136  -36.3032   24.0297 C   0  0  1  0  0  0
  -20.5912  -28.3727   23.1264 C   0  0  2  0  0  0
  -20.6860  -26.9452   22.5432 C   0  0  0  0  0  0
  -19.5833  -26.6427   21.5244 C   0  0  0  0  0  0
  -18.1981  -26.8030   22.1613 C   0  0  0  0  0  0
  -19.1567  -28.8914   23.2887 C   0  0  0  0  0  0
  -18.9523  -30.1540   23.8847 C   0  0  0  0  0  0
  -17.6529  -30.6650   24.0598 C   0  0  0  0  0  0
  -25.9064  -34.9456   23.4994 C   0  0  0  0  0  0
  -16.5408  -29.9134   23.6393 C   0  0  0  0  0  0
  -16.7308  -28.6629   23.0256 C   0  0  0  0  0  0
  -26.4480  -31.6549   25.0559 C   0  0  0  0  0  0
  -25.3722  -31.3763   26.1275 C   0  0  0  0  0  0
  -27.0287  -30.2937   24.6021 C   0  0  0  0  0  0
  -27.6013  -32.4274   25.7363 C   0  0  0  0  0  0
  -27.5567  -37.1784   24.8447 C   0  0  0  0  0  0
  -21.4119  -29.3081   22.3618 N   0  0  0  0  0  0
  -26.4259  -37.3762   23.9431 N   0  0  0  0  0  0
  -24.6628  -31.0756   22.0805 N   0  0  0  0  0  0
  -23.4153  -28.8253   23.2885 O   0  0  0  0  0  0
  -28.4622  -26.7566   19.9508 O   0  0  0  0  0  0
  -26.5642  -34.8931   22.4563 O   0  0  0  0  0  0
  -23.5334  -32.1393   23.7325 O   0  0  0  0  0  0
  -29.4150  -20.0845   23.4325 C   0  0  0  0  0  0
  -29.4665  -20.6780   22.1559 C   0  0  0  0  0  0
  -28.8001  -21.9588   21.9759 C   0  0  0  0  0  0
  -28.7684  -20.7191   24.4955 C   0  0  0  0  0  0
  -28.0048  -22.3903   23.0797 C   0  0  0  0  0  0
  -28.6477  -20.0309   25.8439 C   0  0  0  0  0  0
  -26.5556  -24.5271   23.4659 C   0  0  0  0  0  0
  -30.2147  -19.8194   21.0936 C   0  0  0  0  0  0
  -28.9594  -22.7800   20.6473 C   0  0  0  0  0  0
  -26.6931  -23.1183   22.8731 C   0  0  0  0  0  0
  -29.6151  -18.3590   20.9082 C   0  0  0  0  0  0
  -28.2992  -24.1977   20.2526 C   0  0  0  0  0  0
  -30.6312  -17.1396   20.9970 C   0  0  0  0  0  0
  -28.8574  -25.5893   20.7144 C   0  0  0  0  0  0
  -28.0820  -21.8598   24.3221 N   0  0  0  0  0  0
  -30.0548  -15.7497   20.9464 N   0  0  0  0  0  0
  -31.4793  -12.5066   19.1538 H   0  0  0  0  0  0
  -30.3641  -11.4137   19.9231 H   0  0  0  0  0  0
  -29.7885  -11.7777   17.4874 H   0  0  0  0  0  0
  -29.6546  -13.4959   17.7844 H   0  0  0  0  0  0
  -27.8792  -11.3009   18.8904 H   0  0  0  0  0  0
  -27.3838  -12.5797   17.8183 H   0  0  0  0  0  0
  -27.6611  -14.2600   19.5023 H   0  0  0  0  0  0
  -28.7193  -12.1842   21.4987 H   0  0  0  0  0  0
  -28.4631  -13.8773   21.7797 H   0  0  0  0  0  0
  -25.2878   -9.5605   22.4680 H   0  0  0  0  0  0
  -24.0049   -7.4636   22.7431 H   0  0  0  0  0  0
  -21.0915   -8.8876   19.8902 H   0  0  0  0  0  0
  -22.3883  -10.9707   19.6117 H   0  0  0  0  0  0
  -21.2028   -7.6217   23.9729 H   0  0  0  0  0  0
  -21.1441   -6.0546   25.9039 H   0  0  0  0  0  0
  -22.0607   -2.7690   23.2746 H   0  0  0  0  0  0
  -22.4384  -11.9903   22.4721 H   0  0  0  0  0  0
  -21.1198  -13.1054   22.2613 H   0  0  0  0  0  0
  -24.6535  -15.8402   20.4814 H   0  0  0  0  0  0
  -26.2819  -15.6320   20.1033 H   0  0  0  0  0  0
  -26.7101  -32.5464   23.0957 H   0  0  0  0  0  0
  -25.0195  -33.9720   25.0330 H   0  0  0  0  0  0
  -22.6901  -31.3049   21.3690 H   0  0  0  0  0  0
  -23.3752  -35.9676   23.3281 H   0  0  0  0  0  0
  -24.3664  -36.8943   22.2053 H   0  0  0  0  0  0
  -23.7385  -37.6517   23.6689 H   0  0  0  0  0  0
  -26.0334  -31.5903   20.5751 H   0  0  0  0  0  0
  -26.8225  -30.8880   21.9578 H   0  0  0  0  0  0
  -28.0915  -29.1225   21.1712 H   0  0  0  0  0  0
  -26.1285  -25.9547   19.0354 H   0  0  0  0  0  0
  -24.0060  -27.2288   19.0579 H   0  0  0  0  0  0
  -23.7252  -30.5682   19.3784 H   0  0  0  0  0  0
  -22.7373  -29.2159   19.8349 H   0  0  0  0  0  0
  -25.1360  -36.1774   25.0779 H   0  0  0  0  0  0
  -21.0008  -28.3393   24.1373 H   0  0  0  0  0  0
  -20.5872  -26.2341   23.3643 H   0  0  0  0  0  0
  -21.6736  -26.7653   22.1170 H   0  0  0  0  0  0
  -19.7044  -25.6332   21.1281 H   0  0  0  0  0  0
  -19.6800  -27.3282   20.6803 H   0  0  0  0  0  0
  -17.4283  -26.6739   21.3956 H   0  0  0  0  0  0
  -18.0350  -26.0217   22.9046 H   0  0  0  0  0  0
  -19.8010  -30.7404   24.2047 H   0  0  0  0  0  0
  -17.5107  -31.6288   24.5294 H   0  0  0  0  0  0
  -15.5427  -30.3032   23.7783 H   0  0  0  0  0  0
  -15.8724  -28.1038   22.6780 H   0  0  0  0  0  0
  -24.6009  -30.6954   25.7681 H   0  0  0  0  0  0
  -24.8782  -32.2950   26.4436 H   0  0  0  0  0  0
  -25.8061  -30.9210   27.0173 H   0  0  0  0  0  0
  -26.2816  -29.6667   24.1122 H   0  0  0  0  0  0
  -27.4034  -29.7208   25.4519 H   0  0  0  0  0  0
  -27.8689  -30.4161   23.9171 H   0  0  0  0  0  0
  -27.2604  -33.3617   26.1806 H   0  0  0  0  0  0
  -28.3910  -32.6706   25.0264 H   0  0  0  0  0  0
  -28.0536  -31.8437   26.5385 H   0  0  0  0  0  0
  -28.2553  -38.0112   24.7499 H   0  0  0  0  0  0
  -28.1078  -36.2633   24.6230 H   0  0  0  0  0  0
  -27.2308  -37.1381   25.8856 H   0  0  0  0  0  0
  -20.9197  -29.8681   21.6792 H   0  0  0  0  0  0
  -26.0086  -38.2811   24.1420 H   0  0  0  0  0  0
  -29.8667  -19.1160   23.5927 H   0  0  0  0  0  0
  -29.5643  -20.1058   26.4298 H   0  0  0  0  0  0
  -28.4262  -18.9744   25.6741 H   0  0  0  0  0  0
  -27.8213  -20.4264   26.4376 H   0  0  0  0  0  0
  -25.5985  -24.9415   23.1370 H   0  0  0  0  0  0
  -27.3351  -25.1942   23.1165 H   0  0  0  0  0  0
  -26.5634  -24.5072   24.5602 H   0  0  0  0  0  0
  -31.2252  -19.6949   21.4747 H   0  0  0  0  0  0
  -30.3643  -20.3336   20.1381 H   0  0  0  0  0  0
  -28.6839  -22.0935   19.8398 H   0  0  0  0  0  0
  -30.0400  -22.9082   20.5851 H   0  0  0  0  0  0
  -25.9466  -22.4974   23.3719 H   0  0  0  0  0  0
  -26.4276  -23.0719   21.8230 H   0  0  0  0  0  0
  -29.1284  -18.3533   19.9321 H   0  0  0  0  0  0
  -28.7845  -18.2183   21.6048 H   0  0  0  0  0  0
  -27.2076  -24.2171   20.2185 H   0  0  0  0  0  0
  -28.5721  -24.2700   19.2016 H   0  0  0  0  0  0
  -31.3249  -17.2475   20.1615 H   0  0  0  0  0  0
  -31.2617  -17.2119   21.8927 H   0  0  0  0  0  0
  -29.9351  -25.5695   20.5359 H   0  0  0  0  0  0
  -28.7587  -25.7802   21.7749 H   0  0  0  0  0  0
  -29.0943  -15.6365   21.2456 H   0  0  0  0  0  0
  1 25  1  0  0  0
  1 30  2  0  0  0
  1 86  1  0  0  0
  2  3  1  0  0  0
  2 25  1  0  0  0
  2 87  1  0  0  0
  2 88  1  0  0  0
  3  4  1  0  0  0
  3 89  1  0  0  0
  3 90  1  0  0  0
  4  5  1  0  0  0
  4 91  1  0  0  0
  4 92  1  0  0  0
  5  6  1  0  0  0
  5 26  1  0  0  0
  5 93  1  0  0  0
  6 25  1  0  0  0
  6 94  1  0  0  0
  6 95  1  0  0  0
  7  8  2  0  0  0
  7 26  1  0  0  0
  7 29  1  0  0  0
  8  9  1  0  0  0
  8 22  1  0  0  0
  9 10  1  0  0  0
  9 27  2  0  0  0
 10 11  2  0  0  0
 10 15  1  0  0  0
 11 12  1  0  0  0
 11 96  1  0  0  0
 12 13  2  0  0  0
 12 97  1  0  0  0
 13 14  1  0  0  0
 13 31  1  0  0  0
 14 15  2  0  0  0
 14 98  1  0  0  0
 15 99  1  0  0  0
 16 17  2  0  0  0
 16 21  1  0  0  0
 16 31  1  0  0  0
 17 18  1  0  0  0
 17100  1  0  0  0
 18 19  2  0  0  0
 18101  1  0  0  0
 19 20  1  0  0  0
 19 24  1  0  0  0
 20 21  2  0  0  0
 20102  1  0  0  0
 21 23  1  0  0  0
 22 28  1  0  0  0
 22 32  2  0  0  0
 26 27  1  0  0  0
 28103  1  0  0  0
 28104  1  0  0  0
 29105  1  0  0  0
 29106  1  0  0  0
 33 34  1  0  0  0
 33 66  1  0  0  0
 33 70  2  0  0  0
 34 36  1  0  0  0
 34 59  1  0  0  0
 34107  1  0  0  0
 35 44  2  0  0  0
 35 45  1  0  0  0
 35 68  1  0  0  0
 36 56  1  0  0  0
 36108  1  0  0  0
 37 39  1  0  0  0
 37 47  1  0  0  0
 37 66  1  0  0  0
 37109  1  0  0  0
 38 43  2  0  0  0
 38 46  1  0  0  0
 38 47  1  0  0  0
 39 64  1  0  0  0
 39 67  2  0  0  0
 40 52  1  0  0  0
 40 53  2  0  0  0
 40 58  1  0  0  0
 41110  1  0  0  0
 41111  1  0  0  0
 41112  1  0  0  0
 41 48  1  0  0  0
 42 43  1  0  0  0
 42 66  1  0  0  0
 42113  1  0  0  0
 42114  1  0  0  0
 43 44  1  0  0  0
 44115  1  0  0  0
 45 46  2  0  0  0
 45116  1  0  0  0
 46117  1  0  0  0
 47118  1  0  0  0
 47119  1  0  0  0
 48 56  1  0  0  0
 48 65  1  0  0  0
 48120  1  0  0  0
 49 50  1  0  0  0
 49 53  1  0  0  0
 49 64  1  0  0  0
 49121  1  0  0  0
 50 51  1  0  0  0
 50122  1  0  0  0
 50123  1  0  0  0
 51 52  1  0  0  0
 51124  1  0  0  0
 51125  1  0  0  0
 52126  1  0  0  0
 52127  1  0  0  0
 53 54  1  0  0  0
 54 55  2  0  0  0
 54128  1  0  0  0
 55 57  1  0  0  0
 55129  1  0  0  0
 56 69  2  0  0  0
 57 58  2  0  0  0
 57130  1  0  0  0
 58131  1  0  0  0
 59 60  1  0  0  0
 59 61  1  0  0  0
 59 62  1  0  0  0
 60132  1  0  0  0
 60133  1  0  0  0
 60134  1  0  0  0
 61135  1  0  0  0
 61136  1  0  0  0
 61137  1  0  0  0
 62138  1  0  0  0
 62139  1  0  0  0
 62140  1  0  0  0
 63 65  1  0  0  0
 63141  1  0  0  0
 63142  1  0  0  0
 63143  1  0  0  0
 64144  1  0  0  0
 65145  1  0  0  0
 68 84  1  0  0  0
 71 72  2  0  0  0
 71 74  1  0  0  0
 71146  1  0  0  0
 72 73  1  0  0  0
 72 78  1  0  0  0
 73 75  2  0  0  0
 73 79  1  0  0  0
 74 76  1  0  0  0
 74 85  2  0  0  0
 75 80  1  0  0  0
 75 85  1  0  0  0
 76147  1  0  0  0
 76148  1  0  0  0
 76149  1  0  0  0
 77 80  1  0  0  0
 77150  1  0  0  0
 77151  1  0  0  0
 77152  1  0  0  0
 78 81  1  0  0  0
 78153  1  0  0  0
 78154  1  0  0  0
 79 82  1  0  0  0
 79155  1  0  0  0
 79156  1  0  0  0
 80157  1  0  0  0
 80158  1  0  0  0
 81 83  1  0  0  0
 81159  1  0  0  0
 81160  1  0  0  0
 82 84  1  0  0  0
 82161  1  0  0  0
 82162  1  0  0  0
 83 86  1  0  0  0
 83163  1  0  0  0
 83164  1  0  0  0
 84165  1  0  0  0
 84166  1  0  0  0
 86167  1  0  0  0
M  ISO  4   1 100  68 101  84 101  86 100
M  END
> <chiral flag>
0

> <version>
0

> <s_m_source_file>
/data/baiqing/PycharmProjects/Reinvent-master-3.2/result/LINK_invent/BTK/process_docking_weight1_custom_sum_contain_oxygen_bond_distance_aromatic_linkinvent_7_9_3/rearranged_h_0085.sdf

> <i_m_source_file_index>
50

> <r_mmod_Potential_Energy-OPLS-2005>
-44.9432411193848

> <r_mmod_Stretch_Energy-OPLS-2005>
74.1571350097656

> <r_mmod_Bend_Energy-OPLS-2005>
198.625457763672

> <r_mmod_Torsional_Energy-OPLS-2005>
268.930328369141

> <r_mmod_Improper_Torsional_Energy-OPLS-2005>
9.29876232147217

> <r_mmod_Van_der_Waal_Energy-OPLS-2005>
142.98844909668

> <r_mmod_Electrostatic_Energy-OPLS-2005>
-551.335693359375

> <r_mmod_Solvation_Energy-OPLS-2005>
-221.901306152344

> <b_mmod_Minimization_Converged-OPLS-2005>
0

> <r_mmod_RMS_Derivative-OPLS-2005>
12.4980602264404

$$$$
53
                    3D
 Structure written by MMmdl.
174182  0  0  1  0            999 V2000
  -30.6655  -14.5997   20.4988 C   0  0  0  0  0  0
  -30.4217  -12.3700   19.4473 C   0  0  0  0  0  0
  -29.4984  -12.4930   18.2178 C   0  0  0  0  0  0
  -28.0219  -12.3418   18.6329 C   0  0  0  0  0  0
  -27.6482  -13.2203   19.8575 C   0  0  2  0  0  0
  -28.6928  -13.0914   20.9875 C   0  0  0  0  0  0
  -25.2537  -13.8185   20.5688 C   0  0  0  0  0  0
  -24.1814  -13.0441   20.9200 C   0  0  0  0  0  0
  -24.6390  -11.6915   20.8746 C   0  0  0  0  0  0
  -23.9065  -10.4293   21.0409 C   0  0  0  0  0  0
  -24.3616   -9.4208   21.9186 C   0  0  0  0  0  0
  -23.6290   -8.2244   22.0756 C   0  0  0  0  0  0
  -22.4274   -8.0281   21.3545 C   0  0  0  0  0  0
  -21.9912   -9.0254   20.4645 C   0  0  0  0  0  0
  -22.7240  -10.2133   20.3055 C   0  0  0  0  0  0
  -21.6850   -6.0736   22.5279 C   0  0  0  0  0  0
  -21.4013   -6.5641   23.8213 C   0  0  0  0  0  0
  -21.3659   -5.6792   24.9174 C   0  0  0  0  0  0
  -21.6045   -4.3055   24.7225 C   0  0  0  0  0  0
  -21.8819   -3.8146   23.4347 C   0  0  0  0  0  0
  -21.9193   -4.6962   22.3403 C   0  0  0  0  0  0
  -22.7836  -13.5229   21.1856 C   0  0  0  0  0  0
  -22.1661   -4.2148   21.0980 F   0  0  0  0  0  0
  -21.5630   -3.4538   25.7738 F   0  0  0  0  0  0
  -30.0057  -13.4063   20.4111 N   0  0  0  0  0  0
  -26.2963  -12.9375   20.3308 N   0  0  0  0  0  0
  -25.9316  -11.6525   20.5760 N   0  0  0  0  0  0
  -22.0478  -12.8217   22.0408 N   0  0  0  0  0  0
  -25.4239  -15.1906   20.4101 N   0  0  0  0  0  0
  -31.8441  -14.7053   20.1514 O   0  0  0  0  0  0
  -21.6638   -6.8878   21.4241 O   0  0  0  0  0  0
  -22.3522  -14.5537   20.6707 O   0  0  0  0  0  0
  -24.6233  -31.8603   23.2029 C   0  0  0  0  0  0
  -25.9092  -32.4779   23.8349 C   0  0  1  0  0  0
  -27.2320  -27.3555   20.0881 C   0  0  0  0  0  0
  -25.5918  -33.8579   24.2279 N   0  0  0  0  0  0
  -23.4144  -30.4839   21.5453 C   0  0  2  0  0  0
  -24.8584  -28.9416   20.1073 C   0  0  0  0  0  0
  -22.7456  -29.4622   22.4945 C   0  0  0  0  0  0
  -18.0282  -28.1378   22.8486 C   0  0  0  0  0  0
  -24.1487  -36.7295   23.2640 C   0  0  0  0  0  0
  -25.9515  -30.8025   21.3655 C   0  0  0  0  0  0
  -26.0253  -29.4339   20.7031 C   0  0  0  0  0  0
  -27.2104  -28.6486   20.6880 C   0  0  0  0  0  0
  -26.0272  -26.8827   19.5256 C   0  0  0  0  0  0
  -24.8580  -27.6681   19.5153 C   0  0  0  0  0  0
  -23.6247  -29.8178   20.1596 C   0  0  0  0  0  0
  -25.4113  -36.3083   24.0328 C   0  0  1  0  0  0
  -20.5880  -28.3677   23.1292 C   0  0  2  0  0  0
  -20.6769  -26.9404   22.5413 C   0  0  0  0  0  0
  -19.5749  -26.6382   21.5208 C   0  0  0  0  0  0
  -18.1926  -26.7924   22.1617 C   0  0  0  0  0  0
  -19.1534  -28.8845   23.2885 C   0  0  0  0  0  0
  -18.9458  -30.1447   23.8900 C   0  0  0  0  0  0
  -17.6459  -30.6582   24.0564 C   0  0  0  0  0  0
  -25.9049  -34.9451   23.5104 C   0  0  0  0  0  0
  -16.5349  -29.9083   23.6327 C   0  0  0  0  0  0
  -16.7271  -28.6499   23.0350 C   0  0  0  0  0  0
  -26.4489  -31.6587   25.0714 C   0  0  0  0  0  0
  -25.3731  -31.3700   26.1444 C   0  0  0  0  0  0
  -27.0341  -30.3024   24.6143 C   0  0  0  0  0  0
  -27.6045  -32.4324   25.7491 C   0  0  0  0  0  0
  -27.5577  -37.1804   24.8464 C   0  0  0  0  0  0
  -21.4173  -29.3032   22.3689 N   0  0  0  0  0  0
  -26.4291  -37.3778   23.9405 N   0  0  0  0  0  0
  -24.6820  -31.0645   22.0958 N   0  0  0  0  0  0
  -23.4191  -28.8166   23.3019 O   0  0  0  0  0  0
  -28.3755  -26.5581   20.1886 O   0  0  0  0  0  0
  -26.5619  -34.8916   22.4672 O   0  0  0  0  0  0
  -23.5406  -32.1387   23.7383 O   0  0  0  0  0  0
  -29.7749  -22.4309   21.5611 C   0  0  0  0  0  0
  -29.0999  -21.5053   19.3077 C   0  0  0  0  0  0
  -29.1006  -23.7923   21.1961 C   0  0  0  0  0  0
  -28.4104  -22.8860   19.0201 C   0  0  0  0  0  0
  -29.2847  -21.1292   20.8142 C   0  0  1  0  0  0
  -29.1565  -24.0813   19.6859 C   0  0  1  0  0  0
  -29.3603  -19.5649   23.5961 C   0  0  0  0  0  0
  -31.5245  -19.9437   20.3466 C   0  0  0  0  0  0
  -30.2567  -26.2562   18.9964 C   0  0  0  0  0  0
  -28.2087  -25.6469   17.8002 C   0  0  0  0  0  0
  -30.5445  -19.7662   22.6335 C   0  0  0  0  0  0
  -29.5615  -18.3802   20.7186 C   0  0  0  0  0  0
  -30.4949  -17.0996   20.9339 C   0  0  0  0  0  0
  -30.1854  -19.8078   21.1131 C   0  0  1  0  0  0
  -28.8751  -25.5951   19.1968 C   0  0  0  0  0  0
  -29.9342  -15.7150   20.8002 N   0  0  0  0  0  0
  -31.4657  -12.4721   19.1458 H   0  0  0  0  0  0
  -30.3369  -11.3796   19.8976 H   0  0  0  0  0  0
  -29.7563  -11.7371   17.4747 H   0  0  0  0  0  0
  -29.6492  -13.4601   17.7357 H   0  0  0  0  0  0
  -27.8550  -11.2902   18.8697 H   0  0  0  0  0  0
  -27.3671  -12.5698   17.7910 H   0  0  0  0  0  0
  -27.6639  -14.2531   19.5090 H   0  0  0  0  0  0
  -28.6961  -12.0805   21.3975 H   0  0  0  0  0  0
  -28.4509  -13.7543   21.8197 H   0  0  0  0  0  0
  -25.2759   -9.5684   22.4765 H   0  0  0  0  0  0
  -23.9996   -7.4637   22.7480 H   0  0  0  0  0  0
  -21.0845   -8.8774   19.8949 H   0  0  0  0  0  0
  -22.3700  -10.9673   19.6165 H   0  0  0  0  0  0
  -21.2005   -7.6149   23.9715 H   0  0  0  0  0  0
  -21.1481   -6.0523   25.9077 H   0  0  0  0  0  0
  -22.0600   -2.7608   23.2847 H   0  0  0  0  0  0
  -22.4092  -11.9873   22.4789 H   0  0  0  0  0  0
  -21.1096  -13.1242   22.2612 H   0  0  0  0  0  0
  -24.6568  -15.8445   20.5215 H   0  0  0  0  0  0
  -26.2721  -15.6309   20.0773 H   0  0  0  0  0  0
  -26.7160  -32.5453   23.1100 H   0  0  0  0  0  0
  -25.0060  -33.9724   25.0420 H   0  0  0  0  0  0
  -22.7068  -31.3035   21.4043 H   0  0  0  0  0  0
  -23.3748  -35.9629   23.3306 H   0  0  0  0  0  0
  -24.3574  -36.8918   22.2054 H   0  0  0  0  0  0
  -23.7243  -37.6498   23.6664 H   0  0  0  0  0  0
  -26.0783  -31.5705   20.6012 H   0  0  0  0  0  0
  -26.8336  -30.8486   21.9927 H   0  0  0  0  0  0
  -28.1084  -29.0215   21.1605 H   0  0  0  0  0  0
  -25.9527  -25.8783   19.1446 H   0  0  0  0  0  0
  -23.9518  -27.2693   19.0801 H   0  0  0  0  0  0
  -23.7396  -30.5943   19.4022 H   0  0  0  0  0  0
  -22.7456  -29.2443   19.8602 H   0  0  0  0  0  0
  -25.1294  -36.1937   25.0822 H   0  0  0  0  0  0
  -20.9969  -28.3252   24.1414 H   0  0  0  0  0  0
  -20.5664  -26.2286   23.3610 H   0  0  0  0  0  0
  -21.6639  -26.7430   22.1212 H   0  0  0  0  0  0
  -19.6910  -25.6295   21.1233 H   0  0  0  0  0  0
  -19.6690  -27.3194   20.6740 H   0  0  0  0  0  0
  -17.4199  -26.6680   21.4015 H   0  0  0  0  0  0
  -18.0321  -26.0060   22.9005 H   0  0  0  0  0  0
  -19.7935  -30.7259   24.2272 H   0  0  0  0  0  0
  -17.5017  -31.6261   24.5169 H   0  0  0  0  0  0
  -15.5350  -30.2986   23.7649 H   0  0  0  0  0  0
  -15.8672  -28.0819   22.7062 H   0  0  0  0  0  0
  -24.5928  -30.7022   25.7775 H   0  0  0  0  0  0
  -24.8887  -32.2851   26.4859 H   0  0  0  0  0  0
  -25.8069  -30.8897   27.0223 H   0  0  0  0  0  0
  -26.2909  -29.6770   24.1183 H   0  0  0  0  0  0
  -27.4084  -29.7279   25.4628 H   0  0  0  0  0  0
  -27.8753  -30.4337   23.9332 H   0  0  0  0  0  0
  -27.2653  -33.3628   26.2057 H   0  0  0  0  0  0
  -28.3860  -32.6879   25.0322 H   0  0  0  0  0  0
  -28.0706  -31.8457   26.5418 H   0  0  0  0  0  0
  -28.2593  -38.0103   24.7510 H   0  0  0  0  0  0
  -28.1073  -36.2631   24.6295 H   0  0  0  0  0  0
  -27.2290  -37.1460   25.8866 H   0  0  0  0  0  0
  -20.9346  -29.8761   21.6910 H   0  0  0  0  0  0
  -26.0173  -38.2853   24.1408 H   0  0  0  0  0  0
  -29.6468  -22.3066   22.6356 H   0  0  0  0  0  0
  -30.8456  -22.5546   21.4057 H   0  0  0  0  0  0
  -30.0711  -21.5359   18.8160 H   0  0  0  0  0  0
  -28.5440  -20.7123   18.8067 H   0  0  0  0  0  0
  -29.6038  -24.5937   21.7387 H   0  0  0  0  0  0
  -28.0644  -23.8029   21.5363 H   0  0  0  0  0  0
  -27.3702  -22.8652   19.3476 H   0  0  0  0  0  0
  -28.3844  -23.0129   17.9384 H   0  0  0  0  0  0
  -28.2838  -20.9228   21.1956 H   0  0  0  0  0  0
  -30.1954  -23.8955   19.4088 H   0  0  0  0  0  0
  -29.6956  -19.6383   24.6310 H   0  0  0  0  0  0
  -28.9039  -18.5823   23.4795 H   0  0  0  0  0  0
  -28.5825  -20.3147   23.4551 H   0  0  0  0  0  0
  -31.9756  -20.9276   20.4637 H   0  0  0  0  0  0
  -31.3963  -19.7695   19.2781 H   0  0  0  0  0  0
  -32.2706  -19.2285   20.6933 H   0  0  0  0  0  0
  -30.8521  -25.7423   18.2406 H   0  0  0  0  0  0
  -30.8361  -26.2552   19.9212 H   0  0  0  0  0  0
  -30.1621  -27.2945   18.6745 H   0  0  0  0  0  0
  -28.8510  -25.1903   17.0463 H   0  0  0  0  0  0
  -28.0216  -26.6700   17.4730 H   0  0  0  0  0  0
  -27.2709  -25.0978   17.7552 H   0  0  0  0  0  0
  -31.2768  -18.9876   22.8378 H   0  0  0  0  0  0
  -31.0847  -20.6666   22.9233 H   0  0  0  0  0  0
  -28.6263  -18.2356   21.2589 H   0  0  0  0  0  0
  -29.2690  -18.4107   19.6683 H   0  0  0  0  0  0
  -30.9241  -17.1162   21.9329 H   0  0  0  0  0  0
  -31.3409  -17.1880   20.2515 H   0  0  0  0  0  0
  -28.9584  -15.5785   21.0178 H   0  0  0  0  0  0
  1 25  1  0  0  0
  1 30  2  0  0  0
  1 86  1  0  0  0
  2  3  1  0  0  0
  2 25  1  0  0  0
  2 87  1  0  0  0
  2 88  1  0  0  0
  3  4  1  0  0  0
  3 89  1  0  0  0
  3 90  1  0  0  0
  4  5  1  0  0  0
  4 91  1  0  0  0
  4 92  1  0  0  0
  5  6  1  0  0  0
  5 26  1  0  0  0
  5 93  1  0  0  0
  6 25  1  0  0  0
  6 94  1  0  0  0
  6 95  1  0  0  0
  7  8  2  0  0  0
  7 26  1  0  0  0
  7 29  1  0  0  0
  8  9  1  0  0  0
  8 22  1  0  0  0
  9 10  1  0  0  0
  9 27  2  0  0  0
 10 11  2  0  0  0
 10 15  1  0  0  0
 11 12  1  0  0  0
 11 96  1  0  0  0
 12 13  2  0  0  0
 12 97  1  0  0  0
 13 14  1  0  0  0
 13 31  1  0  0  0
 14 15  2  0  0  0
 14 98  1  0  0  0
 15 99  1  0  0  0
 16 17  2  0  0  0
 16 21  1  0  0  0
 16 31  1  0  0  0
 17 18  1  0  0  0
 17100  1  0  0  0
 18 19  2  0  0  0
 18101  1  0  0  0
 19 20  1  0  0  0
 19 24  1  0  0  0
 20 21  2  0  0  0
 20102  1  0  0  0
 21 23  1  0  0  0
 22 28  1  0  0  0
 22 32  2  0  0  0
 26 27  1  0  0  0
 28103  1  0  0  0
 28104  1  0  0  0
 29105  1  0  0  0
 29106  1  0  0  0
 33 34  1  0  0  0
 33 66  1  0  0  0
 33 70  2  0  0  0
 34 36  1  0  0  0
 34 59  1  0  0  0
 34107  1  0  0  0
 35 44  2  0  0  0
 35 45  1  0  0  0
 35 68  1  0  0  0
 36 56  1  0  0  0
 36108  1  0  0  0
 37 39  1  0  0  0
 37 47  1  0  0  0
 37 66  1  0  0  0
 37109  1  0  0  0
 38 43  2  0  0  0
 38 46  1  0  0  0
 38 47  1  0  0  0
 39 64  1  0  0  0
 39 67  2  0  0  0
 40 52  1  0  0  0
 40 53  2  0  0  0
 40 58  1  0  0  0
 41110  1  0  0  0
 41111  1  0  0  0
 41112  1  0  0  0
 41 48  1  0  0  0
 42 43  1  0  0  0
 42 66  1  0  0  0
 42113  1  0  0  0
 42114  1  0  0  0
 43 44  1  0  0  0
 44115  1  0  0  0
 45 46  2  0  0  0
 45116  1  0  0  0
 46117  1  0  0  0
 47118  1  0  0  0
 47119  1  0  0  0
 48 56  1  0  0  0
 48 65  1  0  0  0
 48120  1  0  0  0
 49 50  1  0  0  0
 49 53  1  0  0  0
 49 64  1  0  0  0
 49121  1  0  0  0
 50 51  1  0  0  0
 50122  1  0  0  0
 50123  1  0  0  0
 51 52  1  0  0  0
 51124  1  0  0  0
 51125  1  0  0  0
 52126  1  0  0  0
 52127  1  0  0  0
 53 54  1  0  0  0
 54 55  2  0  0  0
 54128  1  0  0  0
 55 57  1  0  0  0
 55129  1  0  0  0
 56 69  2  0  0  0
 57 58  2  0  0  0
 57130  1  0  0  0
 58131  1  0  0  0
 59 60  1  0  0  0
 59 61  1  0  0  0
 59 62  1  0  0  0
 60132  1  0  0  0
 60133  1  0  0  0
 60134  1  0  0  0
 61135  1  0  0  0
 61136  1  0  0  0
 61137  1  0  0  0
 62138  1  0  0  0
 62139  1  0  0  0
 62140  1  0  0  0
 63 65  1  0  0  0
 63141  1  0  0  0
 63142  1  0  0  0
 63143  1  0  0  0
 64144  1  0  0  0
 65145  1  0  0  0
 68 85  1  0  0  0
 71 73  1  0  0  0
 71146  1  0  0  0
 71147  1  0  0  0
 71 75  1  0  0  0
 72 74  1  0  0  0
 72 75  1  0  0  0
 72148  1  0  0  0
 72149  1  0  0  0
 73150  1  0  0  0
 73151  1  0  0  0
 73 76  1  0  0  0
 74 76  1  0  0  0
 74152  1  0  0  0
 74153  1  0  0  0
 75 84  1  0  0  0
 75154  1  0  0  0
 76 85  1  0  0  0
 76155  1  0  0  0
 77 81  1  0  0  0
 77156  1  0  0  0
 77157  1  0  0  0
 77158  1  0  0  0
 78159  1  0  0  0
 78160  1  0  0  0
 78161  1  0  0  0
 78 84  1  0  0  0
 79162  1  0  0  0
 79163  1  0  0  0
 79164  1  0  0  0
 79 85  1  0  0  0
 80 85  1  0  0  0
 80165  1  0  0  0
 80166  1  0  0  0
 80167  1  0  0  0
 81 84  1  0  0  0
 81168  1  0  0  0
 81169  1  0  0  0
 82 83  1  0  0  0
 82 84  1  0  0  0
 82170  1  0  0  0
 82171  1  0  0  0
 83 86  1  0  0  0
 83172  1  0  0  0
 83173  1  0  0  0
 86174  1  0  0  0
M  ISO  4   1 100  68 101  85 101  86 100
M  END
> <chiral flag>
0

> <version>
0

> <s_m_source_file>
/data/baiqing/PycharmProjects/Reinvent-master-3.2/result/LINK_invent/BTK/process_docking_weight1_custom_sum_contain_oxygen_bond_distance_aromatic_linkinvent_7_9_3/rearranged_h_0085.sdf

> <i_m_source_file_index>
51

> <r_mmod_Potential_Energy-OPLS-2005>
162.251449584961

> <r_mmod_Stretch_Energy-OPLS-2005>
87.2656021118164

> <r_mmod_Bend_Energy-OPLS-2005>
193.748794555664

> <r_mmod_Torsional_Energy-OPLS-2005>
282.456787109375

> <r_mmod_Improper_Torsional_Energy-OPLS-2005>
4.4952564239502

> <r_mmod_Van_der_Waal_Energy-OPLS-2005>
149.892135620117

> <r_mmod_Electrostatic_Energy-OPLS-2005>
-411.892761230469

> <r_mmod_Solvation_Energy-OPLS-2005>
-182.329391479492

> <b_mmod_Minimization_Converged-OPLS-2005>
0

> <r_mmod_RMS_Derivative-OPLS-2005>
0.517696142196655

$$$$
54
                    3D
 Structure written by MMmdl.
171179  0  0  1  0            999 V2000
  -30.6315  -14.5016   20.6263 C   0  0  0  0  0  0
  -30.4225  -12.3145   19.4866 C   0  0  0  0  0  0
  -29.5121  -12.4767   18.2476 C   0  0  0  0  0  0
  -28.0173  -12.3587   18.6223 C   0  0  0  0  0  0
  -27.6441  -13.2051   19.8704 C   0  0  2  0  0  0
  -28.6631  -12.9784   21.0085 C   0  0  0  0  0  0
  -25.2415  -13.8212   20.5683 C   0  0  0  0  0  0
  -24.1625  -13.0443   20.9183 C   0  0  0  0  0  0
  -24.6177  -11.6945   20.8580 C   0  0  0  0  0  0
  -23.8890  -10.4298   21.0266 C   0  0  0  0  0  0
  -24.3472   -9.4259   21.9067 C   0  0  0  0  0  0
  -23.6214   -8.2269   22.0687 C   0  0  0  0  0  0
  -22.4192   -8.0271   21.3513 C   0  0  0  0  0  0
  -21.9798   -9.0208   20.4600 C   0  0  0  0  0  0
  -22.7054  -10.2112   20.2960 C   0  0  0  0  0  0
  -21.6879   -6.0651   22.5251 C   0  0  0  0  0  0
  -21.4028   -6.5560   23.8182 C   0  0  0  0  0  0
  -21.3697   -5.6725   24.9164 C   0  0  0  0  0  0
  -21.6085   -4.2997   24.7216 C   0  0  0  0  0  0
  -21.8821   -3.8067   23.4338 C   0  0  0  0  0  0
  -21.9185   -4.6870   22.3374 C   0  0  0  0  0  0
  -22.7669  -13.5255   21.1954 C   0  0  0  0  0  0
  -22.1640   -4.2049   21.0947 F   0  0  0  0  0  0
  -21.5668   -3.4494   25.7736 F   0  0  0  0  0  0
  -30.0052  -13.3001   20.4941 N   0  0  0  0  0  0
  -26.2806  -12.9356   20.3240 N   0  0  0  0  0  0
  -25.9092  -11.6502   20.5565 N   0  0  0  0  0  0
  -22.0346  -12.8201   22.0542 N   0  0  0  0  0  0
  -25.4223  -15.1905   20.4244 N   0  0  0  0  0  0
  -31.7288  -14.7507   20.1171 O   0  0  0  0  0  0
  -21.6643   -6.8787   21.4215 O   0  0  0  0  0  0
  -22.3296  -14.5543   20.6848 O   0  0  0  0  0  0
  -24.6172  -31.8716   23.2171 C   0  0  0  0  0  0
  -25.9090  -32.4832   23.8421 C   0  0  1  0  0  0
  -27.1978  -27.4415   20.0649 C   0  0  0  0  0  0
  -25.5974  -33.8621   24.2366 N   0  0  0  0  0  0
  -23.3947  -30.5042   21.5609 C   0  0  2  0  0  0
  -24.8264  -28.9749   20.1275 C   0  0  0  0  0  0
  -22.7385  -29.4719   22.5054 C   0  0  0  0  0  0
  -18.0253  -28.1403   22.8516 C   0  0  0  0  0  0
  -24.1456  -36.7197   23.2639 C   0  0  0  0  0  0
  -25.9303  -30.8375   21.3722 C   0  0  0  0  0  0
  -25.9957  -29.4782   20.7063 C   0  0  0  0  0  0
  -27.1865  -28.7188   20.6719 C   0  0  0  0  0  0
  -25.9815  -26.9293   19.5467 C   0  0  0  0  0  0
  -24.8087  -27.6967   19.5552 C   0  0  0  0  0  0
  -23.5958  -29.8448   20.1765 C   0  0  0  0  0  0
  -25.4094  -36.3067   24.0342 C   0  0  1  0  0  0
  -20.5841  -28.3674   23.1357 C   0  0  2  0  0  0
  -20.6747  -26.9422   22.5433 C   0  0  0  0  0  0
  -19.5736  -26.6427   21.5224 C   0  0  0  0  0  0
  -18.1906  -26.7974   22.1639 C   0  0  0  0  0  0
  -19.1499  -28.8859   23.2944 C   0  0  0  0  0  0
  -18.9435  -30.1451   23.8963 C   0  0  0  0  0  0
  -17.6435  -30.6620   24.0577 C   0  0  0  0  0  0
  -25.9050  -34.9463   23.5112 C   0  0  0  0  0  0
  -16.5320  -29.9112   23.6345 C   0  0  0  0  0  0
  -16.7242  -28.6522   23.0398 C   0  0  0  0  0  0
  -26.4530  -31.6626   25.0729 C   0  0  0  0  0  0
  -25.3780  -31.3748   26.1462 C   0  0  0  0  0  0
  -27.0373  -30.3056   24.6176 C   0  0  0  0  0  0
  -27.6146  -32.4353   25.7474 C   0  0  0  0  0  0
  -27.5563  -37.1748   24.8496 C   0  0  0  0  0  0
  -21.4117  -29.3045   22.3775 N   0  0  0  0  0  0
  -26.4272  -37.3765   23.9444 N   0  0  0  0  0  0
  -24.6638  -31.0857   22.1069 N   0  0  0  0  0  0
  -23.4169  -28.8258   23.3062 O   0  0  0  0  0  0
  -28.3891  -26.7495   19.9881 O   0  0  0  0  0  0
  -26.5573  -34.8909   22.4664 O   0  0  0  0  0  0
  -23.5363  -32.1503   23.7592 O   0  0  0  0  0  0
  -30.8071  -20.2656   20.2926 C   0  0  0  0  0  0
  -30.1261  -19.3093   21.0005 C   0  0  0  0  0  0
  -28.9066  -19.9702   21.4194 C   0  0  0  0  0  0
  -31.4159  -17.7270   22.5242 C   0  0  0  0  0  0
  -27.1346  -20.7540   23.0520 C   0  0  0  0  0  0
  -27.8909  -18.4308   23.3011 C   0  0  0  0  0  0
  -26.5065  -19.0585   21.3161 C   0  0  0  0  0  0
  -29.8381  -23.9527   20.3775 C   0  0  0  0  0  0
  -28.4540  -24.3116   19.8116 C   0  0  0  0  0  0
  -30.4708  -22.7097   19.7195 C   0  0  0  0  0  0
  -29.7233  -16.8319   20.6636 C   0  0  0  0  0  0
  -28.4750  -25.6552   19.0655 C   0  0  0  0  0  0
  -30.6995  -17.9142   21.1730 C   0  0  1  0  0  0
  -27.6528  -19.5414   22.2424 C   0  0  0  0  0  0
  -28.8883  -21.2117   20.9106 N   0  0  0  0  0  0
  -30.0769  -21.4227   20.2994 N   0  0  0  0  0  0
  -29.8701  -15.4640   21.1851 N   0  0  0  0  0  0
  -31.4760  -12.4214   19.2255 H   0  0  0  0  0  0
  -30.3288  -11.3116   19.9070 H   0  0  0  0  0  0
  -29.7682  -11.7188   17.5093 H   0  0  0  0  0  0
  -29.6933  -13.4408   17.7724 H   0  0  0  0  0  0
  -27.8001  -11.3070   18.8188 H   0  0  0  0  0  0
  -27.3975  -12.6468   17.7739 H   0  0  0  0  0  0
  -27.6957  -14.2474   19.5610 H   0  0  0  0  0  0
  -28.6330  -11.9336   21.3187 H   0  0  0  0  0  0
  -28.3866  -13.5393   21.9048 H   0  0  0  0  0  0
  -25.2606   -9.5832   22.4638 H   0  0  0  0  0  0
  -23.9994   -7.4663   22.7374 H   0  0  0  0  0  0
  -21.0776   -8.8625   19.8884 H   0  0  0  0  0  0
  -22.3427  -10.9600   19.6060 H   0  0  0  0  0  0
  -21.2012   -7.6063   23.9681 H   0  0  0  0  0  0
  -21.1552   -6.0433   25.9068 H   0  0  0  0  0  0
  -22.0566   -2.7532   23.2841 H   0  0  0  0  0  0
  -22.3943  -11.9878   22.4942 H   0  0  0  0  0  0
  -21.0956  -13.1177   22.2759 H   0  0  0  0  0  0
  -24.6846  -15.8719   20.5829 H   0  0  0  0  0  0
  -26.2998  -15.6220   20.1674 H   0  0  0  0  0  0
  -26.7143  -32.5538   23.1177 H   0  0  0  0  0  0
  -25.0183  -33.9801   25.0553 H   0  0  0  0  0  0
  -22.6833  -31.3207   21.4283 H   0  0  0  0  0  0
  -23.3775  -35.9482   23.3337 H   0  0  0  0  0  0
  -24.3539  -36.8761   22.2049 H   0  0  0  0  0  0
  -23.7147  -37.6381   23.6619 H   0  0  0  0  0  0
  -26.0583  -31.6173   20.6198 H   0  0  0  0  0  0
  -26.8146  -30.8673   21.9983 H   0  0  0  0  0  0
  -28.0997  -29.1119   21.0970 H   0  0  0  0  0  0
  -25.8880  -25.9324   19.1431 H   0  0  0  0  0  0
  -23.8904  -27.2957   19.1478 H   0  0  0  0  0  0
  -23.7018  -30.6157   19.4118 H   0  0  0  0  0  0
  -22.7203  -29.2627   19.8867 H   0  0  0  0  0  0
  -25.1272  -36.1905   25.0831 H   0  0  0  0  0  0
  -20.9917  -28.3226   24.1501 H   0  0  0  0  0  0
  -20.5642  -26.2273   23.3597 H   0  0  0  0  0  0
  -21.6614  -26.7490   22.1227 H   0  0  0  0  0  0
  -19.6866  -25.6353   21.1233 H   0  0  0  0  0  0
  -19.6685  -27.3260   20.6760 H   0  0  0  0  0  0
  -17.4171  -26.6748   21.4042 H   0  0  0  0  0  0
  -18.0308  -26.0119   22.9027 H   0  0  0  0  0  0
  -19.7872  -30.7255   24.2429 H   0  0  0  0  0  0
  -17.4963  -31.6332   24.5132 H   0  0  0  0  0  0
  -15.5317  -30.3031   23.7642 H   0  0  0  0  0  0
  -15.8637  -28.0819   22.7159 H   0  0  0  0  0  0
  -24.5911  -30.7177   25.7734 H   0  0  0  0  0  0
  -24.9027  -32.2914   26.4959 H   0  0  0  0  0  0
  -25.8079  -30.8812   27.0183 H   0  0  0  0  0  0
  -26.2922  -29.6798   24.1238 H   0  0  0  0  0  0
  -27.4101  -29.7337   25.4687 H   0  0  0  0  0  0
  -27.8783  -30.4335   23.9357 H   0  0  0  0  0  0
  -27.2829  -33.3693   26.2031 H   0  0  0  0  0  0
  -28.3962  -32.6868   25.0284 H   0  0  0  0  0  0
  -28.0815  -31.8476   26.5401 H   0  0  0  0  0  0
  -28.2607  -38.0012   24.7555 H   0  0  0  0  0  0
  -28.1010  -36.2557   24.6315 H   0  0  0  0  0  0
  -27.2269  -37.1400   25.8890 H   0  0  0  0  0  0
  -20.9285  -29.8740   21.6980 H   0  0  0  0  0  0
  -26.0134  -38.2805   24.1549 H   0  0  0  0  0  0
  -31.7633  -20.2171   19.7937 H   0  0  0  0  0  0
  -31.9379  -16.7714   22.5563 H   0  0  0  0  0  0
  -30.7616  -17.7939   23.3859 H   0  0  0  0  0  0
  -32.1896  -18.4932   22.6352 H   0  0  0  0  0  0
  -27.9081  -21.1328   23.7223 H   0  0  0  0  0  0
  -26.2671  -20.5019   23.6631 H   0  0  0  0  0  0
  -26.8255  -21.5810   22.4071 H   0  0  0  0  0  0
  -28.7556  -18.6300   23.9346 H   0  0  0  0  0  0
  -27.9741  -17.4290   22.8784 H   0  0  0  0  0  0
  -27.0246  -18.3816   23.9695 H   0  0  0  0  0  0
  -26.0971  -19.8669   20.7126 H   0  0  0  0  0  0
  -25.6778  -18.6364   21.8922 H   0  0  0  0  0  0
  -26.8306  -18.2792   20.6319 H   0  0  0  0  0  0
  -29.7874  -23.8179   21.4564 H   0  0  0  0  0  0
  -30.5111  -24.7987   20.2340 H   0  0  0  0  0  0
  -27.6997  -24.3192   20.6001 H   0  0  0  0  0  0
  -28.1338  -23.5314   19.1207 H   0  0  0  0  0  0
  -31.5541  -22.7952   19.8357 H   0  0  0  0  0  0
  -30.2945  -22.6954   18.6402 H   0  0  0  0  0  0
  -29.8150  -16.8212   19.5735 H   0  0  0  0  0  0
  -28.6880  -17.1260   20.8309 H   0  0  0  0  0  0
  -27.7125  -25.6643   18.2895 H   0  0  0  0  0  0
  -29.3975  -25.7437   18.4930 H   0  0  0  0  0  0
  -31.5356  -17.8262   20.4765 H   0  0  0  0  0  0
  -29.0543  -15.1404   21.6849 H   0  0  0  0  0  0
  1 25  1  0  0  0
  1 30  2  0  0  0
  1 87  1  0  0  0
  2  3  1  0  0  0
  2 25  1  0  0  0
  2 88  1  0  0  0
  2 89  1  0  0  0
  3  4  1  0  0  0
  3 90  1  0  0  0
  3 91  1  0  0  0
  4  5  1  0  0  0
  4 92  1  0  0  0
  4 93  1  0  0  0
  5  6  1  0  0  0
  5 26  1  0  0  0
  5 94  1  0  0  0
  6 25  1  0  0  0
  6 95  1  0  0  0
  6 96  1  0  0  0
  7  8  2  0  0  0
  7 26  1  0  0  0
  7 29  1  0  0  0
  8  9  1  0  0  0
  8 22  1  0  0  0
  9 10  1  0  0  0
  9 27  2  0  0  0
 10 11  2  0  0  0
 10 15  1  0  0  0
 11 12  1  0  0  0
 11 97  1  0  0  0
 12 13  2  0  0  0
 12 98  1  0  0  0
 13 14  1  0  0  0
 13 31  1  0  0  0
 14 15  2  0  0  0
 14 99  1  0  0  0
 15100  1  0  0  0
 16 17  2  0  0  0
 16 21  1  0  0  0
 16 31  1  0  0  0
 17 18  1  0  0  0
 17101  1  0  0  0
 18 19  2  0  0  0
 18102  1  0  0  0
 19 20  1  0  0  0
 19 24  1  0  0  0
 20 21  2  0  0  0
 20103  1  0  0  0
 21 23  1  0  0  0
 22 28  1  0  0  0
 22 32  2  0  0  0
 26 27  1  0  0  0
 28104  1  0  0  0
 28105  1  0  0  0
 29106  1  0  0  0
 29107  1  0  0  0
 33 34  1  0  0  0
 33 66  1  0  0  0
 33 70  2  0  0  0
 34 36  1  0  0  0
 34 59  1  0  0  0
 34108  1  0  0  0
 35 44  2  0  0  0
 35 45  1  0  0  0
 35 68  1  0  0  0
 36 56  1  0  0  0
 36109  1  0  0  0
 37 39  1  0  0  0
 37 47  1  0  0  0
 37 66  1  0  0  0
 37110  1  0  0  0
 38 43  2  0  0  0
 38 46  1  0  0  0
 38 47  1  0  0  0
 39 64  1  0  0  0
 39 67  2  0  0  0
 40 52  1  0  0  0
 40 53  2  0  0  0
 40 58  1  0  0  0
 41111  1  0  0  0
 41112  1  0  0  0
 41113  1  0  0  0
 41 48  1  0  0  0
 42 43  1  0  0  0
 42 66  1  0  0  0
 42114  1  0  0  0
 42115  1  0  0  0
 43 44  1  0  0  0
 44116  1  0  0  0
 45 46  2  0  0  0
 45117  1  0  0  0
 46118  1  0  0  0
 47119  1  0  0  0
 47120  1  0  0  0
 48 56  1  0  0  0
 48 65  1  0  0  0
 48121  1  0  0  0
 49 50  1  0  0  0
 49 53  1  0  0  0
 49 64  1  0  0  0
 49122  1  0  0  0
 50 51  1  0  0  0
 50123  1  0  0  0
 50124  1  0  0  0
 51 52  1  0  0  0
 51125  1  0  0  0
 51126  1  0  0  0
 52127  1  0  0  0
 52128  1  0  0  0
 53 54  1  0  0  0
 54 55  2  0  0  0
 54129  1  0  0  0
 55 57  1  0  0  0
 55130  1  0  0  0
 56 69  2  0  0  0
 57 58  2  0  0  0
 57131  1  0  0  0
 58132  1  0  0  0
 59 60  1  0  0  0
 59 61  1  0  0  0
 59 62  1  0  0  0
 60133  1  0  0  0
 60134  1  0  0  0
 60135  1  0  0  0
 61136  1  0  0  0
 61137  1  0  0  0
 61138  1  0  0  0
 62139  1  0  0  0
 62140  1  0  0  0
 62141  1  0  0  0
 63 65  1  0  0  0
 63142  1  0  0  0
 63143  1  0  0  0
 63144  1  0  0  0
 64145  1  0  0  0
 65146  1  0  0  0
 68 82  1  0  0  0
 71 72  2  0  0  0
 71 86  1  0  0  0
 71147  1  0  0  0
 72 73  1  0  0  0
 72 83  1  0  0  0
 73 84  1  0  0  0
 73 85  2  0  0  0
 74148  1  0  0  0
 74149  1  0  0  0
 74150  1  0  0  0
 74 83  1  0  0  0
 75151  1  0  0  0
 75152  1  0  0  0
 75153  1  0  0  0
 75 84  1  0  0  0
 76 84  1  0  0  0
 76154  1  0  0  0
 76155  1  0  0  0
 76156  1  0  0  0
 77 84  1  0  0  0
 77157  1  0  0  0
 77158  1  0  0  0
 77159  1  0  0  0
 78 79  1  0  0  0
 78 80  1  0  0  0
 78160  1  0  0  0
 78161  1  0  0  0
 79 82  1  0  0  0
 79162  1  0  0  0
 79163  1  0  0  0
 80 86  1  0  0  0
 80164  1  0  0  0
 80165  1  0  0  0
 81 83  1  0  0  0
 81 87  1  0  0  0
 81166  1  0  0  0
 81167  1  0  0  0
 82168  1  0  0  0
 82169  1  0  0  0
 83170  1  0  0  0
 85 86  1  0  0  0
 87171  1  0  0  0
M  ISO  4   1 100  68 101  82 101  87 100
M  END
> <chiral flag>
0

> <version>
0

> <s_m_source_file>
/data/baiqing/PycharmProjects/Reinvent-master-3.2/result/LINK_invent/BTK/process_docking_weight1_custom_sum_contain_oxygen_bond_distance_aromatic_linkinvent_7_9_3/rearranged_h_0085.sdf

> <i_m_source_file_index>
52

> <r_mmod_Potential_Energy-OPLS-2005>
-74.8076019287109

> <r_mmod_Stretch_Energy-OPLS-2005>
42.3721694946289

> <r_mmod_Bend_Energy-OPLS-2005>
140.674743652344

> <r_mmod_Torsional_Energy-OPLS-2005>
249.23388671875

> <r_mmod_Improper_Torsional_Energy-OPLS-2005>
6.4942045211792

> <r_mmod_Van_der_Waal_Energy-OPLS-2005>
136.647994995117

> <r_mmod_Electrostatic_Energy-OPLS-2005>
-462.309509277344

> <r_mmod_Solvation_Energy-OPLS-2005>
-208.137619018555

> <b_mmod_Minimization_Converged-OPLS-2005>
0

> <r_mmod_RMS_Derivative-OPLS-2005>
9.08238983154297

$$$$
55
                    3D
 Structure written by MMmdl.
178186  0  0  1  0            999 V2000
  -30.7325  -14.4896   20.5683 C   0  0  0  0  0  0
  -30.4103  -12.3173   19.4330 C   0  0  0  0  0  0
  -29.4903  -12.5032   18.2110 C   0  0  0  0  0  0
  -28.0149  -12.3635   18.6255 C   0  0  0  0  0  0
  -27.6584  -13.2191   19.8719 C   0  0  2  0  0  0
  -28.7024  -13.0408   20.9980 C   0  0  0  0  0  0
  -25.2571  -13.8198   20.5683 C   0  0  0  0  0  0
  -24.1838  -13.0442   20.9202 C   0  0  0  0  0  0
  -24.6416  -11.6920   20.8774 C   0  0  0  0  0  0
  -23.9083  -10.4289   21.0420 C   0  0  0  0  0  0
  -24.3630   -9.4201   21.9196 C   0  0  0  0  0  0
  -23.6293   -8.2242   22.0770 C   0  0  0  0  0  0
  -22.4273   -8.0292   21.3567 C   0  0  0  0  0  0
  -21.9915   -9.0267   20.4674 C   0  0  0  0  0  0
  -22.7255  -10.2135   20.3074 C   0  0  0  0  0  0
  -21.6849   -6.0742   22.5283 C   0  0  0  0  0  0
  -21.4015   -6.5649   23.8218 C   0  0  0  0  0  0
  -21.3661   -5.6801   24.9187 C   0  0  0  0  0  0
  -21.6028   -4.3061   24.7232 C   0  0  0  0  0  0
  -21.8814   -3.8157   23.4356 C   0  0  0  0  0  0
  -21.9187   -4.6971   22.3412 C   0  0  0  0  0  0
  -22.7860  -13.5229   21.1857 C   0  0  0  0  0  0
  -22.1649   -4.2153   21.0991 F   0  0  0  0  0  0
  -21.5628   -3.4548   25.7748 F   0  0  0  0  0  0
  -30.0285  -13.3310   20.4332 N   0  0  0  0  0  0
  -26.3015  -12.9384   20.3365 N   0  0  0  0  0  0
  -25.9345  -11.6533   20.5794 N   0  0  0  0  0  0
  -22.0474  -12.8235   22.0417 N   0  0  0  0  0  0
  -25.4266  -15.1915   20.4067 N   0  0  0  0  0  0
  -31.8545  -14.6266   20.0759 O   0  0  0  0  0  0
  -21.6644   -6.8885   21.4247 O   0  0  0  0  0  0
  -22.3538  -14.5512   20.6683 O   0  0  0  0  0  0
  -24.6170  -31.8648   23.2069 C   0  0  0  0  0  0
  -25.9049  -32.4808   23.8372 C   0  0  1  0  0  0
  -27.2330  -27.3977   20.1129 C   0  0  0  0  0  0
  -25.5901  -33.8600   24.2306 N   0  0  0  0  0  0
  -23.4075  -30.4873   21.5473 C   0  0  2  0  0  0
  -24.8558  -28.9435   20.1179 C   0  0  0  0  0  0
  -22.7426  -29.4657   22.4975 C   0  0  0  0  0  0
  -18.0277  -28.1392   22.8486 C   0  0  0  0  0  0
  -24.1491  -36.7300   23.2631 C   0  0  0  0  0  0
  -25.9392  -30.8211   21.3623 C   0  0  0  0  0  0
  -26.0188  -29.4513   20.7112 C   0  0  0  0  0  0
  -27.2135  -28.6879   20.6997 C   0  0  0  0  0  0
  -26.0543  -26.9160   19.5035 C   0  0  0  0  0  0
  -24.8703  -27.6775   19.5074 C   0  0  0  0  0  0
  -23.6192  -29.8137   20.1643 C   0  0  0  0  0  0
  -25.4115  -36.3092   24.0322 C   0  0  1  0  0  0
  -20.5868  -28.3676   23.1305 C   0  0  2  0  0  0
  -20.6766  -26.9407   22.5411 C   0  0  0  0  0  0
  -19.5750  -26.6391   21.5205 C   0  0  0  0  0  0
  -18.1931  -26.7941   22.1620 C   0  0  0  0  0  0
  -19.1527  -28.8855   23.2890 C   0  0  0  0  0  0
  -18.9453  -30.1462   23.8899 C   0  0  0  0  0  0
  -17.6457  -30.6591   24.0574 C   0  0  0  0  0  0
  -25.9041  -34.9461   23.5106 C   0  0  0  0  0  0
  -16.5351  -29.9090   23.6329 C   0  0  0  0  0  0
  -16.7267  -28.6510   23.0342 C   0  0  0  0  0  0
  -26.4473  -31.6597   25.0710 C   0  0  0  0  0  0
  -25.3741  -31.3712   26.1466 C   0  0  0  0  0  0
  -27.0275  -30.3030   24.6078 C   0  0  0  0  0  0
  -27.6037  -32.4310   25.7491 C   0  0  0  0  0  0
  -27.5579  -37.1809   24.8463 C   0  0  0  0  0  0
  -21.4149  -29.3039   22.3706 N   0  0  0  0  0  0
  -26.4294  -37.3781   23.9404 N   0  0  0  0  0  0
  -24.6730  -31.0727   22.0979 N   0  0  0  0  0  0
  -23.4175  -28.8192   23.3026 O   0  0  0  0  0  0
  -28.3832  -26.6265   20.1105 O   0  0  0  0  0  0
  -26.5595  -34.8916   22.4665 O   0  0  0  0  0  0
  -23.5347  -32.1405   23.7441 O   0  0  0  0  0  0
  -30.3794  -19.2580   20.4968 C   0  0  0  0  0  0
  -29.9662  -18.0822   21.0839 C   0  0  0  0  0  0
  -28.2517  -19.5292   21.0346 C   0  0  0  0  0  0
  -31.1719  -16.9247   22.9201 C   0  0  0  0  0  0
  -24.2960  -21.6453   18.7225 C   0  0  0  0  0  0
  -24.2885  -21.6700   21.2448 C   0  0  0  0  0  0
  -28.3694  -24.0841   18.4746 C   0  0  0  0  0  0
  -30.4909  -24.5129   19.7803 C   0  0  0  0  0  0
  -26.8776  -20.0828   21.2571 C   0  0  0  0  0  0
  -26.0748  -20.3368   19.9638 C   0  0  0  0  0  0
  -28.8451  -22.7521   20.6041 C   0  0  0  0  0  0
  -29.3445  -21.4875   19.8154 C   0  0  0  0  0  0
  -28.2751  -25.2946   20.6869 C   0  0  0  0  0  0
  -30.7559  -16.8378   21.4460 C   0  0  2  0  0  0
  -25.1645  -21.5855   19.9853 C   0  0  0  0  0  0
  -28.9961  -24.1504   19.8847 C   0  0  0  0  0  0
  -29.3192  -20.1398   20.4749 N   0  0  0  0  0  0
  -28.6478  -18.2979   21.4012 N   0  3  0  0  0  0
  -30.1160  -15.5270   21.1768 N   0  0  0  0  0  0
  -31.4594  -12.3822   19.1357 H   0  0  0  0  0  0
  -30.2889  -11.3151   19.8470 H   0  0  0  0  0  0
  -29.7283  -11.7715   17.4391 H   0  0  0  0  0  0
  -29.6604  -13.4840   17.7647 H   0  0  0  0  0  0
  -27.8289  -11.3097   18.8340 H   0  0  0  0  0  0
  -27.3606  -12.6237   17.7928 H   0  0  0  0  0  0
  -27.6883  -14.2610   19.5505 H   0  0  0  0  0  0
  -28.6820  -12.0180   21.3750 H   0  0  0  0  0  0
  -28.4674  -13.6729   21.8545 H   0  0  0  0  0  0
  -25.2764   -9.5649   22.4795 H   0  0  0  0  0  0
  -23.9980   -7.4621   22.7489 H   0  0  0  0  0  0
  -21.0844   -8.8810   19.8989 H   0  0  0  0  0  0
  -22.3725  -10.9693   19.6199 H   0  0  0  0  0  0
  -21.2022   -7.6160   23.9724 H   0  0  0  0  0  0
  -21.1478   -6.0541   25.9086 H   0  0  0  0  0  0
  -22.0593   -2.7619   23.2861 H   0  0  0  0  0  0
  -22.4064  -11.9892   22.4821 H   0  0  0  0  0  0
  -21.1103  -13.1313   22.2635 H   0  0  0  0  0  0
  -24.6404  -15.8282   20.4696 H   0  0  0  0  0  0
  -26.2513  -15.6169   20.0049 H   0  0  0  0  0  0
  -26.7123  -32.5524   23.1132 H   0  0  0  0  0  0
  -25.0088  -33.9771   25.0476 H   0  0  0  0  0  0
  -22.6971  -31.3033   21.4016 H   0  0  0  0  0  0
  -23.3743  -35.9645   23.3315 H   0  0  0  0  0  0
  -24.3575  -36.8897   22.2042 H   0  0  0  0  0  0
  -23.7265  -37.6513   23.6642 H   0  0  0  0  0  0
  -26.0490  -31.5846   20.5903 H   0  0  0  0  0  0
  -26.8261  -30.8815   21.9802 H   0  0  0  0  0  0
  -28.1135  -29.0745   21.1558 H   0  0  0  0  0  0
  -26.0496  -25.9469   19.0243 H   0  0  0  0  0  0
  -23.9776  -27.2815   19.0426 H   0  0  0  0  0  0
  -23.7317  -30.5848   19.4014 H   0  0  0  0  0  0
  -22.7429  -29.2330   19.8692 H   0  0  0  0  0  0
  -25.1302  -36.1944   25.0813 H   0  0  0  0  0  0
  -20.9957  -28.3254   24.1426 H   0  0  0  0  0  0
  -20.5661  -26.2291   23.3606 H   0  0  0  0  0  0
  -21.6648  -26.7450   22.1220 H   0  0  0  0  0  0
  -19.6918  -25.6295   21.1250 H   0  0  0  0  0  0
  -19.6706  -27.3189   20.6727 H   0  0  0  0  0  0
  -17.4201  -26.6673   21.4024 H   0  0  0  0  0  0
  -18.0342  -26.0086   22.9020 H   0  0  0  0  0  0
  -19.7933  -30.7279   24.2263 H   0  0  0  0  0  0
  -17.5014  -31.6275   24.5176 H   0  0  0  0  0  0
  -15.5349  -30.2994   23.7663 H   0  0  0  0  0  0
  -15.8669  -28.0841   22.7041 H   0  0  0  0  0  0
  -24.5924  -30.7032   25.7836 H   0  0  0  0  0  0
  -24.8919  -32.2865   26.4905 H   0  0  0  0  0  0
  -25.8110  -30.8919   27.0235 H   0  0  0  0  0  0
  -26.2807  -29.6835   24.1097 H   0  0  0  0  0  0
  -27.3997  -29.7227   25.4531 H   0  0  0  0  0  0
  -27.8675  -30.4334   23.9247 H   0  0  0  0  0  0
  -27.2648  -33.3597   26.2094 H   0  0  0  0  0  0
  -28.3859  -32.6887   25.0339 H   0  0  0  0  0  0
  -28.0694  -31.8417   26.5403 H   0  0  0  0  0  0
  -28.2604  -38.0096   24.7492 H   0  0  0  0  0  0
  -28.1066  -36.2624   24.6322 H   0  0  0  0  0  0
  -27.2286  -37.1503   25.8861 H   0  0  0  0  0  0
  -20.9303  -29.8766   21.6940 H   0  0  0  0  0  0
  -26.0176  -38.2851   24.1408 H   0  0  0  0  0  0
  -31.3500  -19.5262   20.0995 H   0  0  0  0  0  0
  -30.3115  -16.9414   23.5884 H   0  0  0  0  0  0
  -31.7468  -17.8333   23.1043 H   0  0  0  0  0  0
  -31.8003  -16.0808   23.2047 H   0  0  0  0  0  0
  -23.7266  -22.5749   18.6825 H   0  0  0  0  0  0
  -23.5829  -20.8206   18.6923 H   0  0  0  0  0  0
  -24.8996  -21.6012   17.8148 H   0  0  0  0  0  0
  -23.6125  -22.5246   21.1918 H   0  0  0  0  0  0
  -24.8864  -21.8008   22.1475 H   0  0  0  0  0  0
  -23.6826  -20.7719   21.3707 H   0  0  0  0  0  0
  -28.3705  -25.0641   17.9975 H   0  0  0  0  0  0
  -27.3334  -23.7467   18.5132 H   0  0  0  0  0  0
  -28.9124  -23.4133   17.8085 H   0  0  0  0  0  0
  -30.6298  -25.4601   19.2582 H   0  0  0  0  0  0
  -31.0669  -23.7656   19.2354 H   0  0  0  0  0  0
  -30.9422  -24.6166   20.7683 H   0  0  0  0  0  0
  -27.0085  -20.9700   21.8727 H   0  0  0  0  0  0
  -26.3468  -19.3679   21.8871 H   0  0  0  0  0  0
  -25.4964  -19.4417   19.7323 H   0  0  0  0  0  0
  -26.7627  -20.4514   19.1266 H   0  0  0  0  0  0
  -29.3441  -22.7874   21.5728 H   0  0  0  0  0  0
  -27.7915  -22.6324   20.8248 H   0  0  0  0  0  0
  -30.3805  -21.6519   19.5220 H   0  0  0  0  0  0
  -28.7914  -21.3786   18.8843 H   0  0  0  0  0  0
  -28.7214  -25.3560   21.6809 H   0  0  0  0  0  0
  -27.2363  -25.0125   20.8664 H   0  0  0  0  0  0
  -31.6775  -16.9109   20.8652 H   0  0  0  0  0  0
  -25.7941  -22.4740   19.9653 H   0  0  0  0  0  0
  -28.0490  -17.6277   21.8688 H   0  0  0  0  0  0
  -29.1803  -15.3702   21.5151 H   0  0  0  0  0  0
  1 25  1  0  0  0
  1 30  2  0  0  0
  1 89  1  0  0  0
  2  3  1  0  0  0
  2 25  1  0  0  0
  2 90  1  0  0  0
  2 91  1  0  0  0
  3  4  1  0  0  0
  3 92  1  0  0  0
  3 93  1  0  0  0
  4  5  1  0  0  0
  4 94  1  0  0  0
  4 95  1  0  0  0
  5  6  1  0  0  0
  5 26  1  0  0  0
  5 96  1  0  0  0
  6 25  1  0  0  0
  6 97  1  0  0  0
  6 98  1  0  0  0
  7  8  2  0  0  0
  7 26  1  0  0  0
  7 29  1  0  0  0
  8  9  1  0  0  0
  8 22  1  0  0  0
  9 10  1  0  0  0
  9 27  2  0  0  0
 10 11  2  0  0  0
 10 15  1  0  0  0
 11 12  1  0  0  0
 11 99  1  0  0  0
 12 13  2  0  0  0
 12100  1  0  0  0
 13 14  1  0  0  0
 13 31  1  0  0  0
 14 15  2  0  0  0
 14101  1  0  0  0
 15102  1  0  0  0
 16 17  2  0  0  0
 16 21  1  0  0  0
 16 31  1  0  0  0
 17 18  1  0  0  0
 17103  1  0  0  0
 18 19  2  0  0  0
 18104  1  0  0  0
 19 20  1  0  0  0
 19 24  1  0  0  0
 20 21  2  0  0  0
 20105  1  0  0  0
 21 23  1  0  0  0
 22 28  1  0  0  0
 22 32  2  0  0  0
 26 27  1  0  0  0
 28106  1  0  0  0
 28107  1  0  0  0
 29108  1  0  0  0
 29109  1  0  0  0
 33 34  1  0  0  0
 33 66  1  0  0  0
 33 70  2  0  0  0
 34 36  1  0  0  0
 34 59  1  0  0  0
 34110  1  0  0  0
 35 44  2  0  0  0
 35 45  1  0  0  0
 35 68  1  0  0  0
 36 56  1  0  0  0
 36111  1  0  0  0
 37 39  1  0  0  0
 37 47  1  0  0  0
 37 66  1  0  0  0
 37112  1  0  0  0
 38 43  2  0  0  0
 38 46  1  0  0  0
 38 47  1  0  0  0
 39 64  1  0  0  0
 39 67  2  0  0  0
 40 52  1  0  0  0
 40 53  2  0  0  0
 40 58  1  0  0  0
 41113  1  0  0  0
 41114  1  0  0  0
 41115  1  0  0  0
 41 48  1  0  0  0
 42 43  1  0  0  0
 42 66  1  0  0  0
 42116  1  0  0  0
 42117  1  0  0  0
 43 44  1  0  0  0
 44118  1  0  0  0
 45 46  2  0  0  0
 45119  1  0  0  0
 46120  1  0  0  0
 47121  1  0  0  0
 47122  1  0  0  0
 48 56  1  0  0  0
 48 65  1  0  0  0
 48123  1  0  0  0
 49 50  1  0  0  0
 49 53  1  0  0  0
 49 64  1  0  0  0
 49124  1  0  0  0
 50 51  1  0  0  0
 50125  1  0  0  0
 50126  1  0  0  0
 51 52  1  0  0  0
 51127  1  0  0  0
 51128  1  0  0  0
 52129  1  0  0  0
 52130  1  0  0  0
 53 54  1  0  0  0
 54 55  2  0  0  0
 54131  1  0  0  0
 55 57  1  0  0  0
 55132  1  0  0  0
 56 69  2  0  0  0
 57 58  2  0  0  0
 57133  1  0  0  0
 58134  1  0  0  0
 59 60  1  0  0  0
 59 61  1  0  0  0
 59 62  1  0  0  0
 60135  1  0  0  0
 60136  1  0  0  0
 60137  1  0  0  0
 61138  1  0  0  0
 61139  1  0  0  0
 61140  1  0  0  0
 62141  1  0  0  0
 62142  1  0  0  0
 62143  1  0  0  0
 63 65  1  0  0  0
 63144  1  0  0  0
 63145  1  0  0  0
 63146  1  0  0  0
 64147  1  0  0  0
 65148  1  0  0  0
 68 83  1  0  0  0
 71 72  2  0  0  0
 71 87  1  0  0  0
 71149  1  0  0  0
 72 84  1  0  0  0
 72 88  1  0  0  0
 73 79  1  0  0  0
 73 87  1  0  0  0
 73 88  2  0  0  0
 74150  1  0  0  0
 74151  1  0  0  0
 74152  1  0  0  0
 74 84  1  0  0  0
 75153  1  0  0  0
 75154  1  0  0  0
 75155  1  0  0  0
 75 85  1  0  0  0
 76 85  1  0  0  0
 76156  1  0  0  0
 76157  1  0  0  0
 76158  1  0  0  0
 77159  1  0  0  0
 77160  1  0  0  0
 77161  1  0  0  0
 77 86  1  0  0  0
 78 86  1  0  0  0
 78162  1  0  0  0
 78163  1  0  0  0
 78164  1  0  0  0
 79 80  1  0  0  0
 79165  1  0  0  0
 79166  1  0  0  0
 80 85  1  0  0  0
 80167  1  0  0  0
 80168  1  0  0  0
 81 82  1  0  0  0
 81 86  1  0  0  0
 81169  1  0  0  0
 81170  1  0  0  0
 82 87  1  0  0  0
 82171  1  0  0  0
 82172  1  0  0  0
 83 86  1  0  0  0
 83173  1  0  0  0
 83174  1  0  0  0
 84 89  1  0  0  0
 84175  1  0  0  0
 85176  1  0  0  0
 88177  1  0  0  0
 89178  1  0  0  0
M  CHG  1  88   1
M  ISO  4   1 100  68 101  83 101  89 100
M  END
> <chiral flag>
0

> <version>
0

> <s_m_source_file>
/data/baiqing/PycharmProjects/Reinvent-master-3.2/result/LINK_invent/BTK/process_docking_weight1_custom_sum_contain_oxygen_bond_distance_aromatic_linkinvent_7_9_3/rearranged_h_0085.sdf

> <i_m_source_file_index>
53

> <r_mmod_Potential_Energy-OPLS-2005>
-142.069900512695

> <r_mmod_Stretch_Energy-OPLS-2005>
48.7352294921875

> <r_mmod_Bend_Energy-OPLS-2005>
119.840042114258

> <r_mmod_Torsional_Energy-OPLS-2005>
255.494323730469

> <r_mmod_Improper_Torsional_Energy-OPLS-2005>
3.51019430160522

> <r_mmod_Van_der_Waal_Energy-OPLS-2005>
119.36710357666

> <r_mmod_Electrostatic_Energy-OPLS-2005>
-297.660125732422

> <r_mmod_Solvation_Energy-OPLS-2005>
-409.022674560547

> <b_mmod_Minimization_Converged-OPLS-2005>
0

> <r_mmod_RMS_Derivative-OPLS-2005>
2.99140357971191

$$$$
56
                    3D
 Structure written by MMmdl.
159167  0  0  1  0            999 V2000
  -30.7122  -14.4893   20.5641 C   0  0  0  0  0  0
  -30.4228  -12.3150   19.4353 C   0  0  0  0  0  0
  -29.4992  -12.5038   18.2151 C   0  0  0  0  0  0
  -28.0206  -12.3606   18.6249 C   0  0  0  0  0  0
  -27.6617  -13.2113   19.8738 C   0  0  2  0  0  0
  -28.7026  -13.0171   21.0007 C   0  0  0  0  0  0
  -25.2575  -13.8170   20.5648 C   0  0  0  0  0  0
  -24.1835  -13.0450   20.9163 C   0  0  0  0  0  0
  -24.6398  -11.6918   20.8736 C   0  0  0  0  0  0
  -23.9068  -10.4303   21.0398 C   0  0  0  0  0  0
  -24.3617   -9.4218   21.9178 C   0  0  0  0  0  0
  -23.6291   -8.2255   22.0753 C   0  0  0  0  0  0
  -22.4272   -8.0287   21.3547 C   0  0  0  0  0  0
  -21.9912   -9.0261   20.4648 C   0  0  0  0  0  0
  -22.7236  -10.2138   20.3053 C   0  0  0  0  0  0
  -21.6857   -6.0742   22.5280 C   0  0  0  0  0  0
  -21.4012   -6.5643   23.8215 C   0  0  0  0  0  0
  -21.3661   -5.6790   24.9176 C   0  0  0  0  0  0
  -21.6046   -4.3055   24.7221 C   0  0  0  0  0  0
  -21.8821   -3.8150   23.4342 C   0  0  0  0  0  0
  -21.9188   -4.6969   22.3399 C   0  0  0  0  0  0
  -22.7855  -13.5237   21.1835 C   0  0  0  0  0  0
  -22.1653   -4.2159   21.0975 F   0  0  0  0  0  0
  -21.5635   -3.4534   25.7732 F   0  0  0  0  0  0
  -30.0360  -13.3121   20.4481 N   0  0  0  0  0  0
  -26.3022  -12.9355   20.3350 N   0  0  0  0  0  0
  -25.9329  -11.6513   20.5765 N   0  0  0  0  0  0
  -22.0491  -12.8242   22.0394 N   0  0  0  0  0  0
  -25.4311  -15.1885   20.4011 N   0  0  0  0  0  0
  -31.8352  -14.6628   20.0846 O   0  0  0  0  0  0
  -21.6640   -6.8880   21.4242 O   0  0  0  0  0  0
  -22.3543  -14.5546   20.6679 O   0  0  0  0  0  0
  -24.6194  -31.8661   23.2097 C   0  0  0  0  0  0
  -25.9076  -32.4809   23.8394 C   0  0  1  0  0  0
  -27.2176  -27.3926   20.0971 C   0  0  0  0  0  0
  -25.5918  -33.8609   24.2315 N   0  0  0  0  0  0
  -23.4087  -30.4966   21.5497 C   0  0  2  0  0  0
  -24.8506  -28.9685   20.1090 C   0  0  0  0  0  0
  -22.7440  -29.4675   22.4943 C   0  0  0  0  0  0
  -18.0288  -28.1396   22.8490 C   0  0  0  0  0  0
  -24.1490  -36.7315   23.2635 C   0  0  0  0  0  0
  -25.9444  -30.8189   21.3728 C   0  0  0  0  0  0
  -26.0161  -29.4540   20.7152 C   0  0  0  0  0  0
  -27.2001  -28.6722   20.7107 C   0  0  0  0  0  0
  -26.0328  -26.9566   19.4506 C   0  0  0  0  0  0
  -24.8565  -27.7208   19.4722 C   0  0  0  0  0  0
  -23.6179  -29.8403   20.1612 C   0  0  0  0  0  0
  -25.4109  -36.3099   24.0330 C   0  0  1  0  0  0
  -20.5884  -28.3694   23.1291 C   0  0  2  0  0  0
  -20.6786  -26.9425   22.5407 C   0  0  0  0  0  0
  -19.5755  -26.6399   21.5218 C   0  0  0  0  0  0
  -18.1937  -26.7943   22.1632 C   0  0  0  0  0  0
  -19.1536  -28.8861   23.2896 C   0  0  0  0  0  0
  -18.9463  -30.1466   23.8912 C   0  0  0  0  0  0
  -17.6462  -30.6599   24.0581 C   0  0  0  0  0  0
  -25.9039  -34.9465   23.5113 C   0  0  0  0  0  0
  -16.5355  -29.9104   23.6332 C   0  0  0  0  0  0
  -16.7275  -28.6526   23.0342 C   0  0  0  0  0  0
  -26.4476  -31.6604   25.0741 C   0  0  0  0  0  0
  -25.3719  -31.3744   26.1474 C   0  0  0  0  0  0
  -27.0304  -30.3030   24.6163 C   0  0  0  0  0  0
  -27.6049  -32.4325   25.7505 C   0  0  0  0  0  0
  -27.5576  -37.1810   24.8460 C   0  0  0  0  0  0
  -21.4162  -29.3056   22.3684 N   0  0  0  0  0  0
  -26.4292  -37.3784   23.9402 N   0  0  0  0  0  0
  -24.6763  -31.0746   22.1016 N   0  0  0  0  0  0
  -23.4203  -28.8195   23.2979 O   0  0  0  0  0  0
  -28.3556  -26.5919   20.1610 O   0  0  0  0  0  0
  -26.5596  -34.8918   22.4674 O   0  0  0  0  0  0
  -23.5375  -32.1426   23.7472 O   0  0  0  0  0  0
  -28.8257  -20.2509   20.5478 C   0  0  0  0  0  0
  -29.4239  -21.4878   20.5173 C   0  0  0  0  0  0
  -30.6350  -21.2654   21.2414 C   0  0  0  0  0  0
  -31.7171  -22.2558   21.5613 C   0  0  0  0  0  0
  -29.2147  -17.7516   23.0598 C   0  0  0  0  0  0
  -28.8792  -22.7336   19.8143 C   0  0  0  0  0  0
  -29.1761  -24.1476   20.4112 C   0  0  0  0  0  0
  -30.4239  -16.9480   20.9533 C   0  0  0  0  0  0
  -28.1793  -25.1900   19.8311 C   0  0  0  0  0  0
  -29.3815  -17.9437   21.5426 C   0  0  2  0  0  0
  -30.7603  -20.0019   21.6527 N   0  0  0  0  0  0
  -29.6441  -19.3632   21.2236 N   0  0  0  0  0  0
  -30.0240  -15.5267   21.0793 N   0  0  0  0  0  0
  -31.4682  -12.4065   19.1353 H   0  0  0  0  0  0
  -30.3184  -11.3091   19.8432 H   0  0  0  0  0  0
  -29.7453  -11.7793   17.4375 H   0  0  0  0  0  0
  -29.6649  -13.4896   17.7782 H   0  0  0  0  0  0
  -27.8339  -11.3047   18.8259 H   0  0  0  0  0  0
  -27.3712  -12.6259   17.7903 H   0  0  0  0  0  0
  -27.7007  -14.2562   19.5652 H   0  0  0  0  0  0
  -28.6769  -11.9901   21.3666 H   0  0  0  0  0  0
  -28.4613  -13.6399   21.8632 H   0  0  0  0  0  0
  -25.2764   -9.5696   22.4745 H   0  0  0  0  0  0
  -24.0008   -7.4646   22.7472 H   0  0  0  0  0  0
  -21.0848   -8.8777   19.8947 H   0  0  0  0  0  0
  -22.3698  -10.9675   19.6159 H   0  0  0  0  0  0
  -21.2006   -7.6152   23.9725 H   0  0  0  0  0  0
  -21.1478   -6.0516   25.9080 H   0  0  0  0  0  0
  -22.0598   -2.7613   23.2836 H   0  0  0  0  0  0
  -22.4086  -11.9896   22.4786 H   0  0  0  0  0  0
  -21.1109  -13.1283   22.2593 H   0  0  0  0  0  0
  -24.6641  -15.8440   20.4972 H   0  0  0  0  0  0
  -26.2832  -15.6223   20.0689 H   0  0  0  0  0  0
  -26.7155  -32.5504   23.1162 H   0  0  0  0  0  0
  -25.0095  -33.9777   25.0475 H   0  0  0  0  0  0
  -22.7007  -31.3163   21.4135 H   0  0  0  0  0  0
  -23.3738  -35.9661   23.3302 H   0  0  0  0  0  0
  -24.3591  -36.8924   22.2049 H   0  0  0  0  0  0
  -23.7259  -37.6529   23.6648 H   0  0  0  0  0  0
  -26.0653  -31.5847   20.6056 H   0  0  0  0  0  0
  -26.8299  -30.8663   21.9949 H   0  0  0  0  0  0
  -28.0925  -29.0349   21.2021 H   0  0  0  0  0  0
  -25.9780  -26.0188   18.9186 H   0  0  0  0  0  0
  -23.9639  -27.3494   18.9871 H   0  0  0  0  0  0
  -23.7331  -30.6188   19.4059 H   0  0  0  0  0  0
  -22.7403  -29.2651   19.8607 H   0  0  0  0  0  0
  -25.1283  -36.1963   25.0821 H   0  0  0  0  0  0
  -20.9993  -28.3270   24.1406 H   0  0  0  0  0  0
  -20.5721  -26.2297   23.3599 H   0  0  0  0  0  0
  -21.6651  -26.7482   22.1175 H   0  0  0  0  0  0
  -19.6917  -25.6313   21.1243 H   0  0  0  0  0  0
  -19.6692  -27.3219   20.6757 H   0  0  0  0  0  0
  -17.4204  -26.6697   21.4033 H   0  0  0  0  0  0
  -18.0336  -26.0086   22.9028 H   0  0  0  0  0  0
  -19.7937  -30.7292   24.2278 H   0  0  0  0  0  0
  -17.5015  -31.6275   24.5188 H   0  0  0  0  0  0
  -15.5355  -30.3017   23.7648 H   0  0  0  0  0  0
  -15.8674  -28.0869   22.7021 H   0  0  0  0  0  0
  -24.5917  -30.7057   25.7820 H   0  0  0  0  0  0
  -24.8883  -32.2912   26.4857 H   0  0  0  0  0  0
  -25.8050  -30.8972   27.0274 H   0  0  0  0  0  0
  -26.2872  -29.6812   24.1162 H   0  0  0  0  0  0
  -27.3981  -29.7256   25.4656 H   0  0  0  0  0  0
  -27.8743  -30.4315   23.9384 H   0  0  0  0  0  0
  -27.2672  -33.3631   26.2082 H   0  0  0  0  0  0
  -28.3861  -32.6878   25.0331 H   0  0  0  0  0  0
  -28.0712  -31.8449   26.5424 H   0  0  0  0  0  0
  -28.2589  -38.0111   24.7500 H   0  0  0  0  0  0
  -28.1077  -36.2640   24.6290 H   0  0  0  0  0  0
  -27.2297  -37.1467   25.8865 H   0  0  0  0  0  0
  -20.9324  -29.8787   21.6912 H   0  0  0  0  0  0
  -26.0176  -38.2857   24.1411 H   0  0  0  0  0  0
  -27.8795  -19.9245   20.1384 H   0  0  0  0  0  0
  -32.5605  -21.7939   22.0750 H   0  0  0  0  0  0
  -31.3378  -23.0469   22.2083 H   0  0  0  0  0  0
  -32.0980  -22.7249   20.6540 H   0  0  0  0  0  0
  -28.4418  -18.4112   23.4543 H   0  0  0  0  0  0
  -30.1415  -17.9700   23.5913 H   0  0  0  0  0  0
  -28.9263  -16.7295   23.3052 H   0  0  0  0  0  0
  -27.7961  -22.6273   19.7463 H   0  0  0  0  0  0
  -29.2087  -22.7388   18.7742 H   0  0  0  0  0  0
  -30.2057  -24.4407   20.2038 H   0  0  0  0  0  0
  -29.0663  -24.1300   21.4963 H   0  0  0  0  0  0
  -31.3938  -17.0977   21.4312 H   0  0  0  0  0  0
  -30.5689  -17.1707   19.8946 H   0  0  0  0  0  0
  -28.1677  -25.1056   18.7435 H   0  0  0  0  0  0
  -27.2084  -24.8449   20.1900 H   0  0  0  0  0  0
  -28.4189  -17.7073   21.0850 H   0  0  0  0  0  0
  -29.1091  -15.3288   21.4548 H   0  0  0  0  0  0
  1 25  1  0  0  0
  1 30  2  0  0  0
  1 83  1  0  0  0
  2  3  1  0  0  0
  2 25  1  0  0  0
  2 84  1  0  0  0
  2 85  1  0  0  0
  3  4  1  0  0  0
  3 86  1  0  0  0
  3 87  1  0  0  0
  4  5  1  0  0  0
  4 88  1  0  0  0
  4 89  1  0  0  0
  5  6  1  0  0  0
  5 26  1  0  0  0
  5 90  1  0  0  0
  6 25  1  0  0  0
  6 91  1  0  0  0
  6 92  1  0  0  0
  7  8  2  0  0  0
  7 26  1  0  0  0
  7 29  1  0  0  0
  8  9  1  0  0  0
  8 22  1  0  0  0
  9 10  1  0  0  0
  9 27  2  0  0  0
 10 11  2  0  0  0
 10 15  1  0  0  0
 11 12  1  0  0  0
 11 93  1  0  0  0
 12 13  2  0  0  0
 12 94  1  0  0  0
 13 14  1  0  0  0
 13 31  1  0  0  0
 14 15  2  0  0  0
 14 95  1  0  0  0
 15 96  1  0  0  0
 16 17  2  0  0  0
 16 21  1  0  0  0
 16 31  1  0  0  0
 17 18  1  0  0  0
 17 97  1  0  0  0
 18 19  2  0  0  0
 18 98  1  0  0  0
 19 20  1  0  0  0
 19 24  1  0  0  0
 20 21  2  0  0  0
 20 99  1  0  0  0
 21 23  1  0  0  0
 22 28  1  0  0  0
 22 32  2  0  0  0
 26 27  1  0  0  0
 28100  1  0  0  0
 28101  1  0  0  0
 29102  1  0  0  0
 29103  1  0  0  0
 33 34  1  0  0  0
 33 66  1  0  0  0
 33 70  2  0  0  0
 34 36  1  0  0  0
 34 59  1  0  0  0
 34104  1  0  0  0
 35 44  2  0  0  0
 35 45  1  0  0  0
 35 68  1  0  0  0
 36 56  1  0  0  0
 36105  1  0  0  0
 37 39  1  0  0  0
 37 47  1  0  0  0
 37 66  1  0  0  0
 37106  1  0  0  0
 38 43  2  0  0  0
 38 46  1  0  0  0
 38 47  1  0  0  0
 39 64  1  0  0  0
 39 67  2  0  0  0
 40 52  1  0  0  0
 40 53  2  0  0  0
 40 58  1  0  0  0
 41107  1  0  0  0
 41108  1  0  0  0
 41109  1  0  0  0
 41 48  1  0  0  0
 42 43  1  0  0  0
 42 66  1  0  0  0
 42110  1  0  0  0
 42111  1  0  0  0
 43 44  1  0  0  0
 44112  1  0  0  0
 45 46  2  0  0  0
 45113  1  0  0  0
 46114  1  0  0  0
 47115  1  0  0  0
 47116  1  0  0  0
 48 56  1  0  0  0
 48 65  1  0  0  0
 48117  1  0  0  0
 49 50  1  0  0  0
 49 53  1  0  0  0
 49 64  1  0  0  0
 49118  1  0  0  0
 50 51  1  0  0  0
 50119  1  0  0  0
 50120  1  0  0  0
 51 52  1  0  0  0
 51121  1  0  0  0
 51122  1  0  0  0
 52123  1  0  0  0
 52124  1  0  0  0
 53 54  1  0  0  0
 54 55  2  0  0  0
 54125  1  0  0  0
 55 57  1  0  0  0
 55126  1  0  0  0
 56 69  2  0  0  0
 57 58  2  0  0  0
 57127  1  0  0  0
 58128  1  0  0  0
 59 60  1  0  0  0
 59 61  1  0  0  0
 59 62  1  0  0  0
 60129  1  0  0  0
 60130  1  0  0  0
 60131  1  0  0  0
 61132  1  0  0  0
 61133  1  0  0  0
 61134  1  0  0  0
 62135  1  0  0  0
 62136  1  0  0  0
 62137  1  0  0  0
 63 65  1  0  0  0
 63138  1  0  0  0
 63139  1  0  0  0
 63140  1  0  0  0
 64141  1  0  0  0
 65142  1  0  0  0
 68 79  1  0  0  0
 71 72  2  0  0  0
 71 82  1  0  0  0
 71143  1  0  0  0
 72 73  1  0  0  0
 72 76  1  0  0  0
 73 74  1  0  0  0
 73 81  2  0  0  0
 74144  1  0  0  0
 74145  1  0  0  0
 74146  1  0  0  0
 75147  1  0  0  0
 75148  1  0  0  0
 75149  1  0  0  0
 75 80  1  0  0  0
 76 77  1  0  0  0
 76150  1  0  0  0
 76151  1  0  0  0
 77 79  1  0  0  0
 77152  1  0  0  0
 77153  1  0  0  0
 78 80  1  0  0  0
 78 83  1  0  0  0
 78154  1  0  0  0
 78155  1  0  0  0
 79156  1  0  0  0
 79157  1  0  0  0
 80 82  1  0  0  0
 80158  1  0  0  0
 81 82  1  0  0  0
 83159  1  0  0  0
M  ISO  4   1 100  68 101  79 101  83 100
M  END
> <chiral flag>
0

> <version>
0

> <s_m_source_file>
/data/baiqing/PycharmProjects/Reinvent-master-3.2/result/LINK_invent/BTK/process_docking_weight1_custom_sum_contain_oxygen_bond_distance_aromatic_linkinvent_7_9_3/rearranged_h_0085.sdf

> <i_m_source_file_index>
54

> <r_mmod_Potential_Energy-OPLS-2005>
-110.95263671875

> <r_mmod_Stretch_Energy-OPLS-2005>
42.6620254516602

> <r_mmod_Bend_Energy-OPLS-2005>
107.425758361816

> <r_mmod_Torsional_Energy-OPLS-2005>
220.669677734375

> <r_mmod_Improper_Torsional_Energy-OPLS-2005>
4.20034742355347

> <r_mmod_Van_der_Waal_Energy-OPLS-2005>
131.94905090332

> <r_mmod_Electrostatic_Energy-OPLS-2005>
-413.190551757812

> <r_mmod_Solvation_Energy-OPLS-2005>
-225.101608276367

> <b_mmod_Minimization_Converged-OPLS-2005>
0

> <r_mmod_RMS_Derivative-OPLS-2005>
1.5067241191864

$$$$
57
                    3D
 Structure written by MMmdl.
160168  0  0  1  0            999 V2000
  -30.6499  -14.6301   20.5290 C   0  0  0  0  0  0
  -30.4227  -12.4035   19.4162 C   0  0  0  0  0  0
  -29.4738  -12.4740   18.1962 C   0  0  0  0  0  0
  -28.0083  -12.2780   18.6289 C   0  0  0  0  0  0
  -27.6369  -13.1707   19.8388 C   0  0  2  0  0  0
  -28.6977  -13.0090   20.9509 C   0  0  0  0  0  0
  -25.2476  -13.8056   20.5594 C   0  0  0  0  0  0
  -24.1761  -13.0311   20.9232 C   0  0  0  0  0  0
  -24.6335  -11.6830   20.8750 C   0  0  0  0  0  0
  -23.8999  -10.4229   21.0448 C   0  0  0  0  0  0
  -24.3555   -9.4153   21.9225 C   0  0  0  0  0  0
  -23.6244   -8.2191   22.0770 C   0  0  0  0  0  0
  -22.4218   -8.0214   21.3579 C   0  0  0  0  0  0
  -21.9856   -9.0171   20.4682 C   0  0  0  0  0  0
  -22.7165  -10.2065   20.3111 C   0  0  0  0  0  0
  -21.6845   -6.0727   22.5275 C   0  0  0  0  0  0
  -21.4014   -6.5651   23.8193 C   0  0  0  0  0  0
  -21.3666   -5.6808   24.9156 C   0  0  0  0  0  0
  -21.6017   -4.3055   24.7233 C   0  0  0  0  0  0
  -21.8833   -3.8177   23.4367 C   0  0  0  0  0  0
  -21.9193   -4.6983   22.3433 C   0  0  0  0  0  0
  -22.7795  -13.5085   21.1900 C   0  0  0  0  0  0
  -22.1640   -4.2160   21.1003 F   0  0  0  0  0  0
  -21.5641   -3.4524   25.7776 F   0  0  0  0  0  0
  -29.9814  -13.4334   20.3890 N   0  0  0  0  0  0
  -26.2888  -12.9190   20.3251 N   0  0  0  0  0  0
  -25.9247  -11.6386   20.5788 N   0  0  0  0  0  0
  -22.0469  -12.8055   22.0536 N   0  0  0  0  0  0
  -25.3936  -15.1757   20.3910 N   0  0  0  0  0  0
  -31.8316  -14.6815   20.1751 O   0  0  0  0  0  0
  -21.6592   -6.8814   21.4219 O   0  0  0  0  0  0
  -22.3460  -14.5340   20.6731 O   0  0  0  0  0  0
  -24.6146  -31.8647   23.2045 C   0  0  0  0  0  0
  -25.8998  -32.4830   23.8383 C   0  0  1  0  0  0
  -27.2328  -27.3564   20.1170 C   0  0  0  0  0  0
  -25.5857  -33.8640   24.2322 N   0  0  0  0  0  0
  -23.4064  -30.4796   21.5519 C   0  0  2  0  0  0
  -24.8514  -28.9284   20.1217 C   0  0  0  0  0  0
  -22.7393  -29.4631   22.5059 C   0  0  0  0  0  0
  -18.0270  -28.1347   22.8486 C   0  0  0  0  0  0
  -24.1479  -36.7283   23.2643 C   0  0  0  0  0  0
  -25.9402  -30.7991   21.3717 C   0  0  0  0  0  0
  -26.0135  -29.4275   20.7197 C   0  0  0  0  0  0
  -27.2005  -28.6483   20.7122 C   0  0  0  0  0  0
  -26.0477  -26.8895   19.5005 C   0  0  0  0  0  0
  -24.8683  -27.6641   19.5073 C   0  0  0  0  0  0
  -23.6105  -29.7952   20.1739 C   0  0  0  0  0  0
  -25.4123  -36.3132   24.0346 C   0  0  1  0  0  0
  -20.5836  -28.3644   23.1338 C   0  0  2  0  0  0
  -20.6772  -26.9392   22.5414 C   0  0  0  0  0  0
  -19.5764  -26.6367   21.5199 C   0  0  0  0  0  0
  -18.1937  -26.7906   22.1593 C   0  0  0  0  0  0
  -19.1505  -28.8827   23.2894 C   0  0  0  0  0  0
  -18.9431  -30.1447   23.8893 C   0  0  0  0  0  0
  -17.6433  -30.6579   24.0551 C   0  0  0  0  0  0
  -25.9038  -34.9488   23.5141 C   0  0  0  0  0  0
  -16.5327  -29.9053   23.6349 C   0  0  0  0  0  0
  -16.7261  -28.6464   23.0385 C   0  0  0  0  0  0
  -26.4413  -31.6639   25.0734 C   0  0  0  0  0  0
  -25.3649  -31.3754   26.1475 C   0  0  0  0  0  0
  -27.0259  -30.3098   24.6153 C   0  0  0  0  0  0
  -27.6008  -32.4377   25.7454 C   0  0  0  0  0  0
  -27.5608  -37.1801   24.8475 C   0  0  0  0  0  0
  -21.4123  -29.2991   22.3744 N   0  0  0  0  0  0
  -26.4336  -37.3805   23.9399 N   0  0  0  0  0  0
  -24.6724  -31.0655   22.0996 N   0  0  0  0  0  0
  -23.4121  -28.8246   23.3189 O   0  0  0  0  0  0
  -28.4123  -26.6165   20.1561 O   0  0  0  0  0  0
  -26.5603  -34.8937   22.4707 O   0  0  0  0  0  0
  -23.5312  -32.1455   23.7372 O   0  0  0  0  0  0
  -29.9321  -19.7023   20.5519 C   0  0  0  0  0  0
  -29.9841  -18.3657   20.1731 C   0  0  0  0  0  0
  -28.8141  -19.5368   18.6522 C   0  0  0  0  0  0
  -28.0517  -19.8283   17.3969 C   0  0  0  0  0  0
  -28.6507  -16.0248   21.4159 C   0  0  0  0  0  0
  -30.7008  -17.1483   20.7820 C   0  0  0  0  0  0
  -28.9980  -22.7377   20.8419 C   0  0  0  0  0  0
  -28.2894  -24.1553   20.9253 C   0  0  0  0  0  0
  -28.9011  -21.8905   19.5160 C   0  0  0  0  0  0
  -28.5109  -25.2065   19.7784 C   0  0  0  0  0  0
  -29.2038  -20.4084   19.6084 N   0  0  0  0  0  0
  -29.2598  -18.3184   19.0061 N   0  3  0  0  0  0
  -29.9887  -15.8232   20.8250 N   0  0  0  0  0  0
  -31.4472  -12.5569   19.0853 H   0  0  0  0  0  0
  -30.4039  -11.4062   19.8628 H   0  0  0  0  0  0
  -29.7336  -11.7235   17.4450 H   0  0  0  0  0  0
  -29.5791  -13.4443   17.7094 H   0  0  0  0  0  0
  -27.8725  -11.2211   18.8724 H   0  0  0  0  0  0
  -27.3369  -12.4796   17.7961 H   0  0  0  0  0  0
  -27.6506  -14.1801   19.4425 H   0  0  0  0  0  0
  -28.7517  -11.9639   21.2574 H   0  0  0  0  0  0
  -28.4513  -13.5149   21.8741 H   0  0  0  0  0  0
  -25.2692   -9.5612   22.4804 H   0  0  0  0  0  0
  -23.9983   -7.4546   22.7461 H   0  0  0  0  0  0
  -21.0806   -8.8638   19.8957 H   0  0  0  0  0  0
  -22.3575  -10.9594   19.6239 H   0  0  0  0  0  0
  -21.1963   -7.6157   23.9659 H   0  0  0  0  0  0
  -21.1468   -6.0570   25.9027 H   0  0  0  0  0  0
  -22.0602   -2.7648   23.2857 H   0  0  0  0  0  0
  -22.4080  -11.9680   22.4859 H   0  0  0  0  0  0
  -21.1110  -13.1091   22.2844 H   0  0  0  0  0  0
  -24.6048  -15.7967   20.5315 H   0  0  0  0  0  0
  -26.2219  -15.6547   20.0614 H   0  0  0  0  0  0
  -26.7050  -32.5508   23.1126 H   0  0  0  0  0  0
  -25.0056  -33.9832   25.0503 H   0  0  0  0  0  0
  -22.6973  -31.2961   21.4052 H   0  0  0  0  0  0
  -23.3797  -35.9564   23.3330 H   0  0  0  0  0  0
  -24.3569  -36.8872   22.2054 H   0  0  0  0  0  0
  -23.7167  -37.6469   23.6641 H   0  0  0  0  0  0
  -26.0623  -31.5626   20.6027 H   0  0  0  0  0  0
  -26.8204  -30.8526   21.9997 H   0  0  0  0  0  0
  -28.0922  -29.0261   21.1931 H   0  0  0  0  0  0
  -26.0093  -25.9263   19.0158 H   0  0  0  0  0  0
  -23.9724  -27.2711   19.0425 H   0  0  0  0  0  0
  -23.6936  -30.5545   19.3951 H   0  0  0  0  0  0
  -22.7391  -29.1943   19.9068 H   0  0  0  0  0  0
  -25.1300  -36.2036   25.0851 H   0  0  0  0  0  0
  -20.9915  -28.3191   24.1457 H   0  0  0  0  0  0
  -20.5696  -26.2235   23.3574 H   0  0  0  0  0  0
  -21.6652  -26.7467   22.1197 H   0  0  0  0  0  0
  -19.6941  -25.6273   21.1249 H   0  0  0  0  0  0
  -19.6737  -27.3156   20.6712 H   0  0  0  0  0  0
  -17.4217  -26.6665   21.3983 H   0  0  0  0  0  0
  -18.0338  -26.0039   22.8974 H   0  0  0  0  0  0
  -19.7916  -30.7261   24.2248 H   0  0  0  0  0  0
  -17.4995  -31.6266   24.5103 H   0  0  0  0  0  0
  -15.5329  -30.2944   23.7701 H   0  0  0  0  0  0
  -15.8651  -28.0763   22.7147 H   0  0  0  0  0  0
  -24.5751  -30.7215   25.7749 H   0  0  0  0  0  0
  -24.8898  -32.2914   26.5026 H   0  0  0  0  0  0
  -25.7936  -30.8789   27.0191 H   0  0  0  0  0  0
  -26.2828  -29.6885   24.1155 H   0  0  0  0  0  0
  -27.3965  -29.7347   25.4638 H   0  0  0  0  0  0
  -27.8681  -30.4459   23.9374 H   0  0  0  0  0  0
  -27.2667  -33.3677   26.2082 H   0  0  0  0  0  0
  -28.3737  -32.6966   25.0200 H   0  0  0  0  0  0
  -28.0771  -31.8484   26.5304 H   0  0  0  0  0  0
  -28.2638  -38.0079   24.7553 H   0  0  0  0  0  0
  -28.1088  -36.2630   24.6292 H   0  0  0  0  0  0
  -27.2317  -37.1436   25.8868 H   0  0  0  0  0  0
  -20.9315  -29.8585   21.6842 H   0  0  0  0  0  0
  -26.0243  -38.2902   24.1382 H   0  0  0  0  0  0
  -30.3665  -20.1915   21.4139 H   0  0  0  0  0  0
  -28.4511  -20.7378   16.9475 H   0  0  0  0  0  0
  -26.9952  -19.9480   17.6352 H   0  0  0  0  0  0
  -28.1883  -18.9966   16.7043 H   0  0  0  0  0  0
  -28.4637  -15.4677   22.3279 H   0  0  0  0  0  0
  -27.8756  -15.8222   20.6883 H   0  0  0  0  0  0
  -28.4754  -17.0553   21.7335 H   0  0  0  0  0  0
  -30.9499  -17.3936   21.8154 H   0  0  0  0  0  0
  -31.6803  -17.0939   20.3056 H   0  0  0  0  0  0
  -28.5789  -22.1457   21.6617 H   0  0  0  0  0  0
  -30.0508  -22.8582   21.1127 H   0  0  0  0  0  0
  -28.6311  -24.6111   21.8591 H   0  0  0  0  0  0
  -27.2211  -24.0068   21.0874 H   0  0  0  0  0  0
  -29.5833  -22.2959   18.7644 H   0  0  0  0  0  0
  -27.9006  -21.9993   19.0923 H   0  0  0  0  0  0
  -27.9221  -24.9587   18.8954 H   0  0  0  0  0  0
  -29.5414  -25.0926   19.4437 H   0  0  0  0  0  0
  -29.0873  -17.4812   18.4630 H   0  0  0  0  0  0
  1 25  1  0  0  0
  1 30  2  0  0  0
  1 83  1  0  0  0
  2  3  1  0  0  0
  2 25  1  0  0  0
  2 84  1  0  0  0
  2 85  1  0  0  0
  3  4  1  0  0  0
  3 86  1  0  0  0
  3 87  1  0  0  0
  4  5  1  0  0  0
  4 88  1  0  0  0
  4 89  1  0  0  0
  5  6  1  0  0  0
  5 26  1  0  0  0
  5 90  1  0  0  0
  6 25  1  0  0  0
  6 91  1  0  0  0
  6 92  1  0  0  0
  7  8  2  0  0  0
  7 26  1  0  0  0
  7 29  1  0  0  0
  8  9  1  0  0  0
  8 22  1  0  0  0
  9 10  1  0  0  0
  9 27  2  0  0  0
 10 11  2  0  0  0
 10 15  1  0  0  0
 11 12  1  0  0  0
 11 93  1  0  0  0
 12 13  2  0  0  0
 12 94  1  0  0  0
 13 14  1  0  0  0
 13 31  1  0  0  0
 14 15  2  0  0  0
 14 95  1  0  0  0
 15 96  1  0  0  0
 16 17  2  0  0  0
 16 21  1  0  0  0
 16 31  1  0  0  0
 17 18  1  0  0  0
 17 97  1  0  0  0
 18 19  2  0  0  0
 18 98  1  0  0  0
 19 20  1  0  0  0
 19 24  1  0  0  0
 20 21  2  0  0  0
 20 99  1  0  0  0
 21 23  1  0  0  0
 22 28  1  0  0  0
 22 32  2  0  0  0
 26 27  1  0  0  0
 28100  1  0  0  0
 28101  1  0  0  0
 29102  1  0  0  0
 29103  1  0  0  0
 33 34  1  0  0  0
 33 66  1  0  0  0
 33 70  2  0  0  0
 34 36  1  0  0  0
 34 59  1  0  0  0
 34104  1  0  0  0
 35 44  2  0  0  0
 35 45  1  0  0  0
 35 68  1  0  0  0
 36 56  1  0  0  0
 36105  1  0  0  0
 37 39  1  0  0  0
 37 47  1  0  0  0
 37 66  1  0  0  0
 37106  1  0  0  0
 38 43  2  0  0  0
 38 46  1  0  0  0
 38 47  1  0  0  0
 39 64  1  0  0  0
 39 67  2  0  0  0
 40 52  1  0  0  0
 40 53  2  0  0  0
 40 58  1  0  0  0
 41107  1  0  0  0
 41108  1  0  0  0
 41109  1  0  0  0
 41 48  1  0  0  0
 42 43  1  0  0  0
 42 66  1  0  0  0
 42110  1  0  0  0
 42111  1  0  0  0
 43 44  1  0  0  0
 44112  1  0  0  0
 45 46  2  0  0  0
 45113  1  0  0  0
 46114  1  0  0  0
 47115  1  0  0  0
 47116  1  0  0  0
 48 56  1  0  0  0
 48 65  1  0  0  0
 48117  1  0  0  0
 49 50  1  0  0  0
 49 53  1  0  0  0
 49 64  1  0  0  0
 49118  1  0  0  0
 50 51  1  0  0  0
 50119  1  0  0  0
 50120  1  0  0  0
 51 52  1  0  0  0
 51121  1  0  0  0
 51122  1  0  0  0
 52123  1  0  0  0
 52124  1  0  0  0
 53 54  1  0  0  0
 54 55  2  0  0  0
 54125  1  0  0  0
 55 57  1  0  0  0
 55126  1  0  0  0
 56 69  2  0  0  0
 57 58  2  0  0  0
 57127  1  0  0  0
 58128  1  0  0  0
 59 60  1  0  0  0
 59 61  1  0  0  0
 59 62  1  0  0  0
 60129  1  0  0  0
 60130  1  0  0  0
 60131  1  0  0  0
 61132  1  0  0  0
 61133  1  0  0  0
 61134  1  0  0  0
 62135  1  0  0  0
 62136  1  0  0  0
 62137  1  0  0  0
 63 65  1  0  0  0
 63138  1  0  0  0
 63139  1  0  0  0
 63140  1  0  0  0
 64141  1  0  0  0
 65142  1  0  0  0
 68 80  1  0  0  0
 71 72  2  0  0  0
 71 81  1  0  0  0
 71143  1  0  0  0
 72 76  1  0  0  0
 72 82  1  0  0  0
 73 74  1  0  0  0
 73 81  1  0  0  0
 73 82  2  0  0  0
 74144  1  0  0  0
 74145  1  0  0  0
 74146  1  0  0  0
 75 83  1  0  0  0
 75147  1  0  0  0
 75148  1  0  0  0
 75149  1  0  0  0
 76 83  1  0  0  0
 76150  1  0  0  0
 76151  1  0  0  0
 77 78  1  0  0  0
 77 79  1  0  0  0
 77152  1  0  0  0
 77153  1  0  0  0
 78 80  1  0  0  0
 78154  1  0  0  0
 78155  1  0  0  0
 79 81  1  0  0  0
 79156  1  0  0  0
 79157  1  0  0  0
 80158  1  0  0  0
 80159  1  0  0  0
 82160  1  0  0  0
M  CHG  1  82   1
M  ISO  4   1 100  68 101  80 101  83 100
M  END
> <chiral flag>
0

> <version>
0

> <s_m_source_file>
/data/baiqing/PycharmProjects/Reinvent-master-3.2/result/LINK_invent/BTK/process_docking_weight1_custom_sum_contain_oxygen_bond_distance_aromatic_linkinvent_7_9_3/rearranged_h_0085.sdf

> <i_m_source_file_index>
55

> <r_mmod_Potential_Energy-OPLS-2005>
86.3471908569336

> <r_mmod_Stretch_Energy-OPLS-2005>
69.8501968383789

> <r_mmod_Bend_Energy-OPLS-2005>
168.096038818359

> <r_mmod_Torsional_Energy-OPLS-2005>
251.039291381836

> <r_mmod_Improper_Torsional_Energy-OPLS-2005>
5.60722827911377

> <r_mmod_Van_der_Waal_Energy-OPLS-2005>
140.012802124023

> <r_mmod_Electrostatic_Energy-OPLS-2005>
-178.011322021484

> <r_mmod_Solvation_Energy-OPLS-2005>
-409.816650390625

> <b_mmod_Minimization_Converged-OPLS-2005>
0

> <r_mmod_RMS_Derivative-OPLS-2005>
7.74706315994263

$$$$
58
                    3D
 Structure written by MMmdl.
170178  0  0  1  0            999 V2000
  -30.7632  -14.4239   20.6334 C   0  0  0  0  0  0
  -30.4006  -12.2983   19.4198 C   0  0  0  0  0  0
  -29.4944  -12.5470   18.1993 C   0  0  0  0  0  0
  -28.0114  -12.3998   18.6025 C   0  0  0  0  0  0
  -27.6595  -13.2113   19.8775 C   0  0  2  0  0  0
  -28.6966  -12.9812   21.0008 C   0  0  0  0  0  0
  -25.2531  -13.8178   20.5699 C   0  0  0  0  0  0
  -24.1766  -13.0454   20.9169 C   0  0  0  0  0  0
  -24.6314  -11.6910   20.8692 C   0  0  0  0  0  0
  -23.9003  -10.4300   21.0374 C   0  0  0  0  0  0
  -24.3583   -9.4226   21.9154 C   0  0  0  0  0  0
  -23.6280   -8.2256   22.0738 C   0  0  0  0  0  0
  -22.4247   -8.0280   21.3564 C   0  0  0  0  0  0
  -21.9889   -9.0226   20.4647 C   0  0  0  0  0  0
  -22.7181  -10.2109   20.3031 C   0  0  0  0  0  0
  -21.6852   -6.0732   22.5306 C   0  0  0  0  0  0
  -21.4008   -6.5628   23.8262 C   0  0  0  0  0  0
  -21.3658   -5.6761   24.9210 C   0  0  0  0  0  0
  -21.6037   -4.3039   24.7260 C   0  0  0  0  0  0
  -21.8798   -3.8129   23.4362 C   0  0  0  0  0  0
  -21.9186   -4.6966   22.3431 C   0  0  0  0  0  0
  -22.7792  -13.5286   21.1852 C   0  0  0  0  0  0
  -22.1655   -4.2141   21.1000 F   0  0  0  0  0  0
  -21.5638   -3.4521   25.7773 F   0  0  0  0  0  0
  -30.0387  -13.2783   20.4644 N   0  0  0  0  0  0
  -26.2969  -12.9365   20.3345 N   0  0  0  0  0  0
  -25.9260  -11.6509   20.5669 N   0  0  0  0  0  0
  -22.0386  -12.8328   22.0420 N   0  0  0  0  0  0
  -25.4230  -15.1911   20.4188 N   0  0  0  0  0  0
  -31.8012  -14.6365   19.9970 O   0  0  0  0  0  0
  -21.6639   -6.8864   21.4266 O   0  0  0  0  0  0
  -22.3517  -14.5607   20.6687 O   0  0  0  0  0  0
  -24.6109  -31.8689   23.2131 C   0  0  0  0  0  0
  -25.8995  -32.4847   23.8433 C   0  0  1  0  0  0
  -27.2544  -27.4568   20.0997 C   0  0  0  0  0  0
  -25.5852  -33.8646   24.2338 N   0  0  0  0  0  0
  -23.4016  -30.4878   21.5521 C   0  0  2  0  0  0
  -24.8567  -28.9554   20.1208 C   0  0  0  0  0  0
  -22.7395  -29.4624   22.5007 C   0  0  0  0  0  0
  -18.0261  -28.1354   22.8501 C   0  0  0  0  0  0
  -24.1452  -36.7306   23.2641 C   0  0  0  0  0  0
  -25.9276  -30.8374   21.3702 C   0  0  0  0  0  0
  -26.0120  -29.4707   20.7260 C   0  0  0  0  0  0
  -27.2109  -28.7243   20.7256 C   0  0  0  0  0  0
  -26.0926  -26.9599   19.4763 C   0  0  0  0  0  0
  -24.8901  -27.6957   19.4966 C   0  0  0  0  0  0
  -23.6137  -29.8157   20.1686 C   0  0  0  0  0  0
  -25.4079  -36.3128   24.0345 C   0  0  1  0  0  0
  -20.5842  -28.3624   23.1334 C   0  0  2  0  0  0
  -20.6728  -26.9363   22.5438 C   0  0  0  0  0  0
  -19.5705  -26.6362   21.5223 C   0  0  0  0  0  0
  -18.1883  -26.7910   22.1639 C   0  0  0  0  0  0
  -19.1507  -28.8813   23.2906 C   0  0  0  0  0  0
  -18.9446  -30.1431   23.8895 C   0  0  0  0  0  0
  -17.6452  -30.6584   24.0548 C   0  0  0  0  0  0
  -25.9017  -34.9494   23.5143 C   0  0  0  0  0  0
  -16.5333  -29.9071   23.6345 C   0  0  0  0  0  0
  -16.7245  -28.6475   23.0373 C   0  0  0  0  0  0
  -26.4447  -31.6645   25.0760 C   0  0  0  0  0  0
  -25.3722  -31.3773   26.1528 C   0  0  0  0  0  0
  -27.0288  -30.3085   24.6152 C   0  0  0  0  0  0
  -27.6022  -32.4385   25.7497 C   0  0  0  0  0  0
  -27.5581  -37.1776   24.8447 C   0  0  0  0  0  0
  -21.4123  -29.2992   22.3736 N   0  0  0  0  0  0
  -26.4261  -37.3820   23.9448 N   0  0  0  0  0  0
  -24.6633  -31.0790   22.1042 N   0  0  0  0  0  0
  -23.4173  -28.8178   23.3046 O   0  0  0  0  0  0
  -28.3925  -26.6810   20.0467 O   0  0  0  0  0  0
  -26.5596  -34.8942   22.4715 O   0  0  0  0  0  0
  -23.5288  -32.1431   23.7525 O   0  0  0  0  0  0
  -29.4143  -19.0687   20.5761 C   0  0  0  0  0  0
  -28.4111  -20.0436   20.7886 C   0  0  0  0  0  0
  -27.3136  -19.6909   21.6176 C   0  0  0  0  0  0
  -29.3466  -17.8200   21.2361 C   0  0  0  0  0  0
  -27.3331  -18.4186   22.2520 C   0  0  0  0  0  0
  -26.1232  -20.6388   21.7976 C   0  0  0  0  0  0
  -26.3289  -18.6083   24.6260 C   0  0  0  0  0  0
  -30.3067  -15.1023   22.9019 C   0  0  0  0  0  0
  -28.5215  -21.4432   20.1597 C   0  0  0  0  0  0
  -26.2508  -17.9613   23.2273 C   0  0  0  0  0  0
  -30.5037  -16.8133   21.1144 C   0  0  0  0  0  0
  -29.0818  -22.5124   21.1390 C   0  0  0  0  0  0
  -29.6919  -24.9779   21.2544 C   0  0  0  0  0  0
  -28.9756  -26.3540   21.3105 C   0  0  0  0  0  0
  -28.3282  -17.5214   22.0688 N   0  0  0  0  0  0
  -30.2625  -15.3821   21.4558 N   0  0  0  0  0  0
  -28.8360  -23.9080   20.6675 N   0  3  0  0  0  0
  -31.4515  -12.3463   19.1308 H   0  0  0  0  0  0
  -30.2495  -11.2812   19.7883 H   0  0  0  0  0  0
  -29.7428  -11.8608   17.3896 H   0  0  0  0  0  0
  -29.6769  -13.5511   17.8086 H   0  0  0  0  0  0
  -27.8148  -11.3401   18.7722 H   0  0  0  0  0  0
  -27.3578  -12.6989   17.7797 H   0  0  0  0  0  0
  -27.7087  -14.2632   19.5966 H   0  0  0  0  0  0
  -28.6569  -11.9468   21.3508 H   0  0  0  0  0  0
  -28.4392  -13.5859   21.8656 H   0  0  0  0  0  0
  -25.2730   -9.5763   22.4699 H   0  0  0  0  0  0
  -24.0037   -7.4670   22.7461 H   0  0  0  0  0  0
  -21.0825   -8.8673   19.8978 H   0  0  0  0  0  0
  -22.3596  -10.9606   19.6104 H   0  0  0  0  0  0
  -21.1985   -7.6126   23.9779 H   0  0  0  0  0  0
  -21.1502   -6.0488   25.9127 H   0  0  0  0  0  0
  -22.0569   -2.7604   23.2865 H   0  0  0  0  0  0
  -22.3988  -12.0033   22.4903 H   0  0  0  0  0  0
  -21.0969  -13.1375   22.2497 H   0  0  0  0  0  0
  -24.6611  -15.8437   20.5653 H   0  0  0  0  0  0
  -26.2998  -15.6486   20.2017 H   0  0  0  0  0  0
  -26.7066  -32.5583   23.1196 H   0  0  0  0  0  0
  -24.9979  -33.9815   25.0466 H   0  0  0  0  0  0
  -22.6883  -31.3021   21.4116 H   0  0  0  0  0  0
  -23.3749  -35.9607   23.3287 H   0  0  0  0  0  0
  -24.3548  -36.8944   22.2061 H   0  0  0  0  0  0
  -23.7158  -37.6483   23.6669 H   0  0  0  0  0  0
  -26.0348  -31.6006   20.5988 H   0  0  0  0  0  0
  -26.8152  -30.8963   21.9878 H   0  0  0  0  0  0
  -28.0996  -29.1258   21.1921 H   0  0  0  0  0  0
  -26.1158  -25.9992   18.9814 H   0  0  0  0  0  0
  -24.0056  -27.2921   19.0212 H   0  0  0  0  0  0
  -23.7148  -30.5875   19.4042 H   0  0  0  0  0  0
  -22.7418  -29.2265   19.8784 H   0  0  0  0  0  0
  -25.1244  -36.1985   25.0837 H   0  0  0  0  0  0
  -20.9947  -28.3184   24.1445 H   0  0  0  0  0  0
  -20.5589  -26.2236   23.3618 H   0  0  0  0  0  0
  -21.6598  -26.7371   22.1246 H   0  0  0  0  0  0
  -19.6855  -25.6270   21.1233 H   0  0  0  0  0  0
  -19.6657  -27.3183   20.6751 H   0  0  0  0  0  0
  -17.4165  -26.6671   21.4027 H   0  0  0  0  0  0
  -18.0279  -26.0037   22.9019 H   0  0  0  0  0  0
  -19.7924  -30.7236   24.2256 H   0  0  0  0  0  0
  -17.5013  -31.6272   24.5131 H   0  0  0  0  0  0
  -15.5331  -30.2967   23.7681 H   0  0  0  0  0  0
  -15.8648  -28.0794   22.7116 H   0  0  0  0  0  0
  -24.5813  -30.7213   25.7874 H   0  0  0  0  0  0
  -24.9008  -32.2954   26.5048 H   0  0  0  0  0  0
  -25.8060  -30.8869   27.0248 H   0  0  0  0  0  0
  -26.2840  -29.6843   24.1195 H   0  0  0  0  0  0
  -27.4041  -29.7331   25.4625 H   0  0  0  0  0  0
  -27.8684  -30.4412   23.9319 H   0  0  0  0  0  0
  -27.2625  -33.3656   26.2122 H   0  0  0  0  0  0
  -28.3779  -32.7010   25.0292 H   0  0  0  0  0  0
  -28.0757  -31.8512   26.5367 H   0  0  0  0  0  0
  -28.2549  -38.0124   24.7624 H   0  0  0  0  0  0
  -28.1121  -36.2674   24.6097 H   0  0  0  0  0  0
  -27.2329  -37.1223   25.8850 H   0  0  0  0  0  0
  -20.9282  -29.8706   21.6958 H   0  0  0  0  0  0
  -26.0151  -38.2882   24.1550 H   0  0  0  0  0  0
  -30.2550  -19.2927   19.9323 H   0  0  0  0  0  0
  -26.3206  -21.6692   21.5051 H   0  0  0  0  0  0
  -25.7993  -20.7059   22.8294 H   0  0  0  0  0  0
  -25.2771  -20.2901   21.2031 H   0  0  0  0  0  0
  -25.6539  -18.1141   25.3226 H   0  0  0  0  0  0
  -26.0353  -19.6554   24.6196 H   0  0  0  0  0  0
  -27.3346  -18.5538   25.0400 H   0  0  0  0  0  0
  -30.6149  -14.0793   23.1359 H   0  0  0  0  0  0
  -29.3245  -15.2557   23.3423 H   0  0  0  0  0  0
  -31.0089  -15.7592   23.4194 H   0  0  0  0  0  0
  -27.5503  -21.7472   19.7697 H   0  0  0  0  0  0
  -29.1581  -21.3909   19.2757 H   0  0  0  0  0  0
  -26.3557  -16.8843   23.3667 H   0  0  0  0  0  0
  -25.2633  -18.1107   22.7893 H   0  0  0  0  0  0
  -31.3187  -17.1895   21.7338 H   0  0  0  0  0  0
  -30.8724  -16.9158   20.0917 H   0  0  0  0  0  0
  -30.1459  -22.3217   21.3011 H   0  0  0  0  0  0
  -28.6108  -22.4021   22.1172 H   0  0  0  0  0  0
  -29.9978  -24.7055   22.2657 H   0  0  0  0  0  0
  -30.6093  -25.0572   20.6684 H   0  0  0  0  0  0
  -29.6842  -27.1362   21.5896 H   0  0  0  0  0  0
  -28.2123  -26.3341   22.0908 H   0  0  0  0  0  0
  -27.8750  -24.1290   20.8814 H   0  0  0  0  0  0
  -28.9350  -23.9597   19.6638 H   0  0  0  0  0  0
  1 25  1  0  0  0
  1 30  2  0  0  0
  1 86  1  0  0  0
  2  3  1  0  0  0
  2 25  1  0  0  0
  2 88  1  0  0  0
  2 89  1  0  0  0
  3  4  1  0  0  0
  3 90  1  0  0  0
  3 91  1  0  0  0
  4  5  1  0  0  0
  4 92  1  0  0  0
  4 93  1  0  0  0
  5  6  1  0  0  0
  5 26  1  0  0  0
  5 94  1  0  0  0
  6 25  1  0  0  0
  6 95  1  0  0  0
  6 96  1  0  0  0
  7  8  2  0  0  0
  7 26  1  0  0  0
  7 29  1  0  0  0
  8  9  1  0  0  0
  8 22  1  0  0  0
  9 10  1  0  0  0
  9 27  2  0  0  0
 10 11  2  0  0  0
 10 15  1  0  0  0
 11 12  1  0  0  0
 11 97  1  0  0  0
 12 13  2  0  0  0
 12 98  1  0  0  0
 13 14  1  0  0  0
 13 31  1  0  0  0
 14 15  2  0  0  0
 14 99  1  0  0  0
 15100  1  0  0  0
 16 17  2  0  0  0
 16 21  1  0  0  0
 16 31  1  0  0  0
 17 18  1  0  0  0
 17101  1  0  0  0
 18 19  2  0  0  0
 18102  1  0  0  0
 19 20  1  0  0  0
 19 24  1  0  0  0
 20 21  2  0  0  0
 20103  1  0  0  0
 21 23  1  0  0  0
 22 28  1  0  0  0
 22 32  2  0  0  0
 26 27  1  0  0  0
 28104  1  0  0  0
 28105  1  0  0  0
 29106  1  0  0  0
 29107  1  0  0  0
 33 34  1  0  0  0
 33 66  1  0  0  0
 33 70  2  0  0  0
 34 36  1  0  0  0
 34 59  1  0  0  0
 34108  1  0  0  0
 35 44  2  0  0  0
 35 45  1  0  0  0
 35 68  1  0  0  0
 36 56  1  0  0  0
 36109  1  0  0  0
 37 39  1  0  0  0
 37 47  1  0  0  0
 37 66  1  0  0  0
 37110  1  0  0  0
 38 43  2  0  0  0
 38 46  1  0  0  0
 38 47  1  0  0  0
 39 64  1  0  0  0
 39 67  2  0  0  0
 40 52  1  0  0  0
 40 53  2  0  0  0
 40 58  1  0  0  0
 41111  1  0  0  0
 41112  1  0  0  0
 41113  1  0  0  0
 41 48  1  0  0  0
 42 43  1  0  0  0
 42 66  1  0  0  0
 42114  1  0  0  0
 42115  1  0  0  0
 43 44  1  0  0  0
 44116  1  0  0  0
 45 46  2  0  0  0
 45117  1  0  0  0
 46118  1  0  0  0
 47119  1  0  0  0
 47120  1  0  0  0
 48 56  1  0  0  0
 48 65  1  0  0  0
 48121  1  0  0  0
 49 50  1  0  0  0
 49 53  1  0  0  0
 49 64  1  0  0  0
 49122  1  0  0  0
 50 51  1  0  0  0
 50123  1  0  0  0
 50124  1  0  0  0
 51 52  1  0  0  0
 51125  1  0  0  0
 51126  1  0  0  0
 52127  1  0  0  0
 52128  1  0  0  0
 53 54  1  0  0  0
 54 55  2  0  0  0
 54129  1  0  0  0
 55 57  1  0  0  0
 55130  1  0  0  0
 56 69  2  0  0  0
 57 58  2  0  0  0
 57131  1  0  0  0
 58132  1  0  0  0
 59 60  1  0  0  0
 59 61  1  0  0  0
 59 62  1  0  0  0
 60133  1  0  0  0
 60134  1  0  0  0
 60135  1  0  0  0
 61136  1  0  0  0
 61137  1  0  0  0
 61138  1  0  0  0
 62139  1  0  0  0
 62140  1  0  0  0
 62141  1  0  0  0
 63 65  1  0  0  0
 63142  1  0  0  0
 63143  1  0  0  0
 63144  1  0  0  0
 64145  1  0  0  0
 65146  1  0  0  0
 68 84  1  0  0  0
 71 72  2  0  0  0
 71 74  1  0  0  0
 71147  1  0  0  0
 72 73  1  0  0  0
 72 79  1  0  0  0
 73 75  2  0  0  0
 73 76  1  0  0  0
 74 81  1  0  0  0
 74 85  2  0  0  0
 75 80  1  0  0  0
 75 85  1  0  0  0
 76148  1  0  0  0
 76149  1  0  0  0
 76150  1  0  0  0
 77 80  1  0  0  0
 77151  1  0  0  0
 77152  1  0  0  0
 77153  1  0  0  0
 78 86  1  0  0  0
 78154  1  0  0  0
 78155  1  0  0  0
 78156  1  0  0  0
 79 82  1  0  0  0
 79157  1  0  0  0
 79158  1  0  0  0
 80159  1  0  0  0
 80160  1  0  0  0
 81 86  1  0  0  0
 81161  1  0  0  0
 81162  1  0  0  0
 82 87  1  0  0  0
 82163  1  0  0  0
 82164  1  0  0  0
 83 84  1  0  0  0
 83 87  1  0  0  0
 83165  1  0  0  0
 83166  1  0  0  0
 84167  1  0  0  0
 84168  1  0  0  0
 87169  1  0  0  0
 87170  1  0  0  0
M  CHG  1  87   1
M  ISO  4   1 100  68 101  84 101  86 100
M  END
> <chiral flag>
0

> <version>
0

> <s_m_source_file>
/data/baiqing/PycharmProjects/Reinvent-master-3.2/result/LINK_invent/BTK/process_docking_weight1_custom_sum_contain_oxygen_bond_distance_aromatic_linkinvent_7_9_3/rearranged_h_0085.sdf

> <i_m_source_file_index>
56

> <r_mmod_Potential_Energy-OPLS-2005>
-278.905700683594

> <r_mmod_Stretch_Energy-OPLS-2005>
45.0698623657227

> <r_mmod_Bend_Energy-OPLS-2005>
109.798530578613

> <r_mmod_Torsional_Energy-OPLS-2005>
287.466979980469

> <r_mmod_Improper_Torsional_Energy-OPLS-2005>
5.81877708435059

> <r_mmod_Van_der_Waal_Energy-OPLS-2005>
154.66325378418

> <r_mmod_Electrostatic_Energy-OPLS-2005>
-454.321228027344

> <r_mmod_Solvation_Energy-OPLS-2005>
-436.405151367188

> <b_mmod_Minimization_Converged-OPLS-2005>
0

> <r_mmod_RMS_Derivative-OPLS-2005>
5.70934867858887

$$$$
59
                    3D
 Structure written by MMmdl.
166174  0  0  1  0            999 V2000
  -30.7095  -14.5011   20.5179 C   0  0  0  0  0  0
  -30.4132  -12.3120   19.4316 C   0  0  0  0  0  0
  -29.4965  -12.4997   18.2063 C   0  0  0  0  0  0
  -28.0178  -12.3674   18.6185 C   0  0  0  0  0  0
  -27.6587  -13.2186   19.8670 C   0  0  2  0  0  0
  -28.7027  -13.0440   20.9939 C   0  0  0  0  0  0
  -25.2572  -13.8184   20.5676 C   0  0  0  0  0  0
  -24.1844  -13.0453   20.9184 C   0  0  0  0  0  0
  -24.6416  -11.6915   20.8742 C   0  0  0  0  0  0
  -23.9089  -10.4300   21.0411 C   0  0  0  0  0  0
  -24.3630   -9.4206   21.9188 C   0  0  0  0  0  0
  -23.6296   -8.2251   22.0759 C   0  0  0  0  0  0
  -22.4275   -8.0289   21.3556 C   0  0  0  0  0  0
  -21.9923   -9.0270   20.4649 C   0  0  0  0  0  0
  -22.7262  -10.2145   20.3056 C   0  0  0  0  0  0
  -21.6855   -6.0738   22.5286 C   0  0  0  0  0  0
  -21.4015   -6.5634   23.8221 C   0  0  0  0  0  0
  -21.3665   -5.6787   24.9187 C   0  0  0  0  0  0
  -21.6038   -4.3050   24.7238 C   0  0  0  0  0  0
  -21.8818   -3.8145   23.4362 C   0  0  0  0  0  0
  -21.9194   -4.6965   22.3416 C   0  0  0  0  0  0
  -22.7861  -13.5238   21.1860 C   0  0  0  0  0  0
  -22.1655   -4.2140   21.0997 F   0  0  0  0  0  0
  -21.5640   -3.4534   25.7757 F   0  0  0  0  0  0
  -30.0265  -13.3274   20.4255 N   0  0  0  0  0  0
  -26.3024  -12.9385   20.3336 N   0  0  0  0  0  0
  -25.9346  -11.6534   20.5763 N   0  0  0  0  0  0
  -22.0494  -12.8229   22.0400 N   0  0  0  0  0  0
  -25.4255  -15.1926   20.4093 N   0  0  0  0  0  0
  -31.8732  -14.6147   20.1267 O   0  0  0  0  0  0
  -21.6639   -6.8884   21.4242 O   0  0  0  0  0  0
  -22.3547  -14.5551   20.6705 O   0  0  0  0  0  0
  -24.6178  -31.8668   23.2102 C   0  0  0  0  0  0
  -25.9055  -32.4798   23.8413 C   0  0  1  0  0  0
  -27.2208  -27.3840   20.1072 C   0  0  0  0  0  0
  -25.5882  -33.8606   24.2342 N   0  0  0  0  0  0
  -23.4062  -30.4927   21.5533 C   0  0  2  0  0  0
  -24.8469  -28.9499   20.1220 C   0  0  0  0  0  0
  -22.7414  -29.4663   22.4982 C   0  0  0  0  0  0
  -18.0277  -28.1350   22.8482 C   0  0  0  0  0  0
  -24.1470  -36.7316   23.2651 C   0  0  0  0  0  0
  -25.9425  -30.8127   21.3763 C   0  0  0  0  0  0
  -26.0112  -29.4439   20.7228 C   0  0  0  0  0  0
  -27.1979  -28.6686   20.7107 C   0  0  0  0  0  0
  -26.0318  -26.9210   19.4951 C   0  0  0  0  0  0
  -24.8530  -27.6884   19.5076 C   0  0  0  0  0  0
  -23.6177  -29.8297   20.1682 C   0  0  0  0  0  0
  -25.4095  -36.3123   24.0348 C   0  0  1  0  0  0
  -20.5861  -28.3696   23.1276 C   0  0  2  0  0  0
  -20.6784  -26.9428   22.5399 C   0  0  0  0  0  0
  -19.5775  -26.6377   21.5190 C   0  0  0  0  0  0
  -18.1938  -26.7906   22.1583 C   0  0  0  0  0  0
  -19.1520  -28.8829   23.2886 C   0  0  0  0  0  0
  -18.9454  -30.1419   23.8935 C   0  0  0  0  0  0
  -17.6464  -30.6591   24.0547 C   0  0  0  0  0  0
  -25.9017  -34.9470   23.5143 C   0  0  0  0  0  0
  -16.5359  -29.9096   23.6302 C   0  0  0  0  0  0
  -16.7265  -28.6474   23.0381 C   0  0  0  0  0  0
  -26.4496  -31.6564   25.0747 C   0  0  0  0  0  0
  -25.3740  -31.3681   26.1479 C   0  0  0  0  0  0
  -27.0364  -30.2995   24.6162 C   0  0  0  0  0  0
  -27.6062  -32.4308   25.7490 C   0  0  0  0  0  0
  -27.5599  -37.1812   24.8476 C   0  0  0  0  0  0
  -21.4145  -29.3063   22.3692 N   0  0  0  0  0  0
  -26.4302  -37.3783   23.9426 N   0  0  0  0  0  0
  -24.6741  -31.0703   22.1052 N   0  0  0  0  0  0
  -23.4167  -28.8185   23.3024 O   0  0  0  0  0  0
  -28.4061  -26.6603   20.1243 O   0  0  0  0  0  0
  -26.5605  -34.8921   22.4725 O   0  0  0  0  0  0
  -23.5338  -32.1481   23.7425 O   0  0  0  0  0  0
  -29.7333  -22.1129   20.5120 C   0  0  0  0  0  0
  -29.3394  -20.7863   20.4879 C   0  0  0  0  0  0
  -27.5775  -22.0696   21.0019 C   0  0  0  0  0  0
  -24.8074  -23.1317   23.4697 C   0  0  0  0  0  0
  -26.1737  -21.0086   23.6154 C   0  0  0  0  0  0
  -30.1374  -19.5152   20.2535 C   0  0  0  0  0  0
  -26.2000  -22.4236   21.4693 C   0  0  0  0  0  0
  -29.5011  -18.1540   20.6958 C   0  0  0  0  0  0
  -28.6116  -24.3550   21.1062 C   0  0  0  0  0  0
  -30.5246  -16.9770   20.6189 C   0  0  0  0  0  0
  -28.4443  -25.2364   19.8412 C   0  0  0  0  0  0
  -26.0842  -22.4211   23.0092 C   0  0  0  0  0  0
  -28.6411  -22.8822   20.8530 N   0  0  0  0  0  0
  -27.9934  -20.8204   20.7474 N   0  3  0  0  0  0
  -29.9970  -15.6054   20.8378 N   0  0  0  0  0  0
  -31.4628  -12.3828   19.1394 H   0  0  0  0  0  0
  -30.2895  -11.3108   19.8469 H   0  0  0  0  0  0
  -29.7368  -11.7640   17.4372 H   0  0  0  0  0  0
  -29.6712  -13.4795   17.7592 H   0  0  0  0  0  0
  -27.8284  -11.3133   18.8212 H   0  0  0  0  0  0
  -27.3685  -12.6359   17.7847 H   0  0  0  0  0  0
  -27.6892  -14.2611   19.5495 H   0  0  0  0  0  0
  -28.6807  -12.0268   21.3861 H   0  0  0  0  0  0
  -28.4804  -13.6960   21.8399 H   0  0  0  0  0  0
  -25.2782   -9.5683   22.4752 H   0  0  0  0  0  0
  -23.9996   -7.4656   22.7484 H   0  0  0  0  0  0
  -21.0847   -8.8806   19.8955 H   0  0  0  0  0  0
  -22.3729  -10.9690   19.6157 H   0  0  0  0  0  0
  -21.1989   -7.6140   23.9727 H   0  0  0  0  0  0
  -21.1485   -6.0518   25.9092 H   0  0  0  0  0  0
  -22.0586   -2.7600   23.2876 H   0  0  0  0  0  0
  -22.4064  -11.9868   22.4794 H   0  0  0  0  0  0
  -21.1111  -13.1258   22.2594 H   0  0  0  0  0  0
  -24.6519  -15.8401   20.5132 H   0  0  0  0  0  0
  -26.2705  -15.6360   20.0743 H   0  0  0  0  0  0
  -26.7151  -32.5500   23.1190 H   0  0  0  0  0  0
  -25.0076  -33.9735   25.0525 H   0  0  0  0  0  0
  -22.6989  -31.3128   21.4123 H   0  0  0  0  0  0
  -23.3729  -35.9645   23.3293 H   0  0  0  0  0  0
  -24.3604  -36.8925   22.2078 H   0  0  0  0  0  0
  -23.7180  -37.6509   23.6659 H   0  0  0  0  0  0
  -26.0682  -31.5771   20.6089 H   0  0  0  0  0  0
  -26.8271  -30.8625   21.9996 H   0  0  0  0  0  0
  -28.0999  -29.0446   21.1732 H   0  0  0  0  0  0
  -25.9664  -25.9784   18.9791 H   0  0  0  0  0  0
  -23.9557  -27.2974   19.0460 H   0  0  0  0  0  0
  -23.7455  -30.6083   19.4159 H   0  0  0  0  0  0
  -22.7344  -29.2660   19.8632 H   0  0  0  0  0  0
  -25.1239  -36.2037   25.0833 H   0  0  0  0  0  0
  -20.9965  -28.3298   24.1384 H   0  0  0  0  0  0
  -20.5662  -26.2323   23.3605 H   0  0  0  0  0  0
  -21.6658  -26.7464   22.1191 H   0  0  0  0  0  0
  -19.6962  -25.6286   21.1234 H   0  0  0  0  0  0
  -19.6685  -27.3174   20.6703 H   0  0  0  0  0  0
  -17.4197  -26.6646   21.4007 H   0  0  0  0  0  0
  -18.0340  -26.0033   22.8955 H   0  0  0  0  0  0
  -19.7951  -30.7188   24.2329 H   0  0  0  0  0  0
  -17.5047  -31.6260   24.5176 H   0  0  0  0  0  0
  -15.5372  -30.3038   23.7570 H   0  0  0  0  0  0
  -15.8650  -28.0788   22.7152 H   0  0  0  0  0  0
  -24.5939  -30.6980   25.7849 H   0  0  0  0  0  0
  -24.8888  -32.2827   26.4904 H   0  0  0  0  0  0
  -25.8082  -30.8914   27.0269 H   0  0  0  0  0  0
  -26.2951  -29.6702   24.1221 H   0  0  0  0  0  0
  -27.4176  -29.7285   25.4645 H   0  0  0  0  0  0
  -27.8757  -30.4316   23.9322 H   0  0  0  0  0  0
  -27.2696  -33.3633   26.2040 H   0  0  0  0  0  0
  -28.3881  -32.6811   25.0302 H   0  0  0  0  0  0
  -28.0728  -31.8447   26.5422 H   0  0  0  0  0  0
  -28.2593  -38.0139   24.7534 H   0  0  0  0  0  0
  -28.1109  -36.2660   24.6251 H   0  0  0  0  0  0
  -27.2329  -37.1384   25.8884 H   0  0  0  0  0  0
  -20.9305  -29.8780   21.6906 H   0  0  0  0  0  0
  -26.0210  -38.2868   24.1417 H   0  0  0  0  0  0
  -30.7091  -22.5568   20.3542 H   0  0  0  0  0  0
  -24.7807  -23.2191   24.5556 H   0  0  0  0  0  0
  -23.9169  -22.5880   23.1537 H   0  0  0  0  0  0
  -24.7491  -24.1407   23.0608 H   0  0  0  0  0  0
  -26.1184  -21.0424   24.7043 H   0  0  0  0  0  0
  -27.1179  -20.5240   23.3656 H   0  0  0  0  0  0
  -25.3640  -20.3677   23.2615 H   0  0  0  0  0  0
  -31.0780  -19.6398   20.7900 H   0  0  0  0  0  0
  -30.4060  -19.4703   19.1975 H   0  0  0  0  0  0
  -25.5001  -21.7228   21.0112 H   0  0  0  0  0  0
  -25.9659  -23.4029   21.0543 H   0  0  0  0  0  0
  -28.6347  -17.9350   20.0688 H   0  0  0  0  0  0
  -29.1378  -18.2358   21.7201 H   0  0  0  0  0  0
  -27.8182  -24.5694   21.8192 H   0  0  0  0  0  0
  -29.5396  -24.6178   21.6150 H   0  0  0  0  0  0
  -31.3281  -17.1506   21.3391 H   0  0  0  0  0  0
  -30.9967  -17.0066   19.6336 H   0  0  0  0  0  0
  -27.6088  -24.8636   19.2598 H   0  0  0  0  0  0
  -29.3152  -25.0712   19.2079 H   0  0  0  0  0  0
  -26.9209  -22.9993   23.4042 H   0  0  0  0  0  0
  -27.3892  -20.0086   20.7865 H   0  0  0  0  0  0
  -29.0321  -15.4878   21.1139 H   0  0  0  0  0  0
  1 25  1  0  0  0
  1 30  2  0  0  0
  1 85  1  0  0  0
  2  3  1  0  0  0
  2 25  1  0  0  0
  2 86  1  0  0  0
  2 87  1  0  0  0
  3  4  1  0  0  0
  3 88  1  0  0  0
  3 89  1  0  0  0
  4  5  1  0  0  0
  4 90  1  0  0  0
  4 91  1  0  0  0
  5  6  1  0  0  0
  5 26  1  0  0  0
  5 92  1  0  0  0
  6 25  1  0  0  0
  6 93  1  0  0  0
  6 94  1  0  0  0
  7  8  2  0  0  0
  7 26  1  0  0  0
  7 29  1  0  0  0
  8  9  1  0  0  0
  8 22  1  0  0  0
  9 10  1  0  0  0
  9 27  2  0  0  0
 10 11  2  0  0  0
 10 15  1  0  0  0
 11 12  1  0  0  0
 11 95  1  0  0  0
 12 13  2  0  0  0
 12 96  1  0  0  0
 13 14  1  0  0  0
 13 31  1  0  0  0
 14 15  2  0  0  0
 14 97  1  0  0  0
 15 98  1  0  0  0
 16 17  2  0  0  0
 16 21  1  0  0  0
 16 31  1  0  0  0
 17 18  1  0  0  0
 17 99  1  0  0  0
 18 19  2  0  0  0
 18100  1  0  0  0
 19 20  1  0  0  0
 19 24  1  0  0  0
 20 21  2  0  0  0
 20101  1  0  0  0
 21 23  1  0  0  0
 22 28  1  0  0  0
 22 32  2  0  0  0
 26 27  1  0  0  0
 28102  1  0  0  0
 28103  1  0  0  0
 29104  1  0  0  0
 29105  1  0  0  0
 33 34  1  0  0  0
 33 66  1  0  0  0
 33 70  2  0  0  0
 34 36  1  0  0  0
 34 59  1  0  0  0
 34106  1  0  0  0
 35 44  2  0  0  0
 35 45  1  0  0  0
 35 68  1  0  0  0
 36 56  1  0  0  0
 36107  1  0  0  0
 37 39  1  0  0  0
 37 47  1  0  0  0
 37 66  1  0  0  0
 37108  1  0  0  0
 38 43  2  0  0  0
 38 46  1  0  0  0
 38 47  1  0  0  0
 39 64  1  0  0  0
 39 67  2  0  0  0
 40 52  1  0  0  0
 40 53  2  0  0  0
 40 58  1  0  0  0
 41109  1  0  0  0
 41110  1  0  0  0
 41111  1  0  0  0
 41 48  1  0  0  0
 42 43  1  0  0  0
 42 66  1  0  0  0
 42112  1  0  0  0
 42113  1  0  0  0
 43 44  1  0  0  0
 44114  1  0  0  0
 45 46  2  0  0  0
 45115  1  0  0  0
 46116  1  0  0  0
 47117  1  0  0  0
 47118  1  0  0  0
 48 56  1  0  0  0
 48 65  1  0  0  0
 48119  1  0  0  0
 49 50  1  0  0  0
 49 53  1  0  0  0
 49 64  1  0  0  0
 49120  1  0  0  0
 50 51  1  0  0  0
 50121  1  0  0  0
 50122  1  0  0  0
 51 52  1  0  0  0
 51123  1  0  0  0
 51124  1  0  0  0
 52125  1  0  0  0
 52126  1  0  0  0
 53 54  1  0  0  0
 54 55  2  0  0  0
 54127  1  0  0  0
 55 57  1  0  0  0
 55128  1  0  0  0
 56 69  2  0  0  0
 57 58  2  0  0  0
 57129  1  0  0  0
 58130  1  0  0  0
 59 60  1  0  0  0
 59 61  1  0  0  0
 59 62  1  0  0  0
 60131  1  0  0  0
 60132  1  0  0  0
 60133  1  0  0  0
 61134  1  0  0  0
 61135  1  0  0  0
 61136  1  0  0  0
 62137  1  0  0  0
 62138  1  0  0  0
 62139  1  0  0  0
 63 65  1  0  0  0
 63140  1  0  0  0
 63141  1  0  0  0
 63142  1  0  0  0
 64143  1  0  0  0
 65144  1  0  0  0
 68 81  1  0  0  0
 71 72  2  0  0  0
 71 83  1  0  0  0
 71145  1  0  0  0
 72 76  1  0  0  0
 72 84  1  0  0  0
 73 77  1  0  0  0
 73 83  1  0  0  0
 73 84  2  0  0  0
 74146  1  0  0  0
 74147  1  0  0  0
 74148  1  0  0  0
 74 82  1  0  0  0
 75 82  1  0  0  0
 75149  1  0  0  0
 75150  1  0  0  0
 75151  1  0  0  0
 76 78  1  0  0  0
 76152  1  0  0  0
 76153  1  0  0  0
 77 82  1  0  0  0
 77154  1  0  0  0
 77155  1  0  0  0
 78 80  1  0  0  0
 78156  1  0  0  0
 78157  1  0  0  0
 79 81  1  0  0  0
 79 83  1  0  0  0
 79158  1  0  0  0
 79159  1  0  0  0
 80 85  1  0  0  0
 80160  1  0  0  0
 80161  1  0  0  0
 81162  1  0  0  0
 81163  1  0  0  0
 82164  1  0  0  0
 84165  1  0  0  0
 85166  1  0  0  0
M  CHG  1  84   1
M  ISO  4   1 100  68 101  81 101  85 100
M  END
> <chiral flag>
0

> <version>
0

> <s_m_source_file>
/data/baiqing/PycharmProjects/Reinvent-master-3.2/result/LINK_invent/BTK/process_docking_weight1_custom_sum_contain_oxygen_bond_distance_aromatic_linkinvent_7_9_3/rearranged_h_0085.sdf

> <i_m_source_file_index>
57

> <r_mmod_Potential_Energy-OPLS-2005>
-78.2951812744141

> <r_mmod_Stretch_Energy-OPLS-2005>
44.0929908752441

> <r_mmod_Bend_Energy-OPLS-2005>
115.252914428711

> <r_mmod_Torsional_Energy-OPLS-2005>
223.331939697266

> <r_mmod_Improper_Torsional_Energy-OPLS-2005>
5.69869232177734

> <r_mmod_Van_der_Waal_Energy-OPLS-2005>
121.529640197754

> <r_mmod_Electrostatic_Energy-OPLS-2005>
-188.580947875977

> <r_mmod_Solvation_Energy-OPLS-2005>
-420.661804199219

> <b_mmod_Minimization_Converged-OPLS-2005>
0

> <r_mmod_RMS_Derivative-OPLS-2005>
3.6721351146698

$$$$
60
                    3D
 Structure written by MMmdl.
169177  0  0  1  0            999 V2000
  -30.6011  -14.7309   20.4566 C   0  0  0  0  0  0
  -30.4366  -12.4437   19.4686 C   0  0  0  0  0  0
  -29.5117  -12.5057   18.2325 C   0  0  0  0  0  0
  -28.0362  -12.3321   18.6467 C   0  0  0  0  0  0
  -27.6437  -13.2270   19.8524 C   0  0  2  0  0  0
  -28.6888  -13.1466   20.9857 C   0  0  0  0  0  0
  -25.2526  -13.8179   20.5687 C   0  0  0  0  0  0
  -24.1811  -13.0434   20.9200 C   0  0  0  0  0  0
  -24.6394  -11.6912   20.8738 C   0  0  0  0  0  0
  -23.9058  -10.4295   21.0401 C   0  0  0  0  0  0
  -24.3611   -9.4214   21.9178 C   0  0  0  0  0  0
  -23.6292   -8.2249   22.0749 C   0  0  0  0  0  0
  -22.4275   -8.0280   21.3542 C   0  0  0  0  0  0
  -21.9903   -9.0252   20.4645 C   0  0  0  0  0  0
  -22.7227  -10.2135   20.3052 C   0  0  0  0  0  0
  -21.6859   -6.0731   22.5279 C   0  0  0  0  0  0
  -21.4025   -6.5636   23.8211 C   0  0  0  0  0  0
  -21.3658   -5.6791   24.9174 C   0  0  0  0  0  0
  -21.6044   -4.3052   24.7226 C   0  0  0  0  0  0
  -21.8818   -3.8141   23.4348 C   0  0  0  0  0  0
  -21.9201   -4.6959   22.3405 C   0  0  0  0  0  0
  -22.7832  -13.5221   21.1869 C   0  0  0  0  0  0
  -22.1663   -4.2139   21.0984 F   0  0  0  0  0  0
  -21.5629   -3.4536   25.7742 F   0  0  0  0  0  0
  -29.9899  -13.5002   20.4039 N   0  0  0  0  0  0
  -26.2951  -12.9376   20.3293 N   0  0  0  0  0  0
  -25.9329  -11.6523   20.5761 N   0  0  0  0  0  0
  -22.0488  -12.8199   22.0421 N   0  0  0  0  0  0
  -25.4210  -15.1904   20.4097 N   0  0  0  0  0  0
  -31.7899  -14.8450   20.1455 O   0  0  0  0  0  0
  -21.6645   -6.8872   21.4238 O   0  0  0  0  0  0
  -22.3511  -14.5530   20.6731 O   0  0  0  0  0  0
  -24.6297  -31.8543   23.1966 C   0  0  0  0  0  0
  -25.9120  -32.4750   23.8315 C   0  0  1  0  0  0
  -27.2183  -27.2711   20.1238 C   0  0  0  0  0  0
  -25.5921  -33.8553   24.2242 N   0  0  0  0  0  0
  -23.4263  -30.4767   21.5396 C   0  0  2  0  0  0
  -24.8753  -28.9255   20.1097 C   0  0  0  0  0  0
  -22.7503  -29.4592   22.4906 C   0  0  0  0  0  0
  -18.0309  -28.1314   22.8452 C   0  0  0  0  0  0
  -24.1487  -36.7284   23.2644 C   0  0  0  0  0  0
  -25.9721  -30.7725   21.3737 C   0  0  0  0  0  0
  -26.0470  -29.3951   20.7169 C   0  0  0  0  0  0
  -27.2253  -28.5803   20.7120 C   0  0  0  0  0  0
  -26.0287  -26.8724   19.4815 C   0  0  0  0  0  0
  -24.8707  -27.6718   19.4805 C   0  0  0  0  0  0
  -23.6447  -29.8088   20.1570 C   0  0  0  0  0  0
  -25.4115  -36.3065   24.0323 C   0  0  1  0  0  0
  -20.5910  -28.3673   23.1255 C   0  0  2  0  0  0
  -20.6828  -26.9393   22.5397 C   0  0  0  0  0  0
  -19.5834  -26.6389   21.5166 C   0  0  0  0  0  0
  -18.2001  -26.7864   22.1555 C   0  0  0  0  0  0
  -19.1548  -28.8813   23.2833 C   0  0  0  0  0  0
  -18.9460  -30.1441   23.8795 C   0  0  0  0  0  0
  -17.6458  -30.6566   24.0429 C   0  0  0  0  0  0
  -25.9059  -34.9436   23.5088 C   0  0  0  0  0  0
  -16.5359  -29.9023   23.6253 C   0  0  0  0  0  0
  -16.7291  -28.6420   23.0307 C   0  0  0  0  0  0
  -26.4491  -31.6571   25.0697 C   0  0  0  0  0  0
  -25.3719  -31.3726   26.1417 C   0  0  0  0  0  0
  -27.0343  -30.2989   24.6177 C   0  0  0  0  0  0
  -27.6029  -32.4321   25.7487 C   0  0  0  0  0  0
  -27.5575  -37.1794   24.8464 C   0  0  0  0  0  0
  -21.4208  -29.3029   22.3653 N   0  0  0  0  0  0
  -26.4286  -37.3768   23.9407 N   0  0  0  0  0  0
  -24.6954  -31.0523   22.0935 N   0  0  0  0  0  0
  -23.4205  -28.8155   23.3021 O   0  0  0  0  0  0
  -28.3033  -26.3691   20.1402 O   0  0  0  0  0  0
  -26.5642  -34.8909   22.4669 O   0  0  0  0  0  0
  -23.5445  -32.1334   23.7262 O   0  0  0  0  0  0
  -26.5934  -22.7006   19.2631 C   0  0  0  0  0  0
  -25.8150  -21.5975   19.1745 C   0  0  0  0  0  0
  -26.6087  -20.5010   19.6281 C   0  0  0  0  0  0
  -27.8893  -20.9553   19.9444 C   0  0  0  0  0  0
  -26.0582  -19.0884   19.6870 C   0  0  0  0  0  0
  -24.3880  -21.5406   17.1119 C   0  0  0  0  0  0
  -23.5839  -22.8087   19.1518 C   0  0  0  0  0  0
  -29.4611  -23.9086   18.7106 C   0  0  0  0  0  0
  -29.1222  -20.0336   20.3351 C   0  0  0  0  0  0
  -28.9684  -18.4045   20.3271 C   0  0  0  0  0  0
  -30.1619  -17.3415   20.5743 C   0  0  0  0  0  0
  -28.0493  -24.9666   20.6281 C   0  0  0  0  0  0
  -24.3893  -21.6005   18.6449 C   0  0  0  0  0  0
  -28.7426  -23.6030   20.0330 C   0  0  1  0  0  0
  -27.8198  -22.4096   19.8209 N   0  0  0  0  0  0
  -29.8085  -15.8510   20.6507 N   0  0  0  0  0  0
  -31.4785  -12.5702   19.1659 H   0  0  0  0  0  0
  -30.3811  -11.4637   19.9457 H   0  0  0  0  0  0
  -29.7920  -11.7377   17.5103 H   0  0  0  0  0  0
  -29.6398  -13.4646   17.7279 H   0  0  0  0  0  0
  -27.8897  -11.2826   18.9046 H   0  0  0  0  0  0
  -27.3783  -12.5311   17.7997 H   0  0  0  0  0  0
  -27.6395  -14.2505   19.4787 H   0  0  0  0  0  0
  -28.7222  -12.1445   21.4155 H   0  0  0  0  0  0
  -28.4288  -13.8221   21.8026 H   0  0  0  0  0  0
  -25.2750   -9.5691   22.4750 H   0  0  0  0  0  0
  -24.0005   -7.4639   22.7462 H   0  0  0  0  0  0
  -21.0836   -8.8768   19.8943 H   0  0  0  0  0  0
  -22.3685  -10.9673   19.6157 H   0  0  0  0  0  0
  -21.2026   -7.6144   23.9706 H   0  0  0  0  0  0
  -21.1472   -6.0525   25.9075 H   0  0  0  0  0  0
  -22.0600   -2.7600   23.2858 H   0  0  0  0  0  0
  -22.4124  -11.9876   22.4815 H   0  0  0  0  0  0
  -21.1108  -13.1215   22.2631 H   0  0  0  0  0  0
  -24.6441  -15.8352   20.5075 H   0  0  0  0  0  0
  -26.2584  -15.6293   20.0516 H   0  0  0  0  0  0
  -26.7190  -32.5397   23.1066 H   0  0  0  0  0  0
  -25.0050  -33.9701   25.0370 H   0  0  0  0  0  0
  -22.7212  -31.2971   21.3906 H   0  0  0  0  0  0
  -23.3747  -35.9621   23.3309 H   0  0  0  0  0  0
  -24.3569  -36.8914   22.2060 H   0  0  0  0  0  0
  -23.7243  -37.6488   23.6667 H   0  0  0  0  0  0
  -26.1075  -31.5332   20.6036 H   0  0  0  0  0  0
  -26.8525  -30.8228   22.0026 H   0  0  0  0  0  0
  -28.1258  -28.9314   21.1960 H   0  0  0  0  0  0
  -25.9804  -25.9182   18.9797 H   0  0  0  0  0  0
  -23.9768  -27.3089   18.9920 H   0  0  0  0  0  0
  -23.7661  -30.5818   19.3970 H   0  0  0  0  0  0
  -22.7651  -29.2381   19.8542 H   0  0  0  0  0  0
  -25.1295  -36.1919   25.0814 H   0  0  0  0  0  0
  -20.9971  -28.3291   24.1394 H   0  0  0  0  0  0
  -20.5702  -26.2274   23.3586 H   0  0  0  0  0  0
  -21.6713  -26.7479   22.1180 H   0  0  0  0  0  0
  -19.7038  -25.6340   21.1100 H   0  0  0  0  0  0
  -19.6792  -27.3290   20.6768 H   0  0  0  0  0  0
  -17.4308  -26.6617   21.3922 H   0  0  0  0  0  0
  -18.0412  -25.9948   22.8893 H   0  0  0  0  0  0
  -19.7924  -30.7307   24.2103 H   0  0  0  0  0  0
  -17.4981  -31.6294   24.4916 H   0  0  0  0  0  0
  -15.5355  -30.2910   23.7580 H   0  0  0  0  0  0
  -15.8694  -28.0712   22.7046 H   0  0  0  0  0  0
  -24.5894  -30.7074   25.7757 H   0  0  0  0  0  0
  -24.8904  -32.2899   26.4816 H   0  0  0  0  0  0
  -25.8038  -30.8928   27.0206 H   0  0  0  0  0  0
  -26.2933  -29.6730   24.1190 H   0  0  0  0  0  0
  -27.4034  -29.7260   25.4696 H   0  0  0  0  0  0
  -27.8804  -30.4283   23.9421 H   0  0  0  0  0  0
  -27.2622  -33.3625   26.2048 H   0  0  0  0  0  0
  -28.3860  -32.6878   25.0334 H   0  0  0  0  0  0
  -28.0667  -31.8447   26.5422 H   0  0  0  0  0  0
  -28.2583  -38.0097   24.7499 H   0  0  0  0  0  0
  -28.1075  -36.2620   24.6303 H   0  0  0  0  0  0
  -27.2282  -37.1466   25.8865 H   0  0  0  0  0  0
  -20.9395  -29.8712   21.6833 H   0  0  0  0  0  0
  -26.0164  -38.2839   24.1422 H   0  0  0  0  0  0
  -26.3481  -23.7103   18.9737 H   0  0  0  0  0  0
  -26.1997  -18.6531   20.6735 H   0  0  0  0  0  0
  -26.5048  -18.4506   18.9281 H   0  0  0  0  0  0
  -24.9877  -19.0442   19.5078 H   0  0  0  0  0  0
  -23.3717  -21.5110   16.7189 H   0  0  0  0  0  0
  -24.9048  -20.6500   16.7528 H   0  0  0  0  0  0
  -24.8870  -22.4106   16.6828 H   0  0  0  0  0  0
  -23.5600  -22.8351   20.2412 H   0  0  0  0  0  0
  -22.5505  -22.7594   18.8087 H   0  0  0  0  0  0
  -23.9946  -23.7549   18.7999 H   0  0  0  0  0  0
  -30.1925  -24.7066   18.8343 H   0  0  0  0  0  0
  -28.7555  -24.2244   17.9418 H   0  0  0  0  0  0
  -29.9889  -23.0308   18.3364 H   0  0  0  0  0  0
  -29.4708  -20.3303   21.3253 H   0  0  0  0  0  0
  -29.9448  -20.2861   19.6657 H   0  0  0  0  0  0
  -28.5677  -18.1339   19.3532 H   0  0  0  0  0  0
  -28.2151  -18.1593   21.0711 H   0  0  0  0  0  0
  -30.6669  -17.6014   21.5052 H   0  0  0  0  0  0
  -30.9110  -17.4750   19.7915 H   0  0  0  0  0  0
  -28.3691  -25.0084   21.6695 H   0  0  0  0  0  0
  -26.9788  -24.8108   20.7459 H   0  0  0  0  0  0
  -23.8651  -20.7224   19.0129 H   0  0  0  0  0  0
  -29.5050  -23.2859   20.7456 H   0  0  0  0  0  0
  -28.8448  -15.6429   20.8658 H   0  0  0  0  0  0
  1 25  1  0  0  0
  1 30  2  0  0  0
  1 86  1  0  0  0
  2  3  1  0  0  0
  2 25  1  0  0  0
  2 87  1  0  0  0
  2 88  1  0  0  0
  3  4  1  0  0  0
  3 89  1  0  0  0
  3 90  1  0  0  0
  4  5  1  0  0  0
  4 91  1  0  0  0
  4 92  1  0  0  0
  5  6  1  0  0  0
  5 26  1  0  0  0
  5 93  1  0  0  0
  6 25  1  0  0  0
  6 94  1  0  0  0
  6 95  1  0  0  0
  7  8  2  0  0  0
  7 26  1  0  0  0
  7 29  1  0  0  0
  8  9  1  0  0  0
  8 22  1  0  0  0
  9 10  1  0  0  0
  9 27  2  0  0  0
 10 11  2  0  0  0
 10 15  1  0  0  0
 11 12  1  0  0  0
 11 96  1  0  0  0
 12 13  2  0  0  0
 12 97  1  0  0  0
 13 14  1  0  0  0
 13 31  1  0  0  0
 14 15  2  0  0  0
 14 98  1  0  0  0
 15 99  1  0  0  0
 16 17  2  0  0  0
 16 21  1  0  0  0
 16 31  1  0  0  0
 17 18  1  0  0  0
 17100  1  0  0  0
 18 19  2  0  0  0
 18101  1  0  0  0
 19 20  1  0  0  0
 19 24  1  0  0  0
 20 21  2  0  0  0
 20102  1  0  0  0
 21 23  1  0  0  0
 22 28  1  0  0  0
 22 32  2  0  0  0
 26 27  1  0  0  0
 28103  1  0  0  0
 28104  1  0  0  0
 29105  1  0  0  0
 29106  1  0  0  0
 33 34  1  0  0  0
 33 66  1  0  0  0
 33 70  2  0  0  0
 34 36  1  0  0  0
 34 59  1  0  0  0
 34107  1  0  0  0
 35 44  2  0  0  0
 35 45  1  0  0  0
 35 68  1  0  0  0
 36 56  1  0  0  0
 36108  1  0  0  0
 37 39  1  0  0  0
 37 47  1  0  0  0
 37 66  1  0  0  0
 37109  1  0  0  0
 38 43  2  0  0  0
 38 46  1  0  0  0
 38 47  1  0  0  0
 39 64  1  0  0  0
 39 67  2  0  0  0
 40 52  1  0  0  0
 40 53  2  0  0  0
 40 58  1  0  0  0
 41110  1  0  0  0
 41111  1  0  0  0
 41112  1  0  0  0
 41 48  1  0  0  0
 42 43  1  0  0  0
 42 66  1  0  0  0
 42113  1  0  0  0
 42114  1  0  0  0
 43 44  1  0  0  0
 44115  1  0  0  0
 45 46  2  0  0  0
 45116  1  0  0  0
 46117  1  0  0  0
 47118  1  0  0  0
 47119  1  0  0  0
 48 56  1  0  0  0
 48 65  1  0  0  0
 48120  1  0  0  0
 49 50  1  0  0  0
 49 53  1  0  0  0
 49 64  1  0  0  0
 49121  1  0  0  0
 50 51  1  0  0  0
 50122  1  0  0  0
 50123  1  0  0  0
 51 52  1  0  0  0
 51124  1  0  0  0
 51125  1  0  0  0
 52126  1  0  0  0
 52127  1  0  0  0
 53 54  1  0  0  0
 54 55  2  0  0  0
 54128  1  0  0  0
 55 57  1  0  0  0
 55129  1  0  0  0
 56 69  2  0  0  0
 57 58  2  0  0  0
 57130  1  0  0  0
 58131  1  0  0  0
 59 60  1  0  0  0
 59 61  1  0  0  0
 59 62  1  0  0  0
 60132  1  0  0  0
 60133  1  0  0  0
 60134  1  0  0  0
 61135  1  0  0  0
 61136  1  0  0  0
 61137  1  0  0  0
 62138  1  0  0  0
 62139  1  0  0  0
 62140  1  0  0  0
 63 65  1  0  0  0
 63141  1  0  0  0
 63142  1  0  0  0
 63143  1  0  0  0
 64144  1  0  0  0
 65145  1  0  0  0
 68 82  1  0  0  0
 71 72  2  0  0  0
 71 85  1  0  0  0
 71146  1  0  0  0
 72 73  1  0  0  0
 72 83  1  0  0  0
 73 74  2  0  0  0
 73 75  1  0  0  0
 74 79  1  0  0  0
 74 85  1  0  0  0
 75147  1  0  0  0
 75148  1  0  0  0
 75149  1  0  0  0
 76150  1  0  0  0
 76151  1  0  0  0
 76152  1  0  0  0
 76 83  1  0  0  0
 77 83  1  0  0  0
 77153  1  0  0  0
 77154  1  0  0  0
 77155  1  0  0  0
 78156  1  0  0  0
 78157  1  0  0  0
 78158  1  0  0  0
 78 84  1  0  0  0
 79 80  1  0  0  0
 79159  1  0  0  0
 79160  1  0  0  0
 80 81  1  0  0  0
 80161  1  0  0  0
 80162  1  0  0  0
 81 86  1  0  0  0
 81163  1  0  0  0
 81164  1  0  0  0
 82 84  1  0  0  0
 82165  1  0  0  0
 82166  1  0  0  0
 83167  1  0  0  0
 84 85  1  0  0  0
 84168  1  0  0  0
 86169  1  0  0  0
M  ISO  4   1 100  68 101  82 101  86 100
M  END
> <chiral flag>
0

> <version>
0

> <s_m_source_file>
/data/baiqing/PycharmProjects/Reinvent-master-3.2/result/LINK_invent/BTK/process_docking_weight1_custom_sum_contain_oxygen_bond_distance_aromatic_linkinvent_7_9_3/rearranged_h_0085.sdf

> <i_m_source_file_index>
58

> <r_mmod_Potential_Energy-OPLS-2005>
184.08235168457

> <r_mmod_Stretch_Energy-OPLS-2005>
140.472900390625

> <r_mmod_Bend_Energy-OPLS-2005>
199.693878173828

> <r_mmod_Torsional_Energy-OPLS-2005>
259.775726318359

> <r_mmod_Improper_Torsional_Energy-OPLS-2005>
5.23301219940186

> <r_mmod_Van_der_Waal_Energy-OPLS-2005>
120.375816345215

> <r_mmod_Electrostatic_Energy-OPLS-2005>
-416.307037353516

> <r_mmod_Solvation_Energy-OPLS-2005>
-205.160568237305

> <b_mmod_Minimization_Converged-OPLS-2005>
0

> <r_mmod_RMS_Derivative-OPLS-2005>
2.12859392166138

$$$$
61
                    3D
 Structure written by MMmdl.
169177  0  0  1  0            999 V2000
  -30.7651  -14.5433   20.4978 C   0  0  0  0  0  0
  -30.4077  -12.3387   19.4600 C   0  0  0  0  0  0
  -29.5017  -12.4847   18.2253 C   0  0  0  0  0  0
  -28.0256  -12.3382   18.6348 C   0  0  0  0  0  0
  -27.6507  -13.2353   19.8490 C   0  0  2  0  0  0
  -28.6967  -13.1387   20.9842 C   0  0  0  0  0  0
  -25.2566  -13.8252   20.5725 C   0  0  0  0  0  0
  -24.1814  -13.0507   20.9188 C   0  0  0  0  0  0
  -24.6412  -11.6966   20.8736 C   0  0  0  0  0  0
  -23.9096  -10.4312   21.0411 C   0  0  0  0  0  0
  -24.3630   -9.4224   21.9178 C   0  0  0  0  0  0
  -23.6306   -8.2243   22.0729 C   0  0  0  0  0  0
  -22.4291   -8.0279   21.3511 C   0  0  0  0  0  0
  -21.9926   -9.0271   20.4622 C   0  0  0  0  0  0
  -22.7255  -10.2157   20.3058 C   0  0  0  0  0  0
  -21.6869   -6.0745   22.5259 C   0  0  0  0  0  0
  -21.4007   -6.5641   23.8212 C   0  0  0  0  0  0
  -21.3672   -5.6766   24.9148 C   0  0  0  0  0  0
  -21.6050   -4.3036   24.7193 C   0  0  0  0  0  0
  -21.8834   -3.8156   23.4303 C   0  0  0  0  0  0
  -21.9190   -4.6967   22.3375 C   0  0  0  0  0  0
  -22.7819  -13.5270   21.1803 C   0  0  0  0  0  0
  -22.1668   -4.2176   21.0945 F   0  0  0  0  0  0
  -21.5632   -3.4526   25.7702 F   0  0  0  0  0  0
  -30.0240  -13.3993   20.4079 N   0  0  0  0  0  0
  -26.2999  -12.9475   20.3301 N   0  0  0  0  0  0
  -25.9356  -11.6606   20.5756 N   0  0  0  0  0  0
  -22.0428  -12.8284   22.0365 N   0  0  0  0  0  0
  -25.4304  -15.1981   20.4140 N   0  0  0  0  0  0
  -31.9433  -14.5711   20.1517 O   0  0  0  0  0  0
  -21.6641   -6.8896   21.4225 O   0  0  0  0  0  0
  -22.3485  -14.5549   20.6593 O   0  0  0  0  0  0
  -24.6190  -31.8697   23.2150 C   0  0  0  0  0  0
  -25.9078  -32.4824   23.8451 C   0  0  1  0  0  0
  -27.1927  -27.3725   20.0832 C   0  0  0  0  0  0
  -25.5919  -33.8635   24.2352 N   0  0  0  0  0  0
  -23.4034  -30.5036   21.5558 C   0  0  2  0  0  0
  -24.8394  -28.9750   20.1073 C   0  0  0  0  0  0
  -22.7420  -29.4717   22.4976 C   0  0  0  0  0  0
  -18.0287  -28.1369   22.8490 C   0  0  0  0  0  0
  -24.1471  -36.7322   23.2636 C   0  0  0  0  0  0
  -25.9444  -30.8085   21.3868 C   0  0  0  0  0  0
  -26.0069  -29.4453   20.7202 C   0  0  0  0  0  0
  -27.1813  -28.6486   20.7135 C   0  0  0  0  0  0
  -26.0081  -26.9612   19.4255 C   0  0  0  0  0  0
  -24.8389  -27.7365   19.4557 C   0  0  0  0  0  0
  -23.6087  -29.8519   20.1647 C   0  0  0  0  0  0
  -25.4095  -36.3130   24.0342 C   0  0  1  0  0  0
  -20.5875  -28.3674   23.1275 C   0  0  2  0  0  0
  -20.6751  -26.9403   22.5387 C   0  0  0  0  0  0
  -19.5733  -26.6377   21.5185 C   0  0  0  0  0  0
  -18.1924  -26.7915   22.1619 C   0  0  0  0  0  0
  -19.1537  -28.8835   23.2879 C   0  0  0  0  0  0
  -18.9471  -30.1444   23.8900 C   0  0  0  0  0  0
  -17.6474  -30.6567   24.0564 C   0  0  0  0  0  0
  -25.9045  -34.9493   23.5141 C   0  0  0  0  0  0
  -16.5365  -29.9075   23.6331 C   0  0  0  0  0  0
  -16.7273  -28.6486   23.0352 C   0  0  0  0  0  0
  -26.4471  -31.6635   25.0821 C   0  0  0  0  0  0
  -25.3718  -31.3817   26.1575 C   0  0  0  0  0  0
  -27.0327  -30.3048   24.6316 C   0  0  0  0  0  0
  -27.6040  -32.4393   25.7543 C   0  0  0  0  0  0
  -27.5593  -37.1797   24.8450 C   0  0  0  0  0  0
  -21.4144  -29.3048   22.3694 N   0  0  0  0  0  0
  -26.4284  -37.3819   23.9428 N   0  0  0  0  0  0
  -24.6736  -31.0768   22.1071 N   0  0  0  0  0  0
  -23.4180  -28.8256   23.3020 O   0  0  0  0  0  0
  -28.3352  -26.5774   20.1353 O   0  0  0  0  0  0
  -26.5610  -34.8931   22.4714 O   0  0  0  0  0  0
  -23.5368  -32.1512   23.7495 O   0  0  0  0  0  0
  -31.7393  -21.2149   18.6153 C   0  0  0  0  0  0
  -32.1859  -20.1674   17.8597 C   0  0  0  0  0  0
  -30.7922  -19.3702   19.4413 C   0  0  0  0  0  0
  -33.6531  -21.5083   16.3184 C   0  0  0  0  0  0
  -32.3859  -19.4870   15.4585 C   0  0  0  0  0  0
  -29.9353  -24.6957   21.5831 C   0  0  0  0  0  0
  -29.9996  -18.2945   20.1969 C   0  0  0  0  0  0
  -29.5679  -22.9565   19.7184 C   0  0  0  0  0  0
  -30.0373  -21.6258   20.4215 C   0  0  0  0  0  0
  -30.8412  -17.0469   20.6546 C   0  0  0  0  0  0
  -28.3196  -25.2044   19.6356 C   0  0  0  0  0  0
  -33.1033  -20.1138   16.6670 C   0  0  0  0  0  0
  -28.9418  -24.1076   20.5681 C   0  0  2  0  0  0
  -30.8120  -20.7331   19.5121 N   0  0  0  0  0  0
  -31.5972  -19.0610   18.4100 N   0  3  0  0  0  0
  -30.1408  -15.7219   20.7599 N   0  0  0  0  0  0
  -31.4573  -12.3963   19.1629 H   0  0  0  0  0  0
  -30.2886  -11.3582   19.9246 H   0  0  0  0  0  0
  -29.7647  -11.7408   17.4729 H   0  0  0  0  0  0
  -29.6662  -13.4627   17.7652 H   0  0  0  0  0  0
  -27.8636  -11.2902   18.8892 H   0  0  0  0  0  0
  -27.3775  -12.5465   17.7840 H   0  0  0  0  0  0
  -27.6593  -14.2643   19.4854 H   0  0  0  0  0  0
  -28.6791  -12.1500   21.4461 H   0  0  0  0  0  0
  -28.4602  -13.8514   21.7752 H   0  0  0  0  0  0
  -25.2782   -9.5730   22.4763 H   0  0  0  0  0  0
  -24.0046   -7.4649   22.7465 H   0  0  0  0  0  0
  -21.0846   -8.8799   19.8946 H   0  0  0  0  0  0
  -22.3717  -10.9688   19.6172 H   0  0  0  0  0  0
  -21.2018   -7.6144   23.9740 H   0  0  0  0  0  0
  -21.1473   -6.0469   25.9067 H   0  0  0  0  0  0
  -22.0618   -2.7615   23.2774 H   0  0  0  0  0  0
  -22.4002  -11.9984   22.4847 H   0  0  0  0  0  0
  -21.1037  -13.1376   22.2517 H   0  0  0  0  0  0
  -24.6740  -15.8694   20.5007 H   0  0  0  0  0  0
  -26.2986  -15.6200   20.1109 H   0  0  0  0  0  0
  -26.7159  -32.5478   23.1210 H   0  0  0  0  0  0
  -25.0021  -33.9809   25.0454 H   0  0  0  0  0  0
  -22.6952  -31.3251   21.4277 H   0  0  0  0  0  0
  -23.3758  -35.9626   23.3262 H   0  0  0  0  0  0
  -24.3569  -36.8982   22.2061 H   0  0  0  0  0  0
  -23.7182  -37.6497   23.6676 H   0  0  0  0  0  0
  -26.0921  -31.5819   20.6311 H   0  0  0  0  0  0
  -26.8177  -30.8351   22.0269 H   0  0  0  0  0  0
  -28.0751  -29.0025   21.2079 H   0  0  0  0  0  0
  -25.9247  -26.0543   18.8518 H   0  0  0  0  0  0
  -23.9494  -27.3870   18.9485 H   0  0  0  0  0  0
  -23.7172  -30.6346   19.4127 H   0  0  0  0  0  0
  -22.7251  -29.2838   19.8673 H   0  0  0  0  0  0
  -25.1255  -36.2005   25.0832 H   0  0  0  0  0  0
  -21.0001  -28.3235   24.1379 H   0  0  0  0  0  0
  -20.5595  -26.2315   23.3591 H   0  0  0  0  0  0
  -21.6629  -26.7390   22.1228 H   0  0  0  0  0  0
  -19.6879  -25.6287   21.1215 H   0  0  0  0  0  0
  -19.6636  -27.3177   20.6705 H   0  0  0  0  0  0
  -17.4178  -26.6669   21.4029 H   0  0  0  0  0  0
  -18.0334  -26.0037   22.9006 H   0  0  0  0  0  0
  -19.7952  -30.7245   24.2267 H   0  0  0  0  0  0
  -17.5033  -31.6248   24.5172 H   0  0  0  0  0  0
  -15.5363  -30.2971   23.7637 H   0  0  0  0  0  0
  -15.8686  -28.0793   22.7068 H   0  0  0  0  0  0
  -24.5779  -30.7301   25.7914 H   0  0  0  0  0  0
  -24.9052  -32.3026   26.5088 H   0  0  0  0  0  0
  -25.8012  -30.8898   27.0313 H   0  0  0  0  0  0
  -26.2944  -29.6797   24.1288 H   0  0  0  0  0  0
  -27.3950  -29.7309   25.4857 H   0  0  0  0  0  0
  -27.8836  -30.4319   23.9620 H   0  0  0  0  0  0
  -27.2648  -33.3689   26.2121 H   0  0  0  0  0  0
  -28.3799  -32.6984   25.0331 H   0  0  0  0  0  0
  -28.0776  -31.8566   26.5449 H   0  0  0  0  0  0
  -28.2578  -38.0131   24.7587 H   0  0  0  0  0  0
  -28.1125  -36.2682   24.6144 H   0  0  0  0  0  0
  -27.2345  -37.1295   25.8857 H   0  0  0  0  0  0
  -20.9322  -29.8817   21.6949 H   0  0  0  0  0  0
  -26.0181  -38.2896   24.1457 H   0  0  0  0  0  0
  -31.9938  -22.2611   18.5351 H   0  0  0  0  0  0
  -34.2004  -21.9458   17.1541 H   0  0  0  0  0  0
  -32.8495  -22.1921   16.0462 H   0  0  0  0  0  0
  -34.3427  -21.4600   15.4734 H   0  0  0  0  0  0
  -32.1121  -18.4492   15.6467 H   0  0  0  0  0  0
  -33.0266  -19.4926   14.5761 H   0  0  0  0  0  0
  -31.4784  -20.0352   15.2042 H   0  0  0  0  0  0
  -30.3017  -23.9274   22.2642 H   0  0  0  0  0  0
  -29.4512  -25.4549   22.1994 H   0  0  0  0  0  0
  -30.7955  -25.1607   21.1000 H   0  0  0  0  0  0
  -29.2170  -17.9853   19.5007 H   0  0  0  0  0  0
  -29.5072  -18.7693   21.0476 H   0  0  0  0  0  0
  -28.8635  -22.6805   18.9321 H   0  0  0  0  0  0
  -30.3986  -23.4255   19.1943 H   0  0  0  0  0  0
  -29.1867  -21.0705   20.8136 H   0  0  0  0  0  0
  -30.6925  -21.8459   21.2653 H   0  0  0  0  0  0
  -31.3377  -17.2606   21.6047 H   0  0  0  0  0  0
  -31.6578  -16.9375   19.9394 H   0  0  0  0  0  0
  -27.3343  -24.7957   19.4284 H   0  0  0  0  0  0
  -28.8218  -25.2215   18.6647 H   0  0  0  0  0  0
  -33.9542  -19.4845   16.9308 H   0  0  0  0  0  0
  -28.1253  -23.6800   21.1548 H   0  0  0  0  0  0
  -31.7408  -18.1207   18.0652 H   0  0  0  0  0  0
  -29.1568  -15.7069   20.9788 H   0  0  0  0  0  0
  1 25  1  0  0  0
  1 30  2  0  0  0
  1 86  1  0  0  0
  2  3  1  0  0  0
  2 25  1  0  0  0
  2 87  1  0  0  0
  2 88  1  0  0  0
  3  4  1  0  0  0
  3 89  1  0  0  0
  3 90  1  0  0  0
  4  5  1  0  0  0
  4 91  1  0  0  0
  4 92  1  0  0  0
  5  6  1  0  0  0
  5 26  1  0  0  0
  5 93  1  0  0  0
  6 25  1  0  0  0
  6 94  1  0  0  0
  6 95  1  0  0  0
  7  8  2  0  0  0
  7 26  1  0  0  0
  7 29  1  0  0  0
  8  9  1  0  0  0
  8 22  1  0  0  0
  9 10  1  0  0  0
  9 27  2  0  0  0
 10 11  2  0  0  0
 10 15  1  0  0  0
 11 12  1  0  0  0
 11 96  1  0  0  0
 12 13  2  0  0  0
 12 97  1  0  0  0
 13 14  1  0  0  0
 13 31  1  0  0  0
 14 15  2  0  0  0
 14 98  1  0  0  0
 15 99  1  0  0  0
 16 17  2  0  0  0
 16 21  1  0  0  0
 16 31  1  0  0  0
 17 18  1  0  0  0
 17100  1  0  0  0
 18 19  2  0  0  0
 18101  1  0  0  0
 19 20  1  0  0  0
 19 24  1  0  0  0
 20 21  2  0  0  0
 20102  1  0  0  0
 21 23  1  0  0  0
 22 28  1  0  0  0
 22 32  2  0  0  0
 26 27  1  0  0  0
 28103  1  0  0  0
 28104  1  0  0  0
 29105  1  0  0  0
 29106  1  0  0  0
 33 34  1  0  0  0
 33 66  1  0  0  0
 33 70  2  0  0  0
 34 36  1  0  0  0
 34 59  1  0  0  0
 34107  1  0  0  0
 35 44  2  0  0  0
 35 45  1  0  0  0
 35 68  1  0  0  0
 36 56  1  0  0  0
 36108  1  0  0  0
 37 39  1  0  0  0
 37 47  1  0  0  0
 37 66  1  0  0  0
 37109  1  0  0  0
 38 43  2  0  0  0
 38 46  1  0  0  0
 38 47  1  0  0  0
 39 64  1  0  0  0
 39 67  2  0  0  0
 40 52  1  0  0  0
 40 53  2  0  0  0
 40 58  1  0  0  0
 41110  1  0  0  0
 41111  1  0  0  0
 41112  1  0  0  0
 41 48  1  0  0  0
 42 43  1  0  0  0
 42 66  1  0  0  0
 42113  1  0  0  0
 42114  1  0  0  0
 43 44  1  0  0  0
 44115  1  0  0  0
 45 46  2  0  0  0
 45116  1  0  0  0
 46117  1  0  0  0
 47118  1  0  0  0
 47119  1  0  0  0
 48 56  1  0  0  0
 48 65  1  0  0  0
 48120  1  0  0  0
 49 50  1  0  0  0
 49 53  1  0  0  0
 49 64  1  0  0  0
 49121  1  0  0  0
 50 51  1  0  0  0
 50122  1  0  0  0
 50123  1  0  0  0
 51 52  1  0  0  0
 51124  1  0  0  0
 51125  1  0  0  0
 52126  1  0  0  0
 52127  1  0  0  0
 53 54  1  0  0  0
 54 55  2  0  0  0
 54128  1  0  0  0
 55 57  1  0  0  0
 55129  1  0  0  0
 56 69  2  0  0  0
 57 58  2  0  0  0
 57130  1  0  0  0
 58131  1  0  0  0
 59 60  1  0  0  0
 59 61  1  0  0  0
 59 62  1  0  0  0
 60132  1  0  0  0
 60133  1  0  0  0
 60134  1  0  0  0
 61135  1  0  0  0
 61136  1  0  0  0
 61137  1  0  0  0
 62138  1  0  0  0
 62139  1  0  0  0
 62140  1  0  0  0
 63 65  1  0  0  0
 63141  1  0  0  0
 63142  1  0  0  0
 63143  1  0  0  0
 64144  1  0  0  0
 65145  1  0  0  0
 68 81  1  0  0  0
 71 72  2  0  0  0
 71 84  1  0  0  0
 71146  1  0  0  0
 72 82  1  0  0  0
 72 85  1  0  0  0
 73 77  1  0  0  0
 73 84  1  0  0  0
 73 85  2  0  0  0
 74147  1  0  0  0
 74148  1  0  0  0
 74149  1  0  0  0
 74 82  1  0  0  0
 75 82  1  0  0  0
 75150  1  0  0  0
 75151  1  0  0  0
 75152  1  0  0  0
 76153  1  0  0  0
 76154  1  0  0  0
 76155  1  0  0  0
 76 83  1  0  0  0
 77 80  1  0  0  0
 77156  1  0  0  0
 77157  1  0  0  0
 78 79  1  0  0  0
 78 83  1  0  0  0
 78158  1  0  0  0
 78159  1  0  0  0
 79 84  1  0  0  0
 79160  1  0  0  0
 79161  1  0  0  0
 80 86  1  0  0  0
 80162  1  0  0  0
 80163  1  0  0  0
 81 83  1  0  0  0
 81164  1  0  0  0
 81165  1  0  0  0
 82166  1  0  0  0
 83167  1  0  0  0
 85168  1  0  0  0
 86169  1  0  0  0
M  CHG  1  85   1
M  ISO  4   1 100  68 101  81 101  86 100
M  END
> <chiral flag>
0

> <version>
0

> <s_m_source_file>
/data/baiqing/PycharmProjects/Reinvent-master-3.2/result/LINK_invent/BTK/process_docking_weight1_custom_sum_contain_oxygen_bond_distance_aromatic_linkinvent_7_9_3/rearranged_h_0085.sdf

> <i_m_source_file_index>
59

> <r_mmod_Potential_Energy-OPLS-2005>
-24.4434585571289

> <r_mmod_Stretch_Energy-OPLS-2005>
56.2692375183105

> <r_mmod_Bend_Energy-OPLS-2005>
138.02392578125

> <r_mmod_Torsional_Energy-OPLS-2005>
241.04133605957

> <r_mmod_Improper_Torsional_Energy-OPLS-2005>
5.03757238388062

> <r_mmod_Van_der_Waal_Energy-OPLS-2005>
140.612930297852

> <r_mmod_Electrostatic_Energy-OPLS-2005>
-235.495422363281

> <r_mmod_Solvation_Energy-OPLS-2005>
-408.359649658203

> <b_mmod_Minimization_Converged-OPLS-2005>
0

> <r_mmod_RMS_Derivative-OPLS-2005>
5.24144411087036

$$$$
62
                    3D
 Structure written by MMmdl.
162170  0  0  1  0            999 V2000
  -30.6799  -14.5632   20.5420 C   0  0  0  0  0  0
  -30.4283  -12.3597   19.4298 C   0  0  0  0  0  0
  -29.5027  -12.5096   18.2079 C   0  0  0  0  0  0
  -28.0239  -12.3556   18.6195 C   0  0  0  0  0  0
  -27.6537  -13.2186   19.8564 C   0  0  2  0  0  0
  -28.6988  -13.0624   20.9821 C   0  0  0  0  0  0
  -25.2563  -13.8186   20.5676 C   0  0  0  0  0  0
  -24.1842  -13.0437   20.9192 C   0  0  0  0  0  0
  -24.6426  -11.6915   20.8743 C   0  0  0  0  0  0
  -23.9097  -10.4293   21.0414 C   0  0  0  0  0  0
  -24.3640   -9.4198   21.9191 C   0  0  0  0  0  0
  -23.6309   -8.2239   22.0752 C   0  0  0  0  0  0
  -22.4290   -8.0293   21.3542 C   0  0  0  0  0  0
  -21.9930   -9.0269   20.4645 C   0  0  0  0  0  0
  -22.7269  -10.2141   20.3056 C   0  0  0  0  0  0
  -21.6855   -6.0755   22.5288 C   0  0  0  0  0  0
  -21.4016   -6.5650   23.8226 C   0  0  0  0  0  0
  -21.3658   -5.6795   24.9182 C   0  0  0  0  0  0
  -21.6042   -4.3057   24.7223 C   0  0  0  0  0  0
  -21.8812   -3.8156   23.4340 C   0  0  0  0  0  0
  -21.9185   -4.6982   22.3401 C   0  0  0  0  0  0
  -22.7857  -13.5238   21.1834 C   0  0  0  0  0  0
  -22.1651   -4.2178   21.0974 F   0  0  0  0  0  0
  -21.5622   -3.4526   25.7725 F   0  0  0  0  0  0
  -30.0161  -13.3794   20.4095 N   0  0  0  0  0  0
  -26.3005  -12.9383   20.3293 N   0  0  0  0  0  0
  -25.9346  -11.6537   20.5743 N   0  0  0  0  0  0
  -22.0476  -12.8255   22.0390 N   0  0  0  0  0  0
  -25.4230  -15.1918   20.4086 N   0  0  0  0  0  0
  -31.8549  -14.6947   20.1960 O   0  0  0  0  0  0
  -21.6635   -6.8900   21.4253 O   0  0  0  0  0  0
  -22.3543  -14.5542   20.6664 O   0  0  0  0  0  0
  -24.6224  -31.8613   23.2046 C   0  0  0  0  0  0
  -25.9096  -32.4793   23.8354 C   0  0  1  0  0  0
  -27.2338  -27.3727   20.1078 C   0  0  0  0  0  0
  -25.5939  -33.8590   24.2289 N   0  0  0  0  0  0
  -23.4125  -30.4849   21.5437 C   0  0  2  0  0  0
  -24.8591  -28.9386   20.1149 C   0  0  0  0  0  0
  -22.7449  -29.4643   22.4944 C   0  0  0  0  0  0
  -18.0281  -28.1380   22.8483 C   0  0  0  0  0  0
  -24.1470  -36.7278   23.2635 C   0  0  0  0  0  0
  -25.9463  -30.8095   21.3642 C   0  0  0  0  0  0
  -26.0226  -29.4384   20.7096 C   0  0  0  0  0  0
  -27.2154  -28.6679   20.6923 C   0  0  0  0  0  0
  -26.0471  -26.8986   19.5075 C   0  0  0  0  0  0
  -24.8695  -27.6713   19.5051 C   0  0  0  0  0  0
  -23.6237  -29.8132   20.1606 C   0  0  0  0  0  0
  -25.4100  -36.3089   24.0337 C   0  0  1  0  0  0
  -20.5876  -28.3683   23.1291 C   0  0  2  0  0  0
  -20.6768  -26.9408   22.5412 C   0  0  0  0  0  0
  -19.5747  -26.6389   21.5208 C   0  0  0  0  0  0
  -18.1927  -26.7924   22.1616 C   0  0  0  0  0  0
  -19.1531  -28.8846   23.2879 C   0  0  0  0  0  0
  -18.9458  -30.1453   23.8889 C   0  0  0  0  0  0
  -17.6461  -30.6586   24.0559 C   0  0  0  0  0  0
  -25.9045  -34.9467   23.5105 C   0  0  0  0  0  0
  -16.5352  -29.9088   23.6319 C   0  0  0  0  0  0
  -16.7272  -28.6502   23.0345 C   0  0  0  0  0  0
  -26.4501  -31.6590   25.0709 C   0  0  0  0  0  0
  -25.3761  -31.3701   26.1454 C   0  0  0  0  0  0
  -27.0329  -30.3025   24.6121 C   0  0  0  0  0  0
  -27.6074  -32.4312   25.7482 C   0  0  0  0  0  0
  -27.5562  -37.1790   24.8471 C   0  0  0  0  0  0
  -21.4168  -29.3046   22.3693 N   0  0  0  0  0  0
  -26.4269  -37.3794   23.9424 N   0  0  0  0  0  0
  -24.6780  -31.0689   22.0945 N   0  0  0  0  0  0
  -23.4196  -28.8188   23.3018 O   0  0  0  0  0  0
  -28.3952  -26.6088   20.0993 O   0  0  0  0  0  0
  -26.5602  -34.8944   22.4666 O   0  0  0  0  0  0
  -23.5414  -32.1374   23.7438 O   0  0  0  0  0  0
  -30.5693  -22.2521   19.1016 C   0  0  0  0  0  0
  -28.8262  -21.7350   20.2952 C   0  0  0  0  0  0
  -29.3646  -22.8133   19.6111 C   0  0  0  0  0  0
  -27.9759  -24.2116   18.0473 C   0  0  0  0  0  0
  -31.7856  -18.9552   21.6145 C   0  0  0  0  0  0
  -31.3455  -17.8266   19.4128 C   0  0  0  0  0  0
  -29.4645  -19.1854   20.5819 C   0  0  0  0  0  0
  -30.4144  -16.8818   21.5986 C   0  0  0  0  0  0
  -28.3253  -25.1777   20.3945 C   0  0  0  0  0  0
  -28.9100  -24.2584   19.2656 C   0  0  1  0  0  0
  -30.7192  -18.2108   20.7717 C   0  0  0  0  0  0
  -30.7193  -20.9668   19.3779 N   0  0  0  0  0  0
  -29.6629  -20.6126   20.1453 N   0  0  0  0  0  0
  -29.9378  -15.6263   20.9525 N   0  0  0  0  0  0
  -31.4714  -12.4683   19.1286 H   0  0  0  0  0  0
  -30.3416  -11.3609   19.8605 H   0  0  0  0  0  0
  -29.7649  -11.7750   17.4453 H   0  0  0  0  0  0
  -29.6589  -13.4891   17.7535 H   0  0  0  0  0  0
  -27.8468  -11.3031   18.8404 H   0  0  0  0  0  0
  -27.3740  -12.5967   17.7785 H   0  0  0  0  0  0
  -27.6771  -14.2574   19.5257 H   0  0  0  0  0  0
  -28.6959  -12.0442   21.3738 H   0  0  0  0  0  0
  -28.4564  -13.7051   21.8295 H   0  0  0  0  0  0
  -25.2789   -9.5676   22.4763 H   0  0  0  0  0  0
  -24.0009   -7.4637   22.7482 H   0  0  0  0  0  0
  -21.0852   -8.8814   19.8964 H   0  0  0  0  0  0
  -22.3746  -10.9686   19.6161 H   0  0  0  0  0  0
  -21.2014   -7.6157   23.9751 H   0  0  0  0  0  0
  -21.1488   -6.0510   25.9093 H   0  0  0  0  0  0
  -22.0591   -2.7624   23.2824 H   0  0  0  0  0  0
  -22.4064  -11.9936   22.4844 H   0  0  0  0  0  0
  -21.1098  -13.1319   22.2557 H   0  0  0  0  0  0
  -24.6479  -15.8381   20.5134 H   0  0  0  0  0  0
  -26.2644  -15.6360   20.0628 H   0  0  0  0  0  0
  -26.7170  -32.5477   23.1109 H   0  0  0  0  0  0
  -25.0181  -33.9729   25.0502 H   0  0  0  0  0  0
  -22.7031  -31.3022   21.4009 H   0  0  0  0  0  0
  -23.3757  -35.9583   23.3313 H   0  0  0  0  0  0
  -24.3550  -36.8882   22.2043 H   0  0  0  0  0  0
  -23.7206  -37.6487   23.6625 H   0  0  0  0  0  0
  -26.0710  -31.5745   20.5957 H   0  0  0  0  0  0
  -26.8290  -30.8596   21.9893 H   0  0  0  0  0  0
  -28.1166  -29.0525   21.1488 H   0  0  0  0  0  0
  -26.0234  -25.9313   19.0309 H   0  0  0  0  0  0
  -23.9772  -27.2812   19.0355 H   0  0  0  0  0  0
  -23.7405  -30.5831   19.3974 H   0  0  0  0  0  0
  -22.7437  -29.2405   19.8630 H   0  0  0  0  0  0
  -25.1284  -36.1933   25.0831 H   0  0  0  0  0  0
  -20.9965  -28.3259   24.1413 H   0  0  0  0  0  0
  -20.5659  -26.2294   23.3612 H   0  0  0  0  0  0
  -21.6636  -26.7446   22.1201 H   0  0  0  0  0  0
  -19.6903  -25.6307   21.1230 H   0  0  0  0  0  0
  -19.6674  -27.3195   20.6734 H   0  0  0  0  0  0
  -17.4188  -26.6669   21.4028 H   0  0  0  0  0  0
  -18.0326  -26.0068   22.9016 H   0  0  0  0  0  0
  -19.7945  -30.7267   24.2241 H   0  0  0  0  0  0
  -17.5027  -31.6258   24.5180 H   0  0  0  0  0  0
  -15.5353  -30.2990   23.7655 H   0  0  0  0  0  0
  -15.8671  -28.0833   22.7054 H   0  0  0  0  0  0
  -24.5952  -30.7024   25.7796 H   0  0  0  0  0  0
  -24.8941  -32.2854   26.4888 H   0  0  0  0  0  0
  -25.8140  -30.8891   27.0208 H   0  0  0  0  0  0
  -26.2872  -29.6787   24.1177 H   0  0  0  0  0  0
  -27.4085  -29.7276   25.4597 H   0  0  0  0  0  0
  -27.8716  -30.4350   23.9287 H   0  0  0  0  0  0
  -27.2694  -33.3612   26.2062 H   0  0  0  0  0  0
  -28.3882  -32.6862   25.0304 H   0  0  0  0  0  0
  -28.0723  -31.8427   26.5399 H   0  0  0  0  0  0
  -28.2602  -38.0066   24.7527 H   0  0  0  0  0  0
  -28.1037  -36.2612   24.6284 H   0  0  0  0  0  0
  -27.2280  -37.1434   25.8873 H   0  0  0  0  0  0
  -20.9340  -29.8770   21.6906 H   0  0  0  0  0  0
  -26.0159  -38.2868   24.1452 H   0  0  0  0  0  0
  -31.3144  -22.7375   18.4869 H   0  0  0  0  0  0
  -27.8947  -21.6564   20.8383 H   0  0  0  0  0  0
  -28.4374  -23.6784   17.2151 H   0  0  0  0  0  0
  -27.7418  -25.2140   17.6883 H   0  0  0  0  0  0
  -27.0399  -23.7054   18.2857 H   0  0  0  0  0  0
  -32.1879  -19.8375   21.1210 H   0  0  0  0  0  0
  -32.6465  -18.3207   21.8292 H   0  0  0  0  0  0
  -31.3730  -19.2774   22.5720 H   0  0  0  0  0  0
  -31.6806  -18.6899   18.8422 H   0  0  0  0  0  0
  -30.6387  -17.2782   18.7894 H   0  0  0  0  0  0
  -32.2226  -17.1957   19.5488 H   0  0  0  0  0  0
  -28.9277  -19.2326   21.5310 H   0  0  0  0  0  0
  -28.7630  -18.7269   19.8835 H   0  0  0  0  0  0
  -29.7014  -17.1203   22.3884 H   0  0  0  0  0  0
  -31.3103  -16.5827   22.1449 H   0  0  0  0  0  0
  -28.9395  -25.0442   21.2856 H   0  0  0  0  0  0
  -27.3246  -24.8566   20.6863 H   0  0  0  0  0  0
  -29.8018  -24.7913   18.9334 H   0  0  0  0  0  0
  -28.9592  -15.4183   21.0876 H   0  0  0  0  0  0
  1 25  1  0  0  0
  1 30  2  0  0  0
  1 84  1  0  0  0
  2  3  1  0  0  0
  2 25  1  0  0  0
  2 85  1  0  0  0
  2 86  1  0  0  0
  3  4  1  0  0  0
  3 87  1  0  0  0
  3 88  1  0  0  0
  4  5  1  0  0  0
  4 89  1  0  0  0
  4 90  1  0  0  0
  5  6  1  0  0  0
  5 26  1  0  0  0
  5 91  1  0  0  0
  6 25  1  0  0  0
  6 92  1  0  0  0
  6 93  1  0  0  0
  7  8  2  0  0  0
  7 26  1  0  0  0
  7 29  1  0  0  0
  8  9  1  0  0  0
  8 22  1  0  0  0
  9 10  1  0  0  0
  9 27  2  0  0  0
 10 11  2  0  0  0
 10 15  1  0  0  0
 11 12  1  0  0  0
 11 94  1  0  0  0
 12 13  2  0  0  0
 12 95  1  0  0  0
 13 14  1  0  0  0
 13 31  1  0  0  0
 14 15  2  0  0  0
 14 96  1  0  0  0
 15 97  1  0  0  0
 16 17  2  0  0  0
 16 21  1  0  0  0
 16 31  1  0  0  0
 17 18  1  0  0  0
 17 98  1  0  0  0
 18 19  2  0  0  0
 18 99  1  0  0  0
 19 20  1  0  0  0
 19 24  1  0  0  0
 20 21  2  0  0  0
 20100  1  0  0  0
 21 23  1  0  0  0
 22 28  1  0  0  0
 22 32  2  0  0  0
 26 27  1  0  0  0
 28101  1  0  0  0
 28102  1  0  0  0
 29103  1  0  0  0
 29104  1  0  0  0
 33 34  1  0  0  0
 33 66  1  0  0  0
 33 70  2  0  0  0
 34 36  1  0  0  0
 34 59  1  0  0  0
 34105  1  0  0  0
 35 44  2  0  0  0
 35 45  1  0  0  0
 35 68  1  0  0  0
 36 56  1  0  0  0
 36106  1  0  0  0
 37 39  1  0  0  0
 37 47  1  0  0  0
 37 66  1  0  0  0
 37107  1  0  0  0
 38 43  2  0  0  0
 38 46  1  0  0  0
 38 47  1  0  0  0
 39 64  1  0  0  0
 39 67  2  0  0  0
 40 52  1  0  0  0
 40 53  2  0  0  0
 40 58  1  0  0  0
 41108  1  0  0  0
 41109  1  0  0  0
 41110  1  0  0  0
 41 48  1  0  0  0
 42 43  1  0  0  0
 42 66  1  0  0  0
 42111  1  0  0  0
 42112  1  0  0  0
 43 44  1  0  0  0
 44113  1  0  0  0
 45 46  2  0  0  0
 45114  1  0  0  0
 46115  1  0  0  0
 47116  1  0  0  0
 47117  1  0  0  0
 48 56  1  0  0  0
 48 65  1  0  0  0
 48118  1  0  0  0
 49 50  1  0  0  0
 49 53  1  0  0  0
 49 64  1  0  0  0
 49119  1  0  0  0
 50 51  1  0  0  0
 50120  1  0  0  0
 50121  1  0  0  0
 51 52  1  0  0  0
 51122  1  0  0  0
 51123  1  0  0  0
 52124  1  0  0  0
 52125  1  0  0  0
 53 54  1  0  0  0
 54 55  2  0  0  0
 54126  1  0  0  0
 55 57  1  0  0  0
 55127  1  0  0  0
 56 69  2  0  0  0
 57 58  2  0  0  0
 57128  1  0  0  0
 58129  1  0  0  0
 59 60  1  0  0  0
 59 61  1  0  0  0
 59 62  1  0  0  0
 60130  1  0  0  0
 60131  1  0  0  0
 60132  1  0  0  0
 61133  1  0  0  0
 61134  1  0  0  0
 61135  1  0  0  0
 62136  1  0  0  0
 62137  1  0  0  0
 62138  1  0  0  0
 63 65  1  0  0  0
 63139  1  0  0  0
 63140  1  0  0  0
 63141  1  0  0  0
 64142  1  0  0  0
 65143  1  0  0  0
 68 79  1  0  0  0
 71 73  1  0  0  0
 71 82  2  0  0  0
 71144  1  0  0  0
 72 73  2  0  0  0
 72 83  1  0  0  0
 72145  1  0  0  0
 73 80  1  0  0  0
 74146  1  0  0  0
 74147  1  0  0  0
 74148  1  0  0  0
 74 80  1  0  0  0
 75149  1  0  0  0
 75150  1  0  0  0
 75151  1  0  0  0
 75 81  1  0  0  0
 76 81  1  0  0  0
 76152  1  0  0  0
 76153  1  0  0  0
 76154  1  0  0  0
 77 81  1  0  0  0
 77 83  1  0  0  0
 77155  1  0  0  0
 77156  1  0  0  0
 78 81  1  0  0  0
 78 84  1  0  0  0
 78157  1  0  0  0
 78158  1  0  0  0
 79 80  1  0  0  0
 79159  1  0  0  0
 79160  1  0  0  0
 80161  1  0  0  0
 82 83  1  0  0  0
 84162  1  0  0  0
M  ISO  4   1 100  68 101  79 101  84 100
M  END
> <chiral flag>
0

> <version>
0

> <s_m_source_file>
/data/baiqing/PycharmProjects/Reinvent-master-3.2/result/LINK_invent/BTK/process_docking_weight1_custom_sum_contain_oxygen_bond_distance_aromatic_linkinvent_7_9_3/rearranged_h_0085.sdf

> <i_m_source_file_index>
60

> <r_mmod_Potential_Energy-OPLS-2005>
10.7619590759277

> <r_mmod_Stretch_Energy-OPLS-2005>
63.8656959533691

> <r_mmod_Bend_Energy-OPLS-2005>
149.682693481445

> <r_mmod_Torsional_Energy-OPLS-2005>
242.304428100586

> <r_mmod_Improper_Torsional_Energy-OPLS-2005>
4.49611520767212

> <r_mmod_Van_der_Waal_Energy-OPLS-2005>
124.696350097656

> <r_mmod_Electrostatic_Energy-OPLS-2005>
-385.517700195312

> <r_mmod_Solvation_Energy-OPLS-2005>
-217.000930786133

> <b_mmod_Minimization_Converged-OPLS-2005>
0

> <r_mmod_RMS_Derivative-OPLS-2005>
2.47009253501892

$$$$
63
                    3D
 Structure written by MMmdl.
165173  0  0  1  0            999 V2000
  -30.5080  -15.2294   20.2056 C   0  0  0  0  0  0
  -30.4354  -12.7245   19.4900 C   0  0  0  0  0  0
  -29.5206  -12.5704   18.2568 C   0  0  0  0  0  0
  -28.0690  -12.3147   18.6911 C   0  0  0  0  0  0
  -27.6274  -13.2817   19.8181 C   0  0  2  0  0  0
  -28.6885  -13.4819   20.9261 C   0  0  0  0  0  0
  -25.2528  -13.8288   20.5734 C   0  0  0  0  0  0
  -24.1826  -13.0416   20.9218 C   0  0  0  0  0  0
  -24.6480  -11.6971   20.8745 C   0  0  0  0  0  0
  -23.9124  -10.4313   21.0382 C   0  0  0  0  0  0
  -24.3648   -9.4247   21.9173 C   0  0  0  0  0  0
  -23.6332   -8.2285   22.0753 C   0  0  0  0  0  0
  -22.4334   -8.0284   21.3534 C   0  0  0  0  0  0
  -21.9951   -9.0240   20.4631 C   0  0  0  0  0  0
  -22.7269  -10.2143   20.3056 C   0  0  0  0  0  0
  -21.6880   -6.0727   22.5267 C   0  0  0  0  0  0
  -21.4023   -6.5631   23.8181 C   0  0  0  0  0  0
  -21.3691   -5.6799   24.9148 C   0  0  0  0  0  0
  -21.6076   -4.3068   24.7206 C   0  0  0  0  0  0
  -21.8819   -3.8126   23.4330 C   0  0  0  0  0  0
  -21.9190   -4.6956   22.3376 C   0  0  0  0  0  0
  -22.7828  -13.5210   21.1811 C   0  0  0  0  0  0
  -22.1678   -4.2140   21.0970 F   0  0  0  0  0  0
  -21.5651   -3.4543   25.7727 F   0  0  0  0  0  0
  -29.9330  -13.9223   20.2676 N   0  0  0  0  0  0
  -26.2977  -12.9566   20.3288 N   0  0  0  0  0  0
  -25.9460  -11.6694   20.5842 N   0  0  0  0  0  0
  -22.0525  -12.8089   22.0379 N   0  0  0  0  0  0
  -25.4057  -15.2001   20.4178 N   0  0  0  0  0  0
  -31.7075  -15.1367   19.9132 O   0  0  0  0  0  0
  -21.6686   -6.8898   21.4238 O   0  0  0  0  0  0
  -22.3483  -14.5497   20.6732 O   0  0  0  0  0  0
  -24.6559  -31.8355   23.1830 C   0  0  0  0  0  0
  -25.9300  -32.4649   23.8205 C   0  0  1  0  0  0
  -27.2258  -27.0150   20.1144 C   0  0  0  0  0  0
  -25.6020  -33.8451   24.2166 N   0  0  0  0  0  0
  -23.4656  -30.4541   21.5300 C   0  0  2  0  0  0
  -24.9147  -28.8569   20.1051 C   0  0  0  0  0  0
  -22.7614  -29.4530   22.4795 C   0  0  0  0  0  0
  -18.0319  -28.1444   22.8455 C   0  0  0  0  0  0
  -24.1508  -36.7206   23.2644 C   0  0  0  0  0  0
  -26.0335  -30.6624   21.4052 C   0  0  0  0  0  0
  -26.1018  -29.2649   20.7268 C   0  0  0  0  0  0
  -27.2547  -28.3606   20.7100 C   0  0  0  0  0  0
  -26.0108  -26.7525   19.4432 C   0  0  0  0  0  0
  -24.8941  -27.6219   19.4419 C   0  0  0  0  0  0
  -23.6989  -29.7848   20.1506 C   0  0  0  0  0  0
  -25.4149  -36.2979   24.0299 C   0  0  1  0  0  0
  -20.5934  -28.3814   23.1184 C   0  0  2  0  0  0
  -20.6829  -26.9506   22.5399 C   0  0  0  0  0  0
  -19.5795  -26.6429   21.5207 C   0  0  0  0  0  0
  -18.1972  -26.7988   22.1602 C   0  0  0  0  0  0
  -19.1573  -28.8935   23.2822 C   0  0  0  0  0  0
  -18.9497  -30.1508   23.8862 C   0  0  0  0  0  0
  -17.6492  -30.6638   24.0562 C   0  0  0  0  0  0
  -25.9099  -34.9365   23.5029 C   0  0  0  0  0  0
  -16.5384  -29.9114   23.6358 C   0  0  0  0  0  0
  -16.7294  -28.6550   23.0353 C   0  0  0  0  0  0
  -26.4592  -31.6515   25.0673 C   0  0  0  0  0  0
  -25.3751  -31.3680   26.1344 C   0  0  0  0  0  0
  -27.0549  -30.2903   24.6381 C   0  0  0  0  0  0
  -27.6102  -32.4321   25.7491 C   0  0  0  0  0  0
  -27.5585  -37.1750   24.8458 C   0  0  0  0  0  0
  -21.4284  -29.3109   22.3508 N   0  0  0  0  0  0
  -26.4298  -37.3707   23.9396 N   0  0  0  0  0  0
  -24.7385  -31.0061   22.0945 N   0  0  0  0  0  0
  -23.4181  -28.8085   23.3002 O   0  0  0  0  0  0
  -28.2679  -25.9609   20.1002 O   0  0  0  0  0  0
  -26.5673  -34.8869   22.4614 O   0  0  0  0  0  0
  -23.5658  -32.1327   23.6929 O   0  0  0  0  0  0
  -30.0239  -20.4429   18.1299 C   0  0  0  0  0  0
  -30.5460  -19.7424   17.0509 C   0  0  0  0  0  0
  -29.6998  -19.8581   19.3878 C   0  0  0  0  0  0
  -30.8886  -18.4143   17.2359 C   0  0  0  0  0  0
  -30.0708  -18.3083   19.4860 C   0  0  0  0  0  0
  -31.4041  -17.5740   16.0864 C   0  0  0  0  0  0
  -32.2017  -17.7285   22.8752 C   0  0  0  0  0  0
  -30.7211  -16.1894   24.1557 C   0  0  0  0  0  0
  -28.9433  -21.1677   20.2159 C   0  0  0  0  0  0
  -28.9151  -22.8958   19.7058 C   0  0  0  0  0  0
  -29.9339  -17.2487   21.9514 C   0  0  0  0  0  0
  -28.0218  -24.3555   20.1883 C   0  0  0  0  0  0
  -29.8378  -16.8652   20.4427 C   0  0  2  0  0  0
  -31.1200  -16.6853   22.7718 C   0  0  0  0  0  0
  -30.7094  -17.7811   18.4090 N   0  0  0  0  0  0
  -31.4757  -12.8063   19.1663 H   0  0  0  0  0  0
  -30.4051  -11.8143   20.0941 H   0  0  0  0  0  0
  -29.8596  -11.7659   17.6034 H   0  0  0  0  0  0
  -29.5662  -13.4929   17.6699 H   0  0  0  0  0  0
  -27.9840  -11.2713   19.0114 H   0  0  0  0  0  0
  -27.3977  -12.4079   17.8385 H   0  0  0  0  0  0
  -27.5390  -14.2452   19.3178 H   0  0  0  0  0  0
  -28.8367  -12.5795   21.5210 H   0  0  0  0  0  0
  -28.3670  -14.2576   21.6207 H   0  0  0  0  0  0
  -25.2824   -9.5714   22.4689 H   0  0  0  0  0  0
  -24.0034   -7.4699   22.7484 H   0  0  0  0  0  0
  -21.0884   -8.8729   19.8936 H   0  0  0  0  0  0
  -22.3710  -10.9634   19.6130 H   0  0  0  0  0  0
  -21.2032   -7.6144   23.9659 H   0  0  0  0  0  0
  -21.1542   -6.0545   25.9052 H   0  0  0  0  0  0
  -22.0572   -2.7589   23.2809 H   0  0  0  0  0  0
  -22.4268  -11.9803   22.4727 H   0  0  0  0  0  0
  -21.1147  -13.1022   22.2687 H   0  0  0  0  0  0
  -24.6188  -15.8318   20.5418 H   0  0  0  0  0  0
  -26.2506  -15.6688   20.1059 H   0  0  0  0  0  0
  -26.7349  -32.5192   23.0903 H   0  0  0  0  0  0
  -25.0144  -33.9557   25.0294 H   0  0  0  0  0  0
  -22.7775  -31.2898   21.3767 H   0  0  0  0  0  0
  -23.3803  -35.9501   23.3265 H   0  0  0  0  0  0
  -24.3587  -36.8915   22.2069 H   0  0  0  0  0  0
  -23.7255  -37.6362   23.6746 H   0  0  0  0  0  0
  -26.2164  -31.4182   20.6403 H   0  0  0  0  0  0
  -26.8876  -30.6991   22.0682 H   0  0  0  0  0  0
  -28.1597  -28.6754   21.2075 H   0  0  0  0  0  0
  -25.9016  -25.8335   18.8930 H   0  0  0  0  0  0
  -23.9932  -27.3279   18.9233 H   0  0  0  0  0  0
  -23.8491  -30.5735   19.4100 H   0  0  0  0  0  0
  -22.8011  -29.2533   19.8260 H   0  0  0  0  0  0
  -25.1347  -36.1783   25.0788 H   0  0  0  0  0  0
  -21.0033  -28.3470   24.1294 H   0  0  0  0  0  0
  -20.5815  -26.2412   23.3623 H   0  0  0  0  0  0
  -21.6692  -26.7557   22.1136 H   0  0  0  0  0  0
  -19.6988  -25.6334   21.1258 H   0  0  0  0  0  0
  -19.6754  -27.3222   20.6726 H   0  0  0  0  0  0
  -17.4252  -26.6724   21.4003 H   0  0  0  0  0  0
  -18.0374  -26.0148   22.9005 H   0  0  0  0  0  0
  -19.7971  -30.7337   24.2231 H   0  0  0  0  0  0
  -17.5050  -31.6306   24.5222 H   0  0  0  0  0  0
  -15.5397  -30.3012   23.7727 H   0  0  0  0  0  0
  -15.8679  -28.0865   22.7076 H   0  0  0  0  0  0
  -24.5958  -30.7051   25.7588 H   0  0  0  0  0  0
  -24.8922  -32.2839   26.4727 H   0  0  0  0  0  0
  -25.7990  -30.8829   27.0147 H   0  0  0  0  0  0
  -26.3220  -29.6525   24.1441 H   0  0  0  0  0  0
  -27.4184  -29.7307   25.5006 H   0  0  0  0  0  0
  -27.9099  -30.4127   23.9744 H   0  0  0  0  0  0
  -27.2693  -33.3668   26.1949 H   0  0  0  0  0  0
  -28.3955  -32.6819   25.0349 H   0  0  0  0  0  0
  -28.0724  -31.8532   26.5497 H   0  0  0  0  0  0
  -28.2518  -38.0115   24.7534 H   0  0  0  0  0  0
  -28.1159  -36.2632   24.6265 H   0  0  0  0  0  0
  -27.2255  -37.1328   25.8837 H   0  0  0  0  0  0
  -20.9524  -29.8765   21.6610 H   0  0  0  0  0  0
  -26.0149  -38.2758   24.1440 H   0  0  0  0  0  0
  -29.7946  -21.4663   17.8828 H   0  0  0  0  0  0
  -30.6399  -20.2472   16.0973 H   0  0  0  0  0  0
  -31.1318  -16.5323   16.2489 H   0  0  0  0  0  0
  -32.4907  -17.6294   16.0486 H   0  0  0  0  0  0
  -30.9909  -17.8819   15.1184 H   0  0  0  0  0  0
  -33.0722  -17.2616   23.3196 H   0  0  0  0  0  0
  -31.9160  -18.5558   23.5174 H   0  0  0  0  0  0
  -32.4412  -18.1027   21.8806 H   0  0  0  0  0  0
  -31.5704  -15.6397   24.5755 H   0  0  0  0  0  0
  -29.8993  -15.4870   24.0777 H   0  0  0  0  0  0
  -30.4156  -16.9913   24.8258 H   0  0  0  0  0  0
  -29.3035  -21.1295   21.2454 H   0  0  0  0  0  0
  -27.8916  -20.8844   20.2894 H   0  0  0  0  0  0
  -28.5497  -22.8549   18.6761 H   0  0  0  0  0  0
  -29.9586  -23.1844   19.5934 H   0  0  0  0  0  0
  -28.9958  -17.0207   22.4627 H   0  0  0  0  0  0
  -29.9838  -18.3360   22.0216 H   0  0  0  0  0  0
  -27.7800  -24.2050   21.2354 H   0  0  0  0  0  0
  -27.0720  -24.2265   19.6684 H   0  0  0  0  0  0
  -28.7762  -16.6996   20.2618 H   0  0  0  0  0  0
  -31.6153  -15.8171   22.3424 H   0  0  0  0  0  0
  1 25  1  0  0  0
  1 30  2  0  0  0
  1 83  1  0  0  0
  2  3  1  0  0  0
  2 25  1  0  0  0
  2 86  1  0  0  0
  2 87  1  0  0  0
  3  4  1  0  0  0
  3 88  1  0  0  0
  3 89  1  0  0  0
  4  5  1  0  0  0
  4 90  1  0  0  0
  4 91  1  0  0  0
  5  6  1  0  0  0
  5 26  1  0  0  0
  5 92  1  0  0  0
  6 25  1  0  0  0
  6 93  1  0  0  0
  6 94  1  0  0  0
  7  8  2  0  0  0
  7 26  1  0  0  0
  7 29  1  0  0  0
  8  9  1  0  0  0
  8 22  1  0  0  0
  9 10  1  0  0  0
  9 27  2  0  0  0
 10 11  2  0  0  0
 10 15  1  0  0  0
 11 12  1  0  0  0
 11 95  1  0  0  0
 12 13  2  0  0  0
 12 96  1  0  0  0
 13 14  1  0  0  0
 13 31  1  0  0  0
 14 15  2  0  0  0
 14 97  1  0  0  0
 15 98  1  0  0  0
 16 17  2  0  0  0
 16 21  1  0  0  0
 16 31  1  0  0  0
 17 18  1  0  0  0
 17 99  1  0  0  0
 18 19  2  0  0  0
 18100  1  0  0  0
 19 20  1  0  0  0
 19 24  1  0  0  0
 20 21  2  0  0  0
 20101  1  0  0  0
 21 23  1  0  0  0
 22 28  1  0  0  0
 22 32  2  0  0  0
 26 27  1  0  0  0
 28102  1  0  0  0
 28103  1  0  0  0
 29104  1  0  0  0
 29105  1  0  0  0
 33 34  1  0  0  0
 33 66  1  0  0  0
 33 70  2  0  0  0
 34 36  1  0  0  0
 34 59  1  0  0  0
 34106  1  0  0  0
 35 44  2  0  0  0
 35 45  1  0  0  0
 35 68  1  0  0  0
 36 56  1  0  0  0
 36107  1  0  0  0
 37 39  1  0  0  0
 37 47  1  0  0  0
 37 66  1  0  0  0
 37108  1  0  0  0
 38 43  2  0  0  0
 38 46  1  0  0  0
 38 47  1  0  0  0
 39 64  1  0  0  0
 39 67  2  0  0  0
 40 52  1  0  0  0
 40 53  2  0  0  0
 40 58  1  0  0  0
 41109  1  0  0  0
 41110  1  0  0  0
 41111  1  0  0  0
 41 48  1  0  0  0
 42 43  1  0  0  0
 42 66  1  0  0  0
 42112  1  0  0  0
 42113  1  0  0  0
 43 44  1  0  0  0
 44114  1  0  0  0
 45 46  2  0  0  0
 45115  1  0  0  0
 46116  1  0  0  0
 47117  1  0  0  0
 47118  1  0  0  0
 48 56  1  0  0  0
 48 65  1  0  0  0
 48119  1  0  0  0
 49 50  1  0  0  0
 49 53  1  0  0  0
 49 64  1  0  0  0
 49120  1  0  0  0
 50 51  1  0  0  0
 50121  1  0  0  0
 50122  1  0  0  0
 51 52  1  0  0  0
 51123  1  0  0  0
 51124  1  0  0  0
 52125  1  0  0  0
 52126  1  0  0  0
 53 54  1  0  0  0
 54 55  2  0  0  0
 54127  1  0  0  0
 55 57  1  0  0  0
 55128  1  0  0  0
 56 69  2  0  0  0
 57 58  2  0  0  0
 57129  1  0  0  0
 58130  1  0  0  0
 59 60  1  0  0  0
 59 61  1  0  0  0
 59 62  1  0  0  0
 60131  1  0  0  0
 60132  1  0  0  0
 60133  1  0  0  0
 61134  1  0  0  0
 61135  1  0  0  0
 61136  1  0  0  0
 62137  1  0  0  0
 62138  1  0  0  0
 62139  1  0  0  0
 63 65  1  0  0  0
 63140  1  0  0  0
 63141  1  0  0  0
 63142  1  0  0  0
 64143  1  0  0  0
 65144  1  0  0  0
 68 82  1  0  0  0
 71 72  2  0  0  0
 71 73  1  0  0  0
 71145  1  0  0  0
 72 74  1  0  0  0
 72146  1  0  0  0
 73 75  2  0  0  0
 73 79  1  0  0  0
 74 76  1  0  0  0
 74 85  2  0  0  0
 75 83  1  0  0  0
 75 85  1  0  0  0
 76147  1  0  0  0
 76148  1  0  0  0
 76149  1  0  0  0
 77150  1  0  0  0
 77151  1  0  0  0
 77152  1  0  0  0
 77 84  1  0  0  0
 78 84  1  0  0  0
 78153  1  0  0  0
 78154  1  0  0  0
 78155  1  0  0  0
 79 80  1  0  0  0
 79156  1  0  0  0
 79157  1  0  0  0
 80 82  1  0  0  0
 80158  1  0  0  0
 80159  1  0  0  0
 81 84  1  0  0  0
 81160  1  0  0  0
 81161  1  0  0  0
 81 83  1  0  0  0
 82162  1  0  0  0
 82163  1  0  0  0
 83164  1  0  0  0
 84165  1  0  0  0
M  ISO  4   1 100  68 101  82 101  83 100
M  END
> <chiral flag>
0

> <version>
0

> <s_m_source_file>
/data/baiqing/PycharmProjects/Reinvent-master-3.2/result/LINK_invent/BTK/process_docking_weight1_custom_sum_contain_oxygen_bond_distance_aromatic_linkinvent_7_9_3/rearranged_h_0085.sdf

> <i_m_source_file_index>
61

> <r_mmod_Potential_Energy-OPLS-2005>
1339.13232421875

> <r_mmod_Stretch_Energy-OPLS-2005>
627.225769042969

> <r_mmod_Bend_Energy-OPLS-2005>
541.486572265625

> <r_mmod_Torsional_Energy-OPLS-2005>
218.988098144531

> <r_mmod_Improper_Torsional_Energy-OPLS-2005>
2.24432468414307

> <r_mmod_Van_der_Waal_Energy-OPLS-2005>
144.318069458008

> <r_mmod_Electrostatic_Energy-OPLS-2005>
-366.270355224609

> <r_mmod_Solvation_Energy-OPLS-2005>
-205.298461914062

> <b_mmod_Minimization_Converged-OPLS-2005>
0

> <r_mmod_RMS_Derivative-OPLS-2005>
14.4133939743042

$$$$
64
                    3D
 Structure written by MMmdl.
171179  0  0  1  0            999 V2000
  -30.6885  -14.5280   20.6456 C   0  0  0  0  0  0
  -30.4270  -12.3688   19.4414 C   0  0  0  0  0  0
  -29.5077  -12.5437   18.2183 C   0  0  0  0  0  0
  -28.0260  -12.3886   18.6163 C   0  0  0  0  0  0
  -27.6571  -13.2227   19.8761 C   0  0  2  0  0  0
  -28.6918  -13.0103   21.0021 C   0  0  0  0  0  0
  -25.2533  -13.8199   20.5735 C   0  0  0  0  0  0
  -24.1837  -13.0429   20.9248 C   0  0  0  0  0  0
  -24.6428  -11.6908   20.8757 C   0  0  0  0  0  0
  -23.9099  -10.4294   21.0390 C   0  0  0  0  0  0
  -24.3655   -9.4201   21.9166 C   0  0  0  0  0  0
  -23.6340   -8.2230   22.0730 C   0  0  0  0  0  0
  -22.4308   -8.0295   21.3533 C   0  0  0  0  0  0
  -21.9936   -9.0256   20.4610 C   0  0  0  0  0  0
  -22.7260  -10.2138   20.3033 C   0  0  0  0  0  0
  -21.6862   -6.0757   22.5311 C   0  0  0  0  0  0
  -21.4004   -6.5635   23.8255 C   0  0  0  0  0  0
  -21.3651   -5.6769   24.9214 C   0  0  0  0  0  0
  -21.6056   -4.3034   24.7235 C   0  0  0  0  0  0
  -21.8817   -3.8145   23.4343 C   0  0  0  0  0  0
  -21.9190   -4.6978   22.3405 C   0  0  0  0  0  0
  -22.7826  -13.5196   21.1880 C   0  0  0  0  0  0
  -22.1642   -4.2182   21.0979 F   0  0  0  0  0  0
  -21.5642   -3.4494   25.7729 F   0  0  0  0  0  0
  -30.0190  -13.3464   20.4689 N   0  0  0  0  0  0
  -26.2986  -12.9388   20.3334 N   0  0  0  0  0  0
  -25.9341  -11.6522   20.5716 N   0  0  0  0  0  0
  -22.0403  -12.8249   22.0458 N   0  0  0  0  0  0
  -25.4156  -15.1949   20.4180 N   0  0  0  0  0  0
  -31.7561  -14.7530   20.0577 O   0  0  0  0  0  0
  -21.6632   -6.8909   21.4276 O   0  0  0  0  0  0
  -22.3492  -14.5452   20.6642 O   0  0  0  0  0  0
  -24.6263  -31.8587   23.2041 C   0  0  0  0  0  0
  -25.9119  -32.4776   23.8376 C   0  0  1  0  0  0
  -27.2170  -27.3176   20.1226 C   0  0  0  0  0  0
  -25.5968  -33.8586   24.2314 N   0  0  0  0  0  0
  -23.4200  -30.4834   21.5458 C   0  0  2  0  0  0
  -24.8604  -28.9333   20.1148 C   0  0  0  0  0  0
  -22.7452  -29.4624   22.4933 C   0  0  0  0  0  0
  -18.0261  -28.1358   22.8482 C   0  0  0  0  0  0
  -24.1493  -36.7271   23.2641 C   0  0  0  0  0  0
  -25.9609  -30.7881   21.3747 C   0  0  0  0  0  0
  -26.0272  -29.4145   20.7205 C   0  0  0  0  0  0
  -27.2048  -28.6148   20.7176 C   0  0  0  0  0  0
  -26.0225  -26.8772   19.5058 C   0  0  0  0  0  0
  -24.8590  -27.6707   19.5027 C   0  0  0  0  0  0
  -23.6338  -29.8203   20.1602 C   0  0  0  0  0  0
  -25.4124  -36.3089   24.0350 C   0  0  1  0  0  0
  -20.5865  -28.3668   23.1260 C   0  0  2  0  0  0
  -20.6767  -26.9404   22.5375 C   0  0  0  0  0  0
  -19.5748  -26.6372   21.5175 C   0  0  0  0  0  0
  -18.1926  -26.7905   22.1606 C   0  0  0  0  0  0
  -19.1519  -28.8836   23.2865 C   0  0  0  0  0  0
  -18.9456  -30.1422   23.8883 C   0  0  0  0  0  0
  -17.6464  -30.6577   24.0550 C   0  0  0  0  0  0
  -25.9064  -34.9454   23.5132 C   0  0  0  0  0  0
  -16.5346  -29.9083   23.6325 C   0  0  0  0  0  0
  -16.7249  -28.6498   23.0364 C   0  0  0  0  0  0
  -26.4502  -31.6568   25.0726 C   0  0  0  0  0  0
  -25.3776  -31.3677   26.1484 C   0  0  0  0  0  0
  -27.0329  -30.3013   24.6141 C   0  0  0  0  0  0
  -27.6093  -32.4261   25.7471 C   0  0  0  0  0  0
  -27.5589  -37.1795   24.8471 C   0  0  0  0  0  0
  -21.4166  -29.3048   22.3682 N   0  0  0  0  0  0
  -26.4291  -37.3793   23.9422 N   0  0  0  0  0  0
  -24.6881  -31.0611   22.0990 N   0  0  0  0  0  0
  -23.4166  -28.8155   23.3025 O   0  0  0  0  0  0
  -28.3683  -26.5220   20.1830 O   0  0  0  0  0  0
  -26.5588  -34.8925   22.4663 O   0  0  0  0  0  0
  -23.5415  -32.1370   23.7368 O   0  0  0  0  0  0
  -28.4623  -17.3720   23.4565 C   0  0  0  0  0  0
  -29.0295  -17.6608   22.2273 C   0  0  0  0  0  0
  -28.9226  -19.4783   23.4767 C   0  0  0  0  0  0
  -27.9224  -16.0796   23.9952 C   0  0  0  0  0  0
  -28.4488  -23.1478   24.7449 C   0  0  0  0  0  0
  -31.0832  -15.6360   22.7279 C   0  0  0  0  0  0
  -29.4471  -16.6518   21.1337 C   0  0  0  0  0  0
  -29.2798  -20.8478   24.0061 C   0  0  0  0  0  0
  -28.1032  -21.6559   24.5876 C   0  0  0  0  0  0
  -28.7867  -22.5222   20.1188 C   0  0  0  0  0  0
  -28.3559  -21.2082   20.8852 C   0  0  0  0  0  0
  -28.2978  -23.9257   20.6769 C   0  0  0  0  0  0
  -29.4048  -20.0248   21.0705 C   0  0  0  0  0  0
  -28.4297  -25.1410   19.6728 C   0  0  0  0  0  0
  -28.4769  -18.5021   24.2592 N   0  0  0  0  0  0
  -29.0994  -19.0892   22.1905 N   0  0  0  0  0  0
  -30.2022  -15.4191   21.5653 N   0  0  0  0  0  0
  -31.4678  -12.5056   19.1393 H   0  0  0  0  0  0
  -30.3595  -11.3496   19.8302 H   0  0  0  0  0  0
  -29.7765  -11.8184   17.4487 H   0  0  0  0  0  0
  -29.6747  -13.5277   17.7761 H   0  0  0  0  0  0
  -27.8456  -11.3324   18.8058 H   0  0  0  0  0  0
  -27.3810  -12.6671   17.7811 H   0  0  0  0  0  0
  -27.6951  -14.2717   19.5834 H   0  0  0  0  0  0
  -28.6819  -11.9690   21.3276 H   0  0  0  0  0  0
  -28.4345  -13.6030   21.8792 H   0  0  0  0  0  0
  -25.2773   -9.5696   22.4759 H   0  0  0  0  0  0
  -24.0060   -7.4591   22.7423 H   0  0  0  0  0  0
  -21.0875   -8.8747   19.8924 H   0  0  0  0  0  0
  -22.3696  -10.9669   19.6152 H   0  0  0  0  0  0
  -21.1973   -7.6131   23.9797 H   0  0  0  0  0  0
  -21.1483   -6.0461   25.9126 H   0  0  0  0  0  0
  -22.0610   -2.7612   23.2812 H   0  0  0  0  0  0
  -22.3883  -11.9975   22.5075 H   0  0  0  0  0  0
  -21.0974  -13.1298   22.2421 H   0  0  0  0  0  0
  -24.6444  -15.8410   20.5502 H   0  0  0  0  0  0
  -26.2671  -15.6571   20.1249 H   0  0  0  0  0  0
  -26.7190  -32.5422   23.1115 H   0  0  0  0  0  0
  -25.0265  -33.9765   25.0569 H   0  0  0  0  0  0
  -22.7168  -31.3067   21.4034 H   0  0  0  0  0  0
  -23.3782  -35.9573   23.3287 H   0  0  0  0  0  0
  -24.3613  -36.8884   22.2059 H   0  0  0  0  0  0
  -23.7204  -37.6467   23.6642 H   0  0  0  0  0  0
  -26.0922  -31.5455   20.6009 H   0  0  0  0  0  0
  -26.8450  -30.8348   21.9998 H   0  0  0  0  0  0
  -28.0994  -28.9788   21.2024 H   0  0  0  0  0  0
  -25.9401  -25.9126   19.0328 H   0  0  0  0  0  0
  -23.9617  -27.2865   19.0360 H   0  0  0  0  0  0
  -23.7660  -30.5984   19.4070 H   0  0  0  0  0  0
  -22.7535  -29.2555   19.8505 H   0  0  0  0  0  0
  -25.1296  -36.1961   25.0843 H   0  0  0  0  0  0
  -20.9947  -28.3230   24.1382 H   0  0  0  0  0  0
  -20.5634  -26.2296   23.3577 H   0  0  0  0  0  0
  -21.6640  -26.7435   22.1191 H   0  0  0  0  0  0
  -19.6934  -25.6276   21.1220 H   0  0  0  0  0  0
  -19.6691  -27.3170   20.6694 H   0  0  0  0  0  0
  -17.4198  -26.6592   21.4013 H   0  0  0  0  0  0
  -18.0367  -26.0032   22.8997 H   0  0  0  0  0  0
  -19.7942  -30.7211   24.2266 H   0  0  0  0  0  0
  -17.5040  -31.6262   24.5127 H   0  0  0  0  0  0
  -15.5352  -30.2997   23.7661 H   0  0  0  0  0  0
  -15.8636  -28.0807   22.7115 H   0  0  0  0  0  0
  -24.6003  -30.6939   25.7844 H   0  0  0  0  0  0
  -24.8894  -32.2807   26.4895 H   0  0  0  0  0  0
  -25.8161  -30.8910   27.0263 H   0  0  0  0  0  0
  -26.2873  -29.6770   24.1203 H   0  0  0  0  0  0
  -27.4096  -29.7250   25.4595 H   0  0  0  0  0  0
  -27.8710  -30.4320   23.9301 H   0  0  0  0  0  0
  -27.2794  -33.3609   26.2008 H   0  0  0  0  0  0
  -28.3933  -32.6721   25.0297 H   0  0  0  0  0  0
  -28.0727  -31.8388   26.5413 H   0  0  0  0  0  0
  -28.2585  -38.0112   24.7568 H   0  0  0  0  0  0
  -28.1097  -36.2648   24.6228 H   0  0  0  0  0  0
  -27.2311  -37.1369   25.8872 H   0  0  0  0  0  0
  -20.9321  -29.8830   21.6950 H   0  0  0  0  0  0
  -26.0169  -38.2859   24.1454 H   0  0  0  0  0  0
  -27.7713  -15.3477   23.2026 H   0  0  0  0  0  0
  -26.9575  -16.2342   24.4792 H   0  0  0  0  0  0
  -28.5853  -15.6357   24.7360 H   0  0  0  0  0  0
  -27.6708  -23.6727   25.3017 H   0  0  0  0  0  0
  -28.5373  -23.6389   23.7752 H   0  0  0  0  0  0
  -29.3955  -23.2970   25.2739 H   0  0  0  0  0  0
  -30.5354  -15.5660   23.6637 H   0  0  0  0  0  0
  -31.5586  -16.6175   22.6856 H   0  0  0  0  0  0
  -31.8783  -14.8917   22.8089 H   0  0  0  0  0  0
  -30.0455  -17.1646   20.3825 H   0  0  0  0  0  0
  -28.5449  -16.3203   20.6166 H   0  0  0  0  0  0
  -29.7782  -21.4295   23.2309 H   0  0  0  0  0  0
  -30.0420  -20.7158   24.7765 H   0  0  0  0  0  0
  -27.2258  -21.5724   23.9434 H   0  0  0  0  0  0
  -27.8040  -21.2288   25.5475 H   0  0  0  0  0  0
  -28.4218  -22.4224   19.0959 H   0  0  0  0  0  0
  -29.8745  -22.5544   20.0381 H   0  0  0  0  0  0
  -27.4769  -20.7959   20.3866 H   0  0  0  0  0  0
  -27.9708  -21.5160   21.8468 H   0  0  0  0  0  0
  -28.8806  -24.1454   21.5692 H   0  0  0  0  0  0
  -27.2617  -23.8478   21.0137 H   0  0  0  0  0  0
  -30.3944  -20.4394   21.2587 H   0  0  0  0  0  0
  -29.4988  -19.4485   20.1508 H   0  0  0  0  0  0
  -27.7556  -24.9720   18.8373 H   0  0  0  0  0  0
  -29.4163  -25.0599   19.2120 H   0  0  0  0  0  0
  1 25  1  0  0  0
  1 30  2  0  0  0
  1 87  1  0  0  0
  2  3  1  0  0  0
  2 25  1  0  0  0
  2 88  1  0  0  0
  2 89  1  0  0  0
  3  4  1  0  0  0
  3 90  1  0  0  0
  3 91  1  0  0  0
  4  5  1  0  0  0
  4 92  1  0  0  0
  4 93  1  0  0  0
  5  6  1  0  0  0
  5 26  1  0  0  0
  5 94  1  0  0  0
  6 25  1  0  0  0
  6 95  1  0  0  0
  6 96  1  0  0  0
  7  8  2  0  0  0
  7 26  1  0  0  0
  7 29  1  0  0  0
  8  9  1  0  0  0
  8 22  1  0  0  0
  9 10  1  0  0  0
  9 27  2  0  0  0
 10 11  2  0  0  0
 10 15  1  0  0  0
 11 12  1  0  0  0
 11 97  1  0  0  0
 12 13  2  0  0  0
 12 98  1  0  0  0
 13 14  1  0  0  0
 13 31  1  0  0  0
 14 15  2  0  0  0
 14 99  1  0  0  0
 15100  1  0  0  0
 16 17  2  0  0  0
 16 21  1  0  0  0
 16 31  1  0  0  0
 17 18  1  0  0  0
 17101  1  0  0  0
 18 19  2  0  0  0
 18102  1  0  0  0
 19 20  1  0  0  0
 19 24  1  0  0  0
 20 21  2  0  0  0
 20103  1  0  0  0
 21 23  1  0  0  0
 22 28  1  0  0  0
 22 32  2  0  0  0
 26 27  1  0  0  0
 28104  1  0  0  0
 28105  1  0  0  0
 29106  1  0  0  0
 29107  1  0  0  0
 33 34  1  0  0  0
 33 66  1  0  0  0
 33 70  2  0  0  0
 34 36  1  0  0  0
 34 59  1  0  0  0
 34108  1  0  0  0
 35 44  2  0  0  0
 35 45  1  0  0  0
 35 68  1  0  0  0
 36 56  1  0  0  0
 36109  1  0  0  0
 37 39  1  0  0  0
 37 47  1  0  0  0
 37 66  1  0  0  0
 37110  1  0  0  0
 38 43  2  0  0  0
 38 46  1  0  0  0
 38 47  1  0  0  0
 39 64  1  0  0  0
 39 67  2  0  0  0
 40 52  1  0  0  0
 40 53  2  0  0  0
 40 58  1  0  0  0
 41111  1  0  0  0
 41112  1  0  0  0
 41113  1  0  0  0
 41 48  1  0  0  0
 42 43  1  0  0  0
 42 66  1  0  0  0
 42114  1  0  0  0
 42115  1  0  0  0
 43 44  1  0  0  0
 44116  1  0  0  0
 45 46  2  0  0  0
 45117  1  0  0  0
 46118  1  0  0  0
 47119  1  0  0  0
 47120  1  0  0  0
 48 56  1  0  0  0
 48 65  1  0  0  0
 48121  1  0  0  0
 49 50  1  0  0  0
 49 53  1  0  0  0
 49 64  1  0  0  0
 49122  1  0  0  0
 50 51  1  0  0  0
 50123  1  0  0  0
 50124  1  0  0  0
 51 52  1  0  0  0
 51125  1  0  0  0
 51126  1  0  0  0
 52127  1  0  0  0
 52128  1  0  0  0
 53 54  1  0  0  0
 54 55  2  0  0  0
 54129  1  0  0  0
 55 57  1  0  0  0
 55130  1  0  0  0
 56 69  2  0  0  0
 57 58  2  0  0  0
 57131  1  0  0  0
 58132  1  0  0  0
 59 60  1  0  0  0
 59 61  1  0  0  0
 59 62  1  0  0  0
 60133  1  0  0  0
 60134  1  0  0  0
 60135  1  0  0  0
 61136  1  0  0  0
 61137  1  0  0  0
 61138  1  0  0  0
 62139  1  0  0  0
 62140  1  0  0  0
 62141  1  0  0  0
 63 65  1  0  0  0
 63142  1  0  0  0
 63143  1  0  0  0
 63144  1  0  0  0
 64145  1  0  0  0
 65146  1  0  0  0
 68 84  1  0  0  0
 71 72  2  0  0  0
 71 74  1  0  0  0
 71 85  1  0  0  0
 72 77  1  0  0  0
 72 86  1  0  0  0
 73 78  1  0  0  0
 73 85  2  0  0  0
 73 86  1  0  0  0
 74147  1  0  0  0
 74148  1  0  0  0
 74149  1  0  0  0
 75 79  1  0  0  0
 75150  1  0  0  0
 75151  1  0  0  0
 75152  1  0  0  0
 76 87  1  0  0  0
 76153  1  0  0  0
 76154  1  0  0  0
 76155  1  0  0  0
 77 87  1  0  0  0
 77156  1  0  0  0
 77157  1  0  0  0
 78 79  1  0  0  0
 78158  1  0  0  0
 78159  1  0  0  0
 79160  1  0  0  0
 79161  1  0  0  0
 80 81  1  0  0  0
 80 82  1  0  0  0
 80162  1  0  0  0
 80163  1  0  0  0
 81 83  1  0  0  0
 81164  1  0  0  0
 81165  1  0  0  0
 82 84  1  0  0  0
 82166  1  0  0  0
 82167  1  0  0  0
 83 86  1  0  0  0
 83168  1  0  0  0
 83169  1  0  0  0
 84170  1  0  0  0
 84171  1  0  0  0
M  ISO  4   1 100  68 101  84 101  87 100
M  END
> <chiral flag>
0

> <version>
0

> <s_m_source_file>
/data/baiqing/PycharmProjects/Reinvent-master-3.2/result/LINK_invent/BTK/process_docking_weight1_custom_sum_contain_oxygen_bond_distance_aromatic_linkinvent_7_9_3/rearranged_h_0085.sdf

> <i_m_source_file_index>
62

> <r_mmod_Potential_Energy-OPLS-2005>
173.312210083008

> <r_mmod_Stretch_Energy-OPLS-2005>
78.6438369750977

> <r_mmod_Bend_Energy-OPLS-2005>
150.941055297852

> <r_mmod_Torsional_Energy-OPLS-2005>
301.806365966797

> <r_mmod_Improper_Torsional_Energy-OPLS-2005>
5.93904972076416

> <r_mmod_Van_der_Waal_Energy-OPLS-2005>
118.490356445312

> <r_mmod_Electrostatic_Energy-OPLS-2005>
-311.276245117188

> <r_mmod_Solvation_Energy-OPLS-2005>
-203.005111694336

> <b_mmod_Minimization_Converged-OPLS-2005>
0

> <r_mmod_RMS_Derivative-OPLS-2005>
5.79370832443237

$$$$
65
                    3D
 Structure written by MMmdl.
157165  0  0  1  0            999 V2000
  -30.4887  -15.2775   20.3581 C   0  0  0  0  0  0
  -30.4135  -12.8159   19.5209 C   0  0  0  0  0  0
  -29.5203  -12.5736   18.2820 C   0  0  0  0  0  0
  -28.0731  -12.2964   18.7149 C   0  0  0  0  0  0
  -27.5999  -13.2830   19.8120 C   0  0  2  0  0  0
  -28.6328  -13.4988   20.9395 C   0  0  0  0  0  0
  -25.2327  -13.8267   20.5749 C   0  0  0  0  0  0
  -24.1699  -13.0443   20.9266 C   0  0  0  0  0  0
  -24.6373  -11.6941   20.8776 C   0  0  0  0  0  0
  -23.9082  -10.4293   21.0408 C   0  0  0  0  0  0
  -24.3627   -9.4199   21.9179 C   0  0  0  0  0  0
  -23.6296   -8.2239   22.0749 C   0  0  0  0  0  0
  -22.4277   -8.0277   21.3544 C   0  0  0  0  0  0
  -21.9920   -9.0251   20.4645 C   0  0  0  0  0  0
  -22.7256  -10.2125   20.3054 C   0  0  0  0  0  0
  -21.6858   -6.0728   22.5275 C   0  0  0  0  0  0
  -21.4021   -6.5632   23.8209 C   0  0  0  0  0  0
  -21.3666   -5.6787   24.9173 C   0  0  0  0  0  0
  -21.6047   -4.3050   24.7225 C   0  0  0  0  0  0
  -21.8819   -3.8139   23.4349 C   0  0  0  0  0  0
  -21.9191   -4.6953   22.3402 C   0  0  0  0  0  0
  -22.7719  -13.5172   21.1936 C   0  0  0  0  0  0
  -22.1653   -4.2134   21.0983 F   0  0  0  0  0  0
  -21.5637   -3.4538   25.7743 F   0  0  0  0  0  0
  -29.8617  -13.9950   20.2960 N   0  0  0  0  0  0
  -26.2751  -12.9557   20.3199 N   0  0  0  0  0  0
  -25.9305  -11.6655   20.5723 N   0  0  0  0  0  0
  -22.0383  -12.8141   22.0487 N   0  0  0  0  0  0
  -25.3960  -15.2009   20.4186 N   0  0  0  0  0  0
  -31.7121  -15.1451   20.1939 O   0  0  0  0  0  0
  -21.6644   -6.8872   21.4238 O   0  0  0  0  0  0
  -22.3388  -14.5470   20.6777 O   0  0  0  0  0  0
  -24.6634  -31.8246   23.1712 C   0  0  0  0  0  0
  -25.9300  -32.4602   23.8186 C   0  0  1  0  0  0
  -27.2090  -26.9269   20.1931 C   0  0  0  0  0  0
  -25.5956  -33.8420   24.2089 N   0  0  0  0  0  0
  -23.4785  -30.4377   21.5198 C   0  0  2  0  0  0
  -24.9309  -28.8258   20.1116 C   0  0  0  0  0  0
  -22.7677  -29.4449   22.4782 C   0  0  0  0  0  0
  -18.0319  -28.1424   22.8456 C   0  0  0  0  0  0
  -24.1497  -36.7229   23.2645 C   0  0  0  0  0  0
  -26.0477  -30.6323   21.4003 C   0  0  0  0  0  0
  -26.1140  -29.2208   20.7475 C   0  0  0  0  0  0
  -27.2501  -28.2929   20.7621 C   0  0  0  0  0  0
  -25.9979  -26.6821   19.5085 C   0  0  0  0  0  0
  -24.8980  -27.5766   19.4707 C   0  0  0  0  0  0
  -23.7189  -29.7565   20.1444 C   0  0  0  0  0  0
  -25.4135  -36.2988   24.0300 C   0  0  1  0  0  0
  -20.5948  -28.3769   23.1190 C   0  0  2  0  0  0
  -20.6811  -26.9452   22.5406 C   0  0  0  0  0  0
  -19.5784  -26.6392   21.5223 C   0  0  0  0  0  0
  -18.1956  -26.7954   22.1619 C   0  0  0  0  0  0
  -19.1582  -28.8917   23.2805 C   0  0  0  0  0  0
  -18.9492  -30.1505   23.8846 C   0  0  0  0  0  0
  -17.6486  -30.6605   24.0562 C   0  0  0  0  0  0
  -25.9095  -34.9362   23.5023 C   0  0  0  0  0  0
  -16.5377  -29.9095   23.6347 C   0  0  0  0  0  0
  -16.7302  -28.6525   23.0345 C   0  0  0  0  0  0
  -26.4546  -31.6537   25.0706 C   0  0  0  0  0  0
  -25.3666  -31.3776   26.1362 C   0  0  0  0  0  0
  -27.0429  -30.2905   24.6414 C   0  0  0  0  0  0
  -27.6070  -32.4329   25.7479 C   0  0  0  0  0  0
  -27.5583  -37.1770   24.8460 C   0  0  0  0  0  0
  -21.4347  -29.3051   22.3537 N   0  0  0  0  0  0
  -26.4289  -37.3715   23.9401 N   0  0  0  0  0  0
  -24.7512  -30.9918   22.0843 N   0  0  0  0  0  0
  -23.4220  -28.8016   23.3022 O   0  0  0  0  0  0
  -28.2118  -25.8252   20.2589 O   0  0  0  0  0  0
  -26.5721  -34.8897   22.4628 O   0  0  0  0  0  0
  -23.5704  -32.1220   23.6801 O   0  0  0  0  0  0
  -31.1886  -20.5387   20.2275 C   0  0  0  0  0  0
  -30.0411  -19.7054   20.3020 C   0  0  0  0  0  0
  -32.4945  -20.0685   20.1389 C   0  0  0  0  0  0
  -30.4202  -18.1408   20.3180 C   0  0  0  0  0  0
  -34.3073  -20.9668   18.6114 C   0  0  0  0  0  0
  -34.6892  -20.8781   21.1352 C   0  0  0  0  0  0
  -28.7807  -20.9056   20.3205 C   0  0  0  0  0  0
  -28.9790  -22.7251   20.2892 C   0  0  0  0  0  0
  -27.9370  -24.1953   20.2249 C   0  0  0  0  0  0
  -33.6637  -21.0392   20.0041 C   0  0  0  0  0  0
  -32.7630  -18.7646   20.1326 N   0  0  0  0  0  0
  -31.7609  -17.9040   20.2337 N   0  0  0  0  0  0
  -29.8347  -16.6351   20.3937 N   0  0  0  0  0  0
  -31.4379  -12.9820   19.1860 H   0  0  0  0  0  0
  -30.4580  -11.9235   20.1475 H   0  0  0  0  0  0
  -29.9011  -11.7405   17.6892 H   0  0  0  0  0  0
  -29.5482  -13.4530   17.6363 H   0  0  0  0  0  0
  -28.0339  -11.2756   19.0983 H   0  0  0  0  0  0
  -27.4032  -12.3269   17.8547 H   0  0  0  0  0  0
  -27.5017  -14.2387   19.2946 H   0  0  0  0  0  0
  -28.8017  -12.5820   21.5061 H   0  0  0  0  0  0
  -28.2670  -14.2430   21.6484 H   0  0  0  0  0  0
  -25.2769   -9.5672   22.4756 H   0  0  0  0  0  0
  -24.0004   -7.4625   22.7466 H   0  0  0  0  0  0
  -21.0854   -8.8779   19.8942 H   0  0  0  0  0  0
  -22.3719  -10.9668   19.6164 H   0  0  0  0  0  0
  -21.2014   -7.6140   23.9708 H   0  0  0  0  0  0
  -21.1491   -6.0520   25.9076 H   0  0  0  0  0  0
  -22.0593   -2.7600   23.2861 H   0  0  0  0  0  0
  -22.4033  -11.9811   22.4873 H   0  0  0  0  0  0
  -21.0987  -13.1134   22.2707 H   0  0  0  0  0  0
  -24.6266  -15.8523   20.5297 H   0  0  0  0  0  0
  -26.2390  -15.6423   20.0762 H   0  0  0  0  0  0
  -26.7365  -32.5144   23.0903 H   0  0  0  0  0  0
  -25.0040  -33.9495   25.0196 H   0  0  0  0  0  0
  -22.7920  -31.2701   21.3503 H   0  0  0  0  0  0
  -23.3771  -35.9542   23.3272 H   0  0  0  0  0  0
  -24.3578  -36.8923   22.2066 H   0  0  0  0  0  0
  -23.7249  -37.6405   23.6732 H   0  0  0  0  0  0
  -26.2240  -31.3714   20.6179 H   0  0  0  0  0  0
  -26.9095  -30.6931   22.0523 H   0  0  0  0  0  0
  -28.1461  -28.5923   21.2883 H   0  0  0  0  0  0
  -25.8682  -25.7323   19.0120 H   0  0  0  0  0  0
  -24.0012  -27.2704   18.9501 H   0  0  0  0  0  0
  -23.8774  -30.5280   19.3900 H   0  0  0  0  0  0
  -22.8269  -29.2145   19.8252 H   0  0  0  0  0  0
  -25.1326  -36.1806   25.0791 H   0  0  0  0  0  0
  -21.0020  -28.3392   24.1323 H   0  0  0  0  0  0
  -20.5731  -26.2382   23.3649 H   0  0  0  0  0  0
  -21.6674  -26.7458   22.1199 H   0  0  0  0  0  0
  -19.6952  -25.6291   21.1294 H   0  0  0  0  0  0
  -19.6736  -27.3176   20.6739 H   0  0  0  0  0  0
  -17.4238  -26.6700   21.4007 H   0  0  0  0  0  0
  -18.0327  -26.0115   22.9038 H   0  0  0  0  0  0
  -19.7969  -30.7328   24.2209 H   0  0  0  0  0  0
  -17.5037  -31.6280   24.5178 H   0  0  0  0  0  0
  -15.5371  -30.2973   23.7713 H   0  0  0  0  0  0
  -15.8704  -28.0839   22.7060 H   0  0  0  0  0  0
  -24.5892  -30.7067   25.7687 H   0  0  0  0  0  0
  -24.8778  -32.2952   26.4644 H   0  0  0  0  0  0
  -25.7892  -30.9068   27.0245 H   0  0  0  0  0  0
  -26.3079  -29.6584   24.1420 H   0  0  0  0  0  0
  -27.3971  -29.7275   25.5058 H   0  0  0  0  0  0
  -27.9021  -30.4095   23.9810 H   0  0  0  0  0  0
  -27.2691  -33.3698   26.1917 H   0  0  0  0  0  0
  -28.3936  -32.6775   25.0325 H   0  0  0  0  0  0
  -28.0667  -31.8534   26.5497 H   0  0  0  0  0  0
  -28.2581  -38.0085   24.7521 H   0  0  0  0  0  0
  -28.1105  -36.2621   24.6276 H   0  0  0  0  0  0
  -27.2301  -37.1397   25.8861 H   0  0  0  0  0  0
  -20.9608  -29.8740   21.6664 H   0  0  0  0  0  0
  -26.0155  -38.2781   24.1404 H   0  0  0  0  0  0
  -31.1149  -21.6080   20.2196 H   0  0  0  0  0  0
  -33.5643  -21.1435   17.8321 H   0  0  0  0  0  0
  -34.7532  -19.9890   18.4270 H   0  0  0  0  0  0
  -35.0872  -21.7198   18.4993 H   0  0  0  0  0  0
  -34.2054  -20.9522   22.1103 H   0  0  0  0  0  0
  -35.4541  -21.6540   21.0814 H   0  0  0  0  0  0
  -35.1885  -19.9107   21.0835 H   0  0  0  0  0  0
  -28.1741  -20.6721   21.1969 H   0  0  0  0  0  0
  -28.1432  -20.6498   19.4732 H   0  0  0  0  0  0
  -29.6254  -22.8939   19.4291 H   0  0  0  0  0  0
  -29.6062  -22.9276   21.1577 H   0  0  0  0  0  0
  -27.2303  -24.0535   21.0432 H   0  0  0  0  0  0
  -27.3350  -24.0527   19.3278 H   0  0  0  0  0  0
  -33.2575  -22.0466   20.1046 H   0  0  0  0  0  0
  -28.8294  -16.5959   20.4540 H   0  0  0  0  0  0
  1 25  1  0  0  0
  1 30  2  0  0  0
  1 83  1  0  0  0
  2  3  1  0  0  0
  2 25  1  0  0  0
  2 84  1  0  0  0
  2 85  1  0  0  0
  3  4  1  0  0  0
  3 86  1  0  0  0
  3 87  1  0  0  0
  4  5  1  0  0  0
  4 88  1  0  0  0
  4 89  1  0  0  0
  5  6  1  0  0  0
  5 26  1  0  0  0
  5 90  1  0  0  0
  6 25  1  0  0  0
  6 91  1  0  0  0
  6 92  1  0  0  0
  7  8  2  0  0  0
  7 26  1  0  0  0
  7 29  1  0  0  0
  8  9  1  0  0  0
  8 22  1  0  0  0
  9 10  1  0  0  0
  9 27  2  0  0  0
 10 11  2  0  0  0
 10 15  1  0  0  0
 11 12  1  0  0  0
 11 93  1  0  0  0
 12 13  2  0  0  0
 12 94  1  0  0  0
 13 14  1  0  0  0
 13 31  1  0  0  0
 14 15  2  0  0  0
 14 95  1  0  0  0
 15 96  1  0  0  0
 16 17  2  0  0  0
 16 21  1  0  0  0
 16 31  1  0  0  0
 17 18  1  0  0  0
 17 97  1  0  0  0
 18 19  2  0  0  0
 18 98  1  0  0  0
 19 20  1  0  0  0
 19 24  1  0  0  0
 20 21  2  0  0  0
 20 99  1  0  0  0
 21 23  1  0  0  0
 22 28  1  0  0  0
 22 32  2  0  0  0
 26 27  1  0  0  0
 28100  1  0  0  0
 28101  1  0  0  0
 29102  1  0  0  0
 29103  1  0  0  0
 33 34  1  0  0  0
 33 66  1  0  0  0
 33 70  2  0  0  0
 34 36  1  0  0  0
 34 59  1  0  0  0
 34104  1  0  0  0
 35 44  2  0  0  0
 35 45  1  0  0  0
 35 68  1  0  0  0
 36 56  1  0  0  0
 36105  1  0  0  0
 37 39  1  0  0  0
 37 47  1  0  0  0
 37 66  1  0  0  0
 37106  1  0  0  0
 38 43  2  0  0  0
 38 46  1  0  0  0
 38 47  1  0  0  0
 39 64  1  0  0  0
 39 67  2  0  0  0
 40 52  1  0  0  0
 40 53  2  0  0  0
 40 58  1  0  0  0
 41107  1  0  0  0
 41108  1  0  0  0
 41109  1  0  0  0
 41 48  1  0  0  0
 42 43  1  0  0  0
 42 66  1  0  0  0
 42110  1  0  0  0
 42111  1  0  0  0
 43 44  1  0  0  0
 44112  1  0  0  0
 45 46  2  0  0  0
 45113  1  0  0  0
 46114  1  0  0  0
 47115  1  0  0  0
 47116  1  0  0  0
 48 56  1  0  0  0
 48 65  1  0  0  0
 48117  1  0  0  0
 49 50  1  0  0  0
 49 53  1  0  0  0
 49 64  1  0  0  0
 49118  1  0  0  0
 50 51  1  0  0  0
 50119  1  0  0  0
 50120  1  0  0  0
 51 52  1  0  0  0
 51121  1  0  0  0
 51122  1  0  0  0
 52123  1  0  0  0
 52124  1  0  0  0
 53 54  1  0  0  0
 54 55  2  0  0  0
 54125  1  0  0  0
 55 57  1  0  0  0
 55126  1  0  0  0
 56 69  2  0  0  0
 57 58  2  0  0  0
 57127  1  0  0  0
 58128  1  0  0  0
 59 60  1  0  0  0
 59 61  1  0  0  0
 59 62  1  0  0  0
 60129  1  0  0  0
 60130  1  0  0  0
 60131  1  0  0  0
 61132  1  0  0  0
 61133  1  0  0  0
 61134  1  0  0  0
 62135  1  0  0  0
 62136  1  0  0  0
 62137  1  0  0  0
 63 65  1  0  0  0
 63138  1  0  0  0
 63139  1  0  0  0
 63140  1  0  0  0
 64141  1  0  0  0
 65142  1  0  0  0
 68 79  1  0  0  0
 71 72  2  0  0  0
 71 73  1  0  0  0
 71143  1  0  0  0
 72 74  1  0  0  0
 72 77  1  0  0  0
 73 80  1  0  0  0
 73 81  2  0  0  0
 74 82  2  0  0  0
 74 83  1  0  0  0
 75144  1  0  0  0
 75145  1  0  0  0
 75146  1  0  0  0
 75 80  1  0  0  0
 76 80  1  0  0  0
 76147  1  0  0  0
 76148  1  0  0  0
 76149  1  0  0  0
 77 78  1  0  0  0
 77150  1  0  0  0
 77151  1  0  0  0
 78 79  1  0  0  0
 78152  1  0  0  0
 78153  1  0  0  0
 79154  1  0  0  0
 79155  1  0  0  0
 80156  1  0  0  0
 81 82  1  0  0  0
 83157  1  0  0  0
M  ISO  4   1 100  68 101  79 101  83 100
M  END
> <chiral flag>
0

> <version>
0

> <s_m_source_file>
/data/baiqing/PycharmProjects/Reinvent-master-3.2/result/LINK_invent/BTK/process_docking_weight1_custom_sum_contain_oxygen_bond_distance_aromatic_linkinvent_7_9_3/rearranged_h_0085.sdf

> <i_m_source_file_index>
63

> <r_mmod_Potential_Energy-OPLS-2005>
1442.66735839844

> <r_mmod_Stretch_Energy-OPLS-2005>
667.321228027344

> <r_mmod_Bend_Energy-OPLS-2005>
581.973937988281

> <r_mmod_Torsional_Energy-OPLS-2005>
194.458084106445

> <r_mmod_Improper_Torsional_Energy-OPLS-2005>
4.184898853302

> <r_mmod_Van_der_Waal_Energy-OPLS-2005>
152.999694824219

> <r_mmod_Electrostatic_Energy-OPLS-2005>
-364.847869873047

> <r_mmod_Solvation_Energy-OPLS-2005>
-252.027236938477

> <b_mmod_Minimization_Converged-OPLS-2005>
0

> <r_mmod_RMS_Derivative-OPLS-2005>
1.71360766887665

$$$$
66
                    3D
 Structure written by MMmdl.
152160  0  0  1  0            999 V2000
  -30.6393  -14.5129   20.5233 C   0  0  0  0  0  0
  -30.4274  -12.3143   19.4267 C   0  0  0  0  0  0
  -29.4987  -12.5107   18.2087 C   0  0  0  0  0  0
  -28.0185  -12.3542   18.6210 C   0  0  0  0  0  0
  -27.6561  -13.1990   19.8718 C   0  0  2  0  0  0
  -28.6972  -12.9856   20.9923 C   0  0  0  0  0  0
  -25.2562  -13.8132   20.5669 C   0  0  0  0  0  0
  -24.1820  -13.0409   20.9170 C   0  0  0  0  0  0
  -24.6382  -11.6892   20.8700 C   0  0  0  0  0  0
  -23.9039  -10.4292   21.0407 C   0  0  0  0  0  0
  -24.3601   -9.4211   21.9187 C   0  0  0  0  0  0
  -23.6271   -8.2238   22.0737 C   0  0  0  0  0  0
  -22.4247   -8.0261   21.3535 C   0  0  0  0  0  0
  -21.9881   -9.0215   20.4629 C   0  0  0  0  0  0
  -22.7206  -10.2107   20.3055 C   0  0  0  0  0  0
  -21.6854   -6.0713   22.5285 C   0  0  0  0  0  0
  -21.3997   -6.5608   23.8205 C   0  0  0  0  0  0
  -21.3681   -5.6771   24.9168 C   0  0  0  0  0  0
  -21.6062   -4.3032   24.7227 C   0  0  0  0  0  0
  -21.8814   -3.8129   23.4350 C   0  0  0  0  0  0
  -21.9175   -4.6939   22.3406 C   0  0  0  0  0  0
  -22.7851  -13.5199   21.1863 C   0  0  0  0  0  0
  -22.1662   -4.2111   21.0983 F   0  0  0  0  0  0
  -21.5659   -3.4534   25.7750 F   0  0  0  0  0  0
  -30.0221  -13.3017   20.4378 N   0  0  0  0  0  0
  -26.2968  -12.9291   20.3329 N   0  0  0  0  0  0
  -25.9290  -11.6459   20.5708 N   0  0  0  0  0  0
  -22.0509  -12.8184   22.0431 N   0  0  0  0  0  0
  -25.4327  -15.1847   20.4077 N   0  0  0  0  0  0
  -31.7871  -14.7147   20.1197 O   0  0  0  0  0  0
  -21.6640   -6.8847   21.4235 O   0  0  0  0  0  0
  -22.3538  -14.5525   20.6737 O   0  0  0  0  0  0
  -24.6171  -31.8678   23.2107 C   0  0  0  0  0  0
  -25.9064  -32.4819   23.8392 C   0  0  1  0  0  0
  -27.2113  -27.4074   20.0975 C   0  0  0  0  0  0
  -25.5928  -33.8614   24.2341 N   0  0  0  0  0  0
  -23.4042  -30.4942   21.5518 C   0  0  2  0  0  0
  -24.8467  -28.9646   20.1047 C   0  0  0  0  0  0
  -22.7421  -29.4654   22.4969 C   0  0  0  0  0  0
  -18.0269  -28.1370   22.8489 C   0  0  0  0  0  0
  -24.1501  -36.7306   23.2636 C   0  0  0  0  0  0
  -25.9362  -30.8243   21.3697 C   0  0  0  0  0  0
  -26.0107  -29.4599   20.7101 C   0  0  0  0  0  0
  -27.1999  -28.6924   20.6977 C   0  0  0  0  0  0
  -26.0366  -26.9375   19.4762 C   0  0  0  0  0  0
  -24.8591  -27.7055   19.4787 C   0  0  0  0  0  0
  -23.6125  -29.8364   20.1615 C   0  0  0  0  0  0
  -25.4120  -36.3114   24.0342 C   0  0  1  0  0  0
  -20.5865  -28.3662   23.1318 C   0  0  2  0  0  0
  -20.6773  -26.9398   22.5404 C   0  0  0  0  0  0
  -19.5752  -26.6375   21.5205 C   0  0  0  0  0  0
  -18.1928  -26.7919   22.1621 C   0  0  0  0  0  0
  -19.1524  -28.8826   23.2912 C   0  0  0  0  0  0
  -18.9450  -30.1431   23.8927 C   0  0  0  0  0  0
  -17.6455  -30.6570   24.0560 C   0  0  0  0  0  0
  -25.9044  -34.9475   23.5134 C   0  0  0  0  0  0
  -16.5341  -29.9078   23.6306 C   0  0  0  0  0  0
  -16.7260  -28.6494   23.0332 C   0  0  0  0  0  0
  -26.4472  -31.6586   25.0715 C   0  0  0  0  0  0
  -25.3721  -31.3684   26.1447 C   0  0  0  0  0  0
  -27.0297  -30.3033   24.6091 C   0  0  0  0  0  0
  -27.6068  -32.4276   25.7473 C   0  0  0  0  0  0
  -27.5600  -37.1816   24.8469 C   0  0  0  0  0  0
  -21.4145  -29.3040   22.3725 N   0  0  0  0  0  0
  -26.4311  -37.3796   23.9405 N   0  0  0  0  0  0
  -24.6705  -31.0763   22.1027 N   0  0  0  0  0  0
  -23.4189  -28.8177   23.2991 O   0  0  0  0  0  0
  -28.3297  -26.5967   20.1320 O   0  0  0  0  0  0
  -26.5581  -34.8920   22.4685 O   0  0  0  0  0  0
  -23.5357  -32.1438   23.7495 O   0  0  0  0  0  0
  -28.2164  -20.1990   20.9747 C   0  0  0  0  0  0
  -28.8393  -19.2615   20.1938 C   0  0  0  0  0  0
  -28.7638  -17.7385   20.2856 C   0  0  0  0  0  0
  -28.3697  -24.0287   20.0066 C   0  0  0  0  0  0
  -28.0809  -22.7589   20.8756 C   0  0  0  0  0  0
  -30.0511  -16.9835   20.7376 C   0  0  0  0  0  0
  -28.1337  -25.3380   20.8217 C   0  0  0  0  0  0
  -29.4987  -19.9578   19.1742 N   0  0  0  0  0  0
  -29.3020  -21.2464   19.3086 N   0  0  0  0  0  0
  -28.5071  -21.4283   20.3947 N   0  0  0  0  0  0
  -29.8233  -15.5262   20.8866 N   0  0  0  0  0  0
  -31.4746  -12.4169   19.1381 H   0  0  0  0  0  0
  -30.3270  -11.3039   19.8237 H   0  0  0  0  0  0
  -29.7460  -11.7972   17.4190 H   0  0  0  0  0  0
  -29.6563  -13.5037   17.7843 H   0  0  0  0  0  0
  -27.8437  -11.2968   18.8253 H   0  0  0  0  0  0
  -27.3668  -12.6212   17.7874 H   0  0  0  0  0  0
  -27.6960  -14.2433   19.5598 H   0  0  0  0  0  0
  -28.6813  -11.9508   21.3304 H   0  0  0  0  0  0
  -28.4629  -13.5812   21.8779 H   0  0  0  0  0  0
  -25.2747   -9.5673   22.4770 H   0  0  0  0  0  0
  -23.9979   -7.4609   22.7446 H   0  0  0  0  0  0
  -21.0814   -8.8690   19.8927 H   0  0  0  0  0  0
  -22.3638  -10.9617   19.6156 H   0  0  0  0  0  0
  -21.1988   -7.6115   23.9684 H   0  0  0  0  0  0
  -21.1535   -6.0531   25.9076 H   0  0  0  0  0  0
  -22.0590   -2.7591   23.2867 H   0  0  0  0  0  0
  -22.4114  -11.9789   22.4762 H   0  0  0  0  0  0
  -21.1130  -13.1220   22.2681 H   0  0  0  0  0  0
  -24.6650  -15.8395   20.4948 H   0  0  0  0  0  0
  -26.2777  -15.6113   20.0533 H   0  0  0  0  0  0
  -26.7125  -32.5502   23.1134 H   0  0  0  0  0  0
  -25.0151  -33.9777   25.0541 H   0  0  0  0  0  0
  -22.6943  -31.3120   21.4170 H   0  0  0  0  0  0
  -23.3769  -35.9638   23.3310 H   0  0  0  0  0  0
  -24.3601  -36.8896   22.2050 H   0  0  0  0  0  0
  -23.7248  -37.6517   23.6622 H   0  0  0  0  0  0
  -26.0591  -31.5955   20.6076 H   0  0  0  0  0  0
  -26.8211  -30.8699   21.9926 H   0  0  0  0  0  0
  -28.0955  -29.0626   21.1766 H   0  0  0  0  0  0
  -26.0283  -25.9686   18.9953 H   0  0  0  0  0  0
  -23.9696  -27.3285   18.9922 H   0  0  0  0  0  0
  -23.7220  -30.6175   19.4076 H   0  0  0  0  0  0
  -22.7335  -29.2632   19.8602 H   0  0  0  0  0  0
  -25.1304  -36.1997   25.0835 H   0  0  0  0  0  0
  -20.9963  -28.3214   24.1446 H   0  0  0  0  0  0
  -20.5691  -26.2263   23.3591 H   0  0  0  0  0  0
  -21.6647  -26.7450   22.1197 H   0  0  0  0  0  0
  -19.6925  -25.6289   21.1241 H   0  0  0  0  0  0
  -19.6700  -27.3183   20.6736 H   0  0  0  0  0  0
  -17.4208  -26.6656   21.4018 H   0  0  0  0  0  0
  -18.0335  -26.0043   22.9004 H   0  0  0  0  0  0
  -19.7918  -30.7231   24.2336 H   0  0  0  0  0  0
  -17.4997  -31.6261   24.5150 H   0  0  0  0  0  0
  -15.5347  -30.2996   23.7598 H   0  0  0  0  0  0
  -15.8660  -28.0816   22.7043 H   0  0  0  0  0  0
  -24.5903  -30.7038   25.7757 H   0  0  0  0  0  0
  -24.8894  -32.2833   26.4894 H   0  0  0  0  0  0
  -25.8048  -30.8835   27.0208 H   0  0  0  0  0  0
  -26.2843  -29.6799   24.1143 H   0  0  0  0  0  0
  -27.4078  -29.7260   25.4537 H   0  0  0  0  0  0
  -27.8676  -30.4360   23.9240 H   0  0  0  0  0  0
  -27.2730  -33.3573   26.2085 H   0  0  0  0  0  0
  -28.3859  -32.6828   25.0280 H   0  0  0  0  0  0
  -28.0751  -31.8360   26.5349 H   0  0  0  0  0  0
  -28.2624  -38.0107   24.7513 H   0  0  0  0  0  0
  -28.1090  -36.2638   24.6310 H   0  0  0  0  0  0
  -27.2305  -37.1492   25.8866 H   0  0  0  0  0  0
  -20.9294  -29.8802   21.6996 H   0  0  0  0  0  0
  -26.0214  -38.2892   24.1361 H   0  0  0  0  0  0
  -27.5908  -20.0993   21.8529 H   0  0  0  0  0  0
  -28.4339  -17.3349   19.3258 H   0  0  0  0  0  0
  -27.9650  -17.4857   20.9826 H   0  0  0  0  0  0
  -27.7173  -24.0232   19.1318 H   0  0  0  0  0  0
  -29.3970  -24.0192   19.6407 H   0  0  0  0  0  0
  -27.0065  -22.7084   21.0648 H   0  0  0  0  0  0
  -28.5466  -22.8915   21.8526 H   0  0  0  0  0  0
  -30.3924  -17.3727   21.6971 H   0  0  0  0  0  0
  -30.8481  -17.1662   20.0143 H   0  0  0  0  0  0
  -28.8267  -25.3409   21.6643 H   0  0  0  0  0  0
  -27.1433  -25.2914   21.2816 H   0  0  0  0  0  0
  -28.9085  -15.2386   21.2018 H   0  0  0  0  0  0
  1 25  1  0  0  0
  1 30  2  0  0  0
  1 81  1  0  0  0
  2  3  1  0  0  0
  2 25  1  0  0  0
  2 82  1  0  0  0
  2 83  1  0  0  0
  3  4  1  0  0  0
  3 84  1  0  0  0
  3 85  1  0  0  0
  4  5  1  0  0  0
  4 86  1  0  0  0
  4 87  1  0  0  0
  5  6  1  0  0  0
  5 26  1  0  0  0
  5 88  1  0  0  0
  6 25  1  0  0  0
  6 89  1  0  0  0
  6 90  1  0  0  0
  7  8  2  0  0  0
  7 26  1  0  0  0
  7 29  1  0  0  0
  8  9  1  0  0  0
  8 22  1  0  0  0
  9 10  1  0  0  0
  9 27  2  0  0  0
 10 11  2  0  0  0
 10 15  1  0  0  0
 11 12  1  0  0  0
 11 91  1  0  0  0
 12 13  2  0  0  0
 12 92  1  0  0  0
 13 14  1  0  0  0
 13 31  1  0  0  0
 14 15  2  0  0  0
 14 93  1  0  0  0
 15 94  1  0  0  0
 16 17  2  0  0  0
 16 21  1  0  0  0
 16 31  1  0  0  0
 17 18  1  0  0  0
 17 95  1  0  0  0
 18 19  2  0  0  0
 18 96  1  0  0  0
 19 20  1  0  0  0
 19 24  1  0  0  0
 20 21  2  0  0  0
 20 97  1  0  0  0
 21 23  1  0  0  0
 22 28  1  0  0  0
 22 32  2  0  0  0
 26 27  1  0  0  0
 28 98  1  0  0  0
 28 99  1  0  0  0
 29100  1  0  0  0
 29101  1  0  0  0
 33 34  1  0  0  0
 33 66  1  0  0  0
 33 70  2  0  0  0
 34 36  1  0  0  0
 34 59  1  0  0  0
 34102  1  0  0  0
 35 44  2  0  0  0
 35 45  1  0  0  0
 35 68  1  0  0  0
 36 56  1  0  0  0
 36103  1  0  0  0
 37 39  1  0  0  0
 37 47  1  0  0  0
 37 66  1  0  0  0
 37104  1  0  0  0
 38 43  2  0  0  0
 38 46  1  0  0  0
 38 47  1  0  0  0
 39 64  1  0  0  0
 39 67  2  0  0  0
 40 52  1  0  0  0
 40 53  2  0  0  0
 40 58  1  0  0  0
 41105  1  0  0  0
 41106  1  0  0  0
 41107  1  0  0  0
 41 48  1  0  0  0
 42 43  1  0  0  0
 42 66  1  0  0  0
 42108  1  0  0  0
 42109  1  0  0  0
 43 44  1  0  0  0
 44110  1  0  0  0
 45 46  2  0  0  0
 45111  1  0  0  0
 46112  1  0  0  0
 47113  1  0  0  0
 47114  1  0  0  0
 48 56  1  0  0  0
 48 65  1  0  0  0
 48115  1  0  0  0
 49 50  1  0  0  0
 49 53  1  0  0  0
 49 64  1  0  0  0
 49116  1  0  0  0
 50 51  1  0  0  0
 50117  1  0  0  0
 50118  1  0  0  0
 51 52  1  0  0  0
 51119  1  0  0  0
 51120  1  0  0  0
 52121  1  0  0  0
 52122  1  0  0  0
 53 54  1  0  0  0
 54 55  2  0  0  0
 54123  1  0  0  0
 55 57  1  0  0  0
 55124  1  0  0  0
 56 69  2  0  0  0
 57 58  2  0  0  0
 57125  1  0  0  0
 58126  1  0  0  0
 59 60  1  0  0  0
 59 61  1  0  0  0
 59 62  1  0  0  0
 60127  1  0  0  0
 60128  1  0  0  0
 60129  1  0  0  0
 61130  1  0  0  0
 61131  1  0  0  0
 61132  1  0  0  0
 62133  1  0  0  0
 62134  1  0  0  0
 62135  1  0  0  0
 63 65  1  0  0  0
 63136  1  0  0  0
 63137  1  0  0  0
 63138  1  0  0  0
 64139  1  0  0  0
 65140  1  0  0  0
 68 77  1  0  0  0
 71 72  2  0  0  0
 71 80  1  0  0  0
 71141  1  0  0  0
 72 73  1  0  0  0
 72 78  1  0  0  0
 73 76  1  0  0  0
 73142  1  0  0  0
 73143  1  0  0  0
 74 75  1  0  0  0
 74 77  1  0  0  0
 74144  1  0  0  0
 74145  1  0  0  0
 75 80  1  0  0  0
 75146  1  0  0  0
 75147  1  0  0  0
 76 81  1  0  0  0
 76148  1  0  0  0
 76149  1  0  0  0
 77150  1  0  0  0
 77151  1  0  0  0
 78 79  2  0  0  0
 79 80  1  0  0  0
 81152  1  0  0  0
M  ISO  4   1 100  68 101  77 101  81 100
M  END
> <chiral flag>
0

> <version>
0

> <s_m_source_file>
/data/baiqing/PycharmProjects/Reinvent-master-3.2/result/LINK_invent/BTK/process_docking_weight1_custom_sum_contain_oxygen_bond_distance_aromatic_linkinvent_7_9_3/rearranged_h_0085.sdf

> <i_m_source_file_index>
64

> <r_mmod_Potential_Energy-OPLS-2005>
-97.7801895141602

> <r_mmod_Stretch_Energy-OPLS-2005>
41.5609130859375

> <r_mmod_Bend_Energy-OPLS-2005>
104.283058166504

> <r_mmod_Torsional_Energy-OPLS-2005>
219.888259887695

> <r_mmod_Improper_Torsional_Energy-OPLS-2005>
5.40003347396851

> <r_mmod_Van_der_Waal_Energy-OPLS-2005>
123.579742431641

> <r_mmod_Electrostatic_Energy-OPLS-2005>
-377.597290039062

> <r_mmod_Solvation_Energy-OPLS-2005>
-236.130554199219

> <b_mmod_Minimization_Converged-OPLS-2005>
0

> <r_mmod_RMS_Derivative-OPLS-2005>
4.23205900192261

$$$$
67
                    3D
 Structure written by MMmdl.
155162  0  0  1  0            999 V2000
  -30.6393  -14.6729   20.4840 C   0  0  0  0  0  0
  -30.4389  -12.4170   19.4508 C   0  0  0  0  0  0
  -29.5061  -12.4923   18.2226 C   0  0  0  0  0  0
  -28.0345  -12.3185   18.6448 C   0  0  0  0  0  0
  -27.6486  -13.2164   19.8504 C   0  0  2  0  0  0
  -28.6965  -13.1200   20.9797 C   0  0  0  0  0  0
  -25.2552  -13.8166   20.5647 C   0  0  0  0  0  0
  -24.1820  -13.0435   20.9175 C   0  0  0  0  0  0
  -24.6382  -11.6900   20.8731 C   0  0  0  0  0  0
  -23.9056  -10.4282   21.0407 C   0  0  0  0  0  0
  -24.3611   -9.4196   21.9184 C   0  0  0  0  0  0
  -23.6283   -8.2239   22.0756 C   0  0  0  0  0  0
  -22.4275   -8.0270   21.3545 C   0  0  0  0  0  0
  -21.9911   -9.0238   20.4650 C   0  0  0  0  0  0
  -22.7232  -10.2117   20.3047 C   0  0  0  0  0  0
  -21.6847   -6.0715   22.5269 C   0  0  0  0  0  0
  -21.4008   -6.5624   23.8196 C   0  0  0  0  0  0
  -21.3663   -5.6788   24.9163 C   0  0  0  0  0  0
  -21.6055   -4.3051   24.7230 C   0  0  0  0  0  0
  -21.8820   -3.8129   23.4351 C   0  0  0  0  0  0
  -21.9191   -4.6941   22.3397 C   0  0  0  0  0  0
  -22.7842  -13.5224   21.1857 C   0  0  0  0  0  0
  -22.1656   -4.2118   21.0981 F   0  0  0  0  0  0
  -21.5642   -3.4547   25.7752 F   0  0  0  0  0  0
  -30.0028  -13.4615   20.3970 N   0  0  0  0  0  0
  -26.2971  -12.9344   20.3276 N   0  0  0  0  0  0
  -25.9316  -11.6503   20.5758 N   0  0  0  0  0  0
  -22.0513  -12.8181   22.0417 N   0  0  0  0  0  0
  -25.4297  -15.1887   20.4013 N   0  0  0  0  0  0
  -31.8294  -14.7930   20.1869 O   0  0  0  0  0  0
  -21.6637   -6.8864   21.4235 O   0  0  0  0  0  0
  -22.3515  -14.5533   20.6723 O   0  0  0  0  0  0
  -24.6292  -31.8593   23.2021 C   0  0  0  0  0  0
  -25.9117  -32.4775   23.8365 C   0  0  1  0  0  0
  -27.2279  -27.3003   20.1044 C   0  0  0  0  0  0
  -25.5928  -33.8573   24.2271 N   0  0  0  0  0  0
  -23.4229  -30.4886   21.5450 C   0  0  2  0  0  0
  -24.8717  -28.9437   20.1113 C   0  0  0  0  0  0
  -22.7480  -29.4636   22.4884 C   0  0  0  0  0  0
  -18.0295  -28.1410   22.8483 C   0  0  0  0  0  0
  -24.1483  -36.7287   23.2642 C   0  0  0  0  0  0
  -25.9682  -30.7883   21.3728 C   0  0  0  0  0  0
  -26.0450  -29.4129   20.7138 C   0  0  0  0  0  0
  -27.2257  -28.6030   20.6987 C   0  0  0  0  0  0
  -26.0242  -26.8939   19.4809 C   0  0  0  0  0  0
  -24.8637  -27.6898   19.4887 C   0  0  0  0  0  0
  -23.6398  -29.8270   20.1601 C   0  0  0  0  0  0
  -25.4108  -36.3075   24.0324 C   0  0  1  0  0  0
  -20.5904  -28.3710   23.1270 C   0  0  2  0  0  0
  -20.6773  -26.9421   22.5409 C   0  0  0  0  0  0
  -19.5746  -26.6403   21.5214 C   0  0  0  0  0  0
  -18.1924  -26.7956   22.1627 C   0  0  0  0  0  0
  -19.1553  -28.8868   23.2885 C   0  0  0  0  0  0
  -18.9478  -30.1462   23.8909 C   0  0  0  0  0  0
  -17.6483  -30.6608   24.0567 C   0  0  0  0  0  0
  -25.9054  -34.9445   23.5088 C   0  0  0  0  0  0
  -16.5375  -29.9102   23.6344 C   0  0  0  0  0  0
  -16.7280  -28.6533   23.0345 C   0  0  0  0  0  0
  -26.4508  -31.6579   25.0730 C   0  0  0  0  0  0
  -25.3716  -31.3689   26.1432 C   0  0  0  0  0  0
  -27.0363  -30.3022   24.6143 C   0  0  0  0  0  0
  -27.6086  -32.4308   25.7489 C   0  0  0  0  0  0
  -27.5566  -37.1787   24.8464 C   0  0  0  0  0  0
  -21.4185  -29.3068   22.3644 N   0  0  0  0  0  0
  -26.4282  -37.3765   23.9405 N   0  0  0  0  0  0
  -24.6936  -31.0589   22.0991 N   0  0  0  0  0  0
  -23.4194  -28.8136   23.2933 O   0  0  0  0  0  0
  -28.3442  -26.4332   20.1301 O   0  0  0  0  0  0
  -26.5619  -34.8911   22.4656 O   0  0  0  0  0  0
  -23.5444  -32.1397   23.7330 O   0  0  0  0  0  0
  -31.2030  -21.5146   20.1664 C   0  0  0  0  0  0
  -29.8219  -18.4456   20.1743 C   0  0  0  0  0  0
  -29.2579  -23.8646   20.1459 C   0  0  0  0  0  0
  -30.2291  -17.1985   21.1007 C   0  0  0  0  0  0
  -29.5103  -19.8535   20.8935 C   0  0  0  0  0  0
  -28.8549  -22.3486   20.5268 C   0  0  0  0  0  0
  -28.0910  -24.9610   20.1663 C   0  0  0  0  0  0
  -29.8559  -15.7772   20.7273 N   0  0  0  0  0  0
  -29.7609  -21.1671   20.1427 N   0  3  1  0  0  0
  -31.4791  -12.5467   19.1467 H   0  0  0  0  0  0
  -30.3833  -11.4339   19.9217 H   0  0  0  0  0  0
  -29.7798  -11.7240   17.4987 H   0  0  0  0  0  0
  -29.6342  -13.4496   17.7161 H   0  0  0  0  0  0
  -27.8960  -11.2694   18.9077 H   0  0  0  0  0  0
  -27.3715  -12.5090   17.8004 H   0  0  0  0  0  0
  -27.6529  -14.2402   19.4783 H   0  0  0  0  0  0
  -28.7249  -12.1130   21.3964 H   0  0  0  0  0  0
  -28.4395  -13.7810   21.8087 H   0  0  0  0  0  0
  -25.2758   -9.5659   22.4750 H   0  0  0  0  0  0
  -23.9980   -7.4631   22.7475 H   0  0  0  0  0  0
  -21.0843   -8.8737   19.8959 H   0  0  0  0  0  0
  -22.3685  -10.9637   19.6142 H   0  0  0  0  0  0
  -21.1985   -7.6134   23.9678 H   0  0  0  0  0  0
  -21.1497   -6.0533   25.9064 H   0  0  0  0  0  0
  -22.0601   -2.7590   23.2863 H   0  0  0  0  0  0
  -22.4150  -11.9798   22.4695 H   0  0  0  0  0  0
  -21.1141  -13.1176   22.2703 H   0  0  0  0  0  0
  -24.6655  -15.8493   20.4923 H   0  0  0  0  0  0
  -26.2788  -15.6160   20.0531 H   0  0  0  0  0  0
  -26.7202  -32.5446   23.1139 H   0  0  0  0  0  0
  -25.0086  -33.9712   25.0427 H   0  0  0  0  0  0
  -22.7208  -31.3115   21.3965 H   0  0  0  0  0  0
  -23.3751  -35.9613   23.3316 H   0  0  0  0  0  0
  -24.3589  -36.8901   22.2061 H   0  0  0  0  0  0
  -23.7253  -37.6495   23.6669 H   0  0  0  0  0  0
  -26.0886  -31.5509   20.6018 H   0  0  0  0  0  0
  -26.8534  -30.8491   21.9947 H   0  0  0  0  0  0
  -28.1277  -28.9547   21.1808 H   0  0  0  0  0  0
  -25.9364  -25.9499   18.9718 H   0  0  0  0  0  0
  -23.9647  -27.3235   19.0141 H   0  0  0  0  0  0
  -23.7595  -30.6053   19.4062 H   0  0  0  0  0  0
  -22.7595  -29.2585   19.8541 H   0  0  0  0  0  0
  -25.1287  -36.1925   25.0816 H   0  0  0  0  0  0
  -21.0026  -28.3303   24.1381 H   0  0  0  0  0  0
  -20.5697  -26.2298   23.3605 H   0  0  0  0  0  0
  -21.6627  -26.7452   22.1174 H   0  0  0  0  0  0
  -19.6913  -25.6313   21.1238 H   0  0  0  0  0  0
  -19.6707  -27.3205   20.6741 H   0  0  0  0  0  0
  -17.4195  -26.6737   21.4025 H   0  0  0  0  0  0
  -18.0307  -26.0081   22.9008 H   0  0  0  0  0  0
  -19.7952  -30.7267   24.2282 H   0  0  0  0  0  0
  -17.5040  -31.6279   24.5164 H   0  0  0  0  0  0
  -15.5365  -30.3007   23.7666 H   0  0  0  0  0  0
  -15.8684  -28.0860   22.7044 H   0  0  0  0  0  0
  -24.5973  -30.6950   25.7756 H   0  0  0  0  0  0
  -24.8803  -32.2814   26.4813 H   0  0  0  0  0  0
  -25.8033  -30.8937   27.0246 H   0  0  0  0  0  0
  -26.2941  -29.6759   24.1190 H   0  0  0  0  0  0
  -27.4139  -29.7286   25.4612 H   0  0  0  0  0  0
  -27.8746  -30.4354   23.9307 H   0  0  0  0  0  0
  -27.2771  -33.3657   26.2016 H   0  0  0  0  0  0
  -28.3930  -32.6770   25.0322 H   0  0  0  0  0  0
  -28.0704  -31.8441   26.5440 H   0  0  0  0  0  0
  -28.2562  -38.0101   24.7515 H   0  0  0  0  0  0
  -28.1083  -36.2623   24.6292 H   0  0  0  0  0  0
  -27.2268  -37.1432   25.8862 H   0  0  0  0  0  0
  -20.9340  -29.8880   21.6940 H   0  0  0  0  0  0
  -26.0163  -38.2833   24.1447 H   0  0  0  0  0  0
  -31.8221  -20.6541   19.9098 H   0  0  0  0  0  0
  -31.5102  -21.8551   21.1552 H   0  0  0  0  0  0
  -31.4405  -22.3005   19.4495 H   0  0  0  0  0  0
  -28.9487  -18.1791   19.5762 H   0  0  0  0  0  0
  -30.6228  -18.5917   19.4505 H   0  0  0  0  0  0
  -29.6933  -23.8755   19.1465 H   0  0  0  0  0  0
  -30.0508  -24.1873   20.8211 H   0  0  0  0  0  0
  -29.7756  -17.3596   22.0791 H   0  0  0  0  0  0
  -31.3045  -17.2375   21.2875 H   0  0  0  0  0  0
  -30.0612  -19.8992   21.8352 H   0  0  0  0  0  0
  -28.4614  -19.8284   21.1901 H   0  0  0  0  0  0
  -27.8749  -22.1363   20.0971 H   0  0  0  0  0  0
  -28.7072  -22.3170   21.6068 H   0  0  0  0  0  0
  -27.4701  -24.7713   21.0447 H   0  0  0  0  0  0
  -27.4896  -24.6859   19.3050 H   0  0  0  0  0  0
  -28.8789  -15.5545   20.8403 H   0  0  0  0  0  0
  -29.5397  -20.9795   19.1751 H   0  0  0  0  0  0
  1 25  1  0  0  0
  1 30  2  0  0  0
  1 78  1  0  0  0
  2  3  1  0  0  0
  2 25  1  0  0  0
  2 80  1  0  0  0
  2 81  1  0  0  0
  3  4  1  0  0  0
  3 82  1  0  0  0
  3 83  1  0  0  0
  4  5  1  0  0  0
  4 84  1  0  0  0
  4 85  1  0  0  0
  5  6  1  0  0  0
  5 26  1  0  0  0
  5 86  1  0  0  0
  6 25  1  0  0  0
  6 87  1  0  0  0
  6 88  1  0  0  0
  7  8  2  0  0  0
  7 26  1  0  0  0
  7 29  1  0  0  0
  8  9  1  0  0  0
  8 22  1  0  0  0
  9 10  1  0  0  0
  9 27  2  0  0  0
 10 11  2  0  0  0
 10 15  1  0  0  0
 11 12  1  0  0  0
 11 89  1  0  0  0
 12 13  2  0  0  0
 12 90  1  0  0  0
 13 14  1  0  0  0
 13 31  1  0  0  0
 14 15  2  0  0  0
 14 91  1  0  0  0
 15 92  1  0  0  0
 16 17  2  0  0  0
 16 21  1  0  0  0
 16 31  1  0  0  0
 17 18  1  0  0  0
 17 93  1  0  0  0
 18 19  2  0  0  0
 18 94  1  0  0  0
 19 20  1  0  0  0
 19 24  1  0  0  0
 20 21  2  0  0  0
 20 95  1  0  0  0
 21 23  1  0  0  0
 22 28  1  0  0  0
 22 32  2  0  0  0
 26 27  1  0  0  0
 28 96  1  0  0  0
 28 97  1  0  0  0
 29 98  1  0  0  0
 29 99  1  0  0  0
 33 34  1  0  0  0
 33 66  1  0  0  0
 33 70  2  0  0  0
 34 36  1  0  0  0
 34 59  1  0  0  0
 34100  1  0  0  0
 35 44  2  0  0  0
 35 45  1  0  0  0
 35 68  1  0  0  0
 36 56  1  0  0  0
 36101  1  0  0  0
 37 39  1  0  0  0
 37 47  1  0  0  0
 37 66  1  0  0  0
 37102  1  0  0  0
 38 43  2  0  0  0
 38 46  1  0  0  0
 38 47  1  0  0  0
 39 64  1  0  0  0
 39 67  2  0  0  0
 40 52  1  0  0  0
 40 53  2  0  0  0
 40 58  1  0  0  0
 41103  1  0  0  0
 41104  1  0  0  0
 41105  1  0  0  0
 41 48  1  0  0  0
 42 43  1  0  0  0
 42 66  1  0  0  0
 42106  1  0  0  0
 42107  1  0  0  0
 43 44  1  0  0  0
 44108  1  0  0  0
 45 46  2  0  0  0
 45109  1  0  0  0
 46110  1  0  0  0
 47111  1  0  0  0
 47112  1  0  0  0
 48 56  1  0  0  0
 48 65  1  0  0  0
 48113  1  0  0  0
 49 50  1  0  0  0
 49 53  1  0  0  0
 49 64  1  0  0  0
 49114  1  0  0  0
 50 51  1  0  0  0
 50115  1  0  0  0
 50116  1  0  0  0
 51 52  1  0  0  0
 51117  1  0  0  0
 51118  1  0  0  0
 52119  1  0  0  0
 52120  1  0  0  0
 53 54  1  0  0  0
 54 55  2  0  0  0
 54121  1  0  0  0
 55 57  1  0  0  0
 55122  1  0  0  0
 56 69  2  0  0  0
 57 58  2  0  0  0
 57123  1  0  0  0
 58124  1  0  0  0
 59 60  1  0  0  0
 59 61  1  0  0  0
 59 62  1  0  0  0
 60125  1  0  0  0
 60126  1  0  0  0
 60127  1  0  0  0
 61128  1  0  0  0
 61129  1  0  0  0
 61130  1  0  0  0
 62131  1  0  0  0
 62132  1  0  0  0
 62133  1  0  0  0
 63 65  1  0  0  0
 63134  1  0  0  0
 63135  1  0  0  0
 63136  1  0  0  0
 64137  1  0  0  0
 65138  1  0  0  0
 68 77  1  0  0  0
 71139  1  0  0  0
 71140  1  0  0  0
 71141  1  0  0  0
 71 79  1  0  0  0
 72 74  1  0  0  0
 72 75  1  0  0  0
 72142  1  0  0  0
 72143  1  0  0  0
 73 76  1  0  0  0
 73 77  1  0  0  0
 73144  1  0  0  0
 73145  1  0  0  0
 74 78  1  0  0  0
 74146  1  0  0  0
 74147  1  0  0  0
 75 79  1  0  0  0
 75148  1  0  0  0
 75149  1  0  0  0
 76 79  1  0  0  0
 76150  1  0  0  0
 76151  1  0  0  0
 77152  1  0  0  0
 77153  1  0  0  0
 78154  1  0  0  0
 79155  1  0  0  0
M  CHG  1  79   1
M  ISO  4   1 100  68 101  77 101  78 100
M  END
> <chiral flag>
0

> <version>
0

> <s_m_source_file>
/data/baiqing/PycharmProjects/Reinvent-master-3.2/result/LINK_invent/BTK/process_docking_weight1_custom_sum_contain_oxygen_bond_distance_aromatic_linkinvent_7_9_3/rearranged_h_0085.sdf

> <i_m_source_file_index>
65

> <r_mmod_Potential_Energy-OPLS-2005>
-10.5999460220337

> <r_mmod_Stretch_Energy-OPLS-2005>
100.678665161133

> <r_mmod_Bend_Energy-OPLS-2005>
156.520233154297

> <r_mmod_Torsional_Energy-OPLS-2005>
233.494720458984

> <r_mmod_Improper_Torsional_Energy-OPLS-2005>
4.34607315063477

> <r_mmod_Van_der_Waal_Energy-OPLS-2005>
126.595008850098

> <r_mmod_Electrostatic_Energy-OPLS-2005>
-229.011428833008

> <r_mmod_Solvation_Energy-OPLS-2005>
-463.714080810547

> <b_mmod_Minimization_Converged-OPLS-2005>
0

> <r_mmod_RMS_Derivative-OPLS-2005>
3.06623601913452

$$$$
68
                    3D
 Structure written by MMmdl.
167175  0  0  1  0            999 V2000
  -30.6505  -14.7661   20.3663 C   0  0  0  0  0  0
  -30.4627  -12.4495   19.4556 C   0  0  0  0  0  0
  -29.4958  -12.3535   18.2479 C   0  0  0  0  0  0
  -28.0187  -12.2742   18.6843 C   0  0  0  0  0  0
  -27.6442  -13.2224   19.8550 C   0  0  2  0  0  0
  -28.7197  -13.1850   20.9623 C   0  0  0  0  0  0
  -25.2540  -13.8188   20.5816 C   0  0  0  0  0  0
  -24.1770  -13.0440   20.9276 C   0  0  0  0  0  0
  -24.6360  -11.6939   20.8871 C   0  0  0  0  0  0
  -23.9018  -10.4291   21.0452 C   0  0  0  0  0  0
  -24.3573   -9.4200   21.9214 C   0  0  0  0  0  0
  -23.6266   -8.2238   22.0771 C   0  0  0  0  0  0
  -22.4290   -8.0261   21.3527 C   0  0  0  0  0  0
  -21.9892   -9.0247   20.4654 C   0  0  0  0  0  0
  -22.7202  -10.2144   20.3078 C   0  0  0  0  0  0
  -21.6856   -6.0729   22.5257 C   0  0  0  0  0  0
  -21.4022   -6.5621   23.8192 C   0  0  0  0  0  0
  -21.3670   -5.6770   24.9142 C   0  0  0  0  0  0
  -21.6054   -4.3044   24.7190 C   0  0  0  0  0  0
  -21.8831   -3.8132   23.4317 C   0  0  0  0  0  0
  -21.9213   -4.6954   22.3369 C   0  0  0  0  0  0
  -22.7805  -13.5284   21.1859 C   0  0  0  0  0  0
  -22.1691   -4.2130   21.0955 F   0  0  0  0  0  0
  -21.5607   -3.4521   25.7709 F   0  0  0  0  0  0
  -29.9973  -13.5492   20.3265 N   0  0  0  0  0  0
  -26.2985  -12.9383   20.3526 N   0  0  0  0  0  0
  -25.9309  -11.6540   20.6036 N   0  0  0  0  0  0
  -22.0388  -12.8284   22.0393 N   0  0  0  0  0  0
  -25.4210  -15.1864   20.4191 N   0  0  0  0  0  0
  -31.8815  -14.7963   20.3258 O   0  0  0  0  0  0
  -21.6666   -6.8873   21.4221 O   0  0  0  0  0  0
  -22.3518  -14.5588   20.6690 O   0  0  0  0  0  0
  -24.6182  -31.8669   23.2041 C   0  0  0  0  0  0
  -25.9043  -32.4811   23.8370 C   0  0  1  0  0  0
  -27.2576  -27.4129   20.1255 C   0  0  0  0  0  0
  -25.5925  -33.8612   24.2339 N   0  0  0  0  0  0
  -23.4081  -30.4858   21.5490 C   0  0  2  0  0  0
  -24.8616  -28.9457   20.1122 C   0  0  0  0  0  0
  -22.7454  -29.4581   22.4993 C   0  0  0  0  0  0
  -18.0298  -28.1250   22.8622 C   0  0  0  0  0  0
  -24.1456  -36.7367   23.2640 C   0  0  0  0  0  0
  -25.9348  -30.8406   21.3395 C   0  0  0  0  0  0
  -26.0178  -29.4664   20.6997 C   0  0  0  0  0  0
  -27.2205  -28.7127   20.6895 C   0  0  0  0  0  0
  -26.0763  -26.9114   19.5323 C   0  0  0  0  0  0
  -24.8852  -27.6706   19.5198 C   0  0  0  0  0  0
  -23.6209  -29.8136   20.1647 C   0  0  0  0  0  0
  -25.4039  -36.3102   24.0344 C   0  0  1  0  0  0
  -20.5915  -28.3516   23.1400 C   0  0  2  0  0  0
  -20.6716  -26.9237   22.5471 C   0  0  0  0  0  0
  -19.5640  -26.6288   21.5305 C   0  0  0  0  0  0
  -18.1855  -26.7815   22.1742 C   0  0  0  0  0  0
  -19.1571  -28.8691   23.3026 C   0  0  0  0  0  0
  -18.9481  -30.1322   23.8978 C   0  0  0  0  0  0
  -17.6483  -30.6490   24.0535 C   0  0  0  0  0  0
  -25.8997  -34.9481   23.5138 C   0  0  0  0  0  0
  -16.5366  -29.9007   23.6279 C   0  0  0  0  0  0
  -16.7299  -28.6392   23.0396 C   0  0  0  0  0  0
  -26.4413  -31.6496   25.0645 C   0  0  0  0  0  0
  -25.3707  -31.3599   26.1425 C   0  0  0  0  0  0
  -27.0178  -30.2967   24.5838 C   0  0  0  0  0  0
  -27.5994  -32.4138   25.7458 C   0  0  0  0  0  0
  -27.5505  -37.1804   24.8442 C   0  0  0  0  0  0
  -21.4164  -29.2976   22.3822 N   0  0  0  0  0  0
  -26.4205  -37.3813   23.9445 N   0  0  0  0  0  0
  -24.6751  -31.0749   22.0969 N   0  0  0  0  0  0
  -23.4265  -28.8032   23.2921 O   0  0  0  0  0  0
  -28.4385  -26.6762   20.1183 O   0  0  0  0  0  0
  -26.5539  -34.8963   22.4695 O   0  0  0  0  0  0
  -23.5368  -32.1436   23.7445 O   0  0  0  0  0  0
  -29.0270  -19.5848   19.9120 C   0  0  0  0  0  0
  -31.0619  -17.9608   20.7583 C   0  0  0  0  0  0
  -28.9198  -18.1801   19.7256 C   0  0  0  0  0  0
  -29.9651  -17.2847   20.1547 C   0  0  0  0  0  0
  -30.1765  -20.1606   20.4731 C   0  0  0  0  0  0
  -27.6937  -18.2735   17.5127 C   0  0  0  0  0  0
  -29.1150  -24.3734   18.5683 C   0  0  0  0  0  0
  -30.8876  -24.8202   20.3428 C   0  0  0  0  0  0
  -29.9902  -15.7169   18.3013 C   0  0  0  0  0  0
  -27.6813  -17.7416   18.9610 C   0  0  0  0  0  0
  -30.4505  -21.7146   20.4380 C   0  0  0  0  0  0
  -29.2807  -22.7919   20.6219 C   0  0  0  0  0  0
  -28.4186  -25.3478   20.7208 C   0  0  0  0  0  0
  -29.4397  -24.3121   20.0830 C   0  0  0  0  0  0
  -31.1707  -19.3290   20.8981 N   0  0  0  0  0  0
  -29.9923  -15.8455   19.7703 N   0  0  0  0  0  0
  -31.4791  -12.6284   19.0959 H   0  0  0  0  0  0
  -30.4942  -11.5129   20.0136 H   0  0  0  0  0  0
  -29.7320  -11.4498   17.6815 H   0  0  0  0  0  0
  -29.6344  -13.1757   17.5529 H   0  0  0  0  0  0
  -27.8484  -11.2432   19.0037 H   0  0  0  0  0  0
  -27.3567  -12.4412   17.8351 H   0  0  0  0  0  0
  -27.6279  -14.2358   19.4540 H   0  0  0  0  0  0
  -28.7779  -12.1825   21.3927 H   0  0  0  0  0  0
  -28.4765  -13.8632   21.7821 H   0  0  0  0  0  0
  -25.2694   -9.5683   22.4824 H   0  0  0  0  0  0
  -23.9949   -7.4643   22.7506 H   0  0  0  0  0  0
  -21.0819   -8.8757   19.8974 H   0  0  0  0  0  0
  -22.3624  -10.9685   19.6207 H   0  0  0  0  0  0
  -21.2011   -7.6137   23.9659 H   0  0  0  0  0  0
  -21.1483   -6.0515   25.9042 H   0  0  0  0  0  0
  -22.0616   -2.7587   23.2808 H   0  0  0  0  0  0
  -22.3976  -11.9964   22.4780 H   0  0  0  0  0  0
  -21.0965  -13.1264   22.2494 H   0  0  0  0  0  0
  -24.6502  -15.8410   20.5163 H   0  0  0  0  0  0
  -26.2871  -15.6268   20.1404 H   0  0  0  0  0  0
  -26.7130  -32.5520   23.1144 H   0  0  0  0  0  0
  -25.0085  -33.9715   25.0511 H   0  0  0  0  0  0
  -22.7002  -31.3082   21.4010 H   0  0  0  0  0  0
  -23.3692  -35.9738   23.3256 H   0  0  0  0  0  0
  -24.3550  -36.9028   22.2059 H   0  0  0  0  0  0
  -23.7249  -37.6579   23.6701 H   0  0  0  0  0  0
  -26.0089  -31.5927   20.5530 H   0  0  0  0  0  0
  -26.8418  -30.9304   21.9237 H   0  0  0  0  0  0
  -28.1193  -29.1296   21.1185 H   0  0  0  0  0  0
  -26.0748  -25.9288   19.0813 H   0  0  0  0  0  0
  -23.9877  -27.2703   19.0637 H   0  0  0  0  0  0
  -23.7371  -30.5964   19.4155 H   0  0  0  0  0  0
  -22.7448  -29.2360   19.8592 H   0  0  0  0  0  0
  -25.1217  -36.1941   25.0831 H   0  0  0  0  0  0
  -21.0101  -28.3010   24.1479 H   0  0  0  0  0  0
  -20.5565  -26.2119   23.3666 H   0  0  0  0  0  0
  -21.6566  -26.7137   22.1252 H   0  0  0  0  0  0
  -19.6739  -25.6257   21.1188 H   0  0  0  0  0  0
  -19.6503  -27.3249   20.6964 H   0  0  0  0  0  0
  -17.4136  -26.6764   21.4108 H   0  0  0  0  0  0
  -18.0063  -25.9886   22.9019 H   0  0  0  0  0  0
  -19.7967  -30.7112   24.2381 H   0  0  0  0  0  0
  -17.5036  -31.6202   24.5069 H   0  0  0  0  0  0
  -15.5373  -30.2909   23.7448 H   0  0  0  0  0  0
  -15.8740  -28.0648   22.7059 H   0  0  0  0  0  0
  -24.5976  -30.6770   25.7866 H   0  0  0  0  0  0
  -24.8770  -32.2719   26.4786 H   0  0  0  0  0  0
  -25.8093  -30.8947   27.0256 H   0  0  0  0  0  0
  -26.2702  -29.6848   24.0762 H   0  0  0  0  0  0
  -27.3918  -29.6976   25.4133 H   0  0  0  0  0  0
  -27.8528  -30.4282   23.8958 H   0  0  0  0  0  0
  -27.2661  -33.3501   26.1934 H   0  0  0  0  0  0
  -28.3897  -32.6542   25.0344 H   0  0  0  0  0  0
  -28.0537  -31.8291   26.5466 H   0  0  0  0  0  0
  -28.2522  -38.0098   24.7502 H   0  0  0  0  0  0
  -28.0987  -36.2642   24.6207 H   0  0  0  0  0  0
  -27.2226  -37.1371   25.8841 H   0  0  0  0  0  0
  -20.9231  -29.8914   21.7293 H   0  0  0  0  0  0
  -26.0082  -38.2892   24.1486 H   0  0  0  0  0  0
  -28.2355  -20.2211   19.5358 H   0  0  0  0  0  0
  -31.9477  -17.4058   21.0296 H   0  0  0  0  0  0
  -26.7475  -18.0963   17.0034 H   0  0  0  0  0  0
  -28.4813  -17.8050   16.9251 H   0  0  0  0  0  0
  -27.8696  -19.3484   17.4783 H   0  0  0  0  0  0
  -29.6617  -23.6516   17.9692 H   0  0  0  0  0  0
  -29.3303  -25.3522   18.1310 H   0  0  0  0  0  0
  -28.0498  -24.2023   18.4114 H   0  0  0  0  0  0
  -31.6354  -24.0564   20.1327 H   0  0  0  0  0  0
  -31.0451  -25.1316   21.3771 H   0  0  0  0  0  0
  -31.1622  -25.6800   19.7256 H   0  0  0  0  0  0
  -29.0411  -15.3159   17.9510 H   0  0  0  0  0  0
  -30.7842  -15.0746   17.9169 H   0  0  0  0  0  0
  -30.1494  -16.6677   17.7968 H   0  0  0  0  0  0
  -26.8094  -18.1556   19.4695 H   0  0  0  0  0  0
  -27.5490  -16.6625   18.9833 H   0  0  0  0  0  0
  -30.9394  -21.8940   19.4841 H   0  0  0  0  0  0
  -31.2068  -21.9204   21.1966 H   0  0  0  0  0  0
  -29.0457  -22.8051   21.6857 H   0  0  0  0  0  0
  -28.3925  -22.3747   20.1546 H   0  0  0  0  0  0
  -28.6468  -25.4742   21.7796 H   0  0  0  0  0  0
  -27.4066  -24.9446   20.6979 H   0  0  0  0  0  0
  1 25  1  0  0  0
  1 30  2  0  0  0
  1 86  1  0  0  0
  2  3  1  0  0  0
  2 25  1  0  0  0
  2 87  1  0  0  0
  2 88  1  0  0  0
  3  4  1  0  0  0
  3 89  1  0  0  0
  3 90  1  0  0  0
  4  5  1  0  0  0
  4 91  1  0  0  0
  4 92  1  0  0  0
  5  6  1  0  0  0
  5 26  1  0  0  0
  5 93  1  0  0  0
  6 25  1  0  0  0
  6 94  1  0  0  0
  6 95  1  0  0  0
  7  8  2  0  0  0
  7 26  1  0  0  0
  7 29  1  0  0  0
  8  9  1  0  0  0
  8 22  1  0  0  0
  9 10  1  0  0  0
  9 27  2  0  0  0
 10 11  2  0  0  0
 10 15  1  0  0  0
 11 12  1  0  0  0
 11 96  1  0  0  0
 12 13  2  0  0  0
 12 97  1  0  0  0
 13 14  1  0  0  0
 13 31  1  0  0  0
 14 15  2  0  0  0
 14 98  1  0  0  0
 15 99  1  0  0  0
 16 17  2  0  0  0
 16 21  1  0  0  0
 16 31  1  0  0  0
 17 18  1  0  0  0
 17100  1  0  0  0
 18 19  2  0  0  0
 18101  1  0  0  0
 19 20  1  0  0  0
 19 24  1  0  0  0
 20 21  2  0  0  0
 20102  1  0  0  0
 21 23  1  0  0  0
 22 28  1  0  0  0
 22 32  2  0  0  0
 26 27  1  0  0  0
 28103  1  0  0  0
 28104  1  0  0  0
 29105  1  0  0  0
 29106  1  0  0  0
 33 34  1  0  0  0
 33 66  1  0  0  0
 33 70  2  0  0  0
 34 36  1  0  0  0
 34 59  1  0  0  0
 34107  1  0  0  0
 35 44  2  0  0  0
 35 45  1  0  0  0
 35 68  1  0  0  0
 36 56  1  0  0  0
 36108  1  0  0  0
 37 39  1  0  0  0
 37 47  1  0  0  0
 37 66  1  0  0  0
 37109  1  0  0  0
 38 43  2  0  0  0
 38 46  1  0  0  0
 38 47  1  0  0  0
 39 64  1  0  0  0
 39 67  2  0  0  0
 40 52  1  0  0  0
 40 53  2  0  0  0
 40 58  1  0  0  0
 41110  1  0  0  0
 41111  1  0  0  0
 41112  1  0  0  0
 41 48  1  0  0  0
 42 43  1  0  0  0
 42 66  1  0  0  0
 42113  1  0  0  0
 42114  1  0  0  0
 43 44  1  0  0  0
 44115  1  0  0  0
 45 46  2  0  0  0
 45116  1  0  0  0
 46117  1  0  0  0
 47118  1  0  0  0
 47119  1  0  0  0
 48 56  1  0  0  0
 48 65  1  0  0  0
 48120  1  0  0  0
 49 50  1  0  0  0
 49 53  1  0  0  0
 49 64  1  0  0  0
 49121  1  0  0  0
 50 51  1  0  0  0
 50122  1  0  0  0
 50123  1  0  0  0
 51 52  1  0  0  0
 51124  1  0  0  0
 51125  1  0  0  0
 52126  1  0  0  0
 52127  1  0  0  0
 53 54  1  0  0  0
 54 55  2  0  0  0
 54128  1  0  0  0
 55 57  1  0  0  0
 55129  1  0  0  0
 56 69  2  0  0  0
 57 58  2  0  0  0
 57130  1  0  0  0
 58131  1  0  0  0
 59 60  1  0  0  0
 59 61  1  0  0  0
 59 62  1  0  0  0
 60132  1  0  0  0
 60133  1  0  0  0
 60134  1  0  0  0
 61135  1  0  0  0
 61136  1  0  0  0
 61137  1  0  0  0
 62138  1  0  0  0
 62139  1  0  0  0
 62140  1  0  0  0
 63 65  1  0  0  0
 63141  1  0  0  0
 63142  1  0  0  0
 63143  1  0  0  0
 64144  1  0  0  0
 65145  1  0  0  0
 68 83  1  0  0  0
 71 73  2  0  0  0
 71 75  1  0  0  0
 71146  1  0  0  0
 72 74  2  0  0  0
 72 85  1  0  0  0
 72147  1  0  0  0
 73 74  1  0  0  0
 73 80  1  0  0  0
 74 86  1  0  0  0
 75 81  1  0  0  0
 75 85  2  0  0  0
 76 80  1  0  0  0
 76148  1  0  0  0
 76149  1  0  0  0
 76150  1  0  0  0
 77151  1  0  0  0
 77152  1  0  0  0
 77153  1  0  0  0
 77 84  1  0  0  0
 78 84  1  0  0  0
 78154  1  0  0  0
 78155  1  0  0  0
 78156  1  0  0  0
 79 86  1  0  0  0
 79157  1  0  0  0
 79158  1  0  0  0
 79159  1  0  0  0
 80160  1  0  0  0
 80161  1  0  0  0
 81 82  1  0  0  0
 81162  1  0  0  0
 81163  1  0  0  0
 82 84  1  0  0  0
 82164  1  0  0  0
 82165  1  0  0  0
 83 84  1  0  0  0
 83166  1  0  0  0
 83167  1  0  0  0
M  ISO  4   1 100  68 101  83 101  86 100
M  END
> <chiral flag>
0

> <version>
0

> <s_m_source_file>
/data/baiqing/PycharmProjects/Reinvent-master-3.2/result/LINK_invent/BTK/process_docking_weight1_custom_sum_contain_oxygen_bond_distance_aromatic_linkinvent_7_9_3/rearranged_h_0085.sdf

> <i_m_source_file_index>
66

> <r_mmod_Potential_Energy-OPLS-2005>
210.534271240234

> <r_mmod_Stretch_Energy-OPLS-2005>
96.6550140380859

> <r_mmod_Bend_Energy-OPLS-2005>
171.738357543945

> <r_mmod_Torsional_Energy-OPLS-2005>
357.487976074219

> <r_mmod_Improper_Torsional_Energy-OPLS-2005>
30.7395992279053

> <r_mmod_Van_der_Waal_Energy-OPLS-2005>
148.165908813477

> <r_mmod_Electrostatic_Energy-OPLS-2005>
-477.367614746094

> <r_mmod_Solvation_Energy-OPLS-2005>
-192.943481445312

> <b_mmod_Minimization_Converged-OPLS-2005>
0

> <r_mmod_RMS_Derivative-OPLS-2005>
8.90641021728516

$$$$
69
                    3D
 Structure written by MMmdl.
172180  0  0  1  0            999 V2000
  -30.7215  -14.4489   20.5718 C   0  0  0  0  0  0
  -30.4168  -12.2931   19.4300 C   0  0  0  0  0  0
  -29.4947  -12.5151   18.2132 C   0  0  0  0  0  0
  -28.0142  -12.3823   18.6187 C   0  0  0  0  0  0
  -27.6626  -13.2154   19.8811 C   0  0  2  0  0  0
  -28.7028  -12.9926   21.0059 C   0  0  0  0  0  0
  -25.2576  -13.8186   20.5693 C   0  0  0  0  0  0
  -24.1832  -13.0450   20.9176 C   0  0  0  0  0  0
  -24.6390  -11.6916   20.8723 C   0  0  0  0  0  0
  -23.9064  -10.4299   21.0401 C   0  0  0  0  0  0
  -24.3617   -9.4210   21.9176 C   0  0  0  0  0  0
  -23.6290   -8.2238   22.0747 C   0  0  0  0  0  0
  -22.4274   -8.0287   21.3543 C   0  0  0  0  0  0
  -21.9913   -9.0263   20.4652 C   0  0  0  0  0  0
  -22.7235  -10.2138   20.3054 C   0  0  0  0  0  0
  -21.6852   -6.0732   22.5277 C   0  0  0  0  0  0
  -21.4018   -6.5634   23.8205 C   0  0  0  0  0  0
  -21.3663   -5.6793   24.9175 C   0  0  0  0  0  0
  -21.6043   -4.3046   24.7222 C   0  0  0  0  0  0
  -21.8825   -3.8144   23.4338 C   0  0  0  0  0  0
  -21.9191   -4.6966   22.3401 C   0  0  0  0  0  0
  -22.7859  -13.5250   21.1852 C   0  0  0  0  0  0
  -22.1662   -4.2151   21.0967 F   0  0  0  0  0  0
  -21.5628   -3.4531   25.7728 F   0  0  0  0  0  0
  -30.0393  -13.2779   20.4585 N   0  0  0  0  0  0
  -26.3034  -12.9366   20.3407 N   0  0  0  0  0  0
  -25.9324  -11.6518   20.5772 N   0  0  0  0  0  0
  -22.0501  -12.8242   22.0399 N   0  0  0  0  0  0
  -25.4272  -15.1906   20.4120 N   0  0  0  0  0  0
  -31.8414  -14.6156   20.0880 O   0  0  0  0  0  0
  -21.6645   -6.8882   21.4237 O   0  0  0  0  0  0
  -22.3538  -14.5546   20.6687 O   0  0  0  0  0  0
  -24.6111  -31.8711   23.2157 C   0  0  0  0  0  0
  -25.9040  -32.4839   23.8416 C   0  0  1  0  0  0
  -27.2162  -27.4441   20.1045 C   0  0  0  0  0  0
  -25.5915  -33.8623   24.2344 N   0  0  0  0  0  0
  -23.3987  -30.5003   21.5499 C   0  0  2  0  0  0
  -24.8443  -28.9741   20.1098 C   0  0  0  0  0  0
  -22.7394  -29.4708   22.4955 C   0  0  0  0  0  0
  -18.0292  -28.1351   22.8511 C   0  0  0  0  0  0
  -24.1498  -36.7314   23.2632 C   0  0  0  0  0  0
  -25.9272  -30.8430   21.3715 C   0  0  0  0  0  0
  -26.0018  -29.4807   20.7137 C   0  0  0  0  0  0
  -27.1906  -28.7173   20.7155 C   0  0  0  0  0  0
  -26.0532  -26.9722   19.4568 C   0  0  0  0  0  0
  -24.8655  -27.7198   19.4790 C   0  0  0  0  0  0
  -23.6062  -29.8375   20.1619 C   0  0  0  0  0  0
  -25.4113  -36.3123   24.0338 C   0  0  1  0  0  0
  -20.5883  -28.3692   23.1298 C   0  0  2  0  0  0
  -20.6803  -26.9386   22.5484 C   0  0  0  0  0  0
  -19.5781  -26.6279   21.5305 C   0  0  0  0  0  0
  -18.1966  -26.7856   22.1713 C   0  0  0  0  0  0
  -19.1535  -28.8842   23.2888 C   0  0  0  0  0  0
  -18.9452  -30.1472   23.8865 C   0  0  0  0  0  0
  -17.6448  -30.6600   24.0501 C   0  0  0  0  0  0
  -25.9027  -34.9477   23.5120 C   0  0  0  0  0  0
  -16.5357  -29.9085   23.6300 C   0  0  0  0  0  0
  -16.7285  -28.6480   23.0357 C   0  0  0  0  0  0
  -26.4482  -31.6612   25.0733 C   0  0  0  0  0  0
  -25.3734  -31.3752   26.1477 C   0  0  0  0  0  0
  -27.0316  -30.3040   24.6147 C   0  0  0  0  0  0
  -27.6060  -32.4328   25.7500 C   0  0  0  0  0  0
  -27.5578  -37.1819   24.8446 C   0  0  0  0  0  0
  -21.4122  -29.3062   22.3674 N   0  0  0  0  0  0
  -26.4293  -37.3806   23.9404 N   0  0  0  0  0  0
  -24.6641  -31.0837   22.1047 N   0  0  0  0  0  0
  -23.4168  -28.8260   23.2985 O   0  0  0  0  0  0
  -28.3737  -26.7030   20.1707 O   0  0  0  0  0  0
  -26.5581  -34.8922   22.4685 O   0  0  0  0  0  0
  -23.5320  -32.1470   23.7577 O   0  0  0  0  0  0
  -26.6274  -20.3143   21.8679 C   0  0  0  0  0  0
  -26.6153  -19.0192   22.3981 C   0  0  0  0  0  0
  -27.8472  -20.7900   21.3719 C   0  0  0  0  0  0
  -28.8417  -18.7913   21.9128 C   0  0  0  0  0  0
  -25.3590  -18.4139   22.9877 C   0  0  0  0  0  0
  -30.2022  -18.4302   18.6321 C   0  0  0  0  0  0
  -28.1197  -25.5860   22.7839 C   0  0  0  0  0  0
  -26.1490  -24.6210   21.6062 C   0  0  0  0  0  0
  -27.9444  -22.1942   20.7894 C   0  0  0  0  0  0
  -30.0818  -17.8867   21.9151 C   0  0  0  0  0  0
  -29.5588  -17.2641   19.3948 C   0  0  0  0  0  0
  -28.2663  -23.2660   21.8570 C   0  0  0  0  0  0
  -28.2697  -25.2702   20.2620 C   0  0  0  0  0  0
  -30.2941  -16.9072   20.7121 C   0  0  2  0  0  0
  -27.6966  -24.6935   21.6000 C   0  0  0  0  0  0
  -27.7265  -18.2635   22.4130 N   0  0  0  0  0  0
  -28.9574  -20.0265   21.4161 N   0  0  0  0  0  0
  -30.0161  -15.4922   21.0510 N   0  0  0  0  0  0
  -31.4640  -12.3724   19.1339 H   0  0  0  0  0  0
  -30.2990  -11.2826   19.8223 H   0  0  0  0  0  0
  -29.7320  -11.8008   17.4237 H   0  0  0  0  0  0
  -29.6714  -13.5052   17.7912 H   0  0  0  0  0  0
  -27.8133  -11.3276   18.8008 H   0  0  0  0  0  0
  -27.3707  -12.6748   17.7881 H   0  0  0  0  0  0
  -27.7067  -14.2653   19.5884 H   0  0  0  0  0  0
  -28.6662  -11.9616   21.3612 H   0  0  0  0  0  0
  -28.4731  -13.6096   21.8751 H   0  0  0  0  0  0
  -25.2765   -9.5686   22.4744 H   0  0  0  0  0  0
  -24.0007   -7.4639   22.7462 H   0  0  0  0  0  0
  -21.0841   -8.8793   19.8958 H   0  0  0  0  0  0
  -22.3706  -10.9684   19.6162 H   0  0  0  0  0  0
  -21.2016   -7.6147   23.9722 H   0  0  0  0  0  0
  -21.1479   -6.0509   25.9075 H   0  0  0  0  0  0
  -22.0598   -2.7609   23.2835 H   0  0  0  0  0  0
  -22.4111  -11.9926   22.4819 H   0  0  0  0  0  0
  -21.1118  -13.1290   22.2612 H   0  0  0  0  0  0
  -24.6574  -15.8421   20.5168 H   0  0  0  0  0  0
  -26.2874  -15.6354   20.1218 H   0  0  0  0  0  0
  -26.7084  -32.5555   23.1156 H   0  0  0  0  0  0
  -25.0109  -33.9815   25.0511 H   0  0  0  0  0  0
  -22.6859  -31.3165   21.4122 H   0  0  0  0  0  0
  -23.3765  -35.9632   23.3296 H   0  0  0  0  0  0
  -24.3589  -36.8927   22.2036 H   0  0  0  0  0  0
  -23.7232  -37.6514   23.6634 H   0  0  0  0  0  0
  -26.0401  -31.6204   20.6141 H   0  0  0  0  0  0
  -26.8114  -30.8857   21.9974 H   0  0  0  0  0  0
  -28.0754  -29.0980   21.2077 H   0  0  0  0  0  0
  -26.0386  -26.0197   18.9485 H   0  0  0  0  0  0
  -23.9737  -27.3391   19.0012 H   0  0  0  0  0  0
  -23.7133  -30.6123   19.4003 H   0  0  0  0  0  0
  -22.7341  -29.2540   19.8665 H   0  0  0  0  0  0
  -25.1291  -36.1987   25.0822 H   0  0  0  0  0  0
  -20.9970  -28.3335   24.1411 H   0  0  0  0  0  0
  -20.5741  -26.2321   23.3730 H   0  0  0  0  0  0
  -21.6672  -26.7445   22.1274 H   0  0  0  0  0  0
  -19.6952  -25.6130   21.1487 H   0  0  0  0  0  0
  -19.6717  -27.2956   20.6741 H   0  0  0  0  0  0
  -17.4221  -26.6537   21.4148 H   0  0  0  0  0  0
  -18.0398  -26.0042   22.9149 H   0  0  0  0  0  0
  -19.7933  -30.7298   24.2199 H   0  0  0  0  0  0
  -17.5014  -31.6308   24.5037 H   0  0  0  0  0  0
  -15.5355  -30.2984   23.7585 H   0  0  0  0  0  0
  -15.8698  -28.0778   22.7075 H   0  0  0  0  0  0
  -24.5906  -30.7109   25.7818 H   0  0  0  0  0  0
  -24.8943  -32.2921   26.4893 H   0  0  0  0  0  0
  -25.8072  -30.8937   27.0242 H   0  0  0  0  0  0
  -26.2897  -29.6813   24.1147 H   0  0  0  0  0  0
  -27.3990  -29.7281   25.4646 H   0  0  0  0  0  0
  -27.8753  -30.4341   23.9380 H   0  0  0  0  0  0
  -27.2683  -33.3610   26.2122 H   0  0  0  0  0  0
  -28.3855  -32.6922   25.0322 H   0  0  0  0  0  0
  -28.0736  -31.8421   26.5390 H   0  0  0  0  0  0
  -28.2600  -38.0128   24.7526 H   0  0  0  0  0  0
  -28.1099  -36.2655   24.6244 H   0  0  0  0  0  0
  -27.2297  -37.1405   25.8857 H   0  0  0  0  0  0
  -20.9279  -29.8743   21.6871 H   0  0  0  0  0  0
  -26.0192  -38.2882   24.1425 H   0  0  0  0  0  0
  -25.7333  -20.9254   21.8433 H   0  0  0  0  0  0
  -24.4710  -18.9226   22.6131 H   0  0  0  0  0  0
  -25.3671  -18.4935   24.0755 H   0  0  0  0  0  0
  -25.2745  -17.3616   22.7230 H   0  0  0  0  0  0
  -29.6402  -18.6655   17.7291 H   0  0  0  0  0  0
  -31.2218  -18.1844   18.3283 H   0  0  0  0  0  0
  -30.2532  -19.3374   19.2281 H   0  0  0  0  0  0
  -27.8530  -25.1354   23.7397 H   0  0  0  0  0  0
  -27.6282  -26.5596   22.7515 H   0  0  0  0  0  0
  -29.1948  -25.7662   22.7822 H   0  0  0  0  0  0
  -25.7869  -24.0439   22.4582 H   0  0  0  0  0  0
  -25.7421  -24.1628   20.7045 H   0  0  0  0  0  0
  -25.6962  -25.6071   21.6954 H   0  0  0  0  0  0
  -26.9937  -22.4011   20.3044 H   0  0  0  0  0  0
  -28.6838  -22.2239   19.9872 H   0  0  0  0  0  0
  -30.1270  -17.3370   22.8541 H   0  0  0  0  0  0
  -30.9389  -18.5587   21.9555 H   0  0  0  0  0  0
  -29.5708  -16.4059   18.7200 H   0  0  0  0  0  0
  -28.5048  -17.4737   19.5807 H   0  0  0  0  0  0
  -29.3482  -23.3040   21.9915 H   0  0  0  0  0  0
  -27.8781  -22.9167   22.8171 H   0  0  0  0  0  0
  -29.2998  -24.9263   20.1632 H   0  0  0  0  0  0
  -27.7614  -24.8485   19.3957 H   0  0  0  0  0  0
  -31.3640  -16.9703   20.5070 H   0  0  0  0  0  0
  -29.1201  -15.2825   21.4661 H   0  0  0  0  0  0
  1 25  1  0  0  0
  1 30  2  0  0  0
  1 88  1  0  0  0
  2  3  1  0  0  0
  2 25  1  0  0  0
  2 89  1  0  0  0
  2 90  1  0  0  0
  3  4  1  0  0  0
  3 91  1  0  0  0
  3 92  1  0  0  0
  4  5  1  0  0  0
  4 93  1  0  0  0
  4 94  1  0  0  0
  5  6  1  0  0  0
  5 26  1  0  0  0
  5 95  1  0  0  0
  6 25  1  0  0  0
  6 96  1  0  0  0
  6 97  1  0  0  0
  7  8  2  0  0  0
  7 26  1  0  0  0
  7 29  1  0  0  0
  8  9  1  0  0  0
  8 22  1  0  0  0
  9 10  1  0  0  0
  9 27  2  0  0  0
 10 11  2  0  0  0
 10 15  1  0  0  0
 11 12  1  0  0  0
 11 98  1  0  0  0
 12 13  2  0  0  0
 12 99  1  0  0  0
 13 14  1  0  0  0
 13 31  1  0  0  0
 14 15  2  0  0  0
 14100  1  0  0  0
 15101  1  0  0  0
 16 17  2  0  0  0
 16 21  1  0  0  0
 16 31  1  0  0  0
 17 18  1  0  0  0
 17102  1  0  0  0
 18 19  2  0  0  0
 18103  1  0  0  0
 19 20  1  0  0  0
 19 24  1  0  0  0
 20 21  2  0  0  0
 20104  1  0  0  0
 21 23  1  0  0  0
 22 28  1  0  0  0
 22 32  2  0  0  0
 26 27  1  0  0  0
 28105  1  0  0  0
 28106  1  0  0  0
 29107  1  0  0  0
 29108  1  0  0  0
 33 34  1  0  0  0
 33 66  1  0  0  0
 33 70  2  0  0  0
 34 36  1  0  0  0
 34 59  1  0  0  0
 34109  1  0  0  0
 35 44  2  0  0  0
 35 45  1  0  0  0
 35 68  1  0  0  0
 36 56  1  0  0  0
 36110  1  0  0  0
 37 39  1  0  0  0
 37 47  1  0  0  0
 37 66  1  0  0  0
 37111  1  0  0  0
 38 43  2  0  0  0
 38 46  1  0  0  0
 38 47  1  0  0  0
 39 64  1  0  0  0
 39 67  2  0  0  0
 40 52  1  0  0  0
 40 53  2  0  0  0
 40 58  1  0  0  0
 41112  1  0  0  0
 41113  1  0  0  0
 41114  1  0  0  0
 41 48  1  0  0  0
 42 43  1  0  0  0
 42 66  1  0  0  0
 42115  1  0  0  0
 42116  1  0  0  0
 43 44  1  0  0  0
 44117  1  0  0  0
 45 46  2  0  0  0
 45118  1  0  0  0
 46119  1  0  0  0
 47120  1  0  0  0
 47121  1  0  0  0
 48 56  1  0  0  0
 48 65  1  0  0  0
 48122  1  0  0  0
 49 50  1  0  0  0
 49 53  1  0  0  0
 49 64  1  0  0  0
 49123  1  0  0  0
 50 51  1  0  0  0
 50124  1  0  0  0
 50125  1  0  0  0
 51 52  1  0  0  0
 51126  1  0  0  0
 51127  1  0  0  0
 52128  1  0  0  0
 52129  1  0  0  0
 53 54  1  0  0  0
 54 55  2  0  0  0
 54130  1  0  0  0
 55 57  1  0  0  0
 55131  1  0  0  0
 56 69  2  0  0  0
 57 58  2  0  0  0
 57132  1  0  0  0
 58133  1  0  0  0
 59 60  1  0  0  0
 59 61  1  0  0  0
 59 62  1  0  0  0
 60134  1  0  0  0
 60135  1  0  0  0
 60136  1  0  0  0
 61137  1  0  0  0
 61138  1  0  0  0
 61139  1  0  0  0
 62140  1  0  0  0
 62141  1  0  0  0
 62142  1  0  0  0
 63 65  1  0  0  0
 63143  1  0  0  0
 63144  1  0  0  0
 63145  1  0  0  0
 64146  1  0  0  0
 65147  1  0  0  0
 68 83  1  0  0  0
 71 72  2  0  0  0
 71 73  1  0  0  0
 71148  1  0  0  0
 72 75  1  0  0  0
 72 86  1  0  0  0
 73 79  1  0  0  0
 73 87  2  0  0  0
 74 80  1  0  0  0
 74 86  2  0  0  0
 74 87  1  0  0  0
 75149  1  0  0  0
 75150  1  0  0  0
 75151  1  0  0  0
 76 81  1  0  0  0
 76152  1  0  0  0
 76153  1  0  0  0
 76154  1  0  0  0
 77155  1  0  0  0
 77156  1  0  0  0
 77157  1  0  0  0
 77 85  1  0  0  0
 78 85  1  0  0  0
 78158  1  0  0  0
 78159  1  0  0  0
 78160  1  0  0  0
 79 82  1  0  0  0
 79161  1  0  0  0
 79162  1  0  0  0
 80163  1  0  0  0
 80164  1  0  0  0
 80 84  1  0  0  0
 81 84  1  0  0  0
 81165  1  0  0  0
 81166  1  0  0  0
 82 85  1  0  0  0
 82167  1  0  0  0
 82168  1  0  0  0
 83 85  1  0  0  0
 83169  1  0  0  0
 83170  1  0  0  0
 84 88  1  0  0  0
 84171  1  0  0  0
 88172  1  0  0  0
M  ISO  4   1 100  68 101  83 101  88 100
M  END
> <chiral flag>
0

> <version>
0

> <s_m_source_file>
/data/baiqing/PycharmProjects/Reinvent-master-3.2/result/LINK_invent/BTK/process_docking_weight1_custom_sum_contain_oxygen_bond_distance_aromatic_linkinvent_7_9_3/rearranged_h_0085.sdf

> <i_m_source_file_index>
67

> <r_mmod_Potential_Energy-OPLS-2005>
-395.619689941406

> <r_mmod_Stretch_Energy-OPLS-2005>
39.3133239746094

> <r_mmod_Bend_Energy-OPLS-2005>
115.969909667969

> <r_mmod_Torsional_Energy-OPLS-2005>
218.193466186523

> <r_mmod_Improper_Torsional_Energy-OPLS-2005>
5.43707323074341

> <r_mmod_Van_der_Waal_Energy-OPLS-2005>
156.0517578125

> <r_mmod_Electrostatic_Energy-OPLS-2005>
-732.733764648438

> <r_mmod_Solvation_Energy-OPLS-2005>
-211.499542236328

> <b_mmod_Minimization_Converged-OPLS-2005>
0

> <r_mmod_RMS_Derivative-OPLS-2005>
4.69543170928955

$$$$
70
                    3D
 Structure written by MMmdl.
164172  0  0  1  0            999 V2000
  -30.7516  -14.4968   20.5326 C   0  0  0  0  0  0
  -30.4195  -12.3151   19.4454 C   0  0  0  0  0  0
  -29.5042  -12.4869   18.2199 C   0  0  0  0  0  0
  -28.0232  -12.3533   18.6280 C   0  0  0  0  0  0
  -27.6572  -13.2179   19.8664 C   0  0  2  0  0  0
  -28.7023  -13.0665   20.9956 C   0  0  0  0  0  0
  -25.2535  -13.8200   20.5635 C   0  0  0  0  0  0
  -24.1803  -13.0498   20.9179 C   0  0  0  0  0  0
  -24.6362  -11.6941   20.8746 C   0  0  0  0  0  0
  -23.9015  -10.4327   21.0380 C   0  0  0  0  0  0
  -24.3571   -9.4235   21.9158 C   0  0  0  0  0  0
  -23.6273   -8.2255   22.0734 C   0  0  0  0  0  0
  -22.4264   -8.0272   21.3532 C   0  0  0  0  0  0
  -21.9884   -9.0240   20.4620 C   0  0  0  0  0  0
  -22.7186  -10.2143   20.3032 C   0  0  0  0  0  0
  -21.6858   -6.0703   22.5276 C   0  0  0  0  0  0
  -21.3997   -6.5603   23.8207 C   0  0  0  0  0  0
  -21.3677   -5.6764   24.9179 C   0  0  0  0  0  0
  -21.6067   -4.3031   24.7223 C   0  0  0  0  0  0
  -21.8812   -3.8112   23.4342 C   0  0  0  0  0  0
  -21.9179   -4.6926   22.3398 C   0  0  0  0  0  0
  -22.7807  -13.5273   21.1847 C   0  0  0  0  0  0
  -22.1628   -4.2102   21.0974 F   0  0  0  0  0  0
  -21.5675   -3.4517   25.7740 F   0  0  0  0  0  0
  -30.0312  -13.3442   20.4254 N   0  0  0  0  0  0
  -26.2996  -12.9388   20.3359 N   0  0  0  0  0  0
  -25.9294  -11.6544   20.5778 N   0  0  0  0  0  0
  -22.0414  -12.8312   22.0404 N   0  0  0  0  0  0
  -25.4299  -15.1919   20.3901 N   0  0  0  0  0  0
  -31.9179  -14.5727   20.1634 O   0  0  0  0  0  0
  -21.6647   -6.8846   21.4235 O   0  0  0  0  0  0
  -22.3501  -14.5581   20.6664 O   0  0  0  0  0  0
  -24.6134  -31.8710   23.2119 C   0  0  0  0  0  0
  -25.9043  -32.4827   23.8407 C   0  0  1  0  0  0
  -27.2214  -27.4344   20.0922 C   0  0  0  0  0  0
  -25.5899  -33.8618   24.2327 N   0  0  0  0  0  0
  -23.4000  -30.5029   21.5503 C   0  0  2  0  0  0
  -24.8448  -28.9779   20.1168 C   0  0  0  0  0  0
  -22.7409  -29.4708   22.4950 C   0  0  0  0  0  0
  -18.0291  -28.1391   22.8509 C   0  0  0  0  0  0
  -24.1485  -36.7304   23.2643 C   0  0  0  0  0  0
  -25.9350  -30.8401   21.3681 C   0  0  0  0  0  0
  -26.0102  -29.4792   20.7077 C   0  0  0  0  0  0
  -27.2047  -28.7178   20.6933 C   0  0  0  0  0  0
  -26.0321  -26.9653   19.4847 C   0  0  0  0  0  0
  -24.8475  -27.7178   19.5072 C   0  0  0  0  0  0
  -23.6092  -29.8453   20.1635 C   0  0  0  0  0  0
  -25.4107  -36.3103   24.0339 C   0  0  1  0  0  0
  -20.5884  -28.3678   23.1308 C   0  0  2  0  0  0
  -20.6773  -26.9406   22.5417 C   0  0  0  0  0  0
  -19.5738  -26.6392   21.5224 C   0  0  0  0  0  0
  -18.1925  -26.7943   22.1642 C   0  0  0  0  0  0
  -19.1543  -28.8851   23.2917 C   0  0  0  0  0  0
  -18.9466  -30.1458   23.8916 C   0  0  0  0  0  0
  -17.6465  -30.6592   24.0586 C   0  0  0  0  0  0
  -25.9035  -34.9476   23.5136 C   0  0  0  0  0  0
  -16.5358  -29.9098   23.6325 C   0  0  0  0  0  0
  -16.7280  -28.6523   23.0338 C   0  0  0  0  0  0
  -26.4460  -31.6599   25.0725 C   0  0  0  0  0  0
  -25.3728  -31.3739   26.1478 C   0  0  0  0  0  0
  -27.0282  -30.3038   24.6109 C   0  0  0  0  0  0
  -27.6044  -32.4316   25.7474 C   0  0  0  0  0  0
  -27.5582  -37.1800   24.8465 C   0  0  0  0  0  0
  -21.4141  -29.3056   22.3701 N   0  0  0  0  0  0
  -26.4290  -37.3784   23.9415 N   0  0  0  0  0  0
  -24.6675  -31.0863   22.1001 N   0  0  0  0  0  0
  -23.4203  -28.8238   23.2966 O   0  0  0  0  0  0
  -28.3675  -26.6545   20.1185 O   0  0  0  0  0  0
  -26.5601  -34.8930   22.4685 O   0  0  0  0  0  0
  -23.5337  -32.1443   23.7536 O   0  0  0  0  0  0
  -31.4892  -20.1981   20.5190 C   0  0  0  0  0  0
  -29.6857  -19.7658   19.0029 C   0  0  0  0  0  0
  -30.7679  -19.2511   19.7582 C   0  0  0  0  0  0
  -31.1610  -21.5686   20.4484 C   0  0  0  0  0  0
  -30.1177  -21.9880   19.5937 C   0  0  0  0  0  0
  -31.9374  -22.5480   21.3054 C   0  0  0  0  0  0
  -32.7215  -17.6653   19.7142 C   0  0  0  0  0  0
  -30.6882  -17.0879   18.4081 C   0  0  0  0  0  0
  -29.8129  -23.4733   19.3067 C   0  0  0  0  0  0
  -29.3456  -24.3418   20.5115 C   0  0  0  0  0  0
  -30.6097  -16.9995   21.0016 C   0  0  0  0  0  0
  -28.1166  -25.2392   20.2423 C   0  0  0  0  0  0
  -31.1717  -17.7459   19.7252 C   0  0  0  0  0  0
  -29.3762  -21.0844   18.9146 N   0  0  0  0  0  0
  -30.0818  -15.6155   20.8750 N   0  0  0  0  0  0
  -31.4630  -12.3998   19.1386 H   0  0  0  0  0  0
  -30.3176  -11.3149   19.8709 H   0  0  0  0  0  0
  -29.7530  -11.7384   17.4644 H   0  0  0  0  0  0
  -29.6876  -13.4604   17.7623 H   0  0  0  0  0  0
  -27.8359  -11.3016   18.8507 H   0  0  0  0  0  0
  -27.3789  -12.6005   17.7823 H   0  0  0  0  0  0
  -27.6865  -14.2560   19.5399 H   0  0  0  0  0  0
  -28.6779  -12.0558   21.4084 H   0  0  0  0  0  0
  -28.4665  -13.7352   21.8264 H   0  0  0  0  0  0
  -25.2699   -9.5750   22.4734 H   0  0  0  0  0  0
  -23.9992   -7.4652   22.7460 H   0  0  0  0  0  0
  -21.0819   -8.8731   19.8930 H   0  0  0  0  0  0
  -22.3596  -10.9666   19.6144 H   0  0  0  0  0  0
  -21.1949   -7.6101   23.9699 H   0  0  0  0  0  0
  -21.1532   -6.0489   25.9094 H   0  0  0  0  0  0
  -22.0574   -2.7564   23.2861 H   0  0  0  0  0  0
  -22.3961  -11.9999   22.4923 H   0  0  0  0  0  0
  -21.1013  -13.1356   22.2489 H   0  0  0  0  0  0
  -24.6703  -15.8608   20.4566 H   0  0  0  0  0  0
  -26.2851  -15.6071   20.0440 H   0  0  0  0  0  0
  -26.7122  -32.5545   23.1180 H   0  0  0  0  0  0
  -25.0039  -33.9765   25.0475 H   0  0  0  0  0  0
  -22.6882  -31.3205   21.4128 H   0  0  0  0  0  0
  -23.3745  -35.9636   23.3303 H   0  0  0  0  0  0
  -24.3611  -36.8910   22.2062 H   0  0  0  0  0  0
  -23.7230  -37.6506   23.6656 H   0  0  0  0  0  0
  -26.0611  -31.6123   20.6085 H   0  0  0  0  0  0
  -26.8182  -30.8801   21.9936 H   0  0  0  0  0  0
  -28.0991  -29.1016   21.1633 H   0  0  0  0  0  0
  -25.9757  -26.0162   18.9789 H   0  0  0  0  0  0
  -23.9510  -27.3189   19.0565 H   0  0  0  0  0  0
  -23.7278  -30.6224   19.4061 H   0  0  0  0  0  0
  -22.7313  -29.2701   19.8620 H   0  0  0  0  0  0
  -25.1282  -36.1967   25.0832 H   0  0  0  0  0  0
  -21.0011  -28.3247   24.1414 H   0  0  0  0  0  0
  -20.5670  -26.2285   23.3613 H   0  0  0  0  0  0
  -21.6639  -26.7437   22.1200 H   0  0  0  0  0  0
  -19.6882  -25.6303   21.1241 H   0  0  0  0  0  0
  -19.6674  -27.3219   20.6768 H   0  0  0  0  0  0
  -17.4192  -26.6717   21.4041 H   0  0  0  0  0  0
  -18.0316  -26.0083   22.9033 H   0  0  0  0  0  0
  -19.7944  -30.7289   24.2266 H   0  0  0  0  0  0
  -17.5021  -31.6262   24.5199 H   0  0  0  0  0  0
  -15.5358  -30.3008   23.7628 H   0  0  0  0  0  0
  -15.8693  -28.0866   22.6994 H   0  0  0  0  0  0
  -24.5871  -30.7106   25.7835 H   0  0  0  0  0  0
  -24.8946  -32.2909   26.4926 H   0  0  0  0  0  0
  -25.8075  -30.8904   27.0232 H   0  0  0  0  0  0
  -26.2829  -29.6802   24.1146 H   0  0  0  0  0  0
  -27.4036  -29.7268   25.4572 H   0  0  0  0  0  0
  -27.8677  -30.4350   23.9277 H   0  0  0  0  0  0
  -27.2672  -33.3621   26.2054 H   0  0  0  0  0  0
  -28.3841  -32.6860   25.0282 H   0  0  0  0  0  0
  -28.0712  -31.8425   26.5376 H   0  0  0  0  0  0
  -28.2595  -38.0100   24.7515 H   0  0  0  0  0  0
  -28.1078  -36.2631   24.6275 H   0  0  0  0  0  0
  -27.2315  -37.1431   25.8872 H   0  0  0  0  0  0
  -20.9277  -29.8823   21.6984 H   0  0  0  0  0  0
  -26.0179  -38.2861   24.1405 H   0  0  0  0  0  0
  -32.3172  -19.9025   21.1467 H   0  0  0  0  0  0
  -29.0608  -19.1175   18.4088 H   0  0  0  0  0  0
  -32.9181  -22.1520   21.5639 H   0  0  0  0  0  0
  -31.3891  -22.7139   22.2323 H   0  0  0  0  0  0
  -32.0887  -23.5044   20.8084 H   0  0  0  0  0  0
  -33.1519  -18.2513   18.9005 H   0  0  0  0  0  0
  -33.0843  -16.6514   19.5795 H   0  0  0  0  0  0
  -33.1705  -18.0167   20.6438 H   0  0  0  0  0  0
  -30.9539  -17.6812   17.5298 H   0  0  0  0  0  0
  -29.6094  -16.9354   18.4107 H   0  0  0  0  0  0
  -31.1383  -16.1096   18.2434 H   0  0  0  0  0  0
  -29.0882  -23.5233   18.4938 H   0  0  0  0  0  0
  -30.7108  -23.9253   18.8873 H   0  0  0  0  0  0
  -30.1703  -24.9493   20.8811 H   0  0  0  0  0  0
  -29.0888  -23.6720   21.3335 H   0  0  0  0  0  0
  -29.7565  -17.5684   21.3732 H   0  0  0  0  0  0
  -31.3423  -17.0280   21.8122 H   0  0  0  0  0  0
  -27.4167  -25.1043   21.0704 H   0  0  0  0  0  0
  -27.6197  -24.8594   19.3532 H   0  0  0  0  0  0
  -29.1092  -15.5052   21.1205 H   0  0  0  0  0  0
  1 25  1  0  0  0
  1 30  2  0  0  0
  1 85  1  0  0  0
  2  3  1  0  0  0
  2 25  1  0  0  0
  2 86  1  0  0  0
  2 87  1  0  0  0
  3  4  1  0  0  0
  3 88  1  0  0  0
  3 89  1  0  0  0
  4  5  1  0  0  0
  4 90  1  0  0  0
  4 91  1  0  0  0
  5  6  1  0  0  0
  5 26  1  0  0  0
  5 92  1  0  0  0
  6 25  1  0  0  0
  6 93  1  0  0  0
  6 94  1  0  0  0
  7  8  2  0  0  0
  7 26  1  0  0  0
  7 29  1  0  0  0
  8  9  1  0  0  0
  8 22  1  0  0  0
  9 10  1  0  0  0
  9 27  2  0  0  0
 10 11  2  0  0  0
 10 15  1  0  0  0
 11 12  1  0  0  0
 11 95  1  0  0  0
 12 13  2  0  0  0
 12 96  1  0  0  0
 13 14  1  0  0  0
 13 31  1  0  0  0
 14 15  2  0  0  0
 14 97  1  0  0  0
 15 98  1  0  0  0
 16 17  2  0  0  0
 16 21  1  0  0  0
 16 31  1  0  0  0
 17 18  1  0  0  0
 17 99  1  0  0  0
 18 19  2  0  0  0
 18100  1  0  0  0
 19 20  1  0  0  0
 19 24  1  0  0  0
 20 21  2  0  0  0
 20101  1  0  0  0
 21 23  1  0  0  0
 22 28  1  0  0  0
 22 32  2  0  0  0
 26 27  1  0  0  0
 28102  1  0  0  0
 28103  1  0  0  0
 29104  1  0  0  0
 29105  1  0  0  0
 33 34  1  0  0  0
 33 66  1  0  0  0
 33 70  2  0  0  0
 34 36  1  0  0  0
 34 59  1  0  0  0
 34106  1  0  0  0
 35 44  2  0  0  0
 35 45  1  0  0  0
 35 68  1  0  0  0
 36 56  1  0  0  0
 36107  1  0  0  0
 37 39  1  0  0  0
 37 47  1  0  0  0
 37 66  1  0  0  0
 37108  1  0  0  0
 38 43  2  0  0  0
 38 46  1  0  0  0
 38 47  1  0  0  0
 39 64  1  0  0  0
 39 67  2  0  0  0
 40 52  1  0  0  0
 40 53  2  0  0  0
 40 58  1  0  0  0
 41109  1  0  0  0
 41110  1  0  0  0
 41111  1  0  0  0
 41 48  1  0  0  0
 42 43  1  0  0  0
 42 66  1  0  0  0
 42112  1  0  0  0
 42113  1  0  0  0
 43 44  1  0  0  0
 44114  1  0  0  0
 45 46  2  0  0  0
 45115  1  0  0  0
 46116  1  0  0  0
 47117  1  0  0  0
 47118  1  0  0  0
 48 56  1  0  0  0
 48 65  1  0  0  0
 48119  1  0  0  0
 49 50  1  0  0  0
 49 53  1  0  0  0
 49 64  1  0  0  0
 49120  1  0  0  0
 50 51  1  0  0  0
 50121  1  0  0  0
 50122  1  0  0  0
 51 52  1  0  0  0
 51123  1  0  0  0
 51124  1  0  0  0
 52125  1  0  0  0
 52126  1  0  0  0
 53 54  1  0  0  0
 54 55  2  0  0  0
 54127  1  0  0  0
 55 57  1  0  0  0
 55128  1  0  0  0
 56 69  2  0  0  0
 57 58  2  0  0  0
 57129  1  0  0  0
 58130  1  0  0  0
 59 60  1  0  0  0
 59 61  1  0  0  0
 59 62  1  0  0  0
 60131  1  0  0  0
 60132  1  0  0  0
 60133  1  0  0  0
 61134  1  0  0  0
 61135  1  0  0  0
 61136  1  0  0  0
 62137  1  0  0  0
 62138  1  0  0  0
 62139  1  0  0  0
 63 65  1  0  0  0
 63140  1  0  0  0
 63141  1  0  0  0
 63142  1  0  0  0
 64143  1  0  0  0
 65144  1  0  0  0
 68 82  1  0  0  0
 71 73  2  0  0  0
 71 74  1  0  0  0
 71145  1  0  0  0
 72 73  1  0  0  0
 72 84  2  0  0  0
 72146  1  0  0  0
 73 83  1  0  0  0
 74 75  2  0  0  0
 74 76  1  0  0  0
 75 79  1  0  0  0
 75 84  1  0  0  0
 76147  1  0  0  0
 76148  1  0  0  0
 76149  1  0  0  0
 77150  1  0  0  0
 77151  1  0  0  0
 77152  1  0  0  0
 77 83  1  0  0  0
 78 83  1  0  0  0
 78153  1  0  0  0
 78154  1  0  0  0
 78155  1  0  0  0
 79 80  1  0  0  0
 79156  1  0  0  0
 79157  1  0  0  0
 80 82  1  0  0  0
 80158  1  0  0  0
 80159  1  0  0  0
 81 83  1  0  0  0
 81 85  1  0  0  0
 81160  1  0  0  0
 81161  1  0  0  0
 82162  1  0  0  0
 82163  1  0  0  0
 85164  1  0  0  0
M  ISO  4   1 100  68 101  82 101  85 100
M  END
> <chiral flag>
0

> <version>
0

> <s_m_source_file>
/data/baiqing/PycharmProjects/Reinvent-master-3.2/result/LINK_invent/BTK/process_docking_weight1_custom_sum_contain_oxygen_bond_distance_aromatic_linkinvent_7_9_3/rearranged_h_0085.sdf

> <i_m_source_file_index>
68

> <r_mmod_Potential_Energy-OPLS-2005>
-218.683334350586

> <r_mmod_Stretch_Energy-OPLS-2005>
47.3553619384766

> <r_mmod_Bend_Energy-OPLS-2005>
117.329277038574

> <r_mmod_Torsional_Energy-OPLS-2005>
246.576736450195

> <r_mmod_Improper_Torsional_Energy-OPLS-2005>
4.48204040527344

> <r_mmod_Van_der_Waal_Energy-OPLS-2005>
175.050003051758

> <r_mmod_Electrostatic_Energy-OPLS-2005>
-616.505981445312

> <r_mmod_Solvation_Energy-OPLS-2005>
-215.087249755859

> <b_mmod_Minimization_Converged-OPLS-2005>
0

> <r_mmod_RMS_Derivative-OPLS-2005>
4.60980224609375

$$$$
71
                    3D
 Structure written by MMmdl.
163171  0  0  1  0            999 V2000
  -30.6639  -14.5965   20.5228 C   0  0  0  0  0  0
  -30.4277  -12.3751   19.4396 C   0  0  0  0  0  0
  -29.4980  -12.5014   18.2145 C   0  0  0  0  0  0
  -28.0220  -12.3466   18.6318 C   0  0  0  0  0  0
  -27.6508  -13.2199   19.8608 C   0  0  2  0  0  0
  -28.6968  -13.0759   20.9875 C   0  0  0  0  0  0
  -25.2544  -13.8172   20.5695 C   0  0  0  0  0  0
  -24.1815  -13.0426   20.9180 C   0  0  0  0  0  0
  -24.6396  -11.6905   20.8733 C   0  0  0  0  0  0
  -23.9070  -10.4287   21.0405 C   0  0  0  0  0  0
  -24.3620   -9.4203   21.9186 C   0  0  0  0  0  0
  -23.6295   -8.2241   22.0756 C   0  0  0  0  0  0
  -22.4275   -8.0280   21.3547 C   0  0  0  0  0  0
  -21.9913   -9.0252   20.4647 C   0  0  0  0  0  0
  -22.7244  -10.2132   20.3056 C   0  0  0  0  0  0
  -21.6853   -6.0737   22.5280 C   0  0  0  0  0  0
  -21.4015   -6.5639   23.8213 C   0  0  0  0  0  0
  -21.3658   -5.6791   24.9175 C   0  0  0  0  0  0
  -21.6042   -4.3055   24.7227 C   0  0  0  0  0  0
  -21.8819   -3.8148   23.4346 C   0  0  0  0  0  0
  -21.9193   -4.6964   22.3403 C   0  0  0  0  0  0
  -22.7836  -13.5217   21.1855 C   0  0  0  0  0  0
  -22.1661   -4.2152   21.0982 F   0  0  0  0  0  0
  -21.5628   -3.4539   25.7739 F   0  0  0  0  0  0
  -30.0111  -13.4003   20.4142 N   0  0  0  0  0  0
  -26.2982  -12.9370   20.3329 N   0  0  0  0  0  0
  -25.9329  -11.6516   20.5764 N   0  0  0  0  0  0
  -22.0491  -12.8201   22.0412 N   0  0  0  0  0  0
  -25.4198  -15.1892   20.4161 N   0  0  0  0  0  0
  -31.8334  -14.7314   20.1550 O   0  0  0  0  0  0
  -21.6638   -6.8879   21.4241 O   0  0  0  0  0  0
  -22.3513  -14.5527   20.6717 O   0  0  0  0  0  0
  -24.6215  -31.8619   23.2038 C   0  0  0  0  0  0
  -25.9080  -32.4786   23.8357 C   0  0  1  0  0  0
  -27.2331  -27.3559   20.1214 C   0  0  0  0  0  0
  -25.5911  -33.8588   24.2292 N   0  0  0  0  0  0
  -23.4141  -30.4822   21.5453 C   0  0  2  0  0  0
  -24.8641  -28.9318   20.1210 C   0  0  0  0  0  0
  -22.7445  -29.4623   22.4959 C   0  0  0  0  0  0
  -18.0278  -28.1372   22.8473 C   0  0  0  0  0  0
  -24.1490  -36.7299   23.2639 C   0  0  0  0  0  0
  -25.9500  -30.8027   21.3696 C   0  0  0  0  0  0
  -26.0281  -29.4284   20.7224 C   0  0  0  0  0  0
  -27.2188  -28.6507   20.7137 C   0  0  0  0  0  0
  -26.0517  -26.8899   19.5135 C   0  0  0  0  0  0
  -24.8744  -27.6647   19.5117 C   0  0  0  0  0  0
  -23.6296  -29.8093   20.1634 C   0  0  0  0  0  0
  -25.4111  -36.3090   24.0334 C   0  0  1  0  0  0
  -20.5875  -28.3671   23.1293 C   0  0  2  0  0  0
  -20.6773  -26.9397   22.5410 C   0  0  0  0  0  0
  -19.5755  -26.6375   21.5203 C   0  0  0  0  0  0
  -18.1929  -26.7915   22.1608 C   0  0  0  0  0  0
  -19.1529  -28.8836   23.2877 C   0  0  0  0  0  0
  -18.9462  -30.1439   23.8892 C   0  0  0  0  0  0
  -17.6466  -30.6578   24.0556 C   0  0  0  0  0  0
  -25.9046  -34.9457   23.5111 C   0  0  0  0  0  0
  -16.5355  -29.9079   23.6326 C   0  0  0  0  0  0
  -16.7269  -28.6497   23.0336 C   0  0  0  0  0  0
  -26.4482  -31.6587   25.0714 C   0  0  0  0  0  0
  -25.3729  -31.3720   26.1455 C   0  0  0  0  0  0
  -27.0323  -30.3020   24.6132 C   0  0  0  0  0  0
  -27.6048  -32.4321   25.7478 C   0  0  0  0  0  0
  -27.5581  -37.1798   24.8459 C   0  0  0  0  0  0
  -21.4165  -29.3039   22.3702 N   0  0  0  0  0  0
  -26.4291  -37.3781   23.9410 N   0  0  0  0  0  0
  -24.6802  -31.0654   22.0972 N   0  0  0  0  0  0
  -23.4180  -28.8171   23.3034 O   0  0  0  0  0  0
  -28.3710  -26.5608   20.0523 O   0  0  0  0  0  0
  -26.5608  -34.8919   22.4675 O   0  0  0  0  0  0
  -23.5392  -32.1405   23.7390 O   0  0  0  0  0  0
  -27.0135  -20.7330   20.5255 C   0  0  0  0  0  0
  -28.3831  -20.3932   20.4833 C   0  0  0  0  0  0
  -26.0504  -19.7110   20.4727 C   0  0  0  0  0  0
  -28.6728  -18.9698   20.4159 C   0  0  0  0  0  0
  -23.9756  -19.7873   21.9272 C   0  0  0  0  0  0
  -29.4095  -21.5614   20.5484 C   0  0  0  0  0  0
  -24.5675  -20.0271   20.5321 C   0  0  0  0  0  0
  -30.0586  -18.2862   20.2950 C   0  0  0  0  0  0
  -29.0440  -22.9936   19.9401 C   0  0  0  0  0  0
  -28.0666  -23.9872   20.6884 C   0  0  0  0  0  0
  -30.3953  -17.0583   21.2457 C   0  0  0  0  0  0
  -28.5154  -25.4732   21.0141 C   0  0  0  0  0  0
  -26.3879  -18.4075   20.3783 N   0  0  0  0  0  0
  -27.6726  -18.0537   20.3400 N   0  0  0  0  0  0
  -29.9219  -15.6751   20.9041 N   0  0  0  0  0  0
  -31.4697  -12.4884   19.1350 H   0  0  0  0  0  0
  -30.3520  -11.3802   19.8814 H   0  0  0  0  0  0
  -29.7546  -11.7497   17.4668 H   0  0  0  0  0  0
  -29.6451  -13.4714   17.7366 H   0  0  0  0  0  0
  -27.8561  -11.2936   18.8636 H   0  0  0  0  0  0
  -27.3656  -12.5791   17.7923 H   0  0  0  0  0  0
  -27.6687  -14.2559   19.5216 H   0  0  0  0  0  0
  -28.7011  -12.0588   21.3819 H   0  0  0  0  0  0
  -28.4516  -13.7224   21.8316 H   0  0  0  0  0  0
  -25.2766   -9.5679   22.4760 H   0  0  0  0  0  0
  -24.0003   -7.4631   22.7476 H   0  0  0  0  0  0
  -21.0844   -8.8774   19.8953 H   0  0  0  0  0  0
  -22.3706  -10.9672   19.6164 H   0  0  0  0  0  0
  -21.2006   -7.6147   23.9719 H   0  0  0  0  0  0
  -21.1480   -6.0523   25.9079 H   0  0  0  0  0  0
  -22.0599   -2.7612   23.2848 H   0  0  0  0  0  0
  -22.4109  -11.9852   22.4778 H   0  0  0  0  0  0
  -21.1116  -13.1226   22.2642 H   0  0  0  0  0  0
  -24.6569  -15.8410   20.5608 H   0  0  0  0  0  0
  -26.2788  -15.6646   20.1614 H   0  0  0  0  0  0
  -26.7145  -32.5480   23.1110 H   0  0  0  0  0  0
  -25.0069  -33.9737   25.0441 H   0  0  0  0  0  0
  -22.7058  -31.3004   21.3993 H   0  0  0  0  0  0
  -23.3749  -35.9633   23.3302 H   0  0  0  0  0  0
  -24.3578  -36.8918   22.2051 H   0  0  0  0  0  0
  -23.7252  -37.6506   23.6662 H   0  0  0  0  0  0
  -26.0715  -31.5621   20.5961 H   0  0  0  0  0  0
  -26.8339  -30.8581   21.9929 H   0  0  0  0  0  0
  -28.1221  -29.0352   21.1661 H   0  0  0  0  0  0
  -26.0441  -25.9206   19.0346 H   0  0  0  0  0  0
  -23.9818  -27.2777   19.0402 H   0  0  0  0  0  0
  -23.7460  -30.5819   19.4028 H   0  0  0  0  0  0
  -22.7514  -29.2344   19.8637 H   0  0  0  0  0  0
  -25.1288  -36.1942   25.0826 H   0  0  0  0  0  0
  -20.9952  -28.3245   24.1421 H   0  0  0  0  0  0
  -20.5665  -26.2278   23.3606 H   0  0  0  0  0  0
  -21.6647  -26.7421   22.1216 H   0  0  0  0  0  0
  -19.6924  -25.6284   21.1238 H   0  0  0  0  0  0
  -19.6710  -27.3179   20.6732 H   0  0  0  0  0  0
  -17.4202  -26.6653   21.4009 H   0  0  0  0  0  0
  -18.0330  -26.0045   22.8994 H   0  0  0  0  0  0
  -19.7939  -30.7247   24.2264 H   0  0  0  0  0  0
  -17.5025  -31.6259   24.5155 H   0  0  0  0  0  0
  -15.5357  -30.2984   23.7657 H   0  0  0  0  0  0
  -15.8662  -28.0828   22.7048 H   0  0  0  0  0  0
  -24.5914  -30.7043   25.7806 H   0  0  0  0  0  0
  -24.8899  -32.2880   26.4866 H   0  0  0  0  0  0
  -25.8065  -30.8927   27.0240 H   0  0  0  0  0  0
  -26.2883  -29.6775   24.1172 H   0  0  0  0  0  0
  -27.4064  -29.7267   25.4610 H   0  0  0  0  0  0
  -27.8729  -30.4325   23.9313 H   0  0  0  0  0  0
  -27.2662  -33.3626   26.2046 H   0  0  0  0  0  0
  -28.3859  -32.6874   25.0304 H   0  0  0  0  0  0
  -28.0713  -31.8452   26.5398 H   0  0  0  0  0  0
  -28.2592  -38.0099   24.7507 H   0  0  0  0  0  0
  -28.1087  -36.2632   24.6285 H   0  0  0  0  0  0
  -27.2299  -37.1449   25.8861 H   0  0  0  0  0  0
  -20.9348  -29.8766   21.6914 H   0  0  0  0  0  0
  -26.0175  -38.2858   24.1411 H   0  0  0  0  0  0
  -26.6861  -21.7562   20.5998 H   0  0  0  0  0  0
  -22.9114  -20.0216   21.9455 H   0  0  0  0  0  0
  -24.4693  -20.4089   22.6747 H   0  0  0  0  0  0
  -24.0922  -18.7457   22.2287 H   0  0  0  0  0  0
  -30.3018  -21.2197   20.0239 H   0  0  0  0  0  0
  -29.7164  -21.6808   21.5877 H   0  0  0  0  0  0
  -24.0450  -19.4161   19.7953 H   0  0  0  0  0  0
  -24.4069  -21.0642   20.2358 H   0  0  0  0  0  0
  -30.8070  -19.0537   20.4862 H   0  0  0  0  0  0
  -30.2076  -17.9936   19.2554 H   0  0  0  0  0  0
  -28.6951  -22.8613   18.9158 H   0  0  0  0  0  0
  -29.9896  -23.5265   19.8345 H   0  0  0  0  0  0
  -27.8505  -23.5259   21.6528 H   0  0  0  0  0  0
  -27.1059  -24.0136   20.1742 H   0  0  0  0  0  0
  -30.0547  -17.2932   22.2544 H   0  0  0  0  0  0
  -31.4824  -17.0109   21.3275 H   0  0  0  0  0  0
  -29.5661  -25.4504   21.3044 H   0  0  0  0  0  0
  -27.9927  -25.7787   21.9226 H   0  0  0  0  0  0
  -28.9474  -15.4880   21.0900 H   0  0  0  0  0  0
  1 25  1  0  0  0
  1 30  2  0  0  0
  1 85  1  0  0  0
  2  3  1  0  0  0
  2 25  1  0  0  0
  2 86  1  0  0  0
  2 87  1  0  0  0
  3  4  1  0  0  0
  3 88  1  0  0  0
  3 89  1  0  0  0
  4  5  1  0  0  0
  4 90  1  0  0  0
  4 91  1  0  0  0
  5  6  1  0  0  0
  5 26  1  0  0  0
  5 92  1  0  0  0
  6 25  1  0  0  0
  6 93  1  0  0  0
  6 94  1  0  0  0
  7  8  2  0  0  0
  7 26  1  0  0  0
  7 29  1  0  0  0
  8  9  1  0  0  0
  8 22  1  0  0  0
  9 10  1  0  0  0
  9 27  2  0  0  0
 10 11  2  0  0  0
 10 15  1  0  0  0
 11 12  1  0  0  0
 11 95  1  0  0  0
 12 13  2  0  0  0
 12 96  1  0  0  0
 13 14  1  0  0  0
 13 31  1  0  0  0
 14 15  2  0  0  0
 14 97  1  0  0  0
 15 98  1  0  0  0
 16 17  2  0  0  0
 16 21  1  0  0  0
 16 31  1  0  0  0
 17 18  1  0  0  0
 17 99  1  0  0  0
 18 19  2  0  0  0
 18100  1  0  0  0
 19 20  1  0  0  0
 19 24  1  0  0  0
 20 21  2  0  0  0
 20101  1  0  0  0
 21 23  1  0  0  0
 22 28  1  0  0  0
 22 32  2  0  0  0
 26 27  1  0  0  0
 28102  1  0  0  0
 28103  1  0  0  0
 29104  1  0  0  0
 29105  1  0  0  0
 33 34  1  0  0  0
 33 66  1  0  0  0
 33 70  2  0  0  0
 34 36  1  0  0  0
 34 59  1  0  0  0
 34106  1  0  0  0
 35 44  2  0  0  0
 35 45  1  0  0  0
 35 68  1  0  0  0
 36 56  1  0  0  0
 36107  1  0  0  0
 37 39  1  0  0  0
 37 47  1  0  0  0
 37 66  1  0  0  0
 37108  1  0  0  0
 38 43  2  0  0  0
 38 46  1  0  0  0
 38 47  1  0  0  0
 39 64  1  0  0  0
 39 67  2  0  0  0
 40 52  1  0  0  0
 40 53  2  0  0  0
 40 58  1  0  0  0
 41109  1  0  0  0
 41110  1  0  0  0
 41111  1  0  0  0
 41 48  1  0  0  0
 42 43  1  0  0  0
 42 66  1  0  0  0
 42112  1  0  0  0
 42113  1  0  0  0
 43 44  1  0  0  0
 44114  1  0  0  0
 45 46  2  0  0  0
 45115  1  0  0  0
 46116  1  0  0  0
 47117  1  0  0  0
 47118  1  0  0  0
 48 56  1  0  0  0
 48 65  1  0  0  0
 48119  1  0  0  0
 49 50  1  0  0  0
 49 53  1  0  0  0
 49 64  1  0  0  0
 49120  1  0  0  0
 50 51  1  0  0  0
 50121  1  0  0  0
 50122  1  0  0  0
 51 52  1  0  0  0
 51123  1  0  0  0
 51124  1  0  0  0
 52125  1  0  0  0
 52126  1  0  0  0
 53 54  1  0  0  0
 54 55  2  0  0  0
 54127  1  0  0  0
 55 57  1  0  0  0
 55128  1  0  0  0
 56 69  2  0  0  0
 57 58  2  0  0  0
 57129  1  0  0  0
 58130  1  0  0  0
 59 60  1  0  0  0
 59 61  1  0  0  0
 59 62  1  0  0  0
 60131  1  0  0  0
 60132  1  0  0  0
 60133  1  0  0  0
 61134  1  0  0  0
 61135  1  0  0  0
 61136  1  0  0  0
 62137  1  0  0  0
 62138  1  0  0  0
 62139  1  0  0  0
 63 65  1  0  0  0
 63140  1  0  0  0
 63141  1  0  0  0
 63142  1  0  0  0
 64143  1  0  0  0
 65144  1  0  0  0
 68 82  1  0  0  0
 71 72  2  0  0  0
 71 73  1  0  0  0
 71145  1  0  0  0
 72 74  1  0  0  0
 72 76  1  0  0  0
 73 77  1  0  0  0
 73 83  2  0  0  0
 74 78  1  0  0  0
 74 84  2  0  0  0
 75 77  1  0  0  0
 75146  1  0  0  0
 75147  1  0  0  0
 75148  1  0  0  0
 76 79  1  0  0  0
 76149  1  0  0  0
 76150  1  0  0  0
 77151  1  0  0  0
 77152  1  0  0  0
 78 81  1  0  0  0
 78153  1  0  0  0
 78154  1  0  0  0
 79 80  1  0  0  0
 79155  1  0  0  0
 79156  1  0  0  0
 80 82  1  0  0  0
 80157  1  0  0  0
 80158  1  0  0  0
 81 85  1  0  0  0
 81159  1  0  0  0
 81160  1  0  0  0
 82161  1  0  0  0
 82162  1  0  0  0
 83 84  1  0  0  0
 85163  1  0  0  0
M  ISO  4   1 100  68 101  82 101  85 100
M  END
> <chiral flag>
0

> <version>
0

> <s_m_source_file>
/data/baiqing/PycharmProjects/Reinvent-master-3.2/result/LINK_invent/BTK/process_docking_weight1_custom_sum_contain_oxygen_bond_distance_aromatic_linkinvent_7_9_3/rearranged_h_0085.sdf

> <i_m_source_file_index>
69

> <r_mmod_Potential_Energy-OPLS-2005>
63.2631378173828

> <r_mmod_Stretch_Energy-OPLS-2005>
70.8205261230469

> <r_mmod_Bend_Energy-OPLS-2005>
161.446624755859

> <r_mmod_Torsional_Energy-OPLS-2005>
240.290313720703

> <r_mmod_Improper_Torsional_Energy-OPLS-2005>
3.65494704246521

> <r_mmod_Van_der_Waal_Energy-OPLS-2005>
133.136016845703

> <r_mmod_Electrostatic_Energy-OPLS-2005>
-370.302917480469

> <r_mmod_Solvation_Energy-OPLS-2005>
-209.139846801758

> <b_mmod_Minimization_Converged-OPLS-2005>
0

> <r_mmod_RMS_Derivative-OPLS-2005>
0.976138770580292

$$$$
72
                    3D
 Structure written by MMmdl.
164172  0  0  1  0            999 V2000
  -30.5868  -14.7570   20.4450 C   0  0  0  0  0  0
  -30.4365  -12.4646   19.4686 C   0  0  0  0  0  0
  -29.5100  -12.5176   18.2324 C   0  0  0  0  0  0
  -28.0368  -12.3395   18.6460 C   0  0  0  0  0  0
  -27.6431  -13.2308   19.8529 C   0  0  2  0  0  0
  -28.6886  -13.1475   20.9873 C   0  0  0  0  0  0
  -25.2522  -13.8144   20.5714 C   0  0  0  0  0  0
  -24.1801  -13.0389   20.9205 C   0  0  0  0  0  0
  -24.6397  -11.6883   20.8727 C   0  0  0  0  0  0
  -23.9068  -10.4260   21.0388 C   0  0  0  0  0  0
  -24.3613   -9.4171   21.9162 C   0  0  0  0  0  0
  -23.6278   -8.2222   22.0747 C   0  0  0  0  0  0
  -22.4247   -8.0272   21.3551 C   0  0  0  0  0  0
  -21.9881   -9.0247   20.4658 C   0  0  0  0  0  0
  -22.7238  -10.2110   20.3054 C   0  0  0  0  0  0
  -21.6841   -6.0707   22.5273 C   0  0  0  0  0  0
  -21.4011   -6.5614   23.8211 C   0  0  0  0  0  0
  -21.3663   -5.6780   24.9182 C   0  0  0  0  0  0
  -21.6037   -4.3038   24.7237 C   0  0  0  0  0  0
  -21.8823   -3.8119   23.4364 C   0  0  0  0  0  0
  -21.9196   -4.6933   22.3413 C   0  0  0  0  0  0
  -22.7831  -13.5196   21.1860 C   0  0  0  0  0  0
  -22.1653   -4.2112   21.0994 F   0  0  0  0  0  0
  -21.5633   -3.4532   25.7758 F   0  0  0  0  0  0
  -29.9884  -13.5154   20.4137 N   0  0  0  0  0  0
  -26.2948  -12.9377   20.3272 N   0  0  0  0  0  0
  -25.9340  -11.6509   20.5729 N   0  0  0  0  0  0
  -22.0441  -12.8192   22.0396 N   0  0  0  0  0  0
  -25.4201  -15.1846   20.4191 N   0  0  0  0  0  0
  -31.7622  -14.8759   20.0907 O   0  0  0  0  0  0
  -21.6631   -6.8854   21.4235 O   0  0  0  0  0  0
  -22.3555  -14.5535   20.6737 O   0  0  0  0  0  0
  -24.6304  -31.8558   23.1969 C   0  0  0  0  0  0
  -25.9131  -32.4762   23.8321 C   0  0  1  0  0  0
  -27.2275  -27.2660   20.1470 C   0  0  0  0  0  0
  -25.5930  -33.8564   24.2257 N   0  0  0  0  0  0
  -23.4277  -30.4749   21.5399 C   0  0  2  0  0  0
  -24.8777  -28.9173   20.1157 C   0  0  0  0  0  0
  -22.7493  -29.4605   22.4920 C   0  0  0  0  0  0
  -18.0281  -28.1395   22.8476 C   0  0  0  0  0  0
  -24.1485  -36.7287   23.2639 C   0  0  0  0  0  0
  -25.9711  -30.7727   21.3734 C   0  0  0  0  0  0
  -26.0474  -29.3933   20.7212 C   0  0  0  0  0  0
  -27.2277  -28.5824   20.7188 C   0  0  0  0  0  0
  -26.0379  -26.8553   19.5085 C   0  0  0  0  0  0
  -24.8776  -27.6561   19.4990 C   0  0  0  0  0  0
  -23.6466  -29.8030   20.1582 C   0  0  0  0  0  0
  -25.4109  -36.3080   24.0330 C   0  0  1  0  0  0
  -20.5886  -28.3700   23.1272 C   0  0  2  0  0  0
  -20.6770  -26.9416   22.5411 C   0  0  0  0  0  0
  -19.5756  -26.6388   21.5207 C   0  0  0  0  0  0
  -18.1934  -26.7934   22.1618 C   0  0  0  0  0  0
  -19.1532  -28.8859   23.2871 C   0  0  0  0  0  0
  -18.9460  -30.1458   23.8892 C   0  0  0  0  0  0
  -17.6462  -30.6589   24.0566 C   0  0  0  0  0  0
  -25.9053  -34.9451   23.5103 C   0  0  0  0  0  0
  -16.5357  -29.9093   23.6339 C   0  0  0  0  0  0
  -16.7264  -28.6518   23.0349 C   0  0  0  0  0  0
  -26.4505  -31.6575   25.0701 C   0  0  0  0  0  0
  -25.3723  -31.3735   26.1419 C   0  0  0  0  0  0
  -27.0333  -30.2990   24.6164 C   0  0  0  0  0  0
  -27.6064  -32.4304   25.7474 C   0  0  0  0  0  0
  -27.5582  -37.1801   24.8467 C   0  0  0  0  0  0
  -21.4205  -29.3047   22.3653 N   0  0  0  0  0  0
  -26.4291  -37.3769   23.9413 N   0  0  0  0  0  0
  -24.6950  -31.0519   22.0945 N   0  0  0  0  0  0
  -23.4200  -28.8140   23.3016 O   0  0  0  0  0  0
  -28.3335  -26.3884   20.1643 O   0  0  0  0  0  0
  -26.5615  -34.8927   22.4670 O   0  0  0  0  0  0
  -23.5451  -32.1377   23.7264 O   0  0  0  0  0  0
  -27.0769  -21.5743   19.4398 C   0  0  0  0  0  0
  -26.0570  -20.7082   19.0462 C   0  0  0  0  0  0
  -28.2568  -21.0866   20.0488 C   0  0  0  0  0  0
  -26.2195  -19.3429   19.2764 C   0  0  0  0  0  0
  -28.3922  -19.6137   20.1520 C   0  0  0  0  0  0
  -25.3165  -17.5281   17.7500 C   0  0  0  0  0  0
  -29.1555  -18.3878   22.2796 C   0  0  0  0  0  0
  -29.1798  -22.2533   20.5838 C   0  0  0  0  0  0
  -25.0837  -18.3817   19.0001 C   0  0  0  0  0  0
  -29.0737  -23.7786   19.9871 C   0  0  0  0  0  0
  -29.9330  -17.2902   20.0425 C   0  0  0  0  0  0
  -28.1429  -24.9570   20.5931 C   0  0  0  0  0  0
  -29.5005  -18.6767   20.8104 C   0  0  1  0  0  0
  -27.3505  -18.8256   19.7897 N   0  0  0  0  0  0
  -29.7896  -15.8778   20.6398 N   0  0  0  0  0  0
  -31.4734  -12.6027   19.1588 H   0  0  0  0  0  0
  -30.3993  -11.4819   19.9401 H   0  0  0  0  0  0
  -29.7905  -11.7454   17.5139 H   0  0  0  0  0  0
  -29.6339  -13.4717   17.7192 H   0  0  0  0  0  0
  -27.8907  -11.2907   18.9007 H   0  0  0  0  0  0
  -27.3805  -12.5409   17.7983 H   0  0  0  0  0  0
  -27.6395  -14.2547   19.4815 H   0  0  0  0  0  0
  -28.7285  -12.1391   21.4025 H   0  0  0  0  0  0
  -28.4262  -13.8098   21.8132 H   0  0  0  0  0  0
  -25.2757   -9.5631   22.4729 H   0  0  0  0  0  0
  -23.9965   -7.4612   22.7473 H   0  0  0  0  0  0
  -21.0797   -8.8793   19.8985 H   0  0  0  0  0  0
  -22.3701  -10.9652   19.6164 H   0  0  0  0  0  0
  -21.1993   -7.6121   23.9705 H   0  0  0  0  0  0
  -21.1480   -6.0509   25.9085 H   0  0  0  0  0  0
  -22.0597   -2.7577   23.2894 H   0  0  0  0  0  0
  -22.4005  -11.9823   22.4763 H   0  0  0  0  0  0
  -21.1040  -13.1216   22.2521 H   0  0  0  0  0  0
  -24.6390  -15.8206   20.5201 H   0  0  0  0  0  0
  -26.2558  -15.6356   20.0657 H   0  0  0  0  0  0
  -26.7185  -32.5434   23.1053 H   0  0  0  0  0  0
  -25.0073  -33.9688   25.0399 H   0  0  0  0  0  0
  -22.7233  -31.2953   21.3908 H   0  0  0  0  0  0
  -23.3754  -35.9616   23.3301 H   0  0  0  0  0  0
  -24.3573  -36.8904   22.2055 H   0  0  0  0  0  0
  -23.7224  -37.6487   23.6652 H   0  0  0  0  0  0
  -26.0993  -31.5286   20.5981 H   0  0  0  0  0  0
  -26.8518  -30.8322   22.0017 H   0  0  0  0  0  0
  -28.1267  -28.9433   21.1965 H   0  0  0  0  0  0
  -25.9930  -25.8928   19.0185 H   0  0  0  0  0  0
  -23.9826  -27.2869   19.0177 H   0  0  0  0  0  0
  -23.7754  -30.5770   19.4010 H   0  0  0  0  0  0
  -22.7657  -29.2347   19.8537 H   0  0  0  0  0  0
  -25.1284  -36.1938   25.0818 H   0  0  0  0  0  0
  -20.9977  -28.3286   24.1398 H   0  0  0  0  0  0
  -20.5665  -26.2307   23.3611 H   0  0  0  0  0  0
  -21.6640  -26.7443   22.1213 H   0  0  0  0  0  0
  -19.6930  -25.6300   21.1239 H   0  0  0  0  0  0
  -19.6706  -27.3190   20.6730 H   0  0  0  0  0  0
  -17.4205  -26.6665   21.4026 H   0  0  0  0  0  0
  -18.0353  -26.0071   22.9010 H   0  0  0  0  0  0
  -19.7933  -30.7261   24.2284 H   0  0  0  0  0  0
  -17.5019  -31.6270   24.5154 H   0  0  0  0  0  0
  -15.5360  -30.2998   23.7648 H   0  0  0  0  0  0
  -15.8669  -28.0826   22.7080 H   0  0  0  0  0  0
  -24.5912  -30.7057   25.7763 H   0  0  0  0  0  0
  -24.8898  -32.2906   26.4817 H   0  0  0  0  0  0
  -25.8054  -30.8953   27.0210 H   0  0  0  0  0  0
  -26.2913  -29.6753   24.1165 H   0  0  0  0  0  0
  -27.3988  -29.7240   25.4679 H   0  0  0  0  0  0
  -27.8801  -30.4256   23.9410 H   0  0  0  0  0  0
  -27.2684  -33.3614   26.2034 H   0  0  0  0  0  0
  -28.3893  -32.6841   25.0313 H   0  0  0  0  0  0
  -28.0698  -31.8425   26.5400 H   0  0  0  0  0  0
  -28.2604  -38.0092   24.7506 H   0  0  0  0  0  0
  -28.1074  -36.2631   24.6305 H   0  0  0  0  0  0
  -27.2307  -37.1457   25.8869 H   0  0  0  0  0  0
  -20.9390  -29.8769   21.6851 H   0  0  0  0  0  0
  -26.0187  -38.2852   24.1408 H   0  0  0  0  0  0
  -26.9018  -22.6296   19.3103 H   0  0  0  0  0  0
  -25.1417  -21.0977   18.6223 H   0  0  0  0  0  0
  -24.4651  -16.8740   17.5659 H   0  0  0  0  0  0
  -26.2026  -16.9043   17.8650 H   0  0  0  0  0  0
  -25.4573  -18.1587   16.8727 H   0  0  0  0  0  0
  -29.0372  -19.3144   22.8417 H   0  0  0  0  0  0
  -29.9429  -17.8067   22.7610 H   0  0  0  0  0  0
  -28.2262  -17.8255   22.3559 H   0  0  0  0  0  0
  -30.2011  -21.9110   20.4138 H   0  0  0  0  0  0
  -29.0719  -22.2912   21.6681 H   0  0  0  0  0  0
  -24.1534  -18.9414   18.8953 H   0  0  0  0  0  0
  -24.9460  -17.7525   19.8788 H   0  0  0  0  0  0
  -28.9326  -23.7330   18.9074 H   0  0  0  0  0  0
  -30.0831  -24.1783   20.0960 H   0  0  0  0  0  0
  -30.9785  -17.4049   19.7503 H   0  0  0  0  0  0
  -29.4112  -17.2666   19.0837 H   0  0  0  0  0  0
  -28.3045  -24.9665   21.6724 H   0  0  0  0  0  0
  -27.1022  -24.6554   20.4840 H   0  0  0  0  0  0
  -30.3972  -19.2994   20.8201 H   0  0  0  0  0  0
  -28.8674  -15.6662   20.9872 H   0  0  0  0  0  0
  1 25  1  0  0  0
  1 30  2  0  0  0
  1 85  1  0  0  0
  2  3  1  0  0  0
  2 25  1  0  0  0
  2 86  1  0  0  0
  2 87  1  0  0  0
  3  4  1  0  0  0
  3 88  1  0  0  0
  3 89  1  0  0  0
  4  5  1  0  0  0
  4 90  1  0  0  0
  4 91  1  0  0  0
  5  6  1  0  0  0
  5 26  1  0  0  0
  5 92  1  0  0  0
  6 25  1  0  0  0
  6 93  1  0  0  0
  6 94  1  0  0  0
  7  8  2  0  0  0
  7 26  1  0  0  0
  7 29  1  0  0  0
  8  9  1  0  0  0
  8 22  1  0  0  0
  9 10  1  0  0  0
  9 27  2  0  0  0
 10 11  2  0  0  0
 10 15  1  0  0  0
 11 12  1  0  0  0
 11 95  1  0  0  0
 12 13  2  0  0  0
 12 96  1  0  0  0
 13 14  1  0  0  0
 13 31  1  0  0  0
 14 15  2  0  0  0
 14 97  1  0  0  0
 15 98  1  0  0  0
 16 17  2  0  0  0
 16 21  1  0  0  0
 16 31  1  0  0  0
 17 18  1  0  0  0
 17 99  1  0  0  0
 18 19  2  0  0  0
 18100  1  0  0  0
 19 20  1  0  0  0
 19 24  1  0  0  0
 20 21  2  0  0  0
 20101  1  0  0  0
 21 23  1  0  0  0
 22 28  1  0  0  0
 22 32  2  0  0  0
 26 27  1  0  0  0
 28102  1  0  0  0
 28103  1  0  0  0
 29104  1  0  0  0
 29105  1  0  0  0
 33 34  1  0  0  0
 33 66  1  0  0  0
 33 70  2  0  0  0
 34 36  1  0  0  0
 34 59  1  0  0  0
 34106  1  0  0  0
 35 44  2  0  0  0
 35 45  1  0  0  0
 35 68  1  0  0  0
 36 56  1  0  0  0
 36107  1  0  0  0
 37 39  1  0  0  0
 37 47  1  0  0  0
 37 66  1  0  0  0
 37108  1  0  0  0
 38 43  2  0  0  0
 38 46  1  0  0  0
 38 47  1  0  0  0
 39 64  1  0  0  0
 39 67  2  0  0  0
 40 52  1  0  0  0
 40 53  2  0  0  0
 40 58  1  0  0  0
 41109  1  0  0  0
 41110  1  0  0  0
 41111  1  0  0  0
 41 48  1  0  0  0
 42 43  1  0  0  0
 42 66  1  0  0  0
 42112  1  0  0  0
 42113  1  0  0  0
 43 44  1  0  0  0
 44114  1  0  0  0
 45 46  2  0  0  0
 45115  1  0  0  0
 46116  1  0  0  0
 47117  1  0  0  0
 47118  1  0  0  0
 48 56  1  0  0  0
 48 65  1  0  0  0
 48119  1  0  0  0
 49 50  1  0  0  0
 49 53  1  0  0  0
 49 64  1  0  0  0
 49120  1  0  0  0
 50 51  1  0  0  0
 50121  1  0  0  0
 50122  1  0  0  0
 51 52  1  0  0  0
 51123  1  0  0  0
 51124  1  0  0  0
 52125  1  0  0  0
 52126  1  0  0  0
 53 54  1  0  0  0
 54 55  2  0  0  0
 54127  1  0  0  0
 55 57  1  0  0  0
 55128  1  0  0  0
 56 69  2  0  0  0
 57 58  2  0  0  0
 57129  1  0  0  0
 58130  1  0  0  0
 59 60  1  0  0  0
 59 61  1  0  0  0
 59 62  1  0  0  0
 60131  1  0  0  0
 60132  1  0  0  0
 60133  1  0  0  0
 61134  1  0  0  0
 61135  1  0  0  0
 61136  1  0  0  0
 62137  1  0  0  0
 62138  1  0  0  0
 62139  1  0  0  0
 63 65  1  0  0  0
 63140  1  0  0  0
 63141  1  0  0  0
 63142  1  0  0  0
 64143  1  0  0  0
 65144  1  0  0  0
 68 82  1  0  0  0
 71 72  2  0  0  0
 71 73  1  0  0  0
 71145  1  0  0  0
 72 74  1  0  0  0
 72146  1  0  0  0
 73 75  2  0  0  0
 73 78  1  0  0  0
 74 79  1  0  0  0
 74 84  2  0  0  0
 75 83  1  0  0  0
 75 84  1  0  0  0
 76 79  1  0  0  0
 76147  1  0  0  0
 76148  1  0  0  0
 76149  1  0  0  0
 77150  1  0  0  0
 77151  1  0  0  0
 77152  1  0  0  0
 77 83  1  0  0  0
 78 80  1  0  0  0
 78153  1  0  0  0
 78154  1  0  0  0
 79155  1  0  0  0
 79156  1  0  0  0
 80 82  1  0  0  0
 80157  1  0  0  0
 80158  1  0  0  0
 81 83  1  0  0  0
 81 85  1  0  0  0
 81159  1  0  0  0
 81160  1  0  0  0
 82161  1  0  0  0
 82162  1  0  0  0
 83163  1  0  0  0
 85164  1  0  0  0
M  ISO  4   1 100  68 101  82 101  85 100
M  END
> <chiral flag>
0

> <version>
0

> <s_m_source_file>
/data/baiqing/PycharmProjects/Reinvent-master-3.2/result/LINK_invent/BTK/process_docking_weight1_custom_sum_contain_oxygen_bond_distance_aromatic_linkinvent_7_9_3/rearranged_h_0085.sdf

> <i_m_source_file_index>
70

> <r_mmod_Potential_Energy-OPLS-2005>
60.3457984924316

> <r_mmod_Stretch_Energy-OPLS-2005>
140.915771484375

> <r_mmod_Bend_Energy-OPLS-2005>
209.984848022461

> <r_mmod_Torsional_Energy-OPLS-2005>
240.517135620117

> <r_mmod_Improper_Torsional_Energy-OPLS-2005>
7.52275848388672

> <r_mmod_Van_der_Waal_Energy-OPLS-2005>
130.519989013672

> <r_mmod_Electrostatic_Energy-OPLS-2005>
-550.321350097656

> <r_mmod_Solvation_Energy-OPLS-2005>
-203.016571044922

> <b_mmod_Minimization_Converged-OPLS-2005>
0

> <r_mmod_RMS_Derivative-OPLS-2005>
3.50461411476135

$$$$
73
                    3D
 Structure written by MMmdl.
174182  0  0  1  0            999 V2000
  -30.7688  -14.3819   20.6655 C   0  0  0  0  0  0
  -30.4086  -12.2901   19.4080 C   0  0  0  0  0  0
  -29.4863  -12.5319   18.1996 C   0  0  0  0  0  0
  -28.0095  -12.3786   18.6086 C   0  0  0  0  0  0
  -27.6604  -13.2002   19.8774 C   0  0  2  0  0  0
  -28.6990  -12.9621   21.0000 C   0  0  0  0  0  0
  -25.2580  -13.8156   20.5655 C   0  0  0  0  0  0
  -24.1838  -13.0434   20.9194 C   0  0  0  0  0  0
  -24.6379  -11.6896   20.8753 C   0  0  0  0  0  0
  -23.9049  -10.4288   21.0434 C   0  0  0  0  0  0
  -24.3611   -9.4202   21.9209 C   0  0  0  0  0  0
  -23.6304   -8.2223   22.0751 C   0  0  0  0  0  0
  -22.4290   -8.0261   21.3535 C   0  0  0  0  0  0
  -21.9911   -9.0226   20.4630 C   0  0  0  0  0  0
  -22.7224  -10.2114   20.3070 C   0  0  0  0  0  0
  -21.6844   -6.0723   22.5266 C   0  0  0  0  0  0
  -21.4007   -6.5627   23.8196 C   0  0  0  0  0  0
  -21.3674   -5.6789   24.9161 C   0  0  0  0  0  0
  -21.6053   -4.3049   24.7212 C   0  0  0  0  0  0
  -21.8825   -3.8135   23.4332 C   0  0  0  0  0  0
  -21.9190   -4.6955   22.3388 C   0  0  0  0  0  0
  -22.7853  -13.5235   21.1866 C   0  0  0  0  0  0
  -22.1665   -4.2147   21.0960 F   0  0  0  0  0  0
  -21.5647   -3.4522   25.7723 F   0  0  0  0  0  0
  -30.0390  -13.2506   20.4593 N   0  0  0  0  0  0
  -26.3015  -12.9307   20.3361 N   0  0  0  0  0  0
  -25.9303  -11.6471   20.5775 N   0  0  0  0  0  0
  -22.0496  -12.8218   22.0416 N   0  0  0  0  0  0
  -25.4234  -15.1856   20.4030 N   0  0  0  0  0  0
  -31.8488  -14.5936   20.1065 O   0  0  0  0  0  0
  -21.6651   -6.8859   21.4227 O   0  0  0  0  0  0
  -22.3534  -14.5545   20.6717 O   0  0  0  0  0  0
  -24.6117  -31.8676   23.2153 C   0  0  0  0  0  0
  -25.9028  -32.4818   23.8429 C   0  0  1  0  0  0
  -27.2320  -27.4634   20.0865 C   0  0  0  0  0  0
  -25.5926  -33.8624   24.2386 N   0  0  0  0  0  0
  -23.3977  -30.4971   21.5513 C   0  0  2  0  0  0
  -24.8453  -28.9666   20.1141 C   0  0  0  0  0  0
  -22.7389  -29.4697   22.4994 C   0  0  0  0  0  0
  -18.0271  -28.1409   22.8502 C   0  0  0  0  0  0
  -24.1482  -36.7306   23.2647 C   0  0  0  0  0  0
  -25.9244  -30.8425   21.3625 C   0  0  0  0  0  0
  -26.0030  -29.4784   20.7154 C   0  0  0  0  0  0
  -27.2010  -28.7303   20.7068 C   0  0  0  0  0  0
  -26.0680  -26.9689   19.4651 C   0  0  0  0  0  0
  -24.8728  -27.7081   19.4893 C   0  0  0  0  0  0
  -23.6048  -29.8285   20.1649 C   0  0  0  0  0  0
  -25.4094  -36.3122   24.0364 C   0  0  1  0  0  0
  -20.5863  -28.3684   23.1330 C   0  0  2  0  0  0
  -20.6793  -26.9432   22.5424 C   0  0  0  0  0  0
  -19.5769  -26.6418   21.5233 C   0  0  0  0  0  0
  -18.1930  -26.7966   22.1620 C   0  0  0  0  0  0
  -19.1520  -28.8862   23.2919 C   0  0  0  0  0  0
  -18.9462  -30.1482   23.8920 C   0  0  0  0  0  0
  -17.6463  -30.6613   24.0584 C   0  0  0  0  0  0
  -25.9019  -34.9479   23.5159 C   0  0  0  0  0  0
  -16.5350  -29.9117   23.6345 C   0  0  0  0  0  0
  -16.7254  -28.6539   23.0334 C   0  0  0  0  0  0
  -26.4485  -31.6571   25.0718 C   0  0  0  0  0  0
  -25.3783  -31.3609   26.1485 C   0  0  0  0  0  0
  -27.0323  -30.3045   24.6033 C   0  0  0  0  0  0
  -27.6097  -32.4247   25.7439 C   0  0  0  0  0  0
  -27.5581  -37.1794   24.8480 C   0  0  0  0  0  0
  -21.4117  -29.3045   22.3719 N   0  0  0  0  0  0
  -26.4284  -37.3800   23.9431 N   0  0  0  0  0  0
  -24.6633  -31.0823   22.1025 N   0  0  0  0  0  0
  -23.4164  -28.8248   23.3038 O   0  0  0  0  0  0
  -28.3749  -26.7029   20.0765 O   0  0  0  0  0  0
  -26.5544  -34.8933   22.4701 O   0  0  0  0  0  0
  -23.5327  -32.1420   23.7589 O   0  0  0  0  0  0
  -28.4143  -19.1580   19.3527 C   0  0  0  0  0  0
  -27.1876  -19.4957   18.8554 C   0  0  0  0  0  0
  -26.5883  -18.2364   18.5471 C   0  0  0  0  0  0
  -25.2393  -17.9628   17.9448 C   0  0  0  0  0  0
  -25.6097  -20.5510   21.0077 C   0  0  0  0  0  0
  -24.9965  -22.5412   19.6459 C   0  0  0  0  0  0
  -31.1674  -15.7867   22.6040 C   0  0  0  0  0  0
  -26.6158  -20.8798   18.6728 C   0  0  0  0  0  0
  -27.7762  -23.6676   20.0313 C   0  0  0  0  0  0
  -28.8742  -24.4087   20.8259 C   0  0  0  0  0  0
  -27.3170  -22.3465   20.6864 C   0  0  0  0  0  0
  -29.5853  -16.9514   19.7990 C   0  0  0  0  0  0
  -29.2613  -16.2512   21.1423 C   0  0  0  0  0  0
  -28.4974  -25.8534   21.2185 C   0  0  0  0  0  0
  -26.1528  -21.5787   19.9896 C   0  0  0  0  0  0
  -27.3751  -17.2170   18.8569 N   0  0  0  0  0  0
  -28.4914  -17.7860   19.3601 N   0  0  0  0  0  0
  -30.2789  -15.2696   21.5598 N   0  0  0  0  0  0
  -31.4549  -12.3718   19.1106 H   0  0  0  0  0  0
  -30.2896  -11.2716   19.7796 H   0  0  0  0  0  0
  -29.7311  -11.8389   17.3945 H   0  0  0  0  0  0
  -29.6550  -13.5333   17.8015 H   0  0  0  0  0  0
  -27.8139  -11.3193   18.7840 H   0  0  0  0  0  0
  -27.3612  -12.6712   17.7827 H   0  0  0  0  0  0
  -27.7073  -14.2473   19.5844 H   0  0  0  0  0  0
  -28.6644  -11.9255   21.3394 H   0  0  0  0  0  0
  -28.4561  -13.5526   21.8838 H   0  0  0  0  0  0
  -25.2742   -9.5675   22.4800 H   0  0  0  0  0  0
  -24.0017   -7.4600   22.7441 H   0  0  0  0  0  0
  -21.0853   -8.8718   19.8914 H   0  0  0  0  0  0
  -22.3680  -10.9657   19.6188 H   0  0  0  0  0  0
  -21.1997   -7.6140   23.9698 H   0  0  0  0  0  0
  -21.1514   -6.0517   25.9071 H   0  0  0  0  0  0
  -22.0608   -2.7599   23.2816 H   0  0  0  0  0  0
  -22.4115  -11.9866   22.4783 H   0  0  0  0  0  0
  -21.1092  -13.1180   22.2614 H   0  0  0  0  0  0
  -24.6399  -15.8206   20.4960 H   0  0  0  0  0  0
  -26.2421  -15.6358   19.9994 H   0  0  0  0  0  0
  -26.7086  -32.5550   23.1184 H   0  0  0  0  0  0
  -25.0121  -33.9783   25.0566 H   0  0  0  0  0  0
  -22.6879  -31.3150   21.4127 H   0  0  0  0  0  0
  -23.3767  -35.9613   23.3284 H   0  0  0  0  0  0
  -24.3623  -36.8931   22.2082 H   0  0  0  0  0  0
  -23.7200  -37.6504   23.6636 H   0  0  0  0  0  0
  -26.0263  -31.6028   20.5871 H   0  0  0  0  0  0
  -26.8194  -30.9067   21.9695 H   0  0  0  0  0  0
  -28.0946  -29.1210   21.1736 H   0  0  0  0  0  0
  -26.0795  -26.0195   18.9497 H   0  0  0  0  0  0
  -23.9859  -27.3134   19.0114 H   0  0  0  0  0  0
  -23.7069  -30.6022   19.4026 H   0  0  0  0  0  0
  -22.7307  -29.2425   19.8721 H   0  0  0  0  0  0
  -25.1260  -36.2005   25.0854 H   0  0  0  0  0  0
  -20.9950  -28.3247   24.1453 H   0  0  0  0  0  0
  -20.5799  -26.2266   23.3592 H   0  0  0  0  0  0
  -21.6643  -26.7535   22.1154 H   0  0  0  0  0  0
  -19.6936  -25.6345   21.1223 H   0  0  0  0  0  0
  -19.6736  -27.3264   20.6802 H   0  0  0  0  0  0
  -17.4231  -26.6748   21.3997 H   0  0  0  0  0  0
  -18.0302  -26.0108   22.9010 H   0  0  0  0  0  0
  -19.7929  -30.7296   24.2289 H   0  0  0  0  0  0
  -17.5013  -31.6295   24.5190 H   0  0  0  0  0  0
  -15.5353  -30.3022   23.7697 H   0  0  0  0  0  0
  -15.8640  -28.0887   22.7003 H   0  0  0  0  0  0
  -24.6005  -30.6886   25.7835 H   0  0  0  0  0  0
  -24.8906  -32.2723   26.4941 H   0  0  0  0  0  0
  -25.8193  -30.8802   27.0224 H   0  0  0  0  0  0
  -26.2831  -29.6771   24.1189 H   0  0  0  0  0  0
  -27.4282  -29.7305   25.4422 H   0  0  0  0  0  0
  -27.8572  -30.4433   23.9038 H   0  0  0  0  0  0
  -27.2783  -33.3571   26.2002 H   0  0  0  0  0  0
  -28.3891  -32.6744   25.0223 H   0  0  0  0  0  0
  -28.0766  -31.8358   26.5350 H   0  0  0  0  0  0
  -28.2585  -38.0107   24.7551 H   0  0  0  0  0  0
  -28.1081  -36.2646   24.6232 H   0  0  0  0  0  0
  -27.2310  -37.1358   25.8886 H   0  0  0  0  0  0
  -20.9285  -29.8695   21.6875 H   0  0  0  0  0  0
  -26.0189  -38.2879   24.1446 H   0  0  0  0  0  0
  -29.2276  -19.7737   19.7126 H   0  0  0  0  0  0
  -24.4467  -18.4301   18.5272 H   0  0  0  0  0  0
  -25.0256  -16.8959   17.8997 H   0  0  0  0  0  0
  -25.1777  -18.3529   16.9292 H   0  0  0  0  0  0
  -24.8514  -19.9090   20.5599 H   0  0  0  0  0  0
  -25.1465  -21.0471   21.8604 H   0  0  0  0  0  0
  -26.3957  -19.9074   21.4063 H   0  0  0  0  0  0
  -24.0955  -21.9931   19.3669 H   0  0  0  0  0  0
  -25.2442  -23.1931   18.8061 H   0  0  0  0  0  0
  -24.7382  -23.1785   20.4919 H   0  0  0  0  0  0
  -30.5978  -16.1057   23.4767 H   0  0  0  0  0  0
  -31.7375  -16.6421   22.2380 H   0  0  0  0  0  0
  -31.8759  -15.0280   22.9417 H   0  0  0  0  0  0
  -25.7543  -20.8013   18.0069 H   0  0  0  0  0  0
  -27.3133  -21.5158   18.1283 H   0  0  0  0  0  0
  -28.1213  -23.4994   19.0111 H   0  0  0  0  0  0
  -26.9157  -24.3233   19.9532 H   0  0  0  0  0  0
  -29.8073  -24.4084   20.2616 H   0  0  0  0  0  0
  -29.0911  -23.8617   21.7435 H   0  0  0  0  0  0
  -26.9999  -22.5906   21.7022 H   0  0  0  0  0  0
  -28.1742  -21.6838   20.8080 H   0  0  0  0  0  0
  -29.7876  -16.2453   18.9932 H   0  0  0  0  0  0
  -30.4769  -17.5709   19.9053 H   0  0  0  0  0  0
  -28.2908  -15.7630   21.0897 H   0  0  0  0  0  0
  -29.1404  -17.0188   21.9076 H   0  0  0  0  0  0
  -29.2712  -26.2679   21.8650 H   0  0  0  0  0  0
  -27.5849  -25.8330   21.8208 H   0  0  0  0  0  0
  1 25  1  0  0  0
  1 30  2  0  0  0
  1 88  1  0  0  0
  2  3  1  0  0  0
  2 25  1  0  0  0
  2 89  1  0  0  0
  2 90  1  0  0  0
  3  4  1  0  0  0
  3 91  1  0  0  0
  3 92  1  0  0  0
  4  5  1  0  0  0
  4 93  1  0  0  0
  4 94  1  0  0  0
  5  6  1  0  0  0
  5 26  1  0  0  0
  5 95  1  0  0  0
  6 25  1  0  0  0
  6 96  1  0  0  0
  6 97  1  0  0  0
  7  8  2  0  0  0
  7 26  1  0  0  0
  7 29  1  0  0  0
  8  9  1  0  0  0
  8 22  1  0  0  0
  9 10  1  0  0  0
  9 27  2  0  0  0
 10 11  2  0  0  0
 10 15  1  0  0  0
 11 12  1  0  0  0
 11 98  1  0  0  0
 12 13  2  0  0  0
 12 99  1  0  0  0
 13 14  1  0  0  0
 13 31  1  0  0  0
 14 15  2  0  0  0
 14100  1  0  0  0
 15101  1  0  0  0
 16 17  2  0  0  0
 16 21  1  0  0  0
 16 31  1  0  0  0
 17 18  1  0  0  0
 17102  1  0  0  0
 18 19  2  0  0  0
 18103  1  0  0  0
 19 20  1  0  0  0
 19 24  1  0  0  0
 20 21  2  0  0  0
 20104  1  0  0  0
 21 23  1  0  0  0
 22 28  1  0  0  0
 22 32  2  0  0  0
 26 27  1  0  0  0
 28105  1  0  0  0
 28106  1  0  0  0
 29107  1  0  0  0
 29108  1  0  0  0
 33 34  1  0  0  0
 33 66  1  0  0  0
 33 70  2  0  0  0
 34 36  1  0  0  0
 34 59  1  0  0  0
 34109  1  0  0  0
 35 44  2  0  0  0
 35 45  1  0  0  0
 35 68  1  0  0  0
 36 56  1  0  0  0
 36110  1  0  0  0
 37 39  1  0  0  0
 37 47  1  0  0  0
 37 66  1  0  0  0
 37111  1  0  0  0
 38 43  2  0  0  0
 38 46  1  0  0  0
 38 47  1  0  0  0
 39 64  1  0  0  0
 39 67  2  0  0  0
 40 52  1  0  0  0
 40 53  2  0  0  0
 40 58  1  0  0  0
 41112  1  0  0  0
 41113  1  0  0  0
 41114  1  0  0  0
 41 48  1  0  0  0
 42 43  1  0  0  0
 42 66  1  0  0  0
 42115  1  0  0  0
 42116  1  0  0  0
 43 44  1  0  0  0
 44117  1  0  0  0
 45 46  2  0  0  0
 45118  1  0  0  0
 46119  1  0  0  0
 47120  1  0  0  0
 47121  1  0  0  0
 48 56  1  0  0  0
 48 65  1  0  0  0
 48122  1  0  0  0
 49 50  1  0  0  0
 49 53  1  0  0  0
 49 64  1  0  0  0
 49123  1  0  0  0
 50 51  1  0  0  0
 50124  1  0  0  0
 50125  1  0  0  0
 51 52  1  0  0  0
 51126  1  0  0  0
 51127  1  0  0  0
 52128  1  0  0  0
 52129  1  0  0  0
 53 54  1  0  0  0
 54 55  2  0  0  0
 54130  1  0  0  0
 55 57  1  0  0  0
 55131  1  0  0  0
 56 69  2  0  0  0
 57 58  2  0  0  0
 57132  1  0  0  0
 58133  1  0  0  0
 59 60  1  0  0  0
 59 61  1  0  0  0
 59 62  1  0  0  0
 60134  1  0  0  0
 60135  1  0  0  0
 60136  1  0  0  0
 61137  1  0  0  0
 61138  1  0  0  0
 61139  1  0  0  0
 62140  1  0  0  0
 62141  1  0  0  0
 62142  1  0  0  0
 63 65  1  0  0  0
 63143  1  0  0  0
 63144  1  0  0  0
 63145  1  0  0  0
 64146  1  0  0  0
 65147  1  0  0  0
 68 84  1  0  0  0
 71 72  2  0  0  0
 71 87  1  0  0  0
 71148  1  0  0  0
 72 73  1  0  0  0
 72 78  1  0  0  0
 73 74  1  0  0  0
 73 86  2  0  0  0
 74149  1  0  0  0
 74150  1  0  0  0
 74151  1  0  0  0
 75152  1  0  0  0
 75153  1  0  0  0
 75154  1  0  0  0
 75 85  1  0  0  0
 76 85  1  0  0  0
 76155  1  0  0  0
 76156  1  0  0  0
 76157  1  0  0  0
 77 88  1  0  0  0
 77158  1  0  0  0
 77159  1  0  0  0
 77160  1  0  0  0
 78 85  1  0  0  0
 78161  1  0  0  0
 78162  1  0  0  0
 79 80  1  0  0  0
 79 81  1  0  0  0
 79163  1  0  0  0
 79164  1  0  0  0
 80 84  1  0  0  0
 80165  1  0  0  0
 80166  1  0  0  0
 81 85  1  0  0  0
 81167  1  0  0  0
 81168  1  0  0  0
 82 83  1  0  0  0
 82 87  1  0  0  0
 82169  1  0  0  0
 82170  1  0  0  0
 83 88  1  0  0  0
 83171  1  0  0  0
 83172  1  0  0  0
 84173  1  0  0  0
 84174  1  0  0  0
 86 87  1  0  0  0
M  ISO  4   1 100  68 101  84 101  88 100
M  END
> <chiral flag>
0

> <version>
0

> <s_m_source_file>
/data/baiqing/PycharmProjects/Reinvent-master-3.2/result/LINK_invent/BTK/process_docking_weight1_custom_sum_contain_oxygen_bond_distance_aromatic_linkinvent_7_9_3/rearranged_h_0085.sdf

> <i_m_source_file_index>
71

> <r_mmod_Potential_Energy-OPLS-2005>
56.5812149047852

> <r_mmod_Stretch_Energy-OPLS-2005>
35.5509605407715

> <r_mmod_Bend_Energy-OPLS-2005>
99.4965667724609

> <r_mmod_Torsional_Energy-OPLS-2005>
328.412902832031

> <r_mmod_Improper_Torsional_Energy-OPLS-2005>
4.80636405944824

> <r_mmod_Van_der_Waal_Energy-OPLS-2005>
123.224739074707

> <r_mmod_Electrostatic_Energy-OPLS-2005>
-364.507873535156

> <r_mmod_Solvation_Energy-OPLS-2005>
-179.030960083008

> <b_mmod_Minimization_Converged-OPLS-2005>
0

> <r_mmod_RMS_Derivative-OPLS-2005>
3.34720945358276

$$$$
74
                    3D
 Structure written by MMmdl.
166174  0  0  1  0            999 V2000
  -30.6462  -14.7008   20.4657 C   0  0  0  0  0  0
  -30.4265  -12.4261   19.4712 C   0  0  0  0  0  0
  -29.5046  -12.4973   18.2336 C   0  0  0  0  0  0
  -28.0303  -12.3346   18.6441 C   0  0  0  0  0  0
  -27.6438  -13.2287   19.8508 C   0  0  2  0  0  0
  -28.6882  -13.1595   20.9879 C   0  0  0  0  0  0
  -25.2528  -13.8197   20.5726 C   0  0  0  0  0  0
  -24.1813  -13.0434   20.9205 C   0  0  0  0  0  0
  -24.6394  -11.6910   20.8727 C   0  0  0  0  0  0
  -23.9071  -10.4289   21.0406 C   0  0  0  0  0  0
  -24.3611   -9.4208   21.9196 C   0  0  0  0  0  0
  -23.6295   -8.2237   22.0760 C   0  0  0  0  0  0
  -22.4292   -8.0266   21.3528 C   0  0  0  0  0  0
  -21.9909   -9.0253   20.4646 C   0  0  0  0  0  0
  -22.7227  -10.2140   20.3064 C   0  0  0  0  0  0
  -21.6858   -6.0731   22.5272 C   0  0  0  0  0  0
  -21.4019   -6.5643   23.8199 C   0  0  0  0  0  0
  -21.3666   -5.6801   24.9161 C   0  0  0  0  0  0
  -21.6034   -4.3059   24.7219 C   0  0  0  0  0  0
  -21.8825   -3.8149   23.4342 C   0  0  0  0  0  0
  -21.9197   -4.6960   22.3393 C   0  0  0  0  0  0
  -22.7831  -13.5222   21.1865 C   0  0  0  0  0  0
  -22.1666   -4.2149   21.0971 F   0  0  0  0  0  0
  -21.5635   -3.4539   25.7731 F   0  0  0  0  0  0
  -29.9978  -13.4880   20.4100 N   0  0  0  0  0  0
  -26.2951  -12.9391   20.3279 N   0  0  0  0  0  0
  -25.9323  -11.6543   20.5732 N   0  0  0  0  0  0
  -22.0483  -12.8222   22.0422 N   0  0  0  0  0  0
  -25.4248  -15.1916   20.4208 N   0  0  0  0  0  0
  -31.8281  -14.7850   20.1268 O   0  0  0  0  0  0
  -21.6645   -6.8874   21.4235 O   0  0  0  0  0  0
  -22.3522  -14.5538   20.6726 O   0  0  0  0  0  0
  -24.6501  -31.8628   23.2071 C   0  0  0  0  0  0
  -25.9284  -32.4812   23.8437 C   0  0  1  0  0  0
  -27.2068  -27.2336   20.1559 C   0  0  0  0  0  0
  -25.6032  -33.8600   24.2359 N   0  0  0  0  0  0
  -23.4610  -30.4903   21.5631 C   0  0  2  0  0  0
  -24.8831  -28.9405   20.1136 C   0  0  0  0  0  0
  -22.7878  -29.4751   22.5131 C   0  0  0  0  0  0
  -17.9988  -28.1241   22.8722 C   0  0  0  0  0  0
  -24.1480  -36.7294   23.2632 C   0  0  0  0  0  0
  -25.9972  -30.7677   21.3854 C   0  0  0  0  0  0
  -26.0590  -29.3863   20.7312 C   0  0  0  0  0  0
  -27.2231  -28.5491   20.7392 C   0  0  0  0  0  0
  -26.0071  -26.8725   19.4947 C   0  0  0  0  0  0
  -24.8661  -27.6933   19.4787 C   0  0  0  0  0  0
  -23.6589  -29.8305   20.1729 C   0  0  0  0  0  0
  -25.4110  -36.3107   24.0342 C   0  0  1  0  0  0
  -20.4851  -28.4595   22.7799 C   0  0  2  0  0  0
  -20.6937  -26.9579   22.5328 C   0  0  0  0  0  0
  -19.5568  -26.4567   21.6170 C   0  0  0  0  0  0
  -18.1578  -26.7552   22.2021 C   0  0  0  0  0  0
  -19.1212  -28.8993   23.2519 C   0  0  0  0  0  0
  -18.9430  -30.1491   23.8790 C   0  0  0  0  0  0
  -17.6460  -30.6533   24.0820 C   0  0  0  0  0  0
  -25.9068  -34.9463   23.5151 C   0  0  0  0  0  0
  -16.5280  -29.9012   23.6785 C   0  0  0  0  0  0
  -16.7032  -28.6348   23.0918 C   0  0  0  0  0  0
  -26.4573  -31.6592   25.0813 C   0  0  0  0  0  0
  -25.3754  -31.3710   26.1489 C   0  0  0  0  0  0
  -27.0412  -30.3010   24.6285 C   0  0  0  0  0  0
  -27.6146  -32.4290   25.7587 C   0  0  0  0  0  0
  -27.5591  -37.1810   24.8474 C   0  0  0  0  0  0
  -21.4629  -29.4470   22.4006 N   0  0  0  0  0  0
  -26.4306  -37.3798   23.9408 N   0  0  0  0  0  0
  -24.7252  -31.0621   22.1052 N   0  0  0  0  0  0
  -23.4322  -28.7508   23.2737 O   0  0  0  0  0  0
  -28.2811  -26.3026   20.2577 O   0  0  0  0  0  0
  -26.5607  -34.8930   22.4683 O   0  0  0  0  0  0
  -23.5624  -32.1416   23.7314 O   0  0  0  0  0  0
  -28.5087  -20.4874   22.5203 C   0  0  0  0  0  0
  -28.7811  -19.1945   23.0394 C   0  0  0  0  0  0
  -28.9109  -20.7573   21.1829 C   0  0  0  0  0  0
  -29.6459  -18.4785   21.0452 C   0  0  0  0  0  0
  -28.4238  -18.7681   24.4545 C   0  0  0  0  0  0
  -26.2597  -21.1614   23.5346 C   0  0  0  0  0  0
  -27.1360  -23.6690   17.8328 C   0  0  0  0  0  0
  -27.7455  -21.5038   23.3727 C   0  0  0  0  0  0
  -28.4782  -22.0836   20.3981 C   0  0  0  0  0  0
  -30.2933  -17.2600   20.2836 C   0  0  0  0  0  0
  -28.1395  -24.6690   18.4378 C   0  0  0  0  0  0
  -28.8950  -23.6341   20.7150 C   0  0  0  0  0  0
  -28.0573  -24.8270   19.9795 C   0  0  1  0  0  0
  -29.3217  -18.2156   22.2988 N   0  0  0  0  0  0
  -29.4801  -19.7091   20.4755 N   0  0  0  0  0  0
  -29.9061  -15.8382   20.6586 N   0  0  0  0  0  0
  -31.4701  -12.5329   19.1668 H   0  0  0  0  0  0
  -30.3527  -11.4446   19.9448 H   0  0  0  0  0  0
  -29.7786  -11.7261   17.5116 H   0  0  0  0  0  0
  -29.6384  -13.4547   17.7264 H   0  0  0  0  0  0
  -27.8721  -11.2843   18.8914 H   0  0  0  0  0  0
  -27.3790  -12.5432   17.7954 H   0  0  0  0  0  0
  -27.6405  -14.2510   19.4728 H   0  0  0  0  0  0
  -28.7059  -12.1666   21.4390 H   0  0  0  0  0  0
  -28.4236  -13.8504   21.7879 H   0  0  0  0  0  0
  -25.2751   -9.5697   22.4767 H   0  0  0  0  0  0
  -24.0009   -7.4633   22.7473 H   0  0  0  0  0  0
  -21.0845   -8.8760   19.8948 H   0  0  0  0  0  0
  -22.3674  -10.9679   19.6179 H   0  0  0  0  0  0
  -21.2012   -7.6149   23.9700 H   0  0  0  0  0  0
  -21.1487   -6.0528   25.9065 H   0  0  0  0  0  0
  -22.0599   -2.7609   23.2833 H   0  0  0  0  0  0
  -22.4115  -11.9875   22.4791 H   0  0  0  0  0  0
  -21.1087  -13.1232   22.2606 H   0  0  0  0  0  0
  -24.6649  -15.8447   20.5701 H   0  0  0  0  0  0
  -26.2745  -15.6384   20.1046 H   0  0  0  0  0  0
  -26.7370  -32.5455   23.1201 H   0  0  0  0  0  0
  -25.0227  -33.9741   25.0542 H   0  0  0  0  0  0
  -22.7634  -31.3187   21.4174 H   0  0  0  0  0  0
  -23.3778  -35.9597   23.3284 H   0  0  0  0  0  0
  -24.3583  -36.8920   22.2057 H   0  0  0  0  0  0
  -23.7212  -37.6482   23.6647 H   0  0  0  0  0  0
  -26.1447  -31.5205   20.6112 H   0  0  0  0  0  0
  -26.8750  -30.8153   22.0167 H   0  0  0  0  0  0
  -28.1140  -28.8841   21.2472 H   0  0  0  0  0  0
  -25.8990  -25.9231   18.9964 H   0  0  0  0  0  0
  -23.9709  -27.3479   18.9810 H   0  0  0  0  0  0
  -23.7758  -30.6117   19.4192 H   0  0  0  0  0  0
  -22.7682  -29.2736   19.8781 H   0  0  0  0  0  0
  -25.1272  -36.1972   25.0844 H   0  0  0  0  0  0
  -20.1698  -28.6804   21.7597 H   0  0  0  0  0  0
  -20.6678  -26.4208   23.4802 H   0  0  0  0  0  0
  -21.6642  -26.7493   22.0804 H   0  0  0  0  0  0
  -19.6571  -25.3839   21.4366 H   0  0  0  0  0  0
  -19.6465  -26.9212   20.6337 H   0  0  0  0  0  0
  -17.4050  -26.6469   21.4174 H   0  0  0  0  0  0
  -17.9217  -26.0010   22.9530 H   0  0  0  0  0  0
  -19.7987  -30.7479   24.1523 H   0  0  0  0  0  0
  -17.5095  -31.6234   24.5378 H   0  0  0  0  0  0
  -15.5302  -30.2872   23.8363 H   0  0  0  0  0  0
  -15.8348  -28.0545   22.8021 H   0  0  0  0  0  0
  -24.5956  -30.7049   25.7780 H   0  0  0  0  0  0
  -24.8905  -32.2856   26.4903 H   0  0  0  0  0  0
  -25.8033  -30.8880   27.0275 H   0  0  0  0  0  0
  -26.3006  -29.6752   24.1297 H   0  0  0  0  0  0
  -27.4091  -29.7277   25.4800 H   0  0  0  0  0  0
  -27.8881  -30.4302   23.9547 H   0  0  0  0  0  0
  -27.2820  -33.3611   26.2144 H   0  0  0  0  0  0
  -28.3975  -32.6798   25.0424 H   0  0  0  0  0  0
  -28.0789  -31.8410   26.5507 H   0  0  0  0  0  0
  -28.2596  -38.0113   24.7529 H   0  0  0  0  0  0
  -28.1089  -36.2653   24.6270 H   0  0  0  0  0  0
  -27.2300  -37.1418   25.8870 H   0  0  0  0  0  0
  -21.0802  -30.1770   21.8183 H   0  0  0  0  0  0
  -26.0190  -38.2869   24.1411 H   0  0  0  0  0  0
  -28.5123  -19.5811   25.1687 H   0  0  0  0  0  0
  -29.0726  -17.9671   24.8108 H   0  0  0  0  0  0
  -27.4048  -18.3844   24.4797 H   0  0  0  0  0  0
  -25.7566  -21.1039   22.5690 H   0  0  0  0  0  0
  -25.7612  -21.9251   24.1293 H   0  0  0  0  0  0
  -26.1016  -20.2162   24.0475 H   0  0  0  0  0  0
  -26.9131  -23.9377   16.8018 H   0  0  0  0  0  0
  -26.1906  -23.6563   18.3739 H   0  0  0  0  0  0
  -27.5204  -22.6523   17.8107 H   0  0  0  0  0  0
  -28.2225  -21.6062   24.3500 H   0  0  0  0  0  0
  -27.7954  -22.4982   22.9449 H   0  0  0  0  0  0
  -27.3889  -22.0404   20.3892 H   0  0  0  0  0  0
  -28.7887  -21.8962   19.3723 H   0  0  0  0  0  0
  -31.3753  -17.3721   20.3888 H   0  0  0  0  0  0
  -30.0969  -17.3758   19.2170 H   0  0  0  0  0  0
  -27.9428  -25.6312   17.9670 H   0  0  0  0  0  0
  -29.1555  -24.4197   18.1326 H   0  0  0  0  0  0
  -29.9532  -23.7427   20.4784 H   0  0  0  0  0  0
  -28.8384  -23.8374   21.7807 H   0  0  0  0  0  0
  -27.0379  -24.6247   20.3046 H   0  0  0  0  0  0
  -28.9436  -15.7242   20.9377 H   0  0  0  0  0  0
  1 25  1  0  0  0
  1 30  2  0  0  0
  1 86  1  0  0  0
  2  3  1  0  0  0
  2 25  1  0  0  0
  2 87  1  0  0  0
  2 88  1  0  0  0
  3  4  1  0  0  0
  3 89  1  0  0  0
  3 90  1  0  0  0
  4  5  1  0  0  0
  4 91  1  0  0  0
  4 92  1  0  0  0
  5  6  1  0  0  0
  5 26  1  0  0  0
  5 93  1  0  0  0
  6 25  1  0  0  0
  6 94  1  0  0  0
  6 95  1  0  0  0
  7  8  2  0  0  0
  7 26  1  0  0  0
  7 29  1  0  0  0
  8  9  1  0  0  0
  8 22  1  0  0  0
  9 10  1  0  0  0
  9 27  2  0  0  0
 10 11  2  0  0  0
 10 15  1  0  0  0
 11 12  1  0  0  0
 11 96  1  0  0  0
 12 13  2  0  0  0
 12 97  1  0  0  0
 13 14  1  0  0  0
 13 31  1  0  0  0
 14 15  2  0  0  0
 14 98  1  0  0  0
 15 99  1  0  0  0
 16 17  2  0  0  0
 16 21  1  0  0  0
 16 31  1  0  0  0
 17 18  1  0  0  0
 17100  1  0  0  0
 18 19  2  0  0  0
 18101  1  0  0  0
 19 20  1  0  0  0
 19 24  1  0  0  0
 20 21  2  0  0  0
 20102  1  0  0  0
 21 23  1  0  0  0
 22 28  1  0  0  0
 22 32  2  0  0  0
 26 27  1  0  0  0
 28103  1  0  0  0
 28104  1  0  0  0
 29105  1  0  0  0
 29106  1  0  0  0
 33 34  1  0  0  0
 33 66  1  0  0  0
 33 70  2  0  0  0
 34 36  1  0  0  0
 34 59  1  0  0  0
 34107  1  0  0  0
 35 44  2  0  0  0
 35 45  1  0  0  0
 35 68  1  0  0  0
 36 56  1  0  0  0
 36108  1  0  0  0
 37 39  1  0  0  0
 37 47  1  0  0  0
 37 66  1  0  0  0
 37109  1  0  0  0
 38 43  2  0  0  0
 38 46  1  0  0  0
 38 47  1  0  0  0
 39 64  1  0  0  0
 39 67  2  0  0  0
 40 52  1  0  0  0
 40 53  2  0  0  0
 40 58  1  0  0  0
 41110  1  0  0  0
 41111  1  0  0  0
 41112  1  0  0  0
 41 48  1  0  0  0
 42 43  1  0  0  0
 42 66  1  0  0  0
 42113  1  0  0  0
 42114  1  0  0  0
 43 44  1  0  0  0
 44115  1  0  0  0
 45 46  2  0  0  0
 45116  1  0  0  0
 46117  1  0  0  0
 47118  1  0  0  0
 47119  1  0  0  0
 48 56  1  0  0  0
 48 65  1  0  0  0
 48120  1  0  0  0
 49 50  1  0  0  0
 49 53  1  0  0  0
 49 64  1  0  0  0
 49121  1  0  0  0
 50 51  1  0  0  0
 50122  1  0  0  0
 50123  1  0  0  0
 51 52  1  0  0  0
 51124  1  0  0  0
 51125  1  0  0  0
 52126  1  0  0  0
 52127  1  0  0  0
 53 54  1  0  0  0
 54 55  2  0  0  0
 54128  1  0  0  0
 55 57  1  0  0  0
 55129  1  0  0  0
 56 69  2  0  0  0
 57 58  2  0  0  0
 57130  1  0  0  0
 58131  1  0  0  0
 59 60  1  0  0  0
 59 61  1  0  0  0
 59 62  1  0  0  0
 60132  1  0  0  0
 60133  1  0  0  0
 60134  1  0  0  0
 61135  1  0  0  0
 61136  1  0  0  0
 61137  1  0  0  0
 62138  1  0  0  0
 62139  1  0  0  0
 62140  1  0  0  0
 63 65  1  0  0  0
 63141  1  0  0  0
 63142  1  0  0  0
 63143  1  0  0  0
 64144  1  0  0  0
 65145  1  0  0  0
 68 83  1  0  0  0
 71 72  2  0  0  0
 71 73  1  0  0  0
 71 78  1  0  0  0
 72 75  1  0  0  0
 72 84  1  0  0  0
 73 79  1  0  0  0
 73 85  2  0  0  0
 74 80  1  0  0  0
 74 84  2  0  0  0
 74 85  1  0  0  0
 75146  1  0  0  0
 75147  1  0  0  0
 75148  1  0  0  0
 76 78  1  0  0  0
 76149  1  0  0  0
 76150  1  0  0  0
 76151  1  0  0  0
 77 81  1  0  0  0
 77152  1  0  0  0
 77153  1  0  0  0
 77154  1  0  0  0
 78155  1  0  0  0
 78156  1  0  0  0
 79 82  1  0  0  0
 79157  1  0  0  0
 79158  1  0  0  0
 80 86  1  0  0  0
 80159  1  0  0  0
 80160  1  0  0  0
 81161  1  0  0  0
 81162  1  0  0  0
 81 83  1  0  0  0
 82 83  1  0  0  0
 82163  1  0  0  0
 82164  1  0  0  0
 83165  1  0  0  0
 86166  1  0  0  0
M  ISO  4   1 100  68 101  83 101  86 100
M  END
> <chiral flag>
0

> <version>
0

> <s_m_source_file>
/data/baiqing/PycharmProjects/Reinvent-master-3.2/result/LINK_invent/BTK/process_docking_weight1_custom_sum_contain_oxygen_bond_distance_aromatic_linkinvent_7_9_3/rearranged_h_0085.sdf

> <i_m_source_file_index>
72

> <r_mmod_Potential_Energy-OPLS-2005>
-247.874603271484

> <r_mmod_Stretch_Energy-OPLS-2005>
121.486694335938

> <r_mmod_Bend_Energy-OPLS-2005>
284.074798583984

> <r_mmod_Torsional_Energy-OPLS-2005>
224.503875732422

> <r_mmod_Improper_Torsional_Energy-OPLS-2005>
8.81206703186035

> <r_mmod_Van_der_Waal_Energy-OPLS-2005>
162.556243896484

> <r_mmod_Electrostatic_Energy-OPLS-2005>
-926.09912109375

> <r_mmod_Solvation_Energy-OPLS-2005>
-231.709686279297

> <b_mmod_Minimization_Converged-OPLS-2005>
0

> <r_mmod_RMS_Derivative-OPLS-2005>
4.88491344451904

$$$$
75
                    3D
 Structure written by MMmdl.
169177  0  0  1  0            999 V2000
  -30.6749  -14.4655   20.5012 C   0  0  0  0  0  0
  -30.4265  -12.2688   19.4507 C   0  0  0  0  0  0
  -29.5127  -12.4727   18.2206 C   0  0  0  0  0  0
  -28.0230  -12.3588   18.6168 C   0  0  0  0  0  0
  -27.6618  -13.1999   19.8734 C   0  0  2  0  0  0
  -28.7012  -12.9860   21.0028 C   0  0  0  0  0  0
  -25.2574  -13.8146   20.5669 C   0  0  0  0  0  0
  -24.1815  -13.0453   20.9176 C   0  0  0  0  0  0
  -24.6353  -11.6903   20.8736 C   0  0  0  0  0  0
  -23.9036  -10.4291   21.0421 C   0  0  0  0  0  0
  -24.3599   -9.4202   21.9194 C   0  0  0  0  0  0
  -23.6265   -8.2239   22.0754 C   0  0  0  0  0  0
  -22.4246   -8.0272   21.3548 C   0  0  0  0  0  0
  -21.9876   -9.0255   20.4675 C   0  0  0  0  0  0
  -22.7206  -10.2131   20.3085 C   0  0  0  0  0  0
  -21.6828   -6.0746   22.5274 C   0  0  0  0  0  0
  -21.4012   -6.5636   23.8221 C   0  0  0  0  0  0
  -21.3658   -5.6775   24.9178 C   0  0  0  0  0  0
  -21.6032   -4.3037   24.7220 C   0  0  0  0  0  0
  -21.8809   -3.8147   23.4336 C   0  0  0  0  0  0
  -21.9176   -4.6977   22.3401 C   0  0  0  0  0  0
  -22.7836  -13.5271   21.1804 C   0  0  0  0  0  0
  -22.1641   -4.2165   21.0984 F   0  0  0  0  0  0
  -21.5633   -3.4524   25.7742 F   0  0  0  0  0  0
  -30.0411  -13.2637   20.4606 N   0  0  0  0  0  0
  -26.3001  -12.9305   20.3328 N   0  0  0  0  0  0
  -25.9276  -11.6479   20.5751 N   0  0  0  0  0  0
  -22.0410  -12.8352   22.0400 N   0  0  0  0  0  0
  -25.4270  -15.1867   20.4111 N   0  0  0  0  0  0
  -31.8162  -14.6484   20.0767 O   0  0  0  0  0  0
  -21.6598   -6.8883   21.4241 O   0  0  0  0  0  0
  -22.3549  -14.5562   20.6619 O   0  0  0  0  0  0
  -24.6118  -31.8723   23.2126 C   0  0  0  0  0  0
  -25.9026  -32.4843   23.8406 C   0  0  1  0  0  0
  -27.2408  -27.4764   20.0788 C   0  0  0  0  0  0
  -25.5898  -33.8642   24.2342 N   0  0  0  0  0  0
  -23.3969  -30.4927   21.5566 C   0  0  2  0  0  0
  -24.8437  -28.9644   20.1116 C   0  0  0  0  0  0
  -22.7405  -29.4651   22.5058 C   0  0  0  0  0  0
  -18.0262  -28.1388   22.8517 C   0  0  0  0  0  0
  -24.1483  -36.7324   23.2633 C   0  0  0  0  0  0
  -25.9194  -30.8474   21.3573 C   0  0  0  0  0  0
  -25.9983  -29.4830   20.7097 C   0  0  0  0  0  0
  -27.1943  -28.7393   20.7063 C   0  0  0  0  0  0
  -26.0701  -26.9574   19.4849 C   0  0  0  0  0  0
  -24.8711  -27.6985   19.4995 C   0  0  0  0  0  0
  -23.6023  -29.8264   20.1688 C   0  0  0  0  0  0
  -25.4102  -36.3122   24.0338 C   0  0  1  0  0  0
  -20.5855  -28.3650   23.1371 C   0  0  2  0  0  0
  -20.6757  -26.9403   22.5441 C   0  0  0  0  0  0
  -19.5729  -26.6411   21.5233 C   0  0  0  0  0  0
  -18.1901  -26.7940   22.1635 C   0  0  0  0  0  0
  -19.1518  -28.8832   23.2932 C   0  0  0  0  0  0
  -18.9439  -30.1450   23.8943 C   0  0  0  0  0  0
  -17.6443  -30.6585   24.0582 C   0  0  0  0  0  0
  -25.9038  -34.9488   23.5129 C   0  0  0  0  0  0
  -16.5334  -29.9102   23.6328 C   0  0  0  0  0  0
  -16.7253  -28.6514   23.0346 C   0  0  0  0  0  0
  -26.4462  -31.6613   25.0720 C   0  0  0  0  0  0
  -25.3748  -31.3739   26.1492 C   0  0  0  0  0  0
  -27.0245  -30.3055   24.6042 C   0  0  0  0  0  0
  -27.6071  -32.4319   25.7448 C   0  0  0  0  0  0
  -27.5584  -37.1804   24.8454 C   0  0  0  0  0  0
  -21.4131  -29.3016   22.3787 N   0  0  0  0  0  0
  -26.4286  -37.3805   23.9413 N   0  0  0  0  0  0
  -24.6618  -31.0838   22.1012 N   0  0  0  0  0  0
  -23.4200  -28.8211   23.3092 O   0  0  0  0  0  0
  -28.4147  -26.7677   20.1217 O   0  0  0  0  0  0
  -26.5589  -34.8940   22.4693 O   0  0  0  0  0  0
  -23.5324  -32.1454   23.7540 O   0  0  0  0  0  0
  -30.5477  -21.6348   16.8133 C   0  0  0  0  0  0
  -30.4617  -21.0688   18.9712 C   0  0  0  0  0  0
  -30.8856  -22.0616   18.1239 C   0  0  0  0  0  0
  -29.9697  -20.4024   16.8830 C   0  0  0  0  0  0
  -29.4404  -19.5604   15.7608 C   0  0  0  0  0  0
  -29.3630  -18.4330   21.2456 C   0  0  0  0  0  0
  -31.5038  -18.1027   19.9653 C   0  0  0  0  0  0
  -31.5784  -23.3642   18.4490 C   0  0  0  0  0  0
  -30.7202  -24.5988   18.1183 C   0  0  0  0  0  0
  -29.7999  -25.0182   19.2701 C   0  0  0  0  0  0
  -29.3299  -18.7711   18.7079 C   0  0  0  0  0  0
  -29.5927  -16.4837   19.6424 C   0  0  0  0  0  0
  -28.8989  -26.2081   18.9080 C   0  0  0  0  0  0
  -29.9692  -17.9698   19.9010 C   0  0  0  0  0  0
  -29.9366  -20.0202   18.2219 N   0  0  0  0  0  0
  -29.8449  -15.4999   20.7092 N   0  0  0  0  0  0
  -31.4800  -12.3359   19.1724 H   0  0  0  0  0  0
  -30.2978  -11.2661   19.8595 H   0  0  0  0  0  0
  -29.7562  -11.7374   17.4521 H   0  0  0  0  0  0
  -29.7021  -13.4510   17.7735 H   0  0  0  0  0  0
  -27.8079  -11.3051   18.8022 H   0  0  0  0  0  0
  -27.3916  -12.6480   17.7755 H   0  0  0  0  0  0
  -27.7023  -14.2432   19.5645 H   0  0  0  0  0  0
  -28.6597  -11.9582   21.3640 H   0  0  0  0  0  0
  -28.4762  -13.6089   21.8699 H   0  0  0  0  0  0
  -25.2769   -9.5659   22.4747 H   0  0  0  0  0  0
  -23.9976   -7.4622   22.7454 H   0  0  0  0  0  0
  -21.0792   -8.8795   19.8997 H   0  0  0  0  0  0
  -22.3672  -10.9675   19.6187 H   0  0  0  0  0  0
  -21.2016   -7.6138   23.9748 H   0  0  0  0  0  0
  -21.1484   -6.0496   25.9081 H   0  0  0  0  0  0
  -22.0600   -2.7608   23.2822 H   0  0  0  0  0  0
  -22.3952  -12.0073   22.4930 H   0  0  0  0  0  0
  -21.1037  -13.1465   22.2532 H   0  0  0  0  0  0
  -24.6550  -15.8361   20.5198 H   0  0  0  0  0  0
  -26.2752  -15.6284   20.0825 H   0  0  0  0  0  0
  -26.7109  -32.5570   23.1189 H   0  0  0  0  0  0
  -25.0041  -33.9814   25.0476 H   0  0  0  0  0  0
  -22.6818  -31.3076   21.4219 H   0  0  0  0  0  0
  -23.3740  -35.9662   23.3301 H   0  0  0  0  0  0
  -24.3571  -36.8934   22.2046 H   0  0  0  0  0  0
  -23.7243  -37.6537   23.6641 H   0  0  0  0  0  0
  -26.0150  -31.6096   20.5830 H   0  0  0  0  0  0
  -26.8145  -30.9134   21.9621 H   0  0  0  0  0  0
  -28.0858  -29.1339   21.1721 H   0  0  0  0  0  0
  -26.0695  -25.9787   19.0268 H   0  0  0  0  0  0
  -23.9816  -27.2882   19.0414 H   0  0  0  0  0  0
  -23.7062  -30.6044   19.4120 H   0  0  0  0  0  0
  -22.7264  -29.2472   19.8722 H   0  0  0  0  0  0
  -25.1271  -36.1985   25.0826 H   0  0  0  0  0  0
  -20.9925  -28.3204   24.1503 H   0  0  0  0  0  0
  -20.5693  -26.2248   23.3611 H   0  0  0  0  0  0
  -21.6620  -26.7482   22.1210 H   0  0  0  0  0  0
  -19.6883  -25.6340   21.1214 H   0  0  0  0  0  0
  -19.6660  -27.3273   20.6806 H   0  0  0  0  0  0
  -17.4182  -26.6737   21.4017 H   0  0  0  0  0  0
  -18.0264  -26.0074   22.9017 H   0  0  0  0  0  0
  -19.7904  -30.7255   24.2343 H   0  0  0  0  0  0
  -17.4986  -31.6267   24.5190 H   0  0  0  0  0  0
  -15.5336  -30.3009   23.7619 H   0  0  0  0  0  0
  -15.8651  -28.0843   22.7044 H   0  0  0  0  0  0
  -24.5924  -30.7058   25.7863 H   0  0  0  0  0  0
  -24.8923  -32.2905   26.4911 H   0  0  0  0  0  0
  -25.8127  -30.8956   27.0263 H   0  0  0  0  0  0
  -26.2733  -29.6857   24.1122 H   0  0  0  0  0  0
  -27.4053  -29.7253   25.4457 H   0  0  0  0  0  0
  -27.8567  -30.4372   23.9118 H   0  0  0  0  0  0
  -27.2711  -33.3609   26.2068 H   0  0  0  0  0  0
  -28.3833  -32.6905   25.0232 H   0  0  0  0  0  0
  -28.0789  -31.8422   26.5316 H   0  0  0  0  0  0
  -28.2609  -38.0093   24.7502 H   0  0  0  0  0  0
  -28.1068  -36.2631   24.6256 H   0  0  0  0  0  0
  -27.2313  -37.1442   25.8859 H   0  0  0  0  0  0
  -20.9301  -29.8739   21.7002 H   0  0  0  0  0  0
  -26.0180  -38.2883   24.1423 H   0  0  0  0  0  0
  -30.7164  -22.1863   15.8978 H   0  0  0  0  0  0
  -30.4989  -21.0121   20.0505 H   0  0  0  0  0  0
  -29.2790  -20.1656   14.8685 H   0  0  0  0  0  0
  -28.4835  -19.1002   16.0116 H   0  0  0  0  0  0
  -30.1460  -18.7736   15.4928 H   0  0  0  0  0  0
  -29.5884  -19.4769   21.4542 H   0  0  0  0  0  0
  -29.7480  -17.8553   22.0860 H   0  0  0  0  0  0
  -28.2765  -18.3278   21.2515 H   0  0  0  0  0  0
  -31.8071  -19.0927   20.2977 H   0  0  0  0  0  0
  -31.9633  -17.9154   18.9930 H   0  0  0  0  0  0
  -31.9384  -17.3931   20.6684 H   0  0  0  0  0  0
  -32.4826  -23.3988   17.8405 H   0  0  0  0  0  0
  -31.9129  -23.3770   19.4875 H   0  0  0  0  0  0
  -30.1509  -24.4382   17.2014 H   0  0  0  0  0  0
  -31.3872  -25.4365   17.9106 H   0  0  0  0  0  0
  -30.4176  -25.2855   20.1290 H   0  0  0  0  0  0
  -29.1830  -24.1758   19.5842 H   0  0  0  0  0  0
  -28.2707  -18.9646   18.8902 H   0  0  0  0  0  0
  -29.3294  -18.0998   17.8489 H   0  0  0  0  0  0
  -30.0570  -16.1504   18.7107 H   0  0  0  0  0  0
  -28.5214  -16.4363   19.4389 H   0  0  0  0  0  0
  -28.1168  -25.8858   18.2218 H   0  0  0  0  0  0
  -29.4748  -26.9808   18.3967 H   0  0  0  0  0  0
  -29.0224  -15.2544   21.2397 H   0  0  0  0  0  0
  1 25  1  0  0  0
  1 30  2  0  0  0
  1 86  1  0  0  0
  2  3  1  0  0  0
  2 25  1  0  0  0
  2 87  1  0  0  0
  2 88  1  0  0  0
  3  4  1  0  0  0
  3 89  1  0  0  0
  3 90  1  0  0  0
  4  5  1  0  0  0
  4 91  1  0  0  0
  4 92  1  0  0  0
  5  6  1  0  0  0
  5 26  1  0  0  0
  5 93  1  0  0  0
  6 25  1  0  0  0
  6 94  1  0  0  0
  6 95  1  0  0  0
  7  8  2  0  0  0
  7 26  1  0  0  0
  7 29  1  0  0  0
  8  9  1  0  0  0
  8 22  1  0  0  0
  9 10  1  0  0  0
  9 27  2  0  0  0
 10 11  2  0  0  0
 10 15  1  0  0  0
 11 12  1  0  0  0
 11 96  1  0  0  0
 12 13  2  0  0  0
 12 97  1  0  0  0
 13 14  1  0  0  0
 13 31  1  0  0  0
 14 15  2  0  0  0
 14 98  1  0  0  0
 15 99  1  0  0  0
 16 17  2  0  0  0
 16 21  1  0  0  0
 16 31  1  0  0  0
 17 18  1  0  0  0
 17100  1  0  0  0
 18 19  2  0  0  0
 18101  1  0  0  0
 19 20  1  0  0  0
 19 24  1  0  0  0
 20 21  2  0  0  0
 20102  1  0  0  0
 21 23  1  0  0  0
 22 28  1  0  0  0
 22 32  2  0  0  0
 26 27  1  0  0  0
 28103  1  0  0  0
 28104  1  0  0  0
 29105  1  0  0  0
 29106  1  0  0  0
 33 34  1  0  0  0
 33 66  1  0  0  0
 33 70  2  0  0  0
 34 36  1  0  0  0
 34 59  1  0  0  0
 34107  1  0  0  0
 35 44  2  0  0  0
 35 45  1  0  0  0
 35 68  1  0  0  0
 36 56  1  0  0  0
 36108  1  0  0  0
 37 39  1  0  0  0
 37 47  1  0  0  0
 37 66  1  0  0  0
 37109  1  0  0  0
 38 43  2  0  0  0
 38 46  1  0  0  0
 38 47  1  0  0  0
 39 64  1  0  0  0
 39 67  2  0  0  0
 40 52  1  0  0  0
 40 53  2  0  0  0
 40 58  1  0  0  0
 41110  1  0  0  0
 41111  1  0  0  0
 41112  1  0  0  0
 41 48  1  0  0  0
 42 43  1  0  0  0
 42 66  1  0  0  0
 42113  1  0  0  0
 42114  1  0  0  0
 43 44  1  0  0  0
 44115  1  0  0  0
 45 46  2  0  0  0
 45116  1  0  0  0
 46117  1  0  0  0
 47118  1  0  0  0
 47119  1  0  0  0
 48 56  1  0  0  0
 48 65  1  0  0  0
 48120  1  0  0  0
 49 50  1  0  0  0
 49 53  1  0  0  0
 49 64  1  0  0  0
 49121  1  0  0  0
 50 51  1  0  0  0
 50122  1  0  0  0
 50123  1  0  0  0
 51 52  1  0  0  0
 51124  1  0  0  0
 51125  1  0  0  0
 52126  1  0  0  0
 52127  1  0  0  0
 53 54  1  0  0  0
 54 55  2  0  0  0
 54128  1  0  0  0
 55 57  1  0  0  0
 55129  1  0  0  0
 56 69  2  0  0  0
 57 58  2  0  0  0
 57130  1  0  0  0
 58131  1  0  0  0
 59 60  1  0  0  0
 59 61  1  0  0  0
 59 62  1  0  0  0
 60132  1  0  0  0
 60133  1  0  0  0
 60134  1  0  0  0
 61135  1  0  0  0
 61136  1  0  0  0
 61137  1  0  0  0
 62138  1  0  0  0
 62139  1  0  0  0
 62140  1  0  0  0
 63 65  1  0  0  0
 63141  1  0  0  0
 63142  1  0  0  0
 63143  1  0  0  0
 64144  1  0  0  0
 65145  1  0  0  0
 68 83  1  0  0  0
 71 73  1  0  0  0
 71 74  2  0  0  0
 71146  1  0  0  0
 72 73  2  0  0  0
 72 85  1  0  0  0
 72147  1  0  0  0
 73 78  1  0  0  0
 74 75  1  0  0  0
 74 85  1  0  0  0
 75148  1  0  0  0
 75149  1  0  0  0
 75150  1  0  0  0
 76151  1  0  0  0
 76152  1  0  0  0
 76153  1  0  0  0
 76 84  1  0  0  0
 77 84  1  0  0  0
 77154  1  0  0  0
 77155  1  0  0  0
 77156  1  0  0  0
 78 79  1  0  0  0
 78157  1  0  0  0
 78158  1  0  0  0
 79 80  1  0  0  0
 79159  1  0  0  0
 79160  1  0  0  0
 80 83  1  0  0  0
 80161  1  0  0  0
 80162  1  0  0  0
 81 84  1  0  0  0
 81 85  1  0  0  0
 81163  1  0  0  0
 81164  1  0  0  0
 82 84  1  0  0  0
 82 86  1  0  0  0
 82165  1  0  0  0
 82166  1  0  0  0
 83167  1  0  0  0
 83168  1  0  0  0
 86169  1  0  0  0
M  ISO  4   1 100  68 101  83 101  86 100
M  END
> <chiral flag>
0

> <version>
0

> <s_m_source_file>
/data/baiqing/PycharmProjects/Reinvent-master-3.2/result/LINK_invent/BTK/process_docking_weight1_custom_sum_contain_oxygen_bond_distance_aromatic_linkinvent_7_9_3/rearranged_h_0085.sdf

> <i_m_source_file_index>
73

> <r_mmod_Potential_Energy-OPLS-2005>
-20.5368995666504

> <r_mmod_Stretch_Energy-OPLS-2005>
35.310977935791

> <r_mmod_Bend_Energy-OPLS-2005>
119.690208435059

> <r_mmod_Torsional_Energy-OPLS-2005>
282.072387695312

> <r_mmod_Improper_Torsional_Energy-OPLS-2005>
13.2544326782227

> <r_mmod_Van_der_Waal_Energy-OPLS-2005>
130.896499633789

> <r_mmod_Electrostatic_Energy-OPLS-2005>
-406.604461669922

> <r_mmod_Solvation_Energy-OPLS-2005>
-209.041427612305

> <b_mmod_Minimization_Converged-OPLS-2005>
0

> <r_mmod_RMS_Derivative-OPLS-2005>
4.19613122940063

$$$$
76
                    3D
 Structure written by MMmdl.
170178  0  0  1  0            999 V2000
  -30.6433  -14.5139   20.5052 C   0  0  0  0  0  0
  -30.4198  -12.3190   19.4298 C   0  0  0  0  0  0
  -29.4853  -12.5018   18.2140 C   0  0  0  0  0  0
  -28.0149  -12.3206   18.6395 C   0  0  0  0  0  0
  -27.6505  -13.1871   19.8711 C   0  0  2  0  0  0
  -28.6911  -12.9971   21.0023 C   0  0  0  0  0  0
  -25.2494  -13.7991   20.5598 C   0  0  0  0  0  0
  -24.1788  -13.0333   20.9171 C   0  0  0  0  0  0
  -24.6346  -11.6810   20.8703 C   0  0  0  0  0  0
  -23.8978  -10.4224   21.0358 C   0  0  0  0  0  0
  -24.3557   -9.4180   21.9161 C   0  0  0  0  0  0
  -23.6276   -8.2195   22.0758 C   0  0  0  0  0  0
  -22.4269   -8.0208   21.3557 C   0  0  0  0  0  0
  -21.9863   -9.0137   20.4647 C   0  0  0  0  0  0
  -22.7125  -10.2043   20.3030 C   0  0  0  0  0  0
  -21.6832   -6.0708   22.5253 C   0  0  0  0  0  0
  -21.3991   -6.5628   23.8173 C   0  0  0  0  0  0
  -21.3655   -5.6807   24.9151 C   0  0  0  0  0  0
  -21.6028   -4.3064   24.7240 C   0  0  0  0  0  0
  -21.8803   -3.8146   23.4366 C   0  0  0  0  0  0
  -21.9206   -4.6939   22.3413 C   0  0  0  0  0  0
  -22.7816  -13.5133   21.1878 C   0  0  0  0  0  0
  -22.1682   -4.2124   21.0984 F   0  0  0  0  0  0
  -21.5668   -3.4537   25.7767 F   0  0  0  0  0  0
  -30.0167  -13.3069   20.4393 N   0  0  0  0  0  0
  -26.2942  -12.9178   20.3304 N   0  0  0  0  0  0
  -25.9257  -11.6352   20.5755 N   0  0  0  0  0  0
  -22.0512  -12.8093   22.0450 N   0  0  0  0  0  0
  -25.4138  -15.1667   20.3902 N   0  0  0  0  0  0
  -31.7973  -14.6903   20.1120 O   0  0  0  0  0  0
  -21.6638   -6.8822   21.4244 O   0  0  0  0  0  0
  -22.3474  -14.5452   20.6743 O   0  0  0  0  0  0
  -24.6209  -31.8720   23.2073 C   0  0  0  0  0  0
  -25.9124  -32.4861   23.8378 C   0  0  1  0  0  0
  -27.2573  -27.4338   20.1117 C   0  0  0  0  0  0
  -25.5984  -33.8636   24.2394 N   0  0  0  0  0  0
  -23.4024  -30.4893   21.5474 C   0  0  2  0  0  0
  -24.8551  -28.9222   20.1411 C   0  0  0  0  0  0
  -22.7368  -29.4742   22.5048 C   0  0  0  0  0  0
  -18.0312  -28.1372   22.8572 C   0  0  0  0  0  0
  -24.1495  -36.7327   23.2619 C   0  0  0  0  0  0
  -25.9302  -30.8271   21.3554 C   0  0  0  0  0  0
  -26.0078  -29.4474   20.7307 C   0  0  0  0  0  0
  -27.2153  -28.7123   20.7051 C   0  0  0  0  0  0
  -26.0816  -26.8988   19.5428 C   0  0  0  0  0  0
  -24.8843  -27.6434   19.5455 C   0  0  0  0  0  0
  -23.6163  -29.7906   20.1741 C   0  0  0  0  0  0
  -25.4099  -36.3096   24.0336 C   0  0  1  0  0  0
  -20.5857  -28.3745   23.1398 C   0  0  2  0  0  0
  -20.6807  -26.9389   22.5732 C   0  0  0  0  0  0
  -19.5718  -26.6122   21.5601 C   0  0  0  0  0  0
  -18.1961  -26.7788   22.2014 C   0  0  0  0  0  0
  -19.1522  -28.8901   23.2973 C   0  0  0  0  0  0
  -18.9412  -30.1481   23.9049 C   0  0  0  0  0  0
  -17.6351  -30.6518   24.0718 C   0  0  0  0  0  0
  -25.9030  -34.9470   23.5130 C   0  0  0  0  0  0
  -16.5291  -29.8930   23.6492 C   0  0  0  0  0  0
  -16.7280  -28.6417   23.0450 C   0  0  0  0  0  0
  -26.4518  -31.6579   25.0695 C   0  0  0  0  0  0
  -25.3816  -31.3621   26.1468 C   0  0  0  0  0  0
  -27.0309  -30.3015   24.6053 C   0  0  0  0  0  0
  -27.6107  -32.4260   25.7487 C   0  0  0  0  0  0
  -27.5597  -37.1830   24.8474 C   0  0  0  0  0  0
  -21.4103  -29.3010   22.3646 N   0  0  0  0  0  0
  -26.4302  -37.3788   23.9407 N   0  0  0  0  0  0
  -24.6681  -31.0825   22.0940 N   0  0  0  0  0  0
  -23.4072  -28.8370   23.3178 O   0  0  0  0  0  0
  -28.4566  -26.7692   19.9976 O   0  0  0  0  0  0
  -26.5557  -34.8932   22.4670 O   0  0  0  0  0  0
  -23.5425  -32.1501   23.7512 O   0  0  0  0  0  0
  -29.3406  -20.5378   20.6376 C   0  0  0  0  0  0
  -27.9545  -20.6062   18.3069 C   0  0  0  0  0  0
  -28.8053  -19.3045   20.1805 C   0  0  0  0  0  0
  -27.9518  -19.3746   19.0177 C   0  0  0  0  0  0
  -29.1192  -21.7365   19.9344 C   0  0  0  0  0  0
  -28.0659  -17.5582   22.0169 C   0  0  0  0  0  0
  -26.3035  -18.5725   17.1567 C   0  0  0  0  0  0
  -25.7086  -18.4265   19.5411 C   0  0  0  0  0  0
  -27.4640  -16.8957   18.4741 C   0  0  0  0  0  0
  -29.4904  -23.0940   20.5443 C   0  0  0  0  0  0
  -28.8681  -24.3396   19.8329 C   0  0  0  0  0  0
  -30.0748  -16.9664   20.3691 C   0  0  0  0  0  0
  -28.6418  -25.5673   20.7491 C   0  0  0  0  0  0
  -29.1587  -18.0534   21.0471 C   0  0  1  0  0  0
  -26.9016  -18.3209   18.5669 C   0  0  0  0  0  0
  -28.5338  -21.7413   18.7288 N   0  0  0  0  0  0
  -29.8331  -15.5582   20.7796 N   0  0  0  0  0  0
  -30.3247  -11.3138   19.8386 H   0  0  0  0  0  0
  -31.4665  -12.4164   19.1353 H   0  0  0  0  0  0
  -29.7313  -11.7783   17.4368 H   0  0  0  0  0  0
  -29.6139  -13.4918   17.7675 H   0  0  0  0  0  0
  -27.8732  -11.2676   18.8804 H   0  0  0  0  0  0
  -27.3384  -12.5273   17.8057 H   0  0  0  0  0  0
  -27.6824  -14.2234   19.5382 H   0  0  0  0  0  0
  -28.6856  -11.9684   21.3716 H   0  0  0  0  0  0
  -28.4435  -13.6185   21.8656 H   0  0  0  0  0  0
  -25.2708   -9.5682   22.4696 H   0  0  0  0  0  0
  -23.9980   -7.4612   22.7482 H   0  0  0  0  0  0
  -21.0787   -8.8596   19.8968 H   0  0  0  0  0  0
  -22.3538  -10.9565   19.6123 H   0  0  0  0  0  0
  -21.1935   -7.6118   23.9628 H   0  0  0  0  0  0
  -21.1520   -6.0572   25.9039 H   0  0  0  0  0  0
  -22.0615   -2.7600   23.2852 H   0  0  0  0  0  0
  -22.4171  -11.9747   22.4786 H   0  0  0  0  0  0
  -21.1137  -13.1072   22.2777 H   0  0  0  0  0  0
  -24.6198  -15.7944   20.4295 H   0  0  0  0  0  0
  -26.2262  -15.5919   19.9702 H   0  0  0  0  0  0
  -26.7222  -32.5630   23.1149 H   0  0  0  0  0  0
  -25.0046  -33.9721   25.0492 H   0  0  0  0  0  0
  -22.6933  -31.3101   21.3963 H   0  0  0  0  0  0
  -23.3725  -35.9696   23.3280 H   0  0  0  0  0  0
  -24.3587  -36.8963   22.2038 H   0  0  0  0  0  0
  -23.7326  -37.6571   23.6625 H   0  0  0  0  0  0
  -26.0247  -31.5627   20.5582 H   0  0  0  0  0  0
  -26.8276  -30.9208   21.9543 H   0  0  0  0  0  0
  -28.1138  -29.1327   21.1316 H   0  0  0  0  0  0
  -26.1140  -25.9214   19.0796 H   0  0  0  0  0  0
  -23.9955  -27.2354   19.0877 H   0  0  0  0  0  0
  -23.7255  -30.5553   19.4098 H   0  0  0  0  0  0
  -22.7418  -29.2081   19.8846 H   0  0  0  0  0  0
  -25.1281  -36.1865   25.0835 H   0  0  0  0  0  0
  -20.9981  -28.3583   24.1549 H   0  0  0  0  0  0
  -20.5923  -26.2415   23.4121 H   0  0  0  0  0  0
  -21.6622  -26.7408   22.1476 H   0  0  0  0  0  0
  -19.6854  -25.5866   21.2052 H   0  0  0  0  0  0
  -19.6453  -27.2638   20.6876 H   0  0  0  0  0  0
  -17.4106  -26.6330   21.4566 H   0  0  0  0  0  0
  -18.0523  -26.0247   22.9788 H   0  0  0  0  0  0
  -19.7762  -30.7376   24.2555 H   0  0  0  0  0  0
  -17.4692  -31.6079   24.5463 H   0  0  0  0  0  0
  -15.5236  -30.2552   23.8101 H   0  0  0  0  0  0
  -15.8712  -28.0643   22.7231 H   0  0  0  0  0  0
  -24.6011  -30.6950   25.7793 H   0  0  0  0  0  0
  -24.8964  -32.2740   26.4955 H   0  0  0  0  0  0
  -25.8240  -30.8769   27.0199 H   0  0  0  0  0  0
  -26.2784  -29.6781   24.1239 H   0  0  0  0  0  0
  -27.4192  -29.7250   25.4478 H   0  0  0  0  0  0
  -27.8581  -30.4283   23.9071 H   0  0  0  0  0  0
  -27.2727  -33.3529   26.2106 H   0  0  0  0  0  0
  -28.3910  -32.6899   25.0339 H   0  0  0  0  0  0
  -28.0799  -31.8395   26.5399 H   0  0  0  0  0  0
  -28.2626  -38.0115   24.7491 H   0  0  0  0  0  0
  -28.1104  -36.2670   24.6301 H   0  0  0  0  0  0
  -27.2333  -37.1490   25.8889 H   0  0  0  0  0  0
  -20.9386  -29.8392   21.6502 H   0  0  0  0  0  0
  -26.0174  -38.2871   24.1390 H   0  0  0  0  0  0
  -29.8944  -20.5993   21.5639 H   0  0  0  0  0  0
  -27.3878  -20.7759   17.4062 H   0  0  0  0  0  0
  -27.5052  -18.3924   22.4507 H   0  0  0  0  0  0
  -28.5193  -17.0333   22.8567 H   0  0  0  0  0  0
  -27.3621  -16.8680   21.5677 H   0  0  0  0  0  0
  -25.7224  -19.4943   17.0868 H   0  0  0  0  0  0
  -25.5973  -17.7852   16.8896 H   0  0  0  0  0  0
  -27.0707  -18.5556   16.3796 H   0  0  0  0  0  0
  -25.5344  -19.4725   19.8187 H   0  0  0  0  0  0
  -25.8838  -17.8807   20.4628 H   0  0  0  0  0  0
  -24.7787  -18.0490   19.1046 H   0  0  0  0  0  0
  -27.7876  -16.5081   19.4250 H   0  0  0  0  0  0
  -28.3102  -16.8547   17.7851 H   0  0  0  0  0  0
  -26.7220  -16.1883   18.1126 H   0  0  0  0  0  0
  -30.5758  -23.1862   20.5681 H   0  0  0  0  0  0
  -29.1808  -23.0776   21.5929 H   0  0  0  0  0  0
  -27.8986  -24.0878   19.4075 H   0  0  0  0  0  0
  -29.5052  -24.5926   18.9850 H   0  0  0  0  0  0
  -31.1246  -17.2147   20.5431 H   0  0  0  0  0  0
  -29.9753  -17.0240   19.2843 H   0  0  0  0  0  0
  -29.5202  -25.7425   21.3719 H   0  0  0  0  0  0
  -27.8127  -25.3795   21.4345 H   0  0  0  0  0  0
  -29.8522  -18.4623   21.7844 H   0  0  0  0  0  0
  -28.8921  -15.3260   21.0528 H   0  0  0  0  0  0
  1 25  1  0  0  0
  1 30  2  0  0  0
  1 87  1  0  0  0
  2  3  1  0  0  0
  2 25  1  0  0  0
  2 88  1  0  0  0
  2 89  1  0  0  0
  3  4  1  0  0  0
  3 90  1  0  0  0
  3 91  1  0  0  0
  4  5  1  0  0  0
  4 92  1  0  0  0
  4 93  1  0  0  0
  5  6  1  0  0  0
  5 26  1  0  0  0
  5 94  1  0  0  0
  6 25  1  0  0  0
  6 95  1  0  0  0
  6 96  1  0  0  0
  7  8  2  0  0  0
  7 26  1  0  0  0
  7 29  1  0  0  0
  8  9  1  0  0  0
  8 22  1  0  0  0
  9 10  1  0  0  0
  9 27  2  0  0  0
 10 11  2  0  0  0
 10 15  1  0  0  0
 11 12  1  0  0  0
 11 97  1  0  0  0
 12 13  2  0  0  0
 12 98  1  0  0  0
 13 14  1  0  0  0
 13 31  1  0  0  0
 14 15  2  0  0  0
 14 99  1  0  0  0
 15100  1  0  0  0
 16 17  2  0  0  0
 16 21  1  0  0  0
 16 31  1  0  0  0
 17 18  1  0  0  0
 17101  1  0  0  0
 18 19  2  0  0  0
 18102  1  0  0  0
 19 20  1  0  0  0
 19 24  1  0  0  0
 20 21  2  0  0  0
 20103  1  0  0  0
 21 23  1  0  0  0
 22 28  1  0  0  0
 22 32  2  0  0  0
 26 27  1  0  0  0
 28104  1  0  0  0
 28105  1  0  0  0
 29106  1  0  0  0
 29107  1  0  0  0
 33 34  1  0  0  0
 33 66  1  0  0  0
 33 70  2  0  0  0
 34 36  1  0  0  0
 34 59  1  0  0  0
 34108  1  0  0  0
 35 44  2  0  0  0
 35 45  1  0  0  0
 35 68  1  0  0  0
 36 56  1  0  0  0
 36109  1  0  0  0
 37 39  1  0  0  0
 37 47  1  0  0  0
 37 66  1  0  0  0
 37110  1  0  0  0
 38 43  2  0  0  0
 38 46  1  0  0  0
 38 47  1  0  0  0
 39 64  1  0  0  0
 39 67  2  0  0  0
 40 52  1  0  0  0
 40 53  2  0  0  0
 40 58  1  0  0  0
 41111  1  0  0  0
 41112  1  0  0  0
 41113  1  0  0  0
 41 48  1  0  0  0
 42 43  1  0  0  0
 42 66  1  0  0  0
 42114  1  0  0  0
 42115  1  0  0  0
 43 44  1  0  0  0
 44116  1  0  0  0
 45 46  2  0  0  0
 45117  1  0  0  0
 46118  1  0  0  0
 47119  1  0  0  0
 47120  1  0  0  0
 48 56  1  0  0  0
 48 65  1  0  0  0
 48121  1  0  0  0
 49 50  1  0  0  0
 49 53  1  0  0  0
 49 64  1  0  0  0
 49122  1  0  0  0
 50 51  1  0  0  0
 50123  1  0  0  0
 50124  1  0  0  0
 51 52  1  0  0  0
 51125  1  0  0  0
 51126  1  0  0  0
 52127  1  0  0  0
 52128  1  0  0  0
 53 54  1  0  0  0
 54 55  2  0  0  0
 54129  1  0  0  0
 55 57  1  0  0  0
 55130  1  0  0  0
 56 69  2  0  0  0
 57 58  2  0  0  0
 57131  1  0  0  0
 58132  1  0  0  0
 59 60  1  0  0  0
 59 61  1  0  0  0
 59 62  1  0  0  0
 60133  1  0  0  0
 60134  1  0  0  0
 60135  1  0  0  0
 61136  1  0  0  0
 61137  1  0  0  0
 61138  1  0  0  0
 62139  1  0  0  0
 62140  1  0  0  0
 62141  1  0  0  0
 63 65  1  0  0  0
 63142  1  0  0  0
 63143  1  0  0  0
 63144  1  0  0  0
 64145  1  0  0  0
 65146  1  0  0  0
 68 83  1  0  0  0
 71 73  2  0  0  0
 71 75  1  0  0  0
 71147  1  0  0  0
 72 74  2  0  0  0
 72 86  1  0  0  0
 72148  1  0  0  0
 73 74  1  0  0  0
 73 84  1  0  0  0
 74 85  1  0  0  0
 75 80  1  0  0  0
 75 86  2  0  0  0
 76149  1  0  0  0
 76150  1  0  0  0
 76151  1  0  0  0
 76 84  1  0  0  0
 77152  1  0  0  0
 77153  1  0  0  0
 77154  1  0  0  0
 77 85  1  0  0  0
 78 85  1  0  0  0
 78155  1  0  0  0
 78156  1  0  0  0
 78157  1  0  0  0
 79 85  1  0  0  0
 79158  1  0  0  0
 79159  1  0  0  0
 79160  1  0  0  0
 80 81  1  0  0  0
 80161  1  0  0  0
 80162  1  0  0  0
 81 83  1  0  0  0
 81163  1  0  0  0
 81164  1  0  0  0
 82 84  1  0  0  0
 82 87  1  0  0  0
 82165  1  0  0  0
 82166  1  0  0  0
 83167  1  0  0  0
 83168  1  0  0  0
 84169  1  0  0  0
 87170  1  0  0  0
M  ISO  4   1 100  68 101  83 101  87 100
M  END
> <chiral flag>
0

> <version>
0

> <s_m_source_file>
/data/baiqing/PycharmProjects/Reinvent-master-3.2/result/LINK_invent/BTK/process_docking_weight1_custom_sum_contain_oxygen_bond_distance_aromatic_linkinvent_7_9_3/rearranged_h_0085.sdf

> <i_m_source_file_index>
74

> <r_mmod_Potential_Energy-OPLS-2005>
-90.0268859863281

> <r_mmod_Stretch_Energy-OPLS-2005>
51.9395904541016

> <r_mmod_Bend_Energy-OPLS-2005>
145.485214233398

> <r_mmod_Torsional_Energy-OPLS-2005>
287.94189453125

> <r_mmod_Improper_Torsional_Energy-OPLS-2005>
9.19396495819092

> <r_mmod_Van_der_Waal_Energy-OPLS-2005>
165.744110107422

> <r_mmod_Electrostatic_Energy-OPLS-2005>
-561.767211914062

> <r_mmod_Solvation_Energy-OPLS-2005>
-207.691314697266

> <b_mmod_Minimization_Converged-OPLS-2005>
0

> <r_mmod_RMS_Derivative-OPLS-2005>
9.30501174926758

$$$$
77
                    3D
 Structure written by MMmdl.
184192  0  0  1  0            999 V2000
  -30.7921  -14.3623   20.6827 C   0  0  0  0  0  0
  -30.4130  -12.2890   19.4024 C   0  0  0  0  0  0
  -29.4843  -12.5212   18.1967 C   0  0  0  0  0  0
  -28.0112  -12.3753   18.6167 C   0  0  0  0  0  0
  -27.6687  -13.2056   19.8812 C   0  0  2  0  0  0
  -28.7076  -12.9711   21.0018 C   0  0  0  0  0  0
  -25.2624  -13.8169   20.5697 C   0  0  0  0  0  0
  -24.1867  -13.0448   20.9168 C   0  0  0  0  0  0
  -24.6412  -11.6911   20.8735 C   0  0  0  0  0  0
  -23.9071  -10.4299   21.0395 C   0  0  0  0  0  0
  -24.3617   -9.4212   21.9179 C   0  0  0  0  0  0
  -23.6288   -8.2254   22.0756 C   0  0  0  0  0  0
  -22.4272   -8.0289   21.3546 C   0  0  0  0  0  0
  -21.9911   -9.0261   20.4649 C   0  0  0  0  0  0
  -22.7240  -10.2140   20.3051 C   0  0  0  0  0  0
  -21.6855   -6.0735   22.5276 C   0  0  0  0  0  0
  -21.4015   -6.5638   23.8210 C   0  0  0  0  0  0
  -21.3658   -5.6794   24.9175 C   0  0  0  0  0  0
  -21.6045   -4.3054   24.7232 C   0  0  0  0  0  0
  -21.8819   -3.8145   23.4352 C   0  0  0  0  0  0
  -21.9194   -4.6961   22.3403 C   0  0  0  0  0  0
  -22.7887  -13.5241   21.1820 C   0  0  0  0  0  0
  -22.1662   -4.2147   21.0980 F   0  0  0  0  0  0
  -21.5630   -3.4541   25.7745 F   0  0  0  0  0  0
  -30.0522  -13.2443   20.4616 N   0  0  0  0  0  0
  -26.3066  -12.9343   20.3402 N   0  0  0  0  0  0
  -25.9340  -11.6496   20.5770 N   0  0  0  0  0  0
  -22.0520  -12.8247   22.0379 N   0  0  0  0  0  0
  -25.4364  -15.1886   20.4109 N   0  0  0  0  0  0
  -31.7978  -14.6458   20.0259 O   0  0  0  0  0  0
  -21.6645   -6.8884   21.4239 O   0  0  0  0  0  0
  -22.3578  -14.5545   20.6658 O   0  0  0  0  0  0
  -24.6117  -31.8712   23.2098 C   0  0  0  0  0  0
  -25.9023  -32.4849   23.8395 C   0  0  1  0  0  0
  -27.2366  -27.4615   20.1020 C   0  0  0  0  0  0
  -25.5889  -33.8643   24.2331 N   0  0  0  0  0  0
  -23.3997  -30.4901   21.5509 C   0  0  2  0  0  0
  -24.8479  -28.9598   20.1128 C   0  0  0  0  0  0
  -22.7399  -29.4655   22.5008 C   0  0  0  0  0  0
  -18.0282  -28.1347   22.8492 C   0  0  0  0  0  0
  -24.1500  -36.7309   23.2638 C   0  0  0  0  0  0
  -25.9242  -30.8435   21.3612 C   0  0  0  0  0  0
  -26.0059  -29.4829   20.7043 C   0  0  0  0  0  0
  -27.2071  -28.7430   20.6893 C   0  0  0  0  0  0
  -26.0688  -26.9469   19.5013 C   0  0  0  0  0  0
  -24.8739  -27.6921   19.5036 C   0  0  0  0  0  0
  -23.6074  -29.8217   20.1656 C   0  0  0  0  0  0
  -25.4124  -36.3129   24.0338 C   0  0  1  0  0  0
  -20.5867  -28.3638   23.1318 C   0  0  2  0  0  0
  -20.6780  -26.9381   22.5413 C   0  0  0  0  0  0
  -19.5766  -26.6373   21.5195 C   0  0  0  0  0  0
  -18.1936  -26.7902   22.1605 C   0  0  0  0  0  0
  -19.1531  -28.8806   23.2907 C   0  0  0  0  0  0
  -18.9460  -30.1407   23.8921 C   0  0  0  0  0  0
  -17.6467  -30.6566   24.0544 C   0  0  0  0  0  0
  -25.9030  -34.9491   23.5133 C   0  0  0  0  0  0
  -16.5355  -29.9059   23.6308 C   0  0  0  0  0  0
  -16.7276  -28.6466   23.0352 C   0  0  0  0  0  0
  -26.4457  -31.6609   25.0704 C   0  0  0  0  0  0
  -25.3727  -31.3716   26.1454 C   0  0  0  0  0  0
  -27.0282  -30.3069   24.6039 C   0  0  0  0  0  0
  -27.6054  -32.4310   25.7464 C   0  0  0  0  0  0
  -27.5603  -37.1801   24.8466 C   0  0  0  0  0  0
  -21.4137  -29.3004   22.3729 N   0  0  0  0  0  0
  -26.4326  -37.3793   23.9398 N   0  0  0  0  0  0
  -24.6635  -31.0808   22.0996 N   0  0  0  0  0  0
  -23.4180  -28.8222   23.3061 O   0  0  0  0  0  0
  -28.3886  -26.7115   20.1343 O   0  0  0  0  0  0
  -26.5588  -34.8956   22.4686 O   0  0  0  0  0  0
  -23.5313  -32.1468   23.7503 O   0  0  0  0  0  0
  -29.9499  -20.0605   22.3134 C   0  0  0  0  0  0
  -29.0153  -18.6862   20.8442 C   0  0  0  0  0  0
  -29.8526  -20.7493   21.1338 C   0  0  0  0  0  0
  -29.2389  -19.8644   20.1739 C   0  0  0  0  0  0
  -28.6139  -18.3308   24.4208 C   0  0  0  0  0  0
  -28.5185  -26.1231   22.4849 C   0  0  0  0  0  0
  -28.6343  -18.7669   17.9723 C   0  0  0  0  0  0
  -29.8974  -20.8986   17.9165 C   0  0  0  0  0  0
  -27.5096  -20.8809   18.6769 C   0  0  0  0  0  0
  -31.7490  -17.8946   23.9856 C   0  0  0  0  0  0
  -30.3955  -15.8754   24.5423 C   0  0  0  0  0  0
  -30.3120  -22.1843   20.9743 C   0  0  0  0  0  0
  -29.2169  -23.2018   21.3393 C   0  0  0  0  0  0
  -29.4031  -24.5703   20.6518 C   0  0  0  0  0  0
  -31.1906  -16.2767   22.1852 C   0  0  0  0  0  0
  -29.3058  -17.7457   23.1718 C   0  0  2  0  0  0
  -28.3305  -25.6056   21.0447 C   0  0  2  0  0  0
  -28.8381  -20.1084   18.7098 C   0  0  0  0  0  0
  -30.6343  -16.9584   23.4661 C   0  0  0  0  0  0
  -29.4320  -18.7922   22.1527 N   0  0  0  0  0  0
  -30.4155  -15.1231   21.7181 N   0  0  0  0  0  0
  -31.4573  -12.3754   19.0960 H   0  0  0  0  0  0
  -30.3019  -11.2704   19.7772 H   0  0  0  0  0  0
  -29.7157  -11.8102   17.4022 H   0  0  0  0  0  0
  -29.6542  -13.5147   17.7783 H   0  0  0  0  0  0
  -27.8216  -11.3180   18.8044 H   0  0  0  0  0  0
  -27.3560  -12.6583   17.7924 H   0  0  0  0  0  0
  -27.7237  -14.2571   19.5976 H   0  0  0  0  0  0
  -28.6676  -11.9379   21.3480 H   0  0  0  0  0  0
  -28.4593  -13.5796   21.8712 H   0  0  0  0  0  0
  -25.2758   -9.5701   22.4759 H   0  0  0  0  0  0
  -23.9999   -7.4655   22.7481 H   0  0  0  0  0  0
  -21.0848   -8.8777   19.8960 H   0  0  0  0  0  0
  -22.3686  -10.9682   19.6171 H   0  0  0  0  0  0
  -21.2005   -7.6149   23.9714 H   0  0  0  0  0  0
  -21.1479   -6.0525   25.9079 H   0  0  0  0  0  0
  -22.0597   -2.7609   23.2853 H   0  0  0  0  0  0
  -22.4113  -11.9907   22.4780 H   0  0  0  0  0  0
  -21.1137  -13.1292   22.2558 H   0  0  0  0  0  0
  -24.6740  -15.8477   20.5222 H   0  0  0  0  0  0
  -26.2964  -15.6256   20.1029 H   0  0  0  0  0  0
  -26.7112  -32.5586   23.1180 H   0  0  0  0  0  0
  -25.0084  -33.9814   25.0515 H   0  0  0  0  0  0
  -22.6901  -31.3076   21.4146 H   0  0  0  0  0  0
  -23.3788  -35.9613   23.3306 H   0  0  0  0  0  0
  -24.3617  -36.8897   22.2054 H   0  0  0  0  0  0
  -23.7215  -37.6492   23.6652 H   0  0  0  0  0  0
  -26.0283  -31.6126   20.5956 H   0  0  0  0  0  0
  -26.8115  -30.8978   21.9779 H   0  0  0  0  0  0
  -28.1031  -29.1344   21.1522 H   0  0  0  0  0  0
  -26.0831  -25.9693   19.0419 H   0  0  0  0  0  0
  -23.9858  -27.2854   19.0389 H   0  0  0  0  0  0
  -23.7088  -30.5978   19.4057 H   0  0  0  0  0  0
  -22.7341  -29.2346   19.8755 H   0  0  0  0  0  0
  -25.1302  -36.2012   25.0830 H   0  0  0  0  0  0
  -20.9946  -28.3216   24.1446 H   0  0  0  0  0  0
  -20.5692  -26.2250   23.3608 H   0  0  0  0  0  0
  -21.6655  -26.7454   22.1190 H   0  0  0  0  0  0
  -19.6952  -25.6289   21.1223 H   0  0  0  0  0  0
  -19.6709  -27.3202   20.6739 H   0  0  0  0  0  0
  -17.4212  -26.6653   21.4008 H   0  0  0  0  0  0
  -18.0332  -26.0035   22.8994 H   0  0  0  0  0  0
  -19.7942  -30.7186   24.2341 H   0  0  0  0  0  0
  -17.5025  -31.6263   24.5123 H   0  0  0  0  0  0
  -15.5351  -30.2953   23.7621 H   0  0  0  0  0  0
  -15.8687  -28.0775   22.7058 H   0  0  0  0  0  0
  -24.5869  -30.7111   25.7770 H   0  0  0  0  0  0
  -24.8955  -32.2878   26.4945 H   0  0  0  0  0  0
  -25.8051  -30.8831   27.0192 H   0  0  0  0  0  0
  -26.2803  -29.6848   24.1099 H   0  0  0  0  0  0
  -27.4086  -29.7292   25.4470 H   0  0  0  0  0  0
  -27.8636  -30.4417   23.9160 H   0  0  0  0  0  0
  -27.2675  -33.3595   26.2088 H   0  0  0  0  0  0
  -28.3821  -32.6873   25.0246 H   0  0  0  0  0  0
  -28.0761  -31.8393   26.5322 H   0  0  0  0  0  0
  -28.2598  -38.0123   24.7538 H   0  0  0  0  0  0
  -28.1110  -36.2645   24.6262 H   0  0  0  0  0  0
  -27.2319  -37.1405   25.8867 H   0  0  0  0  0  0
  -20.9319  -29.8673   21.6901 H   0  0  0  0  0  0
  -26.0240  -38.2873   24.1405 H   0  0  0  0  0  0
  -30.3360  -20.3749   23.2744 H   0  0  0  0  0  0
  -28.5665  -17.7615   20.5073 H   0  0  0  0  0  0
  -28.3082  -17.5518   25.1163 H   0  0  0  0  0  0
  -27.7101  -18.8723   24.1394 H   0  0  0  0  0  0
  -29.2530  -19.0291   24.9597 H   0  0  0  0  0  0
  -27.7276  -26.8186   22.7636 H   0  0  0  0  0  0
  -29.4687  -26.6444   22.6008 H   0  0  0  0  0  0
  -28.4916  -25.3109   23.2101 H   0  0  0  0  0  0
  -29.5372  -18.1559   17.9992 H   0  0  0  0  0  0
  -28.3819  -18.9263   16.9237 H   0  0  0  0  0  0
  -27.8192  -18.1816   18.3988 H   0  0  0  0  0  0
  -30.9040  -20.5226   18.1012 H   0  0  0  0  0  0
  -29.8735  -21.9639   18.1342 H   0  0  0  0  0  0
  -29.7162  -20.8290   16.8437 H   0  0  0  0  0  0
  -26.7168  -20.3311   19.1859 H   0  0  0  0  0  0
  -27.1805  -21.0680   17.6549 H   0  0  0  0  0  0
  -27.5990  -21.8491   19.1657 H   0  0  0  0  0  0
  -32.6423  -17.3316   24.2579 H   0  0  0  0  0  0
  -31.4434  -18.4469   24.8729 H   0  0  0  0  0  0
  -32.0566  -18.6186   23.2315 H   0  0  0  0  0  0
  -31.2639  -15.2247   24.6486 H   0  0  0  0  0  0
  -29.5397  -15.2428   24.3050 H   0  0  0  0  0  0
  -30.2113  -16.3137   25.5231 H   0  0  0  0  0  0
  -30.7023  -22.3566   19.9776 H   0  0  0  0  0  0
  -31.1738  -22.3465   21.6222 H   0  0  0  0  0  0
  -29.1861  -23.3043   22.4240 H   0  0  0  0  0  0
  -28.2403  -22.8110   21.0587 H   0  0  0  0  0  0
  -29.3578  -24.4158   19.5724 H   0  0  0  0  0  0
  -30.3984  -24.9646   20.8590 H   0  0  0  0  0  0
  -32.2039  -15.9210   22.3827 H   0  0  0  0  0  0
  -31.2891  -17.0005   21.3741 H   0  0  0  0  0  0
  -28.5992  -17.0185   22.7689 H   0  0  0  0  0  0
  -27.3562  -25.1182   20.9778 H   0  0  0  0  0  0
  -29.6125  -14.8293   22.2524 H   0  0  0  0  0  0
  1 25  1  0  0  0
  1 30  2  0  0  0
  1 91  1  0  0  0
  2  3  1  0  0  0
  2 25  1  0  0  0
  2 92  1  0  0  0
  2 93  1  0  0  0
  3  4  1  0  0  0
  3 94  1  0  0  0
  3 95  1  0  0  0
  4  5  1  0  0  0
  4 96  1  0  0  0
  4 97  1  0  0  0
  5  6  1  0  0  0
  5 26  1  0  0  0
  5 98  1  0  0  0
  6 25  1  0  0  0
  6 99  1  0  0  0
  6100  1  0  0  0
  7  8  2  0  0  0
  7 26  1  0  0  0
  7 29  1  0  0  0
  8  9  1  0  0  0
  8 22  1  0  0  0
  9 10  1  0  0  0
  9 27  2  0  0  0
 10 11  2  0  0  0
 10 15  1  0  0  0
 11 12  1  0  0  0
 11101  1  0  0  0
 12 13  2  0  0  0
 12102  1  0  0  0
 13 14  1  0  0  0
 13 31  1  0  0  0
 14 15  2  0  0  0
 14103  1  0  0  0
 15104  1  0  0  0
 16 17  2  0  0  0
 16 21  1  0  0  0
 16 31  1  0  0  0
 17 18  1  0  0  0
 17105  1  0  0  0
 18 19  2  0  0  0
 18106  1  0  0  0
 19 20  1  0  0  0
 19 24  1  0  0  0
 20 21  2  0  0  0
 20107  1  0  0  0
 21 23  1  0  0  0
 22 28  1  0  0  0
 22 32  2  0  0  0
 26 27  1  0  0  0
 28108  1  0  0  0
 28109  1  0  0  0
 29110  1  0  0  0
 29111  1  0  0  0
 33 34  1  0  0  0
 33 66  1  0  0  0
 33 70  2  0  0  0
 34 36  1  0  0  0
 34 59  1  0  0  0
 34112  1  0  0  0
 35 44  2  0  0  0
 35 45  1  0  0  0
 35 68  1  0  0  0
 36 56  1  0  0  0
 36113  1  0  0  0
 37 39  1  0  0  0
 37 47  1  0  0  0
 37 66  1  0  0  0
 37114  1  0  0  0
 38 43  2  0  0  0
 38 46  1  0  0  0
 38 47  1  0  0  0
 39 64  1  0  0  0
 39 67  2  0  0  0
 40 52  1  0  0  0
 40 53  2  0  0  0
 40 58  1  0  0  0
 41115  1  0  0  0
 41116  1  0  0  0
 41117  1  0  0  0
 41 48  1  0  0  0
 42 43  1  0  0  0
 42 66  1  0  0  0
 42118  1  0  0  0
 42119  1  0  0  0
 43 44  1  0  0  0
 44120  1  0  0  0
 45 46  2  0  0  0
 45121  1  0  0  0
 46122  1  0  0  0
 47123  1  0  0  0
 47124  1  0  0  0
 48 56  1  0  0  0
 48 65  1  0  0  0
 48125  1  0  0  0
 49 50  1  0  0  0
 49 53  1  0  0  0
 49 64  1  0  0  0
 49126  1  0  0  0
 50 51  1  0  0  0
 50127  1  0  0  0
 50128  1  0  0  0
 51 52  1  0  0  0
 51129  1  0  0  0
 51130  1  0  0  0
 52131  1  0  0  0
 52132  1  0  0  0
 53 54  1  0  0  0
 54 55  2  0  0  0
 54133  1  0  0  0
 55 57  1  0  0  0
 55134  1  0  0  0
 56 69  2  0  0  0
 57 58  2  0  0  0
 57135  1  0  0  0
 58136  1  0  0  0
 59 60  1  0  0  0
 59 61  1  0  0  0
 59 62  1  0  0  0
 60137  1  0  0  0
 60138  1  0  0  0
 60139  1  0  0  0
 61140  1  0  0  0
 61141  1  0  0  0
 61142  1  0  0  0
 62143  1  0  0  0
 62144  1  0  0  0
 62145  1  0  0  0
 63 65  1  0  0  0
 63146  1  0  0  0
 63147  1  0  0  0
 63148  1  0  0  0
 64149  1  0  0  0
 65150  1  0  0  0
 68 87  1  0  0  0
 71 73  2  0  0  0
 71 90  1  0  0  0
 71151  1  0  0  0
 72 74  2  0  0  0
 72 90  1  0  0  0
 72152  1  0  0  0
 73 74  1  0  0  0
 73 82  1  0  0  0
 74 88  1  0  0  0
 75153  1  0  0  0
 75154  1  0  0  0
 75155  1  0  0  0
 75 86  1  0  0  0
 76156  1  0  0  0
 76157  1  0  0  0
 76158  1  0  0  0
 76 87  1  0  0  0
 77159  1  0  0  0
 77160  1  0  0  0
 77161  1  0  0  0
 77 88  1  0  0  0
 78 88  1  0  0  0
 78162  1  0  0  0
 78163  1  0  0  0
 78164  1  0  0  0
 79 88  1  0  0  0
 79165  1  0  0  0
 79166  1  0  0  0
 79167  1  0  0  0
 80168  1  0  0  0
 80169  1  0  0  0
 80170  1  0  0  0
 80 89  1  0  0  0
 81 89  1  0  0  0
 81171  1  0  0  0
 81172  1  0  0  0
 81173  1  0  0  0
 82 83  1  0  0  0
 82174  1  0  0  0
 82175  1  0  0  0
 83 84  1  0  0  0
 83176  1  0  0  0
 83177  1  0  0  0
 84 87  1  0  0  0
 84178  1  0  0  0
 84179  1  0  0  0
 85 89  1  0  0  0
 85 91  1  0  0  0
 85180  1  0  0  0
 85181  1  0  0  0
 86 89  1  0  0  0
 86 90  1  0  0  0
 86182  1  0  0  0
 87183  1  0  0  0
 91184  1  0  0  0
M  ISO  4   1 100  68 101  87 101  91 100
M  END
> <chiral flag>
0

> <version>
0

> <s_m_source_file>
/data/baiqing/PycharmProjects/Reinvent-master-3.2/result/LINK_invent/BTK/process_docking_weight1_custom_sum_contain_oxygen_bond_distance_aromatic_linkinvent_7_9_3/rearranged_h_0085.sdf

> <i_m_source_file_index>
75

> <r_mmod_Potential_Energy-OPLS-2005>
-101.408142089844

> <r_mmod_Stretch_Energy-OPLS-2005>
37.7995262145996

> <r_mmod_Bend_Energy-OPLS-2005>
110.814735412598

> <r_mmod_Torsional_Energy-OPLS-2005>
266.962585449219

> <r_mmod_Improper_Torsional_Energy-OPLS-2005>
2.15494179725647

> <r_mmod_Van_der_Waal_Energy-OPLS-2005>
132.808166503906

> <r_mmod_Electrostatic_Energy-OPLS-2005>
-476.964996337891

> <r_mmod_Solvation_Energy-OPLS-2005>
-183.261154174805

> <b_mmod_Minimization_Converged-OPLS-2005>
0

> <r_mmod_RMS_Derivative-OPLS-2005>
2.33793807029724

$$$$
78
                    3D
 Structure written by MMmdl.
167175  0  0  1  0            999 V2000
  -30.6312  -14.6820   20.4944 C   0  0  0  0  0  0
  -30.4206  -12.4134   19.4716 C   0  0  0  0  0  0
  -29.5108  -12.5202   18.2287 C   0  0  0  0  0  0
  -28.0272  -12.3797   18.6249 C   0  0  0  0  0  0
  -27.6494  -13.2369   19.8641 C   0  0  2  0  0  0
  -28.6906  -13.1249   20.9986 C   0  0  0  0  0  0
  -25.2520  -13.8204   20.5666 C   0  0  0  0  0  0
  -24.1817  -13.0444   20.9196 C   0  0  0  0  0  0
  -24.6405  -11.6917   20.8728 C   0  0  0  0  0  0
  -23.9080  -10.4282   21.0377 C   0  0  0  0  0  0
  -24.3630   -9.4191   21.9146 C   0  0  0  0  0  0
  -23.6299   -8.2237   22.0733 C   0  0  0  0  0  0
  -22.4280   -8.0277   21.3534 C   0  0  0  0  0  0
  -21.9918   -9.0244   20.4629 C   0  0  0  0  0  0
  -22.7253  -10.2115   20.3028 C   0  0  0  0  0  0
  -21.6869   -6.0709   22.5256 C   0  0  0  0  0  0
  -21.4008   -6.5603   23.8183 C   0  0  0  0  0  0
  -21.3672   -5.6762   24.9153 C   0  0  0  0  0  0
  -21.6065   -4.3025   24.7206 C   0  0  0  0  0  0
  -21.8839   -3.8115   23.4326 C   0  0  0  0  0  0
  -21.9193   -4.6933   22.3383 C   0  0  0  0  0  0
  -22.7830  -13.5213   21.1869 C   0  0  0  0  0  0
  -22.1675   -4.2115   21.0969 F   0  0  0  0  0  0
  -21.5652   -3.4518   25.7723 F   0  0  0  0  0  0
  -29.9959  -13.4650   20.4249 N   0  0  0  0  0  0
  -26.2979  -12.9423   20.3320 N   0  0  0  0  0  0
  -25.9357  -11.6543   20.5768 N   0  0  0  0  0  0
  -22.0516  -12.8155   22.0414 N   0  0  0  0  0  0
  -25.4208  -15.1917   20.4023 N   0  0  0  0  0  0
  -31.8033  -14.7879   20.1256 O   0  0  0  0  0  0
  -21.6658   -6.8867   21.4226 O   0  0  0  0  0  0
  -22.3478  -14.5524   20.6745 O   0  0  0  0  0  0
  -24.6233  -31.8550   23.1937 C   0  0  0  0  0  0
  -25.9016  -32.4788   23.8315 C   0  0  1  0  0  0
  -27.2324  -27.2790   20.1229 C   0  0  0  0  0  0
  -25.5833  -33.8608   24.2244 N   0  0  0  0  0  0
  -23.4231  -30.4727   21.5343 C   0  0  2  0  0  0
  -24.8761  -28.9134   20.1048 C   0  0  0  0  0  0
  -22.7490  -29.4531   22.4848 C   0  0  0  0  0  0
  -18.0314  -28.1360   22.8476 C   0  0  0  0  0  0
  -24.1484  -36.7268   23.2659 C   0  0  0  0  0  0
  -25.9648  -30.7735   21.3691 C   0  0  0  0  0  0
  -26.0412  -29.3932   20.7140 C   0  0  0  0  0  0
  -27.2196  -28.5859   20.7141 C   0  0  0  0  0  0
  -26.0457  -26.8533   19.4879 C   0  0  0  0  0  0
  -24.8813  -27.6522   19.4827 C   0  0  0  0  0  0
  -23.6449  -29.7997   20.1522 C   0  0  0  0  0  0
  -25.4108  -36.3096   24.0358 C   0  0  1  0  0  0
  -20.5911  -28.3637   23.1279 C   0  0  2  0  0  0
  -20.6782  -26.9359   22.5404 C   0  0  0  0  0  0
  -19.5762  -26.6344   21.5201 C   0  0  0  0  0  0
  -18.1936  -26.7902   22.1621 C   0  0  0  0  0  0
  -19.1572  -28.8811   23.2869 C   0  0  0  0  0  0
  -18.9499  -30.1422   23.8876 C   0  0  0  0  0  0
  -17.6504  -30.6554   24.0532 C   0  0  0  0  0  0
  -25.9043  -34.9474   23.5099 C   0  0  0  0  0  0
  -16.5387  -29.9069   23.6333 C   0  0  0  0  0  0
  -16.7300  -28.6495   23.0328 C   0  0  0  0  0  0
  -26.4421  -31.6657   25.0713 C   0  0  0  0  0  0
  -25.3671  -31.3837   26.1464 C   0  0  0  0  0  0
  -27.0236  -30.3110   24.6096 C   0  0  0  0  0  0
  -27.5958  -32.4419   25.7471 C   0  0  0  0  0  0
  -27.5573  -37.1793   24.8490 C   0  0  0  0  0  0
  -21.4187  -29.3014   22.3657 N   0  0  0  0  0  0
  -26.4290  -37.3798   23.9431 N   0  0  0  0  0  0
  -24.6889  -31.0495   22.0909 N   0  0  0  0  0  0
  -23.4223  -28.8035   23.2892 O   0  0  0  0  0  0
  -28.3719  -26.4558   20.2232 O   0  0  0  0  0  0
  -26.5649  -34.8939   22.4698 O   0  0  0  0  0  0
  -23.5378  -32.1357   23.7217 O   0  0  0  0  0  0
  -31.4652  -21.6396   19.2712 C   0  0  0  0  0  0
  -30.5877  -22.6893   19.5540 C   0  0  0  0  0  0
  -31.1378  -20.3087   19.5916 C   0  0  0  0  0  0
  -29.3501  -22.4479   20.1738 C   0  0  0  0  0  0
  -29.8854  -20.0349   20.2264 C   0  0  0  0  0  0
  -32.2011  -19.2797   19.2164 C   0  0  0  0  0  0
  -26.5099  -22.5673   22.0276 C   0  0  0  0  0  0
  -28.1292  -18.1960   19.7587 C   0  0  0  0  0  0
  -29.0623  -24.1784   22.0001 C   0  0  0  0  0  0
  -26.9633  -23.3679   20.7872 C   0  0  0  0  0  0
  -30.3600  -17.2559   20.5823 C   0  0  0  0  0  0
  -28.5109  -25.0580   19.6978 C   0  0  0  0  0  0
  -29.3669  -18.5462   20.5983 C   0  0  1  0  0  0
  -28.4785  -23.7237   20.6499 C   0  0  2  0  0  0
  -29.0565  -21.1225   20.5227 N   0  0  0  0  0  0
  -29.8888  -15.8147   20.7767 N   0  0  0  0  0  0
  -31.4695  -12.5112   19.1865 H   0  0  0  0  0  0
  -30.3276  -11.4229   19.9219 H   0  0  0  0  0  0
  -29.7689  -11.7518   17.4992 H   0  0  0  0  0  0
  -29.6777  -13.4799   17.7344 H   0  0  0  0  0  0
  -27.8382  -11.3246   18.8265 H   0  0  0  0  0  0
  -27.3859  -12.6476   17.7851 H   0  0  0  0  0  0
  -27.6620  -14.2744   19.5265 H   0  0  0  0  0  0
  -28.7048  -12.1189   21.4212 H   0  0  0  0  0  0
  -28.4443  -13.7983   21.8208 H   0  0  0  0  0  0
  -25.2779   -9.5657   22.4708 H   0  0  0  0  0  0
  -24.0010   -7.4618   22.7430 H   0  0  0  0  0  0
  -21.0865   -8.8757   19.8920 H   0  0  0  0  0  0
  -22.3713  -10.9654   19.6135 H   0  0  0  0  0  0
  -21.1992   -7.6107   23.9671 H   0  0  0  0  0  0
  -21.1498   -6.0492   25.9053 H   0  0  0  0  0  0
  -22.0618   -2.7578   23.2835 H   0  0  0  0  0  0
  -22.4169  -11.9811   22.4771 H   0  0  0  0  0  0
  -21.1124  -13.1117   22.2663 H   0  0  0  0  0  0
  -24.6547  -15.8506   20.4919 H   0  0  0  0  0  0
  -26.2601  -15.6117   20.0267 H   0  0  0  0  0  0
  -26.7047  -32.5452   23.1010 H   0  0  0  0  0  0
  -24.9969  -33.9778   25.0379 H   0  0  0  0  0  0
  -22.7173  -31.2926   21.3789 H   0  0  0  0  0  0
  -23.3781  -35.9561   23.3362 H   0  0  0  0  0  0
  -24.3564  -36.8848   22.2070 H   0  0  0  0  0  0
  -23.7214  -37.6473   23.6656 H   0  0  0  0  0  0
  -26.0976  -31.5276   20.5934 H   0  0  0  0  0  0
  -26.8445  -30.8335   21.9981 H   0  0  0  0  0  0
  -28.1093  -28.9481   21.2085 H   0  0  0  0  0  0
  -25.9841  -25.8835   19.0159 H   0  0  0  0  0  0
  -23.9852  -27.2777   19.0076 H   0  0  0  0  0  0
  -23.7709  -30.5722   19.3928 H   0  0  0  0  0  0
  -22.7634  -29.2347   19.8454 H   0  0  0  0  0  0
  -25.1306  -36.1925   25.0859 H   0  0  0  0  0  0
  -21.0056  -28.3164   24.1384 H   0  0  0  0  0  0
  -20.5669  -26.2216   23.3580 H   0  0  0  0  0  0
  -21.6630  -26.7309   22.1209 H   0  0  0  0  0  0
  -19.6896  -25.6258   21.1245 H   0  0  0  0  0  0
  -19.6717  -27.3126   20.6708 H   0  0  0  0  0  0
  -17.4218  -26.6666   21.4024 H   0  0  0  0  0  0
  -18.0290  -26.0039   22.9005 H   0  0  0  0  0  0
  -19.7981  -30.7236   24.2199 H   0  0  0  0  0  0
  -17.5091  -31.6229   24.5141 H   0  0  0  0  0  0
  -15.5410  -30.2972   23.7656 H   0  0  0  0  0  0
  -15.8688  -28.0804   22.7035 H   0  0  0  0  0  0
  -24.5881  -30.7085   25.7912 H   0  0  0  0  0  0
  -24.8790  -32.3017   26.4788 H   0  0  0  0  0  0
  -25.8066  -30.9206   27.0305 H   0  0  0  0  0  0
  -26.2775  -29.6965   24.1035 H   0  0  0  0  0  0
  -27.3940  -29.7238   25.4512 H   0  0  0  0  0  0
  -27.8662  -30.4517   23.9304 H   0  0  0  0  0  0
  -27.2517  -33.3760   26.1920 H   0  0  0  0  0  0
  -28.3800  -32.6936   25.0326 H   0  0  0  0  0  0
  -28.0555  -31.8657   26.5508 H   0  0  0  0  0  0
  -28.2590  -38.0091   24.7533 H   0  0  0  0  0  0
  -28.1082  -36.2626   24.6325 H   0  0  0  0  0  0
  -27.2298  -37.1448   25.8899 H   0  0  0  0  0  0
  -20.9290  -29.8893   21.7053 H   0  0  0  0  0  0
  -26.0185  -38.2869   24.1475 H   0  0  0  0  0  0
  -32.4167  -21.8771   18.8136 H   0  0  0  0  0  0
  -30.9287  -23.6864   19.3325 H   0  0  0  0  0  0
  -33.1248  -19.7637   18.8996 H   0  0  0  0  0  0
  -31.8837  -18.6612   18.3746 H   0  0  0  0  0  0
  -32.4916  -18.6595   20.0600 H   0  0  0  0  0  0
  -25.4245  -22.4516   22.0289 H   0  0  0  0  0  0
  -26.7675  -23.0773   22.9552 H   0  0  0  0  0  0
  -26.9329  -21.5640   22.0554 H   0  0  0  0  0  0
  -27.3749  -18.9816   19.8064 H   0  0  0  0  0  0
  -27.6581  -17.2816   20.1173 H   0  0  0  0  0  0
  -28.3964  -18.0410   18.7140 H   0  0  0  0  0  0
  -29.1157  -23.3580   22.7174 H   0  0  0  0  0  0
  -28.4760  -24.9837   22.4374 H   0  0  0  0  0  0
  -30.0765  -24.5540   21.8639 H   0  0  0  0  0  0
  -26.3941  -24.2973   20.8147 H   0  0  0  0  0  0
  -26.6334  -22.8528   19.8849 H   0  0  0  0  0  0
  -31.1597  -17.4269   21.3041 H   0  0  0  0  0  0
  -30.8090  -17.2161   19.5951 H   0  0  0  0  0  0
  -27.8987  -24.9010   18.8119 H   0  0  0  0  0  0
  -29.5089  -25.1411   19.2852 H   0  0  0  0  0  0
  -29.0170  -18.6332   21.6281 H   0  0  0  0  0  0
  -28.9339  -15.6685   21.0680 H   0  0  0  0  0  0
  1 25  1  0  0  0
  1 30  2  0  0  0
  1 86  1  0  0  0
  2  3  1  0  0  0
  2 25  1  0  0  0
  2 87  1  0  0  0
  2 88  1  0  0  0
  3  4  1  0  0  0
  3 89  1  0  0  0
  3 90  1  0  0  0
  4  5  1  0  0  0
  4 91  1  0  0  0
  4 92  1  0  0  0
  5  6  1  0  0  0
  5 26  1  0  0  0
  5 93  1  0  0  0
  6 25  1  0  0  0
  6 94  1  0  0  0
  6 95  1  0  0  0
  7  8  2  0  0  0
  7 26  1  0  0  0
  7 29  1  0  0  0
  8  9  1  0  0  0
  8 22  1  0  0  0
  9 10  1  0  0  0
  9 27  2  0  0  0
 10 11  2  0  0  0
 10 15  1  0  0  0
 11 12  1  0  0  0
 11 96  1  0  0  0
 12 13  2  0  0  0
 12 97  1  0  0  0
 13 14  1  0  0  0
 13 31  1  0  0  0
 14 15  2  0  0  0
 14 98  1  0  0  0
 15 99  1  0  0  0
 16 17  2  0  0  0
 16 21  1  0  0  0
 16 31  1  0  0  0
 17 18  1  0  0  0
 17100  1  0  0  0
 18 19  2  0  0  0
 18101  1  0  0  0
 19 20  1  0  0  0
 19 24  1  0  0  0
 20 21  2  0  0  0
 20102  1  0  0  0
 21 23  1  0  0  0
 22 28  1  0  0  0
 22 32  2  0  0  0
 26 27  1  0  0  0
 28103  1  0  0  0
 28104  1  0  0  0
 29105  1  0  0  0
 29106  1  0  0  0
 33 34  1  0  0  0
 33 66  1  0  0  0
 33 70  2  0  0  0
 34 36  1  0  0  0
 34 59  1  0  0  0
 34107  1  0  0  0
 35 44  2  0  0  0
 35 45  1  0  0  0
 35 68  1  0  0  0
 36 56  1  0  0  0
 36108  1  0  0  0
 37 39  1  0  0  0
 37 47  1  0  0  0
 37 66  1  0  0  0
 37109  1  0  0  0
 38 43  2  0  0  0
 38 46  1  0  0  0
 38 47  1  0  0  0
 39 64  1  0  0  0
 39 67  2  0  0  0
 40 52  1  0  0  0
 40 53  2  0  0  0
 40 58  1  0  0  0
 41110  1  0  0  0
 41111  1  0  0  0
 41112  1  0  0  0
 41 48  1  0  0  0
 42 43  1  0  0  0
 42 66  1  0  0  0
 42113  1  0  0  0
 42114  1  0  0  0
 43 44  1  0  0  0
 44115  1  0  0  0
 45 46  2  0  0  0
 45116  1  0  0  0
 46117  1  0  0  0
 47118  1  0  0  0
 47119  1  0  0  0
 48 56  1  0  0  0
 48 65  1  0  0  0
 48120  1  0  0  0
 49 50  1  0  0  0
 49 53  1  0  0  0
 49 64  1  0  0  0
 49121  1  0  0  0
 50 51  1  0  0  0
 50122  1  0  0  0
 50123  1  0  0  0
 51 52  1  0  0  0
 51124  1  0  0  0
 51125  1  0  0  0
 52126  1  0  0  0
 52127  1  0  0  0
 53 54  1  0  0  0
 54 55  2  0  0  0
 54128  1  0  0  0
 55 57  1  0  0  0
 55129  1  0  0  0
 56 69  2  0  0  0
 57 58  2  0  0  0
 57130  1  0  0  0
 58131  1  0  0  0
 59 60  1  0  0  0
 59 61  1  0  0  0
 59 62  1  0  0  0
 60132  1  0  0  0
 60133  1  0  0  0
 60134  1  0  0  0
 61135  1  0  0  0
 61136  1  0  0  0
 61137  1  0  0  0
 62138  1  0  0  0
 62139  1  0  0  0
 62140  1  0  0  0
 63 65  1  0  0  0
 63141  1  0  0  0
 63142  1  0  0  0
 63143  1  0  0  0
 64144  1  0  0  0
 65145  1  0  0  0
 68 82  1  0  0  0
 71 72  2  0  0  0
 71 73  1  0  0  0
 71146  1  0  0  0
 72 74  1  0  0  0
 72147  1  0  0  0
 73 75  2  0  0  0
 73 76  1  0  0  0
 74 84  1  0  0  0
 74 85  2  0  0  0
 75 83  1  0  0  0
 75 85  1  0  0  0
 76148  1  0  0  0
 76149  1  0  0  0
 76150  1  0  0  0
 77 80  1  0  0  0
 77151  1  0  0  0
 77152  1  0  0  0
 77153  1  0  0  0
 78154  1  0  0  0
 78155  1  0  0  0
 78156  1  0  0  0
 78 83  1  0  0  0
 79157  1  0  0  0
 79158  1  0  0  0
 79159  1  0  0  0
 79 84  1  0  0  0
 80 84  1  0  0  0
 80160  1  0  0  0
 80161  1  0  0  0
 81 83  1  0  0  0
 81 86  1  0  0  0
 81162  1  0  0  0
 81163  1  0  0  0
 82 84  1  0  0  0
 82164  1  0  0  0
 82165  1  0  0  0
 83166  1  0  0  0
 86167  1  0  0  0
M  ISO  4   1 100  68 101  82 101  86 100
M  END
> <chiral flag>
0

> <version>
0

> <s_m_source_file>
/data/baiqing/PycharmProjects/Reinvent-master-3.2/result/LINK_invent/BTK/process_docking_weight1_custom_sum_contain_oxygen_bond_distance_aromatic_linkinvent_7_9_3/rearranged_h_0085.sdf

> <i_m_source_file_index>
76

> <r_mmod_Potential_Energy-OPLS-2005>
51.5384864807129

> <r_mmod_Stretch_Energy-OPLS-2005>
140.751861572266

> <r_mmod_Bend_Energy-OPLS-2005>
211.816772460938

> <r_mmod_Torsional_Energy-OPLS-2005>
208.898773193359

> <r_mmod_Improper_Torsional_Energy-OPLS-2005>
5.98150634765625

> <r_mmod_Van_der_Waal_Energy-OPLS-2005>
147.304809570312

> <r_mmod_Electrostatic_Energy-OPLS-2005>
-517.730285644531

> <r_mmod_Solvation_Energy-OPLS-2005>
-209.242584228516

> <b_mmod_Minimization_Converged-OPLS-2005>
0

> <r_mmod_RMS_Derivative-OPLS-2005>
5.01289844512939

$$$$
79
                    3D
 Structure written by MMmdl.
157165  0  0  1  0            999 V2000
  -30.6533  -14.7737   20.4268 C   0  0  0  0  0  0
  -30.4309  -12.4920   19.4491 C   0  0  0  0  0  0
  -29.4966  -12.5080   18.2211 C   0  0  0  0  0  0
  -28.0254  -12.3386   18.6467 C   0  0  0  0  0  0
  -27.6397  -13.2382   19.8533 C   0  0  2  0  0  0
  -28.7002  -13.1517   20.9672 C   0  0  0  0  0  0
  -25.2524  -13.8182   20.5765 C   0  0  0  0  0  0
  -24.1799  -13.0413   20.9163 C   0  0  0  0  0  0
  -24.6416  -11.6902   20.8726 C   0  0  0  0  0  0
  -23.9097  -10.4274   21.0381 C   0  0  0  0  0  0
  -24.3655   -9.4179   21.9150 C   0  0  0  0  0  0
  -23.6309   -8.2226   22.0730 C   0  0  0  0  0  0
  -22.4275   -8.0281   21.3541 C   0  0  0  0  0  0
  -21.9899   -9.0276   20.4673 C   0  0  0  0  0  0
  -22.7248  -10.2142   20.3059 C   0  0  0  0  0  0
  -21.6862   -6.0733   22.5261 C   0  0  0  0  0  0
  -21.4022   -6.5645   23.8194 C   0  0  0  0  0  0
  -21.3666   -5.6809   24.9159 C   0  0  0  0  0  0
  -21.6043   -4.3065   24.7223 C   0  0  0  0  0  0
  -21.8821   -3.8150   23.4346 C   0  0  0  0  0  0
  -21.9199   -4.6957   22.3396 C   0  0  0  0  0  0
  -22.7832  -13.5177   21.1863 C   0  0  0  0  0  0
  -22.1662   -4.2132   21.0976 F   0  0  0  0  0  0
  -21.5635   -3.4554   25.7745 F   0  0  0  0  0  0
  -29.9690  -13.5706   20.3588 N   0  0  0  0  0  0
  -26.2969  -12.9419   20.3398 N   0  0  0  0  0  0
  -25.9359  -11.6542   20.5794 N   0  0  0  0  0  0
  -22.0551  -12.8193   22.0492 N   0  0  0  0  0  0
  -25.4260  -15.1904   20.4345 N   0  0  0  0  0  0
  -31.8693  -14.7546   20.2269 O   0  0  0  0  0  0
  -21.6657   -6.8869   21.4217 O   0  0  0  0  0  0
  -22.3481  -14.5449   20.6686 O   0  0  0  0  0  0
  -24.6315  -31.8545   23.1971 C   0  0  0  0  0  0
  -25.9135  -32.4757   23.8328 C   0  0  1  0  0  0
  -27.2204  -27.2537   20.1351 C   0  0  0  0  0  0
  -25.5938  -33.8555   24.2267 N   0  0  0  0  0  0
  -23.4289  -30.4745   21.5403 C   0  0  2  0  0  0
  -24.8768  -28.9125   20.1152 C   0  0  0  0  0  0
  -22.7494  -29.4594   22.4906 C   0  0  0  0  0  0
  -18.0291  -28.1391   22.8473 C   0  0  0  0  0  0
  -24.1480  -36.7264   23.2635 C   0  0  0  0  0  0
  -25.9734  -30.7653   21.3755 C   0  0  0  0  0  0
  -26.0484  -29.3832   20.7231 C   0  0  0  0  0  0
  -27.2270  -28.5688   20.7142 C   0  0  0  0  0  0
  -26.0267  -26.8427   19.5096 C   0  0  0  0  0  0
  -24.8718  -27.6518   19.4955 C   0  0  0  0  0  0
  -23.6499  -29.8051   20.1578 C   0  0  0  0  0  0
  -25.4109  -36.3066   24.0327 C   0  0  1  0  0  0
  -20.5886  -28.3707   23.1260 C   0  0  2  0  0  0
  -20.6770  -26.9426   22.5400 C   0  0  0  0  0  0
  -19.5757  -26.6392   21.5193 C   0  0  0  0  0  0
  -18.1937  -26.7932   22.1610 C   0  0  0  0  0  0
  -19.1539  -28.8864   23.2864 C   0  0  0  0  0  0
  -18.9463  -30.1455   23.8902 C   0  0  0  0  0  0
  -17.6462  -30.6589   24.0561 C   0  0  0  0  0  0
  -25.9052  -34.9438   23.5097 C   0  0  0  0  0  0
  -16.5353  -29.9090   23.6325 C   0  0  0  0  0  0
  -16.7277  -28.6503   23.0355 C   0  0  0  0  0  0
  -26.4524  -31.6574   25.0708 C   0  0  0  0  0  0
  -25.3755  -31.3715   26.1438 C   0  0  0  0  0  0
  -27.0348  -30.2986   24.6167 C   0  0  0  0  0  0
  -27.6081  -32.4308   25.7493 C   0  0  0  0  0  0
  -27.5575  -37.1785   24.8474 C   0  0  0  0  0  0
  -21.4199  -29.3046   22.3644 N   0  0  0  0  0  0
  -26.4286  -37.3764   23.9419 N   0  0  0  0  0  0
  -24.6974  -31.0490   22.0958 N   0  0  0  0  0  0
  -23.4185  -28.8138   23.3007 O   0  0  0  0  0  0
  -28.3221  -26.3716   20.1234 O   0  0  0  0  0  0
  -26.5610  -34.8913   22.4659 O   0  0  0  0  0  0
  -23.5457  -32.1380   23.7252 O   0  0  0  0  0  0
  -27.8994  -18.8287   21.7884 C   0  0  0  0  0  0
  -28.8930  -18.2960   20.9367 C   0  0  0  0  0  0
  -27.1905  -17.9809   22.6479 C   0  0  0  0  0  0
  -29.1145  -16.8318   21.0369 C   0  0  0  0  0  0
  -26.0975  -18.5117   23.5497 C   0  0  0  0  0  0
  -29.6199  -19.4049   20.0753 C   0  0  0  0  0  0
  -28.8858  -20.8126   19.6516 C   0  0  0  0  0  0
  -28.8184  -22.1878   20.5190 C   0  0  0  0  0  0
  -28.5543  -23.6276   19.7867 C   0  0  0  0  0  0
  -28.1716  -24.9617   20.6369 C   0  0  0  0  0  0
  -27.4405  -16.6631   22.7161 N   0  0  0  0  0  0
  -28.3743  -16.1324   21.9309 N   0  0  0  0  0  0
  -30.0554  -16.0263   20.2633 N   0  0  0  0  0  0
  -31.4618  -12.6261   19.1177 H   0  0  0  0  0  0
  -30.4106  -11.5224   19.9485 H   0  0  0  0  0  0
  -29.7747  -11.7165   17.5239 H   0  0  0  0  0  0
  -29.6171  -13.4494   17.6827 H   0  0  0  0  0  0
  -27.8835  -11.2897   18.9126 H   0  0  0  0  0  0
  -27.3627  -12.5274   17.8019 H   0  0  0  0  0  0
  -27.6304  -14.2643   19.4844 H   0  0  0  0  0  0
  -28.7714  -12.1287   21.3387 H   0  0  0  0  0  0
  -28.4361  -13.7325   21.8434 H   0  0  0  0  0  0
  -25.2819   -9.5639   22.4696 H   0  0  0  0  0  0
  -24.0018   -7.4611   22.7436 H   0  0  0  0  0  0
  -21.0801   -8.8838   19.9022 H   0  0  0  0  0  0
  -22.3701  -10.9689   19.6181 H   0  0  0  0  0  0
  -21.2008   -7.6157   23.9691 H   0  0  0  0  0  0
  -21.1482   -6.0540   25.9063 H   0  0  0  0  0  0
  -22.0592   -2.7602   23.2860 H   0  0  0  0  0  0
  -22.4262  -11.9922   22.4943 H   0  0  0  0  0  0
  -21.1184  -13.1205   22.2762 H   0  0  0  0  0  0
  -24.6972  -15.8247   20.7388 H   0  0  0  0  0  0
  -26.3551  -15.5842   20.5467 H   0  0  0  0  0  0
  -26.7184  -32.5416   23.1055 H   0  0  0  0  0  0
  -25.0152  -33.9704   25.0459 H   0  0  0  0  0  0
  -22.7253  -31.2959   21.3909 H   0  0  0  0  0  0
  -23.3754  -35.9582   23.3306 H   0  0  0  0  0  0
  -24.3568  -36.8875   22.2047 H   0  0  0  0  0  0
  -23.7206  -37.6455   23.6655 H   0  0  0  0  0  0
  -26.0983  -31.5213   20.5998 H   0  0  0  0  0  0
  -26.8549  -30.8265   22.0015 H   0  0  0  0  0  0
  -28.1308  -28.9271   21.1876 H   0  0  0  0  0  0
  -25.9844  -25.8733   19.0326 H   0  0  0  0  0  0
  -23.9759  -27.2882   19.0113 H   0  0  0  0  0  0
  -23.7816  -30.5820   19.4037 H   0  0  0  0  0  0
  -22.7674  -29.2438   19.8476 H   0  0  0  0  0  0
  -25.1273  -36.1921   25.0814 H   0  0  0  0  0  0
  -20.9975  -28.3287   24.1383 H   0  0  0  0  0  0
  -20.5652  -26.2315   23.3603 H   0  0  0  0  0  0
  -21.6642  -26.7448   22.1202 H   0  0  0  0  0  0
  -19.6932  -25.6301   21.1231 H   0  0  0  0  0  0
  -19.6696  -27.3197   20.6719 H   0  0  0  0  0  0
  -17.4197  -26.6663   21.4027 H   0  0  0  0  0  0
  -18.0364  -26.0074   22.9010 H   0  0  0  0  0  0
  -19.7939  -30.7258   24.2292 H   0  0  0  0  0  0
  -17.5024  -31.6279   24.5156 H   0  0  0  0  0  0
  -15.5356  -30.3003   23.7654 H   0  0  0  0  0  0
  -15.8668  -28.0829   22.7086 H   0  0  0  0  0  0
  -24.5960  -30.7025   25.7789 H   0  0  0  0  0  0
  -24.8919  -32.2874   26.4844 H   0  0  0  0  0  0
  -25.8105  -30.8935   27.0222 H   0  0  0  0  0  0
  -26.2913  -29.6733   24.1219 H   0  0  0  0  0  0
  -27.4056  -29.7252   25.4672 H   0  0  0  0  0  0
  -27.8783  -30.4248   23.9375 H   0  0  0  0  0  0
  -27.2709  -33.3619   26.2059 H   0  0  0  0  0  0
  -28.3926  -32.6846   25.0352 H   0  0  0  0  0  0
  -28.0711  -31.8425   26.5426 H   0  0  0  0  0  0
  -28.2595  -38.0081   24.7507 H   0  0  0  0  0  0
  -28.1066  -36.2606   24.6317 H   0  0  0  0  0  0
  -27.2288  -37.1447   25.8876 H   0  0  0  0  0  0
  -20.9396  -29.8763   21.6841 H   0  0  0  0  0  0
  -26.0165  -38.2826   24.1456 H   0  0  0  0  0  0
  -27.6769  -19.8824   21.7988 H   0  0  0  0  0  0
  -25.6784  -19.4338   23.1464 H   0  0  0  0  0  0
  -26.4910  -18.7174   24.5456 H   0  0  0  0  0  0
  -25.2878  -17.7887   23.6418 H   0  0  0  0  0  0
  -29.8913  -18.8995   19.1475 H   0  0  0  0  0  0
  -30.5738  -19.6303   20.5514 H   0  0  0  0  0  0
  -27.8833  -20.5781   19.2940 H   0  0  0  0  0  0
  -29.4168  -21.1175   18.7489 H   0  0  0  0  0  0
  -29.7484  -22.2723   21.0829 H   0  0  0  0  0  0
  -28.0438  -22.0590   21.2755 H   0  0  0  0  0  0
  -27.7634  -23.4847   19.0490 H   0  0  0  0  0  0
  -29.4452  -23.8550   19.2005 H   0  0  0  0  0  0
  -28.7997  -24.9375   21.5266 H   0  0  0  0  0  0
  -27.1620  -24.8305   21.0256 H   0  0  0  0  0  0
  -30.7017  -16.6261   19.7763 H   0  0  0  0  0  0
  1 25  1  0  0  0
  1 30  2  0  0  0
  1 83  1  0  0  0
  2  3  1  0  0  0
  2 25  1  0  0  0
  2 84  1  0  0  0
  2 85  1  0  0  0
  3  4  1  0  0  0
  3 86  1  0  0  0
  3 87  1  0  0  0
  4  5  1  0  0  0
  4 88  1  0  0  0
  4 89  1  0  0  0
  5  6  1  0  0  0
  5 26  1  0  0  0
  5 90  1  0  0  0
  6 25  1  0  0  0
  6 91  1  0  0  0
  6 92  1  0  0  0
  7  8  2  0  0  0
  7 26  1  0  0  0
  7 29  1  0  0  0
  8  9  1  0  0  0
  8 22  1  0  0  0
  9 10  1  0  0  0
  9 27  2  0  0  0
 10 11  2  0  0  0
 10 15  1  0  0  0
 11 12  1  0  0  0
 11 93  1  0  0  0
 12 13  2  0  0  0
 12 94  1  0  0  0
 13 14  1  0  0  0
 13 31  1  0  0  0
 14 15  2  0  0  0
 14 95  1  0  0  0
 15 96  1  0  0  0
 16 17  2  0  0  0
 16 21  1  0  0  0
 16 31  1  0  0  0
 17 18  1  0  0  0
 17 97  1  0  0  0
 18 19  2  0  0  0
 18 98  1  0  0  0
 19 20  1  0  0  0
 19 24  1  0  0  0
 20 21  2  0  0  0
 20 99  1  0  0  0
 21 23  1  0  0  0
 22 28  1  0  0  0
 22 32  2  0  0  0
 26 27  1  0  0  0
 28100  1  0  0  0
 28101  1  0  0  0
 29102  1  0  0  0
 29103  1  0  0  0
 33 34  1  0  0  0
 33 66  1  0  0  0
 33 70  2  0  0  0
 34 36  1  0  0  0
 34 59  1  0  0  0
 34104  1  0  0  0
 35 44  2  0  0  0
 35 45  1  0  0  0
 35 68  1  0  0  0
 36 56  1  0  0  0
 36105  1  0  0  0
 37 39  1  0  0  0
 37 47  1  0  0  0
 37 66  1  0  0  0
 37106  1  0  0  0
 38 43  2  0  0  0
 38 46  1  0  0  0
 38 47  1  0  0  0
 39 64  1  0  0  0
 39 67  2  0  0  0
 40 52  1  0  0  0
 40 53  2  0  0  0
 40 58  1  0  0  0
 41107  1  0  0  0
 41108  1  0  0  0
 41109  1  0  0  0
 41 48  1  0  0  0
 42 43  1  0  0  0
 42 66  1  0  0  0
 42110  1  0  0  0
 42111  1  0  0  0
 43 44  1  0  0  0
 44112  1  0  0  0
 45 46  2  0  0  0
 45113  1  0  0  0
 46114  1  0  0  0
 47115  1  0  0  0
 47116  1  0  0  0
 48 56  1  0  0  0
 48 65  1  0  0  0
 48117  1  0  0  0
 49 50  1  0  0  0
 49 53  1  0  0  0
 49 64  1  0  0  0
 49118  1  0  0  0
 50 51  1  0  0  0
 50119  1  0  0  0
 50120  1  0  0  0
 51 52  1  0  0  0
 51121  1  0  0  0
 51122  1  0  0  0
 52123  1  0  0  0
 52124  1  0  0  0
 53 54  1  0  0  0
 54 55  2  0  0  0
 54125  1  0  0  0
 55 57  1  0  0  0
 55126  1  0  0  0
 56 69  2  0  0  0
 57 58  2  0  0  0
 57127  1  0  0  0
 58128  1  0  0  0
 59 60  1  0  0  0
 59 61  1  0  0  0
 59 62  1  0  0  0
 60129  1  0  0  0
 60130  1  0  0  0
 60131  1  0  0  0
 61132  1  0  0  0
 61133  1  0  0  0
 61134  1  0  0  0
 62135  1  0  0  0
 62136  1  0  0  0
 62137  1  0  0  0
 63 65  1  0  0  0
 63138  1  0  0  0
 63139  1  0  0  0
 63140  1  0  0  0
 64141  1  0  0  0
 65142  1  0  0  0
 68 80  1  0  0  0
 71 72  2  0  0  0
 71 73  1  0  0  0
 71143  1  0  0  0
 72 74  1  0  0  0
 72 76  1  0  0  0
 73 75  1  0  0  0
 73 81  2  0  0  0
 74 82  2  0  0  0
 74 83  1  0  0  0
 75144  1  0  0  0
 75145  1  0  0  0
 75146  1  0  0  0
 76 77  1  0  0  0
 76147  1  0  0  0
 76148  1  0  0  0
 77 78  1  0  0  0
 77149  1  0  0  0
 77150  1  0  0  0
 78 79  1  0  0  0
 78151  1  0  0  0
 78152  1  0  0  0
 79 80  1  0  0  0
 79153  1  0  0  0
 79154  1  0  0  0
 80155  1  0  0  0
 80156  1  0  0  0
 81 82  1  0  0  0
 83157  1  0  0  0
M  ISO  4   1 100  68 101  80 101  83 100
M  END
> <chiral flag>
0

> <version>
0

> <s_m_source_file>
/data/baiqing/PycharmProjects/Reinvent-master-3.2/result/LINK_invent/BTK/process_docking_weight1_custom_sum_contain_oxygen_bond_distance_aromatic_linkinvent_7_9_3/rearranged_h_0085.sdf

> <i_m_source_file_index>
77

> <r_mmod_Potential_Energy-OPLS-2005>
256.417846679688

> <r_mmod_Stretch_Energy-OPLS-2005>
141.150543212891

> <r_mmod_Bend_Energy-OPLS-2005>
251.148040771484

> <r_mmod_Torsional_Energy-OPLS-2005>
263.998107910156

> <r_mmod_Improper_Torsional_Energy-OPLS-2005>
18.197603225708

> <r_mmod_Van_der_Waal_Energy-OPLS-2005>
133.175689697266

> <r_mmod_Electrostatic_Energy-OPLS-2005>
-439.879821777344

> <r_mmod_Solvation_Energy-OPLS-2005>
-204.523406982422

> <b_mmod_Minimization_Converged-OPLS-2005>
0

> <r_mmod_RMS_Derivative-OPLS-2005>
2.20582985877991

$$$$
80
                    3D
 Structure written by MMmdl.
164172  0  0  1  0            999 V2000
  -30.7340  -14.4382   20.5347 C   0  0  0  0  0  0
  -30.4096  -12.2756   19.4287 C   0  0  0  0  0  0
  -29.4947  -12.4876   18.2057 C   0  0  0  0  0  0
  -28.0148  -12.3607   18.6161 C   0  0  0  0  0  0
  -27.6605  -13.2114   19.8671 C   0  0  2  0  0  0
  -28.7025  -13.0163   20.9938 C   0  0  0  0  0  0
  -25.2594  -13.8169   20.5679 C   0  0  0  0  0  0
  -24.1845  -13.0441   20.9181 C   0  0  0  0  0  0
  -24.6400  -11.6911   20.8735 C   0  0  0  0  0  0
  -23.9058  -10.4296   21.0394 C   0  0  0  0  0  0
  -24.3616   -9.4206   21.9169 C   0  0  0  0  0  0
  -23.6292   -8.2238   22.0745 C   0  0  0  0  0  0
  -22.4273   -8.0281   21.3540 C   0  0  0  0  0  0
  -21.9903   -9.0249   20.4634 C   0  0  0  0  0  0
  -22.7234  -10.2126   20.3043 C   0  0  0  0  0  0
  -21.6850   -6.0737   22.5281 C   0  0  0  0  0  0
  -21.4020   -6.5634   23.8220 C   0  0  0  0  0  0
  -21.3668   -5.6783   24.9176 C   0  0  0  0  0  0
  -21.6050   -4.3047   24.7221 C   0  0  0  0  0  0
  -21.8818   -3.8143   23.4341 C   0  0  0  0  0  0
  -21.9188   -4.6961   22.3397 C   0  0  0  0  0  0
  -22.7870  -13.5238   21.1834 C   0  0  0  0  0  0
  -22.1657   -4.2149   21.0977 F   0  0  0  0  0  0
  -21.5622   -3.4537   25.7732 F   0  0  0  0  0  0
  -30.0360  -13.2793   20.4342 N   0  0  0  0  0  0
  -26.3027  -12.9351   20.3325 N   0  0  0  0  0  0
  -25.9331  -11.6504   20.5749 N   0  0  0  0  0  0
  -22.0491  -12.8259   22.0390 N   0  0  0  0  0  0
  -25.4271  -15.1896   20.4111 N   0  0  0  0  0  0
  -31.8794  -14.5700   20.0971 O   0  0  0  0  0  0
  -21.6636   -6.8879   21.4242 O   0  0  0  0  0  0
  -22.3545  -14.5528   20.6650 O   0  0  0  0  0  0
  -24.6126  -31.8694   23.2101 C   0  0  0  0  0  0
  -25.9025  -32.4837   23.8398 C   0  0  1  0  0  0
  -27.2414  -27.4597   20.0993 C   0  0  0  0  0  0
  -25.5881  -33.8631   24.2333 N   0  0  0  0  0  0
  -23.4001  -30.4912   21.5484 C   0  0  2  0  0  0
  -24.8492  -28.9528   20.1204 C   0  0  0  0  0  0
  -22.7400  -29.4671   22.4980 C   0  0  0  0  0  0
  -18.0273  -28.1400   22.8496 C   0  0  0  0  0  0
  -24.1483  -36.7310   23.2639 C   0  0  0  0  0  0
  -25.9256  -30.8433   21.3581 C   0  0  0  0  0  0
  -26.0063  -29.4755   20.7136 C   0  0  0  0  0  0
  -27.2081  -28.7366   20.6984 C   0  0  0  0  0  0
  -26.0721  -26.9378   19.5113 C   0  0  0  0  0  0
  -24.8746  -27.6801   19.5205 C   0  0  0  0  0  0
  -23.6100  -29.8174   20.1650 C   0  0  0  0  0  0
  -25.4103  -36.3122   24.0350 C   0  0  1  0  0  0
  -20.5862  -28.3682   23.1317 C   0  0  2  0  0  0
  -20.6765  -26.9414   22.5422 C   0  0  0  0  0  0
  -19.5742  -26.6400   21.5219 C   0  0  0  0  0  0
  -18.1919  -26.7943   22.1627 C   0  0  0  0  0  0
  -19.1525  -28.8852   23.2904 C   0  0  0  0  0  0
  -18.9454  -30.1458   23.8916 C   0  0  0  0  0  0
  -17.6459  -30.6600   24.0574 C   0  0  0  0  0  0
  -25.9030  -34.9489   23.5139 C   0  0  0  0  0  0
  -16.5352  -29.9108   23.6328 C   0  0  0  0  0  0
  -16.7260  -28.6528   23.0338 C   0  0  0  0  0  0
  -26.4462  -31.6615   25.0720 C   0  0  0  0  0  0
  -25.3738  -31.3722   26.1473 C   0  0  0  0  0  0
  -27.0292  -30.3068   24.6079 C   0  0  0  0  0  0
  -27.6045  -32.4336   25.7474 C   0  0  0  0  0  0
  -27.5578  -37.1807   24.8469 C   0  0  0  0  0  0
  -21.4129  -29.3045   22.3717 N   0  0  0  0  0  0
  -26.4290  -37.3805   23.9418 N   0  0  0  0  0  0
  -24.6636  -31.0820   22.0985 N   0  0  0  0  0  0
  -23.4179  -28.8219   23.3013 O   0  0  0  0  0  0
  -28.4172  -26.7555   20.0352 O   0  0  0  0  0  0
  -26.5587  -34.8945   22.4699 O   0  0  0  0  0  0
  -23.5324  -32.1425   23.7520 O   0  0  0  0  0  0
  -31.1911  -21.7288   19.5615 C   0  0  0  0  0  0
  -29.2898  -20.3060   20.0030 C   0  0  0  0  0  0
  -29.8044  -21.5067   19.4697 C   0  0  0  0  0  0
  -31.9963  -20.7729   20.2027 C   0  0  0  0  0  0
  -30.1724  -19.3867   20.6094 C   0  0  0  0  0  0
  -33.4966  -20.9603   20.2866 C   0  0  0  0  0  0
  -29.5808  -18.0713   22.6956 C   0  0  0  0  0  0
  -28.9018  -22.5022   18.7496 C   0  0  0  0  0  0
  -29.0512  -23.9729   19.2025 C   0  0  0  0  0  0
  -28.2663  -24.3289   20.4777 C   0  0  0  0  0  0
  -30.5399  -16.8740   20.6403 C   0  0  0  0  0  0
  -28.5833  -25.7369   21.0211 C   0  0  0  0  0  0
  -29.6715  -18.0452   21.1615 C   0  0  1  0  0  0
  -31.4968  -19.6382   20.7345 N   0  0  0  0  0  0
  -30.0410  -15.5180   20.9280 N   0  0  0  0  0  0
  -30.2776  -11.2742   19.8403 H   0  0  0  0  0  0
  -31.4590  -12.3371   19.1354 H   0  0  0  0  0  0
  -29.7302  -11.7585   17.4295 H   0  0  0  0  0  0
  -29.6774  -13.4699   17.7669 H   0  0  0  0  0  0
  -27.8216  -11.3072   18.8167 H   0  0  0  0  0  0
  -27.3700  -12.6321   17.7807 H   0  0  0  0  0  0
  -27.6969  -14.2554   19.5546 H   0  0  0  0  0  0
  -28.4826  -13.6670   21.8410 H   0  0  0  0  0  0
  -28.6674  -11.9969   21.3808 H   0  0  0  0  0  0
  -25.2769   -9.5680   22.4733 H   0  0  0  0  0  0
  -24.0000   -7.4637   22.7483 H   0  0  0  0  0  0
  -21.0823   -8.8777   19.8952 H   0  0  0  0  0  0
  -22.3704  -10.9658   19.6148 H   0  0  0  0  0  0
  -21.2027   -7.6147   23.9729 H   0  0  0  0  0  0
  -21.1490   -6.0507   25.9079 H   0  0  0  0  0  0
  -22.0588   -2.7600   23.2840 H   0  0  0  0  0  0
  -22.4106  -11.9950   22.4841 H   0  0  0  0  0  0
  -21.1095  -13.1279   22.2557 H   0  0  0  0  0  0
  -24.6526  -15.8359   20.5202 H   0  0  0  0  0  0
  -26.2753  -15.6368   20.0869 H   0  0  0  0  0  0
  -26.7100  -32.5577   23.1170 H   0  0  0  0  0  0
  -25.0060  -33.9790   25.0495 H   0  0  0  0  0  0
  -22.6904  -31.3085   21.4062 H   0  0  0  0  0  0
  -23.3749  -35.9636   23.3324 H   0  0  0  0  0  0
  -24.3565  -36.8895   22.2044 H   0  0  0  0  0  0
  -23.7234  -37.6527   23.6627 H   0  0  0  0  0  0
  -26.0338  -31.6067   20.5860 H   0  0  0  0  0  0
  -26.8168  -30.9045   21.9713 H   0  0  0  0  0  0
  -28.1102  -29.1436   21.1345 H   0  0  0  0  0  0
  -26.0941  -25.9669   19.0386 H   0  0  0  0  0  0
  -23.9835  -27.2703   19.0649 H   0  0  0  0  0  0
  -23.7247  -30.5907   19.4050 H   0  0  0  0  0  0
  -22.7356  -29.2356   19.8673 H   0  0  0  0  0  0
  -25.1283  -36.1990   25.0845 H   0  0  0  0  0  0
  -20.9960  -28.3264   24.1432 H   0  0  0  0  0  0
  -20.5676  -26.2288   23.3609 H   0  0  0  0  0  0
  -21.6635  -26.7463   22.1205 H   0  0  0  0  0  0
  -19.6897  -25.6311   21.1241 H   0  0  0  0  0  0
  -19.6690  -27.3215   20.6752 H   0  0  0  0  0  0
  -17.4184  -26.6695   21.4028 H   0  0  0  0  0  0
  -18.0322  -26.0092   22.9033 H   0  0  0  0  0  0
  -19.7935  -30.7271   24.2291 H   0  0  0  0  0  0
  -17.5019  -31.6278   24.5184 H   0  0  0  0  0  0
  -15.5354  -30.3017   23.7646 H   0  0  0  0  0  0
  -15.8663  -28.0862   22.7030 H   0  0  0  0  0  0
  -24.5886  -30.7099   25.7802 H   0  0  0  0  0  0
  -24.8946  -32.2883   26.4951 H   0  0  0  0  0  0
  -25.8091  -30.8860   27.0212 H   0  0  0  0  0  0
  -26.2833  -29.6831   24.1136 H   0  0  0  0  0  0
  -27.4080  -29.7312   25.4534 H   0  0  0  0  0  0
  -27.8664  -30.4404   23.9221 H   0  0  0  0  0  0
  -27.2666  -33.3616   26.2106 H   0  0  0  0  0  0
  -28.3823  -32.6932   25.0277 H   0  0  0  0  0  0
  -28.0754  -31.8428   26.5342 H   0  0  0  0  0  0
  -28.2616  -38.0085   24.7512 H   0  0  0  0  0  0
  -28.1059  -36.2619   24.6309 H   0  0  0  0  0  0
  -27.2294  -37.1490   25.8872 H   0  0  0  0  0  0
  -20.9288  -29.8758   21.6936 H   0  0  0  0  0  0
  -26.0189  -38.2891   24.1413 H   0  0  0  0  0  0
  -31.6440  -22.6149   19.1366 H   0  0  0  0  0  0
  -28.2338  -20.0802   19.9274 H   0  0  0  0  0  0
  -33.7493  -22.0149   20.3934 H   0  0  0  0  0  0
  -33.9686  -20.5854   19.3793 H   0  0  0  0  0  0
  -33.9218  -20.4224   21.1345 H   0  0  0  0  0  0
  -30.5606  -18.2267   23.1463 H   0  0  0  0  0  0
  -29.1826  -17.1381   23.0912 H   0  0  0  0  0  0
  -28.9309  -18.8816   23.0273 H   0  0  0  0  0  0
  -27.8602  -22.1887   18.8284 H   0  0  0  0  0  0
  -29.1492  -22.4338   17.6903 H   0  0  0  0  0  0
  -28.6749  -24.6092   18.4018 H   0  0  0  0  0  0
  -30.1010  -24.2406   19.3132 H   0  0  0  0  0  0
  -28.5011  -23.5987   21.2536 H   0  0  0  0  0  0
  -27.1972  -24.2324   20.2908 H   0  0  0  0  0  0
  -31.5494  -16.9733   21.0474 H   0  0  0  0  0  0
  -30.6410  -16.9722   19.5576 H   0  0  0  0  0  0
  -29.6195  -25.7701   21.3595 H   0  0  0  0  0  0
  -27.9733  -25.9368   21.9049 H   0  0  0  0  0  0
  -28.6618  -17.9058   20.7718 H   0  0  0  0  0  0
  -29.0891  -15.3964   21.2383 H   0  0  0  0  0  0
  1 25  1  0  0  0
  1 30  2  0  0  0
  1 85  1  0  0  0
  2  3  1  0  0  0
  2 25  1  0  0  0
  2 86  1  0  0  0
  2 87  1  0  0  0
  3  4  1  0  0  0
  3 88  1  0  0  0
  3 89  1  0  0  0
  4  5  1  0  0  0
  4 90  1  0  0  0
  4 91  1  0  0  0
  5  6  1  0  0  0
  5 26  1  0  0  0
  5 92  1  0  0  0
  6 25  1  0  0  0
  6 93  1  0  0  0
  6 94  1  0  0  0
  7  8  2  0  0  0
  7 26  1  0  0  0
  7 29  1  0  0  0
  8  9  1  0  0  0
  8 22  1  0  0  0
  9 10  1  0  0  0
  9 27  2  0  0  0
 10 11  2  0  0  0
 10 15  1  0  0  0
 11 12  1  0  0  0
 11 95  1  0  0  0
 12 13  2  0  0  0
 12 96  1  0  0  0
 13 14  1  0  0  0
 13 31  1  0  0  0
 14 15  2  0  0  0
 14 97  1  0  0  0
 15 98  1  0  0  0
 16 17  2  0  0  0
 16 21  1  0  0  0
 16 31  1  0  0  0
 17 18  1  0  0  0
 17 99  1  0  0  0
 18 19  2  0  0  0
 18100  1  0  0  0
 19 20  1  0  0  0
 19 24  1  0  0  0
 20 21  2  0  0  0
 20101  1  0  0  0
 21 23  1  0  0  0
 22 28  1  0  0  0
 22 32  2  0  0  0
 26 27  1  0  0  0
 28102  1  0  0  0
 28103  1  0  0  0
 29104  1  0  0  0
 29105  1  0  0  0
 33 34  1  0  0  0
 33 66  1  0  0  0
 33 70  2  0  0  0
 34 36  1  0  0  0
 34 59  1  0  0  0
 34106  1  0  0  0
 35 44  2  0  0  0
 35 45  1  0  0  0
 35 68  1  0  0  0
 36 56  1  0  0  0
 36107  1  0  0  0
 37 39  1  0  0  0
 37 47  1  0  0  0
 37 66  1  0  0  0
 37108  1  0  0  0
 38 43  2  0  0  0
 38 46  1  0  0  0
 38 47  1  0  0  0
 39 64  1  0  0  0
 39 67  2  0  0  0
 40 52  1  0  0  0
 40 53  2  0  0  0
 40 58  1  0  0  0
 41109  1  0  0  0
 41110  1  0  0  0
 41111  1  0  0  0
 41 48  1  0  0  0
 42 43  1  0  0  0
 42 66  1  0  0  0
 42112  1  0  0  0
 42113  1  0  0  0
 43 44  1  0  0  0
 44114  1  0  0  0
 45 46  2  0  0  0
 45115  1  0  0  0
 46116  1  0  0  0
 47117  1  0  0  0
 47118  1  0  0  0
 48 56  1  0  0  0
 48 65  1  0  0  0
 48119  1  0  0  0
 49 50  1  0  0  0
 49 53  1  0  0  0
 49 64  1  0  0  0
 49120  1  0  0  0
 50 51  1  0  0  0
 50121  1  0  0  0
 50122  1  0  0  0
 51 52  1  0  0  0
 51123  1  0  0  0
 51124  1  0  0  0
 52125  1  0  0  0
 52126  1  0  0  0
 53 54  1  0  0  0
 54 55  2  0  0  0
 54127  1  0  0  0
 55 57  1  0  0  0
 55128  1  0  0  0
 56 69  2  0  0  0
 57 58  2  0  0  0
 57129  1  0  0  0
 58130  1  0  0  0
 59 60  1  0  0  0
 59 61  1  0  0  0
 59 62  1  0  0  0
 60131  1  0  0  0
 60132  1  0  0  0
 60133  1  0  0  0
 61134  1  0  0  0
 61135  1  0  0  0
 61136  1  0  0  0
 62137  1  0  0  0
 62138  1  0  0  0
 62139  1  0  0  0
 63 65  1  0  0  0
 63140  1  0  0  0
 63141  1  0  0  0
 63142  1  0  0  0
 64143  1  0  0  0
 65144  1  0  0  0
 68 82  1  0  0  0
 71 73  2  0  0  0
 71 74  1  0  0  0
 71145  1  0  0  0
 72 73  1  0  0  0
 72 75  2  0  0  0
 72146  1  0  0  0
 73 78  1  0  0  0
 74 76  1  0  0  0
 74 84  2  0  0  0
 75 83  1  0  0  0
 75 84  1  0  0  0
 76147  1  0  0  0
 76148  1  0  0  0
 76149  1  0  0  0
 77150  1  0  0  0
 77151  1  0  0  0
 77152  1  0  0  0
 77 83  1  0  0  0
 78 79  1  0  0  0
 78153  1  0  0  0
 78154  1  0  0  0
 79 80  1  0  0  0
 79155  1  0  0  0
 79156  1  0  0  0
 80 82  1  0  0  0
 80157  1  0  0  0
 80158  1  0  0  0
 81 83  1  0  0  0
 81 85  1  0  0  0
 81159  1  0  0  0
 81160  1  0  0  0
 82161  1  0  0  0
 82162  1  0  0  0
 83163  1  0  0  0
 85164  1  0  0  0
M  ISO  4   1 100  68 101  82 101  85 100
M  END
> <chiral flag>
0

> <version>
0

> <s_m_source_file>
/data/baiqing/PycharmProjects/Reinvent-master-3.2/result/LINK_invent/BTK/process_docking_weight1_custom_sum_contain_oxygen_bond_distance_aromatic_linkinvent_7_9_3/rearranged_h_0085.sdf

> <i_m_source_file_index>
78

> <r_mmod_Potential_Energy-OPLS-2005>
-233.906997680664

> <r_mmod_Stretch_Energy-OPLS-2005>
33.163646697998

> <r_mmod_Bend_Energy-OPLS-2005>
91.5293579101562

> <r_mmod_Torsional_Energy-OPLS-2005>
226.431243896484

> <r_mmod_Improper_Torsional_Energy-OPLS-2005>
5.69255781173706

> <r_mmod_Van_der_Waal_Energy-OPLS-2005>
150.679306030273

> <r_mmod_Electrostatic_Energy-OPLS-2005>
-539.328308105469

> <r_mmod_Solvation_Energy-OPLS-2005>
-214.349990844727

> <b_mmod_Minimization_Converged-OPLS-2005>
0

> <r_mmod_RMS_Derivative-OPLS-2005>
2.23733067512512

$$$$
81
                    3D
 Structure written by MMmdl.
178186  0  0  1  0            999 V2000
  -30.7381  -14.4010   20.6046 C   0  0  0  0  0  0
  -30.4165  -12.2764   19.4158 C   0  0  0  0  0  0
  -29.4872  -12.5061   18.2053 C   0  0  0  0  0  0
  -28.0091  -12.3772   18.6181 C   0  0  0  0  0  0
  -27.6637  -13.2031   19.8853 C   0  0  2  0  0  0
  -28.7052  -12.9594   21.0038 C   0  0  0  0  0  0
  -25.2500  -13.8075   20.5595 C   0  0  0  0  0  0
  -24.1792  -13.0367   20.9183 C   0  0  0  0  0  0
  -24.6387  -11.6859   20.8781 C   0  0  0  0  0  0
  -23.9066  -10.4252   21.0432 C   0  0  0  0  0  0
  -24.3617   -9.4164   21.9201 C   0  0  0  0  0  0
  -23.6281   -8.2205   22.0757 C   0  0  0  0  0  0
  -22.4265   -8.0257   21.3533 C   0  0  0  0  0  0
  -21.9913   -9.0241   20.4633 C   0  0  0  0  0  0
  -22.7249  -10.2114   20.3065 C   0  0  0  0  0  0
  -21.6832   -6.0716   22.5283 C   0  0  0  0  0  0
  -21.4000   -6.5631   23.8214 C   0  0  0  0  0  0
  -21.3662   -5.6785   24.9183 C   0  0  0  0  0  0
  -21.6042   -4.3049   24.7242 C   0  0  0  0  0  0
  -21.8815   -3.8136   23.4367 C   0  0  0  0  0  0
  -21.9184   -4.6947   22.3413 C   0  0  0  0  0  0
  -22.7817  -13.5173   21.1843 C   0  0  0  0  0  0
  -22.1646   -4.2131   21.0986 F   0  0  0  0  0  0
  -21.5653   -3.4536   25.7757 F   0  0  0  0  0  0
  -30.0460  -13.2429   20.4600 N   0  0  0  0  0  0
  -26.3012  -12.9302   20.3409 N   0  0  0  0  0  0
  -25.9318  -11.6463   20.5831 N   0  0  0  0  0  0
  -22.0452  -12.8201   22.0420 N   0  0  0  0  0  0
  -25.4024  -15.1751   20.3831 N   0  0  0  0  0  0
  -31.8326  -14.6118   20.0757 O   0  0  0  0  0  0
  -21.6617   -6.8860   21.4241 O   0  0  0  0  0  0
  -22.3510  -14.5475   20.6675 O   0  0  0  0  0  0
  -24.6122  -31.8704   23.2139 C   0  0  0  0  0  0
  -25.9031  -32.4834   23.8422 C   0  0  1  0  0  0
  -27.2385  -27.4589   20.0729 C   0  0  0  0  0  0
  -25.5898  -33.8634   24.2345 N   0  0  0  0  0  0
  -23.3974  -30.4957   21.5537 C   0  0  2  0  0  0
  -24.8420  -28.9650   20.1139 C   0  0  0  0  0  0
  -22.7386  -29.4671   22.5005 C   0  0  0  0  0  0
  -18.0270  -28.1376   22.8499 C   0  0  0  0  0  0
  -24.1487  -36.7325   23.2636 C   0  0  0  0  0  0
  -25.9239  -30.8382   21.3672 C   0  0  0  0  0  0
  -25.9980  -29.4725   20.7176 C   0  0  0  0  0  0
  -27.1910  -28.7191   20.7084 C   0  0  0  0  0  0
  -26.0619  -26.9645   19.4601 C   0  0  0  0  0  0
  -24.8664  -27.7065   19.4900 C   0  0  0  0  0  0
  -23.6038  -29.8301   20.1669 C   0  0  0  0  0  0
  -25.4108  -36.3121   24.0339 C   0  0  1  0  0  0
  -20.5856  -28.3654   23.1330 C   0  0  2  0  0  0
  -20.6761  -26.9400   22.5414 C   0  0  0  0  0  0
  -19.5740  -26.6389   21.5213 C   0  0  0  0  0  0
  -18.1919  -26.7927   22.1625 C   0  0  0  0  0  0
  -19.1519  -28.8833   23.2911 C   0  0  0  0  0  0
  -18.9445  -30.1443   23.8922 C   0  0  0  0  0  0
  -17.6446  -30.6586   24.0569 C   0  0  0  0  0  0
  -25.9030  -34.9484   23.5138 C   0  0  0  0  0  0
  -16.5339  -29.9088   23.6323 C   0  0  0  0  0  0
  -16.7259  -28.6502   23.0350 C   0  0  0  0  0  0
  -26.4469  -31.6607   25.0737 C   0  0  0  0  0  0
  -25.3739  -31.3703   26.1483 C   0  0  0  0  0  0
  -27.0289  -30.3054   24.6091 C   0  0  0  0  0  0
  -27.6055  -32.4315   25.7488 C   0  0  0  0  0  0
  -27.5583  -37.1817   24.8466 C   0  0  0  0  0  0
  -21.4119  -29.3032   22.3743 N   0  0  0  0  0  0
  -26.4301  -37.3799   23.9404 N   0  0  0  0  0  0
  -24.6625  -31.0823   22.1031 N   0  0  0  0  0  0
  -23.4172  -28.8214   23.3033 O   0  0  0  0  0  0
  -28.4390  -26.7793   20.0860 O   0  0  0  0  0  0
  -26.5587  -34.8926   22.4689 O   0  0  0  0  0  0
  -23.5325  -32.1451   23.7544 O   0  0  0  0  0  0
  -28.3007  -20.1045   20.4514 C   0  0  0  0  0  0
  -29.0677  -18.9674   20.3570 C   0  0  0  0  0  0
  -29.2611  -20.1253   18.4488 C   0  0  0  0  0  0
  -27.7962  -17.0799   21.2685 C   0  0  0  0  0  0
  -31.0073  -18.2624   15.0819 C   0  0  0  0  0  0
  -30.9799  -20.6610   14.2276 C   0  0  0  0  0  0
  -28.7718  -23.9818   21.0791 C   0  0  0  0  0  0
  -29.6438  -20.4172   17.0271 C   0  0  0  0  0  0
  -31.1498  -20.2157   16.7387 C   0  0  0  0  0  0
  -28.4420  -23.2290   18.6691 C   0  0  0  0  0  0
  -27.6140  -21.9401   18.8457 C   0  0  0  0  0  0
  -30.3324  -16.8025   20.8840 C   0  0  0  0  0  0
  -28.6569  -25.6938   19.1855 C   0  0  0  0  0  0
  -29.1682  -17.7650   21.2630 C   0  0  1  0  0  0
  -31.4805  -19.7083   15.3215 C   0  0  0  0  0  0
  -28.1550  -24.3282   19.7140 C   0  0  2  0  0  0
  -28.3996  -20.7690   19.2532 N   0  0  0  0  0  0
  -29.6467  -19.0353   19.1162 N   0  3  0  0  0  0
  -30.0736  -15.3947   21.2059 N   0  0  0  0  0  0
  -31.4609  -12.3661   19.1128 H   0  0  0  0  0  0
  -30.3095  -11.2597   19.7962 H   0  0  0  0  0  0
  -29.7154  -11.7911   17.4131 H   0  0  0  0  0  0
  -29.6678  -13.4949   17.7825 H   0  0  0  0  0  0
  -27.8066  -11.3203   18.7961 H   0  0  0  0  0  0
  -27.3617  -12.6746   17.7926 H   0  0  0  0  0  0
  -27.7126  -14.2545   19.6033 H   0  0  0  0  0  0
  -28.6648  -11.9222   21.3402 H   0  0  0  0  0  0
  -28.4695  -13.5562   21.8850 H   0  0  0  0  0  0
  -25.2759   -9.5630   22.4787 H   0  0  0  0  0  0
  -23.9959   -7.4592   22.7493 H   0  0  0  0  0  0
  -21.0834   -8.8805   19.8941 H   0  0  0  0  0  0
  -22.3732  -10.9679   19.6190 H   0  0  0  0  0  0
  -21.1977   -7.6135   23.9720 H   0  0  0  0  0  0
  -21.1490   -6.0516   25.9088 H   0  0  0  0  0  0
  -22.0589   -2.7600   23.2885 H   0  0  0  0  0  0
  -22.4049  -11.9858   22.4807 H   0  0  0  0  0  0
  -21.1085  -13.1273   22.2613 H   0  0  0  0  0  0
  -24.6272  -15.8221   20.4784 H   0  0  0  0  0  0
  -26.2427  -15.6162   20.0375 H   0  0  0  0  0  0
  -26.7095  -32.5551   23.1187 H   0  0  0  0  0  0
  -25.0073  -33.9807   25.0506 H   0  0  0  0  0  0
  -22.6855  -31.3127   21.4181 H   0  0  0  0  0  0
  -23.3741  -35.9667   23.3325 H   0  0  0  0  0  0
  -24.3581  -36.8908   22.2044 H   0  0  0  0  0  0
  -23.7254  -37.6545   23.6628 H   0  0  0  0  0  0
  -26.0331  -31.6024   20.5965 H   0  0  0  0  0  0
  -26.8144  -30.8931   21.9814 H   0  0  0  0  0  0
  -28.0841  -29.1090   21.1762 H   0  0  0  0  0  0
  -26.0404  -26.0172   18.9443 H   0  0  0  0  0  0
  -23.9774  -27.3118   19.0165 H   0  0  0  0  0  0
  -23.7084  -30.6068   19.4084 H   0  0  0  0  0  0
  -22.7276  -29.2499   19.8718 H   0  0  0  0  0  0
  -25.1283  -36.1996   25.0836 H   0  0  0  0  0  0
  -20.9952  -28.3217   24.1449 H   0  0  0  0  0  0
  -20.5675  -26.2263   23.3594 H   0  0  0  0  0  0
  -21.6628  -26.7454   22.1201 H   0  0  0  0  0  0
  -19.6900  -25.6304   21.1233 H   0  0  0  0  0  0
  -19.6683  -27.3209   20.6753 H   0  0  0  0  0  0
  -17.4189  -26.6686   21.4024 H   0  0  0  0  0  0
  -18.0318  -26.0061   22.9013 H   0  0  0  0  0  0
  -19.7921  -30.7256   24.2302 H   0  0  0  0  0  0
  -17.5002  -31.6271   24.5163 H   0  0  0  0  0  0
  -15.5342  -30.2997   23.7635 H   0  0  0  0  0  0
  -15.8661  -28.0832   22.7050 H   0  0  0  0  0  0
  -24.5927  -30.7031   25.7827 H   0  0  0  0  0  0
  -24.8906  -32.2845   26.4933 H   0  0  0  0  0  0
  -25.8094  -30.8882   27.0240 H   0  0  0  0  0  0
  -26.2819  -29.6828   24.1149 H   0  0  0  0  0  0
  -27.4073  -29.7282   25.4539 H   0  0  0  0  0  0
  -27.8652  -30.4391   23.9226 H   0  0  0  0  0  0
  -27.2697  -33.3612   26.2094 H   0  0  0  0  0  0
  -28.3847  -32.6873   25.0295 H   0  0  0  0  0  0
  -28.0740  -31.8415   26.5375 H   0  0  0  0  0  0
  -28.2612  -38.0102   24.7501 H   0  0  0  0  0  0
  -28.1066  -36.2632   24.6306 H   0  0  0  0  0  0
  -27.2298  -37.1490   25.8869 H   0  0  0  0  0  0
  -20.9276  -29.8758   21.6973 H   0  0  0  0  0  0
  -26.0196  -38.2882   24.1392 H   0  0  0  0  0  0
  -27.6370  -20.4366   21.2375 H   0  0  0  0  0  0
  -27.0107  -17.7747   21.5682 H   0  0  0  0  0  0
  -27.7490  -16.2442   21.9658 H   0  0  0  0  0  0
  -27.5605  -16.7187   20.2686 H   0  0  0  0  0  0
  -31.3372  -17.9043   14.1068 H   0  0  0  0  0  0
  -29.9218  -18.1667   15.1060 H   0  0  0  0  0  0
  -31.4159  -17.5815   15.8298 H   0  0  0  0  0  0
  -31.3402  -20.3462   13.2478 H   0  0  0  0  0  0
  -31.3408  -21.6761   14.3965 H   0  0  0  0  0  0
  -29.8903  -20.6960   14.1848 H   0  0  0  0  0  0
  -28.3888  -23.0355   21.4620 H   0  0  0  0  0  0
  -28.5369  -24.7468   21.8212 H   0  0  0  0  0  0
  -29.8578  -23.9022   21.0177 H   0  0  0  0  0  0
  -29.3470  -21.4348   16.7790 H   0  0  0  0  0  0
  -29.0224  -19.7564   16.4249 H   0  0  0  0  0  0
  -31.5872  -19.5045   17.4399 H   0  0  0  0  0  0
  -31.6734  -21.1529   16.9378 H   0  0  0  0  0  0
  -28.1979  -23.6229   17.6803 H   0  0  0  0  0  0
  -29.5113  -23.0136   18.6353 H   0  0  0  0  0  0
  -27.1280  -21.6781   17.9049 H   0  0  0  0  0  0
  -26.8068  -22.0763   19.5659 H   0  0  0  0  0  0
  -31.2702  -17.1366   21.3309 H   0  0  0  0  0  0
  -30.4942  -16.8163   19.8063 H   0  0  0  0  0  0
  -28.2339  -25.9186   18.2050 H   0  0  0  0  0  0
  -29.7338  -25.6308   19.0231 H   0  0  0  0  0  0
  -29.3535  -18.1292   22.2739 H   0  0  0  0  0  0
  -32.5703  -19.6889   15.2512 H   0  0  0  0  0  0
  -27.0763  -24.3828   19.8527 H   0  0  0  0  0  0
  -30.2423  -18.3212   18.7179 H   0  0  0  0  0  0
  -29.1884  -15.1681   21.6342 H   0  0  0  0  0  0
  1 25  1  0  0  0
  1 30  2  0  0  0
  1 89  1  0  0  0
  2  3  1  0  0  0
  2 25  1  0  0  0
  2 90  1  0  0  0
  2 91  1  0  0  0
  3  4  1  0  0  0
  3 92  1  0  0  0
  3 93  1  0  0  0
  4  5  1  0  0  0
  4 94  1  0  0  0
  4 95  1  0  0  0
  5  6  1  0  0  0
  5 26  1  0  0  0
  5 96  1  0  0  0
  6 25  1  0  0  0
  6 97  1  0  0  0
  6 98  1  0  0  0
  7  8  2  0  0  0
  7 26  1  0  0  0
  7 29  1  0  0  0
  8  9  1  0  0  0
  8 22  1  0  0  0
  9 10  1  0  0  0
  9 27  2  0  0  0
 10 11  2  0  0  0
 10 15  1  0  0  0
 11 12  1  0  0  0
 11 99  1  0  0  0
 12 13  2  0  0  0
 12100  1  0  0  0
 13 14  1  0  0  0
 13 31  1  0  0  0
 14 15  2  0  0  0
 14101  1  0  0  0
 15102  1  0  0  0
 16 17  2  0  0  0
 16 21  1  0  0  0
 16 31  1  0  0  0
 17 18  1  0  0  0
 17103  1  0  0  0
 18 19  2  0  0  0
 18104  1  0  0  0
 19 20  1  0  0  0
 19 24  1  0  0  0
 20 21  2  0  0  0
 20105  1  0  0  0
 21 23  1  0  0  0
 22 28  1  0  0  0
 22 32  2  0  0  0
 26 27  1  0  0  0
 28106  1  0  0  0
 28107  1  0  0  0
 29108  1  0  0  0
 29109  1  0  0  0
 33 34  1  0  0  0
 33 66  1  0  0  0
 33 70  2  0  0  0
 34 36  1  0  0  0
 34 59  1  0  0  0
 34110  1  0  0  0
 35 44  2  0  0  0
 35 45  1  0  0  0
 35 68  1  0  0  0
 36 56  1  0  0  0
 36111  1  0  0  0
 37 39  1  0  0  0
 37 47  1  0  0  0
 37 66  1  0  0  0
 37112  1  0  0  0
 38 43  2  0  0  0
 38 46  1  0  0  0
 38 47  1  0  0  0
 39 64  1  0  0  0
 39 67  2  0  0  0
 40 52  1  0  0  0
 40 53  2  0  0  0
 40 58  1  0  0  0
 41113  1  0  0  0
 41114  1  0  0  0
 41115  1  0  0  0
 41 48  1  0  0  0
 42 43  1  0  0  0
 42 66  1  0  0  0
 42116  1  0  0  0
 42117  1  0  0  0
 43 44  1  0  0  0
 44118  1  0  0  0
 45 46  2  0  0  0
 45119  1  0  0  0
 46120  1  0  0  0
 47121  1  0  0  0
 47122  1  0  0  0
 48 56  1  0  0  0
 48 65  1  0  0  0
 48123  1  0  0  0
 49 50  1  0  0  0
 49 53  1  0  0  0
 49 64  1  0  0  0
 49124  1  0  0  0
 50 51  1  0  0  0
 50125  1  0  0  0
 50126  1  0  0  0
 51 52  1  0  0  0
 51127  1  0  0  0
 51128  1  0  0  0
 52129  1  0  0  0
 52130  1  0  0  0
 53 54  1  0  0  0
 54 55  2  0  0  0
 54131  1  0  0  0
 55 57  1  0  0  0
 55132  1  0  0  0
 56 69  2  0  0  0
 57 58  2  0  0  0
 57133  1  0  0  0
 58134  1  0  0  0
 59 60  1  0  0  0
 59 61  1  0  0  0
 59 62  1  0  0  0
 60135  1  0  0  0
 60136  1  0  0  0
 60137  1  0  0  0
 61138  1  0  0  0
 61139  1  0  0  0
 61140  1  0  0  0
 62141  1  0  0  0
 62142  1  0  0  0
 62143  1  0  0  0
 63 65  1  0  0  0
 63144  1  0  0  0
 63145  1  0  0  0
 63146  1  0  0  0
 64147  1  0  0  0
 65148  1  0  0  0
 68 83  1  0  0  0
 71 72  2  0  0  0
 71 87  1  0  0  0
 71149  1  0  0  0
 72 84  1  0  0  0
 72 88  1  0  0  0
 73 78  1  0  0  0
 73 87  1  0  0  0
 73 88  2  0  0  0
 74150  1  0  0  0
 74151  1  0  0  0
 74152  1  0  0  0
 74 84  1  0  0  0
 75153  1  0  0  0
 75154  1  0  0  0
 75155  1  0  0  0
 75 85  1  0  0  0
 76 85  1  0  0  0
 76156  1  0  0  0
 76157  1  0  0  0
 76158  1  0  0  0
 77159  1  0  0  0
 77160  1  0  0  0
 77161  1  0  0  0
 77 86  1  0  0  0
 78 79  1  0  0  0
 78162  1  0  0  0
 78163  1  0  0  0
 79 85  1  0  0  0
 79164  1  0  0  0
 79165  1  0  0  0
 80 81  1  0  0  0
 80 86  1  0  0  0
 80166  1  0  0  0
 80167  1  0  0  0
 81 87  1  0  0  0
 81168  1  0  0  0
 81169  1  0  0  0
 82 84  1  0  0  0
 82 89  1  0  0  0
 82170  1  0  0  0
 82171  1  0  0  0
 83 86  1  0  0  0
 83172  1  0  0  0
 83173  1  0  0  0
 84174  1  0  0  0
 85175  1  0  0  0
 86176  1  0  0  0
 88177  1  0  0  0
 89178  1  0  0  0
M  CHG  1  88   1
M  ISO  4   1 100  68 101  83 101  89 100
M  END
> <chiral flag>
0

> <version>
0

> <s_m_source_file>
/data/baiqing/PycharmProjects/Reinvent-master-3.2/result/LINK_invent/BTK/process_docking_weight1_custom_sum_contain_oxygen_bond_distance_aromatic_linkinvent_7_9_3/rearranged_h_0085.sdf

> <i_m_source_file_index>
79

> <r_mmod_Potential_Energy-OPLS-2005>
-80.1450271606445

> <r_mmod_Stretch_Energy-OPLS-2005>
33.2135810852051

> <r_mmod_Bend_Energy-OPLS-2005>
108.055557250977

> <r_mmod_Torsional_Energy-OPLS-2005>
267.761169433594

> <r_mmod_Improper_Torsional_Energy-OPLS-2005>
6.65525245666504

> <r_mmod_Van_der_Waal_Energy-OPLS-2005>
137.185577392578

> <r_mmod_Electrostatic_Energy-OPLS-2005>
-236.136260986328

> <r_mmod_Solvation_Energy-OPLS-2005>
-406.305419921875

> <b_mmod_Minimization_Converged-OPLS-2005>
0

> <r_mmod_RMS_Derivative-OPLS-2005>
2.16639637947083

$$$$
82
                    3D
 Structure written by MMmdl.
165173  0  0  1  0            999 V2000
  -30.7624  -14.4456   20.6385 C   0  0  0  0  0  0
  -30.4317  -12.3272   19.4179 C   0  0  0  0  0  0
  -29.4918  -12.5282   18.2082 C   0  0  0  0  0  0
  -28.0117  -12.3886   18.6254 C   0  0  0  0  0  0
  -27.6682  -13.2108   19.8982 C   0  0  2  0  0  0
  -28.7202  -12.9169   20.9911 C   0  0  0  0  0  0
  -25.2547  -13.8137   20.5703 C   0  0  0  0  0  0
  -24.1808  -13.0444   20.9182 C   0  0  0  0  0  0
  -24.6380  -11.6900   20.8785 C   0  0  0  0  0  0
  -23.9064  -10.4281   21.0452 C   0  0  0  0  0  0
  -24.3623   -9.4173   21.9221 C   0  0  0  0  0  0
  -23.6312   -8.2185   22.0759 C   0  0  0  0  0  0
  -22.4294   -8.0243   21.3544 C   0  0  0  0  0  0
  -21.9919   -9.0222   20.4677 C   0  0  0  0  0  0
  -22.7196  -10.2132   20.3137 C   0  0  0  0  0  0
  -21.6805   -6.0734   22.5283 C   0  0  0  0  0  0
  -21.4001   -6.5637   23.8235 C   0  0  0  0  0  0
  -21.3681   -5.6761   24.9190 C   0  0  0  0  0  0
  -21.6041   -4.3020   24.7203 C   0  0  0  0  0  0
  -21.8800   -3.8142   23.4310 C   0  0  0  0  0  0
  -21.9142   -4.6984   22.3399 C   0  0  0  0  0  0
  -22.7823  -13.5283   21.1786 C   0  0  0  0  0  0
  -22.1639   -4.2222   21.0946 F   0  0  0  0  0  0
  -21.5640   -3.4458   25.7691 F   0  0  0  0  0  0
  -30.0450  -13.2917   20.4708 N   0  0  0  0  0  0
  -26.3063  -12.9360   20.3520 N   0  0  0  0  0  0
  -25.9353  -11.6509   20.5895 N   0  0  0  0  0  0
  -22.0291  -12.8264   22.0162 N   0  0  0  0  0  0
  -25.4141  -15.1830   20.3984 N   0  0  0  0  0  0
  -31.8264  -14.6317   20.0471 O   0  0  0  0  0  0
  -21.6621   -6.8864   21.4251 O   0  0  0  0  0  0
  -22.3636  -14.5666   20.6665 O   0  0  0  0  0  0
  -24.6163  -31.8726   23.2139 C   0  0  0  0  0  0
  -25.9059  -32.4831   23.8427 C   0  0  1  0  0  0
  -27.2079  -27.4287   20.0918 C   0  0  0  0  0  0
  -25.5923  -33.8622   24.2361 N   0  0  0  0  0  0
  -23.4000  -30.5033   21.5546 C   0  0  2  0  0  0
  -24.8403  -28.9813   20.1050 C   0  0  0  0  0  0
  -22.7394  -29.4703   22.4956 C   0  0  0  0  0  0
  -18.0268  -28.1376   22.8489 C   0  0  0  0  0  0
  -24.1471  -36.7314   23.2627 C   0  0  0  0  0  0
  -25.9331  -30.8373   21.3657 C   0  0  0  0  0  0
  -26.0045  -29.4764   20.7048 C   0  0  0  0  0  0
  -27.1932  -28.7087   20.6959 C   0  0  0  0  0  0
  -26.0299  -26.9724   19.4519 C   0  0  0  0  0  0
  -24.8480  -27.7282   19.4743 C   0  0  0  0  0  0
  -23.6041  -29.8492   20.1644 C   0  0  0  0  0  0
  -25.4085  -36.3108   24.0331 C   0  0  1  0  0  0
  -20.5859  -28.3685   23.1280 C   0  0  2  0  0  0
  -20.6757  -26.9421   22.5395 C   0  0  0  0  0  0
  -19.5747  -26.6394   21.5185 C   0  0  0  0  0  0
  -18.1921  -26.7929   22.1608 C   0  0  0  0  0  0
  -19.1519  -28.8837   23.2895 C   0  0  0  0  0  0
  -18.9471  -30.1434   23.8930 C   0  0  0  0  0  0
  -17.6486  -30.6600   24.0562 C   0  0  0  0  0  0
  -25.9035  -34.9473   23.5129 C   0  0  0  0  0  0
  -16.5364  -29.9109   23.6320 C   0  0  0  0  0  0
  -16.7263  -28.6503   23.0362 C   0  0  0  0  0  0
  -26.4490  -31.6601   25.0739 C   0  0  0  0  0  0
  -25.3773  -31.3724   26.1496 C   0  0  0  0  0  0
  -27.0316  -30.3035   24.6107 C   0  0  0  0  0  0
  -27.6076  -32.4312   25.7522 C   0  0  0  0  0  0
  -27.5574  -37.1795   24.8466 C   0  0  0  0  0  0
  -21.4115  -29.3070   22.3685 N   0  0  0  0  0  0
  -26.4291  -37.3790   23.9417 N   0  0  0  0  0  0
  -24.6695  -31.0838   22.1041 N   0  0  0  0  0  0
  -23.4162  -28.8222   23.2988 O   0  0  0  0  0  0
  -28.3235  -26.6154   20.1896 O   0  0  0  0  0  0
  -26.5599  -34.8931   22.4688 O   0  0  0  0  0  0
  -23.5357  -32.1468   23.7555 O   0  0  0  0  0  0
  -27.5922  -20.2152   21.5140 C   0  0  0  0  0  0
  -27.4350  -18.9303   21.9481 C   0  0  0  0  0  0
  -28.7601  -18.4893   22.2418 C   0  0  0  0  0  0
  -26.1364  -18.1871   22.1310 C   0  0  0  0  0  0
  -27.4422  -25.3052   22.0685 C   0  0  0  0  0  0
  -28.7937  -22.8188   20.4980 C   0  0  0  0  0  0
  -29.2489  -24.3056   20.5861 C   0  0  0  0  0  0
  -29.6078  -21.8029   21.3407 C   0  0  0  0  0  0
  -29.1011  -15.9113   21.9691 C   0  0  0  0  0  0
  -29.1426  -17.1621   22.8963 C   0  0  1  0  0  0
  -28.0351  -25.2670   20.6409 C   0  0  2  0  0  0
  -30.3750  -17.2495   23.8215 C   0  0  0  0  0  0
  -29.6632  -19.4166   21.9061 N   0  0  0  0  0  0
  -28.9439  -20.5053   21.5238 N   0  0  0  0  0  0
  -30.4064  -15.3921   21.5314 N   0  0  0  0  0  0
  -30.2054  -18.1980   24.7479 F   0  0  0  0  0  0
  -30.5657  -16.0891   24.4565 F   0  0  0  0  0  0
  -31.4724  -12.4190   19.1056 H   0  0  0  0  0  0
  -30.3538  -11.3074   19.7985 H   0  0  0  0  0  0
  -29.7313  -11.8031   17.4279 H   0  0  0  0  0  0
  -29.6626  -13.5147   17.7719 H   0  0  0  0  0  0
  -27.8191  -11.3302   18.8078 H   0  0  0  0  0  0
  -27.3614  -12.6800   17.8012 H   0  0  0  0  0  0
  -27.7254  -14.2703   19.6434 H   0  0  0  0  0  0
  -28.4744  -13.3306   21.9569 H   0  0  0  0  0  0
  -28.7161  -11.8469   21.1982 H   0  0  0  0  0  0
  -25.2729   -9.5630   22.4871 H   0  0  0  0  0  0
  -24.0021   -7.4504   22.7400 H   0  0  0  0  0  0
  -21.0832   -8.8719   19.9003 H   0  0  0  0  0  0
  -22.3578  -10.9669   19.6302 H   0  0  0  0  0  0
  -21.2052   -7.6154   23.9762 H   0  0  0  0  0  0
  -21.1557   -6.0527   25.9090 H   0  0  0  0  0  0
  -22.0601   -2.7634   23.2752 H   0  0  0  0  0  0
  -21.0783  -13.1266   22.1817 H   0  0  0  0  0  0
  -22.3627  -11.9768   22.4480 H   0  0  0  0  0  0
  -24.6057  -15.7899   20.4662 H   0  0  0  0  0  0
  -26.2249  -15.6263   19.9881 H   0  0  0  0  0  0
  -26.7121  -32.5534   23.1182 H   0  0  0  0  0  0
  -25.0075  -33.9791   25.0507 H   0  0  0  0  0  0
  -22.6899  -31.3233   21.4249 H   0  0  0  0  0  0
  -23.3742  -35.9652   23.3305 H   0  0  0  0  0  0
  -24.3570  -36.8918   22.2050 H   0  0  0  0  0  0
  -23.7227  -37.6507   23.6647 H   0  0  0  0  0  0
  -26.0448  -31.6097   20.6027 H   0  0  0  0  0  0
  -26.8217  -30.8863   21.9841 H   0  0  0  0  0  0
  -28.0839  -29.0726   21.1853 H   0  0  0  0  0  0
  -25.9912  -26.0219   18.9401 H   0  0  0  0  0  0
  -23.9523  -27.3467   19.0011 H   0  0  0  0  0  0
  -23.7145  -30.6341   19.4171 H   0  0  0  0  0  0
  -22.7258  -29.2756   19.8622 H   0  0  0  0  0  0
  -25.1252  -36.1985   25.0830 H   0  0  0  0  0  0
  -20.9968  -28.3279   24.1391 H   0  0  0  0  0  0
  -20.5626  -26.2317   23.3590 H   0  0  0  0  0  0
  -21.6631  -26.7448   22.1212 H   0  0  0  0  0  0
  -19.6937  -25.6302   21.1215 H   0  0  0  0  0  0
  -19.6689  -27.3207   20.6712 H   0  0  0  0  0  0
  -17.4178  -26.6664   21.4017 H   0  0  0  0  0  0
  -18.0367  -26.0054   22.8998 H   0  0  0  0  0  0
  -19.7952  -30.7214   24.2332 H   0  0  0  0  0  0
  -17.5053  -31.6289   24.5158 H   0  0  0  0  0  0
  -15.5365  -30.3047   23.7620 H   0  0  0  0  0  0
  -15.8643  -28.0819   22.7116 H   0  0  0  0  0  0
  -24.5916  -30.7093   25.7847 H   0  0  0  0  0  0
  -24.9005  -32.2897   26.4964 H   0  0  0  0  0  0
  -25.8124  -30.8869   27.0242 H   0  0  0  0  0  0
  -26.2861  -29.6799   24.1148 H   0  0  0  0  0  0
  -27.4080  -29.7247   25.4561 H   0  0  0  0  0  0
  -27.8698  -30.4344   23.9258 H   0  0  0  0  0  0
  -27.2684  -33.3585   26.2158 H   0  0  0  0  0  0
  -28.3872  -32.6916   25.0350 H   0  0  0  0  0  0
  -28.0762  -31.8398   26.5406 H   0  0  0  0  0  0
  -28.2575  -38.0102   24.7506 H   0  0  0  0  0  0
  -28.1074  -36.2629   24.6289 H   0  0  0  0  0  0
  -27.2295  -37.1438   25.8869 H   0  0  0  0  0  0
  -20.9275  -29.8787   21.6895 H   0  0  0  0  0  0
  -26.0171  -38.2853   24.1470 H   0  0  0  0  0  0
  -26.8343  -20.9390   21.2519 H   0  0  0  0  0  0
  -25.5613  -18.5767   22.9724 H   0  0  0  0  0  0
  -26.2781  -17.1214   22.3091 H   0  0  0  0  0  0
  -25.5017  -18.2666   21.2492 H   0  0  0  0  0  0
  -27.2609  -24.3058   22.4640 H   0  0  0  0  0  0
  -26.4843  -25.8245   22.1005 H   0  0  0  0  0  0
  -28.1107  -25.8137   22.7626 H   0  0  0  0  0  0
  -28.7676  -22.4993   19.4545 H   0  0  0  0  0  0
  -27.7599  -22.7845   20.8296 H   0  0  0  0  0  0
  -29.8684  -24.5380   19.7194 H   0  0  0  0  0  0
  -29.8790  -24.4740   21.4607 H   0  0  0  0  0  0
  -29.7717  -22.2180   22.3361 H   0  0  0  0  0  0
  -30.5973  -21.6505   20.9095 H   0  0  0  0  0  0
  -28.4107  -16.0490   21.1389 H   0  0  0  0  0  0
  -28.6691  -15.1673   22.6264 H   0  0  0  0  0  0
  -28.3318  -16.9852   23.6075 H   0  0  0  0  0  0
  -27.2982  -24.8154   19.9800 H   0  0  0  0  0  0
  -31.2844  -17.4918   23.2696 H   0  0  0  0  0  0
  -31.1452  -16.0729   21.6262 H   0  0  0  0  0  0
  1 25  1  0  0  0
  1 30  2  0  0  0
  1 85  1  0  0  0
  2  3  1  0  0  0
  2 25  1  0  0  0
  2 88  1  0  0  0
  2 89  1  0  0  0
  3  4  1  0  0  0
  3 90  1  0  0  0
  3 91  1  0  0  0
  4  5  1  0  0  0
  4 92  1  0  0  0
  4 93  1  0  0  0
  5  6  1  0  0  0
  5 26  1  0  0  0
  5 94  1  0  0  0
  6 25  1  0  0  0
  6 95  1  0  0  0
  6 96  1  0  0  0
  7  8  2  0  0  0
  7 26  1  0  0  0
  7 29  1  0  0  0
  8  9  1  0  0  0
  8 22  1  0  0  0
  9 10  1  0  0  0
  9 27  2  0  0  0
 10 11  2  0  0  0
 10 15  1  0  0  0
 11 12  1  0  0  0
 11 97  1  0  0  0
 12 13  2  0  0  0
 12 98  1  0  0  0
 13 14  1  0  0  0
 13 31  1  0  0  0
 14 15  2  0  0  0
 14 99  1  0  0  0
 15100  1  0  0  0
 16 17  2  0  0  0
 16 21  1  0  0  0
 16 31  1  0  0  0
 17 18  1  0  0  0
 17101  1  0  0  0
 18 19  2  0  0  0
 18102  1  0  0  0
 19 20  1  0  0  0
 19 24  1  0  0  0
 20 21  2  0  0  0
 20103  1  0  0  0
 21 23  1  0  0  0
 22 28  1  0  0  0
 22 32  2  0  0  0
 26 27  1  0  0  0
 28104  1  0  0  0
 28105  1  0  0  0
 29106  1  0  0  0
 29107  1  0  0  0
 33 34  1  0  0  0
 33 66  1  0  0  0
 33 70  2  0  0  0
 34 36  1  0  0  0
 34 59  1  0  0  0
 34108  1  0  0  0
 35 44  2  0  0  0
 35 45  1  0  0  0
 35 68  1  0  0  0
 36 56  1  0  0  0
 36109  1  0  0  0
 37 39  1  0  0  0
 37 47  1  0  0  0
 37 66  1  0  0  0
 37110  1  0  0  0
 38 43  2  0  0  0
 38 46  1  0  0  0
 38 47  1  0  0  0
 39 64  1  0  0  0
 39 67  2  0  0  0
 40 52  1  0  0  0
 40 53  2  0  0  0
 40 58  1  0  0  0
 41111  1  0  0  0
 41112  1  0  0  0
 41113  1  0  0  0
 41 48  1  0  0  0
 42 43  1  0  0  0
 42 66  1  0  0  0
 42114  1  0  0  0
 42115  1  0  0  0
 43 44  1  0  0  0
 44116  1  0  0  0
 45 46  2  0  0  0
 45117  1  0  0  0
 46118  1  0  0  0
 47119  1  0  0  0
 47120  1  0  0  0
 48 56  1  0  0  0
 48 65  1  0  0  0
 48121  1  0  0  0
 49 50  1  0  0  0
 49 53  1  0  0  0
 49 64  1  0  0  0
 49122  1  0  0  0
 50 51  1  0  0  0
 50123  1  0  0  0
 50124  1  0  0  0
 51 52  1  0  0  0
 51125  1  0  0  0
 51126  1  0  0  0
 52127  1  0  0  0
 52128  1  0  0  0
 53 54  1  0  0  0
 54 55  2  0  0  0
 54129  1  0  0  0
 55 57  1  0  0  0
 55130  1  0  0  0
 56 69  2  0  0  0
 57 58  2  0  0  0
 57131  1  0  0  0
 58132  1  0  0  0
 59 60  1  0  0  0
 59 61  1  0  0  0
 59 62  1  0  0  0
 60133  1  0  0  0
 60134  1  0  0  0
 60135  1  0  0  0
 61136  1  0  0  0
 61137  1  0  0  0
 61138  1  0  0  0
 62139  1  0  0  0
 62140  1  0  0  0
 62141  1  0  0  0
 63 65  1  0  0  0
 63142  1  0  0  0
 63143  1  0  0  0
 63144  1  0  0  0
 64145  1  0  0  0
 65146  1  0  0  0
 68 81  1  0  0  0
 71 72  2  0  0  0
 71 84  1  0  0  0
 71147  1  0  0  0
 72 73  1  0  0  0
 72 74  1  0  0  0
 73 80  1  0  0  0
 73 83  2  0  0  0
 74148  1  0  0  0
 74149  1  0  0  0
 74150  1  0  0  0
 75151  1  0  0  0
 75152  1  0  0  0
 75153  1  0  0  0
 75 81  1  0  0  0
 76 77  1  0  0  0
 76 78  1  0  0  0
 76154  1  0  0  0
 76155  1  0  0  0
 77 81  1  0  0  0
 77156  1  0  0  0
 77157  1  0  0  0
 78 84  1  0  0  0
 78158  1  0  0  0
 78159  1  0  0  0
 79 85  1  0  0  0
 79160  1  0  0  0
 79161  1  0  0  0
 79 80  1  0  0  0
 80 82  1  0  0  0
 80162  1  0  0  0
 81163  1  0  0  0
 82 86  1  0  0  0
 82 87  1  0  0  0
 82164  1  0  0  0
 83 84  1  0  0  0
 85165  1  0  0  0
M  ISO  4   1 100  68 101  81 101  85 100
M  END
> <chiral flag>
0

> <version>
0

> <s_m_source_file>
/data/baiqing/PycharmProjects/Reinvent-master-3.2/result/LINK_invent/BTK/process_docking_weight1_custom_sum_contain_oxygen_bond_distance_aromatic_linkinvent_7_9_3/rearranged_h_0085.sdf

> <i_m_source_file_index>
80

> <r_mmod_Potential_Energy-OPLS-2005>
73.0011596679688

> <r_mmod_Stretch_Energy-OPLS-2005>
42.1387977600098

> <r_mmod_Bend_Energy-OPLS-2005>
145.690139770508

> <r_mmod_Torsional_Energy-OPLS-2005>
298.0791015625

> <r_mmod_Improper_Torsional_Energy-OPLS-2005>
5.40215921401978

> <r_mmod_Van_der_Waal_Energy-OPLS-2005>
136.672424316406

> <r_mmod_Electrostatic_Energy-OPLS-2005>
-366.241851806641

> <r_mmod_Solvation_Energy-OPLS-2005>
-205.382568359375

> <b_mmod_Minimization_Converged-OPLS-2005>
0

> <r_mmod_RMS_Derivative-OPLS-2005>
5.29080677032471

$$$$
83
                    3D
 Structure written by MMmdl.
158166  0  0  1  0            999 V2000
  -30.7220  -14.3719   20.6814 C   0  0  0  0  0  0
  -30.4262  -12.2878   19.3881 C   0  0  0  0  0  0
  -29.4834  -12.5162   18.1888 C   0  0  0  0  0  0
  -28.0070  -12.3654   18.6062 C   0  0  0  0  0  0
  -27.6636  -13.1855   19.8750 C   0  0  2  0  0  0
  -28.6967  -12.9036   20.9872 C   0  0  0  0  0  0
  -25.2615  -13.8119   20.5666 C   0  0  0  0  0  0
  -24.1862  -13.0445   20.9209 C   0  0  0  0  0  0
  -24.6363  -11.6894   20.8727 C   0  0  0  0  0  0
  -23.9024  -10.4291   21.0398 C   0  0  0  0  0  0
  -24.3587   -9.4201   21.9184 C   0  0  0  0  0  0
  -23.6279   -8.2232   22.0746 C   0  0  0  0  0  0
  -22.4254   -8.0252   21.3539 C   0  0  0  0  0  0
  -21.9881   -9.0228   20.4643 C   0  0  0  0  0  0
  -22.7193  -10.2121   20.3056 C   0  0  0  0  0  0
  -21.6836   -6.0720   22.5289 C   0  0  0  0  0  0
  -21.4013   -6.5640   23.8217 C   0  0  0  0  0  0
  -21.3668   -5.6797   24.9187 C   0  0  0  0  0  0
  -21.6031   -4.3055   24.7229 C   0  0  0  0  0  0
  -21.8827   -3.8140   23.4348 C   0  0  0  0  0  0
  -21.9200   -4.6952   22.3406 C   0  0  0  0  0  0
  -22.7893  -13.5253   21.1882 C   0  0  0  0  0  0
  -22.1663   -4.2149   21.0978 F   0  0  0  0  0  0
  -21.5645   -3.4533   25.7742 F   0  0  0  0  0  0
  -30.0406  -13.2189   20.4606 N   0  0  0  0  0  0
  -26.3002  -12.9247   20.3299 N   0  0  0  0  0  0
  -25.9260  -11.6420   20.5704 N   0  0  0  0  0  0
  -22.0505  -12.8249   22.0396 N   0  0  0  0  0  0
  -25.4416  -15.1841   20.4057 N   0  0  0  0  0  0
  -31.7517  -14.6851   20.0753 O   0  0  0  0  0  0
  -21.6616   -6.8847   21.4235 O   0  0  0  0  0  0
  -22.3605  -14.5563   20.6719 O   0  0  0  0  0  0
  -24.6161  -31.8668   23.2078 C   0  0  0  0  0  0
  -25.9048  -32.4811   23.8373 C   0  0  1  0  0  0
  -27.2376  -27.4125   20.0936 C   0  0  0  0  0  0
  -25.5907  -33.8612   24.2317 N   0  0  0  0  0  0
  -23.4069  -30.4915   21.5488 C   0  0  2  0  0  0
  -24.8510  -28.9549   20.1165 C   0  0  0  0  0  0
  -22.7421  -29.4658   22.4945 C   0  0  0  0  0  0
  -18.0287  -28.1390   22.8497 C   0  0  0  0  0  0
  -24.1482  -36.7314   23.2641 C   0  0  0  0  0  0
  -25.9395  -30.8261   21.3620 C   0  0  0  0  0  0
  -26.0147  -29.4586   20.7107 C   0  0  0  0  0  0
  -27.2096  -28.6978   20.6908 C   0  0  0  0  0  0
  -26.0428  -26.9246   19.5128 C   0  0  0  0  0  0
  -24.8611  -27.6874   19.5154 C   0  0  0  0  0  0
  -23.6161  -29.8254   20.1639 C   0  0  0  0  0  0
  -25.4107  -36.3109   24.0336 C   0  0  1  0  0  0
  -20.5872  -28.3686   23.1295 C   0  0  2  0  0  0
  -20.6762  -26.9408   22.5419 C   0  0  0  0  0  0
  -19.5738  -26.6397   21.5215 C   0  0  0  0  0  0
  -18.1931  -26.7941   22.1628 C   0  0  0  0  0  0
  -19.1542  -28.8847   23.2903 C   0  0  0  0  0  0
  -18.9457  -30.1448   23.8917 C   0  0  0  0  0  0
  -17.6463  -30.6600   24.0576 C   0  0  0  0  0  0
  -25.9024  -34.9464   23.5121 C   0  0  0  0  0  0
  -16.5350  -29.9111   23.6327 C   0  0  0  0  0  0
  -16.7272  -28.6528   23.0348 C   0  0  0  0  0  0
  -26.4471  -31.6592   25.0713 C   0  0  0  0  0  0
  -25.3751  -31.3715   26.1479 C   0  0  0  0  0  0
  -27.0277  -30.3032   24.6081 C   0  0  0  0  0  0
  -27.6041  -32.4312   25.7491 C   0  0  0  0  0  0
  -27.5572  -37.1844   24.8490 C   0  0  0  0  0  0
  -21.4143  -29.3053   22.3711 N   0  0  0  0  0  0
  -26.4311  -37.3782   23.9382 N   0  0  0  0  0  0
  -24.6741  -31.0757   22.0987 N   0  0  0  0  0  0
  -23.4191  -28.8169   23.2962 O   0  0  0  0  0  0
  -28.4216  -26.6867   20.0957 O   0  0  0  0  0  0
  -26.5602  -34.8924   22.4688 O   0  0  0  0  0  0
  -23.5353  -32.1410   23.7476 O   0  0  0  0  0  0
  -30.6866  -21.1383   20.1941 C   0  0  0  0  0  0
  -30.0597  -20.2420   21.0169 C   0  0  0  0  0  0
  -30.6153  -19.0244   21.7222 C   0  0  0  0  0  0
  -29.7651  -24.6244   19.7228 C   0  0  0  0  0  0
  -29.7877  -23.2347   19.0231 C   0  0  0  0  0  0
  -30.6942  -16.4814   22.0249 C   0  0  0  0  0  0
  -28.3663  -25.2764   19.8002 C   0  0  0  0  0  0
  -30.0027  -17.6634   21.2979 C   0  0  1  0  0  0
  -28.7422  -20.6711   21.1984 N   0  0  0  0  0  0
  -28.5397  -21.7615   20.5197 N   0  0  0  0  0  0
  -29.7082  -22.0754   19.9072 N   0  0  0  0  0  0
  -30.1847  -15.1683   21.6157 N   0  0  0  0  0  0
  -28.5431  -17.6338   21.5214 N   0  3  0  0  0  0
  -31.4656  -12.4179   19.0799 H   0  0  0  0  0  0
  -30.3490  -11.2569   19.7416 H   0  0  0  0  0  0
  -29.7148  -11.8136   17.3885 H   0  0  0  0  0  0
  -29.6466  -13.5117   17.7755 H   0  0  0  0  0  0
  -27.8166  -11.3062   18.7913 H   0  0  0  0  0  0
  -27.3506  -12.6513   17.7820 H   0  0  0  0  0  0
  -27.7349  -14.2382   19.6068 H   0  0  0  0  0  0
  -28.6618  -11.8490   21.2645 H   0  0  0  0  0  0
  -28.4363  -13.4421   21.8978 H   0  0  0  0  0  0
  -25.2730   -9.5691   22.4760 H   0  0  0  0  0  0
  -23.9988   -7.4615   22.7467 H   0  0  0  0  0  0
  -21.0814   -8.8739   19.8941 H   0  0  0  0  0  0
  -22.3636  -10.9663   19.6170 H   0  0  0  0  0  0
  -21.1988   -7.6148   23.9731 H   0  0  0  0  0  0
  -21.1487   -6.0515   25.9095 H   0  0  0  0  0  0
  -22.0589   -2.7603   23.2850 H   0  0  0  0  0  0
  -22.4075  -11.9877   22.4763 H   0  0  0  0  0  0
  -21.1132  -13.1309   22.2615 H   0  0  0  0  0  0
  -24.6506  -15.8170   20.4650 H   0  0  0  0  0  0
  -26.2093  -15.5649   19.8687 H   0  0  0  0  0  0
  -26.7118  -32.5522   23.1142 H   0  0  0  0  0  0
  -25.0082  -33.9768   25.0477 H   0  0  0  0  0  0
  -22.6956  -31.3089   21.4080 H   0  0  0  0  0  0
  -23.3726  -35.9682   23.3373 H   0  0  0  0  0  0
  -24.3560  -36.8861   22.2044 H   0  0  0  0  0  0
  -23.7271  -37.6554   23.6606 H   0  0  0  0  0  0
  -26.0510  -31.5845   20.5849 H   0  0  0  0  0  0
  -26.8287  -30.8818   21.9776 H   0  0  0  0  0  0
  -28.1084  -29.0883   21.1460 H   0  0  0  0  0  0
  -25.9838  -25.9532   19.0469 H   0  0  0  0  0  0
  -23.9660  -27.2872   19.0579 H   0  0  0  0  0  0
  -23.7290  -30.5994   19.4039 H   0  0  0  0  0  0
  -22.7388  -29.2497   19.8632 H   0  0  0  0  0  0
  -25.1291  -36.2003   25.0848 H   0  0  0  0  0  0
  -20.9984  -28.3251   24.1395 H   0  0  0  0  0  0
  -20.5645  -26.2278   23.3596 H   0  0  0  0  0  0
  -21.6628  -26.7429   22.1193 H   0  0  0  0  0  0
  -19.6880  -25.6314   21.1212 H   0  0  0  0  0  0
  -19.6671  -27.3229   20.6749 H   0  0  0  0  0  0
  -17.4180  -26.6688   21.4055 H   0  0  0  0  0  0
  -18.0332  -26.0105   22.9028 H   0  0  0  0  0  0
  -19.7937  -30.7282   24.2266 H   0  0  0  0  0  0
  -17.5021  -31.6260   24.5201 H   0  0  0  0  0  0
  -15.5358  -30.3018   23.7636 H   0  0  0  0  0  0
  -15.8670  -28.0863   22.7020 H   0  0  0  0  0  0
  -24.5912  -30.7070   25.7835 H   0  0  0  0  0  0
  -24.8962  -32.2879   26.4939 H   0  0  0  0  0  0
  -25.8126  -30.8887   27.0220 H   0  0  0  0  0  0
  -26.2810  -29.6844   24.1100 H   0  0  0  0  0  0
  -27.3990  -29.7226   25.4521 H   0  0  0  0  0  0
  -27.8668  -30.4332   23.9248 H   0  0  0  0  0  0
  -27.2634  -33.3578   26.2123 H   0  0  0  0  0  0
  -28.3836  -32.6939   25.0325 H   0  0  0  0  0  0
  -28.0732  -31.8413   26.5374 H   0  0  0  0  0  0
  -28.2681  -38.0048   24.7397 H   0  0  0  0  0  0
  -28.0963  -36.2565   24.6490 H   0  0  0  0  0  0
  -27.2254  -37.1717   25.8892 H   0  0  0  0  0  0
  -20.9274  -29.8827   21.6992 H   0  0  0  0  0  0
  -26.0205  -38.2890   24.1309 H   0  0  0  0  0  0
  -31.7014  -21.1866   19.8123 H   0  0  0  0  0  0
  -30.5094  -19.1454   22.7993 H   0  0  0  0  0  0
  -31.6905  -18.9730   21.5464 H   0  0  0  0  0  0
  -30.3965  -25.2923   19.1344 H   0  0  0  0  0  0
  -30.2301  -24.5632   20.7064 H   0  0  0  0  0  0
  -30.7109  -23.1381   18.4537 H   0  0  0  0  0  0
  -28.9881  -23.1562   18.2857 H   0  0  0  0  0  0
  -30.5657  -16.5761   23.1034 H   0  0  0  0  0  0
  -31.7731  -16.5255   21.8567 H   0  0  0  0  0  0
  -27.7655  -24.7689   20.5578 H   0  0  0  0  0  0
  -27.8832  -25.1150   18.8369 H   0  0  0  0  0  0
  -30.1710  -17.5352   20.2256 H   0  0  0  0  0  0
  -29.4003  -14.7839   22.1206 H   0  0  0  0  0  0
  -28.1703  -16.7104   21.4045 H   0  0  0  0  0  0
  -28.0891  -18.2490   20.8675 H   0  0  0  0  0  0
  -28.3234  -17.9622   22.4469 H   0  0  0  0  0  0
  1 25  1  0  0  0
  1 30  2  0  0  0
  1 82  1  0  0  0
  2  3  1  0  0  0
  2 25  1  0  0  0
  2 84  1  0  0  0
  2 85  1  0  0  0
  3  4  1  0  0  0
  3 86  1  0  0  0
  3 87  1  0  0  0
  4  5  1  0  0  0
  4 88  1  0  0  0
  4 89  1  0  0  0
  5  6  1  0  0  0
  5 26  1  0  0  0
  5 90  1  0  0  0
  6 25  1  0  0  0
  6 91  1  0  0  0
  6 92  1  0  0  0
  7  8  2  0  0  0
  7 26  1  0  0  0
  7 29  1  0  0  0
  8  9  1  0  0  0
  8 22  1  0  0  0
  9 10  1  0  0  0
  9 27  2  0  0  0
 10 11  2  0  0  0
 10 15  1  0  0  0
 11 12  1  0  0  0
 11 93  1  0  0  0
 12 13  2  0  0  0
 12 94  1  0  0  0
 13 14  1  0  0  0
 13 31  1  0  0  0
 14 15  2  0  0  0
 14 95  1  0  0  0
 15 96  1  0  0  0
 16 17  2  0  0  0
 16 21  1  0  0  0
 16 31  1  0  0  0
 17 18  1  0  0  0
 17 97  1  0  0  0
 18 19  2  0  0  0
 18 98  1  0  0  0
 19 20  1  0  0  0
 19 24  1  0  0  0
 20 21  2  0  0  0
 20 99  1  0  0  0
 21 23  1  0  0  0
 22 28  1  0  0  0
 22 32  2  0  0  0
 26 27  1  0  0  0
 28100  1  0  0  0
 28101  1  0  0  0
 29102  1  0  0  0
 29103  1  0  0  0
 33 34  1  0  0  0
 33 66  1  0  0  0
 33 70  2  0  0  0
 34 36  1  0  0  0
 34 59  1  0  0  0
 34104  1  0  0  0
 35 44  2  0  0  0
 35 45  1  0  0  0
 35 68  1  0  0  0
 36 56  1  0  0  0
 36105  1  0  0  0
 37 39  1  0  0  0
 37 47  1  0  0  0
 37 66  1  0  0  0
 37106  1  0  0  0
 38 43  2  0  0  0
 38 46  1  0  0  0
 38 47  1  0  0  0
 39 64  1  0  0  0
 39 67  2  0  0  0
 40 52  1  0  0  0
 40 53  2  0  0  0
 40 58  1  0  0  0
 41107  1  0  0  0
 41108  1  0  0  0
 41109  1  0  0  0
 41 48  1  0  0  0
 42 43  1  0  0  0
 42 66  1  0  0  0
 42110  1  0  0  0
 42111  1  0  0  0
 43 44  1  0  0  0
 44112  1  0  0  0
 45 46  2  0  0  0
 45113  1  0  0  0
 46114  1  0  0  0
 47115  1  0  0  0
 47116  1  0  0  0
 48 56  1  0  0  0
 48 65  1  0  0  0
 48117  1  0  0  0
 49 50  1  0  0  0
 49 53  1  0  0  0
 49 64  1  0  0  0
 49118  1  0  0  0
 50 51  1  0  0  0
 50119  1  0  0  0
 50120  1  0  0  0
 51 52  1  0  0  0
 51121  1  0  0  0
 51122  1  0  0  0
 52123  1  0  0  0
 52124  1  0  0  0
 53 54  1  0  0  0
 54 55  2  0  0  0
 54125  1  0  0  0
 55 57  1  0  0  0
 55126  1  0  0  0
 56 69  2  0  0  0
 57 58  2  0  0  0
 57127  1  0  0  0
 58128  1  0  0  0
 59 60  1  0  0  0
 59 61  1  0  0  0
 59 62  1  0  0  0
 60129  1  0  0  0
 60130  1  0  0  0
 60131  1  0  0  0
 61132  1  0  0  0
 61133  1  0  0  0
 61134  1  0  0  0
 62135  1  0  0  0
 62136  1  0  0  0
 62137  1  0  0  0
 63 65  1  0  0  0
 63138  1  0  0  0
 63139  1  0  0  0
 63140  1  0  0  0
 64141  1  0  0  0
 65142  1  0  0  0
 68 77  1  0  0  0
 71 72  2  0  0  0
 71 81  1  0  0  0
 71143  1  0  0  0
 72 73  1  0  0  0
 72 79  1  0  0  0
 73 78  1  0  0  0
 73144  1  0  0  0
 73145  1  0  0  0
 74 75  1  0  0  0
 74 77  1  0  0  0
 74146  1  0  0  0
 74147  1  0  0  0
 75 81  1  0  0  0
 75148  1  0  0  0
 75149  1  0  0  0
 76 78  1  0  0  0
 76 82  1  0  0  0
 76150  1  0  0  0
 76151  1  0  0  0
 77152  1  0  0  0
 77153  1  0  0  0
 78 83  1  0  0  0
 78154  1  0  0  0
 79 80  2  0  0  0
 80 81  1  0  0  0
 82155  1  0  0  0
 83156  1  0  0  0
 83157  1  0  0  0
 83158  1  0  0  0
M  CHG  1  83   1
M  ISO  4   1 100  68 101  77 101  82 100
M  END
> <chiral flag>
0

> <version>
0

> <s_m_source_file>
/data/baiqing/PycharmProjects/Reinvent-master-3.2/result/LINK_invent/BTK/process_docking_weight1_custom_sum_contain_oxygen_bond_distance_aromatic_linkinvent_7_9_3/rearranged_h_0085.sdf

> <i_m_source_file_index>
81

> <r_mmod_Potential_Energy-OPLS-2005>
-412.880157470703

> <r_mmod_Stretch_Energy-OPLS-2005>
36.6737403869629

> <r_mmod_Bend_Energy-OPLS-2005>
95.25439453125

> <r_mmod_Torsional_Energy-OPLS-2005>
244.610137939453

> <r_mmod_Improper_Torsional_Energy-OPLS-2005>
3.56666660308838

> <r_mmod_Van_der_Waal_Energy-OPLS-2005>
133.261428833008

> <r_mmod_Electrostatic_Energy-OPLS-2005>
-438.570526123047

> <r_mmod_Solvation_Energy-OPLS-2005>
-497.775939941406

> <b_mmod_Minimization_Converged-OPLS-2005>
0

> <r_mmod_RMS_Derivative-OPLS-2005>
4.11890840530396

$$$$
84
                    3D
 Structure written by MMmdl.
165173  0  0  1  0            999 V2000
  -30.7208  -14.4364   20.6073 C   0  0  0  0  0  0
  -30.4227  -12.3032   19.4056 C   0  0  0  0  0  0
  -29.4868  -12.5163   18.1973 C   0  0  0  0  0  0
  -28.0089  -12.3777   18.6113 C   0  0  0  0  0  0
  -27.6637  -13.2046   19.8770 C   0  0  2  0  0  0
  -28.7058  -12.9625   20.9920 C   0  0  0  0  0  0
  -25.2603  -13.8174   20.5672 C   0  0  0  0  0  0
  -24.1849  -13.0461   20.9169 C   0  0  0  0  0  0
  -24.6396  -11.6918   20.8750 C   0  0  0  0  0  0
  -23.9067  -10.4303   21.0407 C   0  0  0  0  0  0
  -24.3625   -9.4214   21.9174 C   0  0  0  0  0  0
  -23.6304   -8.2250   22.0745 C   0  0  0  0  0  0
  -22.4280   -8.0296   21.3540 C   0  0  0  0  0  0
  -21.9916   -9.0270   20.4640 C   0  0  0  0  0  0
  -22.7245  -10.2149   20.3052 C   0  0  0  0  0  0
  -21.6856   -6.0745   22.5285 C   0  0  0  0  0  0
  -21.4011   -6.5643   23.8220 C   0  0  0  0  0  0
  -21.3665   -5.6792   24.9176 C   0  0  0  0  0  0
  -21.6044   -4.3057   24.7222 C   0  0  0  0  0  0
  -21.8823   -3.8154   23.4346 C   0  0  0  0  0  0
  -21.9195   -4.6970   22.3401 C   0  0  0  0  0  0
  -22.7868  -13.5246   21.1847 C   0  0  0  0  0  0
  -22.1661   -4.2160   21.0976 F   0  0  0  0  0  0
  -21.5637   -3.4535   25.7734 F   0  0  0  0  0  0
  -30.0397  -13.2716   20.4415 N   0  0  0  0  0  0
  -26.3041  -12.9331   20.3381 N   0  0  0  0  0  0
  -25.9320  -11.6491   20.5780 N   0  0  0  0  0  0
  -22.0531  -12.8236   22.0415 N   0  0  0  0  0  0
  -25.4357  -15.1891   20.4056 N   0  0  0  0  0  0
  -31.8313  -14.6469   20.1130 O   0  0  0  0  0  0
  -21.6642   -6.8894   21.4248 O   0  0  0  0  0  0
  -22.3530  -14.5550   20.6702 O   0  0  0  0  0  0
  -24.6150  -31.8687   23.2098 C   0  0  0  0  0  0
  -25.9039  -32.4825   23.8406 C   0  0  1  0  0  0
  -27.2277  -27.4335   20.0859 C   0  0  0  0  0  0
  -25.5897  -33.8625   24.2335 N   0  0  0  0  0  0
  -23.4036  -30.4932   21.5507 C   0  0  2  0  0  0
  -24.8475  -28.9660   20.1111 C   0  0  0  0  0  0
  -22.7425  -29.4655   22.4972 C   0  0  0  0  0  0
  -18.0270  -28.1379   22.8483 C   0  0  0  0  0  0
  -24.1485  -36.7321   23.2640 C   0  0  0  0  0  0
  -25.9351  -30.8338   21.3650 C   0  0  0  0  0  0
  -26.0103  -29.4698   20.7078 C   0  0  0  0  0  0
  -27.2043  -28.7110   20.6913 C   0  0  0  0  0  0
  -26.0458  -26.9554   19.4695 C   0  0  0  0  0  0
  -24.8599  -27.7078   19.4898 C   0  0  0  0  0  0
  -23.6111  -29.8316   20.1636 C   0  0  0  0  0  0
  -25.4106  -36.3112   24.0340 C   0  0  1  0  0  0
  -20.5869  -28.3667   23.1305 C   0  0  2  0  0  0
  -20.6756  -26.9402   22.5403 C   0  0  0  0  0  0
  -19.5732  -26.6387   21.5201 C   0  0  0  0  0  0
  -18.1916  -26.7920   22.1624 C   0  0  0  0  0  0
  -19.1526  -28.8840   23.2886 C   0  0  0  0  0  0
  -18.9457  -30.1447   23.8903 C   0  0  0  0  0  0
  -17.6459  -30.6579   24.0569 C   0  0  0  0  0  0
  -25.9028  -34.9475   23.5129 C   0  0  0  0  0  0
  -16.5349  -29.9086   23.6329 C   0  0  0  0  0  0
  -16.7266  -28.6510   23.0339 C   0  0  0  0  0  0
  -26.4467  -31.6607   25.0735 C   0  0  0  0  0  0
  -25.3732  -31.3709   26.1486 C   0  0  0  0  0  0
  -27.0305  -30.3048   24.6123 C   0  0  0  0  0  0
  -27.6047  -32.4333   25.7490 C   0  0  0  0  0  0
  -27.5581  -37.1806   24.8470 C   0  0  0  0  0  0
  -21.4153  -29.3037   22.3722 N   0  0  0  0  0  0
  -26.4297  -37.3787   23.9406 N   0  0  0  0  0  0
  -24.6697  -31.0776   22.1006 N   0  0  0  0  0  0
  -23.4194  -28.8194   23.3006 O   0  0  0  0  0  0
  -28.3901  -26.6843   20.1127 O   0  0  0  0  0  0
  -26.5594  -34.8930   22.4693 O   0  0  0  0  0  0
  -23.5337  -32.1467   23.7467 O   0  0  0  0  0  0
  -29.1105  -20.0895   21.0862 C   0  0  0  0  0  0
  -29.5069  -21.1591   21.8453 C   0  0  0  0  0  0
  -30.8469  -20.8283   22.2036 C   0  0  0  0  0  0
  -31.8130  -21.5950   23.0612 C   0  0  0  0  0  0
  -28.8706  -17.5139   19.7026 C   0  0  0  0  0  0
  -31.3236  -17.8110   19.3724 C   0  0  0  0  0  0
  -28.6595  -22.3372   22.2755 C   0  0  0  0  0  0
  -29.2787  -23.7521   22.0780 C   0  0  0  0  0  0
  -29.3746  -24.3669   20.6388 C   0  0  0  0  0  0
  -30.4898  -16.7663   21.5529 C   0  0  0  0  0  0
  -28.2260  -25.2500   20.0385 C   0  0  0  0  0  0
  -30.2004  -17.8223   20.4308 C   0  0  0  0  0  0
  -31.2206  -19.6541   21.7130 N   0  0  0  0  0  0
  -30.1474  -19.1700   21.0416 N   0  0  0  0  0  0
  -30.0552  -15.3888   21.2724 N   0  0  0  0  0  0
  -31.4670  -12.4085   19.1050 H   0  0  0  0  0  0
  -30.3279  -11.2867   19.7904 H   0  0  0  0  0  0
  -29.7213  -11.7983   17.4103 H   0  0  0  0  0  0
  -29.6549  -13.5056   17.7683 H   0  0  0  0  0  0
  -27.8102  -11.3207   18.7901 H   0  0  0  0  0  0
  -27.3580  -12.6720   17.7871 H   0  0  0  0  0  0
  -27.7146  -14.2556   19.5928 H   0  0  0  0  0  0
  -28.6783  -11.9186   21.3072 H   0  0  0  0  0  0
  -28.4606  -13.5383   21.8861 H   0  0  0  0  0  0
  -25.2785   -9.5689   22.4721 H   0  0  0  0  0  0
  -24.0034   -7.4635   22.7443 H   0  0  0  0  0  0
  -21.0859   -8.8783   19.8933 H   0  0  0  0  0  0
  -22.3716  -10.9682   19.6152 H   0  0  0  0  0  0
  -21.1992   -7.6146   23.9728 H   0  0  0  0  0  0
  -21.1484   -6.0510   25.9077 H   0  0  0  0  0  0
  -22.0597   -2.7619   23.2834 H   0  0  0  0  0  0
  -22.4154  -11.9892   22.4793 H   0  0  0  0  0  0
  -21.1145  -13.1235   22.2637 H   0  0  0  0  0  0
  -24.6776  -15.8527   20.5158 H   0  0  0  0  0  0
  -26.2931  -15.6206   20.0868 H   0  0  0  0  0  0
  -26.7120  -32.5536   23.1178 H   0  0  0  0  0  0
  -25.0044  -33.9807   25.0480 H   0  0  0  0  0  0
  -22.6909  -31.3083   21.4095 H   0  0  0  0  0  0
  -23.3737  -35.9660   23.3320 H   0  0  0  0  0  0
  -24.3578  -36.8923   22.2049 H   0  0  0  0  0  0
  -23.7252  -37.6539   23.6646 H   0  0  0  0  0  0
  -26.0484  -31.6019   20.5978 H   0  0  0  0  0  0
  -26.8228  -30.8834   21.9846 H   0  0  0  0  0  0
  -28.1034  -29.0913   21.1566 H   0  0  0  0  0  0
  -26.0184  -26.0007   18.9633 H   0  0  0  0  0  0
  -23.9689  -27.3169   19.0181 H   0  0  0  0  0  0
  -23.7204  -30.6092   19.4056 H   0  0  0  0  0  0
  -22.7347  -29.2515   19.8675 H   0  0  0  0  0  0
  -25.1265  -36.1980   25.0830 H   0  0  0  0  0  0
  -20.9958  -28.3235   24.1423 H   0  0  0  0  0  0
  -20.5648  -26.2281   23.3594 H   0  0  0  0  0  0
  -21.6628  -26.7425   22.1201 H   0  0  0  0  0  0
  -19.6893  -25.6299   21.1232 H   0  0  0  0  0  0
  -19.6671  -27.3201   20.6734 H   0  0  0  0  0  0
  -17.4174  -26.6671   21.4036 H   0  0  0  0  0  0
  -18.0317  -26.0061   22.9026 H   0  0  0  0  0  0
  -19.7938  -30.7250   24.2279 H   0  0  0  0  0  0
  -17.5018  -31.6256   24.5167 H   0  0  0  0  0  0
  -15.5351  -30.2986   23.7636 H   0  0  0  0  0  0
  -15.8671  -28.0829   22.7033 H   0  0  0  0  0  0
  -24.5901  -30.7060   25.7825 H   0  0  0  0  0  0
  -24.8930  -32.2862   26.4952 H   0  0  0  0  0  0
  -25.8082  -30.8871   27.0241 H   0  0  0  0  0  0
  -26.2862  -29.6796   24.1178 H   0  0  0  0  0  0
  -27.4078  -29.7281   25.4580 H   0  0  0  0  0  0
  -27.8690  -30.4361   23.9277 H   0  0  0  0  0  0
  -27.2671  -33.3623   26.2099 H   0  0  0  0  0  0
  -28.3834  -32.6922   25.0300 H   0  0  0  0  0  0
  -28.0754  -31.8453   26.5383 H   0  0  0  0  0  0
  -28.2589  -38.0105   24.7489 H   0  0  0  0  0  0
  -28.1074  -36.2627   24.6307 H   0  0  0  0  0  0
  -27.2298  -37.1483   25.8874 H   0  0  0  0  0  0
  -20.9303  -29.8801   21.6989 H   0  0  0  0  0  0
  -26.0189  -38.2865   24.1397 H   0  0  0  0  0  0
  -28.1562  -19.9000   20.6161 H   0  0  0  0  0  0
  -32.4858  -20.9303   23.6036 H   0  0  0  0  0  0
  -31.2958  -22.1979   23.8071 H   0  0  0  0  0  0
  -32.4267  -22.2623   22.4566 H   0  0  0  0  0  0
  -28.8863  -16.5391   19.2137 H   0  0  0  0  0  0
  -28.6731  -18.2500   18.9212 H   0  0  0  0  0  0
  -28.0254  -17.5189   20.3905 H   0  0  0  0  0  0
  -31.3665  -16.8660   18.8336 H   0  0  0  0  0  0
  -32.3017  -17.9730   19.8250 H   0  0  0  0  0  0
  -31.1755  -18.5993   18.6325 H   0  0  0  0  0  0
  -28.4371  -22.2294   23.3386 H   0  0  0  0  0  0
  -27.6762  -22.2965   21.8040 H   0  0  0  0  0  0
  -28.6589  -24.4063   22.7006 H   0  0  0  0  0  0
  -30.2611  -23.7874   22.5461 H   0  0  0  0  0  0
  -29.5481  -25.2775   21.2074 H   0  0  0  0  0  0
  -28.6544  -23.6077   20.3439 H   0  0  0  0  0  0
  -29.9606  -17.0589   22.4613 H   0  0  0  0  0  0
  -31.5473  -16.7732   21.8219 H   0  0  0  0  0  0
  -27.2942  -24.9895   20.5536 H   0  0  0  0  0  0
  -28.0857  -24.9998   18.9831 H   0  0  0  0  0  0
  -29.1466  -15.1278   21.6245 H   0  0  0  0  0  0
  1 25  1  0  0  0
  1 30  2  0  0  0
  1 85  1  0  0  0
  2  3  1  0  0  0
  2 25  1  0  0  0
  2 86  1  0  0  0
  2 87  1  0  0  0
  3  4  1  0  0  0
  3 88  1  0  0  0
  3 89  1  0  0  0
  4  5  1  0  0  0
  4 90  1  0  0  0
  4 91  1  0  0  0
  5  6  1  0  0  0
  5 26  1  0  0  0
  5 92  1  0  0  0
  6 25  1  0  0  0
  6 93  1  0  0  0
  6 94  1  0  0  0
  7  8  2  0  0  0
  7 26  1  0  0  0
  7 29  1  0  0  0
  8  9  1  0  0  0
  8 22  1  0  0  0
  9 10  1  0  0  0
  9 27  2  0  0  0
 10 11  2  0  0  0
 10 15  1  0  0  0
 11 12  1  0  0  0
 11 95  1  0  0  0
 12 13  2  0  0  0
 12 96  1  0  0  0
 13 14  1  0  0  0
 13 31  1  0  0  0
 14 15  2  0  0  0
 14 97  1  0  0  0
 15 98  1  0  0  0
 16 17  2  0  0  0
 16 21  1  0  0  0
 16 31  1  0  0  0
 17 18  1  0  0  0
 17 99  1  0  0  0
 18 19  2  0  0  0
 18100  1  0  0  0
 19 20  1  0  0  0
 19 24  1  0  0  0
 20 21  2  0  0  0
 20101  1  0  0  0
 21 23  1  0  0  0
 22 28  1  0  0  0
 22 32  2  0  0  0
 26 27  1  0  0  0
 28102  1  0  0  0
 28103  1  0  0  0
 29104  1  0  0  0
 29105  1  0  0  0
 33 34  1  0  0  0
 33 66  1  0  0  0
 33 70  2  0  0  0
 34 36  1  0  0  0
 34 59  1  0  0  0
 34106  1  0  0  0
 35 44  2  0  0  0
 35 45  1  0  0  0
 35 68  1  0  0  0
 36 56  1  0  0  0
 36107  1  0  0  0
 37 39  1  0  0  0
 37 47  1  0  0  0
 37 66  1  0  0  0
 37108  1  0  0  0
 38 43  2  0  0  0
 38 46  1  0  0  0
 38 47  1  0  0  0
 39 64  1  0  0  0
 39 67  2  0  0  0
 40 52  1  0  0  0
 40 53  2  0  0  0
 40 58  1  0  0  0
 41109  1  0  0  0
 41110  1  0  0  0
 41111  1  0  0  0
 41 48  1  0  0  0
 42 43  1  0  0  0
 42 66  1  0  0  0
 42112  1  0  0  0
 42113  1  0  0  0
 43 44  1  0  0  0
 44114  1  0  0  0
 45 46  2  0  0  0
 45115  1  0  0  0
 46116  1  0  0  0
 47117  1  0  0  0
 47118  1  0  0  0
 48 56  1  0  0  0
 48 65  1  0  0  0
 48119  1  0  0  0
 49 50  1  0  0  0
 49 53  1  0  0  0
 49 64  1  0  0  0
 49120  1  0  0  0
 50 51  1  0  0  0
 50121  1  0  0  0
 50122  1  0  0  0
 51 52  1  0  0  0
 51123  1  0  0  0
 51124  1  0  0  0
 52125  1  0  0  0
 52126  1  0  0  0
 53 54  1  0  0  0
 54 55  2  0  0  0
 54127  1  0  0  0
 55 57  1  0  0  0
 55128  1  0  0  0
 56 69  2  0  0  0
 57 58  2  0  0  0
 57129  1  0  0  0
 58130  1  0  0  0
 59 60  1  0  0  0
 59 61  1  0  0  0
 59 62  1  0  0  0
 60131  1  0  0  0
 60132  1  0  0  0
 60133  1  0  0  0
 61134  1  0  0  0
 61135  1  0  0  0
 61136  1  0  0  0
 62137  1  0  0  0
 62138  1  0  0  0
 62139  1  0  0  0
 63 65  1  0  0  0
 63140  1  0  0  0
 63141  1  0  0  0
 63142  1  0  0  0
 64143  1  0  0  0
 65144  1  0  0  0
 68 81  1  0  0  0
 71 72  2  0  0  0
 71 84  1  0  0  0
 71145  1  0  0  0
 72 73  1  0  0  0
 72 77  1  0  0  0
 73 74  1  0  0  0
 73 83  2  0  0  0
 74146  1  0  0  0
 74147  1  0  0  0
 74148  1  0  0  0
 75149  1  0  0  0
 75150  1  0  0  0
 75151  1  0  0  0
 75 82  1  0  0  0
 76 82  1  0  0  0
 76152  1  0  0  0
 76153  1  0  0  0
 76154  1  0  0  0
 77 78  1  0  0  0
 77155  1  0  0  0
 77156  1  0  0  0
 78 79  1  0  0  0
 78157  1  0  0  0
 78158  1  0  0  0
 79 81  1  0  0  0
 79159  1  0  0  0
 79160  1  0  0  0
 80 82  1  0  0  0
 80 85  1  0  0  0
 80161  1  0  0  0
 80162  1  0  0  0
 81163  1  0  0  0
 81164  1  0  0  0
 82 84  1  0  0  0
 83 84  1  0  0  0
 85165  1  0  0  0
M  ISO  4   1 100  68 101  81 101  85 100
M  END
> <chiral flag>
0

> <version>
0

> <s_m_source_file>
/data/baiqing/PycharmProjects/Reinvent-master-3.2/result/LINK_invent/BTK/process_docking_weight1_custom_sum_contain_oxygen_bond_distance_aromatic_linkinvent_7_9_3/rearranged_h_0085.sdf

> <i_m_source_file_index>
82

> <r_mmod_Potential_Energy-OPLS-2005>
136.073654174805

> <r_mmod_Stretch_Energy-OPLS-2005>
41.4446907043457

> <r_mmod_Bend_Energy-OPLS-2005>
335.682647705078

> <r_mmod_Torsional_Energy-OPLS-2005>
254.986862182617

> <r_mmod_Improper_Torsional_Energy-OPLS-2005>
2.7375967502594

> <r_mmod_Van_der_Waal_Energy-OPLS-2005>
158.063735961914

> <r_mmod_Electrostatic_Energy-OPLS-2005>
-452.021759033203

> <r_mmod_Solvation_Energy-OPLS-2005>
-216.315292358398

> <b_mmod_Minimization_Converged-OPLS-2005>
0

> <r_mmod_RMS_Derivative-OPLS-2005>
2.23369932174683

$$$$
85
                    3D
 Structure written by MMmdl.
184192  0  0  1  0            999 V2000
  -30.6319  -14.7201   20.4679 C   0  0  0  0  0  0
  -30.4302  -12.4343   19.4760 C   0  0  0  0  0  0
  -29.5125  -12.5141   18.2373 C   0  0  0  0  0  0
  -28.0379  -12.3327   18.6441 C   0  0  0  0  0  0
  -27.6459  -13.2283   19.8514 C   0  0  2  0  0  0
  -28.6908  -13.1552   20.9892 C   0  0  0  0  0  0
  -25.2532  -13.8166   20.5661 C   0  0  0  0  0  0
  -24.1843  -13.0422   20.9174 C   0  0  0  0  0  0
  -24.6430  -11.6881   20.8736 C   0  0  0  0  0  0
  -23.9081  -10.4265   21.0402 C   0  0  0  0  0  0
  -24.3630   -9.4190   21.9175 C   0  0  0  0  0  0
  -23.6317   -8.2232   22.0762 C   0  0  0  0  0  0
  -22.4300   -8.0283   21.3555 C   0  0  0  0  0  0
  -21.9920   -9.0225   20.4637 C   0  0  0  0  0  0
  -22.7252  -10.2103   20.3048 C   0  0  0  0  0  0
  -21.6867   -6.0748   22.5273 C   0  0  0  0  0  0
  -21.4007   -6.5637   23.8213 C   0  0  0  0  0  0
  -21.3670   -5.6795   24.9164 C   0  0  0  0  0  0
  -21.6068   -4.3062   24.7214 C   0  0  0  0  0  0
  -21.8828   -3.8157   23.4330 C   0  0  0  0  0  0
  -21.9184   -4.6967   22.3395 C   0  0  0  0  0  0
  -22.7866  -13.5212   21.1825 C   0  0  0  0  0  0
  -22.1668   -4.2165   21.0973 F   0  0  0  0  0  0
  -21.5616   -3.4540   25.7716 F   0  0  0  0  0  0
  -30.0018  -13.4976   20.4179 N   0  0  0  0  0  0
  -26.2962  -12.9360   20.3262 N   0  0  0  0  0  0
  -25.9360  -11.6500   20.5743 N   0  0  0  0  0  0
  -22.0513  -12.8204   22.0362 N   0  0  0  0  0  0
  -25.4198  -15.1888   20.4028 N   0  0  0  0  0  0
  -31.8054  -14.8117   20.1000 O   0  0  0  0  0  0
  -21.6665   -6.8887   21.4251 O   0  0  0  0  0  0
  -22.3521  -14.5491   20.6631 O   0  0  0  0  0  0
  -24.6293  -31.8559   23.2005 C   0  0  0  0  0  0
  -25.9112  -32.4752   23.8360 C   0  0  1  0  0  0
  -27.2321  -27.2875   20.1259 C   0  0  0  0  0  0
  -25.5901  -33.8564   24.2253 N   0  0  0  0  0  0
  -23.4277  -30.4744   21.5489 C   0  0  2  0  0  0
  -24.8780  -28.9329   20.1153 C   0  0  0  0  0  0
  -22.7488  -29.4548   22.4971 C   0  0  0  0  0  0
  -18.0293  -28.1357   22.8481 C   0  0  0  0  0  0
  -24.1508  -36.7277   23.2644 C   0  0  0  0  0  0
  -25.9704  -30.7797   21.3780 C   0  0  0  0  0  0
  -26.0513  -29.4050   20.7211 C   0  0  0  0  0  0
  -27.2304  -28.5916   20.7214 C   0  0  0  0  0  0
  -26.0380  -26.8942   19.4732 C   0  0  0  0  0  0
  -24.8757  -27.6821   19.4878 C   0  0  0  0  0  0
  -23.6439  -29.8105   20.1662 C   0  0  0  0  0  0
  -25.4133  -36.3046   24.0317 C   0  0  1  0  0  0
  -20.5882  -28.3663   23.1303 C   0  0  2  0  0  0
  -20.6792  -26.9385   22.5440 C   0  0  0  0  0  0
  -19.5771  -26.6351   21.5236 C   0  0  0  0  0  0
  -18.1945  -26.7881   22.1646 C   0  0  0  0  0  0
  -19.1530  -28.8829   23.2874 C   0  0  0  0  0  0
  -18.9456  -30.1426   23.8891 C   0  0  0  0  0  0
  -17.6449  -30.6576   24.0545 C   0  0  0  0  0  0
  -25.9071  -34.9420   23.5075 C   0  0  0  0  0  0
  -16.5344  -29.9067   23.6328 C   0  0  0  0  0  0
  -16.7258  -28.6478   23.0353 C   0  0  0  0  0  0
  -26.4502  -31.6563   25.0727 C   0  0  0  0  0  0
  -25.3744  -31.3620   26.1442 C   0  0  0  0  0  0
  -27.0335  -30.2980   24.6173 C   0  0  0  0  0  0
  -27.6109  -32.4277   25.7464 C   0  0  0  0  0  0
  -27.5571  -37.1786   24.8465 C   0  0  0  0  0  0
  -21.4190  -29.3001   22.3699 N   0  0  0  0  0  0
  -26.4292  -37.3763   23.9393 N   0  0  0  0  0  0
  -24.6954  -31.0533   22.0998 N   0  0  0  0  0  0
  -23.4166  -28.8116   23.3098 O   0  0  0  0  0  0
  -28.3353  -26.4034   20.1536 O   0  0  0  0  0  0
  -26.5682  -34.8893   22.4679 O   0  0  0  0  0  0
  -23.5443  -32.1438   23.7260 O   0  0  0  0  0  0
  -29.4565  -21.0330   20.5852 C   0  0  0  0  0  0
  -28.6314  -22.2428   20.5729 C   0  0  0  0  0  0
  -28.7530  -19.8888   20.9649 C   0  0  0  0  0  0
  -27.3767  -21.7545   20.8783 C   0  0  0  0  0  0
  -23.7823  -24.1623   23.5848 C   0  0  0  0  0  0
  -23.5107  -24.3767   21.1041 C   0  0  0  0  0  0
  -26.8018  -18.9663   23.2813 C   0  0  0  0  0  0
  -25.5394  -18.8450   21.0588 C   0  0  0  0  0  0
  -31.5201  -17.8062   20.8522 C   0  0  0  0  0  0
  -30.3780  -24.0647   20.9881 C   0  0  0  0  0  0
  -29.3869  -23.7238   18.7012 C   0  0  0  0  0  0
  -29.0384  -18.3369   21.2022 C   0  0  0  0  0  0
  -25.9995  -22.4049   20.8266 C   0  0  0  0  0  0
  -25.5682  -23.1489   22.1090 C   0  0  0  0  0  0
  -28.0649  -24.9651   20.4869 C   0  0  0  0  0  0
  -24.0643  -23.4901   22.2328 C   0  0  0  0  0  0
  -26.3853  -19.7086   22.0017 C   0  0  0  0  0  0
  -30.0968  -17.3577   20.4824 C   0  0  1  0  0  0
  -29.0862  -23.7413   20.2053 C   0  0  0  0  0  0
  -27.4921  -20.4174   21.3152 N   0  0  0  0  0  0
  -29.8704  -15.8503   20.7376 N   0  0  0  0  0  0
  -31.4714  -12.5440   19.1711 H   0  0  0  0  0  0
  -30.3597  -11.4496   19.9440 H   0  0  0  0  0  0
  -29.7937  -11.7558   17.5055 H   0  0  0  0  0  0
  -29.6423  -13.4816   17.7488 H   0  0  0  0  0  0
  -27.8950  -11.2798   18.8974 H   0  0  0  0  0  0
  -27.3824  -12.5294   17.7952 H   0  0  0  0  0  0
  -27.6416  -14.2521   19.4753 H   0  0  0  0  0  0
  -28.7107  -12.1530   21.4204 H   0  0  0  0  0  0
  -28.4216  -13.8305   21.8041 H   0  0  0  0  0  0
  -25.2778   -9.5666   22.4742 H   0  0  0  0  0  0
  -24.0030   -7.4626   22.7492 H   0  0  0  0  0  0
  -21.0859   -8.8731   19.8932 H   0  0  0  0  0  0
  -22.3721  -10.9631   19.6160 H   0  0  0  0  0  0
  -21.2009   -7.6150   23.9718 H   0  0  0  0  0  0
  -21.1498   -6.0520   25.9077 H   0  0  0  0  0  0
  -22.0603   -2.7622   23.2820 H   0  0  0  0  0  0
  -22.4168  -11.9896   22.4767 H   0  0  0  0  0  0
  -21.1117  -13.1201   22.2542 H   0  0  0  0  0  0
  -24.6374  -15.8264   20.4976 H   0  0  0  0  0  0
  -26.2497  -15.6265   20.0243 H   0  0  0  0  0  0
  -26.7183  -32.5415   23.1116 H   0  0  0  0  0  0
  -24.9957  -33.9745   25.0326 H   0  0  0  0  0  0
  -22.7275  -31.2990   21.4014 H   0  0  0  0  0  0
  -23.3749  -35.9634   23.3311 H   0  0  0  0  0  0
  -24.3611  -36.8909   22.2055 H   0  0  0  0  0  0
  -23.7286  -37.6479   23.6709 H   0  0  0  0  0  0
  -26.1032  -31.5439   20.6096 H   0  0  0  0  0  0
  -26.8458  -30.8292   22.0119 H   0  0  0  0  0  0
  -28.1252  -28.9419   21.2173 H   0  0  0  0  0  0
  -25.9696  -25.9581   18.9417 H   0  0  0  0  0  0
  -23.9770  -27.3156   19.0110 H   0  0  0  0  0  0
  -23.7572  -30.5859   19.4084 H   0  0  0  0  0  0
  -22.7622  -29.2398   19.8668 H   0  0  0  0  0  0
  -25.1311  -36.1891   25.0812 H   0  0  0  0  0  0
  -20.9974  -28.3215   24.1415 H   0  0  0  0  0  0
  -20.5724  -26.2240   23.3623 H   0  0  0  0  0  0
  -21.6677  -26.7444   22.1233 H   0  0  0  0  0  0
  -19.6974  -25.6260   21.1256 H   0  0  0  0  0  0
  -19.6714  -27.3187   20.6783 H   0  0  0  0  0  0
  -17.4215  -26.6568   21.4053 H   0  0  0  0  0  0
  -18.0375  -26.0034   22.9058 H   0  0  0  0  0  0
  -19.7930  -30.7243   24.2263 H   0  0  0  0  0  0
  -17.5010  -31.6276   24.5103 H   0  0  0  0  0  0
  -15.5341  -30.2977   23.7676 H   0  0  0  0  0  0
  -15.8640  -28.0811   22.7085 H   0  0  0  0  0  0
  -24.6015  -30.6857   25.7732 H   0  0  0  0  0  0
  -24.8814  -32.2723   26.4867 H   0  0  0  0  0  0
  -25.8097  -30.8815   27.0214 H   0  0  0  0  0  0
  -26.2879  -29.6698   24.1258 H   0  0  0  0  0  0
  -27.4065  -29.7244   25.4666 H   0  0  0  0  0  0
  -27.8765  -30.4210   23.9364 H   0  0  0  0  0  0
  -27.2806  -33.3633   26.1986 H   0  0  0  0  0  0
  -28.3951  -32.6715   25.0279 H   0  0  0  0  0  0
  -28.0762  -31.8406   26.5391 H   0  0  0  0  0  0
  -28.2581  -38.0086   24.7532 H   0  0  0  0  0  0
  -28.1052  -36.2610   24.6275 H   0  0  0  0  0  0
  -27.2280  -37.1427   25.8864 H   0  0  0  0  0  0
  -20.9371  -29.8684   21.6875 H   0  0  0  0  0  0
  -26.0130  -38.2821   24.1411 H   0  0  0  0  0  0
  -30.5096  -21.0155   20.3371 H   0  0  0  0  0  0
  -22.7111  -24.2997   23.7374 H   0  0  0  0  0  0
  -24.2510  -25.1480   23.6386 H   0  0  0  0  0  0
  -24.1613  -23.5655   24.4168 H   0  0  0  0  0  0
  -22.4297  -24.4846   21.2162 H   0  0  0  0  0  0
  -23.6826  -23.9520   20.1144 H   0  0  0  0  0  0
  -23.9434  -25.3793   21.1308 H   0  0  0  0  0  0
  -25.9423  -18.8222   23.9351 H   0  0  0  0  0  0
  -27.5510  -19.5206   23.8464 H   0  0  0  0  0  0
  -27.1953  -17.9752   23.0768 H   0  0  0  0  0  0
  -24.5110  -18.8066   21.4160 H   0  0  0  0  0  0
  -25.9123  -17.8245   21.0129 H   0  0  0  0  0  0
  -25.5162  -19.2474   20.0466 H   0  0  0  0  0  0
  -31.7154  -17.6357   21.9121 H   0  0  0  0  0  0
  -31.6502  -18.8734   20.6639 H   0  0  0  0  0  0
  -32.2858  -17.2943   20.2690 H   0  0  0  0  0  0
  -30.1957  -24.1256   22.0624 H   0  0  0  0  0  0
  -30.7956  -25.0269   20.6901 H   0  0  0  0  0  0
  -31.1564  -23.3172   20.8311 H   0  0  0  0  0  0
  -29.7166  -24.6988   18.3390 H   0  0  0  0  0  0
  -28.4950  -23.4529   18.1361 H   0  0  0  0  0  0
  -30.1604  -22.9901   18.4705 H   0  0  0  0  0  0
  -28.1029  -17.8184   21.0288 H   0  0  0  0  0  0
  -29.2352  -18.2304   22.2692 H   0  0  0  0  0  0
  -25.2574  -21.6364   20.6155 H   0  0  0  0  0  0
  -25.9017  -23.0428   19.9491 H   0  0  0  0  0  0
  -26.1457  -24.0539   22.2395 H   0  0  0  0  0  0
  -25.8285  -22.5249   22.9629 H   0  0  0  0  0  0
  -27.8707  -24.9784   21.5567 H   0  0  0  0  0  0
  -27.1507  -24.6764   19.9974 H   0  0  0  0  0  0
  -23.5148  -22.5477   22.2157 H   0  0  0  0  0  0
  -25.7115  -20.4616   22.4020 H   0  0  0  0  0  0
  -29.9724  -17.4865   19.4060 H   0  0  0  0  0  0
  -28.9304  -15.6192   21.0191 H   0  0  0  0  0  0
  1 25  1  0  0  0
  1 30  2  0  0  0
  1 91  1  0  0  0
  2  3  1  0  0  0
  2 25  1  0  0  0
  2 92  1  0  0  0
  2 93  1  0  0  0
  3  4  1  0  0  0
  3 94  1  0  0  0
  3 95  1  0  0  0
  4  5  1  0  0  0
  4 96  1  0  0  0
  4 97  1  0  0  0
  5  6  1  0  0  0
  5 26  1  0  0  0
  5 98  1  0  0  0
  6 25  1  0  0  0
  6 99  1  0  0  0
  6100  1  0  0  0
  7  8  2  0  0  0
  7 26  1  0  0  0
  7 29  1  0  0  0
  8  9  1  0  0  0
  8 22  1  0  0  0
  9 10  1  0  0  0
  9 27  2  0  0  0
 10 11  2  0  0  0
 10 15  1  0  0  0
 11 12  1  0  0  0
 11101  1  0  0  0
 12 13  2  0  0  0
 12102  1  0  0  0
 13 14  1  0  0  0
 13 31  1  0  0  0
 14 15  2  0  0  0
 14103  1  0  0  0
 15104  1  0  0  0
 16 17  2  0  0  0
 16 21  1  0  0  0
 16 31  1  0  0  0
 17 18  1  0  0  0
 17105  1  0  0  0
 18 19  2  0  0  0
 18106  1  0  0  0
 19 20  1  0  0  0
 19 24  1  0  0  0
 20 21  2  0  0  0
 20107  1  0  0  0
 21 23  1  0  0  0
 22 28  1  0  0  0
 22 32  2  0  0  0
 26 27  1  0  0  0
 28108  1  0  0  0
 28109  1  0  0  0
 29110  1  0  0  0
 29111  1  0  0  0
 33 34  1  0  0  0
 33 66  1  0  0  0
 33 70  2  0  0  0
 34 36  1  0  0  0
 34 59  1  0  0  0
 34112  1  0  0  0
 35 44  2  0  0  0
 35 45  1  0  0  0
 35 68  1  0  0  0
 36 56  1  0  0  0
 36113  1  0  0  0
 37 39  1  0  0  0
 37 47  1  0  0  0
 37 66  1  0  0  0
 37114  1  0  0  0
 38 43  2  0  0  0
 38 46  1  0  0  0
 38 47  1  0  0  0
 39 64  1  0  0  0
 39 67  2  0  0  0
 40 52  1  0  0  0
 40 53  2  0  0  0
 40 58  1  0  0  0
 41115  1  0  0  0
 41116  1  0  0  0
 41117  1  0  0  0
 41 48  1  0  0  0
 42 43  1  0  0  0
 42 66  1  0  0  0
 42118  1  0  0  0
 42119  1  0  0  0
 43 44  1  0  0  0
 44120  1  0  0  0
 45 46  2  0  0  0
 45121  1  0  0  0
 46122  1  0  0  0
 47123  1  0  0  0
 47124  1  0  0  0
 48 56  1  0  0  0
 48 65  1  0  0  0
 48125  1  0  0  0
 49 50  1  0  0  0
 49 53  1  0  0  0
 49 64  1  0  0  0
 49126  1  0  0  0
 50 51  1  0  0  0
 50127  1  0  0  0
 50128  1  0  0  0
 51 52  1  0  0  0
 51129  1  0  0  0
 51130  1  0  0  0
 52131  1  0  0  0
 52132  1  0  0  0
 53 54  1  0  0  0
 54 55  2  0  0  0
 54133  1  0  0  0
 55 57  1  0  0  0
 55134  1  0  0  0
 56 69  2  0  0  0
 57 58  2  0  0  0
 57135  1  0  0  0
 58136  1  0  0  0
 59 60  1  0  0  0
 59 61  1  0  0  0
 59 62  1  0  0  0
 60137  1  0  0  0
 60138  1  0  0  0
 60139  1  0  0  0
 61140  1  0  0  0
 61141  1  0  0  0
 61142  1  0  0  0
 62143  1  0  0  0
 62144  1  0  0  0
 62145  1  0  0  0
 63 65  1  0  0  0
 63146  1  0  0  0
 63147  1  0  0  0
 63148  1  0  0  0
 64149  1  0  0  0
 65150  1  0  0  0
 68 85  1  0  0  0
 71 72  1  0  0  0
 71 73  2  0  0  0
 71151  1  0  0  0
 72 74  2  0  0  0
 72 89  1  0  0  0
 73 82  1  0  0  0
 73 90  1  0  0  0
 74 83  1  0  0  0
 74 90  1  0  0  0
 75152  1  0  0  0
 75153  1  0  0  0
 75154  1  0  0  0
 75 86  1  0  0  0
 76 86  1  0  0  0
 76155  1  0  0  0
 76156  1  0  0  0
 76157  1  0  0  0
 77158  1  0  0  0
 77159  1  0  0  0
 77160  1  0  0  0
 77 87  1  0  0  0
 78 87  1  0  0  0
 78161  1  0  0  0
 78162  1  0  0  0
 78163  1  0  0  0
 79164  1  0  0  0
 79165  1  0  0  0
 79166  1  0  0  0
 79 88  1  0  0  0
 80167  1  0  0  0
 80168  1  0  0  0
 80169  1  0  0  0
 80 89  1  0  0  0
 81 89  1  0  0  0
 81170  1  0  0  0
 81171  1  0  0  0
 81172  1  0  0  0
 82 88  1  0  0  0
 82173  1  0  0  0
 82174  1  0  0  0
 83 84  1  0  0  0
 83175  1  0  0  0
 83176  1  0  0  0
 84 86  1  0  0  0
 84177  1  0  0  0
 84178  1  0  0  0
 85 89  1  0  0  0
 85179  1  0  0  0
 85180  1  0  0  0
 86181  1  0  0  0
 87 90  1  0  0  0
 87182  1  0  0  0
 88 91  1  0  0  0
 88183  1  0  0  0
 91184  1  0  0  0
M  ISO  4   1 100  68 101  85 101  91 100
M  END
> <chiral flag>
0

> <version>
0

> <s_m_source_file>
/data/baiqing/PycharmProjects/Reinvent-master-3.2/result/LINK_invent/BTK/process_docking_weight1_custom_sum_contain_oxygen_bond_distance_aromatic_linkinvent_7_9_3/rearranged_h_0085.sdf

> <i_m_source_file_index>
83

> <r_mmod_Potential_Energy-OPLS-2005>
202.639343261719

> <r_mmod_Stretch_Energy-OPLS-2005>
130.644622802734

> <r_mmod_Bend_Energy-OPLS-2005>
205.902114868164

> <r_mmod_Torsional_Energy-OPLS-2005>
273.990295410156

> <r_mmod_Improper_Torsional_Energy-OPLS-2005>
5.43901443481445

> <r_mmod_Van_der_Waal_Energy-OPLS-2005>
116.347877502441

> <r_mmod_Electrostatic_Energy-OPLS-2005>
-408.647766113281

> <r_mmod_Solvation_Energy-OPLS-2005>
-191.983856201172

> <b_mmod_Minimization_Converged-OPLS-2005>
0

> <r_mmod_RMS_Derivative-OPLS-2005>
5.62969064712524

$$$$
86
                    3D
 Structure written by MMmdl.
170178  0  0  1  0            999 V2000
  -30.6699  -14.4842   20.4708 C   0  0  0  0  0  0
  -30.4096  -12.2818   19.4337 C   0  0  0  0  0  0
  -29.4885  -12.4752   18.2098 C   0  0  0  0  0  0
  -28.0099  -12.3339   18.6215 C   0  0  0  0  0  0
  -27.6486  -13.2000   19.8571 C   0  0  2  0  0  0
  -28.6868  -13.0199   20.9877 C   0  0  0  0  0  0
  -25.2507  -13.8115   20.5600 C   0  0  0  0  0  0
  -24.1761  -13.0394   20.9150 C   0  0  0  0  0  0
  -24.6327  -11.6869   20.8731 C   0  0  0  0  0  0
  -23.9007  -10.4264   21.0399 C   0  0  0  0  0  0
  -24.3579   -9.4186   21.9167 C   0  0  0  0  0  0
  -23.6267   -8.2222   22.0735 C   0  0  0  0  0  0
  -22.4252   -8.0260   21.3534 C   0  0  0  0  0  0
  -21.9882   -9.0216   20.4627 C   0  0  0  0  0  0
  -22.7191  -10.2104   20.3033 C   0  0  0  0  0  0
  -21.6852   -6.0716   22.5270 C   0  0  0  0  0  0
  -21.4012   -6.5627   23.8200 C   0  0  0  0  0  0
  -21.3660   -5.6790   24.9170 C   0  0  0  0  0  0
  -21.6042   -4.3049   24.7235 C   0  0  0  0  0  0
  -21.8820   -3.8133   23.4353 C   0  0  0  0  0  0
  -21.9186   -4.6943   22.3399 C   0  0  0  0  0  0
  -22.7791  -13.5215   21.1832 C   0  0  0  0  0  0
  -22.1660   -4.2123   21.0984 F   0  0  0  0  0  0
  -21.5628   -3.4540   25.7750 F   0  0  0  0  0  0
  -30.0243  -13.2896   20.4324 N   0  0  0  0  0  0
  -26.2921  -12.9276   20.3271 N   0  0  0  0  0  0
  -25.9240  -11.6449   20.5714 N   0  0  0  0  0  0
  -22.0471  -12.8189   22.0423 N   0  0  0  0  0  0
  -25.4219  -15.1795   20.3971 N   0  0  0  0  0  0
  -31.8383  -14.6352   20.1058 O   0  0  0  0  0  0
  -21.6629   -6.8843   21.4227 O   0  0  0  0  0  0
  -22.3466  -14.5510   20.6691 O   0  0  0  0  0  0
  -24.6166  -31.8631   23.2047 C   0  0  0  0  0  0
  -25.9048  -32.4784   23.8362 C   0  0  1  0  0  0
  -27.2343  -27.3864   20.0855 C   0  0  0  0  0  0
  -25.5882  -33.8589   24.2281 N   0  0  0  0  0  0
  -23.4120  -30.4833   21.5455 C   0  0  2  0  0  0
  -24.8609  -28.9453   20.1060 C   0  0  0  0  0  0
  -22.7428  -29.4624   22.4916 C   0  0  0  0  0  0
  -18.0251  -28.1423   22.8432 C   0  0  0  0  0  0
  -24.1506  -36.7403   23.2637 C   0  0  0  0  0  0
  -25.9462  -30.8088   21.3683 C   0  0  0  0  0  0
  -26.0208  -29.4381   20.7143 C   0  0  0  0  0  0
  -27.2098  -28.6644   20.7019 C   0  0  0  0  0  0
  -26.0548  -26.9253   19.4577 C   0  0  0  0  0  0
  -24.8736  -27.6909   19.4725 C   0  0  0  0  0  0
  -23.6248  -29.8195   20.1590 C   0  0  0  0  0  0
  -25.4101  -36.3102   24.0317 C   0  0  1  0  0  0
  -20.5845  -28.3724   23.1295 C   0  0  2  0  0  0
  -20.6766  -26.9455   22.5416 C   0  0  0  0  0  0
  -19.5761  -26.6399   21.5191 C   0  0  0  0  0  0
  -18.1918  -26.7964   22.1582 C   0  0  0  0  0  0
  -19.1511  -28.8867   23.2861 C   0  0  0  0  0  0
  -18.9445  -30.1447   23.8904 C   0  0  0  0  0  0
  -17.6465  -30.6600   24.0564 C   0  0  0  0  0  0
  -25.9031  -34.9469   23.5115 C   0  0  0  0  0  0
  -16.5345  -29.9111   23.6330 C   0  0  0  0  0  0
  -16.7252  -28.6563   23.0306 C   0  0  0  0  0  0
  -26.4455  -31.6584   25.0705 C   0  0  0  0  0  0
  -25.3700  -31.3683   26.1462 C   0  0  0  0  0  0
  -27.0321  -30.3028   24.6088 C   0  0  0  0  0  0
  -27.6033  -32.4308   25.7473 C   0  0  0  0  0  0
  -27.5587  -37.1832   24.8430 C   0  0  0  0  0  0
  -21.4136  -29.3106   22.3706 N   0  0  0  0  0  0
  -26.4296  -37.3768   23.9374 N   0  0  0  0  0  0
  -24.6771  -31.0647   22.0993 N   0  0  0  0  0  0
  -23.4149  -28.8082   23.2932 O   0  0  0  0  0  0
  -28.4062  -26.6397   20.0775 O   0  0  0  0  0  0
  -26.5631  -34.8948   22.4695 O   0  0  0  0  0  0
  -23.5363  -32.1453   23.7401 O   0  0  0  0  0  0
  -31.2671  -23.0152   20.3102 C   0  0  0  0  0  0
  -29.2578  -21.8726   19.6359 C   0  0  0  0  0  0
  -29.9493  -23.0966   19.8189 C   0  0  0  0  0  0
  -31.8334  -21.7507   20.5652 C   0  0  0  0  0  0
  -29.9104  -20.6351   19.8794 C   0  0  0  0  0  0
  -33.2244  -21.6364   21.1486 C   0  0  0  0  0  0
  -29.6469  -18.9921   17.9795 C   0  0  0  0  0  0
  -28.5343  -24.9205   21.7795 C   0  0  0  0  0  0
  -29.8458  -18.3096   21.8136 C   0  0  0  0  0  0
  -27.7538  -17.6275   20.6312 C   0  0  0  0  0  0
  -29.3800  -24.4589   19.3717 C   0  0  0  0  0  0
  -30.0189  -16.7996   19.8488 C   0  0  0  0  0  0
  -29.2544  -19.3022   19.4387 C   0  0  1  0  0  0
  -28.3447  -25.1983   20.2815 C   0  0  2  0  0  0
  -29.2361  -18.0339   20.4212 C   0  0  0  0  0  0
  -31.1948  -20.5918   20.3020 N   0  0  0  0  0  0
  -29.8548  -15.5446   20.6097 N   0  0  0  0  0  0
  -31.4580  -12.3614   19.1388 H   0  0  0  0  0  0
  -30.2867  -11.2801   19.8499 H   0  0  0  0  0  0
  -29.7271  -11.7418   17.4376 H   0  0  0  0  0  0
  -29.6534  -13.4570   17.7635 H   0  0  0  0  0  0
  -27.8332  -11.2809   18.8454 H   0  0  0  0  0  0
  -27.3562  -12.5731   17.7827 H   0  0  0  0  0  0
  -27.6773  -14.2368   19.5236 H   0  0  0  0  0  0
  -28.6425  -12.0028   21.3773 H   0  0  0  0  0  0
  -28.4575  -13.6743   21.8303 H   0  0  0  0  0  0
  -25.2724   -9.5671   22.4734 H   0  0  0  0  0  0
  -23.9988   -7.4605   22.7444 H   0  0  0  0  0  0
  -21.0822   -8.8697   19.8927 H   0  0  0  0  0  0
  -22.3628  -10.9623   19.6143 H   0  0  0  0  0  0
  -21.2015   -7.6138   23.9692 H   0  0  0  0  0  0
  -21.1483   -6.0529   25.9066 H   0  0  0  0  0  0
  -22.0602   -2.7597   23.2865 H   0  0  0  0  0  0
  -22.4143  -11.9904   22.4843 H   0  0  0  0  0  0
  -21.1064  -13.1136   22.2593 H   0  0  0  0  0  0
  -24.6524  -15.8363   20.4744 H   0  0  0  0  0  0
  -26.2793  -15.6120   20.0799 H   0  0  0  0  0  0
  -26.7092  -32.5503   23.1111 H   0  0  0  0  0  0
  -24.9887  -33.9711   25.0317 H   0  0  0  0  0  0
  -22.7110  -31.3092   21.4025 H   0  0  0  0  0  0
  -23.3701  -35.9818   23.3281 H   0  0  0  0  0  0
  -24.3595  -36.9064   22.2061 H   0  0  0  0  0  0
  -23.7393  -37.6647   23.6693 H   0  0  0  0  0  0
  -26.0577  -31.5641   20.5909 H   0  0  0  0  0  0
  -26.8368  -30.8753   21.9804 H   0  0  0  0  0  0
  -28.1071  -29.0317   21.1833 H   0  0  0  0  0  0
  -26.0305  -25.9855   18.9230 H   0  0  0  0  0  0
  -23.9897  -27.3131   18.9769 H   0  0  0  0  0  0
  -23.7411  -30.6010   19.4081 H   0  0  0  0  0  0
  -22.7470  -29.2472   19.8548 H   0  0  0  0  0  0
  -25.1262  -36.2003   25.0811 H   0  0  0  0  0  0
  -20.9912  -28.3364   24.1421 H   0  0  0  0  0  0
  -20.5678  -26.2334   23.3633 H   0  0  0  0  0  0
  -21.6631  -26.7537   22.1191 H   0  0  0  0  0  0
  -19.6951  -25.6292   21.1290 H   0  0  0  0  0  0
  -19.6736  -27.3150   20.6695 H   0  0  0  0  0  0
  -17.4192  -26.6653   21.3999 H   0  0  0  0  0  0
  -18.0314  -26.0148   22.9031 H   0  0  0  0  0  0
  -19.7931  -30.7188   24.2339 H   0  0  0  0  0  0
  -17.5054  -31.6295   24.5160 H   0  0  0  0  0  0
  -15.5345  -30.3030   23.7689 H   0  0  0  0  0  0
  -15.8655  -28.0904   22.7021 H   0  0  0  0  0  0
  -24.5869  -30.7046   25.7775 H   0  0  0  0  0  0
  -24.8870  -32.2821   26.4919 H   0  0  0  0  0  0
  -25.8031  -30.8843   27.0224 H   0  0  0  0  0  0
  -26.2898  -29.6735   24.1155 H   0  0  0  0  0  0
  -27.4141  -29.7309   25.4545 H   0  0  0  0  0  0
  -27.8689  -30.4340   23.9230 H   0  0  0  0  0  0
  -27.2656  -33.3618   26.2045 H   0  0  0  0  0  0
  -28.3825  -32.6849   25.0262 H   0  0  0  0  0  0
  -28.0724  -31.8436   26.5369 H   0  0  0  0  0  0
  -28.2538  -38.0175   24.7431 H   0  0  0  0  0  0
  -28.1151  -36.2699   24.6281 H   0  0  0  0  0  0
  -27.2312  -37.1507   25.8832 H   0  0  0  0  0  0
  -20.9326  -29.8997   21.7050 H   0  0  0  0  0  0
  -26.0211  -38.2867   24.1347 H   0  0  0  0  0  0
  -31.8599  -23.9079   20.4609 H   0  0  0  0  0  0
  -28.2580  -21.8728   19.2279 H   0  0  0  0  0  0
  -33.2417  -22.0858   22.1429 H   0  0  0  0  0  0
  -33.9472  -22.1611   20.5273 H   0  0  0  0  0  0
  -33.5499  -20.5976   21.2361 H   0  0  0  0  0  0
  -29.4903  -19.8626   17.3438 H   0  0  0  0  0  0
  -29.0362  -18.1925   17.5583 H   0  0  0  0  0  0
  -30.6980  -18.7153   17.8981 H   0  0  0  0  0  0
  -28.3880  -23.8624   22.0099 H   0  0  0  0  0  0
  -27.8128  -25.4818   22.3760 H   0  0  0  0  0  0
  -29.5376  -25.1890   22.1071 H   0  0  0  0  0  0
  -29.7025  -17.4714   22.4962 H   0  0  0  0  0  0
  -29.4159  -19.1937   22.2841 H   0  0  0  0  0  0
  -30.9256  -18.4508   21.7432 H   0  0  0  0  0  0
  -27.6334  -16.8339   21.3684 H   0  0  0  0  0  0
  -27.2934  -17.2850   19.7030 H   0  0  0  0  0  0
  -27.1525  -18.4655   20.9907 H   0  0  0  0  0  0
  -28.9539  -24.3237   18.3757 H   0  0  0  0  0  0
  -30.2365  -25.1171   19.2158 H   0  0  0  0  0  0
  -31.0771  -17.0509   19.7497 H   0  0  0  0  0  0
  -29.6757  -16.5525   18.8419 H   0  0  0  0  0  0
  -28.2090  -19.6002   19.3488 H   0  0  0  0  0  0
  -27.3666  -24.7817   20.0349 H   0  0  0  0  0  0
  -28.9243  -15.3457   20.9406 H   0  0  0  0  0  0
  1 25  1  0  0  0
  1 30  2  0  0  0
  1 87  1  0  0  0
  2  3  1  0  0  0
  2 25  1  0  0  0
  2 88  1  0  0  0
  2 89  1  0  0  0
  3  4  1  0  0  0
  3 90  1  0  0  0
  3 91  1  0  0  0
  4  5  1  0  0  0
  4 92  1  0  0  0
  4 93  1  0  0  0
  5  6  1  0  0  0
  5 26  1  0  0  0
  5 94  1  0  0  0
  6 25  1  0  0  0
  6 95  1  0  0  0
  6 96  1  0  0  0
  7  8  2  0  0  0
  7 26  1  0  0  0
  7 29  1  0  0  0
  8  9  1  0  0  0
  8 22  1  0  0  0
  9 10  1  0  0  0
  9 27  2  0  0  0
 10 11  2  0  0  0
 10 15  1  0  0  0
 11 12  1  0  0  0
 11 97  1  0  0  0
 12 13  2  0  0  0
 12 98  1  0  0  0
 13 14  1  0  0  0
 13 31  1  0  0  0
 14 15  2  0  0  0
 14 99  1  0  0  0
 15100  1  0  0  0
 16 17  2  0  0  0
 16 21  1  0  0  0
 16 31  1  0  0  0
 17 18  1  0  0  0
 17101  1  0  0  0
 18 19  2  0  0  0
 18102  1  0  0  0
 19 20  1  0  0  0
 19 24  1  0  0  0
 20 21  2  0  0  0
 20103  1  0  0  0
 21 23  1  0  0  0
 22 28  1  0  0  0
 22 32  2  0  0  0
 26 27  1  0  0  0
 28104  1  0  0  0
 28105  1  0  0  0
 29106  1  0  0  0
 29107  1  0  0  0
 33 34  1  0  0  0
 33 66  1  0  0  0
 33 70  2  0  0  0
 34 36  1  0  0  0
 34 59  1  0  0  0
 34108  1  0  0  0
 35 44  2  0  0  0
 35 45  1  0  0  0
 35 68  1  0  0  0
 36 56  1  0  0  0
 36109  1  0  0  0
 37 39  1  0  0  0
 37 47  1  0  0  0
 37 66  1  0  0  0
 37110  1  0  0  0
 38 43  2  0  0  0
 38 46  1  0  0  0
 38 47  1  0  0  0
 39 64  1  0  0  0
 39 67  2  0  0  0
 40 52  1  0  0  0
 40 53  2  0  0  0
 40 58  1  0  0  0
 41111  1  0  0  0
 41112  1  0  0  0
 41113  1  0  0  0
 41 48  1  0  0  0
 42 43  1  0  0  0
 42 66  1  0  0  0
 42114  1  0  0  0
 42115  1  0  0  0
 43 44  1  0  0  0
 44116  1  0  0  0
 45 46  2  0  0  0
 45117  1  0  0  0
 46118  1  0  0  0
 47119  1  0  0  0
 47120  1  0  0  0
 48 56  1  0  0  0
 48 65  1  0  0  0
 48121  1  0  0  0
 49 50  1  0  0  0
 49 53  1  0  0  0
 49 64  1  0  0  0
 49122  1  0  0  0
 50 51  1  0  0  0
 50123  1  0  0  0
 50124  1  0  0  0
 51 52  1  0  0  0
 51125  1  0  0  0
 51126  1  0  0  0
 52127  1  0  0  0
 52128  1  0  0  0
 53 54  1  0  0  0
 54 55  2  0  0  0
 54129  1  0  0  0
 55 57  1  0  0  0
 55130  1  0  0  0
 56 69  2  0  0  0
 57 58  2  0  0  0
 57131  1  0  0  0
 58132  1  0  0  0
 59 60  1  0  0  0
 59 61  1  0  0  0
 59 62  1  0  0  0
 60133  1  0  0  0
 60134  1  0  0  0
 60135  1  0  0  0
 61136  1  0  0  0
 61137  1  0  0  0
 61138  1  0  0  0
 62139  1  0  0  0
 62140  1  0  0  0
 62141  1  0  0  0
 63 65  1  0  0  0
 63142  1  0  0  0
 63143  1  0  0  0
 63144  1  0  0  0
 64145  1  0  0  0
 65146  1  0  0  0
 68 84  1  0  0  0
 71 73  2  0  0  0
 71 74  1  0  0  0
 71147  1  0  0  0
 72 73  1  0  0  0
 72 75  2  0  0  0
 72148  1  0  0  0
 73 81  1  0  0  0
 74 76  1  0  0  0
 74 86  2  0  0  0
 75 83  1  0  0  0
 75 86  1  0  0  0
 76149  1  0  0  0
 76150  1  0  0  0
 76151  1  0  0  0
 77152  1  0  0  0
 77153  1  0  0  0
 77154  1  0  0  0
 77 83  1  0  0  0
 78155  1  0  0  0
 78156  1  0  0  0
 78157  1  0  0  0
 78 84  1  0  0  0
 79158  1  0  0  0
 79159  1  0  0  0
 79160  1  0  0  0
 79 85  1  0  0  0
 80 85  1  0  0  0
 80161  1  0  0  0
 80162  1  0  0  0
 80163  1  0  0  0
 81 84  1  0  0  0
 81164  1  0  0  0
 81165  1  0  0  0
 82 85  1  0  0  0
 82 87  1  0  0  0
 82166  1  0  0  0
 82167  1  0  0  0
 83 85  1  0  0  0
 83168  1  0  0  0
 84169  1  0  0  0
 87170  1  0  0  0
M  ISO  4   1 100  68 101  84 101  87 100
M  END
> <chiral flag>
0

> <version>
0

> <s_m_source_file>
/data/baiqing/PycharmProjects/Reinvent-master-3.2/result/LINK_invent/BTK/process_docking_weight1_custom_sum_contain_oxygen_bond_distance_aromatic_linkinvent_7_9_3/rearranged_h_0085.sdf

> <i_m_source_file_index>
84

> <r_mmod_Potential_Energy-OPLS-2005>
-125.800361633301

> <r_mmod_Stretch_Energy-OPLS-2005>
51.8921203613281

> <r_mmod_Bend_Energy-OPLS-2005>
125.645751953125

> <r_mmod_Torsional_Energy-OPLS-2005>
236.335571289062

> <r_mmod_Improper_Torsional_Energy-OPLS-2005>
11.9229612350464

> <r_mmod_Van_der_Waal_Energy-OPLS-2005>
159.346603393555

> <r_mmod_Electrostatic_Energy-OPLS-2005>
-526.381408691406

> <r_mmod_Solvation_Energy-OPLS-2005>
-205.753112792969

> <b_mmod_Minimization_Converged-OPLS-2005>
0

> <r_mmod_RMS_Derivative-OPLS-2005>
5.37210655212402

$$$$
87
                    3D
 Structure written by MMmdl.
178186  0  0  1  0            999 V2000
  -30.7224  -14.3820   20.7583 C   0  0  0  0  0  0
  -30.4060  -12.3347   19.3885 C   0  0  0  0  0  0
  -29.4658  -12.5491   18.1847 C   0  0  0  0  0  0
  -27.9927  -12.3740   18.5980 C   0  0  0  0  0  0
  -27.6439  -13.2024   19.8552 C   0  0  2  0  0  0
  -28.6651  -12.9367   20.9772 C   0  0  0  0  0  0
  -25.2489  -13.8143   20.5678 C   0  0  0  0  0  0
  -24.1739  -13.0373   20.9251 C   0  0  0  0  0  0
  -24.6265  -11.6878   20.8729 C   0  0  0  0  0  0
  -23.8949  -10.4246   21.0393 C   0  0  0  0  0  0
  -24.3602   -9.4211   21.9150 C   0  0  0  0  0  0
  -23.6351   -8.2200   22.0683 C   0  0  0  0  0  0
  -22.4274   -8.0239   21.3579 C   0  0  0  0  0  0
  -21.9809   -9.0185   20.4726 C   0  0  0  0  0  0
  -22.7100  -10.2083   20.3087 C   0  0  0  0  0  0
  -21.6888   -6.0647   22.5316 C   0  0  0  0  0  0
  -21.4039   -6.5582   23.8236 C   0  0  0  0  0  0
  -21.3725   -5.6735   24.9209 C   0  0  0  0  0  0
  -21.6041   -4.3007   24.7260 C   0  0  0  0  0  0
  -21.8795   -3.8073   23.4367 C   0  0  0  0  0  0
  -21.9184   -4.6874   22.3411 C   0  0  0  0  0  0
  -22.7750  -13.5168   21.1892 C   0  0  0  0  0  0
  -22.1627   -4.2035   21.0977 F   0  0  0  0  0  0
  -21.5663   -3.4488   25.7791 F   0  0  0  0  0  0
  -30.0161  -13.2534   20.4782 N   0  0  0  0  0  0
  -26.2871  -12.9314   20.3227 N   0  0  0  0  0  0
  -25.9151  -11.6488   20.5613 N   0  0  0  0  0  0
  -22.0255  -12.8159   22.0367 N   0  0  0  0  0  0
  -25.4197  -15.1831   20.4163 N   0  0  0  0  0  0
  -31.7194  -14.7131   20.1009 O   0  0  0  0  0  0
  -21.6716   -6.8778   21.4265 O   0  0  0  0  0  0
  -22.3550  -14.5522   20.6800 O   0  0  0  0  0  0
  -24.6178  -31.8698   23.2115 C   0  0  0  0  0  0
  -25.9060  -32.4844   23.8408 C   0  0  1  0  0  0
  -27.2386  -27.4363   20.0913 C   0  0  0  0  0  0
  -25.5903  -33.8640   24.2349 N   0  0  0  0  0  0
  -23.4062  -30.4946   21.5560 C   0  0  2  0  0  0
  -24.8516  -28.9701   20.1110 C   0  0  0  0  0  0
  -22.7443  -29.4667   22.5031 C   0  0  0  0  0  0
  -18.0273  -28.1386   22.8484 C   0  0  0  0  0  0
  -24.1479  -36.7321   23.2640 C   0  0  0  0  0  0
  -25.9375  -30.8328   21.3671 C   0  0  0  0  0  0
  -26.0156  -29.4721   20.7083 C   0  0  0  0  0  0
  -27.2133  -28.7177   20.6915 C   0  0  0  0  0  0
  -26.0575  -26.9676   19.4640 C   0  0  0  0  0  0
  -24.8697  -27.7165   19.4817 C   0  0  0  0  0  0
  -23.6123  -29.8340   20.1687 C   0  0  0  0  0  0
  -25.4109  -36.3142   24.0348 C   0  0  1  0  0  0
  -20.5857  -28.3674   23.1318 C   0  0  2  0  0  0
  -20.6767  -26.9417   22.5411 C   0  0  0  0  0  0
  -19.5750  -26.6389   21.5211 C   0  0  0  0  0  0
  -18.1924  -26.7928   22.1614 C   0  0  0  0  0  0
  -19.1516  -28.8854   23.2886 C   0  0  0  0  0  0
  -18.9446  -30.1454   23.8905 C   0  0  0  0  0  0
  -17.6448  -30.6586   24.0563 C   0  0  0  0  0  0
  -25.9037  -34.9498   23.5147 C   0  0  0  0  0  0
  -16.5342  -29.9091   23.6323 C   0  0  0  0  0  0
  -16.7260  -28.6506   23.0350 C   0  0  0  0  0  0
  -26.4465  -31.6623   25.0746 C   0  0  0  0  0  0
  -25.3704  -31.3709   26.1480 C   0  0  0  0  0  0
  -27.0298  -30.3071   24.6114 C   0  0  0  0  0  0
  -27.6044  -32.4342   25.7486 C   0  0  0  0  0  0
  -27.5583  -37.1823   24.8472 C   0  0  0  0  0  0
  -21.4165  -29.3043   22.3736 N   0  0  0  0  0  0
  -26.4306  -37.3817   23.9408 N   0  0  0  0  0  0
  -24.6719  -31.0808   22.1011 N   0  0  0  0  0  0
  -23.4211  -28.8225   23.3089 O   0  0  0  0  0  0
  -28.3597  -26.6236   20.1771 O   0  0  0  0  0  0
  -26.5606  -34.8943   22.4713 O   0  0  0  0  0  0
  -23.5368  -32.1440   23.7519 O   0  0  0  0  0  0
  -29.6808  -18.5844   22.2991 C   0  0  0  0  0  0
  -28.4116  -18.5364   24.0973 C   0  0  0  0  0  0
  -28.7153  -19.3306   23.0246 C   0  0  0  0  0  0
  -29.8825  -17.3585   22.8851 C   0  0  0  0  0  0
  -32.1699  -16.1653   23.1479 C   0  0  0  0  0  0
  -26.9795  -20.2996   21.5934 C   0  0  0  0  0  0
  -27.2819  -21.2026   23.8964 C   0  0  0  0  0  0
  -27.7277  -16.6275   26.0934 C   0  0  0  0  0  0
  -29.9391  -15.6143   25.6502 C   0  0  0  0  0  0
  -27.9474  -15.0578   24.2227 C   0  0  0  0  0  0
  -28.3259  -23.0572   21.6552 C   0  0  0  0  0  0
  -29.0908  -24.2730   21.0622 C   0  0  0  0  0  0
  -29.0410  -21.7527   22.1287 C   0  0  0  0  0  0
  -28.0113  -25.2868   20.5999 C   0  0  0  0  0  0
  -30.8738  -16.3430   22.3299 C   0  0  2  0  0  0
  -28.0385  -20.6584   22.6592 C   0  0  0  0  0  0
  -28.6898  -16.1778   24.9568 C   0  0  0  0  0  0
  -29.0197  -17.2865   24.0071 N   0  0  0  0  0  0
  -30.3019  -15.0817   21.8376 N   0  0  0  0  0  0
  -31.4413  -12.4789   19.0725 H   0  0  0  0  0  0
  -30.3438  -11.3016   19.7326 H   0  0  0  0  0  0
  -29.7041  -11.8585   17.3739 H   0  0  0  0  0  0
  -29.6118  -13.5536   17.7844 H   0  0  0  0  0  0
  -27.8171  -11.3163   18.7966 H   0  0  0  0  0  0
  -27.3180  -12.6182   17.7704 H   0  0  0  0  0  0
  -27.7010  -14.2507   19.5661 H   0  0  0  0  0  0
  -28.6175  -11.8897   21.2803 H   0  0  0  0  0  0
  -28.3542  -13.4990   21.8488 H   0  0  0  0  0  0
  -25.2829   -9.5666   22.4595 H   0  0  0  0  0  0
  -24.0175   -7.4453   22.7209 H   0  0  0  0  0  0
  -21.0728   -8.8668   19.9077 H   0  0  0  0  0  0
  -22.3437  -10.9655   19.6302 H   0  0  0  0  0  0
  -21.2062   -7.6088   23.9799 H   0  0  0  0  0  0
  -21.1595   -6.0429   25.9119 H   0  0  0  0  0  0
  -22.0553   -2.7509   23.2879 H   0  0  0  0  0  0
  -22.3624  -11.9629   22.4574 H   0  0  0  0  0  0
  -21.0883  -13.1296   22.2483 H   0  0  0  0  0  0
  -24.6450  -15.8274   20.5079 H   0  0  0  0  0  0
  -26.2708  -15.6245   20.0865 H   0  0  0  0  0  0
  -26.7145  -32.5550   23.1179 H   0  0  0  0  0  0
  -25.0055  -33.9781   25.0502 H   0  0  0  0  0  0
  -22.6954  -31.3117   21.4239 H   0  0  0  0  0  0
  -23.3741  -35.9647   23.3331 H   0  0  0  0  0  0
  -24.3561  -36.8903   22.2043 H   0  0  0  0  0  0
  -23.7219  -37.6535   23.6625 H   0  0  0  0  0  0
  -26.0579  -31.5944   20.5969 H   0  0  0  0  0  0
  -26.8232  -30.8817   21.9870 H   0  0  0  0  0  0
  -28.1028  -29.1007   21.1718 H   0  0  0  0  0  0
  -26.0297  -26.0124   18.9624 H   0  0  0  0  0  0
  -23.9812  -27.3243   19.0039 H   0  0  0  0  0  0
  -23.7191  -30.6135   19.4148 H   0  0  0  0  0  0
  -22.7354  -29.2556   19.8722 H   0  0  0  0  0  0
  -25.1278  -36.2015   25.0841 H   0  0  0  0  0  0
  -20.9927  -28.3237   24.1450 H   0  0  0  0  0  0
  -20.5690  -26.2295   23.3605 H   0  0  0  0  0  0
  -21.6642  -26.7484   22.1202 H   0  0  0  0  0  0
  -19.6919  -25.6307   21.1240 H   0  0  0  0  0  0
  -19.6679  -27.3201   20.6745 H   0  0  0  0  0  0
  -17.4199  -26.6673   21.4009 H   0  0  0  0  0  0
  -18.0318  -26.0069   22.9011 H   0  0  0  0  0  0
  -19.7924  -30.7251   24.2291 H   0  0  0  0  0  0
  -17.5011  -31.6267   24.5165 H   0  0  0  0  0  0
  -15.5347  -30.3002   23.7642 H   0  0  0  0  0  0
  -15.8653  -28.0824   22.7082 H   0  0  0  0  0  0
  -24.5884  -30.7066   25.7784 H   0  0  0  0  0  0
  -24.8880  -32.2857   26.4938 H   0  0  0  0  0  0
  -25.8032  -30.8849   27.0240 H   0  0  0  0  0  0
  -26.2847  -29.6840   24.1160 H   0  0  0  0  0  0
  -27.4075  -29.7299   25.4567 H   0  0  0  0  0  0
  -27.8678  -30.4411   23.9266 H   0  0  0  0  0  0
  -27.2678  -33.3635   26.2093 H   0  0  0  0  0  0
  -28.3810  -32.6928   25.0273 H   0  0  0  0  0  0
  -28.0770  -31.8459   26.5364 H   0  0  0  0  0  0
  -28.2644  -38.0082   24.7515 H   0  0  0  0  0  0
  -28.1040  -36.2626   24.6317 H   0  0  0  0  0  0
  -27.2300  -37.1505   25.8875 H   0  0  0  0  0  0
  -20.9362  -29.8749   21.6913 H   0  0  0  0  0  0
  -26.0207  -38.2905   24.1379 H   0  0  0  0  0  0
  -30.1569  -18.8856   21.3765 H   0  0  0  0  0  0
  -27.7202  -18.7578   24.8931 H   0  0  0  0  0  0
  -32.8585  -15.4781   22.6539 H   0  0  0  0  0  0
  -32.0379  -15.7995   24.1562 H   0  0  0  0  0  0
  -32.6966  -17.1149   23.2474 H   0  0  0  0  0  0
  -26.3557  -19.4761   21.9399 H   0  0  0  0  0  0
  -27.4408  -19.9810   20.6565 H   0  0  0  0  0  0
  -26.3017  -21.1232   21.3770 H   0  0  0  0  0  0
  -26.5695  -20.4757   24.2867 H   0  0  0  0  0  0
  -26.6830  -22.0814   23.6708 H   0  0  0  0  0  0
  -27.9685  -21.4716   24.7008 H   0  0  0  0  0  0
  -28.1439  -17.4302   26.7002 H   0  0  0  0  0  0
  -27.4879  -15.8095   26.7754 H   0  0  0  0  0  0
  -26.7633  -16.9612   25.7065 H   0  0  0  0  0  0
  -29.7006  -15.1268   26.5946 H   0  0  0  0  0  0
  -30.6673  -16.3958   25.8738 H   0  0  0  0  0  0
  -30.4143  -14.8427   25.0485 H   0  0  0  0  0  0
  -27.5278  -14.3289   24.9174 H   0  0  0  0  0  0
  -28.6218  -14.4958   23.5942 H   0  0  0  0  0  0
  -27.1343  -15.4508   23.6065 H   0  0  0  0  0  0
  -27.5909  -22.7744   20.9066 H   0  0  0  0  0  0
  -27.7528  -23.4507   22.4909 H   0  0  0  0  0  0
  -29.7047  -23.9669   20.2159 H   0  0  0  0  0  0
  -29.7580  -24.7162   21.7990 H   0  0  0  0  0  0
  -29.7586  -21.9982   22.9148 H   0  0  0  0  0  0
  -29.6356  -21.3520   21.3048 H   0  0  0  0  0  0
  -27.3088  -25.4032   21.4277 H   0  0  0  0  0  0
  -27.4697  -24.7852   19.7988 H   0  0  0  0  0  0
  -31.2531  -16.8224   21.4240 H   0  0  0  0  0  0
  -29.4914  -14.7261   22.3275 H   0  0  0  0  0  0
  1 25  1  0  0  0
  1 30  2  0  0  0
  1 89  1  0  0  0
  2  3  1  0  0  0
  2 25  1  0  0  0
  2 90  1  0  0  0
  2 91  1  0  0  0
  3  4  1  0  0  0
  3 92  1  0  0  0
  3 93  1  0  0  0
  4  5  1  0  0  0
  4 94  1  0  0  0
  4 95  1  0  0  0
  5  6  1  0  0  0
  5 26  1  0  0  0
  5 96  1  0  0  0
  6 25  1  0  0  0
  6 97  1  0  0  0
  6 98  1  0  0  0
  7  8  2  0  0  0
  7 26  1  0  0  0
  7 29  1  0  0  0
  8  9  1  0  0  0
  8 22  1  0  0  0
  9 10  1  0  0  0
  9 27  2  0  0  0
 10 11  2  0  0  0
 10 15  1  0  0  0
 11 12  1  0  0  0
 11 99  1  0  0  0
 12 13  2  0  0  0
 12100  1  0  0  0
 13 14  1  0  0  0
 13 31  1  0  0  0
 14 15  2  0  0  0
 14101  1  0  0  0
 15102  1  0  0  0
 16 17  2  0  0  0
 16 21  1  0  0  0
 16 31  1  0  0  0
 17 18  1  0  0  0
 17103  1  0  0  0
 18 19  2  0  0  0
 18104  1  0  0  0
 19 20  1  0  0  0
 19 24  1  0  0  0
 20 21  2  0  0  0
 20105  1  0  0  0
 21 23  1  0  0  0
 22 28  1  0  0  0
 22 32  2  0  0  0
 26 27  1  0  0  0
 28106  1  0  0  0
 28107  1  0  0  0
 29108  1  0  0  0
 29109  1  0  0  0
 33 34  1  0  0  0
 33 66  1  0  0  0
 33 70  2  0  0  0
 34 36  1  0  0  0
 34 59  1  0  0  0
 34110  1  0  0  0
 35 44  2  0  0  0
 35 45  1  0  0  0
 35 68  1  0  0  0
 36 56  1  0  0  0
 36111  1  0  0  0
 37 39  1  0  0  0
 37 47  1  0  0  0
 37 66  1  0  0  0
 37112  1  0  0  0
 38 43  2  0  0  0
 38 46  1  0  0  0
 38 47  1  0  0  0
 39 64  1  0  0  0
 39 67  2  0  0  0
 40 52  1  0  0  0
 40 53  2  0  0  0
 40 58  1  0  0  0
 41113  1  0  0  0
 41114  1  0  0  0
 41115  1  0  0  0
 41 48  1  0  0  0
 42 43  1  0  0  0
 42 66  1  0  0  0
 42116  1  0  0  0
 42117  1  0  0  0
 43 44  1  0  0  0
 44118  1  0  0  0
 45 46  2  0  0  0
 45119  1  0  0  0
 46120  1  0  0  0
 47121  1  0  0  0
 47122  1  0  0  0
 48 56  1  0  0  0
 48 65  1  0  0  0
 48123  1  0  0  0
 49 50  1  0  0  0
 49 53  1  0  0  0
 49 64  1  0  0  0
 49124  1  0  0  0
 50 51  1  0  0  0
 50125  1  0  0  0
 50126  1  0  0  0
 51 52  1  0  0  0
 51127  1  0  0  0
 51128  1  0  0  0
 52129  1  0  0  0
 52130  1  0  0  0
 53 54  1  0  0  0
 54 55  2  0  0  0
 54131  1  0  0  0
 55 57  1  0  0  0
 55132  1  0  0  0
 56 69  2  0  0  0
 57 58  2  0  0  0
 57133  1  0  0  0
 58134  1  0  0  0
 59 60  1  0  0  0
 59 61  1  0  0  0
 59 62  1  0  0  0
 60135  1  0  0  0
 60136  1  0  0  0
 60137  1  0  0  0
 61138  1  0  0  0
 61139  1  0  0  0
 61140  1  0  0  0
 62141  1  0  0  0
 62142  1  0  0  0
 62143  1  0  0  0
 63 65  1  0  0  0
 63144  1  0  0  0
 63145  1  0  0  0
 63146  1  0  0  0
 64147  1  0  0  0
 65148  1  0  0  0
 68 84  1  0  0  0
 71 73  1  0  0  0
 71 74  2  0  0  0
 71149  1  0  0  0
 72 73  2  0  0  0
 72 88  1  0  0  0
 72150  1  0  0  0
 73 86  1  0  0  0
 74 85  1  0  0  0
 74 88  1  0  0  0
 75151  1  0  0  0
 75152  1  0  0  0
 75153  1  0  0  0
 75 85  1  0  0  0
 76154  1  0  0  0
 76155  1  0  0  0
 76156  1  0  0  0
 76 86  1  0  0  0
 77 86  1  0  0  0
 77157  1  0  0  0
 77158  1  0  0  0
 77159  1  0  0  0
 78160  1  0  0  0
 78161  1  0  0  0
 78162  1  0  0  0
 78 87  1  0  0  0
 79 87  1  0  0  0
 79163  1  0  0  0
 79164  1  0  0  0
 79165  1  0  0  0
 80 87  1  0  0  0
 80166  1  0  0  0
 80167  1  0  0  0
 80168  1  0  0  0
 81 82  1  0  0  0
 81 83  1  0  0  0
 81169  1  0  0  0
 81170  1  0  0  0
 82 84  1  0  0  0
 82171  1  0  0  0
 82172  1  0  0  0
 83 86  1  0  0  0
 83173  1  0  0  0
 83174  1  0  0  0
 84175  1  0  0  0
 84176  1  0  0  0
 85 89  1  0  0  0
 85177  1  0  0  0
 87 88  1  0  0  0
 89178  1  0  0  0
M  ISO  4   1 100  68 101  84 101  89 100
M  END
> <chiral flag>
0

> <version>
0

> <s_m_source_file>
/data/baiqing/PycharmProjects/Reinvent-master-3.2/result/LINK_invent/BTK/process_docking_weight1_custom_sum_contain_oxygen_bond_distance_aromatic_linkinvent_7_9_3/rearranged_h_0085.sdf

> <i_m_source_file_index>
85

> <r_mmod_Potential_Energy-OPLS-2005>
-23.1100921630859

> <r_mmod_Stretch_Energy-OPLS-2005>
49.7907028198242

> <r_mmod_Bend_Energy-OPLS-2005>
163.594100952148

> <r_mmod_Torsional_Energy-OPLS-2005>
263.440063476562

> <r_mmod_Improper_Torsional_Energy-OPLS-2005>
2.99046277999878

> <r_mmod_Van_der_Waal_Energy-OPLS-2005>
163.372711181641

> <r_mmod_Electrostatic_Energy-OPLS-2005>
-502.002349853516

> <r_mmod_Solvation_Energy-OPLS-2005>
-179.693542480469

> <b_mmod_Minimization_Converged-OPLS-2005>
0

> <r_mmod_RMS_Derivative-OPLS-2005>
6.94445419311523

$$$$
88
                    3D
 Structure written by MMmdl.
156164  0  0  1  0            999 V2000
  -30.5407  -14.9520   20.4185 C   0  0  0  0  0  0
  -30.4354  -12.5869   19.5163 C   0  0  0  0  0  0
  -29.5233  -12.5318   18.2693 C   0  0  0  0  0  0
  -28.0545  -12.3194   18.6789 C   0  0  0  0  0  0
  -27.6295  -13.2494   19.8452 C   0  0  2  0  0  0
  -28.6678  -13.2808   20.9881 C   0  0  0  0  0  0
  -25.2460  -13.8216   20.5724 C   0  0  0  0  0  0
  -24.1775  -13.0436   20.9232 C   0  0  0  0  0  0
  -24.6386  -11.6928   20.8751 C   0  0  0  0  0  0
  -23.9065  -10.4302   21.0410 C   0  0  0  0  0  0
  -24.3620   -9.4218   21.9183 C   0  0  0  0  0  0
  -23.6309   -8.2248   22.0749 C   0  0  0  0  0  0
  -22.4285   -8.0286   21.3542 C   0  0  0  0  0  0
  -21.9925   -9.0253   20.4640 C   0  0  0  0  0  0
  -22.7240  -10.2139   20.3056 C   0  0  0  0  0  0
  -21.6860   -6.0737   22.5277 C   0  0  0  0  0  0
  -21.4021   -6.5645   23.8211 C   0  0  0  0  0  0
  -21.3657   -5.6799   24.9171 C   0  0  0  0  0  0
  -21.6045   -4.3059   24.7224 C   0  0  0  0  0  0
  -21.8825   -3.8150   23.4347 C   0  0  0  0  0  0
  -21.9199   -4.6966   22.3404 C   0  0  0  0  0  0
  -22.7797  -13.5213   21.1888 C   0  0  0  0  0  0
  -22.1675   -4.2156   21.0977 F   0  0  0  0  0  0
  -21.5625   -3.4538   25.7731 F   0  0  0  0  0  0
  -29.9466  -13.6901   20.3957 N   0  0  0  0  0  0
  -26.2881  -12.9449   20.3276 N   0  0  0  0  0  0
  -25.9320  -11.6573   20.5746 N   0  0  0  0  0  0
  -22.0478  -12.8166   22.0443 N   0  0  0  0  0  0
  -25.4133  -15.1947   20.4146 N   0  0  0  0  0  0
  -31.7326  -15.0112   20.0982 O   0  0  0  0  0  0
  -21.6656   -6.8875   21.4240 O   0  0  0  0  0  0
  -22.3461  -14.5511   20.6738 O   0  0  0  0  0  0
  -24.6455  -31.8435   23.1845 C   0  0  0  0  0  0
  -25.9227  -32.4683   23.8259 C   0  0  1  0  0  0
  -27.2133  -27.1135   20.1529 C   0  0  0  0  0  0
  -25.5967  -33.8488   24.2180 N   0  0  0  0  0  0
  -23.4503  -30.4602   21.5317 C   0  0  2  0  0  0
  -24.9001  -28.8862   20.1051 C   0  0  0  0  0  0
  -22.7584  -29.4537   22.4859 C   0  0  0  0  0  0
  -18.0309  -28.1388   22.8479 C   0  0  0  0  0  0
  -24.1494  -36.7245   23.2639 C   0  0  0  0  0  0
  -26.0063  -30.7090   21.3876 C   0  0  0  0  0  0
  -26.0763  -29.3177   20.7296 C   0  0  0  0  0  0
  -27.2330  -28.4475   20.7372 C   0  0  0  0  0  0
  -26.0143  -26.7955   19.4768 C   0  0  0  0  0  0
  -24.8837  -27.6406   19.4610 C   0  0  0  0  0  0
  -23.6769  -29.7890   20.1506 C   0  0  0  0  0  0
  -25.4123  -36.3014   24.0311 C   0  0  1  0  0  0
  -20.5921  -28.3720   23.1226 C   0  0  2  0  0  0
  -20.6788  -26.9425   22.5395 C   0  0  0  0  0  0
  -19.5763  -26.6376   21.5205 C   0  0  0  0  0  0
  -18.1946  -26.7926   22.1618 C   0  0  0  0  0  0
  -19.1563  -28.8874   23.2843 C   0  0  0  0  0  0
  -18.9477  -30.1466   23.8881 C   0  0  0  0  0  0
  -17.6473  -30.6588   24.0547 C   0  0  0  0  0  0
  -25.9082  -34.9394   23.5054 C   0  0  0  0  0  0
  -16.5367  -29.9078   23.6324 C   0  0  0  0  0  0
  -16.7290  -28.6487   23.0368 C   0  0  0  0  0  0
  -26.4536  -31.6555   25.0715 C   0  0  0  0  0  0
  -25.3714  -31.3757   26.1404 C   0  0  0  0  0  0
  -27.0405  -30.2944   24.6316 C   0  0  0  0  0  0
  -27.6059  -32.4317   25.7511 C   0  0  0  0  0  0
  -27.5573  -37.1770   24.8460 C   0  0  0  0  0  0
  -21.4276  -29.3050   22.3608 N   0  0  0  0  0  0
  -26.4277  -37.3734   23.9414 N   0  0  0  0  0  0
  -24.7206  -31.0260   22.0897 N   0  0  0  0  0  0
  -23.4219  -28.8110   23.3038 O   0  0  0  0  0  0
  -28.2510  -26.1053   20.2497 O   0  0  0  0  0  0
  -26.5663  -34.8900   22.4634 O   0  0  0  0  0  0
  -23.5566  -32.1335   23.7036 O   0  0  0  0  0  0
  -29.9298  -20.9835   17.6205 C   0  0  0  0  0  0
  -29.6463  -22.2068   18.2598 C   0  0  0  0  0  0
  -29.2166  -21.9015   19.5397 C   0  0  0  0  0  0
  -29.8513  -23.5282   17.5617 C   0  0  0  0  0  0
  -30.0540  -23.6219   21.2733 C   0  0  0  0  0  0
  -29.3168  -19.1137   20.5619 C   0  0  0  0  0  0
  -30.0815  -17.6402   20.1200 C   0  0  0  0  0  0
  -27.9963  -24.5816   19.9635 C   0  0  0  0  0  0
  -28.8068  -23.1686   20.5029 C   0  0  1  0  0  0
  -29.7835  -19.9572   18.4083 N   0  0  0  0  0  0
  -29.4179  -20.3969   19.6331 N   0  0  0  0  0  0
  -29.7814  -16.1483   20.5806 N   0  0  0  0  0  0
  -31.4723  -12.7340   19.2104 H   0  0  0  0  0  0
  -30.4194  -11.6363   20.0514 H   0  0  0  0  0  0
  -29.8462  -11.7365   17.5968 H   0  0  0  0  0  0
  -29.6134  -13.4635   17.7105 H   0  0  0  0  0  0
  -27.9421  -11.2762   18.9763 H   0  0  0  0  0  0
  -27.3976  -12.4591   17.8199 H   0  0  0  0  0  0
  -27.5926  -14.2517   19.4169 H   0  0  0  0  0  0
  -28.7543  -12.3079   21.4752 H   0  0  0  0  0  0
  -28.3643  -13.9866   21.7620 H   0  0  0  0  0  0
  -25.2769   -9.5703   22.4742 H   0  0  0  0  0  0
  -24.0039   -7.4633   22.7451 H   0  0  0  0  0  0
  -21.0870   -8.8748   19.8926 H   0  0  0  0  0  0
  -22.3693  -10.9670   19.6166 H   0  0  0  0  0  0
  -21.2012   -7.6154   23.9711 H   0  0  0  0  0  0
  -21.1482   -6.0528   25.9071 H   0  0  0  0  0  0
  -22.0603   -2.7612   23.2838 H   0  0  0  0  0  0
  -22.4141  -11.9840   22.4814 H   0  0  0  0  0  0
  -21.1082  -13.1130   22.2653 H   0  0  0  0  0  0
  -24.6413  -15.8444   20.5170 H   0  0  0  0  0  0
  -26.2523  -15.6318   20.0553 H   0  0  0  0  0  0
  -26.7307  -32.5288   23.0997 H   0  0  0  0  0  0
  -25.0081  -33.9607   25.0304 H   0  0  0  0  0  0
  -22.7538  -31.2868   21.3763 H   0  0  0  0  0  0
  -23.3761  -35.9569   23.3263 H   0  0  0  0  0  0
  -24.3588  -36.8918   22.2061 H   0  0  0  0  0  0
  -23.7239  -37.6425   23.6709 H   0  0  0  0  0  0
  -26.1659  -31.4637   20.6157 H   0  0  0  0  0  0
  -26.8739  -30.7596   22.0330 H   0  0  0  0  0  0
  -28.1255  -28.7716   21.2540 H   0  0  0  0  0  0
  -25.9130  -25.8474   18.9708 H   0  0  0  0  0  0
  -23.9888  -27.3103   18.9509 H   0  0  0  0  0  0
  -23.8120  -30.5642   19.3957 H   0  0  0  0  0  0
  -22.7922  -29.2311   19.8382 H   0  0  0  0  0  0
  -25.1305  -36.1828   25.0798 H   0  0  0  0  0  0
  -21.0005  -28.3304   24.1351 H   0  0  0  0  0  0
  -20.5667  -26.2346   23.3623 H   0  0  0  0  0  0
  -21.6653  -26.7421   22.1205 H   0  0  0  0  0  0
  -19.6923  -25.6282   21.1254 H   0  0  0  0  0  0
  -19.6683  -27.3168   20.6724 H   0  0  0  0  0  0
  -17.4211  -26.6673   21.4021 H   0  0  0  0  0  0
  -18.0341  -26.0070   22.9018 H   0  0  0  0  0  0
  -19.7956  -30.7271   24.2257 H   0  0  0  0  0  0
  -17.5030  -31.6266   24.5150 H   0  0  0  0  0  0
  -15.5367  -30.2972   23.7651 H   0  0  0  0  0  0
  -15.8696  -28.0779   22.7118 H   0  0  0  0  0  0
  -24.5903  -30.7094   25.7727 H   0  0  0  0  0  0
  -24.8900  -32.2947   26.4753 H   0  0  0  0  0  0
  -25.7990  -30.8985   27.0234 H   0  0  0  0  0  0
  -26.3032  -29.6655   24.1308 H   0  0  0  0  0  0
  -27.3996  -29.7245   25.4900 H   0  0  0  0  0  0
  -27.8954  -30.4166   23.9657 H   0  0  0  0  0  0
  -27.2652  -33.3636   26.2027 H   0  0  0  0  0  0
  -28.3909  -32.6837   25.0372 H   0  0  0  0  0  0
  -28.0693  -31.8490   26.5482 H   0  0  0  0  0  0
  -28.2553  -38.0100   24.7523 H   0  0  0  0  0  0
  -28.1106  -36.2626   24.6256 H   0  0  0  0  0  0
  -27.2303  -37.1370   25.8866 H   0  0  0  0  0  0
  -20.9507  -29.8769   21.6777 H   0  0  0  0  0  0
  -26.0134  -38.2797   24.1428 H   0  0  0  0  0  0
  -30.2747  -20.8171   16.6096 H   0  0  0  0  0  0
  -28.9729  -23.8255   16.9882 H   0  0  0  0  0  0
  -30.6741  -23.4729   16.8477 H   0  0  0  0  0  0
  -30.1066  -24.3381   18.2435 H   0  0  0  0  0  0
  -30.4975  -22.7928   21.8241 H   0  0  0  0  0  0
  -29.8153  -24.4079   21.9901 H   0  0  0  0  0  0
  -30.8112  -24.0141   20.5937 H   0  0  0  0  0  0
  -29.6691  -19.4059   21.5512 H   0  0  0  0  0  0
  -28.2535  -18.9096   20.6864 H   0  0  0  0  0  0
  -31.1512  -17.7915   20.2657 H   0  0  0  0  0  0
  -29.9749  -17.5442   19.0400 H   0  0  0  0  0  0
  -26.9729  -24.4050   20.2936 H   0  0  0  0  0  0
  -27.8975  -24.5195   18.8841 H   0  0  0  0  0  0
  -28.1441  -22.7493   21.2611 H   0  0  0  0  0  0
  -28.8292  -15.9869   20.8737 H   0  0  0  0  0  0
  1 25  1  0  0  0
  1 30  2  0  0  0
  1 82  1  0  0  0
  2  3  1  0  0  0
  2 25  1  0  0  0
  2 83  1  0  0  0
  2 84  1  0  0  0
  3  4  1  0  0  0
  3 85  1  0  0  0
  3 86  1  0  0  0
  4  5  1  0  0  0
  4 87  1  0  0  0
  4 88  1  0  0  0
  5  6  1  0  0  0
  5 26  1  0  0  0
  5 89  1  0  0  0
  6 25  1  0  0  0
  6 90  1  0  0  0
  6 91  1  0  0  0
  7  8  2  0  0  0
  7 26  1  0  0  0
  7 29  1  0  0  0
  8  9  1  0  0  0
  8 22  1  0  0  0
  9 10  1  0  0  0
  9 27  2  0  0  0
 10 11  2  0  0  0
 10 15  1  0  0  0
 11 12  1  0  0  0
 11 92  1  0  0  0
 12 13  2  0  0  0
 12 93  1  0  0  0
 13 14  1  0  0  0
 13 31  1  0  0  0
 14 15  2  0  0  0
 14 94  1  0  0  0
 15 95  1  0  0  0
 16 17  2  0  0  0
 16 21  1  0  0  0
 16 31  1  0  0  0
 17 18  1  0  0  0
 17 96  1  0  0  0
 18 19  2  0  0  0
 18 97  1  0  0  0
 19 20  1  0  0  0
 19 24  1  0  0  0
 20 21  2  0  0  0
 20 98  1  0  0  0
 21 23  1  0  0  0
 22 28  1  0  0  0
 22 32  2  0  0  0
 26 27  1  0  0  0
 28 99  1  0  0  0
 28100  1  0  0  0
 29101  1  0  0  0
 29102  1  0  0  0
 33 34  1  0  0  0
 33 66  1  0  0  0
 33 70  2  0  0  0
 34 36  1  0  0  0
 34 59  1  0  0  0
 34103  1  0  0  0
 35 44  2  0  0  0
 35 45  1  0  0  0
 35 68  1  0  0  0
 36 56  1  0  0  0
 36104  1  0  0  0
 37 39  1  0  0  0
 37 47  1  0  0  0
 37 66  1  0  0  0
 37105  1  0  0  0
 38 43  2  0  0  0
 38 46  1  0  0  0
 38 47  1  0  0  0
 39 64  1  0  0  0
 39 67  2  0  0  0
 40 52  1  0  0  0
 40 53  2  0  0  0
 40 58  1  0  0  0
 41106  1  0  0  0
 41107  1  0  0  0
 41108  1  0  0  0
 41 48  1  0  0  0
 42 43  1  0  0  0
 42 66  1  0  0  0
 42109  1  0  0  0
 42110  1  0  0  0
 43 44  1  0  0  0
 44111  1  0  0  0
 45 46  2  0  0  0
 45112  1  0  0  0
 46113  1  0  0  0
 47114  1  0  0  0
 47115  1  0  0  0
 48 56  1  0  0  0
 48 65  1  0  0  0
 48116  1  0  0  0
 49 50  1  0  0  0
 49 53  1  0  0  0
 49 64  1  0  0  0
 49117  1  0  0  0
 50 51  1  0  0  0
 50118  1  0  0  0
 50119  1  0  0  0
 51 52  1  0  0  0
 51120  1  0  0  0
 51121  1  0  0  0
 52122  1  0  0  0
 52123  1  0  0  0
 53 54  1  0  0  0
 54 55  2  0  0  0
 54124  1  0  0  0
 55 57  1  0  0  0
 55125  1  0  0  0
 56 69  2  0  0  0
 57 58  2  0  0  0
 57126  1  0  0  0
 58127  1  0  0  0
 59 60  1  0  0  0
 59 61  1  0  0  0
 59 62  1  0  0  0
 60128  1  0  0  0
 60129  1  0  0  0
 60130  1  0  0  0
 61131  1  0  0  0
 61132  1  0  0  0
 61133  1  0  0  0
 62134  1  0  0  0
 62135  1  0  0  0
 62136  1  0  0  0
 63 65  1  0  0  0
 63137  1  0  0  0
 63138  1  0  0  0
 63139  1  0  0  0
 64140  1  0  0  0
 65141  1  0  0  0
 68 78  1  0  0  0
 71 72  1  0  0  0
 71 80  2  0  0  0
 71142  1  0  0  0
 72 73  2  0  0  0
 72 74  1  0  0  0
 73 79  1  0  0  0
 73 81  1  0  0  0
 74143  1  0  0  0
 74144  1  0  0  0
 74145  1  0  0  0
 75146  1  0  0  0
 75147  1  0  0  0
 75148  1  0  0  0
 75 79  1  0  0  0
 76 77  1  0  0  0
 76 81  1  0  0  0
 76149  1  0  0  0
 76150  1  0  0  0
 77 82  1  0  0  0
 77151  1  0  0  0
 77152  1  0  0  0
 78 79  1  0  0  0
 78153  1  0  0  0
 78154  1  0  0  0
 79155  1  0  0  0
 80 81  1  0  0  0
 82156  1  0  0  0
M  ISO  4   1 100  68 101  78 101  82 100
M  END
> <chiral flag>
0

> <version>
0

> <s_m_source_file>
/data/baiqing/PycharmProjects/Reinvent-master-3.2/result/LINK_invent/BTK/process_docking_weight1_custom_sum_contain_oxygen_bond_distance_aromatic_linkinvent_7_9_3/rearranged_h_0085.sdf

> <i_m_source_file_index>
86

> <r_mmod_Potential_Energy-OPLS-2005>
627.6982421875

> <r_mmod_Stretch_Energy-OPLS-2005>
318.379913330078

> <r_mmod_Bend_Energy-OPLS-2005>
330.819183349609

> <r_mmod_Torsional_Energy-OPLS-2005>
241.35237121582

> <r_mmod_Improper_Torsional_Energy-OPLS-2005>
5.86779594421387

> <r_mmod_Van_der_Waal_Energy-OPLS-2005>
118.444091796875

> <r_mmod_Electrostatic_Energy-OPLS-2005>
-367.364318847656

> <r_mmod_Solvation_Energy-OPLS-2005>
-225.142013549805

> <b_mmod_Minimization_Converged-OPLS-2005>
0

> <r_mmod_RMS_Derivative-OPLS-2005>
1.75379300117493

$$$$
89
                    3D
 Structure written by MMmdl.
172180  0  0  1  0            999 V2000
  -30.7310  -14.5734   20.5480 C   0  0  0  0  0  0
  -30.4375  -12.3699   19.4530 C   0  0  0  0  0  0
  -29.5132  -12.5420   18.2286 C   0  0  0  0  0  0
  -28.0368  -12.3895   18.6314 C   0  0  0  0  0  0
  -27.6629  -13.2431   19.8714 C   0  0  2  0  0  0
  -28.7118  -13.0993   21.0009 C   0  0  0  0  0  0
  -25.2566  -13.8258   20.5681 C   0  0  0  0  0  0
  -24.1830  -13.0418   20.9140 C   0  0  0  0  0  0
  -24.6487  -11.6951   20.8732 C   0  0  0  0  0  0
  -23.9159  -10.4286   21.0401 C   0  0  0  0  0  0
  -24.3677   -9.4191   21.9178 C   0  0  0  0  0  0
  -23.6310   -8.2251   22.0782 C   0  0  0  0  0  0
  -22.4283   -8.0307   21.3582 C   0  0  0  0  0  0
  -21.9940   -9.0286   20.4693 C   0  0  0  0  0  0
  -22.7327  -10.2132   20.3060 C   0  0  0  0  0  0
  -21.6867   -6.0752   22.5288 C   0  0  0  0  0  0
  -21.4045   -6.5662   23.8230 C   0  0  0  0  0  0
  -21.3646   -5.6814   24.9179 C   0  0  0  0  0  0
  -21.6014   -4.3079   24.7235 C   0  0  0  0  0  0
  -21.8822   -3.8168   23.4365 C   0  0  0  0  0  0
  -21.9208   -4.6981   22.3413 C   0  0  0  0  0  0
  -22.7857  -13.5209   21.1768 C   0  0  0  0  0  0
  -22.1666   -4.2181   21.0987 F   0  0  0  0  0  0
  -21.5596   -3.4550   25.7730 F   0  0  0  0  0  0
  -30.0457  -13.3898   20.4501 N   0  0  0  0  0  0
  -26.3056  -12.9488   20.3360 N   0  0  0  0  0  0
  -25.9430  -11.6617   20.5766 N   0  0  0  0  0  0
  -22.0506  -12.8202   22.0383 N   0  0  0  0  0  0
  -25.4054  -15.1957   20.4119 N   0  0  0  0  0  0
  -31.8466  -14.7206   20.0488 O   0  0  0  0  0  0
  -21.6655   -6.8886   21.4237 O   0  0  0  0  0  0
  -22.3511  -14.5468   20.6611 O   0  0  0  0  0  0
  -24.6099  -31.8656   23.2076 C   0  0  0  0  0  0
  -25.8989  -32.4843   23.8354 C   0  0  1  0  0  0
  -27.2314  -27.4047   20.1377 C   0  0  0  0  0  0
  -25.5828  -33.8646   24.2265 N   0  0  0  0  0  0
  -23.4083  -30.4844   21.5482 C   0  0  2  0  0  0
  -24.8673  -28.9618   20.1243 C   0  0  0  0  0  0
  -22.7400  -29.4612   22.4946 C   0  0  0  0  0  0
  -18.0224  -28.1403   22.8473 C   0  0  0  0  0  0
  -24.1524  -36.7287   23.2614 C   0  0  0  0  0  0
  -25.9358  -30.8483   21.3615 C   0  0  0  0  0  0
  -26.0346  -29.4807   20.6977 C   0  0  0  0  0  0
  -27.2299  -28.7155   20.6820 C   0  0  0  0  0  0
  -26.0438  -26.9107   19.5572 C   0  0  0  0  0  0
  -24.8640  -27.6821   19.5517 C   0  0  0  0  0  0
  -23.6336  -29.8319   20.1605 C   0  0  0  0  0  0
  -25.4165  -36.3112   24.0316 C   0  0  1  0  0  0
  -20.5824  -28.3673   23.1338 C   0  0  2  0  0  0
  -20.6741  -26.9395   22.5440 C   0  0  0  0  0  0
  -19.5762  -26.6407   21.5205 C   0  0  0  0  0  0
  -18.1917  -26.7947   22.1598 C   0  0  0  0  0  0
  -19.1464  -28.8862   23.2905 C   0  0  0  0  0  0
  -18.9401  -30.1457   23.8947 C   0  0  0  0  0  0
  -17.6410  -30.6622   24.0557 C   0  0  0  0  0  0
  -25.9060  -34.9486   23.5099 C   0  0  0  0  0  0
  -16.5307  -29.9142   23.6296 C   0  0  0  0  0  0
  -16.7213  -28.6541   23.0350 C   0  0  0  0  0  0
  -26.4489  -31.6614   25.0638 C   0  0  0  0  0  0
  -25.3712  -31.3698   26.1315 C   0  0  0  0  0  0
  -27.0299  -30.3039   24.6027 C   0  0  0  0  0  0
  -27.6113  -32.4268   25.7387 C   0  0  0  0  0  0
  -27.5610  -37.1798   24.8450 C   0  0  0  0  0  0
  -21.4108  -29.3016   22.3706 N   0  0  0  0  0  0
  -26.4355  -37.3787   23.9367 N   0  0  0  0  0  0
  -24.6691  -31.0783   22.0983 N   0  0  0  0  0  0
  -23.4146  -28.8056   23.2936 O   0  0  0  0  0  0
  -28.3631  -26.6107   20.1632 O   0  0  0  0  0  0
  -26.5624  -34.8932   22.4662 O   0  0  0  0  0  0
  -23.5304  -32.1416   23.7446 O   0  0  0  0  0  0
  -28.1085  -22.0495   22.4680 C   0  0  0  0  0  0
  -28.4326  -19.8525   22.3619 C   0  0  0  0  0  0
  -27.9080  -20.8263   23.1587 C   0  0  0  0  0  0
  -28.8391  -21.8231   21.3358 C   0  0  0  0  0  0
  -29.1946  -25.5915   22.1469 C   0  0  0  0  0  0
  -28.2898  -21.0234   25.6005 C   0  0  0  0  0  0
  -26.9218  -19.1555   24.7350 C   0  0  0  0  0  0
  -26.0281  -21.5352   24.6800 C   0  0  0  0  0  0
  -29.4347  -22.8797   20.4253 C   0  0  0  0  0  0
  -28.5668  -24.1241   19.9790 C   0  0  0  0  0  0
  -29.5270  -18.0513   20.2447 C   0  0  0  0  0  0
  -29.8250  -19.6128   20.2878 C   0  0  0  0  0  0
  -30.4865  -17.0895   21.0422 C   0  0  0  0  0  0
  -28.2781  -25.3684   20.9192 C   0  0  1  0  0  0
  -27.2712  -20.6368   24.5224 C   0  0  0  0  0  0
  -29.0434  -20.4193   21.2557 N   0  0  0  0  0  0
  -30.0836  -15.6428   21.0819 N   0  0  0  0  0  0
  -31.4823  -12.4574   19.1409 H   0  0  0  0  0  0
  -30.3456  -11.3725   19.8868 H   0  0  0  0  0  0
  -29.7663  -11.8339   17.4380 H   0  0  0  0  0  0
  -29.6740  -13.5375   17.8105 H   0  0  0  0  0  0
  -27.8460  -11.3339   18.8334 H   0  0  0  0  0  0
  -27.4005  -12.6645   17.7919 H   0  0  0  0  0  0
  -27.6742  -14.2830   19.5395 H   0  0  0  0  0  0
  -28.6952  -12.0947   21.4216 H   0  0  0  0  0  0
  -28.4654  -13.7828   21.8152 H   0  0  0  0  0  0
  -25.2807   -9.5647   22.4755 H   0  0  0  0  0  0
  -24.0005   -7.4654   22.7525 H   0  0  0  0  0  0
  -21.0841   -8.8857   19.9022 H   0  0  0  0  0  0
  -22.3810  -10.9672   19.6183 H   0  0  0  0  0  0
  -21.2080   -7.6190   23.9737 H   0  0  0  0  0  0
  -21.1431   -6.0547   25.9075 H   0  0  0  0  0  0
  -22.0607   -2.7635   23.2866 H   0  0  0  0  0  0
  -22.4132  -11.9903   22.4821 H   0  0  0  0  0  0
  -21.1141  -13.1276   22.2571 H   0  0  0  0  0  0
  -24.6104  -15.8194   20.5004 H   0  0  0  0  0  0
  -26.2464  -15.6680   20.1040 H   0  0  0  0  0  0
  -26.6999  -32.5611   23.1085 H   0  0  0  0  0  0
  -24.9844  -33.9896   25.0299 H   0  0  0  0  0  0
  -22.6957  -31.2970   21.4008 H   0  0  0  0  0  0
  -23.3846  -35.9555   23.3308 H   0  0  0  0  0  0
  -24.3516  -36.8881   22.1994 H   0  0  0  0  0  0
  -23.7285  -37.6489   23.6639 H   0  0  0  0  0  0
  -26.0376  -31.6491   20.6272 H   0  0  0  0  0  0
  -26.8162  -30.8895   21.9896 H   0  0  0  0  0  0
  -28.1419  -29.1068   21.1113 H   0  0  0  0  0  0
  -26.0102  -25.9160   19.1301 H   0  0  0  0  0  0
  -23.9529  -27.2777   19.1365 H   0  0  0  0  0  0
  -23.7619  -30.6138   19.4097 H   0  0  0  0  0  0
  -22.7662  -29.2611   19.8330 H   0  0  0  0  0  0
  -25.1382  -36.1939   25.0825 H   0  0  0  0  0  0
  -20.9880  -28.3212   24.1479 H   0  0  0  0  0  0
  -20.5619  -26.2220   23.3585 H   0  0  0  0  0  0
  -21.6626  -26.7449   22.1241 H   0  0  0  0  0  0
  -19.6932  -25.6318   21.1239 H   0  0  0  0  0  0
  -19.6777  -27.3231   20.6760 H   0  0  0  0  0  0
  -17.4162  -26.6625   21.4026 H   0  0  0  0  0  0
  -18.0353  -26.0109   22.9023 H   0  0  0  0  0  0
  -19.7880  -30.7216   24.2409 H   0  0  0  0  0  0
  -17.4991  -31.6312   24.5128 H   0  0  0  0  0  0
  -15.5341  -30.3086   23.7660 H   0  0  0  0  0  0
  -15.8567  -28.0916   22.7123 H   0  0  0  0  0  0
  -24.5993  -30.6994   25.7516 H   0  0  0  0  0  0
  -24.8826  -32.2860   26.4625 H   0  0  0  0  0  0
  -25.8005  -30.8875   27.0103 H   0  0  0  0  0  0
  -26.2806  -29.6788   24.1170 H   0  0  0  0  0  0
  -27.4092  -29.7312   25.4493 H   0  0  0  0  0  0
  -27.8644  -30.4254   23.9128 H   0  0  0  0  0  0
  -27.2816  -33.3591   26.1968 H   0  0  0  0  0  0
  -28.3944  -32.6758   25.0213 H   0  0  0  0  0  0
  -28.0761  -31.8353   26.5280 H   0  0  0  0  0  0
  -28.2643  -38.0079   24.7506 H   0  0  0  0  0  0
  -28.1122  -36.2616   24.6357 H   0  0  0  0  0  0
  -27.2246  -37.1484   25.8824 H   0  0  0  0  0  0
  -20.9211  -29.8686   21.6909 H   0  0  0  0  0  0
  -26.0266  -38.2854   24.1433 H   0  0  0  0  0  0
  -27.7823  -23.0186   22.8127 H   0  0  0  0  0  0
  -28.4482  -18.7816   22.5166 H   0  0  0  0  0  0
  -30.2462  -25.5265   21.8773 H   0  0  0  0  0  0
  -29.0072  -24.9031   22.9763 H   0  0  0  0  0  0
  -29.0421  -26.5858   22.5766 H   0  0  0  0  0  0
  -29.2108  -20.4460   25.5093 H   0  0  0  0  0  0
  -27.8793  -20.8529   26.5966 H   0  0  0  0  0  0
  -28.5610  -22.0735   25.5369 H   0  0  0  0  0  0
  -27.8299  -18.5498   24.6961 H   0  0  0  0  0  0
  -26.2494  -18.7817   23.9674 H   0  0  0  0  0  0
  -26.4569  -18.9823   25.7033 H   0  0  0  0  0  0
  -26.3076  -22.5863   24.6074 H   0  0  0  0  0  0
  -25.5479  -21.3926   25.6512 H   0  0  0  0  0  0
  -25.2783  -21.3477   23.9117 H   0  0  0  0  0  0
  -29.7506  -22.3951   19.5051 H   0  0  0  0  0  0
  -30.3718  -23.2077   20.8806 H   0  0  0  0  0  0
  -27.6323  -23.7754   19.5334 H   0  0  0  0  0  0
  -29.1021  -24.5164   19.1111 H   0  0  0  0  0  0
  -29.5719  -17.7598   19.1959 H   0  0  0  0  0  0
  -28.4909  -17.8469   20.5031 H   0  0  0  0  0  0
  -29.6745  -20.0384   19.2906 H   0  0  0  0  0  0
  -30.8740  -19.7625   20.5382 H   0  0  0  0  0  0
  -30.5444  -17.4421   22.0724 H   0  0  0  0  0  0
  -31.4904  -17.2015   20.6287 H   0  0  0  0  0  0
  -27.2731  -25.2512   21.3367 H   0  0  0  0  0  0
  -29.2401  -15.4241   21.5893 H   0  0  0  0  0  0
  1 25  1  0  0  0
  1 30  2  0  0  0
  1 87  1  0  0  0
  2  3  1  0  0  0
  2 25  1  0  0  0
  2 88  1  0  0  0
  2 89  1  0  0  0
  3  4  1  0  0  0
  3 90  1  0  0  0
  3 91  1  0  0  0
  4  5  1  0  0  0
  4 92  1  0  0  0
  4 93  1  0  0  0
  5  6  1  0  0  0
  5 26  1  0  0  0
  5 94  1  0  0  0
  6 25  1  0  0  0
  6 95  1  0  0  0
  6 96  1  0  0  0
  7  8  2  0  0  0
  7 26  1  0  0  0
  7 29  1  0  0  0
  8  9  1  0  0  0
  8 22  1  0  0  0
  9 10  1  0  0  0
  9 27  2  0  0  0
 10 11  2  0  0  0
 10 15  1  0  0  0
 11 12  1  0  0  0
 11 97  1  0  0  0
 12 13  2  0  0  0
 12 98  1  0  0  0
 13 14  1  0  0  0
 13 31  1  0  0  0
 14 15  2  0  0  0
 14 99  1  0  0  0
 15100  1  0  0  0
 16 17  2  0  0  0
 16 21  1  0  0  0
 16 31  1  0  0  0
 17 18  1  0  0  0
 17101  1  0  0  0
 18 19  2  0  0  0
 18102  1  0  0  0
 19 20  1  0  0  0
 19 24  1  0  0  0
 20 21  2  0  0  0
 20103  1  0  0  0
 21 23  1  0  0  0
 22 28  1  0  0  0
 22 32  2  0  0  0
 26 27  1  0  0  0
 28104  1  0  0  0
 28105  1  0  0  0
 29106  1  0  0  0
 29107  1  0  0  0
 33 34  1  0  0  0
 33 66  1  0  0  0
 33 70  2  0  0  0
 34 36  1  0  0  0
 34 59  1  0  0  0
 34108  1  0  0  0
 35 44  2  0  0  0
 35 45  1  0  0  0
 35 68  1  0  0  0
 36 56  1  0  0  0
 36109  1  0  0  0
 37 39  1  0  0  0
 37 47  1  0  0  0
 37 66  1  0  0  0
 37110  1  0  0  0
 38 43  2  0  0  0
 38 46  1  0  0  0
 38 47  1  0  0  0
 39 64  1  0  0  0
 39 67  2  0  0  0
 40 52  1  0  0  0
 40 53  2  0  0  0
 40 58  1  0  0  0
 41111  1  0  0  0
 41112  1  0  0  0
 41113  1  0  0  0
 41 48  1  0  0  0
 42 43  1  0  0  0
 42 66  1  0  0  0
 42114  1  0  0  0
 42115  1  0  0  0
 43 44  1  0  0  0
 44116  1  0  0  0
 45 46  2  0  0  0
 45117  1  0  0  0
 46118  1  0  0  0
 47119  1  0  0  0
 47120  1  0  0  0
 48 56  1  0  0  0
 48 65  1  0  0  0
 48121  1  0  0  0
 49 50  1  0  0  0
 49 53  1  0  0  0
 49 64  1  0  0  0
 49122  1  0  0  0
 50 51  1  0  0  0
 50123  1  0  0  0
 50124  1  0  0  0
 51 52  1  0  0  0
 51125  1  0  0  0
 51126  1  0  0  0
 52127  1  0  0  0
 52128  1  0  0  0
 53 54  1  0  0  0
 54 55  2  0  0  0
 54129  1  0  0  0
 55 57  1  0  0  0
 55130  1  0  0  0
 56 69  2  0  0  0
 57 58  2  0  0  0
 57131  1  0  0  0
 58132  1  0  0  0
 59 60  1  0  0  0
 59 61  1  0  0  0
 59 62  1  0  0  0
 60133  1  0  0  0
 60134  1  0  0  0
 60135  1  0  0  0
 61136  1  0  0  0
 61137  1  0  0  0
 61138  1  0  0  0
 62139  1  0  0  0
 62140  1  0  0  0
 62141  1  0  0  0
 63 65  1  0  0  0
 63142  1  0  0  0
 63143  1  0  0  0
 63144  1  0  0  0
 64145  1  0  0  0
 65146  1  0  0  0
 68 84  1  0  0  0
 71 73  1  0  0  0
 71 74  2  0  0  0
 71147  1  0  0  0
 72 73  2  0  0  0
 72 86  1  0  0  0
 72148  1  0  0  0
 73 85  1  0  0  0
 74 79  1  0  0  0
 74 86  1  0  0  0
 75149  1  0  0  0
 75150  1  0  0  0
 75151  1  0  0  0
 75 84  1  0  0  0
 76152  1  0  0  0
 76153  1  0  0  0
 76154  1  0  0  0
 76 85  1  0  0  0
 77 85  1  0  0  0
 77155  1  0  0  0
 77156  1  0  0  0
 77157  1  0  0  0
 78 85  1  0  0  0
 78158  1  0  0  0
 78159  1  0  0  0
 78160  1  0  0  0
 79 80  1  0  0  0
 79161  1  0  0  0
 79162  1  0  0  0
 80 84  1  0  0  0
 80163  1  0  0  0
 80164  1  0  0  0
 81 82  1  0  0  0
 81 83  1  0  0  0
 81165  1  0  0  0
 81166  1  0  0  0
 82 86  1  0  0  0
 82167  1  0  0  0
 82168  1  0  0  0
 83 87  1  0  0  0
 83169  1  0  0  0
 83170  1  0  0  0
 84171  1  0  0  0
 87172  1  0  0  0
M  ISO  4   1 100  68 101  84 101  87 100
M  END
> <chiral flag>
0

> <version>
0

> <s_m_source_file>
/data/baiqing/PycharmProjects/Reinvent-master-3.2/result/LINK_invent/BTK/process_docking_weight1_custom_sum_contain_oxygen_bond_distance_aromatic_linkinvent_7_9_3/rearranged_h_0085.sdf

> <i_m_source_file_index>
87

> <r_mmod_Potential_Energy-OPLS-2005>
-16.1121311187744

> <r_mmod_Stretch_Energy-OPLS-2005>
61.2622413635254

> <r_mmod_Bend_Energy-OPLS-2005>
145.077926635742

> <r_mmod_Torsional_Energy-OPLS-2005>
261.637664794922

> <r_mmod_Improper_Torsional_Energy-OPLS-2005>
4.18434190750122

> <r_mmod_Van_der_Waal_Energy-OPLS-2005>
121.152397155762

> <r_mmod_Electrostatic_Energy-OPLS-2005>
-438.154876708984

> <r_mmod_Solvation_Energy-OPLS-2005>
-198.540435791016

> <b_mmod_Minimization_Converged-OPLS-2005>
0

> <r_mmod_RMS_Derivative-OPLS-2005>
10.3872299194336

$$$$
90
                    3D
 Structure written by MMmdl.
178186  0  0  1  0            999 V2000
  -30.6816  -14.6217   20.4653 C   0  0  0  0  0  0
  -30.4263  -12.3794   19.4479 C   0  0  0  0  0  0
  -29.5058  -12.5089   18.2179 C   0  0  0  0  0  0
  -28.0212  -12.4000   18.6178 C   0  0  0  0  0  0
  -27.6562  -13.2364   19.8766 C   0  0  2  0  0  0
  -28.7148  -13.0733   20.9926 C   0  0  0  0  0  0
  -25.2530  -13.8254   20.5627 C   0  0  0  0  0  0
  -24.1823  -13.0449   20.9196 C   0  0  0  0  0  0
  -24.6427  -11.6937   20.8749 C   0  0  0  0  0  0
  -23.9081  -10.4315   21.0387 C   0  0  0  0  0  0
  -24.3631   -9.4219   21.9150 C   0  0  0  0  0  0
  -23.6297   -8.2275   22.0733 C   0  0  0  0  0  0
  -22.4261   -8.0299   21.3547 C   0  0  0  0  0  0
  -21.9906   -9.0282   20.4646 C   0  0  0  0  0  0
  -22.7248  -10.2157   20.3038 C   0  0  0  0  0  0
  -21.6899   -6.0711   22.5274 C   0  0  0  0  0  0
  -21.4014   -6.5602   23.8171 C   0  0  0  0  0  0
  -21.3693   -5.6740   24.9155 C   0  0  0  0  0  0
  -21.6081   -4.3020   24.7197 C   0  0  0  0  0  0
  -21.8845   -3.8102   23.4314 C   0  0  0  0  0  0
  -21.9207   -4.6945   22.3360 C   0  0  0  0  0  0
  -22.7843  -13.5182   21.1872 C   0  0  0  0  0  0
  -22.1658   -4.2125   21.0945 F   0  0  0  0  0  0
  -21.5663   -3.4483   25.7707 F   0  0  0  0  0  0
  -30.0180  -13.4228   20.4083 N   0  0  0  0  0  0
  -26.2996  -12.9443   20.3384 N   0  0  0  0  0  0
  -25.9387  -11.6593   20.5816 N   0  0  0  0  0  0
  -22.0509  -12.8204   22.0477 N   0  0  0  0  0  0
  -25.4168  -15.1974   20.3980 N   0  0  0  0  0  0
  -31.8432  -14.7246   20.0633 O   0  0  0  0  0  0
  -21.6688   -6.8881   21.4204 O   0  0  0  0  0  0
  -22.3500  -14.5447   20.6698 O   0  0  0  0  0  0
  -24.6106  -31.8708   23.2113 C   0  0  0  0  0  0
  -25.9024  -32.4836   23.8407 C   0  0  1  0  0  0
  -27.2270  -27.4072   20.1601 C   0  0  0  0  0  0
  -25.5923  -33.8643   24.2364 N   0  0  0  0  0  0
  -23.4006  -30.4935   21.5452 C   0  0  2  0  0  0
  -24.8563  -28.9594   20.1162 C   0  0  0  0  0  0
  -22.7400  -29.4641   22.4925 C   0  0  0  0  0  0
  -18.0281  -28.1357   22.8500 C   0  0  0  0  0  0
  -24.1489  -36.7312   23.2617 C   0  0  0  0  0  0
  -25.9267  -30.8322   21.3670 C   0  0  0  0  0  0
  -26.0080  -29.4569   20.7367 C   0  0  0  0  0  0
  -27.1955  -28.6852   20.7670 C   0  0  0  0  0  0
  -26.0775  -26.9624   19.4737 C   0  0  0  0  0  0
  -24.8876  -27.7095   19.4774 C   0  0  0  0  0  0
  -23.6195  -29.8285   20.1580 C   0  0  0  0  0  0
  -25.4117  -36.3134   24.0335 C   0  0  1  0  0  0
  -20.5856  -28.3643   23.1286 C   0  0  2  0  0  0
  -20.6767  -26.9378   22.5398 C   0  0  0  0  0  0
  -19.5751  -26.6371   21.5195 C   0  0  0  0  0  0
  -18.1933  -26.7905   22.1617 C   0  0  0  0  0  0
  -19.1527  -28.8811   23.2906 C   0  0  0  0  0  0
  -18.9477  -30.1420   23.8916 C   0  0  0  0  0  0
  -17.6478  -30.6576   24.0552 C   0  0  0  0  0  0
  -25.9033  -34.9484   23.5132 C   0  0  0  0  0  0
  -16.5366  -29.9080   23.6319 C   0  0  0  0  0  0
  -16.7264  -28.6484   23.0360 C   0  0  0  0  0  0
  -26.4514  -31.6574   25.0679 C   0  0  0  0  0  0
  -25.3810  -31.3611   26.1417 C   0  0  0  0  0  0
  -27.0327  -30.3049   24.5966 C   0  0  0  0  0  0
  -27.6114  -32.4238   25.7458 C   0  0  0  0  0  0
  -27.5599  -37.1814   24.8482 C   0  0  0  0  0  0
  -21.4117  -29.3039   22.3683 N   0  0  0  0  0  0
  -26.4307  -37.3831   23.9407 N   0  0  0  0  0  0
  -24.6627  -31.0810   22.1002 N   0  0  0  0  0  0
  -23.4177  -28.8208   23.2976 O   0  0  0  0  0  0
  -28.3660  -26.6256   20.1668 O   0  0  0  0  0  0
  -26.5581  -34.8947   22.4692 O   0  0  0  0  0  0
  -23.5279  -32.1450   23.7491 O   0  0  0  0  0  0
  -27.5292  -20.8997   19.3459 C   0  0  0  0  0  0
  -27.9352  -20.2052   18.2623 C   0  0  0  0  0  0
  -28.8831  -19.2439   18.7197 C   0  0  0  0  0  0
  -28.9559  -19.3173   20.1051 C   0  0  0  0  0  0
  -27.5259  -20.5478   16.8483 C   0  0  0  0  0  0
  -31.1625  -20.6268   17.7079 C   0  0  0  0  0  0
  -32.1055  -18.4461   16.8131 C   0  0  0  0  0  0
  -28.3501  -24.0453   19.2292 C   0  0  0  0  0  0
  -26.5611  -23.9540   21.1090 C   0  0  0  0  0  0
  -29.6807  -18.4289   17.7286 C   0  0  0  0  0  0
  -29.6398  -18.4093   21.1659 C   0  0  0  0  0  0
  -28.8700  -22.9445   21.4862 C   0  0  0  0  0  0
  -28.3488  -21.4278   21.6283 C   0  0  0  0  0  0
  -30.5567  -17.1459   20.8190 C   0  0  0  0  0  0
  -28.4806  -25.5776   21.1783 C   0  0  0  0  0  0
  -30.8330  -19.2564   17.0627 C   0  0  0  0  0  0
  -28.0586  -24.1077   20.7453 C   0  0  0  0  0  0
  -28.3270  -20.5630   20.4163 N   0  0  0  0  0  0
  -29.9836  -15.7523   20.7981 N   0  0  0  0  0  0
  -31.4683  -12.4677   19.1504 H   0  0  0  0  0  0
  -30.3509  -11.3876   19.8940 H   0  0  0  0  0  0
  -29.7428  -11.7415   17.4833 H   0  0  0  0  0  0
  -29.6981  -13.4679   17.7307 H   0  0  0  0  0  0
  -27.8090  -11.3467   18.7979 H   0  0  0  0  0  0
  -27.3949  -12.7054   17.7798 H   0  0  0  0  0  0
  -27.6791  -14.2824   19.5813 H   0  0  0  0  0  0
  -28.7403  -12.0403   21.3430 H   0  0  0  0  0  0
  -28.4891  -13.6812   21.8698 H   0  0  0  0  0  0
  -25.2811   -9.5712   22.4685 H   0  0  0  0  0  0
  -24.0079   -7.4651   22.7428 H   0  0  0  0  0  0
  -21.0844   -8.8766   19.8917 H   0  0  0  0  0  0
  -22.3704  -10.9683   19.6114 H   0  0  0  0  0  0
  -21.1966   -7.6098   23.9647 H   0  0  0  0  0  0
  -21.1505   -6.0485   25.9063 H   0  0  0  0  0  0
  -22.0606   -2.7576   23.2797 H   0  0  0  0  0  0
  -22.4166  -11.9912   22.4924 H   0  0  0  0  0  0
  -21.1079  -13.1193   22.2599 H   0  0  0  0  0  0
  -24.6341  -15.8400   20.4894 H   0  0  0  0  0  0
  -26.2524  -15.6486   20.0451 H   0  0  0  0  0  0
  -26.7056  -32.5644   23.1129 H   0  0  0  0  0  0
  -25.0203  -33.9832   25.0613 H   0  0  0  0  0  0
  -22.6863  -31.3098   21.4058 H   0  0  0  0  0  0
  -23.3771  -35.9629   23.3303 H   0  0  0  0  0  0
  -24.3587  -36.8920   22.2034 H   0  0  0  0  0  0
  -23.7223  -37.6516   23.6616 H   0  0  0  0  0  0
  -26.0197  -31.5870   20.5821 H   0  0  0  0  0  0
  -26.8151  -30.9109   21.9746 H   0  0  0  0  0  0
  -28.0749  -29.0599   21.2711 H   0  0  0  0  0  0
  -26.0916  -26.0286   18.9379 H   0  0  0  0  0  0
  -24.0135  -27.3274   18.9639 H   0  0  0  0  0  0
  -23.7369  -30.6054   19.4032 H   0  0  0  0  0  0
  -22.7445  -29.2521   19.8517 H   0  0  0  0  0  0
  -25.1285  -36.1995   25.0826 H   0  0  0  0  0  0
  -20.9988  -28.3229   24.1384 H   0  0  0  0  0  0
  -20.5655  -26.2267   23.3604 H   0  0  0  0  0  0
  -21.6648  -26.7431   22.1211 H   0  0  0  0  0  0
  -19.6929  -25.6291   21.1218 H   0  0  0  0  0  0
  -19.6672  -27.3181   20.6728 H   0  0  0  0  0  0
  -17.4202  -26.6642   21.4011 H   0  0  0  0  0  0
  -18.0355  -26.0019   22.8981 H   0  0  0  0  0  0
  -19.7959  -30.7227   24.2266 H   0  0  0  0  0  0
  -17.5048  -31.6252   24.5156 H   0  0  0  0  0  0
  -15.5376  -30.2993   23.7617 H   0  0  0  0  0  0
  -15.8675  -28.0805   22.7064 H   0  0  0  0  0  0
  -24.6063  -30.6865   25.7734 H   0  0  0  0  0  0
  -24.8889  -32.2709   26.4840 H   0  0  0  0  0  0
  -25.8190  -30.8827   27.0179 H   0  0  0  0  0  0
  -26.2814  -29.6800   24.1091 H   0  0  0  0  0  0
  -27.4240  -29.7263   25.4338 H   0  0  0  0  0  0
  -27.8604  -30.4400   23.8998 H   0  0  0  0  0  0
  -27.2811  -33.3561   26.2025 H   0  0  0  0  0  0
  -28.3958  -32.6711   25.0299 H   0  0  0  0  0  0
  -28.0718  -31.8330   26.5373 H   0  0  0  0  0  0
  -28.2625  -38.0102   24.7544 H   0  0  0  0  0  0
  -28.1078  -36.2640   24.6276 H   0  0  0  0  0  0
  -27.2316  -37.1445   25.8885 H   0  0  0  0  0  0
  -20.9217  -29.8789   21.6958 H   0  0  0  0  0  0
  -26.0199  -38.2910   24.1424 H   0  0  0  0  0  0
  -26.8538  -21.7462   19.3697 H   0  0  0  0  0  0
  -26.5352  -20.1572   16.6225 H   0  0  0  0  0  0
  -28.2277  -20.1904   16.0917 H   0  0  0  0  0  0
  -27.5008  -21.6336   16.7527 H   0  0  0  0  0  0
  -32.0022  -21.1253   17.2166 H   0  0  0  0  0  0
  -31.3961  -20.5432   18.7737 H   0  0  0  0  0  0
  -30.3164  -21.3072   17.6185 H   0  0  0  0  0  0
  -32.7954  -19.0340   16.2046 H   0  0  0  0  0  0
  -31.8895  -17.5366   16.2550 H   0  0  0  0  0  0
  -32.6174  -18.1705   17.7383 H   0  0  0  0  0  0
  -28.4935  -23.0473   18.8428 H   0  0  0  0  0  0
  -29.2846  -24.5547   18.9925 H   0  0  0  0  0  0
  -27.5789  -24.5205   18.6267 H   0  0  0  0  0  0
  -26.1483  -22.9830   20.8580 H   0  0  0  0  0  0
  -25.9244  -24.6896   20.6324 H   0  0  0  0  0  0
  -26.4191  -24.0816   22.1849 H   0  0  0  0  0  0
  -28.9923  -18.1523   16.9257 H   0  0  0  0  0  0
  -29.9947  -17.4774   18.1488 H   0  0  0  0  0  0
  -28.8934  -18.0965   21.8986 H   0  0  0  0  0  0
  -30.2860  -19.0770   21.7338 H   0  0  0  0  0  0
  -29.8938  -22.9257   21.1079 H   0  0  0  0  0  0
  -28.9677  -23.2949   22.5130 H   0  0  0  0  0  0
  -27.3376  -21.4346   22.0312 H   0  0  0  0  0  0
  -28.9502  -20.9314   22.3895 H   0  0  0  0  0  0
  -31.2609  -17.0895   21.6529 H   0  0  0  0  0  0
  -31.2075  -17.3431   19.9667 H   0  0  0  0  0  0
  -29.5317  -25.5692   21.4651 H   0  0  0  0  0  0
  -27.9611  -25.8928   22.0903 H   0  0  0  0  0  0
  -30.4674  -19.5168   16.0680 H   0  0  0  0  0  0
  -29.0365  -15.6446   21.1225 H   0  0  0  0  0  0
  1 25  1  0  0  0
  1 30  2  0  0  0
  1 89  1  0  0  0
  2  3  1  0  0  0
  2 25  1  0  0  0
  2 90  1  0  0  0
  2 91  1  0  0  0
  3  4  1  0  0  0
  3 92  1  0  0  0
  3 93  1  0  0  0
  4  5  1  0  0  0
  4 94  1  0  0  0
  4 95  1  0  0  0
  5  6  1  0  0  0
  5 26  1  0  0  0
  5 96  1  0  0  0
  6 25  1  0  0  0
  6 97  1  0  0  0
  6 98  1  0  0  0
  7  8  2  0  0  0
  7 26  1  0  0  0
  7 29  1  0  0  0
  8  9  1  0  0  0
  8 22  1  0  0  0
  9 10  1  0  0  0
  9 27  2  0  0  0
 10 11  2  0  0  0
 10 15  1  0  0  0
 11 12  1  0  0  0
 11 99  1  0  0  0
 12 13  2  0  0  0
 12100  1  0  0  0
 13 14  1  0  0  0
 13 31  1  0  0  0
 14 15  2  0  0  0
 14101  1  0  0  0
 15102  1  0  0  0
 16 17  2  0  0  0
 16 21  1  0  0  0
 16 31  1  0  0  0
 17 18  1  0  0  0
 17103  1  0  0  0
 18 19  2  0  0  0
 18104  1  0  0  0
 19 20  1  0  0  0
 19 24  1  0  0  0
 20 21  2  0  0  0
 20105  1  0  0  0
 21 23  1  0  0  0
 22 28  1  0  0  0
 22 32  2  0  0  0
 26 27  1  0  0  0
 28106  1  0  0  0
 28107  1  0  0  0
 29108  1  0  0  0
 29109  1  0  0  0
 33 34  1  0  0  0
 33 66  1  0  0  0
 33 70  2  0  0  0
 34 36  1  0  0  0
 34 59  1  0  0  0
 34110  1  0  0  0
 35 44  2  0  0  0
 35 45  1  0  0  0
 35 68  1  0  0  0
 36 56  1  0  0  0
 36111  1  0  0  0
 37 39  1  0  0  0
 37 47  1  0  0  0
 37 66  1  0  0  0
 37112  1  0  0  0
 38 43  2  0  0  0
 38 46  1  0  0  0
 38 47  1  0  0  0
 39 64  1  0  0  0
 39 67  2  0  0  0
 40 52  1  0  0  0
 40 53  2  0  0  0
 40 58  1  0  0  0
 41113  1  0  0  0
 41114  1  0  0  0
 41115  1  0  0  0
 41 48  1  0  0  0
 42 43  1  0  0  0
 42 66  1  0  0  0
 42116  1  0  0  0
 42117  1  0  0  0
 43 44  1  0  0  0
 44118  1  0  0  0
 45 46  2  0  0  0
 45119  1  0  0  0
 46120  1  0  0  0
 47121  1  0  0  0
 47122  1  0  0  0
 48 56  1  0  0  0
 48 65  1  0  0  0
 48123  1  0  0  0
 49 50  1  0  0  0
 49 53  1  0  0  0
 49 64  1  0  0  0
 49124  1  0  0  0
 50 51  1  0  0  0
 50125  1  0  0  0
 50126  1  0  0  0
 51 52  1  0  0  0
 51127  1  0  0  0
 51128  1  0  0  0
 52129  1  0  0  0
 52130  1  0  0  0
 53 54  1  0  0  0
 54 55  2  0  0  0
 54131  1  0  0  0
 55 57  1  0  0  0
 55132  1  0  0  0
 56 69  2  0  0  0
 57 58  2  0  0  0
 57133  1  0  0  0
 58134  1  0  0  0
 59 60  1  0  0  0
 59 61  1  0  0  0
 59 62  1  0  0  0
 60135  1  0  0  0
 60136  1  0  0  0
 60137  1  0  0  0
 61138  1  0  0  0
 61139  1  0  0  0
 61140  1  0  0  0
 62141  1  0  0  0
 62142  1  0  0  0
 62143  1  0  0  0
 63 65  1  0  0  0
 63144  1  0  0  0
 63145  1  0  0  0
 63146  1  0  0  0
 64147  1  0  0  0
 65148  1  0  0  0
 68 85  1  0  0  0
 71 72  2  0  0  0
 71 88  1  0  0  0
 71149  1  0  0  0
 72 73  1  0  0  0
 72 75  1  0  0  0
 73 74  2  0  0  0
 73 80  1  0  0  0
 74 81  1  0  0  0
 74 88  1  0  0  0
 75150  1  0  0  0
 75151  1  0  0  0
 75152  1  0  0  0
 76153  1  0  0  0
 76154  1  0  0  0
 76155  1  0  0  0
 76 86  1  0  0  0
 77 86  1  0  0  0
 77156  1  0  0  0
 77157  1  0  0  0
 77158  1  0  0  0
 78159  1  0  0  0
 78160  1  0  0  0
 78161  1  0  0  0
 78 87  1  0  0  0
 79 87  1  0  0  0
 79162  1  0  0  0
 79163  1  0  0  0
 79164  1  0  0  0
 80 86  1  0  0  0
 80165  1  0  0  0
 80166  1  0  0  0
 81 84  1  0  0  0
 81167  1  0  0  0
 81168  1  0  0  0
 82 83  1  0  0  0
 82 87  1  0  0  0
 82169  1  0  0  0
 82170  1  0  0  0
 83 88  1  0  0  0
 83171  1  0  0  0
 83172  1  0  0  0
 84 89  1  0  0  0
 84173  1  0  0  0
 84174  1  0  0  0
 85 87  1  0  0  0
 85175  1  0  0  0
 85176  1  0  0  0
 86177  1  0  0  0
 89178  1  0  0  0
M  ISO  4   1 100  68 101  85 101  89 100
M  END
> <chiral flag>
0

> <version>
0

> <s_m_source_file>
/data/baiqing/PycharmProjects/Reinvent-master-3.2/result/LINK_invent/BTK/process_docking_weight1_custom_sum_contain_oxygen_bond_distance_aromatic_linkinvent_7_9_3/rearranged_h_0085.sdf

> <i_m_source_file_index>
88

> <r_mmod_Potential_Energy-OPLS-2005>
138.600631713867

> <r_mmod_Stretch_Energy-OPLS-2005>
83.5337905883789

> <r_mmod_Bend_Energy-OPLS-2005>
194.172744750977

> <r_mmod_Torsional_Energy-OPLS-2005>
307.848876953125

> <r_mmod_Improper_Torsional_Energy-OPLS-2005>
6.03211450576782

> <r_mmod_Van_der_Waal_Energy-OPLS-2005>
126.292388916016

> <r_mmod_Electrostatic_Energy-OPLS-2005>
-418.073852539062

> <r_mmod_Solvation_Energy-OPLS-2005>
-194.155654907227

> <b_mmod_Minimization_Converged-OPLS-2005>
0

> <r_mmod_RMS_Derivative-OPLS-2005>
8.43072700500488

$$$$
91
                    3D
 Structure written by MMmdl.
177185  0  0  1  0            999 V2000
  -30.7243  -14.5034   20.4105 C   0  0  0  0  0  0
  -30.4095  -12.2831   19.4251 C   0  0  0  0  0  0
  -29.4756  -12.4002   18.2041 C   0  0  0  0  0  0
  -27.9989  -12.3065   18.6330 C   0  0  0  0  0  0
  -27.6464  -13.1896   19.8629 C   0  0  2  0  0  0
  -28.7105  -13.0862   20.9785 C   0  0  0  0  0  0
  -25.2597  -13.8108   20.5728 C   0  0  0  0  0  0
  -24.1830  -13.0402   20.9194 C   0  0  0  0  0  0
  -24.6362  -11.6869   20.8790 C   0  0  0  0  0  0
  -23.9009  -10.4263   21.0404 C   0  0  0  0  0  0
  -24.3568   -9.4175   21.9159 C   0  0  0  0  0  0
  -23.6241   -8.2220   22.0748 C   0  0  0  0  0  0
  -22.4217   -8.0269   21.3563 C   0  0  0  0  0  0
  -21.9843   -9.0218   20.4638 C   0  0  0  0  0  0
  -22.7180  -10.2098   20.3054 C   0  0  0  0  0  0
  -21.6844   -6.0716   22.5280 C   0  0  0  0  0  0
  -21.4000   -6.5635   23.8207 C   0  0  0  0  0  0
  -21.3627   -5.6806   24.9182 C   0  0  0  0  0  0
  -21.6047   -4.3071   24.7250 C   0  0  0  0  0  0
  -21.8820   -3.8146   23.4380 C   0  0  0  0  0  0
  -21.9188   -4.6941   22.3415 C   0  0  0  0  0  0
  -22.7861  -13.5210   21.1829 C   0  0  0  0  0  0
  -22.1656   -4.2117   21.0988 F   0  0  0  0  0  0
  -21.5613   -3.4551   25.7752 F   0  0  0  0  0  0
  -30.0202  -13.3405   20.3666 N   0  0  0  0  0  0
  -26.2985  -12.9220   20.3446 N   0  0  0  0  0  0
  -25.9296  -11.6414   20.5898 N   0  0  0  0  0  0
  -22.0534  -12.8198   22.0400 N   0  0  0  0  0  0
  -25.4363  -15.1820   20.4128 N   0  0  0  0  0  0
  -31.9411  -14.5468   20.2281 O   0  0  0  0  0  0
  -21.6635   -6.8846   21.4234 O   0  0  0  0  0  0
  -22.3519  -14.5494   20.6638 O   0  0  0  0  0  0
  -24.6130  -31.8651   23.2104 C   0  0  0  0  0  0
  -25.9009  -32.4816   23.8378 C   0  0  1  0  0  0
  -27.2328  -27.4434   20.1044 C   0  0  0  0  0  0
  -25.5847  -33.8615   24.2298 N   0  0  0  0  0  0
  -23.4007  -30.4904   21.5465 C   0  0  2  0  0  0
  -24.8502  -28.9527   20.1160 C   0  0  0  0  0  0
  -22.7377  -29.4670   22.4965 C   0  0  0  0  0  0
  -18.0256  -28.1393   22.8465 C   0  0  0  0  0  0
  -24.1480  -36.7339   23.2645 C   0  0  0  0  0  0
  -25.9275  -30.8333   21.3645 C   0  0  0  0  0  0
  -26.0039  -29.4640   20.7231 C   0  0  0  0  0  0
  -27.1993  -28.7131   20.7238 C   0  0  0  0  0  0
  -26.0744  -26.9563   19.4672 C   0  0  0  0  0  0
  -24.8785  -27.6964   19.4832 C   0  0  0  0  0  0
  -23.6098  -29.8138   20.1640 C   0  0  0  0  0  0
  -25.4093  -36.3114   24.0336 C   0  0  1  0  0  0
  -20.5844  -28.3674   23.1288 C   0  0  2  0  0  0
  -20.6749  -26.9410   22.5401 C   0  0  0  0  0  0
  -19.5741  -26.6386   21.5187 C   0  0  0  0  0  0
  -18.1912  -26.7931   22.1595 C   0  0  0  0  0  0
  -19.1504  -28.8839   23.2888 C   0  0  0  0  0  0
  -18.9453  -30.1448   23.8910 C   0  0  0  0  0  0
  -17.6464  -30.6594   24.0555 C   0  0  0  0  0  0
  -25.9018  -34.9482   23.5113 C   0  0  0  0  0  0
  -16.5346  -29.9094   23.6343 C   0  0  0  0  0  0
  -16.7257  -28.6512   23.0349 C   0  0  0  0  0  0
  -26.4438  -31.6610   25.0720 C   0  0  0  0  0  0
  -25.3722  -31.3708   26.1487 C   0  0  0  0  0  0
  -27.0280  -30.3056   24.6108 C   0  0  0  0  0  0
  -27.5999  -32.4353   25.7487 C   0  0  0  0  0  0
  -27.5571  -37.1819   24.8455 C   0  0  0  0  0  0
  -21.4116  -29.3035   22.3690 N   0  0  0  0  0  0
  -26.4286  -37.3799   23.9395 N   0  0  0  0  0  0
  -24.6649  -31.0779   22.0980 N   0  0  0  0  0  0
  -23.4156  -28.8194   23.2992 O   0  0  0  0  0  0
  -28.3769  -26.6824   20.0902 O   0  0  0  0  0  0
  -26.5608  -34.8935   22.4705 O   0  0  0  0  0  0
  -23.5327  -32.1363   23.7539 O   0  0  0  0  0  0
  -29.8752  -22.9004   23.2708 C   0  0  0  0  0  0
  -30.5438  -20.5617   23.2737 C   0  0  0  0  0  0
  -30.8116  -21.9047   23.5964 C   0  0  0  0  0  0
  -28.6634  -22.5699   22.6365 C   0  0  0  0  0  0
  -29.3341  -20.1884   22.6442 C   0  0  0  0  0  0
  -28.3960  -21.2100   22.2919 C   0  0  0  0  0  0
  -32.0911  -22.2784   24.3146 C   0  0  0  0  0  0
  -27.1079  -20.8413   21.5648 C   0  0  0  0  0  0
  -28.6494  -18.2360   24.9098 C   0  0  0  0  0  0
  -30.3479  -19.2394   20.1740 C   0  0  0  0  0  0
  -29.6573  -15.9895   18.8873 C   0  0  0  0  0  0
  -27.6476  -23.6990   22.4463 C   0  0  0  0  0  0
  -29.3670  -17.7924   23.6260 C   0  0  0  0  0  0
  -27.7585  -24.5029   21.1265 C   0  0  0  0  0  0
  -30.5311  -16.8388   21.0212 C   0  0  0  0  0  0
  -28.5462  -25.8366   21.2387 C   0  0  0  0  0  0
  -29.0771  -18.6800   22.3831 C   0  0  2  0  0  0
  -29.6344  -18.1368   21.0046 C   0  0  1  0  0  0
  -30.0092  -15.6563   20.2863 N   0  0  0  0  0  0
  -31.4522  -12.3577   19.1117 H   0  0  0  0  0  0
  -30.3120  -11.3045   19.8968 H   0  0  0  0  0  0
  -29.7013  -11.6106   17.4859 H   0  0  0  0  0  0
  -29.6470  -13.3314   17.6753 H   0  0  0  0  0  0
  -27.7995  -11.2586   18.8629 H   0  0  0  0  0  0
  -27.3461  -12.5546   17.7948 H   0  0  0  0  0  0
  -27.6397  -14.2138   19.5139 H   0  0  0  0  0  0
  -28.7067  -12.0980   21.4381 H   0  0  0  0  0  0
  -28.5037  -13.8022   21.7758 H   0  0  0  0  0  0
  -25.2719   -9.5631   22.4730 H   0  0  0  0  0  0
  -23.9951   -7.4590   22.7449 H   0  0  0  0  0  0
  -21.0788   -8.8717   19.8907 H   0  0  0  0  0  0
  -22.3623  -10.9637   19.6171 H   0  0  0  0  0  0
  -21.2015   -7.6147   23.9676 H   0  0  0  0  0  0
  -21.1425   -6.0572   25.9072 H   0  0  0  0  0  0
  -22.0626   -2.7611   23.2916 H   0  0  0  0  0  0
  -22.4193  -11.9883   22.4803 H   0  0  0  0  0  0
  -21.1124  -13.1162   22.2551 H   0  0  0  0  0  0
  -24.6787  -15.8478   20.5210 H   0  0  0  0  0  0
  -26.3111  -15.6136   20.1397 H   0  0  0  0  0  0
  -26.7085  -32.5523   23.1142 H   0  0  0  0  0  0
  -24.9986  -33.9787   25.0430 H   0  0  0  0  0  0
  -22.6906  -31.3075   21.4004 H   0  0  0  0  0  0
  -23.3736  -35.9681   23.3307 H   0  0  0  0  0  0
  -24.3579  -36.8978   22.2065 H   0  0  0  0  0  0
  -23.7244  -37.6545   23.6668 H   0  0  0  0  0  0
  -26.0420  -31.5937   20.5908 H   0  0  0  0  0  0
  -26.8173  -30.8921   21.9795 H   0  0  0  0  0  0
  -28.0893  -29.1035   21.1986 H   0  0  0  0  0  0
  -26.0993  -26.0031   18.9577 H   0  0  0  0  0  0
  -23.9952  -27.3059   18.9962 H   0  0  0  0  0  0
  -23.7105  -30.5809   19.3957 H   0  0  0  0  0  0
  -22.7367  -29.2224   19.8800 H   0  0  0  0  0  0
  -25.1293  -36.1977   25.0835 H   0  0  0  0  0  0
  -20.9947  -28.3261   24.1409 H   0  0  0  0  0  0
  -20.5590  -26.2318   23.3610 H   0  0  0  0  0  0
  -21.6626  -26.7437   22.1217 H   0  0  0  0  0  0
  -19.6889  -25.6289   21.1238 H   0  0  0  0  0  0
  -19.6666  -27.3184   20.6710 H   0  0  0  0  0  0
  -17.4166  -26.6648   21.4017 H   0  0  0  0  0  0
  -18.0345  -26.0083   22.9011 H   0  0  0  0  0  0
  -19.7946  -30.7236   24.2285 H   0  0  0  0  0  0
  -17.5035  -31.6288   24.5142 H   0  0  0  0  0  0
  -15.5347  -30.2996   23.7682 H   0  0  0  0  0  0
  -15.8658  -28.0843   22.7070 H   0  0  0  0  0  0
  -24.5887  -30.7057   25.7826 H   0  0  0  0  0  0
  -24.8931  -32.2878   26.4946 H   0  0  0  0  0  0
  -25.8103  -30.8867   27.0231 H   0  0  0  0  0  0
  -26.2839  -29.6823   24.1142 H   0  0  0  0  0  0
  -27.4018  -29.7279   25.4568 H   0  0  0  0  0  0
  -27.8672  -30.4369   23.9275 H   0  0  0  0  0  0
  -27.2587  -33.3642   26.2065 H   0  0  0  0  0  0
  -28.3806  -32.6944   25.0326 H   0  0  0  0  0  0
  -28.0655  -31.8483   26.5412 H   0  0  0  0  0  0
  -28.2590  -38.0122   24.7551 H   0  0  0  0  0  0
  -28.1072  -36.2669   24.6228 H   0  0  0  0  0  0
  -27.2309  -37.1430   25.8864 H   0  0  0  0  0  0
  -20.9250  -29.8771   21.6935 H   0  0  0  0  0  0
  -26.0176  -38.2875   24.1408 H   0  0  0  0  0  0
  -30.0739  -23.9263   23.5434 H   0  0  0  0  0  0
  -31.2731  -19.8057   23.5236 H   0  0  0  0  0  0
  -31.9164  -23.1034   25.0058 H   0  0  0  0  0  0
  -32.8467  -22.5905   23.5953 H   0  0  0  0  0  0
  -32.4817  -21.4406   24.8940 H   0  0  0  0  0  0
  -26.6447  -21.6825   21.0551 H   0  0  0  0  0  0
  -26.3895  -20.4263   22.2727 H   0  0  0  0  0  0
  -27.2873  -20.0991   20.7865 H   0  0  0  0  0  0
  -28.8302  -17.5294   25.7215 H   0  0  0  0  0  0
  -27.5723  -18.3004   24.7606 H   0  0  0  0  0  0
  -29.0044  -19.2110   25.2445 H   0  0  0  0  0  0
  -30.6922  -18.8918   19.2024 H   0  0  0  0  0  0
  -31.2314  -19.6204   20.6876 H   0  0  0  0  0  0
  -29.6916  -20.0853   19.9750 H   0  0  0  0  0  0
  -29.9565  -16.9904   18.5957 H   0  0  0  0  0  0
  -28.5847  -15.9331   18.7170 H   0  0  0  0  0  0
  -30.1481  -15.3498   18.1544 H   0  0  0  0  0  0
  -27.7296  -24.3807   23.2939 H   0  0  0  0  0  0
  -26.6427  -23.2886   22.5445 H   0  0  0  0  0  0
  -29.0613  -16.7670   23.4180 H   0  0  0  0  0  0
  -30.4371  -17.7528   23.8307 H   0  0  0  0  0  0
  -26.7372  -24.7446   20.8405 H   0  0  0  0  0  0
  -28.1436  -23.8803   20.3188 H   0  0  0  0  0  0
  -30.7781  -16.5109   22.0279 H   0  0  0  0  0  0
  -31.5083  -17.0832   20.5976 H   0  0  0  0  0  0
  -29.6090  -25.6137   21.3401 H   0  0  0  0  0  0
  -28.2659  -26.3799   22.1421 H   0  0  0  0  0  0
  -27.9966  -18.5783   22.3051 H   0  0  0  0  0  0
  -28.7366  -17.8956   20.4326 H   0  0  0  0  0  0
  1 25  1  0  0  0
  1 30  2  0  0  0
  1 89  1  0  0  0
  2  3  1  0  0  0
  2 25  1  0  0  0
  2 90  1  0  0  0
  2 91  1  0  0  0
  3  4  1  0  0  0
  3 92  1  0  0  0
  3 93  1  0  0  0
  4  5  1  0  0  0
  4 94  1  0  0  0
  4 95  1  0  0  0
  5  6  1  0  0  0
  5 26  1  0  0  0
  5 96  1  0  0  0
  6 25  1  0  0  0
  6 97  1  0  0  0
  6 98  1  0  0  0
  7  8  2  0  0  0
  7 26  1  0  0  0
  7 29  1  0  0  0
  8  9  1  0  0  0
  8 22  1  0  0  0
  9 10  1  0  0  0
  9 27  2  0  0  0
 10 11  2  0  0  0
 10 15  1  0  0  0
 11 12  1  0  0  0
 11 99  1  0  0  0
 12 13  2  0  0  0
 12100  1  0  0  0
 13 14  1  0  0  0
 13 31  1  0  0  0
 14 15  2  0  0  0
 14101  1  0  0  0
 15102  1  0  0  0
 16 17  2  0  0  0
 16 21  1  0  0  0
 16 31  1  0  0  0
 17 18  1  0  0  0
 17103  1  0  0  0
 18 19  2  0  0  0
 18104  1  0  0  0
 19 20  1  0  0  0
 19 24  1  0  0  0
 20 21  2  0  0  0
 20105  1  0  0  0
 21 23  1  0  0  0
 22 28  1  0  0  0
 22 32  2  0  0  0
 26 27  1  0  0  0
 28106  1  0  0  0
 28107  1  0  0  0
 29108  1  0  0  0
 29109  1  0  0  0
 33 34  1  0  0  0
 33 66  1  0  0  0
 33 70  2  0  0  0
 34 36  1  0  0  0
 34 59  1  0  0  0
 34110  1  0  0  0
 35 44  2  0  0  0
 35 45  1  0  0  0
 35 68  1  0  0  0
 36 56  1  0  0  0
 36111  1  0  0  0
 37 39  1  0  0  0
 37 47  1  0  0  0
 37 66  1  0  0  0
 37112  1  0  0  0
 38 43  2  0  0  0
 38 46  1  0  0  0
 38 47  1  0  0  0
 39 64  1  0  0  0
 39 67  2  0  0  0
 40 52  1  0  0  0
 40 53  2  0  0  0
 40 58  1  0  0  0
 41113  1  0  0  0
 41114  1  0  0  0
 41115  1  0  0  0
 41 48  1  0  0  0
 42 43  1  0  0  0
 42 66  1  0  0  0
 42116  1  0  0  0
 42117  1  0  0  0
 43 44  1  0  0  0
 44118  1  0  0  0
 45 46  2  0  0  0
 45119  1  0  0  0
 46120  1  0  0  0
 47121  1  0  0  0
 47122  1  0  0  0
 48 56  1  0  0  0
 48 65  1  0  0  0
 48123  1  0  0  0
 49 50  1  0  0  0
 49 53  1  0  0  0
 49 64  1  0  0  0
 49124  1  0  0  0
 50 51  1  0  0  0
 50125  1  0  0  0
 50126  1  0  0  0
 51 52  1  0  0  0
 51127  1  0  0  0
 51128  1  0  0  0
 52129  1  0  0  0
 52130  1  0  0  0
 53 54  1  0  0  0
 54 55  2  0  0  0
 54131  1  0  0  0
 55 57  1  0  0  0
 55132  1  0  0  0
 56 69  2  0  0  0
 57 58  2  0  0  0
 57133  1  0  0  0
 58134  1  0  0  0
 59 60  1  0  0  0
 59 61  1  0  0  0
 59 62  1  0  0  0
 60135  1  0  0  0
 60136  1  0  0  0
 60137  1  0  0  0
 61138  1  0  0  0
 61139  1  0  0  0
 61140  1  0  0  0
 62141  1  0  0  0
 62142  1  0  0  0
 62143  1  0  0  0
 63 65  1  0  0  0
 63144  1  0  0  0
 63145  1  0  0  0
 63146  1  0  0  0
 64147  1  0  0  0
 65148  1  0  0  0
 68 86  1  0  0  0
 71 73  2  0  0  0
 71 74  1  0  0  0
 71149  1  0  0  0
 72 73  1  0  0  0
 72 75  2  0  0  0
 72150  1  0  0  0
 73 77  1  0  0  0
 74 76  2  0  0  0
 74 82  1  0  0  0
 75 76  1  0  0  0
 75 87  1  0  0  0
 76 78  1  0  0  0
 77151  1  0  0  0
 77152  1  0  0  0
 77153  1  0  0  0
 78154  1  0  0  0
 78155  1  0  0  0
 78156  1  0  0  0
 79 83  1  0  0  0
 79157  1  0  0  0
 79158  1  0  0  0
 79159  1  0  0  0
 80160  1  0  0  0
 80161  1  0  0  0
 80162  1  0  0  0
 80 88  1  0  0  0
 81 89  1  0  0  0
 81163  1  0  0  0
 81164  1  0  0  0
 81165  1  0  0  0
 82 84  1  0  0  0
 82166  1  0  0  0
 82167  1  0  0  0
 83168  1  0  0  0
 83169  1  0  0  0
 83 87  1  0  0  0
 84 86  1  0  0  0
 84170  1  0  0  0
 84171  1  0  0  0
 85 88  1  0  0  0
 85 89  1  0  0  0
 85172  1  0  0  0
 85173  1  0  0  0
 86174  1  0  0  0
 86175  1  0  0  0
 87 88  1  0  0  0
 87176  1  0  0  0
 88177  1  0  0  0
M  ISO  4   1 100  68 101  86 101  89 100
M  END
> <chiral flag>
0

> <version>
0

> <s_m_source_file>
/data/baiqing/PycharmProjects/Reinvent-master-3.2/result/LINK_invent/BTK/process_docking_weight1_custom_sum_contain_oxygen_bond_distance_aromatic_linkinvent_7_9_3/rearranged_h_0085.sdf

> <i_m_source_file_index>
89

> <r_mmod_Potential_Energy-OPLS-2005>
248.258178710938

> <r_mmod_Stretch_Energy-OPLS-2005>
49.7665252685547

> <r_mmod_Bend_Energy-OPLS-2005>
125.273979187012

> <r_mmod_Torsional_Energy-OPLS-2005>
362.846343994141

> <r_mmod_Improper_Torsional_Energy-OPLS-2005>
14.2731704711914

> <r_mmod_Van_der_Waal_Energy-OPLS-2005>
171.804168701172

> <r_mmod_Electrostatic_Energy-OPLS-2005>
-327.755096435547

> <r_mmod_Solvation_Energy-OPLS-2005>
-178.848999023438

> <b_mmod_Minimization_Converged-OPLS-2005>
0

> <r_mmod_RMS_Derivative-OPLS-2005>
3.80335283279419

$$$$
92
                    3D
 Structure written by MMmdl.
159167  0  0  1  0            999 V2000
  -30.7000  -14.4560   20.6075 C   0  0  0  0  0  0
  -30.4288  -12.3124   19.4195 C   0  0  0  0  0  0
  -29.4946  -12.5097   18.2055 C   0  0  0  0  0  0
  -28.0166  -12.3638   18.6215 C   0  0  0  0  0  0
  -27.6630  -13.2031   19.8772 C   0  0  2  0  0  0
  -28.6996  -12.9727   21.0003 C   0  0  0  0  0  0
  -25.2585  -13.8145   20.5646 C   0  0  0  0  0  0
  -24.1828  -13.0439   20.9170 C   0  0  0  0  0  0
  -24.6377  -11.6905   20.8733 C   0  0  0  0  0  0
  -23.9050  -10.4294   21.0406 C   0  0  0  0  0  0
  -24.3605   -9.4218   21.9187 C   0  0  0  0  0  0
  -23.6281   -8.2251   22.0765 C   0  0  0  0  0  0
  -22.4264   -8.0288   21.3548 C   0  0  0  0  0  0
  -21.9891   -9.0267   20.4659 C   0  0  0  0  0  0
  -22.7222  -10.2146   20.3065 C   0  0  0  0  0  0
  -21.6857   -6.0735   22.5275 C   0  0  0  0  0  0
  -21.4017   -6.5634   23.8213 C   0  0  0  0  0  0
  -21.3652   -5.6787   24.9163 C   0  0  0  0  0  0
  -21.6034   -4.3049   24.7228 C   0  0  0  0  0  0
  -21.8812   -3.8142   23.4348 C   0  0  0  0  0  0
  -21.9195   -4.6955   22.3403 C   0  0  0  0  0  0
  -22.7850  -13.5257   21.1818 C   0  0  0  0  0  0
  -22.1657   -4.2135   21.0984 F   0  0  0  0  0  0
  -21.5632   -3.4534   25.7743 F   0  0  0  0  0  0
  -30.0366  -13.2775   20.4573 N   0  0  0  0  0  0
  -26.3020  -12.9314   20.3352 N   0  0  0  0  0  0
  -25.9307  -11.6484   20.5780 N   0  0  0  0  0  0
  -22.0467  -12.8283   22.0386 N   0  0  0  0  0  0
  -25.4310  -15.1852   20.3979 N   0  0  0  0  0  0
  -31.8007  -14.6869   20.1020 O   0  0  0  0  0  0
  -21.6638   -6.8874   21.4243 O   0  0  0  0  0  0
  -22.3543  -14.5556   20.6650 O   0  0  0  0  0  0
  -24.6150  -31.8673   23.2103 C   0  0  0  0  0  0
  -25.9042  -32.4822   23.8393 C   0  0  1  0  0  0
  -27.2347  -27.4102   20.1222 C   0  0  0  0  0  0
  -25.5896  -33.8620   24.2327 N   0  0  0  0  0  0
  -23.4057  -30.4892   21.5518 C   0  0  2  0  0  0
  -24.8585  -28.9506   20.1174 C   0  0  0  0  0  0
  -22.7402  -29.4646   22.4999 C   0  0  0  0  0  0
  -18.0249  -28.1346   22.8476 C   0  0  0  0  0  0
  -24.1493  -36.7312   23.2638 C   0  0  0  0  0  0
  -25.9355  -30.8254   21.3685 C   0  0  0  0  0  0
  -26.0173  -29.4549   20.7229 C   0  0  0  0  0  0
  -27.2118  -28.6930   20.7256 C   0  0  0  0  0  0
  -26.0673  -26.9295   19.4976 C   0  0  0  0  0  0
  -24.8794  -27.6876   19.4989 C   0  0  0  0  0  0
  -23.6195  -29.8205   20.1666 C   0  0  0  0  0  0
  -25.4120  -36.3121   24.0329 C   0  0  1  0  0  0
  -20.5847  -28.3657   23.1305 C   0  0  2  0  0  0
  -20.6758  -26.9392   22.5415 C   0  0  0  0  0  0
  -19.5759  -26.6372   21.5191 C   0  0  0  0  0  0
  -18.1930  -26.7887   22.1603 C   0  0  0  0  0  0
  -19.1499  -28.8812   23.2883 C   0  0  0  0  0  0
  -18.9431  -30.1408   23.8920 C   0  0  0  0  0  0
  -17.6450  -30.6574   24.0534 C   0  0  0  0  0  0
  -25.9025  -34.9478   23.5125 C   0  0  0  0  0  0
  -16.5339  -29.9079   23.6294 C   0  0  0  0  0  0
  -16.7243  -28.6466   23.0359 C   0  0  0  0  0  0
  -26.4460  -31.6600   25.0727 C   0  0  0  0  0  0
  -25.3690  -31.3722   26.1440 C   0  0  0  0  0  0
  -27.0287  -30.3040   24.6126 C   0  0  0  0  0  0
  -27.6031  -32.4313   25.7510 C   0  0  0  0  0  0
  -27.5557  -37.1868   24.8493 C   0  0  0  0  0  0
  -21.4132  -29.3029   22.3720 N   0  0  0  0  0  0
  -26.4333  -37.3772   23.9345 N   0  0  0  0  0  0
  -24.6698  -31.0753   22.1016 N   0  0  0  0  0  0
  -23.4147  -28.8165   23.3046 O   0  0  0  0  0  0
  -28.3696  -26.6252   20.0826 O   0  0  0  0  0  0
  -26.5598  -34.8933   22.4700 O   0  0  0  0  0  0
  -23.5351  -32.1442   23.7486 O   0  0  0  0  0  0
  -28.7649  -17.5901   23.0841 C   0  0  0  0  0  0
  -28.5744  -21.2260   20.0424 C   0  0  0  0  0  0
  -28.5073  -19.8384   20.2767 C   0  0  0  0  0  0
  -29.4188  -22.0334   20.8354 C   0  0  0  0  0  0
  -29.2777  -19.2664   21.3079 C   0  0  0  0  0  0
  -30.1999  -21.3661   21.8204 C   0  0  0  0  0  0
  -31.1919  -22.0807   22.7214 C   0  0  0  0  0  0
  -29.4930  -23.5540   20.5547 C   0  0  0  0  0  0
  -28.5067  -24.4339   21.3710 C   0  0  0  0  0  0
  -30.3191  -16.8658   21.2320 C   0  0  0  0  0  0
  -28.7434  -25.9782   21.3129 C   0  0  0  0  0  0
  -29.1259  -17.7701   21.6612 C   0  0  1  0  0  0
  -28.4784  -17.4396   24.2026 N   0  0  0  0  0  0
  -30.1259  -20.0291   22.0419 N   0  0  0  0  0  0
  -29.9992  -15.4206   21.2275 N   0  0  0  0  0  0
  -31.4718  -12.4266   19.1173 H   0  0  0  0  0  0
  -30.3448  -11.2983   19.8132 H   0  0  0  0  0  0
  -29.7374  -11.7834   17.4286 H   0  0  0  0  0  0
  -29.6576  -13.4935   17.7605 H   0  0  0  0  0  0
  -27.8333  -11.3072   18.8225 H   0  0  0  0  0  0
  -27.3603  -12.6299   17.7916 H   0  0  0  0  0  0
  -27.7141  -14.2514   19.5835 H   0  0  0  0  0  0
  -28.6735  -11.9341   21.3324 H   0  0  0  0  0  0
  -28.4484  -13.5598   21.8851 H   0  0  0  0  0  0
  -25.2748   -9.5676   22.4769 H   0  0  0  0  0  0
  -23.9974   -7.4637   22.7486 H   0  0  0  0  0  0
  -21.0816   -8.8792   19.8981 H   0  0  0  0  0  0
  -22.3675  -10.9685   19.6179 H   0  0  0  0  0  0
  -21.2021   -7.6143   23.9705 H   0  0  0  0  0  0
  -21.1471   -6.0518   25.9062 H   0  0  0  0  0  0
  -22.0602   -2.7603   23.2854 H   0  0  0  0  0  0
  -22.4074  -11.9983   22.4841 H   0  0  0  0  0  0
  -21.1092  -13.1349   22.2590 H   0  0  0  0  0  0
  -24.6460  -15.8254   20.4460 H   0  0  0  0  0  0
  -26.2551  -15.6008   19.9831 H   0  0  0  0  0  0
  -26.7112  -32.5560   23.1154 H   0  0  0  0  0  0
  -25.0088  -33.9762   25.0506 H   0  0  0  0  0  0
  -22.6945  -31.3048   21.4110 H   0  0  0  0  0  0
  -23.3703  -35.9714   23.3491 H   0  0  0  0  0  0
  -24.3526  -36.8735   22.2011 H   0  0  0  0  0  0
  -23.7346  -37.6630   23.6509 H   0  0  0  0  0  0
  -26.0491  -31.5844   20.5936 H   0  0  0  0  0  0
  -26.8198  -30.8824   21.9907 H   0  0  0  0  0  0
  -28.1094  -29.0847   21.1854 H   0  0  0  0  0  0
  -26.0769  -25.9614   19.0135 H   0  0  0  0  0  0
  -23.9923  -27.2992   19.0188 H   0  0  0  0  0  0
  -23.7262  -30.5949   19.4046 H   0  0  0  0  0  0
  -22.7425  -29.2416   19.8728 H   0  0  0  0  0  0
  -25.1316  -36.2020   25.0828 H   0  0  0  0  0  0
  -20.9923  -28.3238   24.1430 H   0  0  0  0  0  0
  -20.5637  -26.2272   23.3611 H   0  0  0  0  0  0
  -21.6637  -26.7428   22.1232 H   0  0  0  0  0  0
  -19.6954  -25.6281   21.1224 H   0  0  0  0  0  0
  -19.6711  -27.3174   20.6717 H   0  0  0  0  0  0
  -17.4194  -26.6582   21.4016 H   0  0  0  0  0  0
  -18.0367  -26.0019   22.8996 H   0  0  0  0  0  0
  -19.7912  -30.7169   24.2370 H   0  0  0  0  0  0
  -17.5005  -31.6266   24.5104 H   0  0  0  0  0  0
  -15.5336  -30.3004   23.7594 H   0  0  0  0  0  0
  -15.8623  -28.0771   22.7146 H   0  0  0  0  0  0
  -24.5905  -30.7016   25.7766 H   0  0  0  0  0  0
  -24.8809  -32.2876   26.4804 H   0  0  0  0  0  0
  -25.7996  -30.8965   27.0255 H   0  0  0  0  0  0
  -26.2873  -29.6880   24.1016 H   0  0  0  0  0  0
  -27.3875  -29.7200   25.4614 H   0  0  0  0  0  0
  -27.8779  -30.4368   23.9413 H   0  0  0  0  0  0
  -27.2646  -33.3597   26.2128 H   0  0  0  0  0  0
  -28.3834  -32.6902   25.0331 H   0  0  0  0  0  0
  -28.0699  -31.8406   26.5419 H   0  0  0  0  0  0
  -28.2725  -38.0007   24.7314 H   0  0  0  0  0  0
  -28.0907  -36.2541   24.6631 H   0  0  0  0  0  0
  -27.2225  -37.1901   25.8888 H   0  0  0  0  0  0
  -20.9315  -29.8756   21.6934 H   0  0  0  0  0  0
  -26.0259  -38.2904   24.1175 H   0  0  0  0  0  0
  -27.9731  -21.6666   19.2615 H   0  0  0  0  0  0
  -27.8415  -19.2260   19.6832 H   0  0  0  0  0  0
  -30.8307  -22.0799   23.7486 H   0  0  0  0  0  0
  -31.3778  -23.1144   22.4488 H   0  0  0  0  0  0
  -32.1531  -21.5669   22.7018 H   0  0  0  0  0  0
  -29.3036  -23.7219   19.4924 H   0  0  0  0  0  0
  -30.5132  -23.9080   20.6932 H   0  0  0  0  0  0
  -28.6099  -24.1412   22.4167 H   0  0  0  0  0  0
  -27.4759  -24.1945   21.1048 H   0  0  0  0  0  0
  -31.1812  -17.0505   21.8749 H   0  0  0  0  0  0
  -30.6193  -17.1462   20.2221 H   0  0  0  0  0  0
  -29.8012  -26.1799   21.4872 H   0  0  0  0  0  0
  -28.2167  -26.4405   22.1518 H   0  0  0  0  0  0
  -28.2513  -17.4188   21.1147 H   0  0  0  0  0  0
  -29.1121  -15.1275   21.6071 H   0  0  0  0  0  0
  1 25  1  0  0  0
  1 30  2  0  0  0
  1 85  1  0  0  0
  2  3  1  0  0  0
  2 25  1  0  0  0
  2 86  1  0  0  0
  2 87  1  0  0  0
  3  4  1  0  0  0
  3 88  1  0  0  0
  3 89  1  0  0  0
  4  5  1  0  0  0
  4 90  1  0  0  0
  4 91  1  0  0  0
  5  6  1  0  0  0
  5 26  1  0  0  0
  5 92  1  0  0  0
  6 25  1  0  0  0
  6 93  1  0  0  0
  6 94  1  0  0  0
  7  8  2  0  0  0
  7 26  1  0  0  0
  7 29  1  0  0  0
  8  9  1  0  0  0
  8 22  1  0  0  0
  9 10  1  0  0  0
  9 27  2  0  0  0
 10 11  2  0  0  0
 10 15  1  0  0  0
 11 12  1  0  0  0
 11 95  1  0  0  0
 12 13  2  0  0  0
 12 96  1  0  0  0
 13 14  1  0  0  0
 13 31  1  0  0  0
 14 15  2  0  0  0
 14 97  1  0  0  0
 15 98  1  0  0  0
 16 17  2  0  0  0
 16 21  1  0  0  0
 16 31  1  0  0  0
 17 18  1  0  0  0
 17 99  1  0  0  0
 18 19  2  0  0  0
 18100  1  0  0  0
 19 20  1  0  0  0
 19 24  1  0  0  0
 20 21  2  0  0  0
 20101  1  0  0  0
 21 23  1  0  0  0
 22 28  1  0  0  0
 22 32  2  0  0  0
 26 27  1  0  0  0
 28102  1  0  0  0
 28103  1  0  0  0
 29104  1  0  0  0
 29105  1  0  0  0
 33 34  1  0  0  0
 33 66  1  0  0  0
 33 70  2  0  0  0
 34 36  1  0  0  0
 34 59  1  0  0  0
 34106  1  0  0  0
 35 44  2  0  0  0
 35 45  1  0  0  0
 35 68  1  0  0  0
 36 56  1  0  0  0
 36107  1  0  0  0
 37 39  1  0  0  0
 37 47  1  0  0  0
 37 66  1  0  0  0
 37108  1  0  0  0
 38 43  2  0  0  0
 38 46  1  0  0  0
 38 47  1  0  0  0
 39 64  1  0  0  0
 39 67  2  0  0  0
 40 52  1  0  0  0
 40 53  2  0  0  0
 40 58  1  0  0  0
 41109  1  0  0  0
 41110  1  0  0  0
 41111  1  0  0  0
 41 48  1  0  0  0
 42 43  1  0  0  0
 42 66  1  0  0  0
 42112  1  0  0  0
 42113  1  0  0  0
 43 44  1  0  0  0
 44114  1  0  0  0
 45 46  2  0  0  0
 45115  1  0  0  0
 46116  1  0  0  0
 47117  1  0  0  0
 47118  1  0  0  0
 48 56  1  0  0  0
 48 65  1  0  0  0
 48119  1  0  0  0
 49 50  1  0  0  0
 49 53  1  0  0  0
 49 64  1  0  0  0
 49120  1  0  0  0
 50 51  1  0  0  0
 50121  1  0  0  0
 50122  1  0  0  0
 51 52  1  0  0  0
 51123  1  0  0  0
 51124  1  0  0  0
 52125  1  0  0  0
 52126  1  0  0  0
 53 54  1  0  0  0
 54 55  2  0  0  0
 54127  1  0  0  0
 55 57  1  0  0  0
 55128  1  0  0  0
 56 69  2  0  0  0
 57 58  2  0  0  0
 57129  1  0  0  0
 58130  1  0  0  0
 59 60  1  0  0  0
 59 61  1  0  0  0
 59 62  1  0  0  0
 60131  1  0  0  0
 60132  1  0  0  0
 60133  1  0  0  0
 61134  1  0  0  0
 61135  1  0  0  0
 61136  1  0  0  0
 62137  1  0  0  0
 62138  1  0  0  0
 62139  1  0  0  0
 63 65  1  0  0  0
 63140  1  0  0  0
 63141  1  0  0  0
 63142  1  0  0  0
 64143  1  0  0  0
 65144  1  0  0  0
 68 81  1  0  0  0
 71 83  3  0  0  0
 71 82  1  0  0  0
 72 73  2  0  0  0
 72 74  1  0  0  0
 72145  1  0  0  0
 73 75  1  0  0  0
 73146  1  0  0  0
 74 76  2  0  0  0
 74 78  1  0  0  0
 75 82  1  0  0  0
 75 84  2  0  0  0
 76 77  1  0  0  0
 76 84  1  0  0  0
 77147  1  0  0  0
 77148  1  0  0  0
 77149  1  0  0  0
 78 79  1  0  0  0
 78150  1  0  0  0
 78151  1  0  0  0
 79 81  1  0  0  0
 79152  1  0  0  0
 79153  1  0  0  0
 80 82  1  0  0  0
 80 85  1  0  0  0
 80154  1  0  0  0
 80155  1  0  0  0
 81156  1  0  0  0
 81157  1  0  0  0
 82158  1  0  0  0
 85159  1  0  0  0
M  ISO  4   1 100  68 101  81 101  85 100
M  END
> <chiral flag>
0

> <version>
0

> <s_m_source_file>
/data/baiqing/PycharmProjects/Reinvent-master-3.2/result/LINK_invent/BTK/process_docking_weight1_custom_sum_contain_oxygen_bond_distance_aromatic_linkinvent_7_9_3/rearranged_h_0085.sdf

> <i_m_source_file_index>
90

> <r_mmod_Potential_Energy-OPLS-2005>
-124.325889587402

> <r_mmod_Stretch_Energy-OPLS-2005>
42.6673240661621

> <r_mmod_Bend_Energy-OPLS-2005>
99.4957885742188

> <r_mmod_Torsional_Energy-OPLS-2005>
220.051452636719

> <r_mmod_Improper_Torsional_Energy-OPLS-2005>
4.31231307983398

> <r_mmod_Van_der_Waal_Energy-OPLS-2005>
142.291351318359

> <r_mmod_Electrostatic_Energy-OPLS-2005>
-407.49169921875

> <r_mmod_Solvation_Energy-OPLS-2005>
-238.244125366211

> <b_mmod_Minimization_Converged-OPLS-2005>
0

> <r_mmod_RMS_Derivative-OPLS-2005>
3.47072577476501

$$$$
93
                    3D
 Structure written by MMmdl.
155163  0  0  1  0            999 V2000
  -30.6885  -14.5460   20.5465 C   0  0  0  0  0  0
  -30.4197  -12.3513   19.4311 C   0  0  0  0  0  0
  -29.4963  -12.5037   18.2056 C   0  0  0  0  0  0
  -28.0191  -12.3532   18.6183 C   0  0  0  0  0  0
  -27.6516  -13.2167   19.8556 C   0  0  2  0  0  0
  -28.6924  -13.0545   20.9841 C   0  0  0  0  0  0
  -25.2558  -13.8184   20.5664 C   0  0  0  0  0  0
  -24.1832  -13.0445   20.9174 C   0  0  0  0  0  0
  -24.6402  -11.6921   20.8722 C   0  0  0  0  0  0
  -23.9072  -10.4305   21.0389 C   0  0  0  0  0  0
  -24.3628   -9.4227   21.9166 C   0  0  0  0  0  0
  -23.6310   -8.2261   22.0741 C   0  0  0  0  0  0
  -22.4290   -8.0284   21.3536 C   0  0  0  0  0  0
  -21.9928   -9.0248   20.4632 C   0  0  0  0  0  0
  -22.7250  -10.2134   20.3038 C   0  0  0  0  0  0
  -21.6866   -6.0746   22.5277 C   0  0  0  0  0  0
  -21.4021   -6.5643   23.8207 C   0  0  0  0  0  0
  -21.3666   -5.6791   24.9164 C   0  0  0  0  0  0
  -21.6051   -4.3053   24.7206 C   0  0  0  0  0  0
  -21.8820   -3.8150   23.4319 C   0  0  0  0  0  0
  -21.9196   -4.6975   22.3387 C   0  0  0  0  0  0
  -22.7856  -13.5235   21.1832 C   0  0  0  0  0  0
  -22.1662   -4.2167   21.0962 F   0  0  0  0  0  0
  -21.5630   -3.4532   25.7711 F   0  0  0  0  0  0
  -30.0129  -13.3676   20.4198 N   0  0  0  0  0  0
  -26.2977  -12.9367   20.3265 N   0  0  0  0  0  0
  -25.9319  -11.6517   20.5710 N   0  0  0  0  0  0
  -22.0500  -12.8233   22.0389 N   0  0  0  0  0  0
  -25.4254  -15.1910   20.4112 N   0  0  0  0  0  0
  -31.8436  -14.6757   20.1325 O   0  0  0  0  0  0
  -21.6650   -6.8889   21.4238 O   0  0  0  0  0  0
  -22.3536  -14.5533   20.6665 O   0  0  0  0  0  0
  -24.6206  -31.8640   23.2043 C   0  0  0  0  0  0
  -25.9074  -32.4791   23.8355 C   0  0  1  0  0  0
  -27.2292  -27.3732   20.1029 C   0  0  0  0  0  0
  -25.5893  -33.8588   24.2280 N   0  0  0  0  0  0
  -23.4097  -30.4877   21.5472 C   0  0  2  0  0  0
  -24.8544  -28.9467   20.1133 C   0  0  0  0  0  0
  -22.7432  -29.4654   22.4973 C   0  0  0  0  0  0
  -18.0274  -28.1386   22.8485 C   0  0  0  0  0  0
  -24.1477  -36.7299   23.2642 C   0  0  0  0  0  0
  -25.9453  -30.8109   21.3652 C   0  0  0  0  0  0
  -26.0205  -29.4420   20.7092 C   0  0  0  0  0  0
  -27.2107  -28.6659   20.6954 C   0  0  0  0  0  0
  -26.0367  -26.9123   19.4958 C   0  0  0  0  0  0
  -24.8610  -27.6833   19.5025 C   0  0  0  0  0  0
  -23.6193  -29.8194   20.1629 C   0  0  0  0  0  0
  -25.4099  -36.3087   24.0334 C   0  0  1  0  0  0
  -20.5866  -28.3681   23.1300 C   0  0  2  0  0  0
  -20.6756  -26.9411   22.5415 C   0  0  0  0  0  0
  -19.5737  -26.6386   21.5211 C   0  0  0  0  0  0
  -18.1921  -26.7924   22.1630 C   0  0  0  0  0  0
  -19.1524  -28.8847   23.2889 C   0  0  0  0  0  0
  -18.9457  -30.1443   23.8916 C   0  0  0  0  0  0
  -17.6465  -30.6591   24.0566 C   0  0  0  0  0  0
  -25.9039  -34.9458   23.5110 C   0  0  0  0  0  0
  -16.5353  -29.9105   23.6313 C   0  0  0  0  0  0
  -16.7265  -28.6518   23.0342 C   0  0  0  0  0  0
  -26.4471  -31.6590   25.0713 C   0  0  0  0  0  0
  -25.3716  -31.3719   26.1450 C   0  0  0  0  0  0
  -27.0301  -30.3016   24.6135 C   0  0  0  0  0  0
  -27.6022  -32.4331   25.7486 C   0  0  0  0  0  0
  -27.5568  -37.1800   24.8465 C   0  0  0  0  0  0
  -21.4156  -29.3045   22.3705 N   0  0  0  0  0  0
  -26.4276  -37.3783   23.9416 N   0  0  0  0  0  0
  -24.6767  -31.0698   22.0961 N   0  0  0  0  0  0
  -23.4184  -28.8207   23.3038 O   0  0  0  0  0  0
  -28.3786  -26.5851   20.1404 O   0  0  0  0  0  0
  -26.5630  -34.8928   22.4691 O   0  0  0  0  0  0
  -23.5388  -32.1428   23.7411 O   0  0  0  0  0  0
  -30.1074  -19.4802   21.5082 C   0  0  0  0  0  0
  -29.8892  -18.2197   21.0044 C   0  0  0  0  0  0
  -30.7248  -24.8830   19.4953 C   0  0  0  0  0  0
  -30.6068  -16.9211   21.3924 C   0  0  0  0  0  0
  -29.3939  -22.7418   19.8819 C   0  0  0  0  0  0
  -28.9874  -21.7732   21.0395 C   0  0  0  0  0  0
  -28.2423  -25.1522   19.8915 C   0  0  0  0  0  0
  -29.5060  -24.2856   20.2220 C   0  0  2  0  0  0
  -28.9037  -18.3458   20.0206 N   0  0  0  0  0  0
  -28.5276  -19.5985   19.9252 N   0  0  0  0  0  0
  -29.2465  -20.3264   20.8210 N   0  0  0  0  0  0
  -30.0039  -15.6110   21.0336 N   0  0  0  0  0  0
  -31.4642  -12.4517   19.1312 H   0  0  0  0  0  0
  -30.3269  -11.3516   19.8581 H   0  0  0  0  0  0
  -29.7510  -11.7616   17.4474 H   0  0  0  0  0  0
  -29.6513  -13.4798   17.7435 H   0  0  0  0  0  0
  -27.8459  -11.2997   18.8388 H   0  0  0  0  0  0
  -27.3681  -12.5969   17.7785 H   0  0  0  0  0  0
  -27.6775  -14.2563   19.5265 H   0  0  0  0  0  0
  -28.6849  -12.0316   21.3638 H   0  0  0  0  0  0
  -28.4457  -13.6909   21.8349 H   0  0  0  0  0  0
  -25.2778   -9.5714   22.4719 H   0  0  0  0  0  0
  -24.0026   -7.4670   22.7465 H   0  0  0  0  0  0
  -21.0857   -8.8760   19.8945 H   0  0  0  0  0  0
  -22.3704  -10.9655   19.6132 H   0  0  0  0  0  0
  -21.2015   -7.6156   23.9717 H   0  0  0  0  0  0
  -21.1493   -6.0516   25.9075 H   0  0  0  0  0  0
  -22.0594   -2.7615   23.2802 H   0  0  0  0  0  0
  -22.4133  -11.9933   22.4838 H   0  0  0  0  0  0
  -21.1089  -13.1212   22.2526 H   0  0  0  0  0  0
  -24.6561  -15.8415   20.5270 H   0  0  0  0  0  0
  -26.2744  -15.6370   20.0858 H   0  0  0  0  0  0
  -26.7142  -32.5479   23.1111 H   0  0  0  0  0  0
  -24.9969  -33.9728   25.0374 H   0  0  0  0  0  0
  -22.7010  -31.3061   21.4056 H   0  0  0  0  0  0
  -23.3738  -35.9632   23.3307 H   0  0  0  0  0  0
  -24.3567  -36.8920   22.2055 H   0  0  0  0  0  0
  -23.7238  -37.6503   23.6667 H   0  0  0  0  0  0
  -26.0670  -31.5743   20.5956 H   0  0  0  0  0  0
  -26.8294  -30.8617   21.9881 H   0  0  0  0  0  0
  -28.1080  -29.0467   21.1633 H   0  0  0  0  0  0
  -25.9847  -25.9466   19.0156 H   0  0  0  0  0  0
  -23.9649  -27.2923   19.0403 H   0  0  0  0  0  0
  -23.7314  -30.5936   19.4030 H   0  0  0  0  0  0
  -22.7412  -29.2419   19.8667 H   0  0  0  0  0  0
  -25.1281  -36.1931   25.0826 H   0  0  0  0  0  0
  -20.9953  -28.3251   24.1422 H   0  0  0  0  0  0
  -20.5642  -26.2299   23.3615 H   0  0  0  0  0  0
  -21.6628  -26.7439   22.1221 H   0  0  0  0  0  0
  -19.6896  -25.6298   21.1239 H   0  0  0  0  0  0
  -19.6667  -27.3196   20.6741 H   0  0  0  0  0  0
  -17.4182  -26.6656   21.4046 H   0  0  0  0  0  0
  -18.0336  -26.0071   22.9035 H   0  0  0  0  0  0
  -19.7938  -30.7236   24.2312 H   0  0  0  0  0  0
  -17.5032  -31.6271   24.5167 H   0  0  0  0  0  0
  -15.5358  -30.3031   23.7610 H   0  0  0  0  0  0
  -15.8660  -28.0845   22.7056 H   0  0  0  0  0  0
  -24.5876  -30.7083   25.7781 H   0  0  0  0  0  0
  -24.8923  -32.2885   26.4897 H   0  0  0  0  0  0
  -25.8051  -30.8877   27.0210 H   0  0  0  0  0  0
  -26.2857  -29.6784   24.1164 H   0  0  0  0  0  0
  -27.4013  -29.7252   25.4621 H   0  0  0  0  0  0
  -27.8719  -30.4307   23.9327 H   0  0  0  0  0  0
  -27.2606  -33.3615   26.2082 H   0  0  0  0  0  0
  -28.3820  -32.6935   25.0312 H   0  0  0  0  0  0
  -28.0708  -31.8458   26.5397 H   0  0  0  0  0  0
  -28.2592  -38.0091   24.7508 H   0  0  0  0  0  0
  -28.1059  -36.2626   24.6289 H   0  0  0  0  0  0
  -27.2293  -37.1443   25.8870 H   0  0  0  0  0  0
  -20.9332  -29.8767   21.6915 H   0  0  0  0  0  0
  -26.0158  -38.2853   24.1432 H   0  0  0  0  0  0
  -30.7741  -19.8307   22.2861 H   0  0  0  0  0  0
  -31.6422  -24.3470   19.7425 H   0  0  0  0  0  0
  -30.8805  -25.9254   19.7762 H   0  0  0  0  0  0
  -30.5998  -24.8462   18.4121 H   0  0  0  0  0  0
  -30.7290  -16.9061   22.4768 H   0  0  0  0  0  0
  -31.6244  -16.9767   21.0062 H   0  0  0  0  0  0
  -28.7287  -22.5942   19.0302 H   0  0  0  0  0  0
  -30.3683  -22.3950   19.5349 H   0  0  0  0  0  0
  -27.9290  -21.8990   21.2688 H   0  0  0  0  0  0
  -29.5234  -22.0623   21.9431 H   0  0  0  0  0  0
  -27.4051  -24.7590   20.4703 H   0  0  0  0  0  0
  -27.9979  -25.0095   18.8380 H   0  0  0  0  0  0
  -29.7056  -24.3816   21.2910 H   0  0  0  0  0  0
  -29.0352  -15.4760   21.2754 H   0  0  0  0  0  0
  1 25  1  0  0  0
  1 30  2  0  0  0
  1 82  1  0  0  0
  2  3  1  0  0  0
  2 25  1  0  0  0
  2 83  1  0  0  0
  2 84  1  0  0  0
  3  4  1  0  0  0
  3 85  1  0  0  0
  3 86  1  0  0  0
  4  5  1  0  0  0
  4 87  1  0  0  0
  4 88  1  0  0  0
  5  6  1  0  0  0
  5 26  1  0  0  0
  5 89  1  0  0  0
  6 25  1  0  0  0
  6 90  1  0  0  0
  6 91  1  0  0  0
  7  8  2  0  0  0
  7 26  1  0  0  0
  7 29  1  0  0  0
  8  9  1  0  0  0
  8 22  1  0  0  0
  9 10  1  0  0  0
  9 27  2  0  0  0
 10 11  2  0  0  0
 10 15  1  0  0  0
 11 12  1  0  0  0
 11 92  1  0  0  0
 12 13  2  0  0  0
 12 93  1  0  0  0
 13 14  1  0  0  0
 13 31  1  0  0  0
 14 15  2  0  0  0
 14 94  1  0  0  0
 15 95  1  0  0  0
 16 17  2  0  0  0
 16 21  1  0  0  0
 16 31  1  0  0  0
 17 18  1  0  0  0
 17 96  1  0  0  0
 18 19  2  0  0  0
 18 97  1  0  0  0
 19 20  1  0  0  0
 19 24  1  0  0  0
 20 21  2  0  0  0
 20 98  1  0  0  0
 21 23  1  0  0  0
 22 28  1  0  0  0
 22 32  2  0  0  0
 26 27  1  0  0  0
 28 99  1  0  0  0
 28100  1  0  0  0
 29101  1  0  0  0
 29102  1  0  0  0
 33 34  1  0  0  0
 33 66  1  0  0  0
 33 70  2  0  0  0
 34 36  1  0  0  0
 34 59  1  0  0  0
 34103  1  0  0  0
 35 44  2  0  0  0
 35 45  1  0  0  0
 35 68  1  0  0  0
 36 56  1  0  0  0
 36104  1  0  0  0
 37 39  1  0  0  0
 37 47  1  0  0  0
 37 66  1  0  0  0
 37105  1  0  0  0
 38 43  2  0  0  0
 38 46  1  0  0  0
 38 47  1  0  0  0
 39 64  1  0  0  0
 39 67  2  0  0  0
 40 52  1  0  0  0
 40 53  2  0  0  0
 40 58  1  0  0  0
 41106  1  0  0  0
 41107  1  0  0  0
 41108  1  0  0  0
 41 48  1  0  0  0
 42 43  1  0  0  0
 42 66  1  0  0  0
 42109  1  0  0  0
 42110  1  0  0  0
 43 44  1  0  0  0
 44111  1  0  0  0
 45 46  2  0  0  0
 45112  1  0  0  0
 46113  1  0  0  0
 47114  1  0  0  0
 47115  1  0  0  0
 48 56  1  0  0  0
 48 65  1  0  0  0
 48116  1  0  0  0
 49 50  1  0  0  0
 49 53  1  0  0  0
 49 64  1  0  0  0
 49117  1  0  0  0
 50 51  1  0  0  0
 50118  1  0  0  0
 50119  1  0  0  0
 51 52  1  0  0  0
 51120  1  0  0  0
 51121  1  0  0  0
 52122  1  0  0  0
 52123  1  0  0  0
 53 54  1  0  0  0
 54 55  2  0  0  0
 54124  1  0  0  0
 55 57  1  0  0  0
 55125  1  0  0  0
 56 69  2  0  0  0
 57 58  2  0  0  0
 57126  1  0  0  0
 58127  1  0  0  0
 59 60  1  0  0  0
 59 61  1  0  0  0
 59 62  1  0  0  0
 60128  1  0  0  0
 60129  1  0  0  0
 60130  1  0  0  0
 61131  1  0  0  0
 61132  1  0  0  0
 61133  1  0  0  0
 62134  1  0  0  0
 62135  1  0  0  0
 62136  1  0  0  0
 63 65  1  0  0  0
 63137  1  0  0  0
 63138  1  0  0  0
 63139  1  0  0  0
 64140  1  0  0  0
 65141  1  0  0  0
 68 77  1  0  0  0
 71 72  2  0  0  0
 71 81  1  0  0  0
 71142  1  0  0  0
 72 74  1  0  0  0
 72 79  1  0  0  0
 73143  1  0  0  0
 73144  1  0  0  0
 73145  1  0  0  0
 73 78  1  0  0  0
 74 82  1  0  0  0
 74146  1  0  0  0
 74147  1  0  0  0
 75 76  1  0  0  0
 75 78  1  0  0  0
 75148  1  0  0  0
 75149  1  0  0  0
 76 81  1  0  0  0
 76150  1  0  0  0
 76151  1  0  0  0
 77 78  1  0  0  0
 77152  1  0  0  0
 77153  1  0  0  0
 78154  1  0  0  0
 79 80  2  0  0  0
 80 81  1  0  0  0
 82155  1  0  0  0
M  ISO  4   1 100  68 101  77 101  82 100
M  END
> <chiral flag>
0

> <version>
0

> <s_m_source_file>
/data/baiqing/PycharmProjects/Reinvent-master-3.2/result/LINK_invent/BTK/process_docking_weight1_custom_sum_contain_oxygen_bond_distance_aromatic_linkinvent_7_9_3/rearranged_h_0085.sdf

> <i_m_source_file_index>
91

> <r_mmod_Potential_Energy-OPLS-2005>
-146.897735595703

> <r_mmod_Stretch_Energy-OPLS-2005>
51.314208984375

> <r_mmod_Bend_Energy-OPLS-2005>
115.230697631836

> <r_mmod_Torsional_Energy-OPLS-2005>
214.232650756836

> <r_mmod_Improper_Torsional_Energy-OPLS-2005>
3.07134628295898

> <r_mmod_Van_der_Waal_Energy-OPLS-2005>
128.239166259766

> <r_mmod_Electrostatic_Energy-OPLS-2005>
-464.285552978516

> <r_mmod_Solvation_Energy-OPLS-2005>
-221.070388793945

> <b_mmod_Minimization_Converged-OPLS-2005>
0

> <r_mmod_RMS_Derivative-OPLS-2005>
1.62621140480042

$$$$
94
                    3D
 Structure written by MMmdl.
170178  0  0  1  0            999 V2000
  -30.0624  -15.1964   20.3873 C   0  0  0  0  0  0
  -30.4623  -12.8106   19.4495 C   0  0  0  0  0  0
  -29.5237  -12.4923   18.2703 C   0  0  0  0  0  0
  -28.0820  -12.2139   18.7392 C   0  0  0  0  0  0
  -27.5736  -13.2182   19.7987 C   0  0  2  0  0  0
  -28.5623  -13.3188   20.9595 C   0  0  0  0  0  0
  -25.2283  -13.8084   20.5775 C   0  0  0  0  0  0
  -24.1727  -13.0511   20.9262 C   0  0  0  0  0  0
  -24.6184  -11.6857   20.8720 C   0  0  0  0  0  0
  -23.8870  -10.4331   21.0381 C   0  0  0  0  0  0
  -24.3481   -9.4237   21.9146 C   0  0  0  0  0  0
  -23.6246   -8.2228   22.0732 C   0  0  0  0  0  0
  -22.4215   -8.0217   21.3516 C   0  0  0  0  0  0
  -21.9783   -9.0175   20.4624 C   0  0  0  0  0  0
  -22.7027  -10.2089   20.3042 C   0  0  0  0  0  0
  -21.6863   -6.0686   22.5282 C   0  0  0  0  0  0
  -21.3990   -6.5594   23.8212 C   0  0  0  0  0  0
  -21.3637   -5.6753   24.9181 C   0  0  0  0  0  0
  -21.6052   -4.3022   24.7244 C   0  0  0  0  0  0
  -21.8825   -3.8099   23.4375 C   0  0  0  0  0  0
  -21.9212   -4.6912   22.3423 C   0  0  0  0  0  0
  -22.7621  -13.5126   21.2083 C   0  0  0  0  0  0
  -22.1673   -4.2100   21.1004 F   0  0  0  0  0  0
  -21.5640   -3.4535   25.7760 F   0  0  0  0  0  0
  -29.7855  -13.8163   20.3186 N   0  0  0  0  0  0
  -26.2521  -12.9329   20.2813 N   0  0  0  0  0  0
  -25.9024  -11.6439   20.5487 N   0  0  0  0  0  0
  -22.0247  -12.8238   22.0634 N   0  0  0  0  0  0
  -25.3849  -15.1887   20.4296 N   0  0  0  0  0  0
  -31.2484  -15.4885   20.1839 O   0  0  0  0  0  0
  -21.6622   -6.8797   21.4224 O   0  0  0  0  0  0
  -22.3342  -14.5565   20.6960 O   0  0  0  0  0  0
  -24.6041  -31.8911   23.2454 C   0  0  0  0  0  0
  -25.8716  -32.4970   23.8477 C   0  0  1  0  0  0
  -27.1469  -27.4518   20.0231 C   0  0  0  0  0  0
  -25.5876  -33.8842   24.2519 N   0  0  0  0  0  0
  -23.3852  -30.5507   21.5507 C   0  0  2  0  0  0
  -24.8038  -29.0415   20.0747 C   0  0  0  0  0  0
  -22.6900  -29.5199   22.4399 C   0  0  0  0  0  0
  -17.9148  -28.2205   22.8455 C   0  0  0  0  0  0
  -24.1529  -36.7250   23.2681 C   0  0  0  0  0  0
  -25.9284  -30.8435   21.4157 C   0  0  0  0  0  0
  -25.9646  -29.5009   20.7195 C   0  0  0  0  0  0
  -27.1216  -28.6959   20.7143 C   0  0  0  0  0  0
  -25.9870  -27.0620   19.3056 C   0  0  0  0  0  0
  -24.7946  -27.8073   19.4010 C   0  0  0  0  0  0
  -23.5904  -29.9279   20.1411 C   0  0  0  0  0  0
  -25.4120  -36.3194   24.0474 C   0  0  1  0  0  0
  -20.4479  -28.5567   22.9976 C   0  0  2  0  0  0
  -20.5710  -27.1943   22.3498 C   0  0  0  0  0  0
  -19.3646  -26.3906   21.6997 C   0  0  0  0  0  0
  -17.9711  -26.9797   21.9884 C   0  0  0  0  0  0
  -19.0202  -29.0041   23.2197 C   0  0  0  0  0  0
  -18.7506  -30.2731   23.7518 C   0  0  0  0  0  0
  -17.4651  -30.7642   23.9335 C   0  0  0  0  0  0
  -25.9024  -34.9540   23.5142 C   0  0  0  0  0  0
  -16.3787  -29.9786   23.6318 C   0  0  0  0  0  0
  -16.6290  -28.7080   23.0717 C   0  0  0  0  0  0
  -26.4224  -31.6739   25.0643 C   0  0  0  0  0  0
  -25.3571  -31.3630   26.1424 C   0  0  0  0  0  0
  -26.9954  -30.3214   24.5863 C   0  0  0  0  0  0
  -27.5928  -32.4535   25.7102 C   0  0  0  0  0  0
  -27.5593  -37.1845   24.8500 C   0  0  0  0  0  0
  -21.3525  -29.4847   22.2915 N   0  0  0  0  0  0
  -26.4299  -37.3891   23.9420 N   0  0  0  0  0  0
  -24.6488  -31.0951   22.1314 N   0  0  0  0  0  0
  -23.3053  -28.8039   23.2249 O   0  0  0  0  0  0
  -28.2920  -26.6736   19.9928 O   0  0  0  0  0  0
  -26.5534  -34.8987   22.4689 O   0  0  0  0  0  0
  -23.5236  -32.1776   23.7868 O   0  0  0  0  0  0
  -26.4987  -19.6160   19.5212 C   0  0  0  0  0  0
  -25.3971  -20.5803   19.5180 C   0  0  0  0  0  0
  -24.6533  -20.8477   20.6931 C   0  0  0  0  0  0
  -26.8173  -18.6965   20.6026 C   0  0  0  0  0  0
  -25.0451  -20.0806   21.8625 C   0  0  0  0  0  0
  -23.5600  -21.9785   20.6868 C   0  0  0  0  0  0
  -24.2696  -22.1609   23.6380 C   0  0  0  0  0  0
  -24.6011  -19.7904   24.5990 C   0  0  0  0  0  0
  -24.9666  -21.4301   18.2765 C   0  0  0  0  0  0
  -28.3024  -17.7009   20.7090 C   0  0  0  0  0  0
  -25.3466  -22.9762   18.2386 C   0  0  0  0  0  0
  -26.6941  -23.4127   18.8645 C   0  0  0  0  0  0
  -26.8971  -24.3751   20.1218 C   0  0  0  0  0  0
  -28.2143  -25.2394   19.9634 C   0  0  0  0  0  0
  -24.3060  -20.5780   23.2492 C   0  0  0  0  0  0
  -26.0529  -19.0460   21.7357 N   0  0  0  0  0  0
  -28.9414  -16.1836   20.6177 N   0  0  0  0  0  0
  -31.3806  -13.2527   19.0366 H   0  0  0  0  0  0
  -30.8589  -11.9527   20.0301 H   0  0  0  0  0  0
  -29.9206  -11.6996   17.6608 H   0  0  0  0  0  0
  -29.4991  -13.3736   17.6419 H   0  0  0  0  0  0
  -28.0706  -11.1951   19.1600 H   0  0  0  0  0  0
  -27.4185  -12.1819   17.8679 H   0  0  0  0  0  0
  -27.5223  -14.1795   19.2773 H   0  0  0  0  0  0
  -28.7047  -12.3726   21.5155 H   0  0  0  0  0  0
  -28.1711  -14.0552   21.6637 H   0  0  0  0  0  0
  -25.2625   -9.5833   22.4714 H   0  0  0  0  0  0
  -24.0011   -7.4653   22.7466 H   0  0  0  0  0  0
  -21.0702   -8.8606   19.9001 H   0  0  0  0  0  0
  -22.3372  -10.9609   19.6194 H   0  0  0  0  0  0
  -21.1914   -7.6110   23.9688 H   0  0  0  0  0  0
  -21.1450   -6.0500   25.9082 H   0  0  0  0  0  0
  -22.0620   -2.7578   23.2904 H   0  0  0  0  0  0
  -22.3705  -11.9811   22.5119 H   0  0  0  0  0  0
  -21.0807  -13.1236   22.2692 H   0  0  0  0  0  0
  -24.6054  -15.8284   20.5783 H   0  0  0  0  0  0
  -26.2426  -15.6766   20.1957 H   0  0  0  0  0  0
  -26.6529  -32.5468   23.1015 H   0  0  0  0  0  0
  -25.0470  -34.0101   25.0945 H   0  0  0  0  0  0
  -22.7057  -31.4023   21.4244 H   0  0  0  0  0  0
  -23.3897  -35.9475   23.3374 H   0  0  0  0  0  0
  -24.3685  -36.8787   22.2085 H   0  0  0  0  0  0
  -23.7028  -37.6440   23.6520 H   0  0  0  0  0  0
  -26.0887  -31.6375   20.6858 H   0  0  0  0  0  0
  -26.7958  -30.8303   22.0600 H   0  0  0  0  0  0
  -27.9930  -29.0145   21.2564 H   0  0  0  0  0  0
  -25.9551  -26.2082   18.6251 H   0  0  0  0  0  0
  -23.8960  -27.5024   18.8659 H   0  0  0  0  0  0
  -23.7053  -30.7238   19.4013 H   0  0  0  0  0  0
  -22.7050  -29.4026   19.7893 H   0  0  0  0  0  0
  -25.1220  -36.2238   25.1023 H   0  0  0  0  0  0
  -20.8009  -28.4223   24.0058 H   0  0  0  0  0  0
  -21.0062  -26.5322   23.0829 H   0  0  0  0  0  0
  -21.3300  -27.1938   21.6006 H   0  0  0  0  0  0
  -19.2920  -25.3998   22.1162 H   0  0  0  0  0  0
  -19.5736  -26.1806   20.6163 H   0  0  0  0  0  0
  -17.6274  -27.2746   20.9631 H   0  0  0  0  0  0
  -17.1889  -26.3100   22.2904 H   0  0  0  0  0  0
  -19.5406  -30.9678   23.9220 H   0  0  0  0  0  0
  -17.3128  -31.7698   24.2574 H   0  0  0  0  0  0
  -15.3505  -30.4241   23.7558 H   0  0  0  0  0  0
  -15.7208  -28.1687   22.7973 H   0  0  0  0  0  0
  -24.6050  -30.7020   25.7177 H   0  0  0  0  0  0
  -24.8428  -32.2571   26.5041 H   0  0  0  0  0  0
  -25.7837  -30.8325   27.0007 H   0  0  0  0  0  0
  -26.2295  -29.7302   24.0964 H   0  0  0  0  0  0
  -27.3670  -29.7150   25.4103 H   0  0  0  0  0  0
  -27.8114  -30.4478   23.8755 H   0  0  0  0  0  0
  -27.2620  -33.3952   26.1594 H   0  0  0  0  0  0
  -28.3493  -32.7244   24.9612 H   0  0  0  0  0  0
  -28.0886  -31.8872   26.5073 H   0  0  0  0  0  0
  -28.2688  -38.0116   24.7629 H   0  0  0  0  0  0
  -28.1050  -36.2661   24.6229 H   0  0  0  0  0  0
  -27.2330  -37.1334   25.8934 H   0  0  0  0  0  0
  -20.9468  -30.1793   21.6241 H   0  0  0  0  0  0
  -26.0299  -38.3046   24.1422 H   0  0  0  0  0  0
  -27.2940  -19.6895   18.7770 H   0  0  0  0  0  0
  -22.7253  -21.8889   21.3420 H   0  0  0  0  0  0
  -23.0378  -22.0362   19.6948 H   0  0  0  0  0  0
  -24.1135  -22.9642   20.8631 H   0  0  0  0  0  0
  -23.6950  -22.3696   24.5726 H   0  0  0  0  0  0
  -23.7631  -22.8621   22.9235 H   0  0  0  0  0  0
  -25.1903  -22.6185   23.9986 H   0  0  0  0  0  0
  -23.9238  -20.1919   25.4015 H   0  0  0  0  0  0
  -25.6041  -19.7945   25.1305 H   0  0  0  0  0  0
  -24.3389  -18.7182   24.4317 H   0  0  0  0  0  0
  -23.9279  -21.2703   18.1429 H   0  0  0  0  0  0
  -25.1285  -20.8829   17.3490 H   0  0  0  0  0  0
  -27.9737  -17.4049   21.7145 H   0  0  0  0  0  0
  -29.1090  -18.4247   20.8480 H   0  0  0  0  0  0
  -24.5701  -23.5219   18.7806 H   0  0  0  0  0  0
  -25.2496  -23.3118   17.2031 H   0  0  0  0  0  0
  -27.2002  -23.9263   18.0782 H   0  0  0  0  0  0
  -27.3647  -22.5805   18.9681 H   0  0  0  0  0  0
  -27.0551  -23.7128   20.9558 H   0  0  0  0  0  0
  -26.0262  -24.9156   20.4336 H   0  0  0  0  0  0
  -28.8058  -24.8986   19.1060 H   0  0  0  0  0  0
  -28.8179  -24.9570   20.8311 H   0  0  0  0  0  0
  -23.2317  -20.3826   23.1588 H   0  0  0  0  0  0
  -29.5420  -16.5494   21.3268 H   0  0  0  0  0  0
  1 25  1  0  0  0
  1 30  2  0  0  0
  1 87  1  0  0  0
  2  3  1  0  0  0
  2 25  1  0  0  0
  2 88  1  0  0  0
  2 89  1  0  0  0
  3  4  1  0  0  0
  3 90  1  0  0  0
  3 91  1  0  0  0
  4  5  1  0  0  0
  4 92  1  0  0  0
  4 93  1  0  0  0
  5  6  1  0  0  0
  5 26  1  0  0  0
  5 94  1  0  0  0
  6 25  1  0  0  0
  6 95  1  0  0  0
  6 96  1  0  0  0
  7  8  2  0  0  0
  7 26  1  0  0  0
  7 29  1  0  0  0
  8  9  1  0  0  0
  8 22  1  0  0  0
  9 10  1  0  0  0
  9 27  2  0  0  0
 10 11  2  0  0  0
 10 15  1  0  0  0
 11 12  1  0  0  0
 11 97  1  0  0  0
 12 13  2  0  0  0
 12 98  1  0  0  0
 13 14  1  0  0  0
 13 31  1  0  0  0
 14 15  2  0  0  0
 14 99  1  0  0  0
 15100  1  0  0  0
 16 17  2  0  0  0
 16 21  1  0  0  0
 16 31  1  0  0  0
 17 18  1  0  0  0
 17101  1  0  0  0
 18 19  2  0  0  0
 18102  1  0  0  0
 19 20  1  0  0  0
 19 24  1  0  0  0
 20 21  2  0  0  0
 20103  1  0  0  0
 21 23  1  0  0  0
 22 28  1  0  0  0
 22 32  2  0  0  0
 26 27  1  0  0  0
 28104  1  0  0  0
 28105  1  0  0  0
 29106  1  0  0  0
 29107  1  0  0  0
 33 34  1  0  0  0
 33 66  1  0  0  0
 33 70  2  0  0  0
 34 36  1  0  0  0
 34 59  1  0  0  0
 34108  1  0  0  0
 35 44  2  0  0  0
 35 45  1  0  0  0
 35 68  1  0  0  0
 36 56  1  0  0  0
 36109  1  0  0  0
 37 39  1  0  0  0
 37 47  1  0  0  0
 37 66  1  0  0  0
 37110  1  0  0  0
 38 43  2  0  0  0
 38 46  1  0  0  0
 38 47  1  0  0  0
 39 64  1  0  0  0
 39 67  2  0  0  0
 40 52  1  0  0  0
 40 53  2  0  0  0
 40 58  1  0  0  0
 41111  1  0  0  0
 41112  1  0  0  0
 41113  1  0  0  0
 41 48  1  0  0  0
 42 43  1  0  0  0
 42 66  1  0  0  0
 42114  1  0  0  0
 42115  1  0  0  0
 43 44  1  0  0  0
 44116  1  0  0  0
 45 46  2  0  0  0
 45117  1  0  0  0
 46118  1  0  0  0
 47119  1  0  0  0
 47120  1  0  0  0
 48 56  1  0  0  0
 48 65  1  0  0  0
 48121  1  0  0  0
 49 50  1  0  0  0
 49 53  1  0  0  0
 49 64  1  0  0  0
 49122  1  0  0  0
 50 51  1  0  0  0
 50123  1  0  0  0
 50124  1  0  0  0
 51 52  1  0  0  0
 51125  1  0  0  0
 51126  1  0  0  0
 52127  1  0  0  0
 52128  1  0  0  0
 53 54  1  0  0  0
 54 55  2  0  0  0
 54129  1  0  0  0
 55 57  1  0  0  0
 55130  1  0  0  0
 56 69  2  0  0  0
 57 58  2  0  0  0
 57131  1  0  0  0
 58132  1  0  0  0
 59 60  1  0  0  0
 59 61  1  0  0  0
 59 62  1  0  0  0
 60133  1  0  0  0
 60134  1  0  0  0
 60135  1  0  0  0
 61136  1  0  0  0
 61137  1  0  0  0
 61138  1  0  0  0
 62139  1  0  0  0
 62140  1  0  0  0
 62141  1  0  0  0
 63 65  1  0  0  0
 63142  1  0  0  0
 63143  1  0  0  0
 63144  1  0  0  0
 64145  1  0  0  0
 65146  1  0  0  0
 68 84  1  0  0  0
 71 72  2  0  0  0
 71 74  1  0  0  0
 71147  1  0  0  0
 72 73  1  0  0  0
 72 79  1  0  0  0
 73 75  2  0  0  0
 73 76  1  0  0  0
 74 80  1  0  0  0
 74 86  2  0  0  0
 75 85  1  0  0  0
 75 86  1  0  0  0
 76148  1  0  0  0
 76149  1  0  0  0
 76150  1  0  0  0
 77151  1  0  0  0
 77152  1  0  0  0
 77153  1  0  0  0
 77 85  1  0  0  0
 78 85  1  0  0  0
 78154  1  0  0  0
 78155  1  0  0  0
 78156  1  0  0  0
 79 81  1  0  0  0
 79157  1  0  0  0
 79158  1  0  0  0
 80 87  1  0  0  0
 80159  1  0  0  0
 80160  1  0  0  0
 81 82  1  0  0  0
 81161  1  0  0  0
 81162  1  0  0  0
 82 83  1  0  0  0
 82163  1  0  0  0
 82164  1  0  0  0
 83 84  1  0  0  0
 83165  1  0  0  0
 83166  1  0  0  0
 84167  1  0  0  0
 84168  1  0  0  0
 85169  1  0  0  0
 87170  1  0  0  0
M  ISO  4   1 100  68 101  84 101  87 100
M  END
> <chiral flag>
0

> <version>
0

> <s_m_source_file>
/data/baiqing/PycharmProjects/Reinvent-master-3.2/result/LINK_invent/BTK/process_docking_weight1_custom_sum_contain_oxygen_bond_distance_aromatic_linkinvent_7_9_3/rearranged_h_0085.sdf

> <i_m_source_file_index>
92

> <r_mmod_Potential_Energy-OPLS-2005>
1255.51013183594

> <r_mmod_Stretch_Energy-OPLS-2005>
424.126770019531

> <r_mmod_Bend_Energy-OPLS-2005>
716.146911621094

> <r_mmod_Torsional_Energy-OPLS-2005>
339.227172851562

> <r_mmod_Improper_Torsional_Energy-OPLS-2005>
14.6047782897949

> <r_mmod_Van_der_Waal_Energy-OPLS-2005>
191.837615966797

> <r_mmod_Electrostatic_Energy-OPLS-2005>
-629.751831054688

> <r_mmod_Solvation_Energy-OPLS-2005>
-223.043594360352

> <b_mmod_Minimization_Converged-OPLS-2005>
0

> <r_mmod_RMS_Derivative-OPLS-2005>
85.510139465332

$$$$
95
                    3D
 Structure written by MMmdl.
166174  0  0  1  0            999 V2000
  -30.7269  -14.3803   20.6928 C   0  0  0  0  0  0
  -30.4191  -12.3025   19.3795 C   0  0  0  0  0  0
  -29.4797  -12.5256   18.1800 C   0  0  0  0  0  0
  -28.0024  -12.3856   18.5952 C   0  0  0  0  0  0
  -27.6596  -13.1978   19.8722 C   0  0  2  0  0  0
  -28.6961  -12.9170   20.9776 C   0  0  0  0  0  0
  -25.2610  -13.8164   20.5676 C   0  0  0  0  0  0
  -24.1859  -13.0464   20.9211 C   0  0  0  0  0  0
  -24.6391  -11.6921   20.8741 C   0  0  0  0  0  0
  -23.9061  -10.4305   21.0402 C   0  0  0  0  0  0
  -24.3620   -9.4217   21.9177 C   0  0  0  0  0  0
  -23.6299   -8.2250   22.0743 C   0  0  0  0  0  0
  -22.4290   -8.0285   21.3530 C   0  0  0  0  0  0
  -21.9922   -9.0256   20.4626 C   0  0  0  0  0  0
  -22.7248  -10.2140   20.3032 C   0  0  0  0  0  0
  -21.6845   -6.0766   22.5284 C   0  0  0  0  0  0
  -21.4008   -6.5661   23.8218 C   0  0  0  0  0  0
  -21.3643   -5.6807   24.9171 C   0  0  0  0  0  0
  -21.6042   -4.3070   24.7220 C   0  0  0  0  0  0
  -21.8819   -3.8169   23.4335 C   0  0  0  0  0  0
  -21.9200   -4.6993   22.3397 C   0  0  0  0  0  0
  -22.7881  -13.5251   21.1874 C   0  0  0  0  0  0
  -22.1666   -4.2193   21.0972 F   0  0  0  0  0  0
  -21.5628   -3.4536   25.7722 F   0  0  0  0  0  0
  -30.0326  -13.2392   20.4439 N   0  0  0  0  0  0
  -26.3006  -12.9300   20.3317 N   0  0  0  0  0  0
  -25.9291  -11.6470   20.5718 N   0  0  0  0  0  0
  -22.0504  -12.8202   22.0392 N   0  0  0  0  0  0
  -25.4415  -15.1857   20.4048 N   0  0  0  0  0  0
  -31.7663  -14.6874   20.0985 O   0  0  0  0  0  0
  -21.6636   -6.8905   21.4247 O   0  0  0  0  0  0
  -22.3559  -14.5569   20.6752 O   0  0  0  0  0  0
  -24.6104  -31.8677   23.2086 C   0  0  0  0  0  0
  -25.8978  -32.4836   23.8403 C   0  0  1  0  0  0
  -27.2395  -27.4341   20.0868 C   0  0  0  0  0  0
  -25.5824  -33.8647   24.2325 N   0  0  0  0  0  0
  -23.4002  -30.4859   21.5510 C   0  0  2  0  0  0
  -24.8445  -28.9481   20.1161 C   0  0  0  0  0  0
  -22.7406  -29.4615   22.5033 C   0  0  0  0  0  0
  -18.0270  -28.1338   22.8485 C   0  0  0  0  0  0
  -24.1468  -36.7298   23.2655 C   0  0  0  0  0  0
  -25.9272  -30.8292   21.3618 C   0  0  0  0  0  0
  -26.0028  -29.4635   20.7081 C   0  0  0  0  0  0
  -27.1996  -28.7130   20.6861 C   0  0  0  0  0  0
  -26.0556  -26.9248   19.5063 C   0  0  0  0  0  0
  -24.8668  -27.6773   19.5153 C   0  0  0  0  0  0
  -23.6028  -29.8096   20.1678 C   0  0  0  0  0  0
  -25.4097  -36.3145   24.0349 C   0  0  1  0  0  0
  -20.5853  -28.3590   23.1355 C   0  0  2  0  0  0
  -20.6733  -26.9329   22.5428 C   0  0  0  0  0  0
  -19.5729  -26.6346   21.5204 C   0  0  0  0  0  0
  -18.1905  -26.7907   22.1591 C   0  0  0  0  0  0
  -19.1521  -28.8791   23.2915 C   0  0  0  0  0  0
  -18.9457  -30.1401   23.8909 C   0  0  0  0  0  0
  -17.6458  -30.6554   24.0551 C   0  0  0  0  0  0
  -25.9018  -34.9496   23.5163 C   0  0  0  0  0  0
  -16.5340  -29.9040   23.6343 C   0  0  0  0  0  0
  -16.7265  -28.6456   23.0376 C   0  0  0  0  0  0
  -26.4395  -31.6641   25.0753 C   0  0  0  0  0  0
  -25.3641  -31.3686   26.1487 C   0  0  0  0  0  0
  -27.0222  -30.3122   24.6073 C   0  0  0  0  0  0
  -27.6028  -32.4326   25.7467 C   0  0  0  0  0  0
  -27.5582  -37.1801   24.8482 C   0  0  0  0  0  0
  -21.4140  -29.2984   22.3783 N   0  0  0  0  0  0
  -26.4305  -37.3822   23.9425 N   0  0  0  0  0  0
  -24.6647  -31.0766   22.0976 N   0  0  0  0  0  0
  -23.4195  -28.8170   23.3086 O   0  0  0  0  0  0
  -28.4458  -26.7603   20.0757 O   0  0  0  0  0  0
  -26.5642  -34.8928   22.4757 O   0  0  0  0  0  0
  -23.5292  -32.1426   23.7446 O   0  0  0  0  0  0
  -27.4424  -18.5235   21.5221 C   0  0  0  0  0  0
  -29.0545  -19.9506   22.1023 C   0  0  0  0  0  0
  -26.8882  -19.7769   21.5368 C   0  0  0  0  0  0
  -27.9203  -20.6962   21.9085 C   0  0  0  0  0  0
  -25.4464  -20.1035   21.2368 C   0  0  0  0  0  0
  -28.3426  -22.5938   23.4902 C   0  0  0  0  0  0
  -30.9690  -14.9652   23.0354 C   0  0  0  0  0  0
  -28.0480  -24.5241   20.9996 C   0  0  0  0  0  0
  -28.4015  -23.0149   20.9459 C   0  0  0  0  0  0
  -29.7349  -17.5292   22.0529 C   0  0  0  0  0  0
  -29.2328  -16.1226   21.6381 C   0  0  0  0  0  0
  -28.5084  -25.3575   19.7847 C   0  0  0  0  0  0
  -27.7847  -22.1976   22.1105 C   0  0  1  0  0  0
  -28.7729  -18.6147   21.8824 N   0  0  0  0  0  0
  -30.2783  -15.0870   21.7529 N   0  0  0  0  0  0
  -31.4606  -12.4228   19.0768 H   0  0  0  0  0  0
  -30.3345  -11.2778   19.7442 H   0  0  0  0  0  0
  -29.7087  -11.8157   17.3846 H   0  0  0  0  0  0
  -29.6502  -13.5170   17.7572 H   0  0  0  0  0  0
  -27.7966  -11.3263   18.7619 H   0  0  0  0  0  0
  -27.3525  -12.6925   17.7722 H   0  0  0  0  0  0
  -27.7221  -14.2532   19.6075 H   0  0  0  0  0  0
  -28.6706  -11.8658   21.2624 H   0  0  0  0  0  0
  -28.4332  -13.4575   21.8862 H   0  0  0  0  0  0
  -25.2768   -9.5715   22.4735 H   0  0  0  0  0  0
  -24.0037   -7.4645   22.7431 H   0  0  0  0  0  0
  -21.0883   -8.8766   19.8894 H   0  0  0  0  0  0
  -22.3724  -10.9681   19.6122 H   0  0  0  0  0  0
  -21.1976   -7.6166   23.9746 H   0  0  0  0  0  0
  -21.1457   -6.0519   25.9089 H   0  0  0  0  0  0
  -22.0606   -2.7633   23.2812 H   0  0  0  0  0  0
  -22.4120  -11.9837   22.4745 H   0  0  0  0  0  0
  -21.1085  -13.1152   22.2531 H   0  0  0  0  0  0
  -24.6841  -15.8529   20.5071 H   0  0  0  0  0  0
  -26.2852  -15.5982   20.0305 H   0  0  0  0  0  0
  -26.7011  -32.5520   23.1137 H   0  0  0  0  0  0
  -24.9958  -33.9812   25.0463 H   0  0  0  0  0  0
  -22.6883  -31.3001   21.4064 H   0  0  0  0  0  0
  -23.3782  -35.9592   23.3361 H   0  0  0  0  0  0
  -24.3596  -36.8889   22.2077 H   0  0  0  0  0  0
  -23.7135  -37.6473   23.6642 H   0  0  0  0  0  0
  -26.0449  -31.5922   20.5899 H   0  0  0  0  0  0
  -26.8140  -30.8803   21.9828 H   0  0  0  0  0  0
  -28.0987  -29.1115   21.1322 H   0  0  0  0  0  0
  -26.0264  -25.9522   19.0361 H   0  0  0  0  0  0
  -23.9732  -27.2710   19.0632 H   0  0  0  0  0  0
  -23.6879  -30.5766   19.3979 H   0  0  0  0  0  0
  -22.7277  -29.2192   19.8866 H   0  0  0  0  0  0
  -25.1257  -36.2060   25.0848 H   0  0  0  0  0  0
  -20.9941  -28.3094   24.1474 H   0  0  0  0  0  0
  -20.5598  -26.2179   23.3590 H   0  0  0  0  0  0
  -21.6594  -26.7345   22.1229 H   0  0  0  0  0  0
  -19.6900  -25.6277   21.1196 H   0  0  0  0  0  0
  -19.6698  -27.3174   20.6764 H   0  0  0  0  0  0
  -17.4183  -26.6717   21.3970 H   0  0  0  0  0  0
  -18.0254  -26.0014   22.8937 H   0  0  0  0  0  0
  -19.7937  -30.7216   24.2273 H   0  0  0  0  0  0
  -17.5010  -31.6256   24.5112 H   0  0  0  0  0  0
  -15.5341  -30.2933   23.7681 H   0  0  0  0  0  0
  -15.8661  -28.0760   22.7128 H   0  0  0  0  0  0
  -24.5928  -30.6887   25.7847 H   0  0  0  0  0  0
  -24.8643  -32.2767   26.4868 H   0  0  0  0  0  0
  -25.7994  -30.8967   27.0305 H   0  0  0  0  0  0
  -26.2731  -29.6922   24.1128 H   0  0  0  0  0  0
  -27.4061  -29.7327   25.4488 H   0  0  0  0  0  0
  -27.8534  -30.4555   23.9166 H   0  0  0  0  0  0
  -27.2766  -33.3698   26.1989 H   0  0  0  0  0  0
  -28.3825  -32.6764   25.0238 H   0  0  0  0  0  0
  -28.0671  -31.8441   26.5389 H   0  0  0  0  0  0
  -28.2631  -38.0077   24.7568 H   0  0  0  0  0  0
  -28.1029  -36.2618   24.6254 H   0  0  0  0  0  0
  -27.2312  -37.1421   25.8891 H   0  0  0  0  0  0
  -20.9279  -29.8733   21.7034 H   0  0  0  0  0  0
  -26.0216  -38.2921   24.1435 H   0  0  0  0  0  0
  -26.9942  -17.5635   21.3050 H   0  0  0  0  0  0
  -30.0468  -20.2562   22.4088 H   0  0  0  0  0  0
  -24.8702  -19.1925   21.0678 H   0  0  0  0  0  0
  -25.3694  -20.7244   20.3443 H   0  0  0  0  0  0
  -24.9886  -20.6390   22.0697 H   0  0  0  0  0  0
  -27.8424  -22.0251   24.2764 H   0  0  0  0  0  0
  -28.1828  -23.6487   23.7116 H   0  0  0  0  0  0
  -29.4121  -22.3959   23.5699 H   0  0  0  0  0  0
  -30.2976  -15.1819   23.8679 H   0  0  0  0  0  0
  -31.8206  -15.6455   23.0861 H   0  0  0  0  0  0
  -31.3406  -13.9486   23.1839 H   0  0  0  0  0  0
  -28.5028  -24.9614   21.8885 H   0  0  0  0  0  0
  -26.9695  -24.6380   21.1152 H   0  0  0  0  0  0
  -29.4843  -22.8773   20.9263 H   0  0  0  0  0  0
  -28.0337  -22.6078   20.0047 H   0  0  0  0  0  0
  -30.6324  -17.7900   21.4940 H   0  0  0  0  0  0
  -30.0139  -17.5205   23.1079 H   0  0  0  0  0  0
  -28.8540  -16.1568   20.6138 H   0  0  0  0  0  0
  -28.3814  -15.8291   22.2566 H   0  0  0  0  0  0
  -27.9779  -25.0919   18.8694 H   0  0  0  0  0  0
  -29.5558  -25.1331   19.5801 H   0  0  0  0  0  0
  -26.7155  -22.4151   22.1251 H   0  0  0  0  0  0
  1 25  1  0  0  0
  1 30  2  0  0  0
  1 85  1  0  0  0
  2  3  1  0  0  0
  2 25  1  0  0  0
  2 86  1  0  0  0
  2 87  1  0  0  0
  3  4  1  0  0  0
  3 88  1  0  0  0
  3 89  1  0  0  0
  4  5  1  0  0  0
  4 90  1  0  0  0
  4 91  1  0  0  0
  5  6  1  0  0  0
  5 26  1  0  0  0
  5 92  1  0  0  0
  6 25  1  0  0  0
  6 93  1  0  0  0
  6 94  1  0  0  0
  7  8  2  0  0  0
  7 26  1  0  0  0
  7 29  1  0  0  0
  8  9  1  0  0  0
  8 22  1  0  0  0
  9 10  1  0  0  0
  9 27  2  0  0  0
 10 11  2  0  0  0
 10 15  1  0  0  0
 11 12  1  0  0  0
 11 95  1  0  0  0
 12 13  2  0  0  0
 12 96  1  0  0  0
 13 14  1  0  0  0
 13 31  1  0  0  0
 14 15  2  0  0  0
 14 97  1  0  0  0
 15 98  1  0  0  0
 16 17  2  0  0  0
 16 21  1  0  0  0
 16 31  1  0  0  0
 17 18  1  0  0  0
 17 99  1  0  0  0
 18 19  2  0  0  0
 18100  1  0  0  0
 19 20  1  0  0  0
 19 24  1  0  0  0
 20 21  2  0  0  0
 20101  1  0  0  0
 21 23  1  0  0  0
 22 28  1  0  0  0
 22 32  2  0  0  0
 26 27  1  0  0  0
 28102  1  0  0  0
 28103  1  0  0  0
 29104  1  0  0  0
 29105  1  0  0  0
 33 34  1  0  0  0
 33 66  1  0  0  0
 33 70  2  0  0  0
 34 36  1  0  0  0
 34 59  1  0  0  0
 34106  1  0  0  0
 35 44  2  0  0  0
 35 45  1  0  0  0
 35 68  1  0  0  0
 36 56  1  0  0  0
 36107  1  0  0  0
 37 39  1  0  0  0
 37 47  1  0  0  0
 37 66  1  0  0  0
 37108  1  0  0  0
 38 43  2  0  0  0
 38 46  1  0  0  0
 38 47  1  0  0  0
 39 64  1  0  0  0
 39 67  2  0  0  0
 40 52  1  0  0  0
 40 53  2  0  0  0
 40 58  1  0  0  0
 41109  1  0  0  0
 41110  1  0  0  0
 41111  1  0  0  0
 41 48  1  0  0  0
 42 43  1  0  0  0
 42 66  1  0  0  0
 42112  1  0  0  0
 42113  1  0  0  0
 43 44  1  0  0  0
 44114  1  0  0  0
 45 46  2  0  0  0
 45115  1  0  0  0
 46116  1  0  0  0
 47117  1  0  0  0
 47118  1  0  0  0
 48 56  1  0  0  0
 48 65  1  0  0  0
 48119  1  0  0  0
 49 50  1  0  0  0
 49 53  1  0  0  0
 49 64  1  0  0  0
 49120  1  0  0  0
 50 51  1  0  0  0
 50121  1  0  0  0
 50122  1  0  0  0
 51 52  1  0  0  0
 51123  1  0  0  0
 51124  1  0  0  0
 52125  1  0  0  0
 52126  1  0  0  0
 53 54  1  0  0  0
 54 55  2  0  0  0
 54127  1  0  0  0
 55 57  1  0  0  0
 55128  1  0  0  0
 56 69  2  0  0  0
 57 58  2  0  0  0
 57129  1  0  0  0
 58130  1  0  0  0
 59 60  1  0  0  0
 59 61  1  0  0  0
 59 62  1  0  0  0
 60131  1  0  0  0
 60132  1  0  0  0
 60133  1  0  0  0
 61134  1  0  0  0
 61135  1  0  0  0
 61136  1  0  0  0
 62137  1  0  0  0
 62138  1  0  0  0
 62139  1  0  0  0
 63 65  1  0  0  0
 63140  1  0  0  0
 63141  1  0  0  0
 63142  1  0  0  0
 64143  1  0  0  0
 65144  1  0  0  0
 68 82  1  0  0  0
 71 73  2  0  0  0
 71 84  1  0  0  0
 71145  1  0  0  0
 72 74  2  0  0  0
 72 84  1  0  0  0
 72146  1  0  0  0
 73 74  1  0  0  0
 73 75  1  0  0  0
 74 83  1  0  0  0
 75147  1  0  0  0
 75148  1  0  0  0
 75149  1  0  0  0
 76150  1  0  0  0
 76151  1  0  0  0
 76152  1  0  0  0
 76 83  1  0  0  0
 77 85  1  0  0  0
 77153  1  0  0  0
 77154  1  0  0  0
 77155  1  0  0  0
 78 79  1  0  0  0
 78 82  1  0  0  0
 78156  1  0  0  0
 78157  1  0  0  0
 79 83  1  0  0  0
 79158  1  0  0  0
 79159  1  0  0  0
 80 81  1  0  0  0
 80 84  1  0  0  0
 80160  1  0  0  0
 80161  1  0  0  0
 81 85  1  0  0  0
 81162  1  0  0  0
 81163  1  0  0  0
 82164  1  0  0  0
 82165  1  0  0  0
 83166  1  0  0  0
M  ISO  4   1 100  68 101  82 101  85 100
M  END
> <chiral flag>
0

> <version>
0

> <s_m_source_file>
/data/baiqing/PycharmProjects/Reinvent-master-3.2/result/LINK_invent/BTK/process_docking_weight1_custom_sum_contain_oxygen_bond_distance_aromatic_linkinvent_7_9_3/rearranged_h_0085.sdf

> <i_m_source_file_index>
93

> <r_mmod_Potential_Energy-OPLS-2005>
52.1270561218262

> <r_mmod_Stretch_Energy-OPLS-2005>
34.9994430541992

> <r_mmod_Bend_Energy-OPLS-2005>
103.165809631348

> <r_mmod_Torsional_Energy-OPLS-2005>
302.689788818359

> <r_mmod_Improper_Torsional_Energy-OPLS-2005>
3.5098249912262

> <r_mmod_Van_der_Waal_Energy-OPLS-2005>
124.218101501465

> <r_mmod_Electrostatic_Energy-OPLS-2005>
-336.363922119141

> <r_mmod_Solvation_Energy-OPLS-2005>
-189.242645263672

> <b_mmod_Minimization_Converged-OPLS-2005>
0

> <r_mmod_RMS_Derivative-OPLS-2005>
4.19219446182251

$$$$
96
                    3D
 Structure written by MMmdl.
162170  0  0  1  0            999 V2000
  -30.6289  -14.6976   20.4631 C   0  0  0  0  0  0
  -30.4267  -12.4234   19.4730 C   0  0  0  0  0  0
  -29.5070  -12.4995   18.2348 C   0  0  0  0  0  0
  -28.0313  -12.3348   18.6463 C   0  0  0  0  0  0
  -27.6432  -13.2296   19.8548 C   0  0  2  0  0  0
  -28.6867  -13.1463   20.9905 C   0  0  0  0  0  0
  -25.2510  -13.8201   20.5707 C   0  0  0  0  0  0
  -24.1798  -13.0443   20.9202 C   0  0  0  0  0  0
  -24.6388  -11.6919   20.8749 C   0  0  0  0  0  0
  -23.9066  -10.4295   21.0409 C   0  0  0  0  0  0
  -24.3618   -9.4209   21.9184 C   0  0  0  0  0  0
  -23.6295   -8.2242   22.0752 C   0  0  0  0  0  0
  -22.4276   -8.0279   21.3543 C   0  0  0  0  0  0
  -21.9911   -9.0254   20.4645 C   0  0  0  0  0  0
  -22.7239  -10.2134   20.3056 C   0  0  0  0  0  0
  -21.6852   -6.0734   22.5279 C   0  0  0  0  0  0
  -21.4016   -6.5637   23.8213 C   0  0  0  0  0  0
  -21.3663   -5.6790   24.9173 C   0  0  0  0  0  0
  -21.6044   -4.3053   24.7224 C   0  0  0  0  0  0
  -21.8821   -3.8146   23.4346 C   0  0  0  0  0  0
  -21.9194   -4.6963   22.3402 C   0  0  0  0  0  0
  -22.7821  -13.5223   21.1862 C   0  0  0  0  0  0
  -22.1661   -4.2149   21.0979 F   0  0  0  0  0  0
  -21.5628   -3.4536   25.7736 F   0  0  0  0  0  0
  -29.9930  -13.4811   20.4122 N   0  0  0  0  0  0
  -26.2940  -12.9405   20.3307 N   0  0  0  0  0  0
  -25.9321  -11.6547   20.5767 N   0  0  0  0  0  0
  -22.0470  -12.8219   22.0424 N   0  0  0  0  0  0
  -25.4192  -15.1930   20.4147 N   0  0  0  0  0  0
  -31.8118  -14.7945   20.1261 O   0  0  0  0  0  0
  -21.6639   -6.8878   21.4240 O   0  0  0  0  0  0
  -22.3507  -14.5527   20.6704 O   0  0  0  0  0  0
  -24.6284  -31.8557   23.1980 C   0  0  0  0  0  0
  -25.9114  -32.4756   23.8329 C   0  0  1  0  0  0
  -27.2257  -27.2849   20.1167 C   0  0  0  0  0  0
  -25.5917  -33.8561   24.2256 N   0  0  0  0  0  0
  -23.4238  -30.4771   21.5410 C   0  0  2  0  0  0
  -24.8693  -28.9233   20.1091 C   0  0  0  0  0  0
  -22.7485  -29.4596   22.4917 C   0  0  0  0  0  0
  -18.0291  -28.1376   22.8480 C   0  0  0  0  0  0
  -24.1489  -36.7288   23.2641 C   0  0  0  0  0  0
  -25.9667  -30.7748   21.3735 C   0  0  0  0  0  0
  -26.0378  -29.3991   20.7147 C   0  0  0  0  0  0
  -27.2146  -28.5907   20.7079 C   0  0  0  0  0  0
  -26.0276  -26.8595   19.4994 C   0  0  0  0  0  0
  -24.8679  -27.6613   19.4935 C   0  0  0  0  0  0
  -23.6390  -29.8076   20.1574 C   0  0  0  0  0  0
  -25.4116  -36.3077   24.0328 C   0  0  1  0  0  0
  -20.5891  -28.3678   23.1276 C   0  0  2  0  0  0
  -20.6775  -26.9399   22.5404 C   0  0  0  0  0  0
  -19.5758  -26.6373   21.5202 C   0  0  0  0  0  0
  -18.1938  -26.7919   22.1613 C   0  0  0  0  0  0
  -19.1543  -28.8844   23.2874 C   0  0  0  0  0  0
  -18.9466  -30.1444   23.8893 C   0  0  0  0  0  0
  -17.6467  -30.6578   24.0559 C   0  0  0  0  0  0
  -25.9053  -34.9443   23.5098 C   0  0  0  0  0  0
  -16.5358  -29.9076   23.6328 C   0  0  0  0  0  0
  -16.7277  -28.6491   23.0354 C   0  0  0  0  0  0
  -26.4492  -31.6585   25.0718 C   0  0  0  0  0  0
  -25.3722  -31.3727   26.1443 C   0  0  0  0  0  0
  -27.0341  -30.3007   24.6197 C   0  0  0  0  0  0
  -27.6049  -32.4328   25.7490 C   0  0  0  0  0  0
  -27.5581  -37.1798   24.8466 C   0  0  0  0  0  0
  -21.4195  -29.3031   22.3668 N   0  0  0  0  0  0
  -26.4295  -37.3770   23.9407 N   0  0  0  0  0  0
  -24.6920  -31.0541   22.0941 N   0  0  0  0  0  0
  -23.4197  -28.8141   23.3011 O   0  0  0  0  0  0
  -28.3633  -26.4570   20.1892 O   0  0  0  0  0  0
  -26.5630  -34.8914   22.4670 O   0  0  0  0  0  0
  -23.5439  -32.1369   23.7287 O   0  0  0  0  0  0
  -29.5823  -19.8183   20.1582 C   0  0  0  0  0  0
  -27.3799  -19.2033   21.6085 C   0  0  0  0  0  0
  -28.6601  -20.9031   20.4107 C   0  0  0  0  0  0
  -27.5065  -20.5494   21.1585 C   0  0  0  0  0  0
  -29.3507  -18.4746   20.6294 C   0  0  0  0  0  0
  -24.3662  -20.3682   21.3330 C   0  0  0  0  0  0
  -25.5132  -21.0550   23.5699 C   0  0  0  0  0  0
  -28.8326  -22.3531   19.7667 C   0  0  0  0  0  0
  -30.3213  -17.2555   20.3809 C   0  0  0  0  0  0
  -28.4151  -23.7462   20.4826 C   0  0  0  0  0  0
  -28.4644  -25.0903   19.5970 C   0  0  0  0  0  0
  -25.3322  -21.3176   22.0646 C   0  0  0  0  0  0
  -28.2522  -18.2001   21.3545 N   0  0  0  0  0  0
  -29.8773  -15.8333   20.6640 N   0  0  0  0  0  0
  -26.5630  -21.5359   21.3709 O   0  0  0  0  0  0
  -31.4703  -12.5344   19.1737 H   0  0  0  0  0  0
  -30.3564  -11.4437   19.9476 H   0  0  0  0  0  0
  -29.7815  -11.7298   17.5123 H   0  0  0  0  0  0
  -29.6438  -13.4573   17.7300 H   0  0  0  0  0  0
  -27.8784  -11.2854   18.9006 H   0  0  0  0  0  0
  -27.3761  -12.5396   17.7985 H   0  0  0  0  0  0
  -27.6434  -14.2548   19.4836 H   0  0  0  0  0  0
  -28.7087  -12.1462   21.4257 H   0  0  0  0  0  0
  -28.4304  -13.8280   21.8031 H   0  0  0  0  0  0
  -25.2764   -9.5684   22.4757 H   0  0  0  0  0  0
  -24.0007   -7.4632   22.7470 H   0  0  0  0  0  0
  -21.0841   -8.8771   19.8950 H   0  0  0  0  0  0
  -22.3696  -10.9672   19.6164 H   0  0  0  0  0  0
  -21.2008   -7.6146   23.9717 H   0  0  0  0  0  0
  -21.1483   -6.0519   25.9078 H   0  0  0  0  0  0
  -22.0600   -2.7608   23.2843 H   0  0  0  0  0  0
  -22.4089  -11.9885   22.4816 H   0  0  0  0  0  0
  -21.1087  -13.1240   22.2629 H   0  0  0  0  0  0
  -24.6502  -15.8438   20.5295 H   0  0  0  0  0  0
  -26.2740  -15.6414   20.1110 H   0  0  0  0  0  0
  -26.7174  -32.5404   23.1068 H   0  0  0  0  0  0
  -25.0060  -33.9705   25.0399 H   0  0  0  0  0  0
  -22.7192  -31.2984   21.3942 H   0  0  0  0  0  0
  -23.3755  -35.9617   23.3304 H   0  0  0  0  0  0
  -24.3577  -36.8909   22.2055 H   0  0  0  0  0  0
  -23.7238  -37.6487   23.6664 H   0  0  0  0  0  0
  -26.1046  -31.5369   20.6055 H   0  0  0  0  0  0
  -26.8452  -30.8216   22.0057 H   0  0  0  0  0  0
  -28.1127  -28.9520   21.1887 H   0  0  0  0  0  0
  -25.9460  -25.8871   19.0403 H   0  0  0  0  0  0
  -23.9676  -27.2885   19.0242 H   0  0  0  0  0  0
  -23.7602  -30.5819   19.3993 H   0  0  0  0  0  0
  -22.7582  -29.2381   19.8554 H   0  0  0  0  0  0
  -25.1295  -36.1930   25.0822 H   0  0  0  0  0  0
  -20.9984  -28.3248   24.1397 H   0  0  0  0  0  0
  -20.5662  -26.2286   23.3600 H   0  0  0  0  0  0
  -21.6646  -26.7417   22.1209 H   0  0  0  0  0  0
  -19.6923  -25.6281   21.1239 H   0  0  0  0  0  0
  -19.6707  -27.3175   20.6728 H   0  0  0  0  0  0
  -17.4204  -26.6658   21.4019 H   0  0  0  0  0  0
  -18.0352  -26.0061   22.9014 H   0  0  0  0  0  0
  -19.7944  -30.7258   24.2267 H   0  0  0  0  0  0
  -17.5023  -31.6261   24.5157 H   0  0  0  0  0  0
  -15.5358  -30.2981   23.7653 H   0  0  0  0  0  0
  -15.8675  -28.0805   22.7085 H   0  0  0  0  0  0
  -24.5895  -30.7077   25.7766 H   0  0  0  0  0  0
  -24.8916  -32.2894   26.4873 H   0  0  0  0  0  0
  -25.8044  -30.8897   27.0217 H   0  0  0  0  0  0
  -26.2922  -29.6751   24.1219 H   0  0  0  0  0  0
  -27.4028  -29.7271   25.4711 H   0  0  0  0  0  0
  -27.8795  -30.4288   23.9431 H   0  0  0  0  0  0
  -27.2657  -33.3627   26.2067 H   0  0  0  0  0  0
  -28.3858  -32.6893   25.0318 H   0  0  0  0  0  0
  -28.0722  -31.8458   26.5406 H   0  0  0  0  0  0
  -28.2598  -38.0095   24.7510 H   0  0  0  0  0  0
  -28.1077  -36.2626   24.6298 H   0  0  0  0  0  0
  -27.2299  -37.1453   25.8869 H   0  0  0  0  0  0
  -20.9373  -29.8756   21.6879 H   0  0  0  0  0  0
  -26.0179  -38.2846   24.1405 H   0  0  0  0  0  0
  -30.4682  -20.0121   19.5684 H   0  0  0  0  0  0
  -26.5367  -18.8704   22.1865 H   0  0  0  0  0  0
  -23.3747  -20.4133   21.7845 H   0  0  0  0  0  0
  -24.6683  -19.3245   21.3467 H   0  0  0  0  0  0
  -24.2578  -20.6627   20.2889 H   0  0  0  0  0  0
  -24.5473  -21.0605   24.0750 H   0  0  0  0  0  0
  -26.1171  -21.8398   24.0260 H   0  0  0  0  0  0
  -25.9873  -20.1054   23.8040 H   0  0  0  0  0  0
  -28.2835  -22.3074   18.8264 H   0  0  0  0  0  0
  -29.8785  -22.4420   19.4723 H   0  0  0  0  0  0
  -31.2240  -17.4432   20.9628 H   0  0  0  0  0  0
  -30.6311  -17.3028   19.3360 H   0  0  0  0  0  0
  -29.0513  -23.8777   21.3575 H   0  0  0  0  0  0
  -27.4003  -23.6809   20.8662 H   0  0  0  0  0  0
  -29.4511  -25.0931   19.1339 H   0  0  0  0  0  0
  -27.7990  -24.9797   18.7435 H   0  0  0  0  0  0
  -24.8502  -22.2951   22.0114 H   0  0  0  0  0  0
  -28.9085  -15.7284   20.9231 H   0  0  0  0  0  0
  1 25  1  0  0  0
  1 30  2  0  0  0
  1 84  1  0  0  0
  2  3  1  0  0  0
  2 25  1  0  0  0
  2 86  1  0  0  0
  2 87  1  0  0  0
  3  4  1  0  0  0
  3 88  1  0  0  0
  3 89  1  0  0  0
  4  5  1  0  0  0
  4 90  1  0  0  0
  4 91  1  0  0  0
  5  6  1  0  0  0
  5 26  1  0  0  0
  5 92  1  0  0  0
  6 25  1  0  0  0
  6 93  1  0  0  0
  6 94  1  0  0  0
  7  8  2  0  0  0
  7 26  1  0  0  0
  7 29  1  0  0  0
  8  9  1  0  0  0
  8 22  1  0  0  0
  9 10  1  0  0  0
  9 27  2  0  0  0
 10 11  2  0  0  0
 10 15  1  0  0  0
 11 12  1  0  0  0
 11 95  1  0  0  0
 12 13  2  0  0  0
 12 96  1  0  0  0
 13 14  1  0  0  0
 13 31  1  0  0  0
 14 15  2  0  0  0
 14 97  1  0  0  0
 15 98  1  0  0  0
 16 17  2  0  0  0
 16 21  1  0  0  0
 16 31  1  0  0  0
 17 18  1  0  0  0
 17 99  1  0  0  0
 18 19  2  0  0  0
 18100  1  0  0  0
 19 20  1  0  0  0
 19 24  1  0  0  0
 20 21  2  0  0  0
 20101  1  0  0  0
 21 23  1  0  0  0
 22 28  1  0  0  0
 22 32  2  0  0  0
 26 27  1  0  0  0
 28102  1  0  0  0
 28103  1  0  0  0
 29104  1  0  0  0
 29105  1  0  0  0
 33 34  1  0  0  0
 33 66  1  0  0  0
 33 70  2  0  0  0
 34 36  1  0  0  0
 34 59  1  0  0  0
 34106  1  0  0  0
 35 44  2  0  0  0
 35 45  1  0  0  0
 35 68  1  0  0  0
 36 56  1  0  0  0
 36107  1  0  0  0
 37 39  1  0  0  0
 37 47  1  0  0  0
 37 66  1  0  0  0
 37108  1  0  0  0
 38 43  2  0  0  0
 38 46  1  0  0  0
 38 47  1  0  0  0
 39 64  1  0  0  0
 39 67  2  0  0  0
 40 52  1  0  0  0
 40 53  2  0  0  0
 40 58  1  0  0  0
 41109  1  0  0  0
 41110  1  0  0  0
 41111  1  0  0  0
 41 48  1  0  0  0
 42 43  1  0  0  0
 42 66  1  0  0  0
 42112  1  0  0  0
 42113  1  0  0  0
 43 44  1  0  0  0
 44114  1  0  0  0
 45 46  2  0  0  0
 45115  1  0  0  0
 46116  1  0  0  0
 47117  1  0  0  0
 47118  1  0  0  0
 48 56  1  0  0  0
 48 65  1  0  0  0
 48119  1  0  0  0
 49 50  1  0  0  0
 49 53  1  0  0  0
 49 64  1  0  0  0
 49120  1  0  0  0
 50 51  1  0  0  0
 50121  1  0  0  0
 50122  1  0  0  0
 51 52  1  0  0  0
 51123  1  0  0  0
 51124  1  0  0  0
 52125  1  0  0  0
 52126  1  0  0  0
 53 54  1  0  0  0
 54 55  2  0  0  0
 54127  1  0  0  0
 55 57  1  0  0  0
 55128  1  0  0  0
 56 69  2  0  0  0
 57 58  2  0  0  0
 57129  1  0  0  0
 58130  1  0  0  0
 59 60  1  0  0  0
 59 61  1  0  0  0
 59 62  1  0  0  0
 60131  1  0  0  0
 60132  1  0  0  0
 60133  1  0  0  0
 61134  1  0  0  0
 61135  1  0  0  0
 61136  1  0  0  0
 62137  1  0  0  0
 62138  1  0  0  0
 62139  1  0  0  0
 63 65  1  0  0  0
 63140  1  0  0  0
 63141  1  0  0  0
 63142  1  0  0  0
 64143  1  0  0  0
 65144  1  0  0  0
 68 81  1  0  0  0
 71 73  2  0  0  0
 71 75  1  0  0  0
 71145  1  0  0  0
 72 74  2  0  0  0
 72 83  1  0  0  0
 72146  1  0  0  0
 73 74  1  0  0  0
 73 78  1  0  0  0
 74 85  1  0  0  0
 75 79  1  0  0  0
 75 83  2  0  0  0
 76147  1  0  0  0
 76148  1  0  0  0
 76149  1  0  0  0
 76 82  1  0  0  0
 77 82  1  0  0  0
 77150  1  0  0  0
 77151  1  0  0  0
 77152  1  0  0  0
 78 80  1  0  0  0
 78153  1  0  0  0
 78154  1  0  0  0
 79 84  1  0  0  0
 79155  1  0  0  0
 79156  1  0  0  0
 80 81  1  0  0  0
 80157  1  0  0  0
 80158  1  0  0  0
 81159  1  0  0  0
 81160  1  0  0  0
 82 85  1  0  0  0
 82161  1  0  0  0
 84162  1  0  0  0
M  ISO  4   1 100  68 101  81 101  84 100
M  END
> <chiral flag>
0

> <version>
0

> <s_m_source_file>
/data/baiqing/PycharmProjects/Reinvent-master-3.2/result/LINK_invent/BTK/process_docking_weight1_custom_sum_contain_oxygen_bond_distance_aromatic_linkinvent_7_9_3/rearranged_h_0085.sdf

> <i_m_source_file_index>
94

> <r_mmod_Potential_Energy-OPLS-2005>
-160.644073486328

> <r_mmod_Stretch_Energy-OPLS-2005>
103.418273925781

> <r_mmod_Bend_Energy-OPLS-2005>
188.997009277344

> <r_mmod_Torsional_Energy-OPLS-2005>
187.245208740234

> <r_mmod_Improper_Torsional_Energy-OPLS-2005>
5.80742120742798

> <r_mmod_Van_der_Waal_Energy-OPLS-2005>
145.478652954102

> <r_mmod_Electrostatic_Energy-OPLS-2005>
-646.458679199219

> <r_mmod_Solvation_Energy-OPLS-2005>
-211.589721679688

> <b_mmod_Minimization_Converged-OPLS-2005>
0

> <r_mmod_RMS_Derivative-OPLS-2005>
0.645740270614624

$$$$
97
                    3D
 Structure written by MMmdl.
158166  0  0  1  0            999 V2000
  -30.7079  -14.4464   20.6026 C   0  0  0  0  0  0
  -30.4219  -12.3039   19.4119 C   0  0  0  0  0  0
  -29.4911  -12.5163   18.2009 C   0  0  0  0  0  0
  -28.0125  -12.3749   18.6135 C   0  0  0  0  0  0
  -27.6629  -13.2050   19.8777 C   0  0  2  0  0  0
  -28.7034  -12.9658   20.9947 C   0  0  0  0  0  0
  -25.2593  -13.8160   20.5673 C   0  0  0  0  0  0
  -24.1839  -13.0438   20.9167 C   0  0  0  0  0  0
  -24.6385  -11.6902   20.8727 C   0  0  0  0  0  0
  -23.9054  -10.4287   21.0400 C   0  0  0  0  0  0
  -24.3609   -9.4204   21.9177 C   0  0  0  0  0  0
  -23.6286   -8.2243   22.0748 C   0  0  0  0  0  0
  -22.4267   -8.0281   21.3540 C   0  0  0  0  0  0
  -21.9904   -9.0252   20.4642 C   0  0  0  0  0  0
  -22.7231  -10.2129   20.3048 C   0  0  0  0  0  0
  -21.6858   -6.0734   22.5273 C   0  0  0  0  0  0
  -21.4014   -6.5636   23.8208 C   0  0  0  0  0  0
  -21.3656   -5.6790   24.9173 C   0  0  0  0  0  0
  -21.6051   -4.3055   24.7223 C   0  0  0  0  0  0
  -21.8819   -3.8142   23.4345 C   0  0  0  0  0  0
  -21.9189   -4.6959   22.3400 C   0  0  0  0  0  0
  -22.7863  -13.5239   21.1840 C   0  0  0  0  0  0
  -22.1661   -4.2148   21.0978 F   0  0  0  0  0  0
  -21.5630   -3.4537   25.7736 F   0  0  0  0  0  0
  -30.0360  -13.2748   20.4465 N   0  0  0  0  0  0
  -26.3028  -12.9323   20.3371 N   0  0  0  0  0  0
  -25.9312  -11.6478   20.5756 N   0  0  0  0  0  0
  -22.0504  -12.8226   22.0394 N   0  0  0  0  0  0
  -25.4330  -15.1880   20.4083 N   0  0  0  0  0  0
  -31.8102  -14.6635   20.0911 O   0  0  0  0  0  0
  -21.6633   -6.8875   21.4232 O   0  0  0  0  0  0
  -22.3541  -14.5542   20.6692 O   0  0  0  0  0  0
  -24.6134  -31.8685   23.2089 C   0  0  0  0  0  0
  -25.9037  -32.4812   23.8382 C   0  0  1  0  0  0
  -27.2516  -27.4501   20.0804 C   0  0  0  0  0  0
  -25.5908  -33.8608   24.2317 N   0  0  0  0  0  0
  -23.4011  -30.4888   21.5520 C   0  0  2  0  0  0
  -24.8477  -28.9505   20.1180 C   0  0  0  0  0  0
  -22.7405  -29.4648   22.5015 C   0  0  0  0  0  0
  -18.0270  -28.1367   22.8494 C   0  0  0  0  0  0
  -24.1489  -36.7288   23.2632 C   0  0  0  0  0  0
  -25.9251  -30.8385   21.3553 C   0  0  0  0  0  0
  -26.0040  -29.4695   20.7113 C   0  0  0  0  0  0
  -27.2010  -28.7214   20.6956 C   0  0  0  0  0  0
  -26.0690  -26.9324   19.5032 C   0  0  0  0  0  0
  -24.8738  -27.6789   19.5180 C   0  0  0  0  0  0
  -23.6088  -29.8178   20.1664 C   0  0  0  0  0  0
  -25.4105  -36.3079   24.0335 C   0  0  1  0  0  0
  -20.5860  -28.3657   23.1327 C   0  0  2  0  0  0
  -20.6760  -26.9397   22.5414 C   0  0  0  0  0  0
  -19.5738  -26.6393   21.5203 C   0  0  0  0  0  0
  -18.1920  -26.7916   22.1616 C   0  0  0  0  0  0
  -19.1519  -28.8827   23.2911 C   0  0  0  0  0  0
  -18.9453  -30.1434   23.8911 C   0  0  0  0  0  0
  -17.6460  -30.6581   24.0568 C   0  0  0  0  0  0
  -25.9030  -34.9460   23.5115 C   0  0  0  0  0  0
  -16.5348  -29.9089   23.6317 C   0  0  0  0  0  0
  -16.7262  -28.6505   23.0333 C   0  0  0  0  0  0
  -26.4487  -31.6572   25.0685 C   0  0  0  0  0  0
  -25.3766  -31.3660   26.1444 C   0  0  0  0  0  0
  -27.0312  -30.3030   24.6008 C   0  0  0  0  0  0
  -27.6084  -32.4289   25.7424 C   0  0  0  0  0  0
  -27.5577  -37.1774   24.8464 C   0  0  0  0  0  0
  -21.4135  -29.3031   22.3741 N   0  0  0  0  0  0
  -26.4274  -37.3774   23.9428 N   0  0  0  0  0  0
  -24.6654  -31.0788   22.0990 N   0  0  0  0  0  0
  -23.4178  -28.8184   23.3052 O   0  0  0  0  0  0
  -28.4672  -26.7937   20.0972 O   0  0  0  0  0  0
  -26.5589  -34.8917   22.4670 O   0  0  0  0  0  0
  -23.5337  -32.1442   23.7504 O   0  0  0  0  0  0
  -28.3837  -21.3725   21.1272 C   0  0  0  0  0  0
  -29.2081  -20.3053   21.3711 C   0  0  0  0  0  0
  -28.5897  -26.0028   17.7318 C   0  0  0  0  0  0
  -28.8744  -18.8524   21.6079 C   0  0  0  0  0  0
  -29.6513  -17.8398   20.7223 C   0  0  0  0  0  0
  -28.3324  -24.3108   19.6952 C   0  0  0  0  0  0
  -28.9275  -23.8925   21.0582 C   0  0  0  0  0  0
  -30.4847  -16.7868   21.5069 C   0  0  0  0  0  0
  -28.8087  -25.7064   19.2261 C   0  0  2  0  0  0
  -30.5060  -20.7892   21.5284 N   0  0  0  0  0  0
  -30.5090  -22.0780   21.3825 N   0  0  0  0  0  0
  -29.2307  -22.4666   21.1559 N   0  0  0  0  0  0
  -30.0430  -15.4050   21.2712 N   0  0  0  0  0  0
  -31.4659  -12.4056   19.1110 H   0  0  0  0  0  0
  -30.3221  -11.2880   19.7976 H   0  0  0  0  0  0
  -29.7290  -11.8017   17.4125 H   0  0  0  0  0  0
  -29.6595  -13.5071   17.7760 H   0  0  0  0  0  0
  -27.8206  -11.3174   18.7997 H   0  0  0  0  0  0
  -27.3619  -12.6603   17.7863 H   0  0  0  0  0  0
  -27.7133  -14.2565   19.5932 H   0  0  0  0  0  0
  -28.6767  -11.9241   21.3171 H   0  0  0  0  0  0
  -28.4605  -13.5468   21.8854 H   0  0  0  0  0  0
  -25.2758   -9.5684   22.4750 H   0  0  0  0  0  0
  -24.0000   -7.4635   22.7467 H   0  0  0  0  0  0
  -21.0841   -8.8770   19.8946 H   0  0  0  0  0  0
  -22.3693  -10.9668   19.6157 H   0  0  0  0  0  0
  -21.2007   -7.6144   23.9714 H   0  0  0  0  0  0
  -21.1484   -6.0520   25.9078 H   0  0  0  0  0  0
  -22.0601   -2.7604   23.2845 H   0  0  0  0  0  0
  -22.4124  -11.9883   22.4772 H   0  0  0  0  0  0
  -21.1124  -13.1243   22.2614 H   0  0  0  0  0  0
  -24.6685  -15.8463   20.5142 H   0  0  0  0  0  0
  -26.2907  -15.6232   20.0937 H   0  0  0  0  0  0
  -26.7114  -32.5544   23.1160 H   0  0  0  0  0  0
  -25.0092  -33.9775   25.0487 H   0  0  0  0  0  0
  -22.6893  -31.3059   21.4125 H   0  0  0  0  0  0
  -23.3748  -35.9619   23.3284 H   0  0  0  0  0  0
  -24.3587  -36.8908   22.2043 H   0  0  0  0  0  0
  -23.7271  -37.6502   23.6665 H   0  0  0  0  0  0
  -26.0251  -31.5986   20.5782 H   0  0  0  0  0  0
  -26.8176  -30.9063   21.9652 H   0  0  0  0  0  0
  -28.0978  -29.1261   21.1447 H   0  0  0  0  0  0
  -26.0508  -25.9568   19.0445 H   0  0  0  0  0  0
  -23.9812  -27.2693   19.0658 H   0  0  0  0  0  0
  -23.7203  -30.5945   19.4073 H   0  0  0  0  0  0
  -22.7318  -29.2394   19.8681 H   0  0  0  0  0  0
  -25.1274  -36.1914   25.0825 H   0  0  0  0  0  0
  -20.9955  -28.3230   24.1448 H   0  0  0  0  0  0
  -20.5670  -26.2262   23.3598 H   0  0  0  0  0  0
  -21.6634  -26.7449   22.1200 H   0  0  0  0  0  0
  -19.6902  -25.6313   21.1214 H   0  0  0  0  0  0
  -19.6672  -27.3212   20.6740 H   0  0  0  0  0  0
  -17.4195  -26.6675   21.4012 H   0  0  0  0  0  0
  -18.0322  -26.0037   22.8989 H   0  0  0  0  0  0
  -19.7934  -30.7251   24.2276 H   0  0  0  0  0  0
  -17.5023  -31.6254   24.5173 H   0  0  0  0  0  0
  -15.5356  -30.3008   23.7628 H   0  0  0  0  0  0
  -15.8657  -28.0852   22.7011 H   0  0  0  0  0  0
  -24.5950  -30.6982   25.7803 H   0  0  0  0  0  0
  -24.8930  -32.2795   26.4899 H   0  0  0  0  0  0
  -25.8127  -30.8840   27.0196 H   0  0  0  0  0  0
  -26.2808  -29.6773   24.1159 H   0  0  0  0  0  0
  -27.4243  -29.7268   25.4397 H   0  0  0  0  0  0
  -27.8572  -30.4377   23.9021 H   0  0  0  0  0  0
  -27.2726  -33.3594   26.2014 H   0  0  0  0  0  0
  -28.3874  -32.6844   25.0222 H   0  0  0  0  0  0
  -28.0786  -31.8402   26.5313 H   0  0  0  0  0  0
  -28.2568  -38.0095   24.7549 H   0  0  0  0  0  0
  -28.1102  -36.2625   24.6239 H   0  0  0  0  0  0
  -27.2302  -37.1371   25.8870 H   0  0  0  0  0  0
  -20.9312  -29.8740   21.6932 H   0  0  0  0  0  0
  -26.0144  -38.2829   24.1501 H   0  0  0  0  0  0
  -27.3129  -21.4537   20.9887 H   0  0  0  0  0  0
  -29.0822  -25.2484   17.1187 H   0  0  0  0  0  0
  -29.0198  -26.9679   17.4633 H   0  0  0  0  0  0
  -27.5426  -26.0126   17.4365 H   0  0  0  0  0  0
  -27.8066  -18.6989   21.4426 H   0  0  0  0  0  0
  -29.0167  -18.6298   22.6643 H   0  0  0  0  0  0
  -30.3247  -18.3807   20.0543 H   0  0  0  0  0  0
  -28.9475  -17.3460   20.0512 H   0  0  0  0  0  0
  -27.2462  -24.2422   19.7277 H   0  0  0  0  0  0
  -28.6500  -23.5859   18.9450 H   0  0  0  0  0  0
  -28.2457  -24.1601   21.8654 H   0  0  0  0  0  0
  -29.8457  -24.4482   21.2532 H   0  0  0  0  0  0
  -30.4434  -16.9663   22.5813 H   0  0  0  0  0  0
  -31.5396  -16.9027   21.2501 H   0  0  0  0  0  0
  -29.8955  -25.6737   19.3147 H   0  0  0  0  0  0
  -29.1424  -15.1419   21.6443 H   0  0  0  0  0  0
  1 25  1  0  0  0
  1 30  2  0  0  0
  1 83  1  0  0  0
  2  3  1  0  0  0
  2 25  1  0  0  0
  2 84  1  0  0  0
  2 85  1  0  0  0
  3  4  1  0  0  0
  3 86  1  0  0  0
  3 87  1  0  0  0
  4  5  1  0  0  0
  4 88  1  0  0  0
  4 89  1  0  0  0
  5  6  1  0  0  0
  5 26  1  0  0  0
  5 90  1  0  0  0
  6 25  1  0  0  0
  6 91  1  0  0  0
  6 92  1  0  0  0
  7  8  2  0  0  0
  7 26  1  0  0  0
  7 29  1  0  0  0
  8  9  1  0  0  0
  8 22  1  0  0  0
  9 10  1  0  0  0
  9 27  2  0  0  0
 10 11  2  0  0  0
 10 15  1  0  0  0
 11 12  1  0  0  0
 11 93  1  0  0  0
 12 13  2  0  0  0
 12 94  1  0  0  0
 13 14  1  0  0  0
 13 31  1  0  0  0
 14 15  2  0  0  0
 14 95  1  0  0  0
 15 96  1  0  0  0
 16 17  2  0  0  0
 16 21  1  0  0  0
 16 31  1  0  0  0
 17 18  1  0  0  0
 17 97  1  0  0  0
 18 19  2  0  0  0
 18 98  1  0  0  0
 19 20  1  0  0  0
 19 24  1  0  0  0
 20 21  2  0  0  0
 20 99  1  0  0  0
 21 23  1  0  0  0
 22 28  1  0  0  0
 22 32  2  0  0  0
 26 27  1  0  0  0
 28100  1  0  0  0
 28101  1  0  0  0
 29102  1  0  0  0
 29103  1  0  0  0
 33 34  1  0  0  0
 33 66  1  0  0  0
 33 70  2  0  0  0
 34 36  1  0  0  0
 34 59  1  0  0  0
 34104  1  0  0  0
 35 44  2  0  0  0
 35 45  1  0  0  0
 35 68  1  0  0  0
 36 56  1  0  0  0
 36105  1  0  0  0
 37 39  1  0  0  0
 37 47  1  0  0  0
 37 66  1  0  0  0
 37106  1  0  0  0
 38 43  2  0  0  0
 38 46  1  0  0  0
 38 47  1  0  0  0
 39 64  1  0  0  0
 39 67  2  0  0  0
 40 52  1  0  0  0
 40 53  2  0  0  0
 40 58  1  0  0  0
 41107  1  0  0  0
 41108  1  0  0  0
 41109  1  0  0  0
 41 48  1  0  0  0
 42 43  1  0  0  0
 42 66  1  0  0  0
 42110  1  0  0  0
 42111  1  0  0  0
 43 44  1  0  0  0
 44112  1  0  0  0
 45 46  2  0  0  0
 45113  1  0  0  0
 46114  1  0  0  0
 47115  1  0  0  0
 47116  1  0  0  0
 48 56  1  0  0  0
 48 65  1  0  0  0
 48117  1  0  0  0
 49 50  1  0  0  0
 49 53  1  0  0  0
 49 64  1  0  0  0
 49118  1  0  0  0
 50 51  1  0  0  0
 50119  1  0  0  0
 50120  1  0  0  0
 51 52  1  0  0  0
 51121  1  0  0  0
 51122  1  0  0  0
 52123  1  0  0  0
 52124  1  0  0  0
 53 54  1  0  0  0
 54 55  2  0  0  0
 54125  1  0  0  0
 55 57  1  0  0  0
 55126  1  0  0  0
 56 69  2  0  0  0
 57 58  2  0  0  0
 57127  1  0  0  0
 58128  1  0  0  0
 59 60  1  0  0  0
 59 61  1  0  0  0
 59 62  1  0  0  0
 60129  1  0  0  0
 60130  1  0  0  0
 60131  1  0  0  0
 61132  1  0  0  0
 61133  1  0  0  0
 61134  1  0  0  0
 62135  1  0  0  0
 62136  1  0  0  0
 62137  1  0  0  0
 63 65  1  0  0  0
 63138  1  0  0  0
 63139  1  0  0  0
 63140  1  0  0  0
 64141  1  0  0  0
 65142  1  0  0  0
 68 79  1  0  0  0
 71 72  2  0  0  0
 71 82  1  0  0  0
 71143  1  0  0  0
 72 74  1  0  0  0
 72 80  1  0  0  0
 73144  1  0  0  0
 73145  1  0  0  0
 73146  1  0  0  0
 73 79  1  0  0  0
 74 75  1  0  0  0
 74147  1  0  0  0
 74148  1  0  0  0
 75 78  1  0  0  0
 75149  1  0  0  0
 75150  1  0  0  0
 76 77  1  0  0  0
 76 79  1  0  0  0
 76151  1  0  0  0
 76152  1  0  0  0
 77 82  1  0  0  0
 77153  1  0  0  0
 77154  1  0  0  0
 78 83  1  0  0  0
 78155  1  0  0  0
 78156  1  0  0  0
 79157  1  0  0  0
 80 81  2  0  0  0
 81 82  1  0  0  0
 83158  1  0  0  0
M  ISO  4   1 100  68 101  79 101  83 100
M  END
> <chiral flag>
0

> <version>
0

> <s_m_source_file>
/data/baiqing/PycharmProjects/Reinvent-master-3.2/result/LINK_invent/BTK/process_docking_weight1_custom_sum_contain_oxygen_bond_distance_aromatic_linkinvent_7_9_3/rearranged_h_0085.sdf

> <i_m_source_file_index>
95

> <r_mmod_Potential_Energy-OPLS-2005>
-117.497772216797

> <r_mmod_Stretch_Energy-OPLS-2005>
34.1846084594727

> <r_mmod_Bend_Energy-OPLS-2005>
119.057983398438

> <r_mmod_Torsional_Energy-OPLS-2005>
224.6962890625

> <r_mmod_Improper_Torsional_Energy-OPLS-2005>
3.00134301185608

> <r_mmod_Van_der_Waal_Energy-OPLS-2005>
131.110046386719

> <r_mmod_Electrostatic_Energy-OPLS-2005>
-414.703063964844

> <r_mmod_Solvation_Energy-OPLS-2005>
-225.468505859375

> <b_mmod_Minimization_Converged-OPLS-2005>
0

> <r_mmod_RMS_Derivative-OPLS-2005>
1.99752080440521

$$$$
98
                    3D
 Structure written by MMmdl.
163171  0  0  1  0            999 V2000
  -30.7330  -14.3930   20.6376 C   0  0  0  0  0  0
  -30.4228  -12.2774   19.4090 C   0  0  0  0  0  0
  -29.4951  -12.4986   18.1970 C   0  0  0  0  0  0
  -28.0144  -12.3678   18.6081 C   0  0  0  0  0  0
  -27.6689  -13.1894   19.8791 C   0  0  2  0  0  0
  -28.7061  -12.9347   20.9960 C   0  0  0  0  0  0
  -25.2672  -13.8119   20.5654 C   0  0  0  0  0  0
  -24.1880  -13.0441   20.9168 C   0  0  0  0  0  0
  -24.6393  -11.6907   20.8709 C   0  0  0  0  0  0
  -23.9029  -10.4311   21.0397 C   0  0  0  0  0  0
  -24.3601   -9.4244   21.9176 C   0  0  0  0  0  0
  -23.6304   -8.2258   22.0740 C   0  0  0  0  0  0
  -22.4285   -8.0286   21.3533 C   0  0  0  0  0  0
  -21.9905   -9.0258   20.4636 C   0  0  0  0  0  0
  -22.7199  -10.2162   20.3049 C   0  0  0  0  0  0
  -21.6854   -6.0755   22.5282 C   0  0  0  0  0  0
  -21.4010   -6.5636   23.8219 C   0  0  0  0  0  0
  -21.3664   -5.6766   24.9167 C   0  0  0  0  0  0
  -21.6065   -4.3034   24.7202 C   0  0  0  0  0  0
  -21.8812   -3.8149   23.4308 C   0  0  0  0  0  0
  -21.9194   -4.6985   22.3385 C   0  0  0  0  0  0
  -22.7920  -13.5304   21.1818 C   0  0  0  0  0  0
  -22.1664   -4.2180   21.0953 F   0  0  0  0  0  0
  -21.5656   -3.4509   25.7710 F   0  0  0  0  0  0
  -30.0437  -13.2358   20.4581 N   0  0  0  0  0  0
  -26.3063  -12.9247   20.3347 N   0  0  0  0  0  0
  -25.9313  -11.6434   20.5728 N   0  0  0  0  0  0
  -22.0493  -12.8330   22.0362 N   0  0  0  0  0  0
  -25.4493  -15.1821   20.4109 N   0  0  0  0  0  0
  -31.8007  -14.6375   20.0673 O   0  0  0  0  0  0
  -21.6647   -6.8894   21.4245 O   0  0  0  0  0  0
  -22.3656  -14.5620   20.6656 O   0  0  0  0  0  0
  -24.6081  -31.8723   23.2143 C   0  0  0  0  0  0
  -25.8977  -32.4856   23.8432 C   0  0  1  0  0  0
  -27.2361  -27.4715   20.0887 C   0  0  0  0  0  0
  -25.5844  -33.8652   24.2343 N   0  0  0  0  0  0
  -23.3962  -30.4920   21.5589 C   0  0  2  0  0  0
  -24.8430  -28.9613   20.1209 C   0  0  0  0  0  0
  -22.7392  -29.4660   22.5076 C   0  0  0  0  0  0
  -18.0258  -28.1397   22.8526 C   0  0  0  0  0  0
  -24.1481  -36.7294   23.2640 C   0  0  0  0  0  0
  -25.9222  -30.8463   21.3646 C   0  0  0  0  0  0
  -26.0010  -29.4822   20.7137 C   0  0  0  0  0  0
  -27.2033  -28.7429   20.6972 C   0  0  0  0  0  0
  -26.0676  -26.9524   19.4966 C   0  0  0  0  0  0
  -24.8697  -27.6930   19.5124 C   0  0  0  0  0  0
  -23.6006  -29.8221   20.1750 C   0  0  0  0  0  0
  -25.4101  -36.3123   24.0352 C   0  0  1  0  0  0
  -20.5842  -28.3642   23.1392 C   0  0  2  0  0  0
  -20.6755  -26.9393   22.5460 C   0  0  0  0  0  0
  -19.5721  -26.6402   21.5268 C   0  0  0  0  0  0
  -18.1896  -26.7952   22.1663 C   0  0  0  0  0  0
  -19.1507  -28.8842   23.2955 C   0  0  0  0  0  0
  -18.9430  -30.1460   23.8951 C   0  0  0  0  0  0
  -17.6429  -30.6610   24.0585 C   0  0  0  0  0  0
  -25.9020  -34.9484   23.5146 C   0  0  0  0  0  0
  -16.5321  -29.9115   23.6342 C   0  0  0  0  0  0
  -16.7250  -28.6532   23.0369 C   0  0  0  0  0  0
  -26.4432  -31.6627   25.0738 C   0  0  0  0  0  0
  -25.3728  -31.3720   26.1504 C   0  0  0  0  0  0
  -27.0220  -30.3078   24.6055 C   0  0  0  0  0  0
  -27.6022  -32.4369   25.7451 C   0  0  0  0  0  0
  -27.5599  -37.1791   24.8470 C   0  0  0  0  0  0
  -21.4125  -29.3015   22.3804 N   0  0  0  0  0  0
  -26.4295  -37.3809   23.9433 N   0  0  0  0  0  0
  -24.6605  -31.0839   22.1046 N   0  0  0  0  0  0
  -23.4194  -28.8207   23.3110 O   0  0  0  0  0  0
  -28.3983  -26.7484   20.0362 O   0  0  0  0  0  0
  -26.5618  -34.8928   22.4724 O   0  0  0  0  0  0
  -23.5285  -32.1463   23.7540 O   0  0  0  0  0  0
  -29.6859  -20.2450   21.4929 C   0  0  0  0  0  0
  -30.2870  -21.5198   21.3526 C   0  0  0  0  0  0
  -30.2872  -19.1253   20.8793 C   0  0  0  0  0  0
  -31.4878  -21.5540   20.5788 C   0  0  0  0  0  0
  -32.3186  -22.7883   20.2782 C   0  0  0  0  0  0
  -29.1534  -17.3020   19.5429 C   0  0  0  0  0  0
  -29.5670  -22.6876   22.0601 C   0  0  0  0  0  0
  -30.1839  -24.1045   22.1095 C   0  0  0  0  0  0
  -29.8339  -25.0179   20.9125 C   0  0  0  0  0  0
  -30.5854  -16.6883   21.6210 C   0  0  0  0  0  0
  -28.5706  -25.8646   21.1372 C   0  0  0  0  0  0
  -29.6576  -17.7285   20.9349 C   0  0  1  0  0  0
  -31.4273  -19.2448   20.1591 N   0  0  0  0  0  0
  -32.0138  -20.4341   20.0205 N   0  0  0  0  0  0
  -30.1429  -15.2982   21.4331 N   0  0  0  0  0  0
  -31.4684  -12.3738   19.1133 H   0  0  0  0  0  0
  -30.3187  -11.2582   19.7875 H   0  0  0  0  0  0
  -29.7287  -11.7744   17.4141 H   0  0  0  0  0  0
  -29.6781  -13.4847   17.7663 H   0  0  0  0  0  0
  -27.8053  -11.3117   18.7790 H   0  0  0  0  0  0
  -27.3703  -12.6674   17.7789 H   0  0  0  0  0  0
  -27.7243  -14.2393   19.6017 H   0  0  0  0  0  0
  -28.6687  -11.8905   21.3089 H   0  0  0  0  0  0
  -28.4627  -13.5057   21.8914 H   0  0  0  0  0  0
  -25.2753   -9.5756   22.4742 H   0  0  0  0  0  0
  -24.0049   -7.4647   22.7441 H   0  0  0  0  0  0
  -21.0839   -8.8758   19.8925 H   0  0  0  0  0  0
  -22.3635  -10.9712   19.6165 H   0  0  0  0  0  0
  -21.1972   -7.6136   23.9735 H   0  0  0  0  0  0
  -21.1509   -6.0481   25.9071 H   0  0  0  0  0  0
  -22.0589   -2.7618   23.2779 H   0  0  0  0  0  0
  -22.4046  -12.0034   22.4890 H   0  0  0  0  0  0
  -21.1103  -13.1438   22.2432 H   0  0  0  0  0  0
  -24.7042  -15.8537   20.5520 H   0  0  0  0  0  0
  -26.3161  -15.6147   20.1165 H   0  0  0  0  0  0
  -26.7048  -32.5576   23.1202 H   0  0  0  0  0  0
  -24.9994  -33.9832   25.0484 H   0  0  0  0  0  0
  -22.6822  -31.3060   21.4250 H   0  0  0  0  0  0
  -23.3781  -35.9594   23.3300 H   0  0  0  0  0  0
  -24.3588  -36.8903   22.2061 H   0  0  0  0  0  0
  -23.7188  -37.6475   23.6651 H   0  0  0  0  0  0
  -26.0315  -31.6195   20.6002 H   0  0  0  0  0  0
  -26.8096  -30.8966   21.9837 H   0  0  0  0  0  0
  -28.1027  -29.1473   21.1411 H   0  0  0  0  0  0
  -26.0864  -25.9822   19.0233 H   0  0  0  0  0  0
  -23.9773  -27.2892   19.0561 H   0  0  0  0  0  0
  -23.6930  -30.5959   19.4129 H   0  0  0  0  0  0
  -22.7288  -29.2337   19.8882 H   0  0  0  0  0  0
  -25.1277  -36.2007   25.0857 H   0  0  0  0  0  0
  -20.9924  -28.3198   24.1519 H   0  0  0  0  0  0
  -20.5712  -26.2240   23.3628 H   0  0  0  0  0  0
  -21.6609  -26.7493   22.1200 H   0  0  0  0  0  0
  -19.6859  -25.6328   21.1264 H   0  0  0  0  0  0
  -19.6652  -27.3250   20.6830 H   0  0  0  0  0  0
  -17.4173  -26.6752   21.4056 H   0  0  0  0  0  0
  -18.0243  -26.0093   22.9045 H   0  0  0  0  0  0
  -19.7897  -30.7285   24.2338 H   0  0  0  0  0  0
  -17.4976  -31.6290   24.5170 H   0  0  0  0  0  0
  -15.5321  -30.3031   23.7633 H   0  0  0  0  0  0
  -15.8653  -28.0863   22.7068 H   0  0  0  0  0  0
  -24.5851  -30.7129   25.7841 H   0  0  0  0  0  0
  -24.8966  -32.2872   26.5040 H   0  0  0  0  0  0
  -25.8078  -30.8815   27.0215 H   0  0  0  0  0  0
  -26.2714  -29.6891   24.1128 H   0  0  0  0  0  0
  -27.4026  -29.7267   25.4456 H   0  0  0  0  0  0
  -27.8545  -30.4411   23.9144 H   0  0  0  0  0  0
  -27.2639  -33.3660   26.2053 H   0  0  0  0  0  0
  -28.3762  -32.6977   25.0220 H   0  0  0  0  0  0
  -28.0770  -31.8514   26.5326 H   0  0  0  0  0  0
  -28.2602  -38.0109   24.7578 H   0  0  0  0  0  0
  -28.1110  -36.2647   24.6217 H   0  0  0  0  0  0
  -27.2330  -37.1345   25.8875 H   0  0  0  0  0  0
  -20.9284  -29.8695   21.6980 H   0  0  0  0  0  0
  -26.0190  -38.2882   24.1489 H   0  0  0  0  0  0
  -28.7722  -20.1261   22.0585 H   0  0  0  0  0  0
  -32.8000  -23.1709   21.1748 H   0  0  0  0  0  0
  -31.7238  -23.5651   19.8084 H   0  0  0  0  0  0
  -33.1242  -22.5655   19.5791 H   0  0  0  0  0  0
  -28.5115  -18.0701   19.1115 H   0  0  0  0  0  0
  -28.5582  -16.3926   19.5939 H   0  0  0  0  0  0
  -29.9811  -17.1235   18.8559 H   0  0  0  0  0  0
  -29.4420  -22.3661   23.0956 H   0  0  0  0  0  0
  -28.5494  -22.7513   21.6707 H   0  0  0  0  0  0
  -31.2508  -24.0651   22.3039 H   0  0  0  0  0  0
  -29.8027  -24.5989   23.0040 H   0  0  0  0  0  0
  -29.7134  -24.4333   19.9997 H   0  0  0  0  0  0
  -30.6709  -25.6942   20.7332 H   0  0  0  0  0  0
  -30.6315  -16.8946   22.6917 H   0  0  0  0  0  0
  -31.6078  -16.8093   21.2579 H   0  0  0  0  0  0
  -28.6635  -26.4457   22.0555 H   0  0  0  0  0  0
  -27.7038  -25.2095   21.2480 H   0  0  0  0  0  0
  -28.7653  -17.8067   21.5585 H   0  0  0  0  0  0
  -29.2831  -15.0191   21.8791 H   0  0  0  0  0  0
  1 25  1  0  0  0
  1 30  2  0  0  0
  1 85  1  0  0  0
  2  3  1  0  0  0
  2 25  1  0  0  0
  2 86  1  0  0  0
  2 87  1  0  0  0
  3  4  1  0  0  0
  3 88  1  0  0  0
  3 89  1  0  0  0
  4  5  1  0  0  0
  4 90  1  0  0  0
  4 91  1  0  0  0
  5  6  1  0  0  0
  5 26  1  0  0  0
  5 92  1  0  0  0
  6 25  1  0  0  0
  6 93  1  0  0  0
  6 94  1  0  0  0
  7  8  2  0  0  0
  7 26  1  0  0  0
  7 29  1  0  0  0
  8  9  1  0  0  0
  8 22  1  0  0  0
  9 10  1  0  0  0
  9 27  2  0  0  0
 10 11  2  0  0  0
 10 15  1  0  0  0
 11 12  1  0  0  0
 11 95  1  0  0  0
 12 13  2  0  0  0
 12 96  1  0  0  0
 13 14  1  0  0  0
 13 31  1  0  0  0
 14 15  2  0  0  0
 14 97  1  0  0  0
 15 98  1  0  0  0
 16 17  2  0  0  0
 16 21  1  0  0  0
 16 31  1  0  0  0
 17 18  1  0  0  0
 17 99  1  0  0  0
 18 19  2  0  0  0
 18100  1  0  0  0
 19 20  1  0  0  0
 19 24  1  0  0  0
 20 21  2  0  0  0
 20101  1  0  0  0
 21 23  1  0  0  0
 22 28  1  0  0  0
 22 32  2  0  0  0
 26 27  1  0  0  0
 28102  1  0  0  0
 28103  1  0  0  0
 29104  1  0  0  0
 29105  1  0  0  0
 33 34  1  0  0  0
 33 66  1  0  0  0
 33 70  2  0  0  0
 34 36  1  0  0  0
 34 59  1  0  0  0
 34106  1  0  0  0
 35 44  2  0  0  0
 35 45  1  0  0  0
 35 68  1  0  0  0
 36 56  1  0  0  0
 36107  1  0  0  0
 37 39  1  0  0  0
 37 47  1  0  0  0
 37 66  1  0  0  0
 37108  1  0  0  0
 38 43  2  0  0  0
 38 46  1  0  0  0
 38 47  1  0  0  0
 39 64  1  0  0  0
 39 67  2  0  0  0
 40 52  1  0  0  0
 40 53  2  0  0  0
 40 58  1  0  0  0
 41109  1  0  0  0
 41110  1  0  0  0
 41111  1  0  0  0
 41 48  1  0  0  0
 42 43  1  0  0  0
 42 66  1  0  0  0
 42112  1  0  0  0
 42113  1  0  0  0
 43 44  1  0  0  0
 44114  1  0  0  0
 45 46  2  0  0  0
 45115  1  0  0  0
 46116  1  0  0  0
 47117  1  0  0  0
 47118  1  0  0  0
 48 56  1  0  0  0
 48 65  1  0  0  0
 48119  1  0  0  0
 49 50  1  0  0  0
 49 53  1  0  0  0
 49 64  1  0  0  0
 49120  1  0  0  0
 50 51  1  0  0  0
 50121  1  0  0  0
 50122  1  0  0  0
 51 52  1  0  0  0
 51123  1  0  0  0
 51124  1  0  0  0
 52125  1  0  0  0
 52126  1  0  0  0
 53 54  1  0  0  0
 54 55  2  0  0  0
 54127  1  0  0  0
 55 57  1  0  0  0
 55128  1  0  0  0
 56 69  2  0  0  0
 57 58  2  0  0  0
 57129  1  0  0  0
 58130  1  0  0  0
 59 60  1  0  0  0
 59 61  1  0  0  0
 59 62  1  0  0  0
 60131  1  0  0  0
 60132  1  0  0  0
 60133  1  0  0  0
 61134  1  0  0  0
 61135  1  0  0  0
 61136  1  0  0  0
 62137  1  0  0  0
 62138  1  0  0  0
 62139  1  0  0  0
 63 65  1  0  0  0
 63140  1  0  0  0
 63141  1  0  0  0
 63142  1  0  0  0
 64143  1  0  0  0
 65144  1  0  0  0
 68 81  1  0  0  0
 71 72  2  0  0  0
 71 73  1  0  0  0
 71145  1  0  0  0
 72 74  1  0  0  0
 72 77  1  0  0  0
 73 82  1  0  0  0
 73 83  2  0  0  0
 74 75  1  0  0  0
 74 84  2  0  0  0
 75146  1  0  0  0
 75147  1  0  0  0
 75148  1  0  0  0
 76149  1  0  0  0
 76150  1  0  0  0
 76151  1  0  0  0
 76 82  1  0  0  0
 77 78  1  0  0  0
 77152  1  0  0  0
 77153  1  0  0  0
 78 79  1  0  0  0
 78154  1  0  0  0
 78155  1  0  0  0
 79 81  1  0  0  0
 79156  1  0  0  0
 79157  1  0  0  0
 80 82  1  0  0  0
 80 85  1  0  0  0
 80158  1  0  0  0
 80159  1  0  0  0
 81160  1  0  0  0
 81161  1  0  0  0
 82162  1  0  0  0
 83 84  1  0  0  0
 85163  1  0  0  0
M  ISO  4   1 100  68 101  81 101  85 100
M  END
> <chiral flag>
0

> <version>
0

> <s_m_source_file>
/data/baiqing/PycharmProjects/Reinvent-master-3.2/result/LINK_invent/BTK/process_docking_weight1_custom_sum_contain_oxygen_bond_distance_aromatic_linkinvent_7_9_3/rearranged_h_0085.sdf

> <i_m_source_file_index>
96

> <r_mmod_Potential_Energy-OPLS-2005>
-65.8754959106445

> <r_mmod_Stretch_Energy-OPLS-2005>
36.736457824707

> <r_mmod_Bend_Energy-OPLS-2005>
114.988441467285

> <r_mmod_Torsional_Energy-OPLS-2005>
224.726776123047

> <r_mmod_Improper_Torsional_Energy-OPLS-2005>
2.15439605712891

> <r_mmod_Van_der_Waal_Energy-OPLS-2005>
159.202407836914

> <r_mmod_Electrostatic_Energy-OPLS-2005>
-370.598876953125

> <r_mmod_Solvation_Energy-OPLS-2005>
-240.182418823242

> <b_mmod_Minimization_Converged-OPLS-2005>
0

> <r_mmod_RMS_Derivative-OPLS-2005>
3.52310609817505

$$$$
