0
                    3D
 Structure written by MMmdl.
156164  0  0  1  0            999 V2000
  -30.6259  -14.6132   20.5017 C   0  0  0  0  0  0
  -30.4403  -12.3773   19.4412 C   0  0  0  0  0  0
  -29.5054  -12.5078   18.2179 C   0  0  0  0  0  0
  -28.0278  -12.3481   18.6313 C   0  0  0  0  0  0
  -27.6543  -13.2125   19.8649 C   0  0  2  0  0  0
  -28.7015  -13.0484   20.9906 C   0  0  0  0  0  0
  -25.2544  -13.8134   20.5689 C   0  0  0  0  0  0
  -24.1814  -13.0404   20.9184 C   0  0  0  0  0  0
  -24.6392  -11.6884   20.8731 C   0  0  0  0  0  0
  -23.9061  -10.4271   21.0400 C   0  0  0  0  0  0
  -24.3612   -9.4192   21.9180 C   0  0  0  0  0  0
  -23.6286   -8.2231   22.0752 C   0  0  0  0  0  0
  -22.4269   -8.0271   21.3543 C   0  0  0  0  0  0
  -21.9903   -9.0242   20.4644 C   0  0  0  0  0  0
  -22.7233  -10.2119   20.3049 C   0  0  0  0  0  0
  -21.6848   -6.0730   22.5280 C   0  0  0  0  0  0
  -21.4011   -6.5634   23.8213 C   0  0  0  0  0  0
  -21.3658   -5.6787   24.9175 C   0  0  0  0  0  0
  -21.6045   -4.3051   24.7225 C   0  0  0  0  0  0
  -21.8819   -3.8142   23.4347 C   0  0  0  0  0  0
  -21.9190   -4.6959   22.3403 C   0  0  0  0  0  0
  -22.7840  -13.5205   21.1853 C   0  0  0  0  0  0
  -22.1661   -4.2146   21.0982 F   0  0  0  0  0  0
  -21.5630   -3.4535   25.7737 F   0  0  0  0  0  0
  -30.0207  -13.3875   20.4296 N   0  0  0  0  0  0
  -26.2991  -12.9329   20.3329 N   0  0  0  0  0  0
  -25.9321  -11.6484   20.5755 N   0  0  0  0  0  0
  -22.0481  -12.8199   22.0413 N   0  0  0  0  0  0
  -25.4173  -15.1853   20.4148 N   0  0  0  0  0  0
  -31.7889  -14.7896   20.1270 O   0  0  0  0  0  0
  -21.6633   -6.8871   21.4243 O   0  0  0  0  0  0
  -22.3522  -14.5513   20.6705 O   0  0  0  0  0  0
  -24.6228  -31.8619   23.2031 C   0  0  0  0  0  0
  -25.9086  -32.4790   23.8358 C   0  0  1  0  0  0
  -27.2304  -27.3516   20.1190 C   0  0  0  0  0  0
  -25.5912  -33.8590   24.2289 N   0  0  0  0  0  0
  -23.4151  -30.4841   21.5454 C   0  0  2  0  0  0
  -24.8633  -28.9382   20.1147 C   0  0  0  0  0  0
  -22.7454  -29.4631   22.4950 C   0  0  0  0  0  0
  -18.0280  -28.1383   22.8489 C   0  0  0  0  0  0
  -24.1491  -36.7299   23.2640 C   0  0  0  0  0  0
  -25.9524  -30.8033   21.3683 C   0  0  0  0  0  0
  -26.0292  -29.4314   20.7146 C   0  0  0  0  0  0
  -27.2183  -28.6497   20.7052 C   0  0  0  0  0  0
  -26.0466  -26.8999   19.4971 C   0  0  0  0  0  0
  -24.8714  -27.6761   19.4980 C   0  0  0  0  0  0
  -23.6287  -29.8142   20.1619 C   0  0  0  0  0  0
  -25.4115  -36.3091   24.0335 C   0  0  1  0  0  0
  -20.5878  -28.3680   23.1296 C   0  0  2  0  0  0
  -20.6769  -26.9408   22.5415 C   0  0  0  0  0  0
  -19.5750  -26.6391   21.5211 C   0  0  0  0  0  0
  -18.1927  -26.7928   22.1624 C   0  0  0  0  0  0
  -19.1533  -28.8849   23.2888 C   0  0  0  0  0  0
  -18.9457  -30.1453   23.8900 C   0  0  0  0  0  0
  -17.6458  -30.6585   24.0567 C   0  0  0  0  0  0
  -25.9046  -34.9459   23.5114 C   0  0  0  0  0  0
  -16.5349  -29.9086   23.6330 C   0  0  0  0  0  0
  -16.7268  -28.6505   23.0348 C   0  0  0  0  0  0
  -26.4486  -31.6589   25.0714 C   0  0  0  0  0  0
  -25.3731  -31.3719   26.1451 C   0  0  0  0  0  0
  -27.0322  -30.3019   24.6136 C   0  0  0  0  0  0
  -27.6054  -32.4315   25.7480 C   0  0  0  0  0  0
  -27.5581  -37.1811   24.8467 C   0  0  0  0  0  0
  -21.4171  -29.3040   22.3694 N   0  0  0  0  0  0
  -26.4298  -37.3779   23.9401 N   0  0  0  0  0  0
  -24.6821  -31.0657   22.0964 N   0  0  0  0  0  0
  -23.4190  -28.8174   23.3022 O   0  0  0  0  0  0
  -28.3633  -26.5372   20.1226 O   0  0  0  0  0  0
  -26.5608  -34.8923   22.4675 O   0  0  0  0  0  0
  -23.5400  -32.1398   23.7386 O   0  0  0  0  0  0
  -31.0061  -17.8863   20.7528 C   0  0  0  0  0  0
  -30.9668  -19.2977   20.5242 C   0  0  0  0  0  0
  -29.7727  -19.9521   20.0858 C   0  0  0  0  0  0
  -29.8610  -17.0703   20.5717 C   0  0  0  0  0  0
  -28.6284  -19.1306   19.9270 C   0  0  0  0  0  0
  -28.6718  -17.7303   20.1750 C   0  0  0  0  0  0
  -32.2442  -20.0921   20.7382 C   0  0  0  0  0  0
  -29.7387  -21.4544   19.6264 C   0  0  0  0  0  0
  -28.9615  -22.5500   20.4568 C   0  0  0  0  0  0
  -29.0245  -24.0265   19.8692 C   0  0  0  0  0  0
  -28.2095  -25.1577   20.6112 C   0  0  0  0  0  0
  -29.7992  -15.6415   20.8439 N   0  0  0  0  0  0
  -27.4693  -19.6856   19.4967 F   0  0  0  0  0  0
  -27.5471  -16.9968   20.0007 F   0  0  0  0  0  0
  -31.4807  -12.5060   19.1367 H   0  0  0  0  0  0
  -30.3760  -11.3767   19.8714 H   0  0  0  0  0  0
  -29.7641  -11.7627   17.4643 H   0  0  0  0  0  0
  -29.6499  -13.4813   17.7464 H   0  0  0  0  0  0
  -27.8618  -11.2941   18.8574 H   0  0  0  0  0  0
  -27.3721  -12.5851   17.7926 H   0  0  0  0  0  0
  -27.6744  -14.2497   19.5311 H   0  0  0  0  0  0
  -28.7076  -12.0217   21.3598 H   0  0  0  0  0  0
  -28.4510  -13.6688   21.8525 H   0  0  0  0  0  0
  -25.2759   -9.5666   22.4754 H   0  0  0  0  0  0
  -23.9992   -7.4620   22.7469 H   0  0  0  0  0  0
  -21.0833   -8.8759   19.8953 H   0  0  0  0  0  0
  -22.3692  -10.9655   19.6154 H   0  0  0  0  0  0
  -21.2005   -7.6141   23.9715 H   0  0  0  0  0  0
  -21.1483   -6.0518   25.9078 H   0  0  0  0  0  0
  -22.0601   -2.7606   23.2845 H   0  0  0  0  0  0
  -22.4091  -11.9856   22.4794 H   0  0  0  0  0  0
  -21.1102  -13.1231   22.2620 H   0  0  0  0  0  0
  -24.6450  -15.8297   20.5374 H   0  0  0  0  0  0
  -26.2687  -15.6497   20.1198 H   0  0  0  0  0  0
  -26.7156  -32.5475   23.1116 H   0  0  0  0  0  0
  -25.0072  -33.9740   25.0441 H   0  0  0  0  0  0
  -22.7077  -31.3035   21.4022 H   0  0  0  0  0  0
  -23.3746  -35.9640   23.3323 H   0  0  0  0  0  0
  -24.3577  -36.8886   22.2047 H   0  0  0  0  0  0
  -23.7256  -37.6518   23.6637 H   0  0  0  0  0  0
  -26.0774  -31.5663   20.5985 H   0  0  0  0  0  0
  -26.8357  -30.8559   21.9930 H   0  0  0  0  0  0
  -28.1169  -29.0263   21.1734 H   0  0  0  0  0  0
  -26.0263  -25.9355   19.0095 H   0  0  0  0  0  0
  -23.9782  -27.2938   19.0227 H   0  0  0  0  0  0
  -23.7436  -30.5881   19.4020 H   0  0  0  0  0  0
  -22.7507  -29.2387   19.8631 H   0  0  0  0  0  0
  -25.1298  -36.1954   25.0830 H   0  0  0  0  0  0
  -20.9978  -28.3250   24.1414 H   0  0  0  0  0  0
  -20.5676  -26.2284   23.3607 H   0  0  0  0  0  0
  -21.6638  -26.7446   22.1206 H   0  0  0  0  0  0
  -19.6910  -25.6306   21.1233 H   0  0  0  0  0  0
  -19.6690  -27.3209   20.6748 H   0  0  0  0  0  0
  -17.4203  -26.6678   21.4021 H   0  0  0  0  0  0
  -18.0327  -26.0068   22.9019 H   0  0  0  0  0  0
  -19.7933  -30.7268   24.2266 H   0  0  0  0  0  0
  -17.5015  -31.6261   24.5173 H   0  0  0  0  0  0
  -15.5352  -30.2991   23.7651 H   0  0  0  0  0  0
  -15.8667  -28.0831   22.7055 H   0  0  0  0  0  0
  -24.5900  -30.7074   25.7785 H   0  0  0  0  0  0
  -24.8933  -32.2887   26.4888 H   0  0  0  0  0  0
  -25.8067  -30.8891   27.0217 H   0  0  0  0  0  0
  -26.2883  -29.6774   24.1175 H   0  0  0  0  0  0
  -27.4055  -29.7261   25.4614 H   0  0  0  0  0  0
  -27.8735  -30.4318   23.9323 H   0  0  0  0  0  0
  -27.2676  -33.3623   26.2050 H   0  0  0  0  0  0
  -28.3869  -32.6858   25.0307 H   0  0  0  0  0  0
  -28.0716  -31.8442   26.5401 H   0  0  0  0  0  0
  -28.2617  -38.0090   24.7487 H   0  0  0  0  0  0
  -28.1057  -36.2619   24.6328 H   0  0  0  0  0  0
  -27.2292  -37.1507   25.8870 H   0  0  0  0  0  0
  -20.9343  -29.8758   21.6905 H   0  0  0  0  0  0
  -26.0185  -38.2862   24.1375 H   0  0  0  0  0  0
  -31.9285  -17.4259   21.0790 H   0  0  0  0  0  0
  -33.0012  -19.5026   21.2563 H   0  0  0  0  0  0
  -32.0509  -20.9794   21.3423 H   0  0  0  0  0  0
  -32.6648  -20.4082   19.7830 H   0  0  0  0  0  0
  -29.3151  -21.4487   18.6211 H   0  0  0  0  0  0
  -30.7576  -21.8081   19.4770 H   0  0  0  0  0  0
  -29.3514  -22.5603   21.4751 H   0  0  0  0  0  0
  -27.9163  -22.2490   20.5379 H   0  0  0  0  0  0
  -28.6885  -23.9990   18.8320 H   0  0  0  0  0  0
  -30.0703  -24.3323   19.8292 H   0  0  0  0  0  0
  -28.5257  -25.1705   21.6550 H   0  0  0  0  0  0
  -27.1631  -24.8546   20.6453 H   0  0  0  0  0  0
  -28.8730  -15.3167   21.0751 H   0  0  0  0  0  0
  1 25  1  0  0  0
  1 30  2  0  0  0
  1 82  1  0  0  0
  2  3  1  0  0  0
  2 25  1  0  0  0
  2 85  1  0  0  0
  2 86  1  0  0  0
  3  4  1  0  0  0
  3 87  1  0  0  0
  3 88  1  0  0  0
  4  5  1  0  0  0
  4 89  1  0  0  0
  4 90  1  0  0  0
  5  6  1  0  0  0
  5 26  1  0  0  0
  5 91  1  0  0  0
  6 25  1  0  0  0
  6 92  1  0  0  0
  6 93  1  0  0  0
  7  8  2  0  0  0
  7 26  1  0  0  0
  7 29  1  0  0  0
  8  9  1  0  0  0
  8 22  1  0  0  0
  9 10  1  0  0  0
  9 27  2  0  0  0
 10 11  2  0  0  0
 10 15  1  0  0  0
 11 12  1  0  0  0
 11 94  1  0  0  0
 12 13  2  0  0  0
 12 95  1  0  0  0
 13 14  1  0  0  0
 13 31  1  0  0  0
 14 15  2  0  0  0
 14 96  1  0  0  0
 15 97  1  0  0  0
 16 17  2  0  0  0
 16 21  1  0  0  0
 16 31  1  0  0  0
 17 18  1  0  0  0
 17 98  1  0  0  0
 18 19  2  0  0  0
 18 99  1  0  0  0
 19 20  1  0  0  0
 19 24  1  0  0  0
 20 21  2  0  0  0
 20100  1  0  0  0
 21 23  1  0  0  0
 22 28  1  0  0  0
 22 32  2  0  0  0
 26 27  1  0  0  0
 28101  1  0  0  0
 28102  1  0  0  0
 29103  1  0  0  0
 29104  1  0  0  0
 33 34  1  0  0  0
 33 66  1  0  0  0
 33 70  2  0  0  0
 34 36  1  0  0  0
 34 59  1  0  0  0
 34105  1  0  0  0
 35 44  2  0  0  0
 35 45  1  0  0  0
 35 68  1  0  0  0
 36 56  1  0  0  0
 36106  1  0  0  0
 37 39  1  0  0  0
 37 47  1  0  0  0
 37 66  1  0  0  0
 37107  1  0  0  0
 38 43  2  0  0  0
 38 46  1  0  0  0
 38 47  1  0  0  0
 39 64  1  0  0  0
 39 67  2  0  0  0
 40 52  1  0  0  0
 40 53  2  0  0  0
 40 58  1  0  0  0
 41108  1  0  0  0
 41109  1  0  0  0
 41110  1  0  0  0
 41 48  1  0  0  0
 42 43  1  0  0  0
 42 66  1  0  0  0
 42111  1  0  0  0
 42112  1  0  0  0
 43 44  1  0  0  0
 44113  1  0  0  0
 45 46  2  0  0  0
 45114  1  0  0  0
 46115  1  0  0  0
 47116  1  0  0  0
 47117  1  0  0  0
 48 56  1  0  0  0
 48 65  1  0  0  0
 48118  1  0  0  0
 49 50  1  0  0  0
 49 53  1  0  0  0
 49 64  1  0  0  0
 49119  1  0  0  0
 50 51  1  0  0  0
 50120  1  0  0  0
 50121  1  0  0  0
 51 52  1  0  0  0
 51122  1  0  0  0
 51123  1  0  0  0
 52124  1  0  0  0
 52125  1  0  0  0
 53 54  1  0  0  0
 54 55  2  0  0  0
 54126  1  0  0  0
 55 57  1  0  0  0
 55127  1  0  0  0
 56 69  2  0  0  0
 57 58  2  0  0  0
 57128  1  0  0  0
 58129  1  0  0  0
 59 60  1  0  0  0
 59 61  1  0  0  0
 59 62  1  0  0  0
 60130  1  0  0  0
 60131  1  0  0  0
 60132  1  0  0  0
 61133  1  0  0  0
 61134  1  0  0  0
 61135  1  0  0  0
 62136  1  0  0  0
 62137  1  0  0  0
 62138  1  0  0  0
 63 65  1  0  0  0
 63139  1  0  0  0
 63140  1  0  0  0
 63141  1  0  0  0
 64142  1  0  0  0
 65143  1  0  0  0
 68 81  1  0  0  0
 71 72  2  0  0  0
 71 74  1  0  0  0
 71144  1  0  0  0
 72 73  1  0  0  0
 72 77  1  0  0  0
 73 75  2  0  0  0
 73 78  1  0  0  0
 74 76  2  0  0  0
 74 82  1  0  0  0
 75 76  1  0  0  0
 75 83  1  0  0  0
 76 84  1  0  0  0
 77145  1  0  0  0
 77146  1  0  0  0
 77147  1  0  0  0
 78 79  1  0  0  0
 78148  1  0  0  0
 78149  1  0  0  0
 79 80  1  0  0  0
 79150  1  0  0  0
 79151  1  0  0  0
 80 81  1  0  0  0
 80152  1  0  0  0
 80153  1  0  0  0
 81154  1  0  0  0
 81155  1  0  0  0
 82156  1  0  0  0
M  ISO  4   1 100  68 101  81 101  82 100
M  END
> <chiral flag>
0

> <version>
0

> <s_m_source_file>
/data/baiqing/PycharmProjects/Reinvent-master-3.2/result/LINK_invent/BTK/process_docking_weight1_custom_sum_contain_oxygen_bond_distance_aromatic_linkinvent_7_9_3/rearranged_h_0028.sdf

> <i_m_source_file_index>
1

> <r_mmod_Potential_Energy-OPLS-2005>
58.4712944030762

> <r_mmod_Stretch_Energy-OPLS-2005>
66.7554550170898

> <r_mmod_Bend_Energy-OPLS-2005>
122.838333129883

> <r_mmod_Torsional_Energy-OPLS-2005>
236.148071289062

> <r_mmod_Improper_Torsional_Energy-OPLS-2005>
5.74975347518921

> <r_mmod_Van_der_Waal_Energy-OPLS-2005>
140.60319519043

> <r_mmod_Electrostatic_Energy-OPLS-2005>
-363.896270751953

> <r_mmod_Solvation_Energy-OPLS-2005>
-186.770919799805

> <b_mmod_Minimization_Converged-OPLS-2005>
0

> <r_mmod_RMS_Derivative-OPLS-2005>
0.62299770116806

$$$$
1
                    3D
 Structure written by MMmdl.
159167  0  0  1  0            999 V2000
  -30.6427  -14.5960   20.5108 C   0  0  0  0  0  0
  -30.4358  -12.3650   19.4477 C   0  0  0  0  0  0
  -29.5056  -12.5049   18.2228 C   0  0  0  0  0  0
  -28.0278  -12.3510   18.6342 C   0  0  0  0  0  0
  -27.6578  -13.2141   19.8703 C   0  0  2  0  0  0
  -28.7028  -13.0460   20.9975 C   0  0  0  0  0  0
  -25.2576  -13.8172   20.5690 C   0  0  0  0  0  0
  -24.1837  -13.0441   20.9180 C   0  0  0  0  0  0
  -24.6402  -11.6911   20.8740 C   0  0  0  0  0  0
  -23.9070  -10.4294   21.0407 C   0  0  0  0  0  0
  -24.3617   -9.4206   21.9184 C   0  0  0  0  0  0
  -23.6292   -8.2241   22.0752 C   0  0  0  0  0  0
  -22.4272   -8.0279   21.3544 C   0  0  0  0  0  0
  -21.9912   -9.0253   20.4644 C   0  0  0  0  0  0
  -22.7243  -10.2134   20.3056 C   0  0  0  0  0  0
  -21.6852   -6.0738   22.5280 C   0  0  0  0  0  0
  -21.4014   -6.5642   23.8213 C   0  0  0  0  0  0
  -21.3660   -5.6793   24.9175 C   0  0  0  0  0  0
  -21.6042   -4.3055   24.7223 C   0  0  0  0  0  0
  -21.8820   -3.8149   23.4344 C   0  0  0  0  0  0
  -21.9191   -4.6967   22.3403 C   0  0  0  0  0  0
  -22.7854  -13.5227   21.1844 C   0  0  0  0  0  0
  -22.1660   -4.2153   21.0980 F   0  0  0  0  0  0
  -21.5627   -3.4538   25.7737 F   0  0  0  0  0  0
  -30.0250  -13.3769   20.4396 N   0  0  0  0  0  0
  -26.3011  -12.9355   20.3357 N   0  0  0  0  0  0
  -25.9330  -11.6509   20.5776 N   0  0  0  0  0  0
  -22.0500  -12.8220   22.0405 N   0  0  0  0  0  0
  -25.4294  -15.1893   20.4094 N   0  0  0  0  0  0
  -31.7864  -14.7700   20.0807 O   0  0  0  0  0  0
  -21.6635   -6.8879   21.4241 O   0  0  0  0  0  0
  -22.3533  -14.5534   20.6694 O   0  0  0  0  0  0
  -24.6238  -31.8621   23.2055 C   0  0  0  0  0  0
  -25.9093  -32.4792   23.8370 C   0  0  1  0  0  0
  -27.2249  -27.3489   20.1061 C   0  0  0  0  0  0
  -25.5918  -33.8595   24.2289 N   0  0  0  0  0  0
  -23.4149  -30.4866   21.5477 C   0  0  2  0  0  0
  -24.8622  -28.9499   20.1092 C   0  0  0  0  0  0
  -22.7462  -29.4623   22.4950 C   0  0  0  0  0  0
  -18.0275  -28.1364   22.8471 C   0  0  0  0  0  0
  -24.1496  -36.7300   23.2637 C   0  0  0  0  0  0
  -25.9557  -30.8014   21.3743 C   0  0  0  0  0  0
  -26.0303  -29.4330   20.7138 C   0  0  0  0  0  0
  -27.2163  -28.6443   20.7017 C   0  0  0  0  0  0
  -26.0375  -26.9190   19.4694 C   0  0  0  0  0  0
  -24.8668  -27.6971   19.4794 C   0  0  0  0  0  0
  -23.6281  -29.8249   20.1621 C   0  0  0  0  0  0
  -25.4121  -36.3088   24.0324 C   0  0  1  0  0  0
  -20.5874  -28.3666   23.1280 C   0  0  2  0  0  0
  -20.6771  -26.9396   22.5399 C   0  0  0  0  0  0
  -19.5755  -26.6364   21.5195 C   0  0  0  0  0  0
  -18.1926  -26.7907   22.1600 C   0  0  0  0  0  0
  -19.1527  -28.8830   23.2871 C   0  0  0  0  0  0
  -18.9460  -30.1428   23.8895 C   0  0  0  0  0  0
  -17.6466  -30.6576   24.0546 C   0  0  0  0  0  0
  -25.9051  -34.9459   23.5107 C   0  0  0  0  0  0
  -16.5352  -29.9073   23.6325 C   0  0  0  0  0  0
  -16.7264  -28.6486   23.0348 C   0  0  0  0  0  0
  -26.4489  -31.6594   25.0725 C   0  0  0  0  0  0
  -25.3720  -31.3718   26.1447 C   0  0  0  0  0  0
  -27.0323  -30.3021   24.6156 C   0  0  0  0  0  0
  -27.6057  -32.4330   25.7488 C   0  0  0  0  0  0
  -27.5590  -37.1808   24.8465 C   0  0  0  0  0  0
  -21.4178  -29.3033   22.3694 N   0  0  0  0  0  0
  -26.4305  -37.3777   23.9403 N   0  0  0  0  0  0
  -24.6831  -31.0657   22.0994 N   0  0  0  0  0  0
  -23.4208  -28.8162   23.3008 O   0  0  0  0  0  0
  -28.3419  -26.5046   20.1580 O   0  0  0  0  0  0
  -26.5621  -34.8921   22.4674 O   0  0  0  0  0  0
  -23.5409  -32.1413   23.7400 O   0  0  0  0  0  0
  -30.7531  -17.7350   19.8433 C   0  0  0  0  0  0
  -29.2527  -19.3283   21.6159 C   0  0  0  0  0  0
  -30.0399  -19.9960   20.6262 C   0  0  0  0  0  0
  -29.9792  -17.0719   20.8264 C   0  0  0  0  0  0
  -30.7770  -19.1537   19.7363 C   0  0  0  0  0  0
  -29.2050  -17.8970   21.6849 C   0  0  0  0  0  0
  -28.4585  -20.1400   22.6353 C   0  0  0  0  0  0
  -27.5953  -25.0217   21.9281 C   0  0  0  0  0  0
  -30.2192  -21.5632   20.6001 C   0  0  0  0  0  0
  -29.0024  -22.5252   20.2980 C   0  0  0  0  0  0
  -29.3209  -24.0864   20.2919 C   0  0  0  0  0  0
  -28.1030  -25.0797   20.4730 C   0  0  2  0  0  0
  -29.8726  -15.6237   20.9642 N   0  0  0  0  0  0
  -31.7689  -19.8243   18.4879 Cl  0  0  0  0  0  0
  -28.1837  -17.1123   22.8467 Cl  0  0  0  0  0  0
  -31.4784  -12.4801   19.1451 H   0  0  0  0  0  0
  -30.3601  -11.3641   19.8763 H   0  0  0  0  0  0
  -29.7606  -11.7603   17.4679 H   0  0  0  0  0  0
  -29.6571  -13.4792   17.7560 H   0  0  0  0  0  0
  -27.8554  -11.2968   18.8563 H   0  0  0  0  0  0
  -27.3746  -12.5932   17.7954 H   0  0  0  0  0  0
  -27.6853  -14.2536   19.5425 H   0  0  0  0  0  0
  -28.7027  -12.0191   21.3657 H   0  0  0  0  0  0
  -28.4525  -13.6669   21.8589 H   0  0  0  0  0  0
  -25.2763   -9.5679   22.4758 H   0  0  0  0  0  0
  -23.9999   -7.4632   22.7473 H   0  0  0  0  0  0
  -21.0841   -8.8773   19.8947 H   0  0  0  0  0  0
  -22.3701  -10.9672   19.6161 H   0  0  0  0  0  0
  -21.2012   -7.6151   23.9720 H   0  0  0  0  0  0
  -21.1480   -6.0523   25.9080 H   0  0  0  0  0  0
  -22.0601   -2.7611   23.2844 H   0  0  0  0  0  0
  -22.4111  -11.9870   22.4781 H   0  0  0  0  0  0
  -21.1119  -13.1242   22.2624 H   0  0  0  0  0  0
  -24.6667  -15.8467   20.5291 H   0  0  0  0  0  0
  -26.2878  -15.6306   20.1057 H   0  0  0  0  0  0
  -26.7172  -32.5474   23.1128 H   0  0  0  0  0  0
  -25.0058  -33.9741   25.0427 H   0  0  0  0  0  0
  -22.7052  -31.3049   21.4078 H   0  0  0  0  0  0
  -23.3754  -35.9639   23.3300 H   0  0  0  0  0  0
  -24.3585  -36.8914   22.2054 H   0  0  0  0  0  0
  -23.7261  -37.6502   23.6666 H   0  0  0  0  0  0
  -26.0850  -31.5695   20.6113 H   0  0  0  0  0  0
  -26.8375  -30.8465   22.0022 H   0  0  0  0  0  0
  -28.1119  -29.0088   21.1852 H   0  0  0  0  0  0
  -25.9874  -25.9727   18.9532 H   0  0  0  0  0  0
  -23.9740  -27.3241   18.9951 H   0  0  0  0  0  0
  -23.7427  -30.6040   19.4072 H   0  0  0  0  0  0
  -22.7501  -29.2505   19.8614 H   0  0  0  0  0  0
  -25.1303  -36.1944   25.0817 H   0  0  0  0  0  0
  -20.9949  -28.3247   24.1404 H   0  0  0  0  0  0
  -20.5656  -26.2285   23.3597 H   0  0  0  0  0  0
  -21.6642  -26.7422   22.1203 H   0  0  0  0  0  0
  -19.6920  -25.6275   21.1222 H   0  0  0  0  0  0
  -19.6698  -27.3178   20.6727 H   0  0  0  0  0  0
  -17.4193  -26.6638   21.4002 H   0  0  0  0  0  0
  -18.0334  -26.0047   22.8996 H   0  0  0  0  0  0
  -19.7946  -30.7217   24.2281 H   0  0  0  0  0  0
  -17.5030  -31.6262   24.5135 H   0  0  0  0  0  0
  -15.5355  -30.2974   23.7649 H   0  0  0  0  0  0
  -15.8658  -28.0800   22.7082 H   0  0  0  0  0  0
  -24.5905  -30.7058   25.7773 H   0  0  0  0  0  0
  -24.8901  -32.2883   26.4872 H   0  0  0  0  0  0
  -25.8044  -30.8898   27.0223 H   0  0  0  0  0  0
  -26.2879  -29.6780   24.1204 H   0  0  0  0  0  0
  -27.4045  -29.7271   25.4641 H   0  0  0  0  0  0
  -27.8743  -30.4296   23.9345 H   0  0  0  0  0  0
  -27.2673  -33.3639   26.2049 H   0  0  0  0  0  0
  -28.3885  -32.6868   25.0329 H   0  0  0  0  0  0
  -28.0709  -31.8460   26.5421 H   0  0  0  0  0  0
  -28.2599  -38.0112   24.7510 H   0  0  0  0  0  0
  -28.1084  -36.2637   24.6287 H   0  0  0  0  0  0
  -27.2296  -37.1448   25.8863 H   0  0  0  0  0  0
  -20.9350  -29.8768   21.6919 H   0  0  0  0  0  0
  -26.0177  -38.2845   24.1414 H   0  0  0  0  0  0
  -31.3392  -17.1600   19.1422 H   0  0  0  0  0  0
  -28.9213  -21.0997   22.8574 H   0  0  0  0  0  0
  -28.3812  -19.6301   23.5941 H   0  0  0  0  0  0
  -27.4488  -20.3230   22.2673 H   0  0  0  0  0  0
  -27.4007  -24.0012   22.2537 H   0  0  0  0  0  0
  -26.6624  -25.5712   22.0531 H   0  0  0  0  0  0
  -28.3238  -25.4519   22.6164 H   0  0  0  0  0  0
  -31.0118  -21.8324   19.9057 H   0  0  0  0  0  0
  -30.6362  -21.8390   21.5688 H   0  0  0  0  0  0
  -28.2126  -22.3256   21.0178 H   0  0  0  0  0  0
  -28.5762  -22.2584   19.3303 H   0  0  0  0  0  0
  -29.8206  -24.3196   19.3509 H   0  0  0  0  0  0
  -30.0549  -24.3039   21.0679 H   0  0  0  0  0  0
  -27.3302  -24.6768   19.8227 H   0  0  0  0  0  0
  -29.0326  -15.3232   21.4370 H   0  0  0  0  0  0
  1 25  1  0  0  0
  1 30  2  0  0  0
  1 83  1  0  0  0
  2  3  1  0  0  0
  2 25  1  0  0  0
  2 86  1  0  0  0
  2 87  1  0  0  0
  3  4  1  0  0  0
  3 88  1  0  0  0
  3 89  1  0  0  0
  4  5  1  0  0  0
  4 90  1  0  0  0
  4 91  1  0  0  0
  5  6  1  0  0  0
  5 26  1  0  0  0
  5 92  1  0  0  0
  6 25  1  0  0  0
  6 93  1  0  0  0
  6 94  1  0  0  0
  7  8  2  0  0  0
  7 26  1  0  0  0
  7 29  1  0  0  0
  8  9  1  0  0  0
  8 22  1  0  0  0
  9 10  1  0  0  0
  9 27  2  0  0  0
 10 11  2  0  0  0
 10 15  1  0  0  0
 11 12  1  0  0  0
 11 95  1  0  0  0
 12 13  2  0  0  0
 12 96  1  0  0  0
 13 14  1  0  0  0
 13 31  1  0  0  0
 14 15  2  0  0  0
 14 97  1  0  0  0
 15 98  1  0  0  0
 16 17  2  0  0  0
 16 21  1  0  0  0
 16 31  1  0  0  0
 17 18  1  0  0  0
 17 99  1  0  0  0
 18 19  2  0  0  0
 18100  1  0  0  0
 19 20  1  0  0  0
 19 24  1  0  0  0
 20 21  2  0  0  0
 20101  1  0  0  0
 21 23  1  0  0  0
 22 28  1  0  0  0
 22 32  2  0  0  0
 26 27  1  0  0  0
 28102  1  0  0  0
 28103  1  0  0  0
 29104  1  0  0  0
 29105  1  0  0  0
 33 34  1  0  0  0
 33 66  1  0  0  0
 33 70  2  0  0  0
 34 36  1  0  0  0
 34 59  1  0  0  0
 34106  1  0  0  0
 35 44  2  0  0  0
 35 45  1  0  0  0
 35 68  1  0  0  0
 36 56  1  0  0  0
 36107  1  0  0  0
 37 39  1  0  0  0
 37 47  1  0  0  0
 37 66  1  0  0  0
 37108  1  0  0  0
 38 43  2  0  0  0
 38 46  1  0  0  0
 38 47  1  0  0  0
 39 64  1  0  0  0
 39 67  2  0  0  0
 40 52  1  0  0  0
 40 53  2  0  0  0
 40 58  1  0  0  0
 41109  1  0  0  0
 41110  1  0  0  0
 41111  1  0  0  0
 41 48  1  0  0  0
 42 43  1  0  0  0
 42 66  1  0  0  0
 42112  1  0  0  0
 42113  1  0  0  0
 43 44  1  0  0  0
 44114  1  0  0  0
 45 46  2  0  0  0
 45115  1  0  0  0
 46116  1  0  0  0
 47117  1  0  0  0
 47118  1  0  0  0
 48 56  1  0  0  0
 48 65  1  0  0  0
 48119  1  0  0  0
 49 50  1  0  0  0
 49 53  1  0  0  0
 49 64  1  0  0  0
 49120  1  0  0  0
 50 51  1  0  0  0
 50121  1  0  0  0
 50122  1  0  0  0
 51 52  1  0  0  0
 51123  1  0  0  0
 51124  1  0  0  0
 52125  1  0  0  0
 52126  1  0  0  0
 53 54  1  0  0  0
 54 55  2  0  0  0
 54127  1  0  0  0
 55 57  1  0  0  0
 55128  1  0  0  0
 56 69  2  0  0  0
 57 58  2  0  0  0
 57129  1  0  0  0
 58130  1  0  0  0
 59 60  1  0  0  0
 59 61  1  0  0  0
 59 62  1  0  0  0
 60131  1  0  0  0
 60132  1  0  0  0
 60133  1  0  0  0
 61134  1  0  0  0
 61135  1  0  0  0
 61136  1  0  0  0
 62137  1  0  0  0
 62138  1  0  0  0
 62139  1  0  0  0
 63 65  1  0  0  0
 63140  1  0  0  0
 63141  1  0  0  0
 63142  1  0  0  0
 64143  1  0  0  0
 65144  1  0  0  0
 68 82  1  0  0  0
 71 74  2  0  0  0
 71 75  1  0  0  0
 71145  1  0  0  0
 72 73  1  0  0  0
 72 76  2  0  0  0
 72 77  1  0  0  0
 73 75  2  0  0  0
 73 79  1  0  0  0
 74 76  1  0  0  0
 74 83  1  0  0  0
 75 84  1  0  0  0
 76 85  1  0  0  0
 77146  1  0  0  0
 77147  1  0  0  0
 77148  1  0  0  0
 78149  1  0  0  0
 78150  1  0  0  0
 78151  1  0  0  0
 78 82  1  0  0  0
 79 80  1  0  0  0
 79152  1  0  0  0
 79153  1  0  0  0
 80 81  1  0  0  0
 80154  1  0  0  0
 80155  1  0  0  0
 81 82  1  0  0  0
 81156  1  0  0  0
 81157  1  0  0  0
 82158  1  0  0  0
 83159  1  0  0  0
M  ISO  4   1 100  68 101  82 101  83 100
M  END
> <chiral flag>
0

> <version>
0

> <s_m_source_file>
/data/baiqing/PycharmProjects/Reinvent-master-3.2/result/LINK_invent/BTK/process_docking_weight1_custom_sum_contain_oxygen_bond_distance_aromatic_linkinvent_7_9_3/rearranged_h_0028.sdf

> <i_m_source_file_index>
2

> <r_mmod_Potential_Energy-OPLS-2005>
27.4178161621094

> <r_mmod_Stretch_Energy-OPLS-2005>
73.5717391967773

> <r_mmod_Bend_Energy-OPLS-2005>
127.018379211426

> <r_mmod_Torsional_Energy-OPLS-2005>
225.018569946289

> <r_mmod_Improper_Torsional_Energy-OPLS-2005>
3.65861010551453

> <r_mmod_Van_der_Waal_Energy-OPLS-2005>
153.4638671875

> <r_mmod_Electrostatic_Energy-OPLS-2005>
-398.476867675781

> <r_mmod_Solvation_Energy-OPLS-2005>
-193.706298828125

> <b_mmod_Minimization_Converged-OPLS-2005>
0

> <r_mmod_RMS_Derivative-OPLS-2005>
1.3037691116333

$$$$
2
                    3D
 Structure written by MMmdl.
153161  0  0  1  0            999 V2000
  -30.3843  -15.3283   20.3707 C   0  0  0  0  0  0
  -30.4520  -12.8610   19.5047 C   0  0  0  0  0  0
  -29.5440  -12.5680   18.2834 C   0  0  0  0  0  0
  -28.0939  -12.2865   18.7169 C   0  0  0  0  0  0
  -27.6079  -13.2721   19.8055 C   0  0  2  0  0  0
  -28.6458  -13.4653   20.9288 C   0  0  0  0  0  0
  -25.2392  -13.8182   20.5737 C   0  0  0  0  0  0
  -24.1744  -13.0373   20.9234 C   0  0  0  0  0  0
  -24.6393  -11.6888   20.8740 C   0  0  0  0  0  0
  -23.9084  -10.4249   21.0381 C   0  0  0  0  0  0
  -24.3636   -9.4173   21.9165 C   0  0  0  0  0  0
  -23.6313   -8.2206   22.0734 C   0  0  0  0  0  0
  -22.4301   -8.0239   21.3512 C   0  0  0  0  0  0
  -21.9919   -9.0213   20.4621 C   0  0  0  0  0  0
  -22.7247  -10.2095   20.3029 C   0  0  0  0  0  0
  -21.6850   -6.0735   22.5284 C   0  0  0  0  0  0
  -21.4017   -6.5636   23.8219 C   0  0  0  0  0  0
  -21.3662   -5.6777   24.9173 C   0  0  0  0  0  0
  -21.6050   -4.3040   24.7221 C   0  0  0  0  0  0
  -21.8829   -3.8141   23.4339 C   0  0  0  0  0  0
  -21.9192   -4.6963   22.3399 C   0  0  0  0  0  0
  -22.7772  -13.5167   21.1925 C   0  0  0  0  0  0
  -22.1670   -4.2147   21.0976 F   0  0  0  0  0  0
  -21.5633   -3.4525   25.7734 F   0  0  0  0  0  0
  -29.8519  -14.0070   20.2810 N   0  0  0  0  0  0
  -26.2818  -12.9475   20.3151 N   0  0  0  0  0  0
  -25.9336  -11.6588   20.5674 N   0  0  0  0  0  0
  -22.0440  -12.8158   22.0471 N   0  0  0  0  0  0
  -25.3991  -15.1930   20.4281 N   0  0  0  0  0  0
  -31.6211  -15.3380   20.2734 O   0  0  0  0  0  0
  -21.6625   -6.8883   21.4244 O   0  0  0  0  0  0
  -22.3445  -14.5470   20.6770 O   0  0  0  0  0  0
  -24.6623  -31.8231   23.1731 C   0  0  0  0  0  0
  -25.9276  -32.4589   23.8189 C   0  0  1  0  0  0
  -27.2154  -26.9000   20.1936 C   0  0  0  0  0  0
  -25.5954  -33.8400   24.2082 N   0  0  0  0  0  0
  -23.4800  -30.4341   21.5228 C   0  0  2  0  0  0
  -24.9338  -28.8101   20.1260 C   0  0  0  0  0  0
  -22.7642  -29.4432   22.4790 C   0  0  0  0  0  0
  -18.0312  -28.1398   22.8474 C   0  0  0  0  0  0
  -24.1498  -36.7193   23.2646 C   0  0  0  0  0  0
  -26.0529  -30.6207   21.4050 C   0  0  0  0  0  0
  -26.1208  -29.2049   20.7547 C   0  0  0  0  0  0
  -27.2585  -28.2726   20.7579 C   0  0  0  0  0  0
  -25.9955  -26.6581   19.5243 C   0  0  0  0  0  0
  -24.8977  -27.5563   19.4910 C   0  0  0  0  0  0
  -23.7229  -29.7445   20.1523 C   0  0  0  0  0  0
  -25.4151  -36.2957   24.0298 C   0  0  1  0  0  0
  -20.5939  -28.3729   23.1198 C   0  0  2  0  0  0
  -20.6783  -26.9399   22.5402 C   0  0  0  0  0  0
  -19.5769  -26.6370   21.5203 C   0  0  0  0  0  0
  -18.1942  -26.7931   22.1620 C   0  0  0  0  0  0
  -19.1583  -28.8887   23.2815 C   0  0  0  0  0  0
  -18.9490  -30.1474   23.8865 C   0  0  0  0  0  0
  -17.6473  -30.6591   24.0542 C   0  0  0  0  0  0
  -25.9104  -34.9342   23.5019 C   0  0  0  0  0  0
  -16.5362  -29.9071   23.6339 C   0  0  0  0  0  0
  -16.7290  -28.6494   23.0370 C   0  0  0  0  0  0
  -26.4537  -31.6545   25.0717 C   0  0  0  0  0  0
  -25.3663  -31.3766   26.1364 C   0  0  0  0  0  0
  -27.0454  -30.2949   24.6427 C   0  0  0  0  0  0
  -27.6053  -32.4337   25.7482 C   0  0  0  0  0  0
  -27.5562  -37.1748   24.8449 C   0  0  0  0  0  0
  -21.4308  -29.3027   22.3531 N   0  0  0  0  0  0
  -26.4287  -37.3709   23.9382 N   0  0  0  0  0  0
  -24.7550  -30.9840   22.0896 N   0  0  0  0  0  0
  -23.4168  -28.7960   23.3017 O   0  0  0  0  0  0
  -28.2303  -25.7941   20.1934 O   0  0  0  0  0  0
  -26.5698  -34.8867   22.4598 O   0  0  0  0  0  0
  -23.5664  -32.1191   23.6801 O   0  0  0  0  0  0
  -28.8108  -20.7710   22.0732 C   0  0  0  0  0  0
  -28.9505  -20.9167   20.6665 C   0  0  0  0  0  0
  -29.1300  -18.2589   22.1127 C   0  0  0  0  0  0
  -29.4331  -18.1264   20.7312 C   0  0  0  0  0  0
  -28.8607  -19.5123   22.7352 C   0  0  0  0  0  0
  -29.2734  -19.5203   20.0440 C   0  0  0  0  0  0
  -28.6015  -22.0050   22.9382 C   0  0  0  0  0  0
  -28.9813  -17.0041   22.9746 C   0  0  0  0  0  0
  -28.8417  -22.5739   20.0171 C   0  0  0  0  0  0
  -28.0312  -24.1625   20.4816 C   0  0  0  0  0  0
  -29.5720  -16.5772   20.2233 N   0  0  0  0  0  0
  -28.5971  -19.5027   24.0662 F   0  0  0  0  0  0
  -29.4716  -19.4999   18.3316 Cl  0  0  0  0  0  0
  -31.4522  -13.1149   19.1522 H   0  0  0  0  0  0
  -30.5735  -11.9743   20.1311 H   0  0  0  0  0  0
  -29.9391  -11.7252   17.7146 H   0  0  0  0  0  0
  -29.5583  -13.4244   17.6095 H   0  0  0  0  0  0
  -28.0619  -11.2708   19.1099 H   0  0  0  0  0  0
  -27.4311  -12.3022   17.8541 H   0  0  0  0  0  0
  -27.5116  -14.2318   19.2911 H   0  0  0  0  0  0
  -28.8427  -12.5278   21.4516 H   0  0  0  0  0  0
  -28.2809  -14.1699   21.6753 H   0  0  0  0  0  0
  -25.2787   -9.5652   22.4738 H   0  0  0  0  0  0
  -24.0026   -7.4602   22.7457 H   0  0  0  0  0  0
  -21.0839   -8.8711   19.8950 H   0  0  0  0  0  0
  -22.3681  -10.9625   19.6129 H   0  0  0  0  0  0
  -21.1979   -7.6138   23.9728 H   0  0  0  0  0  0
  -21.1511   -6.0504   25.9084 H   0  0  0  0  0  0
  -22.0608   -2.7604   23.2831 H   0  0  0  0  0  0
  -22.4119  -11.9855   22.4907 H   0  0  0  0  0  0
  -21.1009  -13.1136   22.2623 H   0  0  0  0  0  0
  -24.6250  -15.8331   20.5673 H   0  0  0  0  0  0
  -26.2407  -15.6508   20.1080 H   0  0  0  0  0  0
  -26.7323  -32.5129   23.0858 H   0  0  0  0  0  0
  -25.0066  -33.9519   25.0213 H   0  0  0  0  0  0
  -22.7960  -31.2673   21.3459 H   0  0  0  0  0  0
  -23.3789  -35.9489   23.3280 H   0  0  0  0  0  0
  -24.3579  -36.8880   22.2061 H   0  0  0  0  0  0
  -23.7220  -37.6355   23.6739 H   0  0  0  0  0  0
  -26.2273  -31.3603   20.6208 H   0  0  0  0  0  0
  -26.9137  -30.6883   22.0583 H   0  0  0  0  0  0
  -28.1605  -28.5809   21.2667 H   0  0  0  0  0  0
  -25.8703  -25.7061   19.0282 H   0  0  0  0  0  0
  -23.9913  -27.2529   18.9872 H   0  0  0  0  0  0
  -23.8821  -30.5104   19.3926 H   0  0  0  0  0  0
  -22.8345  -29.1982   19.8336 H   0  0  0  0  0  0
  -25.1347  -36.1771   25.0803 H   0  0  0  0  0  0
  -21.0042  -28.3328   24.1313 H   0  0  0  0  0  0
  -20.5689  -26.2318   23.3639 H   0  0  0  0  0  0
  -21.6663  -26.7379   22.1206 H   0  0  0  0  0  0
  -19.6943  -25.6268   21.1271 H   0  0  0  0  0  0
  -19.6742  -27.3150   20.6727 H   0  0  0  0  0  0
  -17.4220  -26.6671   21.4015 H   0  0  0  0  0  0
  -18.0339  -26.0081   22.9018 H   0  0  0  0  0  0
  -19.7968  -30.7294   24.2243 H   0  0  0  0  0  0
  -17.5023  -31.6291   24.5121 H   0  0  0  0  0  0
  -15.5369  -30.2953   23.7718 H   0  0  0  0  0  0
  -15.8682  -28.0795   22.7141 H   0  0  0  0  0  0
  -24.5880  -30.7098   25.7614 H   0  0  0  0  0  0
  -24.8824  -32.2965   26.4674 H   0  0  0  0  0  0
  -25.7912  -30.8983   27.0210 H   0  0  0  0  0  0
  -26.3157  -29.6597   24.1418 H   0  0  0  0  0  0
  -27.3980  -29.7311   25.5058 H   0  0  0  0  0  0
  -27.9064  -30.4133   23.9862 H   0  0  0  0  0  0
  -27.2687  -33.3697   26.1942 H   0  0  0  0  0  0
  -28.3929  -32.6804   25.0348 H   0  0  0  0  0  0
  -28.0659  -31.8552   26.5486 H   0  0  0  0  0  0
  -28.2542  -38.0071   24.7547 H   0  0  0  0  0  0
  -28.1113  -36.2614   24.6273 H   0  0  0  0  0  0
  -27.2276  -37.1351   25.8846 H   0  0  0  0  0  0
  -20.9527  -29.8698   21.6672 H   0  0  0  0  0  0
  -26.0131  -38.2751   24.1487 H   0  0  0  0  0  0
  -27.6106  -22.4216   22.7610 H   0  0  0  0  0  0
  -29.3639  -22.7476   22.7099 H   0  0  0  0  0  0
  -28.6876  -21.8066   24.0043 H   0  0  0  0  0  0
  -29.8460  -16.3510   22.9007 H   0  0  0  0  0  0
  -28.0995  -16.4491   22.6568 H   0  0  0  0  0  0
  -28.8582  -17.2236   24.0328 H   0  0  0  0  0  0
  -28.5450  -22.4163   18.9804 H   0  0  0  0  0  0
  -29.8900  -22.8523   19.9354 H   0  0  0  0  0  0
  -28.1413  -24.2037   21.5600 H   0  0  0  0  0  0
  -26.9625  -23.9874   20.3444 H   0  0  0  0  0  0
  -28.6679  -16.2690   19.9026 H   0  0  0  0  0  0
  1 25  1  0  0  0
  1 30  2  0  0  0
  1 81  1  0  0  0
  2  3  1  0  0  0
  2 25  1  0  0  0
  2 84  1  0  0  0
  2 85  1  0  0  0
  3  4  1  0  0  0
  3 86  1  0  0  0
  3 87  1  0  0  0
  4  5  1  0  0  0
  4 88  1  0  0  0
  4 89  1  0  0  0
  5  6  1  0  0  0
  5 26  1  0  0  0
  5 90  1  0  0  0
  6 25  1  0  0  0
  6 91  1  0  0  0
  6 92  1  0  0  0
  7  8  2  0  0  0
  7 26  1  0  0  0
  7 29  1  0  0  0
  8  9  1  0  0  0
  8 22  1  0  0  0
  9 10  1  0  0  0
  9 27  2  0  0  0
 10 11  2  0  0  0
 10 15  1  0  0  0
 11 12  1  0  0  0
 11 93  1  0  0  0
 12 13  2  0  0  0
 12 94  1  0  0  0
 13 14  1  0  0  0
 13 31  1  0  0  0
 14 15  2  0  0  0
 14 95  1  0  0  0
 15 96  1  0  0  0
 16 17  2  0  0  0
 16 21  1  0  0  0
 16 31  1  0  0  0
 17 18  1  0  0  0
 17 97  1  0  0  0
 18 19  2  0  0  0
 18 98  1  0  0  0
 19 20  1  0  0  0
 19 24  1  0  0  0
 20 21  2  0  0  0
 20 99  1  0  0  0
 21 23  1  0  0  0
 22 28  1  0  0  0
 22 32  2  0  0  0
 26 27  1  0  0  0
 28100  1  0  0  0
 28101  1  0  0  0
 29102  1  0  0  0
 29103  1  0  0  0
 33 34  1  0  0  0
 33 66  1  0  0  0
 33 70  2  0  0  0
 34 36  1  0  0  0
 34 59  1  0  0  0
 34104  1  0  0  0
 35 44  2  0  0  0
 35 45  1  0  0  0
 35 68  1  0  0  0
 36 56  1  0  0  0
 36105  1  0  0  0
 37 39  1  0  0  0
 37 47  1  0  0  0
 37 66  1  0  0  0
 37106  1  0  0  0
 38 43  2  0  0  0
 38 46  1  0  0  0
 38 47  1  0  0  0
 39 64  1  0  0  0
 39 67  2  0  0  0
 40 52  1  0  0  0
 40 53  2  0  0  0
 40 58  1  0  0  0
 41107  1  0  0  0
 41108  1  0  0  0
 41109  1  0  0  0
 41 48  1  0  0  0
 42 43  1  0  0  0
 42 66  1  0  0  0
 42110  1  0  0  0
 42111  1  0  0  0
 43 44  1  0  0  0
 44112  1  0  0  0
 45 46  2  0  0  0
 45113  1  0  0  0
 46114  1  0  0  0
 47115  1  0  0  0
 47116  1  0  0  0
 48 56  1  0  0  0
 48 65  1  0  0  0
 48117  1  0  0  0
 49 50  1  0  0  0
 49 53  1  0  0  0
 49 64  1  0  0  0
 49118  1  0  0  0
 50 51  1  0  0  0
 50119  1  0  0  0
 50120  1  0  0  0
 51 52  1  0  0  0
 51121  1  0  0  0
 51122  1  0  0  0
 52123  1  0  0  0
 52124  1  0  0  0
 53 54  1  0  0  0
 54 55  2  0  0  0
 54125  1  0  0  0
 55 57  1  0  0  0
 55126  1  0  0  0
 56 69  2  0  0  0
 57 58  2  0  0  0
 57127  1  0  0  0
 58128  1  0  0  0
 59 60  1  0  0  0
 59 61  1  0  0  0
 59 62  1  0  0  0
 60129  1  0  0  0
 60130  1  0  0  0
 60131  1  0  0  0
 61132  1  0  0  0
 61133  1  0  0  0
 61134  1  0  0  0
 62135  1  0  0  0
 62136  1  0  0  0
 62137  1  0  0  0
 63 65  1  0  0  0
 63138  1  0  0  0
 63139  1  0  0  0
 63140  1  0  0  0
 64141  1  0  0  0
 65142  1  0  0  0
 68 80  1  0  0  0
 71 72  2  0  0  0
 71 75  1  0  0  0
 71 77  1  0  0  0
 72 76  1  0  0  0
 72 79  1  0  0  0
 73 74  1  0  0  0
 73 75  2  0  0  0
 73 78  1  0  0  0
 74 76  2  0  0  0
 74 81  1  0  0  0
 75 82  1  0  0  0
 76 83  1  0  0  0
 77143  1  0  0  0
 77144  1  0  0  0
 77145  1  0  0  0
 78146  1  0  0  0
 78147  1  0  0  0
 78148  1  0  0  0
 79 80  1  0  0  0
 79149  1  0  0  0
 79150  1  0  0  0
 80151  1  0  0  0
 80152  1  0  0  0
 81153  1  0  0  0
M  ISO  4   1 100  68 101  80 101  81 100
M  END
> <chiral flag>
0

> <version>
0

> <s_m_source_file>
/data/baiqing/PycharmProjects/Reinvent-master-3.2/result/LINK_invent/BTK/process_docking_weight1_custom_sum_contain_oxygen_bond_distance_aromatic_linkinvent_7_9_3/rearranged_h_0028.sdf

> <i_m_source_file_index>
3

> <r_mmod_Potential_Energy-OPLS-2005>
1457.56396484375

> <r_mmod_Stretch_Energy-OPLS-2005>
661.925903320312

> <r_mmod_Bend_Energy-OPLS-2005>
454.938049316406

> <r_mmod_Torsional_Energy-OPLS-2005>
268.184753417969

> <r_mmod_Improper_Torsional_Energy-OPLS-2005>
12.8124837875366

> <r_mmod_Van_der_Waal_Energy-OPLS-2005>
133.086532592773

> <r_mmod_Electrostatic_Energy-OPLS-2005>
-383.670806884766

> <r_mmod_Solvation_Energy-OPLS-2005>
-207.753479003906

> <b_mmod_Minimization_Converged-OPLS-2005>
0

> <r_mmod_RMS_Derivative-OPLS-2005>
5.43003368377686

$$$$
3
                    3D
 Structure written by MMmdl.
147155  0  0  1  0            999 V2000
  -30.4741  -15.1847   20.3752 C   0  0  0  0  0  0
  -30.4360  -12.7513   19.5206 C   0  0  0  0  0  0
  -29.5280  -12.5571   18.2820 C   0  0  0  0  0  0
  -28.0723  -12.3018   18.7099 C   0  0  0  0  0  0
  -27.6136  -13.2704   19.8286 C   0  0  2  0  0  0
  -28.6509  -13.4175   20.9619 C   0  0  0  0  0  0
  -25.2399  -13.8252   20.5749 C   0  0  0  0  0  0
  -24.1738  -13.0444   20.9253 C   0  0  0  0  0  0
  -24.6387  -11.6938   20.8781 C   0  0  0  0  0  0
  -23.9085  -10.4297   21.0422 C   0  0  0  0  0  0
  -24.3641   -9.4206   21.9188 C   0  0  0  0  0  0
  -23.6318   -8.2240   22.0748 C   0  0  0  0  0  0
  -22.4295   -8.0284   21.3549 C   0  0  0  0  0  0
  -21.9939   -9.0257   20.4647 C   0  0  0  0  0  0
  -22.7268  -10.2137   20.3060 C   0  0  0  0  0  0
  -21.6849   -6.0744   22.5281 C   0  0  0  0  0  0
  -21.4012   -6.5647   23.8216 C   0  0  0  0  0  0
  -21.3659   -5.6796   24.9176 C   0  0  0  0  0  0
  -21.6047   -4.3060   24.7225 C   0  0  0  0  0  0
  -21.8819   -3.8155   23.4346 C   0  0  0  0  0  0
  -21.9197   -4.6975   22.3402 C   0  0  0  0  0  0
  -22.7755  -13.5199   21.1930 C   0  0  0  0  0  0
  -22.1664   -4.2162   21.0981 F   0  0  0  0  0  0
  -21.5634   -3.4541   25.7737 F   0  0  0  0  0  0
  -29.8934  -13.8935   20.3374 N   0  0  0  0  0  0
  -26.2829  -12.9518   20.3264 N   0  0  0  0  0  0
  -25.9325  -11.6630   20.5751 N   0  0  0  0  0  0
  -22.0434  -12.8150   22.0482 N   0  0  0  0  0  0
  -25.4012  -15.1982   20.4173 N   0  0  0  0  0  0
  -31.6923  -15.1877   20.1521 O   0  0  0  0  0  0
  -21.6645   -6.8888   21.4244 O   0  0  0  0  0  0
  -22.3429  -14.5499   20.6779 O   0  0  0  0  0  0
  -24.6584  -31.8271   23.1762 C   0  0  0  0  0  0
  -25.9281  -32.4624   23.8201 C   0  0  1  0  0  0
  -27.2165  -26.9778   20.1670 C   0  0  0  0  0  0
  -25.5983  -33.8442   24.2111 N   0  0  0  0  0  0
  -23.4708  -30.4438   21.5199 C   0  0  2  0  0  0
  -24.9251  -28.8463   20.1059 C   0  0  0  0  0  0
  -22.7634  -29.4475   22.4757 C   0  0  0  0  0  0
  -18.0321  -28.1417   22.8491 C   0  0  0  0  0  0
  -24.1461  -36.7176   23.2651 C   0  0  0  0  0  0
  -26.0380  -30.6493   21.4003 C   0  0  0  0  0  0
  -26.1070  -29.2461   20.7396 C   0  0  0  0  0  0
  -27.2491  -28.3307   20.7507 C   0  0  0  0  0  0
  -26.0064  -26.7252   19.4808 C   0  0  0  0  0  0
  -24.8971  -27.6044   19.4568 C   0  0  0  0  0  0
  -23.7092  -29.7691   20.1425 C   0  0  0  0  0  0
  -25.4104  -36.2975   24.0311 C   0  0  1  0  0  0
  -20.5947  -28.3756   23.1184 C   0  0  2  0  0  0
  -20.6787  -26.9441   22.5405 C   0  0  0  0  0  0
  -19.5766  -26.6395   21.5205 C   0  0  0  0  0  0
  -18.1950  -26.7955   22.1630 C   0  0  0  0  0  0
  -19.1591  -28.8899   23.2837 C   0  0  0  0  0  0
  -18.9504  -30.1481   23.8889 C   0  0  0  0  0  0
  -17.6503  -30.6633   24.0545 C   0  0  0  0  0  0
  -25.9086  -34.9369   23.5022 C   0  0  0  0  0  0
  -16.5380  -29.9124   23.6359 C   0  0  0  0  0  0
  -16.7300  -28.6524   23.0417 C   0  0  0  0  0  0
  -26.4559  -31.6575   25.0719 C   0  0  0  0  0  0
  -25.3723  -31.3836   26.1401 C   0  0  0  0  0  0
  -27.0446  -30.2943   24.6443 C   0  0  0  0  0  0
  -27.6036  -32.4397   25.7531 C   0  0  0  0  0  0
  -27.5536  -37.1746   24.8487 C   0  0  0  0  0  0
  -21.4306  -29.3044   22.3515 N   0  0  0  0  0  0
  -26.4240  -37.3710   23.9434 N   0  0  0  0  0  0
  -24.7428  -30.9994   22.0860 N   0  0  0  0  0  0
  -23.4199  -28.8035   23.2985 O   0  0  0  0  0  0
  -28.2054  -25.8753   20.2533 O   0  0  0  0  0  0
  -26.5668  -34.8901   22.4602 O   0  0  0  0  0  0
  -23.5667  -32.1207   23.6895 O   0  0  0  0  0  0
  -29.9487  -20.6798   19.4068 C   0  0  0  0  0  0
  -29.4531  -19.6134   20.2668 C   0  0  0  0  0  0
  -28.5658  -22.7596   20.2035 C   0  0  0  0  0  0
  -28.4723  -20.2644   21.1227 C   0  0  0  0  0  0
  -29.5498  -22.1046   19.3586 C   0  0  0  0  0  0
  -28.0611  -21.6987   21.0827 C   0  0  0  0  0  0
  -30.1715  -18.0311   20.3158 C   0  0  0  0  0  0
  -27.8382  -24.3207   19.9586 C   0  0  0  0  0  0
  -29.7315  -16.4527   20.4552 N   0  0  0  0  0  0
  -27.8821  -19.4823   22.0592 F   0  0  0  0  0  0
  -30.3171  -23.0673   18.1472 Cl  0  0  0  0  0  0
  -26.8176  -22.1438   22.1998 Cl  0  0  0  0  0  0
  -31.4570  -12.9412   19.1910 H   0  0  0  0  0  0
  -30.4829  -11.8381   20.1158 H   0  0  0  0  0  0
  -29.8911  -11.7317   17.6683 H   0  0  0  0  0  0
  -29.5739  -13.4488   17.6561 H   0  0  0  0  0  0
  -28.0130  -11.2731   19.0708 H   0  0  0  0  0  0
  -27.4048  -12.3650   17.8513 H   0  0  0  0  0  0
  -27.5377  -14.2439   19.3445 H   0  0  0  0  0  0
  -28.7988  -12.4772   21.4945 H   0  0  0  0  0  0
  -28.3058  -14.1425   21.7011 H   0  0  0  0  0  0
  -25.2782   -9.5687   22.4771 H   0  0  0  0  0  0
  -24.0033   -7.4622   22.7455 H   0  0  0  0  0  0
  -21.0874   -8.8787   19.8937 H   0  0  0  0  0  0
  -22.3733  -10.9685   19.6180 H   0  0  0  0  0  0
  -21.1985   -7.6154   23.9724 H   0  0  0  0  0  0
  -21.1486   -6.0523   25.9085 H   0  0  0  0  0  0
  -22.0594   -2.7619   23.2835 H   0  0  0  0  0  0
  -22.4088  -11.9802   22.4814 H   0  0  0  0  0  0
  -21.1059  -13.1148   22.2743 H   0  0  0  0  0  0
  -24.6280  -15.8459   20.5228 H   0  0  0  0  0  0
  -26.2446  -15.6440   20.0838 H   0  0  0  0  0  0
  -26.7353  -32.5173   23.0923 H   0  0  0  0  0  0
  -25.0165  -33.9549   25.0288 H   0  0  0  0  0  0
  -22.7817  -31.2747   21.3553 H   0  0  0  0  0  0
  -23.3756  -35.9483   23.3331 H   0  0  0  0  0  0
  -24.3526  -36.8797   22.2065 H   0  0  0  0  0  0
  -23.7207  -37.6367   23.6678 H   0  0  0  0  0  0
  -26.2168  -31.3970   20.6255 H   0  0  0  0  0  0
  -26.8961  -30.6988   22.0579 H   0  0  0  0  0  0
  -28.1411  -28.6332   21.2794 H   0  0  0  0  0  0
  -25.8709  -25.7803   18.9756 H   0  0  0  0  0  0
  -24.0011  -27.2921   18.9377 H   0  0  0  0  0  0
  -23.8648  -30.5412   19.3880 H   0  0  0  0  0  0
  -22.8197  -29.2246   19.8230 H   0  0  0  0  0  0
  -25.1309  -36.1749   25.0801 H   0  0  0  0  0  0
  -21.0068  -28.3359   24.1291 H   0  0  0  0  0  0
  -20.5645  -26.2380   23.3645 H   0  0  0  0  0  0
  -21.6643  -26.7408   22.1199 H   0  0  0  0  0  0
  -19.6913  -25.6295   21.1278 H   0  0  0  0  0  0
  -19.6702  -27.3158   20.6700 H   0  0  0  0  0  0
  -17.4205  -26.6714   21.4042 H   0  0  0  0  0  0
  -18.0336  -26.0096   22.9037 H   0  0  0  0  0  0
  -19.7986  -30.7286   24.2265 H   0  0  0  0  0  0
  -17.5078  -31.6318   24.5139 H   0  0  0  0  0  0
  -15.5393  -30.3029   23.7695 H   0  0  0  0  0  0
  -15.8695  -28.0813   22.7203 H   0  0  0  0  0  0
  -24.5885  -30.7191   25.7739 H   0  0  0  0  0  0
  -24.8944  -32.3051   26.4718 H   0  0  0  0  0  0
  -25.7980  -30.9091   27.0246 H   0  0  0  0  0  0
  -26.3102  -29.6640   24.1406 H   0  0  0  0  0  0
  -27.3929  -29.7286   25.5096 H   0  0  0  0  0  0
  -27.9071  -30.4136   23.9888 H   0  0  0  0  0  0
  -27.2574  -33.3736   26.1966 H   0  0  0  0  0  0
  -28.3916  -32.6899   25.0422 H   0  0  0  0  0  0
  -28.0608  -31.8633   26.5581 H   0  0  0  0  0  0
  -28.2569  -38.0024   24.7484 H   0  0  0  0  0  0
  -28.1014  -36.2550   24.6359 H   0  0  0  0  0  0
  -27.2265  -37.1449   25.8898 H   0  0  0  0  0  0
  -20.9527  -29.8773   21.6697 H   0  0  0  0  0  0
  -26.0089  -38.2761   24.1481 H   0  0  0  0  0  0
  -30.7216  -20.3961   18.7077 H   0  0  0  0  0  0
  -30.9198  -18.1407   21.1023 H   0  0  0  0  0  0
  -30.7636  -18.0143   19.4008 H   0  0  0  0  0  0
  -26.8456  -24.2053   20.3901 H   0  0  0  0  0  0
  -27.6574  -24.3134   18.8825 H   0  0  0  0  0  0
  -28.7413  -16.3211   20.5994 H   0  0  0  0  0  0
  1 25  1  0  0  0
  1 30  2  0  0  0
  1 79  1  0  0  0
  2  3  1  0  0  0
  2 25  1  0  0  0
  2 83  1  0  0  0
  2 84  1  0  0  0
  3  4  1  0  0  0
  3 85  1  0  0  0
  3 86  1  0  0  0
  4  5  1  0  0  0
  4 87  1  0  0  0
  4 88  1  0  0  0
  5  6  1  0  0  0
  5 26  1  0  0  0
  5 89  1  0  0  0
  6 25  1  0  0  0
  6 90  1  0  0  0
  6 91  1  0  0  0
  7  8  2  0  0  0
  7 26  1  0  0  0
  7 29  1  0  0  0
  8  9  1  0  0  0
  8 22  1  0  0  0
  9 10  1  0  0  0
  9 27  2  0  0  0
 10 11  2  0  0  0
 10 15  1  0  0  0
 11 12  1  0  0  0
 11 92  1  0  0  0
 12 13  2  0  0  0
 12 93  1  0  0  0
 13 14  1  0  0  0
 13 31  1  0  0  0
 14 15  2  0  0  0
 14 94  1  0  0  0
 15 95  1  0  0  0
 16 17  2  0  0  0
 16 21  1  0  0  0
 16 31  1  0  0  0
 17 18  1  0  0  0
 17 96  1  0  0  0
 18 19  2  0  0  0
 18 97  1  0  0  0
 19 20  1  0  0  0
 19 24  1  0  0  0
 20 21  2  0  0  0
 20 98  1  0  0  0
 21 23  1  0  0  0
 22 28  1  0  0  0
 22 32  2  0  0  0
 26 27  1  0  0  0
 28 99  1  0  0  0
 28100  1  0  0  0
 29101  1  0  0  0
 29102  1  0  0  0
 33 34  1  0  0  0
 33 66  1  0  0  0
 33 70  2  0  0  0
 34 36  1  0  0  0
 34 59  1  0  0  0
 34103  1  0  0  0
 35 44  2  0  0  0
 35 45  1  0  0  0
 35 68  1  0  0  0
 36 56  1  0  0  0
 36104  1  0  0  0
 37 39  1  0  0  0
 37 47  1  0  0  0
 37 66  1  0  0  0
 37105  1  0  0  0
 38 43  2  0  0  0
 38 46  1  0  0  0
 38 47  1  0  0  0
 39 64  1  0  0  0
 39 67  2  0  0  0
 40 52  1  0  0  0
 40 53  2  0  0  0
 40 58  1  0  0  0
 41106  1  0  0  0
 41107  1  0  0  0
 41108  1  0  0  0
 41 48  1  0  0  0
 42 43  1  0  0  0
 42 66  1  0  0  0
 42109  1  0  0  0
 42110  1  0  0  0
 43 44  1  0  0  0
 44111  1  0  0  0
 45 46  2  0  0  0
 45112  1  0  0  0
 46113  1  0  0  0
 47114  1  0  0  0
 47115  1  0  0  0
 48 56  1  0  0  0
 48 65  1  0  0  0
 48116  1  0  0  0
 49 50  1  0  0  0
 49 53  1  0  0  0
 49 64  1  0  0  0
 49117  1  0  0  0
 50 51  1  0  0  0
 50118  1  0  0  0
 50119  1  0  0  0
 51 52  1  0  0  0
 51120  1  0  0  0
 51121  1  0  0  0
 52122  1  0  0  0
 52123  1  0  0  0
 53 54  1  0  0  0
 54 55  2  0  0  0
 54124  1  0  0  0
 55 57  1  0  0  0
 55125  1  0  0  0
 56 69  2  0  0  0
 57 58  2  0  0  0
 57126  1  0  0  0
 58127  1  0  0  0
 59 60  1  0  0  0
 59 61  1  0  0  0
 59 62  1  0  0  0
 60128  1  0  0  0
 60129  1  0  0  0
 60130  1  0  0  0
 61131  1  0  0  0
 61132  1  0  0  0
 61133  1  0  0  0
 62134  1  0  0  0
 62135  1  0  0  0
 62136  1  0  0  0
 63 65  1  0  0  0
 63137  1  0  0  0
 63138  1  0  0  0
 63139  1  0  0  0
 64140  1  0  0  0
 65141  1  0  0  0
 68 78  1  0  0  0
 71 72  2  0  0  0
 71 75  1  0  0  0
 71142  1  0  0  0
 72 74  1  0  0  0
 72 77  1  0  0  0
 73 75  2  0  0  0
 73 76  1  0  0  0
 73 78  1  0  0  0
 74 76  2  0  0  0
 74 80  1  0  0  0
 75 81  1  0  0  0
 76 82  1  0  0  0
 77 79  1  0  0  0
 77143  1  0  0  0
 77144  1  0  0  0
 78145  1  0  0  0
 78146  1  0  0  0
 79147  1  0  0  0
M  ISO  4   1 100  68 101  78 101  79 100
M  END
> <chiral flag>
0

> <version>
0

> <s_m_source_file>
/data/baiqing/PycharmProjects/Reinvent-master-3.2/result/LINK_invent/BTK/process_docking_weight1_custom_sum_contain_oxygen_bond_distance_aromatic_linkinvent_7_9_3/rearranged_h_0028.sdf

> <i_m_source_file_index>
4

> <r_mmod_Potential_Energy-OPLS-2005>
1022.71917724609

> <r_mmod_Stretch_Energy-OPLS-2005>
447.1826171875

> <r_mmod_Bend_Energy-OPLS-2005>
418.388061523438

> <r_mmod_Torsional_Energy-OPLS-2005>
220.903518676758

> <r_mmod_Improper_Torsional_Energy-OPLS-2005>
8.50704479217529

> <r_mmod_Van_der_Waal_Energy-OPLS-2005>
130.961608886719

> <r_mmod_Electrostatic_Energy-OPLS-2005>
-371.867431640625

> <r_mmod_Solvation_Energy-OPLS-2005>
-217.741592407227

> <b_mmod_Minimization_Converged-OPLS-2005>
0

> <r_mmod_RMS_Derivative-OPLS-2005>
2.65839838981628

$$$$
4
                    3D
 Structure written by MMmdl.
169178  0  0  1  0            999 V2000
  -30.7144  -14.4374   20.5149 C   0  0  0  0  0  0
  -30.4130  -12.2676   19.4184 C   0  0  0  0  0  0
  -29.4928  -12.4824   18.2030 C   0  0  0  0  0  0
  -28.0087  -12.3719   18.6087 C   0  0  0  0  0  0
  -27.6604  -13.2119   19.8679 C   0  0  2  0  0  0
  -28.7037  -12.9958   20.9879 C   0  0  0  0  0  0
  -25.2575  -13.8193   20.5709 C   0  0  0  0  0  0
  -24.1841  -13.0451   20.9184 C   0  0  0  0  0  0
  -24.6405  -11.6920   20.8736 C   0  0  0  0  0  0
  -23.9079  -10.4308   21.0421 C   0  0  0  0  0  0
  -24.3624   -9.4214   21.9198 C   0  0  0  0  0  0
  -23.6300   -8.2241   22.0751 C   0  0  0  0  0  0
  -22.4277   -8.0284   21.3540 C   0  0  0  0  0  0
  -21.9924   -9.0271   20.4637 C   0  0  0  0  0  0
  -22.7255  -10.2152   20.3059 C   0  0  0  0  0  0
  -21.6855   -6.0740   22.5289 C   0  0  0  0  0  0
  -21.4016   -6.5641   23.8223 C   0  0  0  0  0  0
  -21.3655   -5.6789   24.9177 C   0  0  0  0  0  0
  -21.6047   -4.3055   24.7231 C   0  0  0  0  0  0
  -21.8822   -3.8147   23.4350 C   0  0  0  0  0  0
  -21.9189   -4.6964   22.3404 C   0  0  0  0  0  0
  -22.7853  -13.5230   21.1856 C   0  0  0  0  0  0
  -22.1650   -4.2151   21.0975 F   0  0  0  0  0  0
  -21.5626   -3.4532   25.7738 F   0  0  0  0  0  0
  -30.0375  -13.2652   20.4265 N   0  0  0  0  0  0
  -26.3023  -12.9384   20.3338 N   0  0  0  0  0  0
  -25.9333  -11.6535   20.5750 N   0  0  0  0  0  0
  -22.0478  -12.8246   22.0403 N   0  0  0  0  0  0
  -25.4271  -15.1922   20.4126 N   0  0  0  0  0  0
  -31.8784  -14.5785   20.1321 O   0  0  0  0  0  0
  -21.6630   -6.8886   21.4249 O   0  0  0  0  0  0
  -22.3539  -14.5534   20.6677 O   0  0  0  0  0  0
  -24.6164  -31.8671   23.2114 C   0  0  0  0  0  0
  -25.9071  -32.4823   23.8406 C   0  0  1  0  0  0
  -27.2384  -27.4457   20.0938 C   0  0  0  0  0  0
  -25.5923  -33.8626   24.2335 N   0  0  0  0  0  0
  -23.4042  -30.4940   21.5490 C   0  0  2  0  0  0
  -24.8498  -28.9675   20.1061 C   0  0  0  0  0  0
  -22.7456  -29.4672   22.4967 C   0  0  0  0  0  0
  -18.0335  -28.1297   22.8464 C   0  0  0  0  0  0
  -24.1496  -36.7331   23.2650 C   0  0  0  0  0  0
  -25.9341  -30.8397   21.3591 C   0  0  0  0  0  0
  -26.0105  -29.4810   20.6992 C   0  0  0  0  0  0
  -27.2016  -28.7220   20.6973 C   0  0  0  0  0  0
  -26.0544  -26.9355   19.5217 C   0  0  0  0  0  0
  -24.8696  -27.6909   19.5176 C   0  0  0  0  0  0
  -23.6088  -29.8320   20.1602 C   0  0  0  0  0  0
  -25.4107  -36.3120   24.0348 C   0  0  1  0  0  0
  -20.5927  -28.3596   23.1269 C   0  0  2  0  0  0
  -20.6875  -26.9373   22.5212 C   0  0  0  0  0  0
  -19.5745  -26.6371   21.5107 C   0  0  0  0  0  0
  -18.1949  -26.7866   22.1589 C   0  0  0  0  0  0
  -19.1574  -28.8738   23.2891 C   0  0  0  0  0  0
  -18.9490  -30.1323   23.8916 C   0  0  0  0  0  0
  -17.6508  -30.6494   24.0574 C   0  0  0  0  0  0
  -25.9040  -34.9475   23.5163 C   0  0  0  0  0  0
  -16.5405  -29.9009   23.6281 C   0  0  0  0  0  0
  -16.7328  -28.6430   23.0302 C   0  0  0  0  0  0
  -26.4485  -31.6608   25.0737 C   0  0  0  0  0  0
  -25.3758  -31.3692   26.1475 C   0  0  0  0  0  0
  -27.0306  -30.3064   24.6074 C   0  0  0  0  0  0
  -27.6058  -32.4351   25.7478 C   0  0  0  0  0  0
  -27.5584  -37.1814   24.8472 C   0  0  0  0  0  0
  -21.4173  -29.3128   22.3796 N   0  0  0  0  0  0
  -26.4305  -37.3796   23.9417 N   0  0  0  0  0  0
  -24.6707  -31.0795   22.0999 N   0  0  0  0  0  0
  -23.4222  -28.8130   23.2940 O   0  0  0  0  0  0
  -28.3786  -26.6814   20.1986 O   0  0  0  0  0  0
  -26.5605  -34.8937   22.4712 O   0  0  0  0  0  0
  -23.5356  -32.1399   23.7533 O   0  0  0  0  0  0
  -28.9450  -18.8442   19.7672 C   0  0  0  0  0  0
  -29.2899  -17.8685   20.7330 C   0  0  0  0  0  0
  -27.8843  -19.5614   20.2689 C   0  0  0  0  0  0
  -28.4550  -17.9864   21.8166 C   0  0  0  0  0  0
  -26.0219  -21.0885   20.5171 C   0  0  0  0  0  0
  -26.4956  -19.4831   22.2661 C   0  0  0  0  0  0
  -27.1074  -20.6578   19.7828 C   0  0  0  0  0  0
  -25.7071  -20.4929   21.7621 C   0  0  0  0  0  0
  -28.4226  -17.2337   23.1097 C   0  0  0  0  0  0
  -24.4816  -20.9560   22.5264 C   0  0  0  0  0  0
  -30.4085  -16.8760   20.5814 C   0  0  0  0  0  0
  -27.4369  -21.2832   18.4281 C   0  0  0  0  0  0
  -27.1851  -22.8043   18.2764 C   0  0  0  0  0  0
  -28.1701  -23.7328   19.0225 C   0  0  0  0  0  0
  -28.4137  -25.0504   18.2471 C   0  0  0  0  0  0
  -29.0506  -26.2217   19.0255 C   0  0  0  0  0  0
  -27.5470  -19.0126   21.5358 N   0  0  0  0  0  0
  -29.9664  -15.5047   20.8103 N   0  0  0  0  0  0
  -31.4594  -12.3450   19.1199 H   0  0  0  0  0  0
  -30.2924  -11.2612   19.8187 H   0  0  0  0  0  0
  -29.7178  -11.7442   17.4306 H   0  0  0  0  0  0
  -29.6875  -13.4620   17.7642 H   0  0  0  0  0  0
  -27.7880  -11.3194   18.7894 H   0  0  0  0  0  0
  -27.3738  -12.6673   17.7723 H   0  0  0  0  0  0
  -27.7017  -14.2580   19.5627 H   0  0  0  0  0  0
  -28.6668  -11.9686   21.3531 H   0  0  0  0  0  0
  -28.4885  -13.6242   21.8525 H   0  0  0  0  0  0
  -25.2770   -9.5675   22.4774 H   0  0  0  0  0  0
  -23.9990   -7.4636   22.7493 H   0  0  0  0  0  0
  -21.0843   -8.8807   19.8960 H   0  0  0  0  0  0
  -22.3726  -10.9687   19.6156 H   0  0  0  0  0  0
  -21.2005   -7.6146   23.9730 H   0  0  0  0  0  0
  -21.1474   -6.0510   25.9083 H   0  0  0  0  0  0
  -22.0603   -2.7607   23.2852 H   0  0  0  0  0  0
  -22.4057  -11.9893   22.4802 H   0  0  0  0  0  0
  -21.1101  -13.1309   22.2604 H   0  0  0  0  0  0
  -24.6651  -15.8477   20.5402 H   0  0  0  0  0  0
  -26.2844  -15.6418   20.1181 H   0  0  0  0  0  0
  -26.7171  -32.5515   23.1193 H   0  0  0  0  0  0
  -25.0060  -33.9752   25.0475 H   0  0  0  0  0  0
  -22.6919  -31.3106   21.4163 H   0  0  0  0  0  0
  -23.3755  -35.9671   23.3313 H   0  0  0  0  0  0
  -24.3624  -36.8940   22.2077 H   0  0  0  0  0  0
  -23.7239  -37.6553   23.6634 H   0  0  0  0  0  0
  -26.0562  -31.6037   20.5914 H   0  0  0  0  0  0
  -26.8231  -30.8924   21.9724 H   0  0  0  0  0  0
  -28.0900  -29.1081   21.1790 H   0  0  0  0  0  0
  -26.0182  -25.9362   19.1262 H   0  0  0  0  0  0
  -23.9745  -27.2709   19.0824 H   0  0  0  0  0  0
  -23.7099  -30.6121   19.4036 H   0  0  0  0  0  0
  -22.7349  -29.2524   19.8607 H   0  0  0  0  0  0
  -25.1267  -36.2016   25.0844 H   0  0  0  0  0  0
  -21.0025  -28.3040   24.1377 H   0  0  0  0  0  0
  -20.5969  -26.2130   23.3322 H   0  0  0  0  0  0
  -21.6722  -26.7663   22.0759 H   0  0  0  0  0  0
  -19.6964  -25.6341   21.0931 H   0  0  0  0  0  0
  -19.6559  -27.3300   20.6731 H   0  0  0  0  0  0
  -17.4198  -26.6621   21.3990 H   0  0  0  0  0  0
  -18.0351  -25.9998   22.8952 H   0  0  0  0  0  0
  -19.7992  -30.7120   24.2234 H   0  0  0  0  0  0
  -17.5069  -31.6137   24.5277 H   0  0  0  0  0  0
  -15.5403  -30.2874   23.7574 H   0  0  0  0  0  0
  -15.8750  -28.0735   22.6946 H   0  0  0  0  0  0
  -24.5918  -30.7069   25.7794 H   0  0  0  0  0  0
  -24.8944  -32.2846   26.4940 H   0  0  0  0  0  0
  -25.8104  -30.8827   27.0215 H   0  0  0  0  0  0
  -26.2799  -29.6820   24.1195 H   0  0  0  0  0  0
  -27.4237  -29.7302   25.4471 H   0  0  0  0  0  0
  -27.8592  -30.4472   23.9119 H   0  0  0  0  0  0
  -27.2670  -33.3644   26.2076 H   0  0  0  0  0  0
  -28.3823  -32.6934   25.0267 H   0  0  0  0  0  0
  -28.0774  -31.8470   26.5364 H   0  0  0  0  0  0
  -28.2598  -38.0107   24.7495 H   0  0  0  0  0  0
  -28.1067  -36.2635   24.6300 H   0  0  0  0  0  0
  -27.2308  -37.1493   25.8877 H   0  0  0  0  0  0
  -20.9364  -29.9004   21.7148 H   0  0  0  0  0  0
  -26.0204  -38.2905   24.1334 H   0  0  0  0  0  0
  -29.4286  -18.9965   18.8090 H   0  0  0  0  0  0
  -25.3738  -21.8764   20.1436 H   0  0  0  0  0  0
  -26.3053  -18.9946   23.2167 H   0  0  0  0  0  0
  -29.2641  -16.5494   23.2000 H   0  0  0  0  0  0
  -27.5060  -16.6526   23.1970 H   0  0  0  0  0  0
  -28.4720  -17.9180   23.9571 H   0  0  0  0  0  0
  -23.6507  -21.1442   21.8440 H   0  0  0  0  0  0
  -24.6946  -21.8726   23.0753 H   0  0  0  0  0  0
  -24.1529  -20.1970   23.2386 H   0  0  0  0  0  0
  -31.2196  -17.1060   21.2763 H   0  0  0  0  0  0
  -30.8317  -16.9501   19.5769 H   0  0  0  0  0  0
  -26.8475  -20.7575   17.6753 H   0  0  0  0  0  0
  -28.4799  -21.0791   18.1852 H   0  0  0  0  0  0
  -26.1574  -23.0752   18.5245 H   0  0  0  0  0  0
  -27.2682  -23.0046   17.2079 H   0  0  0  0  0  0
  -29.1238  -23.2264   19.1686 H   0  0  0  0  0  0
  -27.7936  -23.9402   20.0245 H   0  0  0  0  0  0
  -27.4975  -25.3864   17.7689 H   0  0  0  0  0  0
  -29.0741  -24.8248   17.4078 H   0  0  0  0  0  0
  -29.1944  -27.0726   18.3585 H   0  0  0  0  0  0
  -30.0482  -25.9186   19.3456 H   0  0  0  0  0  0
  -28.9955  -15.3634   21.0404 H   0  0  0  0  0  0
  1 25  1  0  0  0
  1 30  2  0  0  0
  1 88  1  0  0  0
  2  3  1  0  0  0
  2 25  1  0  0  0
  2 89  1  0  0  0
  2 90  1  0  0  0
  3  4  1  0  0  0
  3 91  1  0  0  0
  3 92  1  0  0  0
  4  5  1  0  0  0
  4 93  1  0  0  0
  4 94  1  0  0  0
  5  6  1  0  0  0
  5 26  1  0  0  0
  5 95  1  0  0  0
  6 25  1  0  0  0
  6 96  1  0  0  0
  6 97  1  0  0  0
  7  8  2  0  0  0
  7 26  1  0  0  0
  7 29  1  0  0  0
  8  9  1  0  0  0
  8 22  1  0  0  0
  9 10  1  0  0  0
  9 27  2  0  0  0
 10 11  2  0  0  0
 10 15  1  0  0  0
 11 12  1  0  0  0
 11 98  1  0  0  0
 12 13  2  0  0  0
 12 99  1  0  0  0
 13 14  1  0  0  0
 13 31  1  0  0  0
 14 15  2  0  0  0
 14100  1  0  0  0
 15101  1  0  0  0
 16 17  2  0  0  0
 16 21  1  0  0  0
 16 31  1  0  0  0
 17 18  1  0  0  0
 17102  1  0  0  0
 18 19  2  0  0  0
 18103  1  0  0  0
 19 20  1  0  0  0
 19 24  1  0  0  0
 20 21  2  0  0  0
 20104  1  0  0  0
 21 23  1  0  0  0
 22 28  1  0  0  0
 22 32  2  0  0  0
 26 27  1  0  0  0
 28105  1  0  0  0
 28106  1  0  0  0
 29107  1  0  0  0
 29108  1  0  0  0
 33 34  1  0  0  0
 33 66  1  0  0  0
 33 70  2  0  0  0
 34 36  1  0  0  0
 34 59  1  0  0  0
 34109  1  0  0  0
 35 44  2  0  0  0
 35 45  1  0  0  0
 35 68  1  0  0  0
 36 56  1  0  0  0
 36110  1  0  0  0
 37 39  1  0  0  0
 37 47  1  0  0  0
 37 66  1  0  0  0
 37111  1  0  0  0
 38 43  2  0  0  0
 38 46  1  0  0  0
 38 47  1  0  0  0
 39 64  1  0  0  0
 39 67  2  0  0  0
 40 52  1  0  0  0
 40 53  2  0  0  0
 40 58  1  0  0  0
 41112  1  0  0  0
 41113  1  0  0  0
 41114  1  0  0  0
 41 48  1  0  0  0
 42 43  1  0  0  0
 42 66  1  0  0  0
 42115  1  0  0  0
 42116  1  0  0  0
 43 44  1  0  0  0
 44117  1  0  0  0
 45 46  2  0  0  0
 45118  1  0  0  0
 46119  1  0  0  0
 47120  1  0  0  0
 47121  1  0  0  0
 48 56  1  0  0  0
 48 65  1  0  0  0
 48122  1  0  0  0
 49 50  1  0  0  0
 49 53  1  0  0  0
 49 64  1  0  0  0
 49123  1  0  0  0
 50 51  1  0  0  0
 50124  1  0  0  0
 50125  1  0  0  0
 51 52  1  0  0  0
 51126  1  0  0  0
 51127  1  0  0  0
 52128  1  0  0  0
 52129  1  0  0  0
 53 54  1  0  0  0
 54 55  2  0  0  0
 54130  1  0  0  0
 55 57  1  0  0  0
 55131  1  0  0  0
 56 69  2  0  0  0
 57 58  2  0  0  0
 57132  1  0  0  0
 58133  1  0  0  0
 59 60  1  0  0  0
 59 61  1  0  0  0
 59 62  1  0  0  0
 60134  1  0  0  0
 60135  1  0  0  0
 60136  1  0  0  0
 61137  1  0  0  0
 61138  1  0  0  0
 61139  1  0  0  0
 62140  1  0  0  0
 62141  1  0  0  0
 62142  1  0  0  0
 63 65  1  0  0  0
 63143  1  0  0  0
 63144  1  0  0  0
 63145  1  0  0  0
 64146  1  0  0  0
 65147  1  0  0  0
 68 86  1  0  0  0
 71 72  1  0  0  0
 71 73  2  0  0  0
 71148  1  0  0  0
 72 74  2  0  0  0
 72 81  1  0  0  0
 73 77  1  0  0  0
 73 87  1  0  0  0
 74 79  1  0  0  0
 74 87  1  0  0  0
 75 77  2  0  0  0
 75 78  1  0  0  0
 75149  1  0  0  0
 76 78  2  0  0  0
 76 87  1  0  0  0
 76150  1  0  0  0
 77 82  1  0  0  0
 78 80  1  0  0  0
 79151  1  0  0  0
 79152  1  0  0  0
 79153  1  0  0  0
 80154  1  0  0  0
 80155  1  0  0  0
 80156  1  0  0  0
 81 88  1  0  0  0
 81157  1  0  0  0
 81158  1  0  0  0
 82 83  1  0  0  0
 82159  1  0  0  0
 82160  1  0  0  0
 83 84  1  0  0  0
 83161  1  0  0  0
 83162  1  0  0  0
 84 85  1  0  0  0
 84163  1  0  0  0
 84164  1  0  0  0
 85 86  1  0  0  0
 85165  1  0  0  0
 85166  1  0  0  0
 86167  1  0  0  0
 86168  1  0  0  0
 88169  1  0  0  0
M  ISO  4   1 100  68 101  86 101  88 100
M  END
> <chiral flag>
0

> <version>
0

> <s_m_source_file>
/data/baiqing/PycharmProjects/Reinvent-master-3.2/result/LINK_invent/BTK/process_docking_weight1_custom_sum_contain_oxygen_bond_distance_aromatic_linkinvent_7_9_3/rearranged_h_0028.sdf

> <i_m_source_file_index>
5

> <r_mmod_Potential_Energy-OPLS-2005>
-104.899642944336

> <r_mmod_Stretch_Energy-OPLS-2005>
35.3461265563965

> <r_mmod_Bend_Energy-OPLS-2005>
107.632919311523

> <r_mmod_Torsional_Energy-OPLS-2005>
232.687377929688

> <r_mmod_Improper_Torsional_Energy-OPLS-2005>
6.63382053375244

> <r_mmod_Van_der_Waal_Energy-OPLS-2005>
140.645034790039

> <r_mmod_Electrostatic_Energy-OPLS-2005>
-453.851898193359

> <r_mmod_Solvation_Energy-OPLS-2005>
-191.068954467773

> <b_mmod_Minimization_Converged-OPLS-2005>
0

> <r_mmod_RMS_Derivative-OPLS-2005>
5.64113712310791

$$$$
5
                    3D
 Structure written by MMmdl.
162170  0  0  1  0            999 V2000
  -30.5921  -14.6463   20.5473 C   0  0  0  0  0  0
  -30.4481  -12.4101   19.4564 C   0  0  0  0  0  0
  -29.5130  -12.5274   18.2305 C   0  0  0  0  0  0
  -28.0351  -12.3584   18.6380 C   0  0  0  0  0  0
  -27.6579  -13.2140   19.8757 C   0  0  2  0  0  0
  -28.6979  -13.0326   21.0031 C   0  0  0  0  0  0
  -25.2565  -13.8157   20.5706 C   0  0  0  0  0  0
  -24.1820  -13.0420   20.9178 C   0  0  0  0  0  0
  -24.6382  -11.6898   20.8715 C   0  0  0  0  0  0
  -23.9052  -10.4279   21.0394 C   0  0  0  0  0  0
  -24.3608   -9.4199   21.9177 C   0  0  0  0  0  0
  -23.6283   -8.2231   22.0753 C   0  0  0  0  0  0
  -22.4268   -8.0265   21.3541 C   0  0  0  0  0  0
  -21.9898   -9.0238   20.4648 C   0  0  0  0  0  0
  -22.7223  -10.2117   20.3050 C   0  0  0  0  0  0
  -21.6842   -6.0735   22.5279 C   0  0  0  0  0  0
  -21.4012   -6.5636   23.8218 C   0  0  0  0  0  0
  -21.3662   -5.6787   24.9177 C   0  0  0  0  0  0
  -21.6048   -4.3051   24.7225 C   0  0  0  0  0  0
  -21.8816   -3.8143   23.4345 C   0  0  0  0  0  0
  -21.9194   -4.6964   22.3403 C   0  0  0  0  0  0
  -22.7850  -13.5219   21.1851 C   0  0  0  0  0  0
  -22.1661   -4.2143   21.0983 F   0  0  0  0  0  0
  -21.5634   -3.4543   25.7744 F   0  0  0  0  0  0
  -30.0151  -13.4046   20.4607 N   0  0  0  0  0  0
  -26.2997  -12.9330   20.3351 N   0  0  0  0  0  0
  -25.9317  -11.6484   20.5757 N   0  0  0  0  0  0
  -22.0488  -12.8211   22.0416 N   0  0  0  0  0  0
  -25.4276  -15.1874   20.4152 N   0  0  0  0  0  0
  -31.7072  -14.8685   20.0645 O   0  0  0  0  0  0
  -21.6629   -6.8869   21.4239 O   0  0  0  0  0  0
  -22.3538  -14.5524   20.6705 O   0  0  0  0  0  0
  -24.6198  -31.8627   23.2043 C   0  0  0  0  0  0
  -25.9058  -32.4788   23.8361 C   0  0  1  0  0  0
  -27.2259  -27.3347   20.1151 C   0  0  0  0  0  0
  -25.5916  -33.8591   24.2308 N   0  0  0  0  0  0
  -23.4108  -30.4841   21.5491 C   0  0  2  0  0  0
  -24.8582  -28.9398   20.1125 C   0  0  0  0  0  0
  -22.7422  -29.4617   22.4972 C   0  0  0  0  0  0
  -18.0297  -28.1308   22.8564 C   0  0  0  0  0  0
  -24.1498  -36.7300   23.2639 C   0  0  0  0  0  0
  -25.9459  -30.7983   21.3704 C   0  0  0  0  0  0
  -26.0220  -29.4240   20.7189 C   0  0  0  0  0  0
  -27.2038  -28.6311   20.7151 C   0  0  0  0  0  0
  -26.0371  -26.8938   19.4896 C   0  0  0  0  0  0
  -24.8670  -27.6789   19.4937 C   0  0  0  0  0  0
  -23.6232  -29.8180   20.1629 C   0  0  0  0  0  0
  -25.4120  -36.3094   24.0340 C   0  0  1  0  0  0
  -20.5887  -28.3669   23.1375 C   0  0  2  0  0  0
  -20.6810  -26.9409   22.5451 C   0  0  0  0  0  0
  -19.5777  -26.6312   21.5264 C   0  0  0  0  0  0
  -18.1977  -26.7806   22.1784 C   0  0  0  0  0  0
  -19.1534  -28.8813   23.2959 C   0  0  0  0  0  0
  -18.9447  -30.1450   23.8897 C   0  0  0  0  0  0
  -17.6453  -30.6576   24.0497 C   0  0  0  0  0  0
  -25.9042  -34.9457   23.5125 C   0  0  0  0  0  0
  -16.5354  -29.9049   23.6290 C   0  0  0  0  0  0
  -16.7286  -28.6435   23.0385 C   0  0  0  0  0  0
  -26.4485  -31.6569   25.0691 C   0  0  0  0  0  0
  -25.3730  -31.3686   26.1418 C   0  0  0  0  0  0
  -27.0328  -30.3004   24.6092 C   0  0  0  0  0  0
  -27.6057  -32.4285   25.7451 C   0  0  0  0  0  0
  -27.5585  -37.1810   24.8463 C   0  0  0  0  0  0
  -21.4129  -29.3081   22.3786 N   0  0  0  0  0  0
  -26.4297  -37.3784   23.9400 N   0  0  0  0  0  0
  -24.6782  -31.0644   22.0995 N   0  0  0  0  0  0
  -23.4198  -28.8112   23.2979 O   0  0  0  0  0  0
  -28.3800  -26.5443   20.1804 O   0  0  0  0  0  0
  -26.5607  -34.8922   22.4681 O   0  0  0  0  0  0
  -23.5372  -32.1422   23.7389 O   0  0  0  0  0  0
  -29.5470  -17.7175   19.7399 C   0  0  0  0  0  0
  -29.5368  -17.8845   22.1293 C   0  0  0  0  0  0
  -29.1305  -19.0878   19.6409 C   0  0  0  0  0  0
  -29.1557  -19.2591   22.0503 C   0  0  0  0  0  0
  -28.8906  -19.8984   20.7979 C   0  0  0  0  0  0
  -29.7177  -17.0656   20.9883 C   0  0  0  0  0  0
  -28.8582  -19.6443   18.2540 C   0  0  0  0  0  0
  -28.9441  -19.9940   23.3659 C   0  0  0  0  0  0
  -26.7336  -23.8857   21.1115 C   0  0  0  0  0  0
  -28.1411  -21.3027   20.7417 C   0  0  0  0  0  0
  -28.4562  -25.1500   19.6936 C   0  0  0  0  0  0
  -28.2262  -23.9494   20.7174 C   0  0  2  0  0  0
  -29.8394  -15.6153   21.1607 N   0  0  0  0  0  0
  -28.8284  -22.5890   20.3156 N   0  3  0  0  0  0
  -31.4857  -12.5585   19.1546 H   0  0  0  0  0  0
  -30.4054  -11.4065   19.8819 H   0  0  0  0  0  0
  -29.7823  -11.7847   17.4782 H   0  0  0  0  0  0
  -29.6483  -13.5024   17.7583 H   0  0  0  0  0  0
  -27.8710  -11.3026   18.8591 H   0  0  0  0  0  0
  -27.3805  -12.5979   17.7988 H   0  0  0  0  0  0
  -27.6867  -14.2569   19.5575 H   0  0  0  0  0  0
  -28.7135  -11.9935   21.3348 H   0  0  0  0  0  0
  -28.4290  -13.6154   21.8844 H   0  0  0  0  0  0
  -25.2746   -9.5674   22.4764 H   0  0  0  0  0  0
  -23.9994   -7.4618   22.7465 H   0  0  0  0  0  0
  -21.0831   -8.8750   19.8950 H   0  0  0  0  0  0
  -22.3668  -10.9662   19.6166 H   0  0  0  0  0  0
  -21.1993   -7.6142   23.9719 H   0  0  0  0  0  0
  -21.1494   -6.0519   25.9083 H   0  0  0  0  0  0
  -22.0595   -2.7605   23.2847 H   0  0  0  0  0  0
  -22.4095  -11.9878   22.4806 H   0  0  0  0  0  0
  -21.1103  -13.1251   22.2617 H   0  0  0  0  0  0
  -24.6633  -15.8432   20.5321 H   0  0  0  0  0  0
  -26.2878  -15.6304   20.1163 H   0  0  0  0  0  0
  -26.7094  -32.5464   23.1088 H   0  0  0  0  0  0
  -25.0048  -33.9748   25.0445 H   0  0  0  0  0  0
  -22.7067  -31.3071   21.4118 H   0  0  0  0  0  0
  -23.3766  -35.9622   23.3289 H   0  0  0  0  0  0
  -24.3584  -36.8930   22.2055 H   0  0  0  0  0  0
  -23.7261  -37.6504   23.6662 H   0  0  0  0  0  0
  -26.0576  -31.5617   20.5993 H   0  0  0  0  0  0
  -26.8327  -30.8586   21.9890 H   0  0  0  0  0  0
  -28.0989  -29.0044   21.1945 H   0  0  0  0  0  0
  -25.9731  -25.9321   19.0055 H   0  0  0  0  0  0
  -23.9723  -27.3010   19.0196 H   0  0  0  0  0  0
  -23.7344  -30.6013   19.4134 H   0  0  0  0  0  0
  -22.7447  -29.2482   19.8553 H   0  0  0  0  0  0
  -25.1307  -36.1949   25.0837 H   0  0  0  0  0  0
  -21.0024  -28.3222   24.1468 H   0  0  0  0  0  0
  -20.5700  -26.2255   23.3635 H   0  0  0  0  0  0
  -21.6696  -26.7463   22.1304 H   0  0  0  0  0  0
  -19.6996  -25.6221   21.1329 H   0  0  0  0  0  0
  -19.6663  -27.3076   20.6750 H   0  0  0  0  0  0
  -17.4182  -26.6380   21.4285 H   0  0  0  0  0  0
  -18.0533  -26.0028   22.9271 H   0  0  0  0  0  0
  -19.7907  -30.7305   24.2221 H   0  0  0  0  0  0
  -17.5030  -31.6288   24.5038 H   0  0  0  0  0  0
  -15.5364  -30.2955   23.7623 H   0  0  0  0  0  0
  -15.8696  -28.0709   22.7120 H   0  0  0  0  0  0
  -24.5930  -30.7013   25.7732 H   0  0  0  0  0  0
  -24.8892  -32.2850   26.4813 H   0  0  0  0  0  0
  -25.8055  -30.8882   27.0201 H   0  0  0  0  0  0
  -26.2877  -29.6752   24.1152 H   0  0  0  0  0  0
  -27.4110  -29.7247   25.4552 H   0  0  0  0  0  0
  -27.8707  -30.4328   23.9233 H   0  0  0  0  0  0
  -27.2690  -33.3602   26.2009 H   0  0  0  0  0  0
  -28.3868  -32.6807   25.0261 H   0  0  0  0  0  0
  -28.0707  -31.8403   26.5383 H   0  0  0  0  0  0
  -28.2603  -38.0107   24.7509 H   0  0  0  0  0  0
  -28.1087  -36.2641   24.6294 H   0  0  0  0  0  0
  -27.2285  -37.1457   25.8860 H   0  0  0  0  0  0
  -20.9209  -29.9027   21.7249 H   0  0  0  0  0  0
  -26.0185  -38.2852   24.1407 H   0  0  0  0  0  0
  -29.6503  -17.1321   18.8349 H   0  0  0  0  0  0
  -29.6391  -17.4342   23.1078 H   0  0  0  0  0  0
  -29.2000  -18.9581   17.4774 H   0  0  0  0  0  0
  -29.3789  -20.5893   18.1057 H   0  0  0  0  0  0
  -27.7892  -19.8007   18.1092 H   0  0  0  0  0  0
  -29.4315  -19.4782   24.1945 H   0  0  0  0  0  0
  -27.8808  -20.0613   23.6005 H   0  0  0  0  0  0
  -29.3553  -21.0038   23.3345 H   0  0  0  0  0  0
  -26.3703  -24.8772   21.3824 H   0  0  0  0  0  0
  -26.5500  -23.2674   21.9879 H   0  0  0  0  0  0
  -26.1136  -23.5208   20.2911 H   0  0  0  0  0  0
  -27.7179  -21.4744   21.7271 H   0  0  0  0  0  0
  -27.2645  -21.1813   20.1052 H   0  0  0  0  0  0
  -27.8691  -25.0024   18.7887 H   0  0  0  0  0  0
  -29.4844  -25.0633   19.3438 H   0  0  0  0  0  0
  -28.7738  -24.2359   21.6156 H   0  0  0  0  0  0
  -29.1048  -15.2192   21.7259 H   0  0  0  0  0  0
  -29.7667  -22.5579   20.6819 H   0  0  0  0  0  0
  -28.9171  -22.5480   19.3131 H   0  0  0  0  0  0
  1 25  1  0  0  0
  1 30  2  0  0  0
  1 83  1  0  0  0
  2  3  1  0  0  0
  2 25  1  0  0  0
  2 85  1  0  0  0
  2 86  1  0  0  0
  3  4  1  0  0  0
  3 87  1  0  0  0
  3 88  1  0  0  0
  4  5  1  0  0  0
  4 89  1  0  0  0
  4 90  1  0  0  0
  5  6  1  0  0  0
  5 26  1  0  0  0
  5 91  1  0  0  0
  6 25  1  0  0  0
  6 92  1  0  0  0
  6 93  1  0  0  0
  7  8  2  0  0  0
  7 26  1  0  0  0
  7 29  1  0  0  0
  8  9  1  0  0  0
  8 22  1  0  0  0
  9 10  1  0  0  0
  9 27  2  0  0  0
 10 11  2  0  0  0
 10 15  1  0  0  0
 11 12  1  0  0  0
 11 94  1  0  0  0
 12 13  2  0  0  0
 12 95  1  0  0  0
 13 14  1  0  0  0
 13 31  1  0  0  0
 14 15  2  0  0  0
 14 96  1  0  0  0
 15 97  1  0  0  0
 16 17  2  0  0  0
 16 21  1  0  0  0
 16 31  1  0  0  0
 17 18  1  0  0  0
 17 98  1  0  0  0
 18 19  2  0  0  0
 18 99  1  0  0  0
 19 20  1  0  0  0
 19 24  1  0  0  0
 20 21  2  0  0  0
 20100  1  0  0  0
 21 23  1  0  0  0
 22 28  1  0  0  0
 22 32  2  0  0  0
 26 27  1  0  0  0
 28101  1  0  0  0
 28102  1  0  0  0
 29103  1  0  0  0
 29104  1  0  0  0
 33 34  1  0  0  0
 33 66  1  0  0  0
 33 70  2  0  0  0
 34 36  1  0  0  0
 34 59  1  0  0  0
 34105  1  0  0  0
 35 44  2  0  0  0
 35 45  1  0  0  0
 35 68  1  0  0  0
 36 56  1  0  0  0
 36106  1  0  0  0
 37 39  1  0  0  0
 37 47  1  0  0  0
 37 66  1  0  0  0
 37107  1  0  0  0
 38 43  2  0  0  0
 38 46  1  0  0  0
 38 47  1  0  0  0
 39 64  1  0  0  0
 39 67  2  0  0  0
 40 52  1  0  0  0
 40 53  2  0  0  0
 40 58  1  0  0  0
 41108  1  0  0  0
 41109  1  0  0  0
 41110  1  0  0  0
 41 48  1  0  0  0
 42 43  1  0  0  0
 42 66  1  0  0  0
 42111  1  0  0  0
 42112  1  0  0  0
 43 44  1  0  0  0
 44113  1  0  0  0
 45 46  2  0  0  0
 45114  1  0  0  0
 46115  1  0  0  0
 47116  1  0  0  0
 47117  1  0  0  0
 48 56  1  0  0  0
 48 65  1  0  0  0
 48118  1  0  0  0
 49 50  1  0  0  0
 49 53  1  0  0  0
 49 64  1  0  0  0
 49119  1  0  0  0
 50 51  1  0  0  0
 50120  1  0  0  0
 50121  1  0  0  0
 51 52  1  0  0  0
 51122  1  0  0  0
 51123  1  0  0  0
 52124  1  0  0  0
 52125  1  0  0  0
 53 54  1  0  0  0
 54 55  2  0  0  0
 54126  1  0  0  0
 55 57  1  0  0  0
 55127  1  0  0  0
 56 69  2  0  0  0
 57 58  2  0  0  0
 57128  1  0  0  0
 58129  1  0  0  0
 59 60  1  0  0  0
 59 61  1  0  0  0
 59 62  1  0  0  0
 60130  1  0  0  0
 60131  1  0  0  0
 60132  1  0  0  0
 61133  1  0  0  0
 61134  1  0  0  0
 61135  1  0  0  0
 62136  1  0  0  0
 62137  1  0  0  0
 62138  1  0  0  0
 63 65  1  0  0  0
 63139  1  0  0  0
 63140  1  0  0  0
 63141  1  0  0  0
 64142  1  0  0  0
 65143  1  0  0  0
 68 81  1  0  0  0
 71 73  2  0  0  0
 71 76  1  0  0  0
 71144  1  0  0  0
 72 74  1  0  0  0
 72 76  2  0  0  0
 72145  1  0  0  0
 73 75  1  0  0  0
 73 77  1  0  0  0
 74 75  2  0  0  0
 74 78  1  0  0  0
 75 80  1  0  0  0
 76 83  1  0  0  0
 77146  1  0  0  0
 77147  1  0  0  0
 77148  1  0  0  0
 78149  1  0  0  0
 78150  1  0  0  0
 78151  1  0  0  0
 79152  1  0  0  0
 79153  1  0  0  0
 79154  1  0  0  0
 79 82  1  0  0  0
 80 84  1  0  0  0
 80155  1  0  0  0
 80156  1  0  0  0
 81 82  1  0  0  0
 81157  1  0  0  0
 81158  1  0  0  0
 82 84  1  0  0  0
 82159  1  0  0  0
 83160  1  0  0  0
 84161  1  0  0  0
 84162  1  0  0  0
M  CHG  1  84   1
M  ISO  4   1 100  68 101  81 101  83 100
M  END
> <chiral flag>
0

> <version>
0

> <s_m_source_file>
/data/baiqing/PycharmProjects/Reinvent-master-3.2/result/LINK_invent/BTK/process_docking_weight1_custom_sum_contain_oxygen_bond_distance_aromatic_linkinvent_7_9_3/rearranged_h_0028.sdf

> <i_m_source_file_index>
6

> <r_mmod_Potential_Energy-OPLS-2005>
-21.0545063018799

> <r_mmod_Stretch_Energy-OPLS-2005>
86.1681365966797

> <r_mmod_Bend_Energy-OPLS-2005>
163.25617980957

> <r_mmod_Torsional_Energy-OPLS-2005>
237.043212890625

> <r_mmod_Improper_Torsional_Energy-OPLS-2005>
5.51242685317993

> <r_mmod_Van_der_Waal_Energy-OPLS-2005>
142.971725463867

> <r_mmod_Electrostatic_Energy-OPLS-2005>
-250.041290283203

> <r_mmod_Solvation_Energy-OPLS-2005>
-451.111236572266

> <b_mmod_Minimization_Converged-OPLS-2005>
0

> <r_mmod_RMS_Derivative-OPLS-2005>
3.72303795814514

$$$$
6
                    3D
 Structure written by MMmdl.
158166  0  0  1  0            999 V2000
  -30.4287  -15.3031   20.3393 C   0  0  0  0  0  0
  -30.4420  -12.8319   19.5193 C   0  0  0  0  0  0
  -29.5446  -12.5484   18.2880 C   0  0  0  0  0  0
  -28.0901  -12.2757   18.7161 C   0  0  0  0  0  0
  -27.6000  -13.2590   19.8074 C   0  0  2  0  0  0
  -28.6324  -13.4913   20.9225 C   0  0  0  0  0  0
  -25.2378  -13.8180   20.5749 C   0  0  0  0  0  0
  -24.1712  -13.0403   20.9261 C   0  0  0  0  0  0
  -24.6357  -11.6892   20.8778 C   0  0  0  0  0  0
  -23.9070  -10.4261   21.0426 C   0  0  0  0  0  0
  -24.3628   -9.4185   21.9203 C   0  0  0  0  0  0
  -23.6299   -8.2223   22.0764 C   0  0  0  0  0  0
  -22.4281   -8.0270   21.3553 C   0  0  0  0  0  0
  -21.9919   -9.0235   20.4642 C   0  0  0  0  0  0
  -22.7250  -10.2104   20.3057 C   0  0  0  0  0  0
  -21.6846   -6.0732   22.5277 C   0  0  0  0  0  0
  -21.3997   -6.5631   23.8211 C   0  0  0  0  0  0
  -21.3664   -5.6785   24.9174 C   0  0  0  0  0  0
  -21.6045   -4.3048   24.7221 C   0  0  0  0  0  0
  -21.8815   -3.8143   23.4340 C   0  0  0  0  0  0
  -21.9186   -4.6962   22.3399 C   0  0  0  0  0  0
  -22.7731  -13.5184   21.1911 C   0  0  0  0  0  0
  -22.1665   -4.2152   21.0980 F   0  0  0  0  0  0
  -21.5644   -3.4539   25.7739 F   0  0  0  0  0  0
  -29.8632  -13.9934   20.2892 N   0  0  0  0  0  0
  -26.2767  -12.9405   20.3206 N   0  0  0  0  0  0
  -25.9282  -11.6531   20.5724 N   0  0  0  0  0  0
  -22.0362  -12.8186   22.0457 N   0  0  0  0  0  0
  -25.4062  -15.1922   20.4213 N   0  0  0  0  0  0
  -31.6691  -15.2794   20.2612 O   0  0  0  0  0  0
  -21.6634   -6.8879   21.4244 O   0  0  0  0  0  0
  -22.3443  -14.5506   20.6759 O   0  0  0  0  0  0
  -24.6641  -31.8224   23.1701 C   0  0  0  0  0  0
  -25.9316  -32.4584   23.8169 C   0  0  1  0  0  0
  -27.2190  -26.9169   20.2079 C   0  0  0  0  0  0
  -25.5986  -33.8399   24.2074 N   0  0  0  0  0  0
  -23.4786  -30.4323   21.5204 C   0  0  2  0  0  0
  -24.9312  -28.8113   20.1223 C   0  0  0  0  0  0
  -22.7668  -29.4437   22.4802 C   0  0  0  0  0  0
  -18.0321  -28.1412   22.8467 C   0  0  0  0  0  0
  -24.1490  -36.7205   23.2644 C   0  0  0  0  0  0
  -26.0476  -30.6276   21.3997 C   0  0  0  0  0  0
  -26.1163  -29.2133   20.7520 C   0  0  0  0  0  0
  -27.2571  -28.2898   20.7627 C   0  0  0  0  0  0
  -26.0041  -26.6642   19.5318 C   0  0  0  0  0  0
  -24.9011  -27.5573   19.4903 C   0  0  0  0  0  0
  -23.7191  -29.7425   20.1493 C   0  0  0  0  0  0
  -25.4134  -36.2964   24.0297 C   0  0  1  0  0  0
  -20.5945  -28.3757   23.1192 C   0  0  2  0  0  0
  -20.6802  -26.9439   22.5404 C   0  0  0  0  0  0
  -19.5775  -26.6378   21.5217 C   0  0  0  0  0  0
  -18.1954  -26.7946   22.1620 C   0  0  0  0  0  0
  -19.1581  -28.8908   23.2815 C   0  0  0  0  0  0
  -18.9491  -30.1498   23.8844 C   0  0  0  0  0  0
  -17.6483  -30.6604   24.0553 C   0  0  0  0  0  0
  -25.9103  -34.9347   23.5005 C   0  0  0  0  0  0
  -16.5376  -29.9083   23.6346 C   0  0  0  0  0  0
  -16.7304  -28.6507   23.0366 C   0  0  0  0  0  0
  -26.4561  -31.6534   25.0702 C   0  0  0  0  0  0
  -25.3692  -31.3784   26.1367 C   0  0  0  0  0  0
  -27.0459  -30.2905   24.6429 C   0  0  0  0  0  0
  -27.6055  -32.4345   25.7510 C   0  0  0  0  0  0
  -27.5570  -37.1758   24.8462 C   0  0  0  0  0  0
  -21.4342  -29.3040   22.3539 N   0  0  0  0  0  0
  -26.4277  -37.3703   23.9409 N   0  0  0  0  0  0
  -24.7516  -30.9879   22.0842 N   0  0  0  0  0  0
  -23.4213  -28.8013   23.3055 O   0  0  0  0  0  0
  -28.2436  -25.8303   20.2164 O   0  0  0  0  0  0
  -26.5704  -34.8881   22.4596 O   0  0  0  0  0  0
  -23.5710  -32.1196   23.6795 O   0  0  0  0  0  0
  -29.9794  -18.1869   20.8235 C   0  0  0  0  0  0
  -29.2064  -19.3510   20.3746 C   0  0  0  0  0  0
  -28.4663  -18.6499   19.3554 C   0  0  0  0  0  0
  -28.7856  -17.2806   19.2582 C   0  0  0  0  0  0
  -27.4641  -19.3473   18.4663 C   0  0  0  0  0  0
  -28.2831  -16.3897   18.1634 C   0  0  0  0  0  0
  -27.7547  -20.9542   21.8211 C   0  0  0  0  0  0
  -30.2118  -21.2923   21.7973 C   0  0  0  0  0  0
  -28.7491  -22.6216   20.0574 C   0  0  0  0  0  0
  -28.0681  -24.2233   20.5830 C   0  0  0  0  0  0
  -28.9862  -21.0370   20.9016 C   0  0  0  0  0  0
  -29.7202  -16.8355   20.2273 N   0  0  0  0  0  0
  -31.4553  -13.0536   19.1819 H   0  0  0  0  0  0
  -30.5282  -11.9464   20.1518 H   0  0  0  0  0  0
  -29.9330  -11.6956   17.7305 H   0  0  0  0  0  0
  -29.5829  -13.3899   17.5971 H   0  0  0  0  0  0
  -28.0521  -11.2588   19.1071 H   0  0  0  0  0  0
  -27.4283  -12.2973   17.8501 H   0  0  0  0  0  0
  -27.4793  -14.2024   19.2927 H   0  0  0  0  0  0
  -28.8149  -12.5822   21.4958 H   0  0  0  0  0  0
  -28.2612  -14.2371   21.6281 H   0  0  0  0  0  0
  -25.2777   -9.5667   22.4771 H   0  0  0  0  0  0
  -24.0001   -7.4612   22.7487 H   0  0  0  0  0  0
  -21.0852   -8.8752   19.8943 H   0  0  0  0  0  0
  -22.3735  -10.9642   19.6156 H   0  0  0  0  0  0
  -21.1979   -7.6139   23.9729 H   0  0  0  0  0  0
  -21.1513   -6.0510   25.9088 H   0  0  0  0  0  0
  -22.0596   -2.7607   23.2832 H   0  0  0  0  0  0
  -22.3977  -11.9874   22.4909 H   0  0  0  0  0  0
  -21.0972  -13.1210   22.2640 H   0  0  0  0  0  0
  -24.6420  -15.8469   20.5456 H   0  0  0  0  0  0
  -26.2724  -15.6430   20.1550 H   0  0  0  0  0  0
  -26.7388  -32.5116   23.0884 H   0  0  0  0  0  0
  -25.0102  -33.9474   25.0206 H   0  0  0  0  0  0
  -22.7928  -31.2648   21.3476 H   0  0  0  0  0  0
  -23.3766  -35.9521   23.3268 H   0  0  0  0  0  0
  -24.3569  -36.8895   22.2068 H   0  0  0  0  0  0
  -23.7237  -37.6377   23.6729 H   0  0  0  0  0  0
  -26.2224  -31.3635   20.6139 H   0  0  0  0  0  0
  -26.9103  -30.6904   22.0514 H   0  0  0  0  0  0
  -28.1598  -28.6027   21.2674 H   0  0  0  0  0  0
  -25.8869  -25.7075   19.0420 H   0  0  0  0  0  0
  -24.0022  -27.2429   18.9776 H   0  0  0  0  0  0
  -23.8782  -30.5083   19.3889 H   0  0  0  0  0  0
  -22.8278  -29.1983   19.8319 H   0  0  0  0  0  0
  -25.1333  -36.1753   25.0787 H   0  0  0  0  0  0
  -21.0024  -28.3358   24.1318 H   0  0  0  0  0  0
  -20.5695  -26.2369   23.3639 H   0  0  0  0  0  0
  -21.6664  -26.7423   22.1199 H   0  0  0  0  0  0
  -19.6931  -25.6271   21.1282 H   0  0  0  0  0  0
  -19.6718  -27.3158   20.6720 H   0  0  0  0  0  0
  -17.4226  -26.6694   21.4018 H   0  0  0  0  0  0
  -18.0344  -26.0101   22.9029 H   0  0  0  0  0  0
  -19.7968  -30.7335   24.2185 H   0  0  0  0  0  0
  -17.5035  -31.6278   24.5162 H   0  0  0  0  0  0
  -15.5374  -30.2969   23.7709 H   0  0  0  0  0  0
  -15.8705  -28.0812   22.7110 H   0  0  0  0  0  0
  -24.5882  -30.7121   25.7679 H   0  0  0  0  0  0
  -24.8871  -32.2985   26.4683 H   0  0  0  0  0  0
  -25.7931  -30.9026   27.0219 H   0  0  0  0  0  0
  -26.3120  -29.6588   24.1412 H   0  0  0  0  0  0
  -27.3970  -29.7269   25.5081 H   0  0  0  0  0  0
  -27.9067  -30.4099   23.9850 H   0  0  0  0  0  0
  -27.2619  -33.3684   26.1974 H   0  0  0  0  0  0
  -28.3926  -32.6849   25.0385 H   0  0  0  0  0  0
  -28.0652  -31.8549   26.5525 H   0  0  0  0  0  0
  -28.2555  -38.0085   24.7528 H   0  0  0  0  0  0
  -28.1100  -36.2612   24.6264 H   0  0  0  0  0  0
  -27.2287  -37.1370   25.8863 H   0  0  0  0  0  0
  -20.9603  -29.8713   21.6648 H   0  0  0  0  0  0
  -26.0118  -38.2755   24.1436 H   0  0  0  0  0  0
  -30.7290  -18.1873   21.6030 H   0  0  0  0  0  0
  -27.9371  -19.6634   17.5363 H   0  0  0  0  0  0
  -27.0576  -20.2341   18.9498 H   0  0  0  0  0  0
  -26.6256  -18.6946   18.2247 H   0  0  0  0  0  0
  -28.3665  -16.8947   17.2008 H   0  0  0  0  0  0
  -27.2289  -16.1516   18.2975 H   0  0  0  0  0  0
  -28.8495  -15.4686   18.0699 H   0  0  0  0  0  0
  -27.8766  -20.1857   22.5851 H   0  0  0  0  0  0
  -26.8544  -20.7082   21.2579 H   0  0  0  0  0  0
  -27.5700  -21.8960   22.3387 H   0  0  0  0  0  0
  -30.3012  -20.5416   22.5833 H   0  0  0  0  0  0
  -30.1664  -22.2667   22.2841 H   0  0  0  0  0  0
  -31.1326  -21.2582   21.2143 H   0  0  0  0  0  0
  -29.7280  -22.8568   19.6402 H   0  0  0  0  0  0
  -28.1592  -22.3748   19.1746 H   0  0  0  0  0  0
  -28.2958  -24.2388   21.6490 H   0  0  0  0  0  0
  -26.9887  -24.0689   20.5712 H   0  0  0  0  0  0
  1 25  1  0  0  0
  1 30  2  0  0  0
  1 82  1  0  0  0
  2  3  1  0  0  0
  2 25  1  0  0  0
  2 83  1  0  0  0
  2 84  1  0  0  0
  3  4  1  0  0  0
  3 85  1  0  0  0
  3 86  1  0  0  0
  4  5  1  0  0  0
  4 87  1  0  0  0
  4 88  1  0  0  0
  5  6  1  0  0  0
  5 26  1  0  0  0
  5 89  1  0  0  0
  6 25  1  0  0  0
  6 90  1  0  0  0
  6 91  1  0  0  0
  7  8  2  0  0  0
  7 26  1  0  0  0
  7 29  1  0  0  0
  8  9  1  0  0  0
  8 22  1  0  0  0
  9 10  1  0  0  0
  9 27  2  0  0  0
 10 11  2  0  0  0
 10 15  1  0  0  0
 11 12  1  0  0  0
 11 92  1  0  0  0
 12 13  2  0  0  0
 12 93  1  0  0  0
 13 14  1  0  0  0
 13 31  1  0  0  0
 14 15  2  0  0  0
 14 94  1  0  0  0
 15 95  1  0  0  0
 16 17  2  0  0  0
 16 21  1  0  0  0
 16 31  1  0  0  0
 17 18  1  0  0  0
 17 96  1  0  0  0
 18 19  2  0  0  0
 18 97  1  0  0  0
 19 20  1  0  0  0
 19 24  1  0  0  0
 20 21  2  0  0  0
 20 98  1  0  0  0
 21 23  1  0  0  0
 22 28  1  0  0  0
 22 32  2  0  0  0
 26 27  1  0  0  0
 28 99  1  0  0  0
 28100  1  0  0  0
 29101  1  0  0  0
 29102  1  0  0  0
 33 34  1  0  0  0
 33 66  1  0  0  0
 33 70  2  0  0  0
 34 36  1  0  0  0
 34 59  1  0  0  0
 34103  1  0  0  0
 35 44  2  0  0  0
 35 45  1  0  0  0
 35 68  1  0  0  0
 36 56  1  0  0  0
 36104  1  0  0  0
 37 39  1  0  0  0
 37 47  1  0  0  0
 37 66  1  0  0  0
 37105  1  0  0  0
 38 43  2  0  0  0
 38 46  1  0  0  0
 38 47  1  0  0  0
 39 64  1  0  0  0
 39 67  2  0  0  0
 40 52  1  0  0  0
 40 53  2  0  0  0
 40 58  1  0  0  0
 41106  1  0  0  0
 41107  1  0  0  0
 41108  1  0  0  0
 41 48  1  0  0  0
 42 43  1  0  0  0
 42 66  1  0  0  0
 42109  1  0  0  0
 42110  1  0  0  0
 43 44  1  0  0  0
 44111  1  0  0  0
 45 46  2  0  0  0
 45112  1  0  0  0
 46113  1  0  0  0
 47114  1  0  0  0
 47115  1  0  0  0
 48 56  1  0  0  0
 48 65  1  0  0  0
 48116  1  0  0  0
 49 50  1  0  0  0
 49 53  1  0  0  0
 49 64  1  0  0  0
 49117  1  0  0  0
 50 51  1  0  0  0
 50118  1  0  0  0
 50119  1  0  0  0
 51 52  1  0  0  0
 51120  1  0  0  0
 51121  1  0  0  0
 52122  1  0  0  0
 52123  1  0  0  0
 53 54  1  0  0  0
 54 55  2  0  0  0
 54124  1  0  0  0
 55 57  1  0  0  0
 55125  1  0  0  0
 56 69  2  0  0  0
 57 58  2  0  0  0
 57126  1  0  0  0
 58127  1  0  0  0
 59 60  1  0  0  0
 59 61  1  0  0  0
 59 62  1  0  0  0
 60128  1  0  0  0
 60129  1  0  0  0
 60130  1  0  0  0
 61131  1  0  0  0
 61132  1  0  0  0
 61133  1  0  0  0
 62134  1  0  0  0
 62135  1  0  0  0
 62136  1  0  0  0
 63 65  1  0  0  0
 63137  1  0  0  0
 63138  1  0  0  0
 63139  1  0  0  0
 64140  1  0  0  0
 65141  1  0  0  0
 68 80  1  0  0  0
 71 72  2  0  0  0
 71 82  1  0  0  0
 71142  1  0  0  0
 72 73  1  0  0  0
 72 81  1  0  0  0
 73 74  2  0  0  0
 73 75  1  0  0  0
 74 76  1  0  0  0
 74 82  1  0  0  0
 75143  1  0  0  0
 75144  1  0  0  0
 75145  1  0  0  0
 76146  1  0  0  0
 76147  1  0  0  0
 76148  1  0  0  0
 77149  1  0  0  0
 77150  1  0  0  0
 77151  1  0  0  0
 77 81  1  0  0  0
 78 81  1  0  0  0
 78152  1  0  0  0
 78153  1  0  0  0
 78154  1  0  0  0
 79 80  1  0  0  0
 79 81  1  0  0  0
 79155  1  0  0  0
 79156  1  0  0  0
 80157  1  0  0  0
 80158  1  0  0  0
M  ISO  4   1 100  68 101  80 101  82 100
M  END
> <chiral flag>
0

> <version>
0

> <s_m_source_file>
/data/baiqing/PycharmProjects/Reinvent-master-3.2/result/LINK_invent/BTK/process_docking_weight1_custom_sum_contain_oxygen_bond_distance_aromatic_linkinvent_7_9_3/rearranged_h_0028.sdf

> <i_m_source_file_index>
7

> <r_mmod_Potential_Energy-OPLS-2005>
1480.79956054688

> <r_mmod_Stretch_Energy-OPLS-2005>
624.919250488281

> <r_mmod_Bend_Energy-OPLS-2005>
462.159851074219

> <r_mmod_Torsional_Energy-OPLS-2005>
262.24462890625

> <r_mmod_Improper_Torsional_Energy-OPLS-2005>
7.00641202926636

> <r_mmod_Van_der_Waal_Energy-OPLS-2005>
99.2460479736328

> <r_mmod_Electrostatic_Energy-OPLS-2005>
-272.538452148438

> <r_mmod_Solvation_Energy-OPLS-2005>
-190.457595825195

> <b_mmod_Minimization_Converged-OPLS-2005>
0

> <r_mmod_RMS_Derivative-OPLS-2005>
1.8025164604187

$$$$
7
                    3D
 Structure written by MMmdl.
162170  0  0  1  0            999 V2000
  -30.5921  -14.6463   20.5473 C   0  0  0  0  0  0
  -30.4481  -12.4101   19.4564 C   0  0  0  0  0  0
  -29.5130  -12.5274   18.2305 C   0  0  0  0  0  0
  -28.0351  -12.3584   18.6380 C   0  0  0  0  0  0
  -27.6579  -13.2140   19.8757 C   0  0  2  0  0  0
  -28.6979  -13.0326   21.0031 C   0  0  0  0  0  0
  -25.2565  -13.8157   20.5706 C   0  0  0  0  0  0
  -24.1820  -13.0420   20.9178 C   0  0  0  0  0  0
  -24.6382  -11.6898   20.8715 C   0  0  0  0  0  0
  -23.9052  -10.4279   21.0394 C   0  0  0  0  0  0
  -24.3608   -9.4199   21.9177 C   0  0  0  0  0  0
  -23.6283   -8.2231   22.0753 C   0  0  0  0  0  0
  -22.4268   -8.0265   21.3541 C   0  0  0  0  0  0
  -21.9898   -9.0238   20.4648 C   0  0  0  0  0  0
  -22.7223  -10.2117   20.3050 C   0  0  0  0  0  0
  -21.6842   -6.0735   22.5279 C   0  0  0  0  0  0
  -21.4012   -6.5636   23.8218 C   0  0  0  0  0  0
  -21.3662   -5.6787   24.9177 C   0  0  0  0  0  0
  -21.6048   -4.3051   24.7225 C   0  0  0  0  0  0
  -21.8816   -3.8143   23.4345 C   0  0  0  0  0  0
  -21.9194   -4.6964   22.3403 C   0  0  0  0  0  0
  -22.7850  -13.5219   21.1851 C   0  0  0  0  0  0
  -22.1661   -4.2143   21.0983 F   0  0  0  0  0  0
  -21.5634   -3.4543   25.7744 F   0  0  0  0  0  0
  -30.0151  -13.4046   20.4607 N   0  0  0  0  0  0
  -26.2997  -12.9330   20.3351 N   0  0  0  0  0  0
  -25.9317  -11.6484   20.5757 N   0  0  0  0  0  0
  -22.0488  -12.8211   22.0416 N   0  0  0  0  0  0
  -25.4276  -15.1874   20.4152 N   0  0  0  0  0  0
  -31.7072  -14.8685   20.0645 O   0  0  0  0  0  0
  -21.6629   -6.8869   21.4239 O   0  0  0  0  0  0
  -22.3538  -14.5524   20.6705 O   0  0  0  0  0  0
  -24.6198  -31.8627   23.2043 C   0  0  0  0  0  0
  -25.9058  -32.4788   23.8361 C   0  0  1  0  0  0
  -27.2259  -27.3347   20.1151 C   0  0  0  0  0  0
  -25.5916  -33.8591   24.2308 N   0  0  0  0  0  0
  -23.4108  -30.4841   21.5491 C   0  0  2  0  0  0
  -24.8582  -28.9398   20.1125 C   0  0  0  0  0  0
  -22.7422  -29.4617   22.4972 C   0  0  0  0  0  0
  -18.0297  -28.1308   22.8564 C   0  0  0  0  0  0
  -24.1498  -36.7300   23.2639 C   0  0  0  0  0  0
  -25.9459  -30.7983   21.3704 C   0  0  0  0  0  0
  -26.0220  -29.4240   20.7189 C   0  0  0  0  0  0
  -27.2038  -28.6311   20.7151 C   0  0  0  0  0  0
  -26.0371  -26.8938   19.4896 C   0  0  0  0  0  0
  -24.8670  -27.6789   19.4937 C   0  0  0  0  0  0
  -23.6232  -29.8180   20.1629 C   0  0  0  0  0  0
  -25.4120  -36.3094   24.0340 C   0  0  1  0  0  0
  -20.5887  -28.3669   23.1375 C   0  0  2  0  0  0
  -20.6810  -26.9409   22.5451 C   0  0  0  0  0  0
  -19.5777  -26.6312   21.5264 C   0  0  0  0  0  0
  -18.1977  -26.7806   22.1784 C   0  0  0  0  0  0
  -19.1534  -28.8813   23.2959 C   0  0  0  0  0  0
  -18.9447  -30.1450   23.8897 C   0  0  0  0  0  0
  -17.6453  -30.6576   24.0497 C   0  0  0  0  0  0
  -25.9042  -34.9457   23.5125 C   0  0  0  0  0  0
  -16.5354  -29.9049   23.6290 C   0  0  0  0  0  0
  -16.7286  -28.6435   23.0385 C   0  0  0  0  0  0
  -26.4485  -31.6569   25.0691 C   0  0  0  0  0  0
  -25.3730  -31.3686   26.1418 C   0  0  0  0  0  0
  -27.0328  -30.3004   24.6092 C   0  0  0  0  0  0
  -27.6057  -32.4285   25.7451 C   0  0  0  0  0  0
  -27.5585  -37.1810   24.8463 C   0  0  0  0  0  0
  -21.4129  -29.3081   22.3786 N   0  0  0  0  0  0
  -26.4297  -37.3784   23.9400 N   0  0  0  0  0  0
  -24.6782  -31.0644   22.0995 N   0  0  0  0  0  0
  -23.4198  -28.8112   23.2979 O   0  0  0  0  0  0
  -28.3800  -26.5443   20.1804 O   0  0  0  0  0  0
  -26.5607  -34.8922   22.4681 O   0  0  0  0  0  0
  -23.5372  -32.1422   23.7389 O   0  0  0  0  0  0
  -29.5470  -17.7175   19.7399 C   0  0  0  0  0  0
  -29.5368  -17.8845   22.1293 C   0  0  0  0  0  0
  -29.1305  -19.0878   19.6409 C   0  0  0  0  0  0
  -29.1557  -19.2591   22.0503 C   0  0  0  0  0  0
  -28.8906  -19.8984   20.7979 C   0  0  0  0  0  0
  -29.7177  -17.0656   20.9883 C   0  0  0  0  0  0
  -28.8582  -19.6443   18.2540 C   0  0  0  0  0  0
  -28.9441  -19.9940   23.3659 C   0  0  0  0  0  0
  -26.7336  -23.8857   21.1115 C   0  0  0  0  0  0
  -28.1411  -21.3027   20.7417 C   0  0  0  0  0  0
  -28.4562  -25.1500   19.6936 C   0  0  0  0  0  0
  -28.2262  -23.9494   20.7174 C   0  0  2  0  0  0
  -29.8394  -15.6153   21.1607 N   0  0  0  0  0  0
  -28.8284  -22.5890   20.3156 N   0  3  0  0  0  0
  -31.4857  -12.5585   19.1546 H   0  0  0  0  0  0
  -30.4054  -11.4065   19.8819 H   0  0  0  0  0  0
  -29.7823  -11.7847   17.4782 H   0  0  0  0  0  0
  -29.6483  -13.5024   17.7583 H   0  0  0  0  0  0
  -27.8710  -11.3026   18.8591 H   0  0  0  0  0  0
  -27.3805  -12.5979   17.7988 H   0  0  0  0  0  0
  -27.6867  -14.2569   19.5575 H   0  0  0  0  0  0
  -28.7135  -11.9935   21.3348 H   0  0  0  0  0  0
  -28.4290  -13.6154   21.8844 H   0  0  0  0  0  0
  -25.2746   -9.5674   22.4764 H   0  0  0  0  0  0
  -23.9994   -7.4618   22.7465 H   0  0  0  0  0  0
  -21.0831   -8.8750   19.8950 H   0  0  0  0  0  0
  -22.3668  -10.9662   19.6166 H   0  0  0  0  0  0
  -21.1993   -7.6142   23.9719 H   0  0  0  0  0  0
  -21.1494   -6.0519   25.9083 H   0  0  0  0  0  0
  -22.0595   -2.7605   23.2847 H   0  0  0  0  0  0
  -22.4095  -11.9878   22.4806 H   0  0  0  0  0  0
  -21.1103  -13.1251   22.2617 H   0  0  0  0  0  0
  -24.6633  -15.8432   20.5321 H   0  0  0  0  0  0
  -26.2878  -15.6304   20.1163 H   0  0  0  0  0  0
  -26.7094  -32.5464   23.1088 H   0  0  0  0  0  0
  -25.0048  -33.9748   25.0445 H   0  0  0  0  0  0
  -22.7067  -31.3071   21.4118 H   0  0  0  0  0  0
  -23.3766  -35.9622   23.3289 H   0  0  0  0  0  0
  -24.3584  -36.8930   22.2055 H   0  0  0  0  0  0
  -23.7261  -37.6504   23.6662 H   0  0  0  0  0  0
  -26.0576  -31.5617   20.5993 H   0  0  0  0  0  0
  -26.8327  -30.8586   21.9890 H   0  0  0  0  0  0
  -28.0989  -29.0044   21.1945 H   0  0  0  0  0  0
  -25.9731  -25.9321   19.0055 H   0  0  0  0  0  0
  -23.9723  -27.3010   19.0196 H   0  0  0  0  0  0
  -23.7344  -30.6013   19.4134 H   0  0  0  0  0  0
  -22.7447  -29.2482   19.8553 H   0  0  0  0  0  0
  -25.1307  -36.1949   25.0837 H   0  0  0  0  0  0
  -21.0024  -28.3222   24.1468 H   0  0  0  0  0  0
  -20.5700  -26.2255   23.3635 H   0  0  0  0  0  0
  -21.6696  -26.7463   22.1304 H   0  0  0  0  0  0
  -19.6996  -25.6221   21.1329 H   0  0  0  0  0  0
  -19.6663  -27.3076   20.6750 H   0  0  0  0  0  0
  -17.4182  -26.6380   21.4285 H   0  0  0  0  0  0
  -18.0533  -26.0028   22.9271 H   0  0  0  0  0  0
  -19.7907  -30.7305   24.2221 H   0  0  0  0  0  0
  -17.5030  -31.6288   24.5038 H   0  0  0  0  0  0
  -15.5364  -30.2955   23.7623 H   0  0  0  0  0  0
  -15.8696  -28.0709   22.7120 H   0  0  0  0  0  0
  -24.5930  -30.7013   25.7732 H   0  0  0  0  0  0
  -24.8892  -32.2850   26.4813 H   0  0  0  0  0  0
  -25.8055  -30.8882   27.0201 H   0  0  0  0  0  0
  -26.2877  -29.6752   24.1152 H   0  0  0  0  0  0
  -27.4110  -29.7247   25.4552 H   0  0  0  0  0  0
  -27.8707  -30.4328   23.9233 H   0  0  0  0  0  0
  -27.2690  -33.3602   26.2009 H   0  0  0  0  0  0
  -28.3868  -32.6807   25.0261 H   0  0  0  0  0  0
  -28.0707  -31.8403   26.5383 H   0  0  0  0  0  0
  -28.2603  -38.0107   24.7509 H   0  0  0  0  0  0
  -28.1087  -36.2641   24.6294 H   0  0  0  0  0  0
  -27.2285  -37.1457   25.8860 H   0  0  0  0  0  0
  -20.9209  -29.9027   21.7249 H   0  0  0  0  0  0
  -26.0185  -38.2852   24.1407 H   0  0  0  0  0  0
  -29.6503  -17.1321   18.8349 H   0  0  0  0  0  0
  -29.6391  -17.4342   23.1078 H   0  0  0  0  0  0
  -29.2000  -18.9581   17.4774 H   0  0  0  0  0  0
  -29.3789  -20.5893   18.1057 H   0  0  0  0  0  0
  -27.7892  -19.8007   18.1092 H   0  0  0  0  0  0
  -29.4315  -19.4782   24.1945 H   0  0  0  0  0  0
  -27.8808  -20.0613   23.6005 H   0  0  0  0  0  0
  -29.3553  -21.0038   23.3345 H   0  0  0  0  0  0
  -26.3703  -24.8772   21.3824 H   0  0  0  0  0  0
  -26.5500  -23.2674   21.9879 H   0  0  0  0  0  0
  -26.1136  -23.5208   20.2911 H   0  0  0  0  0  0
  -27.7179  -21.4744   21.7271 H   0  0  0  0  0  0
  -27.2645  -21.1813   20.1052 H   0  0  0  0  0  0
  -27.8691  -25.0024   18.7887 H   0  0  0  0  0  0
  -29.4844  -25.0633   19.3438 H   0  0  0  0  0  0
  -28.7738  -24.2359   21.6156 H   0  0  0  0  0  0
  -29.1048  -15.2192   21.7259 H   0  0  0  0  0  0
  -29.7667  -22.5579   20.6819 H   0  0  0  0  0  0
  -28.9171  -22.5480   19.3131 H   0  0  0  0  0  0
  1 25  1  0  0  0
  1 30  2  0  0  0
  1 83  1  0  0  0
  2  3  1  0  0  0
  2 25  1  0  0  0
  2 85  1  0  0  0
  2 86  1  0  0  0
  3  4  1  0  0  0
  3 87  1  0  0  0
  3 88  1  0  0  0
  4  5  1  0  0  0
  4 89  1  0  0  0
  4 90  1  0  0  0
  5  6  1  0  0  0
  5 26  1  0  0  0
  5 91  1  0  0  0
  6 25  1  0  0  0
  6 92  1  0  0  0
  6 93  1  0  0  0
  7  8  2  0  0  0
  7 26  1  0  0  0
  7 29  1  0  0  0
  8  9  1  0  0  0
  8 22  1  0  0  0
  9 10  1  0  0  0
  9 27  2  0  0  0
 10 11  2  0  0  0
 10 15  1  0  0  0
 11 12  1  0  0  0
 11 94  1  0  0  0
 12 13  2  0  0  0
 12 95  1  0  0  0
 13 14  1  0  0  0
 13 31  1  0  0  0
 14 15  2  0  0  0
 14 96  1  0  0  0
 15 97  1  0  0  0
 16 17  2  0  0  0
 16 21  1  0  0  0
 16 31  1  0  0  0
 17 18  1  0  0  0
 17 98  1  0  0  0
 18 19  2  0  0  0
 18 99  1  0  0  0
 19 20  1  0  0  0
 19 24  1  0  0  0
 20 21  2  0  0  0
 20100  1  0  0  0
 21 23  1  0  0  0
 22 28  1  0  0  0
 22 32  2  0  0  0
 26 27  1  0  0  0
 28101  1  0  0  0
 28102  1  0  0  0
 29103  1  0  0  0
 29104  1  0  0  0
 33 34  1  0  0  0
 33 66  1  0  0  0
 33 70  2  0  0  0
 34 36  1  0  0  0
 34 59  1  0  0  0
 34105  1  0  0  0
 35 44  2  0  0  0
 35 45  1  0  0  0
 35 68  1  0  0  0
 36 56  1  0  0  0
 36106  1  0  0  0
 37 39  1  0  0  0
 37 47  1  0  0  0
 37 66  1  0  0  0
 37107  1  0  0  0
 38 43  2  0  0  0
 38 46  1  0  0  0
 38 47  1  0  0  0
 39 64  1  0  0  0
 39 67  2  0  0  0
 40 52  1  0  0  0
 40 53  2  0  0  0
 40 58  1  0  0  0
 41108  1  0  0  0
 41109  1  0  0  0
 41110  1  0  0  0
 41 48  1  0  0  0
 42 43  1  0  0  0
 42 66  1  0  0  0
 42111  1  0  0  0
 42112  1  0  0  0
 43 44  1  0  0  0
 44113  1  0  0  0
 45 46  2  0  0  0
 45114  1  0  0  0
 46115  1  0  0  0
 47116  1  0  0  0
 47117  1  0  0  0
 48 56  1  0  0  0
 48 65  1  0  0  0
 48118  1  0  0  0
 49 50  1  0  0  0
 49 53  1  0  0  0
 49 64  1  0  0  0
 49119  1  0  0  0
 50 51  1  0  0  0
 50120  1  0  0  0
 50121  1  0  0  0
 51 52  1  0  0  0
 51122  1  0  0  0
 51123  1  0  0  0
 52124  1  0  0  0
 52125  1  0  0  0
 53 54  1  0  0  0
 54 55  2  0  0  0
 54126  1  0  0  0
 55 57  1  0  0  0
 55127  1  0  0  0
 56 69  2  0  0  0
 57 58  2  0  0  0
 57128  1  0  0  0
 58129  1  0  0  0
 59 60  1  0  0  0
 59 61  1  0  0  0
 59 62  1  0  0  0
 60130  1  0  0  0
 60131  1  0  0  0
 60132  1  0  0  0
 61133  1  0  0  0
 61134  1  0  0  0
 61135  1  0  0  0
 62136  1  0  0  0
 62137  1  0  0  0
 62138  1  0  0  0
 63 65  1  0  0  0
 63139  1  0  0  0
 63140  1  0  0  0
 63141  1  0  0  0
 64142  1  0  0  0
 65143  1  0  0  0
 68 81  1  0  0  0
 71 73  2  0  0  0
 71 76  1  0  0  0
 71144  1  0  0  0
 72 74  1  0  0  0
 72 76  2  0  0  0
 72145  1  0  0  0
 73 75  1  0  0  0
 73 77  1  0  0  0
 74 75  2  0  0  0
 74 78  1  0  0  0
 75 80  1  0  0  0
 76 83  1  0  0  0
 77146  1  0  0  0
 77147  1  0  0  0
 77148  1  0  0  0
 78149  1  0  0  0
 78150  1  0  0  0
 78151  1  0  0  0
 79152  1  0  0  0
 79153  1  0  0  0
 79154  1  0  0  0
 79 82  1  0  0  0
 80 84  1  0  0  0
 80155  1  0  0  0
 80156  1  0  0  0
 81 82  1  0  0  0
 81157  1  0  0  0
 81158  1  0  0  0
 82 84  1  0  0  0
 82159  1  0  0  0
 83160  1  0  0  0
 84161  1  0  0  0
 84162  1  0  0  0
M  CHG  1  84   1
M  ISO  4   1 100  68 101  81 101  83 100
M  END
> <chiral flag>
0

> <version>
0

> <s_m_source_file>
/data/baiqing/PycharmProjects/Reinvent-master-3.2/result/LINK_invent/BTK/process_docking_weight1_custom_sum_contain_oxygen_bond_distance_aromatic_linkinvent_7_9_3/rearranged_h_0028.sdf

> <i_m_source_file_index>
8

> <r_mmod_Potential_Energy-OPLS-2005>
-21.0545063018799

> <r_mmod_Stretch_Energy-OPLS-2005>
86.1681365966797

> <r_mmod_Bend_Energy-OPLS-2005>
163.25617980957

> <r_mmod_Torsional_Energy-OPLS-2005>
237.043212890625

> <r_mmod_Improper_Torsional_Energy-OPLS-2005>
5.51242685317993

> <r_mmod_Van_der_Waal_Energy-OPLS-2005>
142.971725463867

> <r_mmod_Electrostatic_Energy-OPLS-2005>
-250.041290283203

> <r_mmod_Solvation_Energy-OPLS-2005>
-451.111236572266

> <b_mmod_Minimization_Converged-OPLS-2005>
0

> <r_mmod_RMS_Derivative-OPLS-2005>
3.72303795814514

$$$$
8
                    3D
 Structure written by MMmdl.
153161  0  0  1  0            999 V2000
  -30.4048  -15.3211   20.3773 C   0  0  0  0  0  0
  -30.4400  -12.8581   19.5019 C   0  0  0  0  0  0
  -29.5354  -12.5836   18.2762 C   0  0  0  0  0  0
  -28.0883  -12.2952   18.7146 C   0  0  0  0  0  0
  -27.6062  -13.2743   19.8133 C   0  0  2  0  0  0
  -28.6446  -13.4741   20.9339 C   0  0  0  0  0  0
  -25.2396  -13.8224   20.5788 C   0  0  0  0  0  0
  -24.1746  -13.0424   20.9264 C   0  0  0  0  0  0
  -24.6395  -11.6912   20.8758 C   0  0  0  0  0  0
  -23.9088  -10.4279   21.0399 C   0  0  0  0  0  0
  -24.3632   -9.4194   21.9181 C   0  0  0  0  0  0
  -23.6299   -8.2237   22.0757 C   0  0  0  0  0  0
  -22.4277   -8.0280   21.3547 C   0  0  0  0  0  0
  -21.9919   -9.0252   20.4648 C   0  0  0  0  0  0
  -22.7252  -10.2127   20.3050 C   0  0  0  0  0  0
  -21.6854   -6.0734   22.5272 C   0  0  0  0  0  0
  -21.4016   -6.5640   23.8204 C   0  0  0  0  0  0
  -21.3660   -5.6798   24.9168 C   0  0  0  0  0  0
  -21.6042   -4.3058   24.7225 C   0  0  0  0  0  0
  -21.8817   -3.8143   23.4343 C   0  0  0  0  0  0
  -21.9191   -4.6963   22.3399 C   0  0  0  0  0  0
  -22.7757  -13.5174   21.1896 C   0  0  0  0  0  0
  -22.1660   -4.2145   21.0977 F   0  0  0  0  0  0
  -21.5630   -3.4542   25.7739 F   0  0  0  0  0  0
  -29.8518  -14.0093   20.2809 N   0  0  0  0  0  0
  -26.2809  -12.9496   20.3211 N   0  0  0  0  0  0
  -25.9331  -11.6597   20.5702 N   0  0  0  0  0  0
  -22.0414  -12.8170   22.0448 N   0  0  0  0  0  0
  -25.4019  -15.1978   20.4298 N   0  0  0  0  0  0
  -31.6419  -15.3094   20.2822 O   0  0  0  0  0  0
  -21.6643   -6.8880   21.4233 O   0  0  0  0  0  0
  -22.3436  -14.5472   20.6719 O   0  0  0  0  0  0
  -24.6671  -31.8177   23.1662 C   0  0  0  0  0  0
  -25.9333  -32.4551   23.8136 C   0  0  1  0  0  0
  -27.2163  -26.8893   20.1866 C   0  0  0  0  0  0
  -25.5983  -33.8364   24.2032 N   0  0  0  0  0  0
  -23.4825  -30.4271   21.5176 C   0  0  2  0  0  0
  -24.9340  -28.8009   20.1200 C   0  0  0  0  0  0
  -22.7685  -29.4405   22.4790 C   0  0  0  0  0  0
  -18.0315  -28.1381   22.8437 C   0  0  0  0  0  0
  -24.1506  -36.7200   23.2646 C   0  0  0  0  0  0
  -26.0525  -30.6114   21.4014 C   0  0  0  0  0  0
  -26.1212  -29.1956   20.7499 C   0  0  0  0  0  0
  -27.2600  -28.2643   20.7498 C   0  0  0  0  0  0
  -25.9956  -26.6493   19.5197 C   0  0  0  0  0  0
  -24.8979  -27.5487   19.4850 C   0  0  0  0  0  0
  -23.7235  -29.7356   20.1475 C   0  0  0  0  0  0
  -25.4143  -36.2932   24.0287 C   0  0  1  0  0  0
  -20.5940  -28.3727   23.1156 C   0  0  2  0  0  0
  -20.6780  -26.9400   22.5384 C   0  0  0  0  0  0
  -19.5767  -26.6345   21.5179 C   0  0  0  0  0  0
  -18.1947  -26.7910   22.1591 C   0  0  0  0  0  0
  -19.1578  -28.8874   23.2779 C   0  0  0  0  0  0
  -18.9496  -30.1463   23.8820 C   0  0  0  0  0  0
  -17.6493  -30.6572   24.0529 C   0  0  0  0  0  0
  -25.9098  -34.9319   23.4977 C   0  0  0  0  0  0
  -16.5377  -29.9055   23.6340 C   0  0  0  0  0  0
  -16.7299  -28.6476   23.0350 C   0  0  0  0  0  0
  -26.4564  -31.6527   25.0700 C   0  0  0  0  0  0
  -25.3682  -31.3793   26.1356 C   0  0  0  0  0  0
  -27.0470  -30.2878   24.6489 C   0  0  0  0  0  0
  -27.6035  -32.4363   25.7510 C   0  0  0  0  0  0
  -27.5569  -37.1753   24.8456 C   0  0  0  0  0  0
  -21.4354  -29.3026   22.3530 N   0  0  0  0  0  0
  -26.4274  -37.3674   23.9407 N   0  0  0  0  0  0
  -24.7555  -30.9799   22.0814 N   0  0  0  0  0  0
  -23.4215  -28.7984   23.3047 O   0  0  0  0  0  0
  -28.2318  -25.7842   20.1833 O   0  0  0  0  0  0
  -26.5720  -34.8865   22.4583 O   0  0  0  0  0  0
  -23.5734  -32.1152   23.6748 O   0  0  0  0  0  0
  -29.8587  -19.7151   22.6476 C   0  0  0  0  0  0
  -29.2034  -19.5160   20.0380 C   0  0  0  0  0  0
  -29.4900  -20.9196   21.9869 C   0  0  0  0  0  0
  -29.9292  -18.4169   22.0702 C   0  0  0  0  0  0
  -29.1081  -20.9619   20.6196 C   0  0  0  0  0  0
  -29.6294  -18.1689   20.7029 C   0  0  0  0  0  0
  -29.5361  -22.1930   22.8169 C   0  0  0  0  0  0
  -30.2828  -17.2719   23.0090 C   0  0  0  0  0  0
  -28.8261  -22.5749   19.9294 C   0  0  0  0  0  0
  -28.0343  -24.1458   20.4470 C   0  0  0  0  0  0
  -29.6227  -16.5951   20.2487 N   0  0  0  0  0  0
  -31.4496  -13.0876   19.1596 H   0  0  0  0  0  0
  -30.5348  -11.9675   20.1264 H   0  0  0  0  0  0
  -29.9262  -11.7494   17.6934 H   0  0  0  0  0  0
  -29.5496  -13.4516   17.6167 H   0  0  0  0  0  0
  -28.0599  -11.2750   19.0992 H   0  0  0  0  0  0
  -27.4157  -12.3190   17.8564 H   0  0  0  0  0  0
  -27.5085  -14.2329   19.3033 H   0  0  0  0  0  0
  -28.8408  -12.5465   21.4743 H   0  0  0  0  0  0
  -28.2765  -14.1941   21.6665 H   0  0  0  0  0  0
  -25.2770   -9.5675   22.4765 H   0  0  0  0  0  0
  -23.9998   -7.4631   22.7483 H   0  0  0  0  0  0
  -21.0846   -8.8765   19.8964 H   0  0  0  0  0  0
  -22.3692  -10.9669   19.6165 H   0  0  0  0  0  0
  -21.2009   -7.6147   23.9705 H   0  0  0  0  0  0
  -21.1488   -6.0531   25.9077 H   0  0  0  0  0  0
  -22.0597   -2.7603   23.2843 H   0  0  0  0  0  0
  -22.4056  -11.9860   22.4863 H   0  0  0  0  0  0
  -21.1017  -13.1163   22.2628 H   0  0  0  0  0  0
  -24.6336  -15.8460   20.5691 H   0  0  0  0  0  0
  -26.2514  -15.6509   20.1224 H   0  0  0  0  0  0
  -26.7398  -32.5066   23.0835 H   0  0  0  0  0  0
  -25.0064  -33.9410   25.0142 H   0  0  0  0  0  0
  -22.7980  -31.2607   21.3447 H   0  0  0  0  0  0
  -23.3763  -35.9529   23.3261 H   0  0  0  0  0  0
  -24.3565  -36.8913   22.2065 H   0  0  0  0  0  0
  -23.7277  -37.6378   23.6745 H   0  0  0  0  0  0
  -26.2342  -31.3489   20.6189 H   0  0  0  0  0  0
  -26.9090  -30.6693   22.0599 H   0  0  0  0  0  0
  -28.1668  -28.5719   21.2519 H   0  0  0  0  0  0
  -25.8688  -25.6952   19.0269 H   0  0  0  0  0  0
  -23.9981  -27.2391   18.9709 H   0  0  0  0  0  0
  -23.8840  -30.4994   19.3855 H   0  0  0  0  0  0
  -22.8312  -29.1924   19.8309 H   0  0  0  0  0  0
  -25.1345  -36.1703   25.0771 H   0  0  0  0  0  0
  -21.0003  -28.3324   24.1291 H   0  0  0  0  0  0
  -20.5605  -26.2353   23.3622 H   0  0  0  0  0  0
  -21.6648  -26.7339   22.1231 H   0  0  0  0  0  0
  -19.6920  -25.6238   21.1250 H   0  0  0  0  0  0
  -19.6709  -27.3111   20.6666 H   0  0  0  0  0  0
  -17.4210  -26.6611   21.4006 H   0  0  0  0  0  0
  -18.0376  -26.0056   22.9002 H   0  0  0  0  0  0
  -19.7977  -30.7270   24.2180 H   0  0  0  0  0  0
  -17.5046  -31.6255   24.5122 H   0  0  0  0  0  0
  -15.5370  -30.2921   23.7709 H   0  0  0  0  0  0
  -15.8698  -28.0764   22.7108 H   0  0  0  0  0  0
  -24.5868  -30.7134   25.7667 H   0  0  0  0  0  0
  -24.8873  -32.3005   26.4652 H   0  0  0  0  0  0
  -25.7901  -30.9042   27.0225 H   0  0  0  0  0  0
  -26.3139  -29.6542   24.1480 H   0  0  0  0  0  0
  -27.3936  -29.7263   25.5181 H   0  0  0  0  0  0
  -27.9111  -30.4027   23.9944 H   0  0  0  0  0  0
  -27.2565  -33.3704   26.1942 H   0  0  0  0  0  0
  -28.3913  -32.6875   25.0398 H   0  0  0  0  0  0
  -28.0626  -31.8610   26.5563 H   0  0  0  0  0  0
  -28.2541  -38.0093   24.7501 H   0  0  0  0  0  0
  -28.1118  -36.2610   24.6280 H   0  0  0  0  0  0
  -27.2276  -37.1379   25.8856 H   0  0  0  0  0  0
  -20.9617  -29.8768   21.6698 H   0  0  0  0  0  0
  -26.0117  -38.2724   24.1436 H   0  0  0  0  0  0
  -30.0977  -19.7946   23.6997 H   0  0  0  0  0  0
  -28.9442  -19.4404   18.9909 H   0  0  0  0  0  0
  -28.5256  -22.5092   23.0742 H   0  0  0  0  0  0
  -30.0420  -23.0015   22.2903 H   0  0  0  0  0  0
  -30.0717  -22.0480   23.7561 H   0  0  0  0  0  0
  -30.3332  -17.6019   24.0463 H   0  0  0  0  0  0
  -31.2532  -16.8468   22.7545 H   0  0  0  0  0  0
  -29.5280  -16.4860   22.9712 H   0  0  0  0  0  0
  -28.4154  -22.3705   18.9394 H   0  0  0  0  0  0
  -29.8495  -22.8828   19.7152 H   0  0  0  0  0  0
  -28.1222  -24.1303   21.5293 H   0  0  0  0  0  0
  -26.9697  -23.9733   20.2882 H   0  0  0  0  0  0
  -28.7236  -16.3567   19.8565 H   0  0  0  0  0  0
  1 25  1  0  0  0
  1 30  2  0  0  0
  1 81  1  0  0  0
  2  3  1  0  0  0
  2 25  1  0  0  0
  2 82  1  0  0  0
  2 83  1  0  0  0
  3  4  1  0  0  0
  3 84  1  0  0  0
  3 85  1  0  0  0
  4  5  1  0  0  0
  4 86  1  0  0  0
  4 87  1  0  0  0
  5  6  1  0  0  0
  5 26  1  0  0  0
  5 88  1  0  0  0
  6 25  1  0  0  0
  6 89  1  0  0  0
  6 90  1  0  0  0
  7  8  2  0  0  0
  7 26  1  0  0  0
  7 29  1  0  0  0
  8  9  1  0  0  0
  8 22  1  0  0  0
  9 10  1  0  0  0
  9 27  2  0  0  0
 10 11  2  0  0  0
 10 15  1  0  0  0
 11 12  1  0  0  0
 11 91  1  0  0  0
 12 13  2  0  0  0
 12 92  1  0  0  0
 13 14  1  0  0  0
 13 31  1  0  0  0
 14 15  2  0  0  0
 14 93  1  0  0  0
 15 94  1  0  0  0
 16 17  2  0  0  0
 16 21  1  0  0  0
 16 31  1  0  0  0
 17 18  1  0  0  0
 17 95  1  0  0  0
 18 19  2  0  0  0
 18 96  1  0  0  0
 19 20  1  0  0  0
 19 24  1  0  0  0
 20 21  2  0  0  0
 20 97  1  0  0  0
 21 23  1  0  0  0
 22 28  1  0  0  0
 22 32  2  0  0  0
 26 27  1  0  0  0
 28 98  1  0  0  0
 28 99  1  0  0  0
 29100  1  0  0  0
 29101  1  0  0  0
 33 34  1  0  0  0
 33 66  1  0  0  0
 33 70  2  0  0  0
 34 36  1  0  0  0
 34 59  1  0  0  0
 34102  1  0  0  0
 35 44  2  0  0  0
 35 45  1  0  0  0
 35 68  1  0  0  0
 36 56  1  0  0  0
 36103  1  0  0  0
 37 39  1  0  0  0
 37 47  1  0  0  0
 37 66  1  0  0  0
 37104  1  0  0  0
 38 43  2  0  0  0
 38 46  1  0  0  0
 38 47  1  0  0  0
 39 64  1  0  0  0
 39 67  2  0  0  0
 40 52  1  0  0  0
 40 53  2  0  0  0
 40 58  1  0  0  0
 41105  1  0  0  0
 41106  1  0  0  0
 41107  1  0  0  0
 41 48  1  0  0  0
 42 43  1  0  0  0
 42 66  1  0  0  0
 42108  1  0  0  0
 42109  1  0  0  0
 43 44  1  0  0  0
 44110  1  0  0  0
 45 46  2  0  0  0
 45111  1  0  0  0
 46112  1  0  0  0
 47113  1  0  0  0
 47114  1  0  0  0
 48 56  1  0  0  0
 48 65  1  0  0  0
 48115  1  0  0  0
 49 50  1  0  0  0
 49 53  1  0  0  0
 49 64  1  0  0  0
 49116  1  0  0  0
 50 51  1  0  0  0
 50117  1  0  0  0
 50118  1  0  0  0
 51 52  1  0  0  0
 51119  1  0  0  0
 51120  1  0  0  0
 52121  1  0  0  0
 52122  1  0  0  0
 53 54  1  0  0  0
 54 55  2  0  0  0
 54123  1  0  0  0
 55 57  1  0  0  0
 55124  1  0  0  0
 56 69  2  0  0  0
 57 58  2  0  0  0
 57125  1  0  0  0
 58126  1  0  0  0
 59 60  1  0  0  0
 59 61  1  0  0  0
 59 62  1  0  0  0
 60127  1  0  0  0
 60128  1  0  0  0
 60129  1  0  0  0
 61130  1  0  0  0
 61131  1  0  0  0
 61132  1  0  0  0
 62133  1  0  0  0
 62134  1  0  0  0
 62135  1  0  0  0
 63 65  1  0  0  0
 63136  1  0  0  0
 63137  1  0  0  0
 63138  1  0  0  0
 64139  1  0  0  0
 65140  1  0  0  0
 68 80  1  0  0  0
 71 73  2  0  0  0
 71 74  1  0  0  0
 71141  1  0  0  0
 72 75  2  0  0  0
 72 76  1  0  0  0
 72142  1  0  0  0
 73 75  1  0  0  0
 73 77  1  0  0  0
 74 76  2  0  0  0
 74 78  1  0  0  0
 75 79  1  0  0  0
 76 81  1  0  0  0
 77143  1  0  0  0
 77144  1  0  0  0
 77145  1  0  0  0
 78146  1  0  0  0
 78147  1  0  0  0
 78148  1  0  0  0
 79 80  1  0  0  0
 79149  1  0  0  0
 79150  1  0  0  0
 80151  1  0  0  0
 80152  1  0  0  0
 81153  1  0  0  0
M  ISO  4   1 100  68 101  80 101  81 100
M  END
> <chiral flag>
0

> <version>
0

> <s_m_source_file>
/data/baiqing/PycharmProjects/Reinvent-master-3.2/result/LINK_invent/BTK/process_docking_weight1_custom_sum_contain_oxygen_bond_distance_aromatic_linkinvent_7_9_3/rearranged_h_0028.sdf

> <i_m_source_file_index>
9

> <r_mmod_Potential_Energy-OPLS-2005>
1432.67980957031

> <r_mmod_Stretch_Energy-OPLS-2005>
654.414184570312

> <r_mmod_Bend_Energy-OPLS-2005>
448.596313476562

> <r_mmod_Torsional_Energy-OPLS-2005>
259.739410400391

> <r_mmod_Improper_Torsional_Energy-OPLS-2005>
10.4430446624756

> <r_mmod_Van_der_Waal_Energy-OPLS-2005>
130.984939575195

> <r_mmod_Electrostatic_Energy-OPLS-2005>
-380.719970703125

> <r_mmod_Solvation_Energy-OPLS-2005>
-208.522125244141

> <b_mmod_Minimization_Converged-OPLS-2005>
0

> <r_mmod_RMS_Derivative-OPLS-2005>
2.17094659805298

$$$$
9
                    3D
 Structure written by MMmdl.
157166  0  0  1  0            999 V2000
  -30.5248  -14.9050   20.4273 C   0  0  0  0  0  0
  -30.4408  -12.5556   19.4968 C   0  0  0  0  0  0
  -29.5209  -12.5249   18.2539 C   0  0  0  0  0  0
  -28.0511  -12.3185   18.6674 C   0  0  0  0  0  0
  -27.6325  -13.2400   19.8431 C   0  0  2  0  0  0
  -28.6720  -13.2333   20.9835 C   0  0  0  0  0  0
  -25.2472  -13.8203   20.5689 C   0  0  0  0  0  0
  -24.1781  -13.0439   20.9217 C   0  0  0  0  0  0
  -24.6385  -11.6920   20.8750 C   0  0  0  0  0  0
  -23.9066  -10.4295   21.0411 C   0  0  0  0  0  0
  -24.3618   -9.4209   21.9189 C   0  0  0  0  0  0
  -23.6292   -8.2245   22.0758 C   0  0  0  0  0  0
  -22.4277   -8.0281   21.3545 C   0  0  0  0  0  0
  -21.9910   -9.0256   20.4649 C   0  0  0  0  0  0
  -22.7237  -10.2137   20.3060 C   0  0  0  0  0  0
  -21.6854   -6.0735   22.5278 C   0  0  0  0  0  0
  -21.4015   -6.5643   23.8210 C   0  0  0  0  0  0
  -21.3658   -5.6793   24.9172 C   0  0  0  0  0  0
  -21.6045   -4.3055   24.7224 C   0  0  0  0  0  0
  -21.8818   -3.8146   23.4345 C   0  0  0  0  0  0
  -21.9192   -4.6962   22.3399 C   0  0  0  0  0  0
  -22.7805  -13.5220   21.1871 C   0  0  0  0  0  0
  -22.1660   -4.2147   21.0978 F   0  0  0  0  0  0
  -21.5625   -3.4541   25.7737 F   0  0  0  0  0  0
  -29.9543  -13.6380   20.3958 N   0  0  0  0  0  0
  -26.2886  -12.9417   20.3236 N   0  0  0  0  0  0
  -25.9312  -11.6555   20.5736 N   0  0  0  0  0  0
  -22.0449  -12.8215   22.0429 N   0  0  0  0  0  0
  -25.4151  -15.1933   20.4101 N   0  0  0  0  0  0
  -31.7184  -15.0069   20.1237 O   0  0  0  0  0  0
  -21.6640   -6.8879   21.4241 O   0  0  0  0  0  0
  -22.3494  -14.5523   20.6710 O   0  0  0  0  0  0
  -24.6384  -31.8443   23.1866 C   0  0  0  0  0  0
  -25.9174  -32.4689   23.8252 C   0  0  1  0  0  0
  -27.2257  -27.1576   20.1626 C   0  0  0  0  0  0
  -25.5937  -33.8497   24.2177 N   0  0  0  0  0  0
  -23.4409  -30.4588   21.5311 C   0  0  2  0  0  0
  -24.8899  -28.8750   20.1146 C   0  0  0  0  0  0
  -22.7537  -29.4535   22.4876 C   0  0  0  0  0  0
  -18.0301  -28.1382   22.8479 C   0  0  0  0  0  0
  -24.1490  -36.7255   23.2639 C   0  0  0  0  0  0
  -25.9904  -30.7238   21.3807 C   0  0  0  0  0  0
  -26.0598  -29.3320   20.7328 C   0  0  0  0  0  0
  -27.2236  -28.4865   20.7403 C   0  0  0  0  0  0
  -26.0341  -26.7826   19.5101 C   0  0  0  0  0  0
  -24.8868  -27.6128   19.4917 C   0  0  0  0  0  0
  -23.6654  -29.7767   20.1530 C   0  0  0  0  0  0
  -25.4119  -36.3030   24.0316 C   0  0  1  0  0  0
  -20.5908  -28.3698   23.1253 C   0  0  2  0  0  0
  -20.6782  -26.9405   22.5412 C   0  0  0  0  0  0
  -19.5759  -26.6372   21.5214 C   0  0  0  0  0  0
  -18.1941  -26.7922   22.1624 C   0  0  0  0  0  0
  -19.1556  -28.8860   23.2857 C   0  0  0  0  0  0
  -18.9475  -30.1460   23.8874 C   0  0  0  0  0  0
  -17.6473  -30.6580   24.0557 C   0  0  0  0  0  0
  -25.9074  -34.9407   23.5060 C   0  0  0  0  0  0
  -16.5364  -29.9075   23.6331 C   0  0  0  0  0  0
  -16.7287  -28.6493   23.0351 C   0  0  0  0  0  0
  -26.4516  -31.6554   25.0686 C   0  0  0  0  0  0
  -25.3711  -31.3735   26.1388 C   0  0  0  0  0  0
  -27.0389  -30.2960   24.6247 C   0  0  0  0  0  0
  -27.6040  -32.4323   25.7477 C   0  0  0  0  0  0
  -27.5586  -37.1763   24.8450 C   0  0  0  0  0  0
  -21.4236  -29.3027   22.3626 N   0  0  0  0  0  0
  -26.4276  -37.3751   23.9427 N   0  0  0  0  0  0
  -24.7092  -31.0313   22.0883 N   0  0  0  0  0  0
  -23.4194  -28.8107   23.3034 O   0  0  0  0  0  0
  -28.3637  -26.2916   20.1814 O   0  0  0  0  0  0
  -26.5665  -34.8905   22.4643 O   0  0  0  0  0  0
  -23.5515  -32.1313   23.7108 O   0  0  0  0  0  0
  -27.9257  -23.6548   20.5014 C   0  0  0  0  0  0
  -28.7925  -22.4778   20.2083 C   0  0  0  0  0  0
  -28.5266  -24.8625   20.0779 C   0  0  0  0  0  0
  -29.7533  -20.1549   21.4330 C   0  0  0  0  0  0
  -28.8978  -19.8946   19.1755 C   0  0  0  0  0  0
  -29.6957  -18.5494   21.6399 C   0  0  0  0  0  0
  -28.8466  -18.2921   19.3817 C   0  0  0  0  0  0
  -28.7282  -20.8433   20.4353 C   0  0  2  0  0  0
  -29.8709  -17.6001   20.3788 C   0  0  2  0  0  0
  -30.8187  -25.1476   19.0195 C   0  0  0  0  0  0
  -29.8776  -23.0000   19.6317 N   0  0  0  0  0  0
  -29.7257  -24.3696   19.5677 N   0  0  0  0  0  0
  -29.7007  -16.0455   20.5946 N   0  0  0  0  0  0
  -26.4014  -23.5584   21.3076 Cl  0  0  0  0  0  0
  -31.4756  -12.7147   19.1895 H   0  0  0  0  0  0
  -30.4279  -11.5942   20.0131 H   0  0  0  0  0  0
  -29.8321  -11.7338   17.5706 H   0  0  0  0  0  0
  -29.6181  -13.4615   17.7025 H   0  0  0  0  0  0
  -27.9382  -11.2741   18.9611 H   0  0  0  0  0  0
  -27.3909  -12.4669   17.8122 H   0  0  0  0  0  0
  -27.6070  -14.2488   19.4309 H   0  0  0  0  0  0
  -28.7450  -12.2462   21.4424 H   0  0  0  0  0  0
  -28.3773  -13.9210   21.7776 H   0  0  0  0  0  0
  -25.2760   -9.5684   22.4768 H   0  0  0  0  0  0
  -23.9993   -7.4640   22.7486 H   0  0  0  0  0  0
  -21.0835   -8.8781   19.8964 H   0  0  0  0  0  0
  -22.3692  -10.9679   19.6172 H   0  0  0  0  0  0
  -21.2014   -7.6152   23.9714 H   0  0  0  0  0  0
  -21.1478   -6.0525   25.9073 H   0  0  0  0  0  0
  -22.0599   -2.7607   23.2850 H   0  0  0  0  0  0
  -22.4058  -11.9879   22.4824 H   0  0  0  0  0  0
  -21.1070  -13.1255   22.2637 H   0  0  0  0  0  0
  -24.6433  -15.8428   20.5165 H   0  0  0  0  0  0
  -26.2511  -15.6309   20.0463 H   0  0  0  0  0  0
  -26.7233  -32.5302   23.0976 H   0  0  0  0  0  0
  -25.0052  -33.9612   25.0303 H   0  0  0  0  0  0
  -22.7421  -31.2829   21.3732 H   0  0  0  0  0  0
  -23.3766  -35.9570   23.3255 H   0  0  0  0  0  0
  -24.3590  -36.8934   22.2065 H   0  0  0  0  0  0
  -23.7220  -37.6429   23.6702 H   0  0  0  0  0  0
  -26.1405  -31.4750   20.6040 H   0  0  0  0  0  0
  -26.8634  -30.7787   22.0196 H   0  0  0  0  0  0
  -28.1240  -28.8367   21.2251 H   0  0  0  0  0  0
  -25.9797  -25.8174   19.0268 H   0  0  0  0  0  0
  -23.9917  -27.2591   18.9985 H   0  0  0  0  0  0
  -23.7989  -30.5455   19.3909 H   0  0  0  0  0  0
  -22.7809  -29.2146   19.8475 H   0  0  0  0  0  0
  -25.1297  -36.1852   25.0805 H   0  0  0  0  0  0
  -21.0001  -28.3286   24.1372 H   0  0  0  0  0  0
  -20.5670  -26.2308   23.3626 H   0  0  0  0  0  0
  -21.6650  -26.7408   22.1215 H   0  0  0  0  0  0
  -19.6920  -25.6279   21.1248 H   0  0  0  0  0  0
  -19.6696  -27.3178   20.6741 H   0  0  0  0  0  0
  -17.4209  -26.6671   21.4026 H   0  0  0  0  0  0
  -18.0336  -26.0064   22.9019 H   0  0  0  0  0  0
  -19.7954  -30.7285   24.2225 H   0  0  0  0  0  0
  -17.5026  -31.6256   24.5164 H   0  0  0  0  0  0
  -15.5362  -30.2969   23.7661 H   0  0  0  0  0  0
  -15.8692  -28.0807   22.7071 H   0  0  0  0  0  0
  -24.5916  -30.7045   25.7721 H   0  0  0  0  0  0
  -24.8869  -32.2911   26.4738 H   0  0  0  0  0  0
  -25.8011  -30.8975   27.0209 H   0  0  0  0  0  0
  -26.3003  -29.6674   24.1260 H   0  0  0  0  0  0
  -27.4029  -29.7258   25.4805 H   0  0  0  0  0  0
  -27.8889  -30.4211   23.9538 H   0  0  0  0  0  0
  -27.2619  -33.3624   26.2026 H   0  0  0  0  0  0
  -28.3868  -32.6886   25.0325 H   0  0  0  0  0  0
  -28.0692  -31.8475   26.5423 H   0  0  0  0  0  0
  -28.2535  -38.0129   24.7591 H   0  0  0  0  0  0
  -28.1154  -36.2667   24.6148 H   0  0  0  0  0  0
  -27.2323  -37.1243   25.8852 H   0  0  0  0  0  0
  -20.9440  -29.8727   21.6800 H   0  0  0  0  0  0
  -26.0140  -38.2804   24.1490 H   0  0  0  0  0  0
  -30.7620  -20.4143   21.1092 H   0  0  0  0  0  0
  -29.6373  -20.6272   22.4090 H   0  0  0  0  0  0
  -28.1354  -20.1682   18.4454 H   0  0  0  0  0  0
  -29.8478  -20.1385   18.6989 H   0  0  0  0  0  0
  -28.7414  -18.3135   22.1130 H   0  0  0  0  0  0
  -30.4513  -18.2759   22.3772 H   0  0  0  0  0  0
  -28.9580  -17.8235   18.4034 H   0  0  0  0  0  0
  -27.8361  -18.0375   19.7039 H   0  0  0  0  0  0
  -27.7351  -20.6367   20.8362 H   0  0  0  0  0  0
  -30.8770  -17.7499   19.9839 H   0  0  0  0  0  0
  -30.4260  -25.9977   18.4611 H   0  0  0  0  0  0
  -31.4244  -24.5394   18.3467 H   0  0  0  0  0  0
  -31.4467  -25.5176   19.8301 H   0  0  0  0  0  0
  -28.7568  -15.7836   20.8364 H   0  0  0  0  0  0
  1 25  1  0  0  0
  1 30  2  0  0  0
  1 83  1  0  0  0
  2  3  1  0  0  0
  2 25  1  0  0  0
  2 85  1  0  0  0
  2 86  1  0  0  0
  3  4  1  0  0  0
  3 87  1  0  0  0
  3 88  1  0  0  0
  4  5  1  0  0  0
  4 89  1  0  0  0
  4 90  1  0  0  0
  5  6  1  0  0  0
  5 26  1  0  0  0
  5 91  1  0  0  0
  6 25  1  0  0  0
  6 92  1  0  0  0
  6 93  1  0  0  0
  7  8  2  0  0  0
  7 26  1  0  0  0
  7 29  1  0  0  0
  8  9  1  0  0  0
  8 22  1  0  0  0
  9 10  1  0  0  0
  9 27  2  0  0  0
 10 11  2  0  0  0
 10 15  1  0  0  0
 11 12  1  0  0  0
 11 94  1  0  0  0
 12 13  2  0  0  0
 12 95  1  0  0  0
 13 14  1  0  0  0
 13 31  1  0  0  0
 14 15  2  0  0  0
 14 96  1  0  0  0
 15 97  1  0  0  0
 16 17  2  0  0  0
 16 21  1  0  0  0
 16 31  1  0  0  0
 17 18  1  0  0  0
 17 98  1  0  0  0
 18 19  2  0  0  0
 18 99  1  0  0  0
 19 20  1  0  0  0
 19 24  1  0  0  0
 20 21  2  0  0  0
 20100  1  0  0  0
 21 23  1  0  0  0
 22 28  1  0  0  0
 22 32  2  0  0  0
 26 27  1  0  0  0
 28101  1  0  0  0
 28102  1  0  0  0
 29103  1  0  0  0
 29104  1  0  0  0
 33 34  1  0  0  0
 33 66  1  0  0  0
 33 70  2  0  0  0
 34 36  1  0  0  0
 34 59  1  0  0  0
 34105  1  0  0  0
 35 44  2  0  0  0
 35 45  1  0  0  0
 35 68  1  0  0  0
 36 56  1  0  0  0
 36106  1  0  0  0
 37 39  1  0  0  0
 37 47  1  0  0  0
 37 66  1  0  0  0
 37107  1  0  0  0
 38 43  2  0  0  0
 38 46  1  0  0  0
 38 47  1  0  0  0
 39 64  1  0  0  0
 39 67  2  0  0  0
 40 52  1  0  0  0
 40 53  2  0  0  0
 40 58  1  0  0  0
 41108  1  0  0  0
 41109  1  0  0  0
 41110  1  0  0  0
 41 48  1  0  0  0
 42 43  1  0  0  0
 42 66  1  0  0  0
 42111  1  0  0  0
 42112  1  0  0  0
 43 44  1  0  0  0
 44113  1  0  0  0
 45 46  2  0  0  0
 45114  1  0  0  0
 46115  1  0  0  0
 47116  1  0  0  0
 47117  1  0  0  0
 48 56  1  0  0  0
 48 65  1  0  0  0
 48118  1  0  0  0
 49 50  1  0  0  0
 49 53  1  0  0  0
 49 64  1  0  0  0
 49119  1  0  0  0
 50 51  1  0  0  0
 50120  1  0  0  0
 50121  1  0  0  0
 51 52  1  0  0  0
 51122  1  0  0  0
 51123  1  0  0  0
 52124  1  0  0  0
 52125  1  0  0  0
 53 54  1  0  0  0
 54 55  2  0  0  0
 54126  1  0  0  0
 55 57  1  0  0  0
 55127  1  0  0  0
 56 69  2  0  0  0
 57 58  2  0  0  0
 57128  1  0  0  0
 58129  1  0  0  0
 59 60  1  0  0  0
 59 61  1  0  0  0
 59 62  1  0  0  0
 60130  1  0  0  0
 60131  1  0  0  0
 60132  1  0  0  0
 61133  1  0  0  0
 61134  1  0  0  0
 61135  1  0  0  0
 62136  1  0  0  0
 62137  1  0  0  0
 62138  1  0  0  0
 63 65  1  0  0  0
 63139  1  0  0  0
 63140  1  0  0  0
 63141  1  0  0  0
 64142  1  0  0  0
 65143  1  0  0  0
 68 73  1  0  0  0
 71 72  1  0  0  0
 71 73  2  0  0  0
 71 84  1  0  0  0
 72 81  2  0  0  0
 72 78  1  0  0  0
 73 82  1  0  0  0
 74 76  1  0  0  0
 74 78  1  0  0  0
 74144  1  0  0  0
 74145  1  0  0  0
 75 77  1  0  0  0
 75 78  1  0  0  0
 75146  1  0  0  0
 75147  1  0  0  0
 76 79  1  0  0  0
 76148  1  0  0  0
 76149  1  0  0  0
 77 79  1  0  0  0
 77150  1  0  0  0
 77151  1  0  0  0
 78152  1  0  0  0
 79 83  1  0  0  0
 79153  1  0  0  0
 80 82  1  0  0  0
 80154  1  0  0  0
 80155  1  0  0  0
 80156  1  0  0  0
 81 82  1  0  0  0
 83157  1  0  0  0
M  ISO  4   1 100  68 101  73 101  83 100
M  END
> <chiral flag>
0

> <version>
0

> <s_m_source_file>
/data/baiqing/PycharmProjects/Reinvent-master-3.2/result/LINK_invent/BTK/process_docking_weight1_custom_sum_contain_oxygen_bond_distance_aromatic_linkinvent_7_9_3/rearranged_h_0028.sdf

> <i_m_source_file_index>
10

> <r_mmod_Potential_Energy-OPLS-2005>
379.270751953125

> <r_mmod_Stretch_Energy-OPLS-2005>
190.150192260742

> <r_mmod_Bend_Energy-OPLS-2005>
263.413299560547

> <r_mmod_Torsional_Energy-OPLS-2005>
210.664276123047

> <r_mmod_Improper_Torsional_Energy-OPLS-2005>
5.4404444694519

> <r_mmod_Van_der_Waal_Energy-OPLS-2005>
100.648155212402

> <r_mmod_Electrostatic_Energy-OPLS-2005>
-338.998596191406

> <r_mmod_Solvation_Energy-OPLS-2005>
-209.089477539062

> <b_mmod_Minimization_Converged-OPLS-2005>
0

> <r_mmod_RMS_Derivative-OPLS-2005>
0.60019052028656

$$$$
10
                    3D
 Structure written by MMmdl.
159168  0  0  1  0            999 V2000
  -30.5686  -14.7664   20.4558 C   0  0  0  0  0  0
  -30.4434  -12.4634   19.4904 C   0  0  0  0  0  0
  -29.5221  -12.5163   18.2477 C   0  0  0  0  0  0
  -28.0440  -12.3409   18.6544 C   0  0  0  0  0  0
  -27.6465  -13.2290   19.8635 C   0  0  2  0  0  0
  -28.6874  -13.1454   21.0018 C   0  0  0  0  0  0
  -25.2517  -13.8187   20.5719 C   0  0  0  0  0  0
  -24.1796  -13.0435   20.9227 C   0  0  0  0  0  0
  -24.6388  -11.6916   20.8766 C   0  0  0  0  0  0
  -23.9075  -10.4289   21.0426 C   0  0  0  0  0  0
  -24.3629   -9.4191   21.9195 C   0  0  0  0  0  0
  -23.6297   -8.2234   22.0760 C   0  0  0  0  0  0
  -22.4270   -8.0283   21.3559 C   0  0  0  0  0  0
  -21.9908   -9.0267   20.4659 C   0  0  0  0  0  0
  -22.7246  -10.2138   20.3073 C   0  0  0  0  0  0
  -21.6836   -6.0736   22.5285 C   0  0  0  0  0  0
  -21.4011   -6.5647   23.8220 C   0  0  0  0  0  0
  -21.3658   -5.6794   24.9183 C   0  0  0  0  0  0
  -21.6042   -4.3059   24.7227 C   0  0  0  0  0  0
  -21.8810   -3.8150   23.4346 C   0  0  0  0  0  0
  -21.9190   -4.6969   22.3401 C   0  0  0  0  0  0
  -22.7816  -13.5228   21.1879 C   0  0  0  0  0  0
  -22.1653   -4.2166   21.0972 F   0  0  0  0  0  0
  -21.5635   -3.4531   25.7735 F   0  0  0  0  0  0
  -29.9911  -13.5143   20.4318 N   0  0  0  0  0  0
  -26.2944  -12.9397   20.3333 N   0  0  0  0  0  0
  -25.9318  -11.6538   20.5769 N   0  0  0  0  0  0
  -22.0442  -12.8252   22.0443 N   0  0  0  0  0  0
  -25.4182  -15.1911   20.4118 N   0  0  0  0  0  0
  -31.7329  -14.9107   20.0727 O   0  0  0  0  0  0
  -21.6633   -6.8882   21.4245 O   0  0  0  0  0  0
  -22.3523  -14.5549   20.6725 O   0  0  0  0  0  0
  -24.6324  -31.8552   23.1975 C   0  0  0  0  0  0
  -25.9158  -32.4752   23.8325 C   0  0  1  0  0  0
  -27.2163  -27.2579   20.1350 C   0  0  0  0  0  0
  -25.5945  -33.8553   24.2252 N   0  0  0  0  0  0
  -23.4264  -30.4774   21.5423 C   0  0  2  0  0  0
  -24.8734  -28.9174   20.1146 C   0  0  0  0  0  0
  -22.7504  -29.4602   22.4923 C   0  0  0  0  0  0
  -18.0294  -28.1369   22.8486 C   0  0  0  0  0  0
  -24.1488  -36.7268   23.2641 C   0  0  0  0  0  0
  -25.9741  -30.7644   21.3799 C   0  0  0  0  0  0
  -26.0459  -29.3877   20.7199 C   0  0  0  0  0  0
  -27.2234  -28.5731   20.7111 C   0  0  0  0  0  0
  -26.0221  -26.8487   19.5063 C   0  0  0  0  0  0
  -24.8663  -27.6551   19.4984 C   0  0  0  0  0  0
  -23.6451  -29.8070   20.1594 C   0  0  0  0  0  0
  -25.4114  -36.3062   24.0325 C   0  0  1  0  0  0
  -20.5897  -28.3685   23.1272 C   0  0  2  0  0  0
  -20.6767  -26.9403   22.5404 C   0  0  0  0  0  0
  -19.5745  -26.6363   21.5208 C   0  0  0  0  0  0
  -18.1927  -26.7907   22.1623 C   0  0  0  0  0  0
  -19.1546  -28.8846   23.2865 C   0  0  0  0  0  0
  -18.9466  -30.1446   23.8881 C   0  0  0  0  0  0
  -17.6461  -30.6571   24.0558 C   0  0  0  0  0  0
  -25.9062  -34.9439   23.5095 C   0  0  0  0  0  0
  -16.5354  -29.9068   23.6327 C   0  0  0  0  0  0
  -16.7278  -28.6483   23.0358 C   0  0  0  0  0  0
  -26.4510  -31.6582   25.0723 C   0  0  0  0  0  0
  -25.3712  -31.3785   26.1432 C   0  0  0  0  0  0
  -27.0363  -30.2975   24.6261 C   0  0  0  0  0  0
  -27.6040  -32.4346   25.7498 C   0  0  0  0  0  0
  -27.5579  -37.1790   24.8469 C   0  0  0  0  0  0
  -21.4214  -29.3036   22.3664 N   0  0  0  0  0  0
  -26.4293  -37.3762   23.9412 N   0  0  0  0  0  0
  -24.6965  -31.0513   22.0952 N   0  0  0  0  0  0
  -23.4200  -28.8160   23.3037 O   0  0  0  0  0  0
  -28.3174  -26.3743   20.1364 O   0  0  0  0  0  0
  -26.5641  -34.8924   22.4667 O   0  0  0  0  0  0
  -23.5478  -32.1396   23.7259 O   0  0  0  0  0  0
  -29.0144  -20.8851   19.9400 C   0  0  0  0  0  0
  -29.5947  -20.0124   20.8929 C   0  0  0  0  0  0
  -29.0909  -22.2683   20.4525 C   0  0  0  0  0  0
  -30.5624  -18.2545   22.3251 C   0  0  0  0  0  0
  -30.8905  -19.2298   23.2902 C   0  0  0  0  0  0
  -29.9326  -18.5669   21.1349 C   0  0  0  0  0  0
  -30.5934  -20.5500   23.0769 C   0  0  0  0  0  0
  -28.4372  -20.4978   18.6113 C   0  0  0  0  0  0
  -30.9518  -21.6202   24.0944 C   0  0  0  0  0  0
  -28.8141  -23.6896   19.7760 C   0  0  0  0  0  0
  -29.7372  -17.3087   20.1795 C   0  0  0  0  0  0
  -28.1352  -24.9371   20.5691 C   0  0  0  0  0  0
  -29.6662  -22.2553   21.6305 N   0  0  0  0  0  0
  -29.9707  -20.9281   21.9225 N   0  0  0  0  0  0
  -29.7386  -15.8551   20.7008 N   0  0  0  0  0  0
  -31.4853  -12.5994   19.1953 H   0  0  0  0  0  0
  -30.3967  -11.4839   19.9665 H   0  0  0  0  0  0
  -29.8087  -11.7418   17.5351 H   0  0  0  0  0  0
  -29.6534  -13.4681   17.7292 H   0  0  0  0  0  0
  -27.8965  -11.2890   18.9040 H   0  0  0  0  0  0
  -27.3898  -12.5438   17.8051 H   0  0  0  0  0  0
  -27.6465  -14.2545   19.4947 H   0  0  0  0  0  0
  -28.7256  -12.1380   21.4193 H   0  0  0  0  0  0
  -28.4158  -13.8017   21.8295 H   0  0  0  0  0  0
  -25.2771   -9.5668   22.4777 H   0  0  0  0  0  0
  -24.0002   -7.4615   22.7468 H   0  0  0  0  0  0
  -21.0837   -8.8792   19.8970 H   0  0  0  0  0  0
  -22.3699  -10.9693   19.6197 H   0  0  0  0  0  0
  -21.2001   -7.6149   23.9742 H   0  0  0  0  0  0
  -21.1491   -6.0513   25.9092 H   0  0  0  0  0  0
  -22.0590   -2.7616   23.2833 H   0  0  0  0  0  0
  -22.4019  -11.9914   22.4866 H   0  0  0  0  0  0
  -21.1066  -13.1322   22.2645 H   0  0  0  0  0  0
  -24.6436  -15.8371   20.5222 H   0  0  0  0  0  0
  -26.2560  -15.6372   20.0627 H   0  0  0  0  0  0
  -26.7210  -32.5385   23.1051 H   0  0  0  0  0  0
  -25.0070  -33.9698   25.0379 H   0  0  0  0  0  0
  -22.7215  -31.2984   21.3968 H   0  0  0  0  0  0
  -23.3760  -35.9592   23.3296 H   0  0  0  0  0  0
  -24.3574  -36.8904   22.2060 H   0  0  0  0  0  0
  -23.7237  -37.6463   23.6668 H   0  0  0  0  0  0
  -26.1246  -31.5278   20.6157 H   0  0  0  0  0  0
  -26.8453  -30.8069   22.0214 H   0  0  0  0  0  0
  -28.1262  -28.9329   21.1840 H   0  0  0  0  0  0
  -25.9740  -25.8818   19.0254 H   0  0  0  0  0  0
  -23.9672  -27.2896   19.0200 H   0  0  0  0  0  0
  -23.7711  -30.5833   19.4041 H   0  0  0  0  0  0
  -22.7620  -29.2454   19.8525 H   0  0  0  0  0  0
  -25.1297  -36.1900   25.0817 H   0  0  0  0  0  0
  -20.9993  -28.3251   24.1395 H   0  0  0  0  0  0
  -20.5643  -26.2308   23.3610 H   0  0  0  0  0  0
  -21.6635  -26.7398   22.1218 H   0  0  0  0  0  0
  -19.6898  -25.6272   21.1245 H   0  0  0  0  0  0
  -19.6664  -27.3164   20.6730 H   0  0  0  0  0  0
  -17.4193  -26.6668   21.4024 H   0  0  0  0  0  0
  -18.0321  -26.0029   22.9006 H   0  0  0  0  0  0
  -19.7943  -30.7268   24.2233 H   0  0  0  0  0  0
  -17.5021  -31.6255   24.5161 H   0  0  0  0  0  0
  -15.5357  -30.2974   23.7645 H   0  0  0  0  0  0
  -15.8680  -28.0797   22.7088 H   0  0  0  0  0  0
  -24.5852  -30.7188   25.7753 H   0  0  0  0  0  0
  -24.8959  -32.2997   26.4820 H   0  0  0  0  0  0
  -25.7992  -30.8962   27.0229 H   0  0  0  0  0  0
  -26.2982  -29.6714   24.1247 H   0  0  0  0  0  0
  -27.3971  -29.7251   25.4820 H   0  0  0  0  0  0
  -27.8881  -30.4211   23.9567 H   0  0  0  0  0  0
  -27.2613  -33.3641   26.2051 H   0  0  0  0  0  0
  -28.3848  -32.6937   25.0338 H   0  0  0  0  0  0
  -28.0711  -31.8513   26.5442 H   0  0  0  0  0  0
  -28.2596  -38.0090   24.7509 H   0  0  0  0  0  0
  -28.1075  -36.2622   24.6282 H   0  0  0  0  0  0
  -27.2305  -37.1421   25.8877 H   0  0  0  0  0  0
  -20.9405  -29.8778   21.6880 H   0  0  0  0  0  0
  -26.0164  -38.2836   24.1402 H   0  0  0  0  0  0
  -30.8454  -17.2265   22.5343 H   0  0  0  0  0  0
  -31.4004  -18.9299   24.2039 H   0  0  0  0  0  0
  -28.8923  -19.5868   18.2221 H   0  0  0  0  0  0
  -28.5916  -21.2758   17.8631 H   0  0  0  0  0  0
  -27.3636  -20.3178   18.6904 H   0  0  0  0  0  0
  -31.5668  -22.3932   23.6331 H   0  0  0  0  0  0
  -31.5094  -21.2036   24.9327 H   0  0  0  0  0  0
  -30.0473  -22.0909   24.4829 H   0  0  0  0  0  0
  -28.2181  -23.5406   18.8764 H   0  0  0  0  0  0
  -29.7706  -24.0534   19.3988 H   0  0  0  0  0  0
  -30.4719  -17.3844   19.3771 H   0  0  0  0  0  0
  -28.7705  -17.4503   19.6958 H   0  0  0  0  0  0
  -28.5434  -24.9187   21.5798 H   0  0  0  0  0  0
  -27.0774  -24.7138   20.7066 H   0  0  0  0  0  0
  -28.8441  -15.5692   21.0733 H   0  0  0  0  0  0
  1 25  1  0  0  0
  1 30  2  0  0  0
  1 85  1  0  0  0
  2  3  1  0  0  0
  2 25  1  0  0  0
  2 86  1  0  0  0
  2 87  1  0  0  0
  3  4  1  0  0  0
  3 88  1  0  0  0
  3 89  1  0  0  0
  4  5  1  0  0  0
  4 90  1  0  0  0
  4 91  1  0  0  0
  5  6  1  0  0  0
  5 26  1  0  0  0
  5 92  1  0  0  0
  6 25  1  0  0  0
  6 93  1  0  0  0
  6 94  1  0  0  0
  7  8  2  0  0  0
  7 26  1  0  0  0
  7 29  1  0  0  0
  8  9  1  0  0  0
  8 22  1  0  0  0
  9 10  1  0  0  0
  9 27  2  0  0  0
 10 11  2  0  0  0
 10 15  1  0  0  0
 11 12  1  0  0  0
 11 95  1  0  0  0
 12 13  2  0  0  0
 12 96  1  0  0  0
 13 14  1  0  0  0
 13 31  1  0  0  0
 14 15  2  0  0  0
 14 97  1  0  0  0
 15 98  1  0  0  0
 16 17  2  0  0  0
 16 21  1  0  0  0
 16 31  1  0  0  0
 17 18  1  0  0  0
 17 99  1  0  0  0
 18 19  2  0  0  0
 18100  1  0  0  0
 19 20  1  0  0  0
 19 24  1  0  0  0
 20 21  2  0  0  0
 20101  1  0  0  0
 21 23  1  0  0  0
 22 28  1  0  0  0
 22 32  2  0  0  0
 26 27  1  0  0  0
 28102  1  0  0  0
 28103  1  0  0  0
 29104  1  0  0  0
 29105  1  0  0  0
 33 34  1  0  0  0
 33 66  1  0  0  0
 33 70  2  0  0  0
 34 36  1  0  0  0
 34 59  1  0  0  0
 34106  1  0  0  0
 35 44  2  0  0  0
 35 45  1  0  0  0
 35 68  1  0  0  0
 36 56  1  0  0  0
 36107  1  0  0  0
 37 39  1  0  0  0
 37 47  1  0  0  0
 37 66  1  0  0  0
 37108  1  0  0  0
 38 43  2  0  0  0
 38 46  1  0  0  0
 38 47  1  0  0  0
 39 64  1  0  0  0
 39 67  2  0  0  0
 40 52  1  0  0  0
 40 53  2  0  0  0
 40 58  1  0  0  0
 41109  1  0  0  0
 41110  1  0  0  0
 41111  1  0  0  0
 41 48  1  0  0  0
 42 43  1  0  0  0
 42 66  1  0  0  0
 42112  1  0  0  0
 42113  1  0  0  0
 43 44  1  0  0  0
 44114  1  0  0  0
 45 46  2  0  0  0
 45115  1  0  0  0
 46116  1  0  0  0
 47117  1  0  0  0
 47118  1  0  0  0
 48 56  1  0  0  0
 48 65  1  0  0  0
 48119  1  0  0  0
 49 50  1  0  0  0
 49 53  1  0  0  0
 49 64  1  0  0  0
 49120  1  0  0  0
 50 51  1  0  0  0
 50121  1  0  0  0
 50122  1  0  0  0
 51 52  1  0  0  0
 51123  1  0  0  0
 51124  1  0  0  0
 52125  1  0  0  0
 52126  1  0  0  0
 53 54  1  0  0  0
 54 55  2  0  0  0
 54127  1  0  0  0
 55 57  1  0  0  0
 55128  1  0  0  0
 56 69  2  0  0  0
 57 58  2  0  0  0
 57129  1  0  0  0
 58130  1  0  0  0
 59 60  1  0  0  0
 59 61  1  0  0  0
 59 62  1  0  0  0
 60131  1  0  0  0
 60132  1  0  0  0
 60133  1  0  0  0
 61134  1  0  0  0
 61135  1  0  0  0
 61136  1  0  0  0
 62137  1  0  0  0
 62138  1  0  0  0
 62139  1  0  0  0
 63 65  1  0  0  0
 63140  1  0  0  0
 63141  1  0  0  0
 63142  1  0  0  0
 64143  1  0  0  0
 65144  1  0  0  0
 68 82  1  0  0  0
 71 72  2  0  0  0
 71 73  1  0  0  0
 71 78  1  0  0  0
 72 76  1  0  0  0
 72 84  1  0  0  0
 73 80  1  0  0  0
 73 83  2  0  0  0
 74 75  1  0  0  0
 74 76  2  0  0  0
 74145  1  0  0  0
 75 77  2  0  0  0
 75146  1  0  0  0
 76 81  1  0  0  0
 77 79  1  0  0  0
 77 84  1  0  0  0
 78147  1  0  0  0
 78148  1  0  0  0
 78149  1  0  0  0
 79150  1  0  0  0
 79151  1  0  0  0
 79152  1  0  0  0
 80 82  1  0  0  0
 80153  1  0  0  0
 80154  1  0  0  0
 81 85  1  0  0  0
 81155  1  0  0  0
 81156  1  0  0  0
 82157  1  0  0  0
 82158  1  0  0  0
 83 84  1  0  0  0
 85159  1  0  0  0
M  ISO  4   1 100  68 101  82 101  85 100
M  END
> <chiral flag>
0

> <version>
0

> <s_m_source_file>
/data/baiqing/PycharmProjects/Reinvent-master-3.2/result/LINK_invent/BTK/process_docking_weight1_custom_sum_contain_oxygen_bond_distance_aromatic_linkinvent_7_9_3/rearranged_h_0028.sdf

> <i_m_source_file_index>
11

> <r_mmod_Potential_Energy-OPLS-2005>
238.408432006836

> <r_mmod_Stretch_Energy-OPLS-2005>
137.468185424805

> <r_mmod_Bend_Energy-OPLS-2005>
185.349517822266

> <r_mmod_Torsional_Energy-OPLS-2005>
220.123870849609

> <r_mmod_Improper_Torsional_Energy-OPLS-2005>
7.05261707305908

> <r_mmod_Van_der_Waal_Energy-OPLS-2005>
131.442077636719

> <r_mmod_Electrostatic_Energy-OPLS-2005>
-313.3603515625

> <r_mmod_Solvation_Energy-OPLS-2005>
-219.075317382812

> <b_mmod_Minimization_Converged-OPLS-2005>
0

> <r_mmod_RMS_Derivative-OPLS-2005>
2.64056205749512

$$$$
11
                    3D
 Structure written by MMmdl.
163171  0  0  1  0            999 V2000
  -29.5627  -14.0310   21.3366 C   0  0  0  0  0  0
  -30.5252  -12.5076   19.4689 C   0  0  0  0  0  0
  -29.7233  -12.6657   18.1320 C   0  0  0  0  0  0
  -28.2204  -12.3348   18.2073 C   0  0  0  0  0  0
  -27.7886  -12.8359   19.5265 C   0  0  2  0  0  0
  -28.5669  -12.0796   20.6197 C   0  0  0  0  0  0
  -25.7316  -13.9678   19.9058 C   0  0  0  0  0  0
  -24.7709  -13.5595   20.6153 C   0  0  0  0  0  0
  -24.6225  -12.0075   20.3934 C   0  0  0  0  0  0
  -23.8730  -10.6690   20.8221 C   0  0  0  0  0  0
  -24.3935   -9.5823   21.6427 C   0  0  0  0  0  0
  -23.6820   -8.3764   21.9278 C   0  0  0  0  0  0
  -22.4339   -8.1304   21.3179 C   0  0  0  0  0  0
  -21.9289   -9.1435   20.4748 C   0  0  0  0  0  0
  -22.6159  -10.3679   20.2511 C   0  0  0  0  0  0
  -21.7356   -6.1168   22.5129 C   0  0  0  0  0  0
  -21.4422   -6.5948   23.8067 C   0  0  0  0  0  0
  -21.3817   -5.7026   24.8967 C   0  0  0  0  0  0
  -21.6056   -4.3268   24.7049 C   0  0  0  0  0  0
  -21.8844   -3.8434   23.4157 C   0  0  0  0  0  0
  -21.9345   -4.7289   22.3232 C   0  0  0  0  0  0
  -24.4425  -14.8251   21.7099 C   0  0  0  0  0  0
  -22.1713   -4.2337   21.0822 F   0  0  0  0  0  0
  -21.5562   -3.4737   25.7556 F   0  0  0  0  0  0
  -29.7327  -12.8582   20.6856 N   0  0  0  0  0  0
  -26.4369  -12.8320   19.7613 N   0  0  0  0  0  0
  -25.8199  -11.6645   19.9966 N   0  0  0  0  0  0
  -22.9061  -15.2111   22.5744 N   0  0  0  0  0  0
  -26.1408  -15.2756   19.6743 N   0  0  0  0  0  0
  -30.4896  -14.8684   21.0240 O   0  0  0  0  0  0
  -21.7113   -6.9483   21.4121 O   0  0  0  0  0  0
  -23.2044  -15.2625   22.4715 O   0  0  0  0  0  0
  -24.6897  -31.8010   23.1640 C   0  0  0  0  0  0
  -25.9532  -32.4402   23.8059 C   0  0  1  0  0  0
  -26.5637  -26.4722   20.2571 C   0  0  0  0  0  0
  -25.6147  -33.8266   24.1911 N   0  0  0  0  0  0
  -23.4792  -30.4563   21.5276 C   0  0  2  0  0  0
  -24.8308  -28.8310   20.0508 C   0  0  0  0  0  0
  -22.7694  -29.4402   22.4607 C   0  0  0  0  0  0
  -18.0317  -28.1413   22.8444 C   0  0  0  0  0  0
  -24.1491  -36.7120   23.2631 C   0  0  0  0  0  0
  -26.0624  -30.4351   21.4678 C   0  0  0  0  0  0
  -26.0047  -29.0106   20.7842 C   0  0  0  0  0  0
  -26.9103  -27.8260   20.8701 C   0  0  0  0  0  0
  -25.5486  -26.6040   19.3301 C   0  0  0  0  0  0
  -24.6667  -27.6851   19.2800 C   0  0  0  0  0  0
  -23.7028  -29.8471   20.1219 C   0  0  0  0  0  0
  -25.4155  -36.2869   24.0238 C   0  0  1  0  0  0
  -20.5956  -28.3771   23.1118 C   0  0  2  0  0  0
  -20.6802  -26.9429   22.5376 C   0  0  0  0  0  0
  -19.5762  -26.6356   21.5209 C   0  0  0  0  0  0
  -18.1942  -26.7940   22.1614 C   0  0  0  0  0  0
  -19.1585  -28.8909   23.2774 C   0  0  0  0  0  0
  -18.9501  -30.1502   23.8809 C   0  0  0  0  0  0
  -17.6493  -30.6611   24.0542 C   0  0  0  0  0  0
  -25.9183  -34.9270   23.4883 C   0  0  0  0  0  0
  -16.5384  -29.9076   23.6355 C   0  0  0  0  0  0
  -16.7294  -28.6498   23.0364 C   0  0  0  0  0  0
  -26.4650  -31.6549   25.0761 C   0  0  0  0  0  0
  -25.3644  -31.3995   26.1328 C   0  0  0  0  0  0
  -27.0612  -30.2853   24.6890 C   0  0  0  0  0  0
  -27.6059  -32.4448   25.7588 C   0  0  0  0  0  0
  -27.5575  -37.1703   24.8436 C   0  0  0  0  0  0
  -21.4359  -29.3064   22.3426 N   0  0  0  0  0  0
  -26.4245  -37.3664   23.9425 N   0  0  0  0  0  0
  -24.7751  -30.9392   22.0976 N   0  0  0  0  0  0
  -23.4216  -28.7910   23.2831 O   0  0  0  0  0  0
  -26.9035  -24.9662   20.3845 O   0  0  0  0  0  0
  -26.5800  -34.8861   22.4487 O   0  0  0  0  0  0
  -23.5956  -32.1252   23.6611 O   0  0  0  0  0  0
  -22.5011  -14.4841   20.5525 C   0  0  0  0  0  0
  -23.3014  -13.0069   22.4809 C   0  0  0  0  0  0
  -24.2981  -13.9983   23.9843 C   0  0  0  0  0  0
  -24.8514  -15.9186   23.8346 C   0  0  0  0  0  0
  -23.3666  -16.7257   20.8097 C   0  0  0  0  0  0
  -25.9409  -16.4033   24.7604 C   0  0  0  0  0  0
  -23.6370  -18.0439   18.7399 C   0  0  0  0  0  0
  -25.1371  -12.5219   22.9018 C   0  0  0  0  0  0
  -25.3756  -21.5284   20.1343 C   0  0  0  0  0  0
  -26.8802  -13.4071   22.9382 C   0  0  0  0  0  0
  -24.3195  -19.8690   20.6992 C   0  0  0  0  0  0
  -25.8195  -23.4818   20.5841 C   0  0  0  0  0  0
  -24.3990  -17.1214   22.4016 N   0  0  0  0  0  0
  -28.1840  -14.1588   22.0100 N   0  0  0  0  0  0
  -23.7456  -18.2185   20.1755 N   0  0  0  0  0  0
  -24.5945  -13.4036   25.1696 F   0  0  0  0  0  0
  -31.4026  -13.1510   19.3863 H   0  0  0  0  0  0
  -30.8729  -11.4842   19.5625 H   0  0  0  0  0  0
  -30.1936  -12.1259   17.3215 H   0  0  0  0  0  0
  -29.8548  -13.7120   17.8180 H   0  0  0  0  0  0
  -28.0268  -11.2659   18.1096 H   0  0  0  0  0  0
  -27.7300  -12.8837   17.3976 H   0  0  0  0  0  0
  -28.0430  -13.8885   19.4109 H   0  0  0  0  0  0
  -28.8521  -11.0741   20.3107 H   0  0  0  0  0  0
  -28.0534  -11.7699   21.5250 H   0  0  0  0  0  0
  -25.4005   -9.6157   22.0266 H   0  0  0  0  0  0
  -24.1327   -7.6266   22.5614 H   0  0  0  0  0  0
  -20.9790   -8.9958   19.9799 H   0  0  0  0  0  0
  -22.1680  -11.0956   19.5845 H   0  0  0  0  0  0
  -21.2558   -7.6470   23.9618 H   0  0  0  0  0  0
  -21.1603   -6.0716   25.8851 H   0  0  0  0  0  0
  -22.0470   -2.7872   23.2581 H   0  0  0  0  0  0
  -22.1371  -14.8815   22.0264 H   0  0  0  0  0  0
  -22.9569  -16.1444   22.9309 H   0  0  0  0  0  0
  -25.6786  -16.1486   19.8698 H   0  0  0  0  0  0
  -26.9967  -15.4345   19.1509 H   0  0  0  0  0  0
  -26.7563  -32.4693   23.0690 H   0  0  0  0  0  0
  -25.0193  -33.9326   25.0001 H   0  0  0  0  0  0
  -22.8076  -31.3054   21.3937 H   0  0  0  0  0  0
  -23.3811  -35.9385   23.3168 H   0  0  0  0  0  0
  -24.3551  -36.8940   22.2074 H   0  0  0  0  0  0
  -23.7184  -37.6213   23.6820 H   0  0  0  0  0  0
  -26.3644  -31.1578   20.7077 H   0  0  0  0  0  0
  -26.8950  -30.4159   22.1546 H   0  0  0  0  0  0
  -27.7627  -27.8937   21.5322 H   0  0  0  0  0  0
  -25.2795  -25.7316   18.7501 H   0  0  0  0  0  0
  -23.7875  -27.5848   18.6583 H   0  0  0  0  0  0
  -23.9369  -30.6411   19.4151 H   0  0  0  0  0  0
  -22.7793  -29.3955   19.7557 H   0  0  0  0  0  0
  -25.1365  -36.1567   25.0714 H   0  0  0  0  0  0
  -21.0043  -28.3400   24.1246 H   0  0  0  0  0  0
  -20.5690  -26.2376   23.3635 H   0  0  0  0  0  0
  -21.6647  -26.7395   22.1170 H   0  0  0  0  0  0
  -19.6910  -25.6237   21.1296 H   0  0  0  0  0  0
  -19.6708  -27.3113   20.6694 H   0  0  0  0  0  0
  -17.4211  -26.6667   21.4028 H   0  0  0  0  0  0
  -18.0339  -26.0113   22.9033 H   0  0  0  0  0  0
  -19.7978  -30.7340   24.2134 H   0  0  0  0  0  0
  -17.5048  -31.6274   24.5157 H   0  0  0  0  0  0
  -15.5378  -30.2954   23.7758 H   0  0  0  0  0  0
  -15.8693  -28.0811   22.7131 H   0  0  0  0  0  0
  -24.5769  -30.7439   25.7602 H   0  0  0  0  0  0
  -24.8923  -32.3301   26.4513 H   0  0  0  0  0  0
  -25.7708  -30.9252   27.0277 H   0  0  0  0  0  0
  -26.3326  -29.6325   24.2073 H   0  0  0  0  0  0
  -27.4114  -29.7478   25.5728 H   0  0  0  0  0  0
  -27.9327  -30.3930   24.0411 H   0  0  0  0  0  0
  -27.2567  -33.3817   26.1968 H   0  0  0  0  0  0
  -28.3994  -32.6934   25.0512 H   0  0  0  0  0  0
  -28.0620  -31.8731   26.5703 H   0  0  0  0  0  0
  -28.2456  -38.0134   24.7644 H   0  0  0  0  0  0
  -28.1211  -36.2670   24.6057 H   0  0  0  0  0  0
  -27.2313  -37.1072   25.8832 H   0  0  0  0  0  0
  -20.9593  -29.8790   21.6631 H   0  0  0  0  0  0
  -26.0043  -38.2666   24.1534 H   0  0  0  0  0  0
  -21.8166  -14.1964   19.7565 H   0  0  0  0  0  0
  -26.3543  -15.5888   25.3635 H   0  0  0  0  0  0
  -25.5735  -17.1844   25.4188 H   0  0  0  0  0  0
  -26.7594  -16.7975   24.1517 H   0  0  0  0  0  0
  -23.6983  -16.9862   18.4685 H   0  0  0  0  0  0
  -24.4592  -18.5500   18.2351 H   0  0  0  0  0  0
  -22.6842  -18.4305   18.3804 H   0  0  0  0  0  0
  -25.4850  -11.6220   22.4507 H   0  0  0  0  0  0
  -25.0423  -11.8570   23.7641 H   0  0  0  0  0  0
  -25.0718  -21.6275   19.0927 H   0  0  0  0  0  0
  -26.3800  -21.1138   20.0712 H   0  0  0  0  0  0
  -27.4442  -12.6298   23.4391 H   0  0  0  0  0  0
  -26.8548  -14.1296   23.7604 H   0  0  0  0  0  0
  -23.3813  -20.3079   21.0406 H   0  0  0  0  0  0
  -24.8066  -19.6169   21.6419 H   0  0  0  0  0  0
  -25.9450  -23.3947   21.6622 H   0  0  0  0  0  0
  -24.8418  -23.9605   20.5066 H   0  0  0  0  0  0
  -28.0502  -15.1579   22.0376 H   0  0  0  0  0  0
  1 25  1  0  0  0
  1 30  2  0  0  0
  1 84  1  0  0  0
  2  3  1  0  0  0
  2 25  1  0  0  0
  2 87  1  0  0  0
  2 88  1  0  0  0
  3  4  1  0  0  0
  3 89  1  0  0  0
  3 90  1  0  0  0
  4  5  1  0  0  0
  4 91  1  0  0  0
  4 92  1  0  0  0
  5  6  1  0  0  0
  5 26  1  0  0  0
  5 93  1  0  0  0
  6 25  1  0  0  0
  6 94  1  0  0  0
  6 95  1  0  0  0
  7  8  2  0  0  0
  7 26  1  0  0  0
  7 29  1  0  0  0
  8  9  1  0  0  0
  8 22  1  0  0  0
  9 10  1  0  0  0
  9 27  2  0  0  0
 10 11  2  0  0  0
 10 15  1  0  0  0
 11 12  1  0  0  0
 11 96  1  0  0  0
 12 13  2  0  0  0
 12 97  1  0  0  0
 13 14  1  0  0  0
 13 31  1  0  0  0
 14 15  2  0  0  0
 14 98  1  0  0  0
 15 99  1  0  0  0
 16 17  2  0  0  0
 16 21  1  0  0  0
 16 31  1  0  0  0
 17 18  1  0  0  0
 17100  1  0  0  0
 18 19  2  0  0  0
 18101  1  0  0  0
 19 20  1  0  0  0
 19 24  1  0  0  0
 20 21  2  0  0  0
 20102  1  0  0  0
 21 23  1  0  0  0
 22 28  1  0  0  0
 22 32  2  0  0  0
 26 27  1  0  0  0
 28103  1  0  0  0
 28104  1  0  0  0
 29105  1  0  0  0
 29106  1  0  0  0
 33 34  1  0  0  0
 33 66  1  0  0  0
 33 70  2  0  0  0
 34 36  1  0  0  0
 34 59  1  0  0  0
 34107  1  0  0  0
 35 44  2  0  0  0
 35 45  1  0  0  0
 35 68  1  0  0  0
 36 56  1  0  0  0
 36108  1  0  0  0
 37 39  1  0  0  0
 37 47  1  0  0  0
 37 66  1  0  0  0
 37109  1  0  0  0
 38 43  2  0  0  0
 38 46  1  0  0  0
 38 47  1  0  0  0
 39 64  1  0  0  0
 39 67  2  0  0  0
 40 52  1  0  0  0
 40 53  2  0  0  0
 40 58  1  0  0  0
 41110  1  0  0  0
 41111  1  0  0  0
 41112  1  0  0  0
 41 48  1  0  0  0
 42 43  1  0  0  0
 42 66  1  0  0  0
 42113  1  0  0  0
 42114  1  0  0  0
 43 44  1  0  0  0
 44115  1  0  0  0
 45 46  2  0  0  0
 45116  1  0  0  0
 46117  1  0  0  0
 47118  1  0  0  0
 47119  1  0  0  0
 48 56  1  0  0  0
 48 65  1  0  0  0
 48120  1  0  0  0
 49 50  1  0  0  0
 49 53  1  0  0  0
 49 64  1  0  0  0
 49121  1  0  0  0
 50 51  1  0  0  0
 50122  1  0  0  0
 50123  1  0  0  0
 51 52  1  0  0  0
 51124  1  0  0  0
 51125  1  0  0  0
 52126  1  0  0  0
 52127  1  0  0  0
 53 54  1  0  0  0
 54 55  2  0  0  0
 54128  1  0  0  0
 55 57  1  0  0  0
 55129  1  0  0  0
 56 69  2  0  0  0
 57 58  2  0  0  0
 57130  1  0  0  0
 58131  1  0  0  0
 59 60  1  0  0  0
 59 61  1  0  0  0
 59 62  1  0  0  0
 60132  1  0  0  0
 60133  1  0  0  0
 60134  1  0  0  0
 61135  1  0  0  0
 61136  1  0  0  0
 61137  1  0  0  0
 62138  1  0  0  0
 62139  1  0  0  0
 62140  1  0  0  0
 63 65  1  0  0  0
 63141  1  0  0  0
 63142  1  0  0  0
 63143  1  0  0  0
 64144  1  0  0  0
 65145  1  0  0  0
 68 82  1  0  0  0
 71 72  2  0  0  0
 71 75  1  0  0  0
 71146  1  0  0  0
 72 73  1  0  0  0
 72 78  1  0  0  0
 73 74  2  0  0  0
 73 86  1  0  0  0
 74 76  1  0  0  0
 74 83  1  0  0  0
 75 83  2  0  0  0
 75 85  1  0  0  0
 76147  1  0  0  0
 76148  1  0  0  0
 76149  1  0  0  0
 77 85  1  0  0  0
 77150  1  0  0  0
 77151  1  0  0  0
 77152  1  0  0  0
 78 80  1  0  0  0
 78153  1  0  0  0
 78154  1  0  0  0
 79 81  1  0  0  0
 79 82  1  0  0  0
 79155  1  0  0  0
 79156  1  0  0  0
 80 84  1  0  0  0
 80157  1  0  0  0
 80158  1  0  0  0
 81 85  1  0  0  0
 81159  1  0  0  0
 81160  1  0  0  0
 82161  1  0  0  0
 82162  1  0  0  0
 84163  1  0  0  0
M  ISO  4   1 100  68 101  82 101  84 100
M  END
> <chiral flag>
0

> <version>
0

> <s_m_source_file>
/data/baiqing/PycharmProjects/Reinvent-master-3.2/result/LINK_invent/BTK/process_docking_weight1_custom_sum_contain_oxygen_bond_distance_aromatic_linkinvent_7_9_3/rearranged_h_0028.sdf

> <i_m_source_file_index>
12

> <r_mmod_Potential_Energy-OPLS-2005>
21124.90625

> <r_mmod_Stretch_Energy-OPLS-2005>
10587.9794921875

> <r_mmod_Bend_Energy-OPLS-2005>
3141.14501953125

> <r_mmod_Torsional_Energy-OPLS-2005>
504.754119873047

> <r_mmod_Improper_Torsional_Energy-OPLS-2005>
67.863166809082

> <r_mmod_Van_der_Waal_Energy-OPLS-2005>
4140.3056640625

> <r_mmod_Electrostatic_Energy-OPLS-2005>
-672.429321289062

> <r_mmod_Solvation_Energy-OPLS-2005>
-213.996063232422

> <b_mmod_Minimization_Converged-OPLS-2005>
0

> <r_mmod_RMS_Derivative-OPLS-2005>
24.1412487030029

$$$$
12
                    3D
 Structure written by MMmdl.
173182  0  0  1  0            999 V2000
  -30.6216  -14.8678   20.4142 C   0  0  0  0  0  0
  -30.4128  -12.5356   19.4933 C   0  0  0  0  0  0
  -29.5078  -12.5150   18.2437 C   0  0  0  0  0  0
  -28.0363  -12.3304   18.6573 C   0  0  0  0  0  0
  -27.6235  -13.2555   19.8340 C   0  0  2  0  0  0
  -28.6670  -13.2869   20.9710 C   0  0  0  0  0  0
  -25.2422  -13.8250   20.5720 C   0  0  0  0  0  0
  -24.1749  -13.0458   20.9237 C   0  0  0  0  0  0
  -24.6379  -11.6950   20.8761 C   0  0  0  0  0  0
  -23.9078  -10.4311   21.0418 C   0  0  0  0  0  0
  -24.3633   -9.4224   21.9188 C   0  0  0  0  0  0
  -23.6317   -8.2247   22.0752 C   0  0  0  0  0  0
  -22.4293   -8.0290   21.3545 C   0  0  0  0  0  0
  -21.9925   -9.0258   20.4647 C   0  0  0  0  0  0
  -22.7247  -10.2143   20.3060 C   0  0  0  0  0  0
  -21.6854   -6.0755   22.5287 C   0  0  0  0  0  0
  -21.4017   -6.5651   23.8222 C   0  0  0  0  0  0
  -21.3660   -5.6794   24.9177 C   0  0  0  0  0  0
  -21.6038   -4.3057   24.7222 C   0  0  0  0  0  0
  -21.8812   -3.8160   23.4337 C   0  0  0  0  0  0
  -21.9189   -4.6982   22.3403 C   0  0  0  0  0  0
  -22.7765  -13.5213   21.1898 C   0  0  0  0  0  0
  -22.1656   -4.2179   21.0974 F   0  0  0  0  0  0
  -21.5633   -3.4534   25.7731 F   0  0  0  0  0  0
  -29.9482  -13.6547   20.3619 N   0  0  0  0  0  0
  -26.2848  -12.9496   20.3234 N   0  0  0  0  0  0
  -25.9315  -11.6614   20.5737 N   0  0  0  0  0  0
  -22.0417  -12.8203   22.0451 N   0  0  0  0  0  0
  -25.4062  -15.1977   20.4146 N   0  0  0  0  0  0
  -31.8348  -14.8231   20.1742 O   0  0  0  0  0  0
  -21.6643   -6.8896   21.4249 O   0  0  0  0  0  0
  -22.3435  -14.5514   20.6737 O   0  0  0  0  0  0
  -24.6370  -31.8484   23.1922 C   0  0  0  0  0  0
  -25.9170  -32.4710   23.8287 C   0  0  1  0  0  0
  -27.2060  -27.1799   20.1575 C   0  0  0  0  0  0
  -25.5936  -33.8515   24.2209 N   0  0  0  0  0  0
  -23.4364  -30.4683   21.5374 C   0  0  2  0  0  0
  -24.8817  -28.8973   20.1155 C   0  0  0  0  0  0
  -22.7522  -29.4569   22.4893 C   0  0  0  0  0  0
  -18.0297  -28.1392   22.8472 C   0  0  0  0  0  0
  -24.1492  -36.7271   23.2638 C   0  0  0  0  0  0
  -25.9874  -30.7354   21.3835 C   0  0  0  0  0  0
  -26.0555  -29.3484   20.7323 C   0  0  0  0  0  0
  -27.2209  -28.5049   20.7353 C   0  0  0  0  0  0
  -26.0146  -26.8190   19.4982 C   0  0  0  0  0  0
  -24.8707  -27.6445   19.4838 C   0  0  0  0  0  0
  -23.6583  -29.7962   20.1563 C   0  0  0  0  0  0
  -25.4117  -36.3039   24.0317 C   0  0  1  0  0  0
  -20.5901  -28.3705   23.1255 C   0  0  2  0  0  0
  -20.6784  -26.9417   22.5409 C   0  0  0  0  0  0
  -19.5765  -26.6380   21.5209 C   0  0  0  0  0  0
  -18.1943  -26.7931   22.1614 C   0  0  0  0  0  0
  -19.1551  -28.8865   23.2856 C   0  0  0  0  0  0
  -18.9465  -30.1464   23.8877 C   0  0  0  0  0  0
  -17.6465  -30.6588   24.0562 C   0  0  0  0  0  0
  -25.9061  -34.9414   23.5071 C   0  0  0  0  0  0
  -16.5356  -29.9080   23.6339 C   0  0  0  0  0  0
  -16.7282  -28.6503   23.0348 C   0  0  0  0  0  0
  -26.4510  -31.6565   25.0711 C   0  0  0  0  0  0
  -25.3709  -31.3741   26.1416 C   0  0  0  0  0  0
  -27.0365  -30.2966   24.6256 C   0  0  0  0  0  0
  -27.6042  -32.4320   25.7492 C   0  0  0  0  0  0
  -27.5582  -37.1786   24.8457 C   0  0  0  0  0  0
  -21.4223  -29.3041   22.3637 N   0  0  0  0  0  0
  -26.4284  -37.3748   23.9409 N   0  0  0  0  0  0
  -24.7066  -31.0379   22.0936 N   0  0  0  0  0  0
  -23.4194  -28.8118   23.3022 O   0  0  0  0  0  0
  -28.3016  -26.2672   20.1554 O   0  0  0  0  0  0
  -26.5641  -34.8907   22.4645 O   0  0  0  0  0  0
  -23.5502  -32.1340   23.7179 O   0  0  0  0  0  0
  -31.5033  -19.5537   20.1796 C   0  0  0  0  0  0
  -32.5157  -18.6702   19.9534 C   0  0  0  0  0  0
  -30.6251  -17.4974   20.3183 C   0  0  0  0  0  0
  -29.6352  -24.0866   20.6196 C   0  0  0  0  0  0
  -27.4142  -23.7026   19.6815 C   0  0  0  0  0  0
  -29.7418  -22.5229   20.9782 C   0  0  0  0  0  0
  -27.5663  -22.1405   20.0698 C   0  0  0  0  0  0
  -28.2169  -24.7735   20.5268 C   0  0  2  0  0  0
  -29.0030  -21.4575   20.0517 C   0  0  1  0  0  0
  -29.5018  -21.5619   18.5875 C   0  0  0  0  0  0
  -34.3372  -20.3574   19.7109 C   0  0  0  0  0  0
  -34.2254  -18.3594   18.1940 C   0  0  0  0  0  0
  -34.8352  -18.0752   20.6241 C   0  0  0  0  0  0
  -29.0375  -19.8156   20.5054 C   0  0  0  0  0  0
  -33.9710  -18.8638   19.6257 C   0  0  0  0  0  0
  -30.3015  -18.8906   20.3273 N   0  0  0  0  0  0
  -31.9373  -17.4480   20.0590 N   0  3  0  0  0  0
  -29.9724  -16.1328   20.4941 N   0  0  0  0  0  0
  -31.4561  -12.6369   19.1895 H   0  0  0  0  0  0
  -30.3546  -11.5853   20.0260 H   0  0  0  0  0  0
  -29.8106  -11.7142   17.5678 H   0  0  0  0  0  0
  -29.6237  -13.4463   17.6855 H   0  0  0  0  0  0
  -27.9056  -11.2863   18.9422 H   0  0  0  0  0  0
  -27.3810  -12.4961   17.8012 H   0  0  0  0  0  0
  -27.5889  -14.2599   19.4111 H   0  0  0  0  0  0
  -28.7326  -12.3210   21.4740 H   0  0  0  0  0  0
  -28.3825  -14.0168   21.7307 H   0  0  0  0  0  0
  -25.2783   -9.5709   22.4759 H   0  0  0  0  0  0
  -24.0039   -7.4636   22.7459 H   0  0  0  0  0  0
  -21.0865   -8.8772   19.8946 H   0  0  0  0  0  0
  -22.3712  -10.9677   19.6166 H   0  0  0  0  0  0
  -21.2013   -7.6161   23.9738 H   0  0  0  0  0  0
  -21.1485   -6.0521   25.9081 H   0  0  0  0  0  0
  -22.0591   -2.7627   23.2819 H   0  0  0  0  0  0
  -22.4044  -11.9870   22.4843 H   0  0  0  0  0  0
  -21.1022  -13.1200   22.2650 H   0  0  0  0  0  0
  -24.6329  -15.8436   20.5287 H   0  0  0  0  0  0
  -26.2430  -15.6440   20.0633 H   0  0  0  0  0  0
  -26.7226  -32.5328   23.1009 H   0  0  0  0  0  0
  -25.0077  -33.9638   25.0351 H   0  0  0  0  0  0
  -22.7360  -31.2927   21.3858 H   0  0  0  0  0  0
  -23.3759  -35.9598   23.3268 H   0  0  0  0  0  0
  -24.3596  -36.8934   22.2064 H   0  0  0  0  0  0
  -23.7249  -37.6456   23.6698 H   0  0  0  0  0  0
  -26.1345  -31.4880   20.6074 H   0  0  0  0  0  0
  -26.8619  -30.7879   22.0205 H   0  0  0  0  0  0
  -28.1223  -28.8478   21.2230 H   0  0  0  0  0  0
  -25.9551  -25.8797   18.9741 H   0  0  0  0  0  0
  -23.9782  -27.3009   18.9793 H   0  0  0  0  0  0
  -23.7916  -30.5692   19.3987 H   0  0  0  0  0  0
  -22.7737  -29.2349   19.8496 H   0  0  0  0  0  0
  -25.1307  -36.1865   25.0809 H   0  0  0  0  0  0
  -20.9988  -28.3295   24.1378 H   0  0  0  0  0  0
  -20.5686  -26.2311   23.3618 H   0  0  0  0  0  0
  -21.6653  -26.7440   22.1207 H   0  0  0  0  0  0
  -19.6928  -25.6284   21.1255 H   0  0  0  0  0  0
  -19.6713  -27.3176   20.6730 H   0  0  0  0  0  0
  -17.4215  -26.6673   21.4015 H   0  0  0  0  0  0
  -18.0341  -26.0082   22.9017 H   0  0  0  0  0  0
  -19.7938  -30.7286   24.2237 H   0  0  0  0  0  0
  -17.5016  -31.6269   24.5163 H   0  0  0  0  0  0
  -15.5356  -30.2969   23.7683 H   0  0  0  0  0  0
  -15.8683  -28.0821   22.7063 H   0  0  0  0  0  0
  -24.5878  -30.7098   25.7743 H   0  0  0  0  0  0
  -24.8908  -32.2919   26.4816 H   0  0  0  0  0  0
  -25.8000  -30.8928   27.0211 H   0  0  0  0  0  0
  -26.2966  -29.6691   24.1270 H   0  0  0  0  0  0
  -27.4002  -29.7258   25.4810 H   0  0  0  0  0  0
  -27.8864  -30.4214   23.9543 H   0  0  0  0  0  0
  -27.2632  -33.3623   26.2044 H   0  0  0  0  0  0
  -28.3866  -32.6872   25.0336 H   0  0  0  0  0  0
  -28.0694  -31.8465   26.5432 H   0  0  0  0  0  0
  -28.2565  -38.0112   24.7526 H   0  0  0  0  0  0
  -28.1108  -36.2643   24.6241 H   0  0  0  0  0  0
  -27.2308  -37.1387   25.8859 H   0  0  0  0  0  0
  -20.9418  -29.8737   21.6813 H   0  0  0  0  0  0
  -26.0151  -38.2811   24.1419 H   0  0  0  0  0  0
  -31.5821  -20.6234   20.1961 H   0  0  0  0  0  0
  -30.1565  -24.2582   19.6783 H   0  0  0  0  0  0
  -30.2160  -24.6375   21.3602 H   0  0  0  0  0  0
  -26.3532  -23.9324   19.7655 H   0  0  0  0  0  0
  -27.6530  -23.8370   18.6270 H   0  0  0  0  0  0
  -29.3681  -22.3955   21.9956 H   0  0  0  0  0  0
  -30.8017  -22.3011   21.0582 H   0  0  0  0  0  0
  -26.9095  -21.5691   19.4117 H   0  0  0  0  0  0
  -27.1390  -22.0051   21.0650 H   0  0  0  0  0  0
  -27.7906  -24.7558   21.5309 H   0  0  0  0  0  0
  -29.4669  -22.5807   18.2065 H   0  0  0  0  0  0
  -28.8759  -20.9615   17.9268 H   0  0  0  0  0  0
  -30.5240  -21.2288   18.4363 H   0  0  0  0  0  0
  -33.7646  -20.9540   18.9997 H   0  0  0  0  0  0
  -35.3930  -20.5191   19.4902 H   0  0  0  0  0  0
  -34.1501  -20.7576   20.7083 H   0  0  0  0  0  0
  -33.6048  -18.8896   17.4700 H   0  0  0  0  0  0
  -34.0060  -17.2964   18.0940 H   0  0  0  0  0  0
  -35.2657  -18.5041   17.9030 H   0  0  0  0  0  0
  -34.6331  -18.3813   21.6511 H   0  0  0  0  0  0
  -35.8968  -18.2399   20.4387 H   0  0  0  0  0  0
  -34.6598  -17.0011   20.5576 H   0  0  0  0  0  0
  -28.2381  -19.3057   19.9679 H   0  0  0  0  0  0
  -28.7600  -19.7452   21.5571 H   0  0  0  0  0  0
  -32.4309  -16.5600   19.9758 H   0  0  0  0  0  0
  -28.9748  -16.1278   20.6351 H   0  0  0  0  0  0
  1 25  1  0  0  0
  1 30  2  0  0  0
  1 88  1  0  0  0
  2  3  1  0  0  0
  2 25  1  0  0  0
  2 89  1  0  0  0
  2 90  1  0  0  0
  3  4  1  0  0  0
  3 91  1  0  0  0
  3 92  1  0  0  0
  4  5  1  0  0  0
  4 93  1  0  0  0
  4 94  1  0  0  0
  5  6  1  0  0  0
  5 26  1  0  0  0
  5 95  1  0  0  0
  6 25  1  0  0  0
  6 96  1  0  0  0
  6 97  1  0  0  0
  7  8  2  0  0  0
  7 26  1  0  0  0
  7 29  1  0  0  0
  8  9  1  0  0  0
  8 22  1  0  0  0
  9 10  1  0  0  0
  9 27  2  0  0  0
 10 11  2  0  0  0
 10 15  1  0  0  0
 11 12  1  0  0  0
 11 98  1  0  0  0
 12 13  2  0  0  0
 12 99  1  0  0  0
 13 14  1  0  0  0
 13 31  1  0  0  0
 14 15  2  0  0  0
 14100  1  0  0  0
 15101  1  0  0  0
 16 17  2  0  0  0
 16 21  1  0  0  0
 16 31  1  0  0  0
 17 18  1  0  0  0
 17102  1  0  0  0
 18 19  2  0  0  0
 18103  1  0  0  0
 19 20  1  0  0  0
 19 24  1  0  0  0
 20 21  2  0  0  0
 20104  1  0  0  0
 21 23  1  0  0  0
 22 28  1  0  0  0
 22 32  2  0  0  0
 26 27  1  0  0  0
 28105  1  0  0  0
 28106  1  0  0  0
 29107  1  0  0  0
 29108  1  0  0  0
 33 34  1  0  0  0
 33 66  1  0  0  0
 33 70  2  0  0  0
 34 36  1  0  0  0
 34 59  1  0  0  0
 34109  1  0  0  0
 35 44  2  0  0  0
 35 45  1  0  0  0
 35 68  1  0  0  0
 36 56  1  0  0  0
 36110  1  0  0  0
 37 39  1  0  0  0
 37 47  1  0  0  0
 37 66  1  0  0  0
 37111  1  0  0  0
 38 43  2  0  0  0
 38 46  1  0  0  0
 38 47  1  0  0  0
 39 64  1  0  0  0
 39 67  2  0  0  0
 40 52  1  0  0  0
 40 53  2  0  0  0
 40 58  1  0  0  0
 41112  1  0  0  0
 41113  1  0  0  0
 41114  1  0  0  0
 41 48  1  0  0  0
 42 43  1  0  0  0
 42 66  1  0  0  0
 42115  1  0  0  0
 42116  1  0  0  0
 43 44  1  0  0  0
 44117  1  0  0  0
 45 46  2  0  0  0
 45118  1  0  0  0
 46119  1  0  0  0
 47120  1  0  0  0
 47121  1  0  0  0
 48 56  1  0  0  0
 48 65  1  0  0  0
 48122  1  0  0  0
 49 50  1  0  0  0
 49 53  1  0  0  0
 49 64  1  0  0  0
 49123  1  0  0  0
 50 51  1  0  0  0
 50124  1  0  0  0
 50125  1  0  0  0
 51 52  1  0  0  0
 51126  1  0  0  0
 51127  1  0  0  0
 52128  1  0  0  0
 52129  1  0  0  0
 53 54  1  0  0  0
 54 55  2  0  0  0
 54130  1  0  0  0
 55 57  1  0  0  0
 55131  1  0  0  0
 56 69  2  0  0  0
 57 58  2  0  0  0
 57132  1  0  0  0
 58133  1  0  0  0
 59 60  1  0  0  0
 59 61  1  0  0  0
 59 62  1  0  0  0
 60134  1  0  0  0
 60135  1  0  0  0
 60136  1  0  0  0
 61137  1  0  0  0
 61138  1  0  0  0
 61139  1  0  0  0
 62140  1  0  0  0
 62141  1  0  0  0
 62142  1  0  0  0
 63 65  1  0  0  0
 63143  1  0  0  0
 63144  1  0  0  0
 63145  1  0  0  0
 64146  1  0  0  0
 65147  1  0  0  0
 68 78  1  0  0  0
 71 72  2  0  0  0
 71 86  1  0  0  0
 71148  1  0  0  0
 72 85  1  0  0  0
 72 87  1  0  0  0
 73 86  1  0  0  0
 73 87  2  0  0  0
 73 88  1  0  0  0
 74 76  1  0  0  0
 74 78  1  0  0  0
 74149  1  0  0  0
 74150  1  0  0  0
 75 77  1  0  0  0
 75 78  1  0  0  0
 75151  1  0  0  0
 75152  1  0  0  0
 76 79  1  0  0  0
 76153  1  0  0  0
 76154  1  0  0  0
 77 79  1  0  0  0
 77155  1  0  0  0
 77156  1  0  0  0
 78157  1  0  0  0
 79 80  1  0  0  0
 79 84  1  0  0  0
 80158  1  0  0  0
 80159  1  0  0  0
 80160  1  0  0  0
 81161  1  0  0  0
 81162  1  0  0  0
 81163  1  0  0  0
 81 85  1  0  0  0
 82 85  1  0  0  0
 82164  1  0  0  0
 82165  1  0  0  0
 82166  1  0  0  0
 83 85  1  0  0  0
 83167  1  0  0  0
 83168  1  0  0  0
 83169  1  0  0  0
 84 86  1  0  0  0
 84170  1  0  0  0
 84171  1  0  0  0
 87172  1  0  0  0
 88173  1  0  0  0
M  CHG  1  87   1
M  ISO  4   1 100  68 101  78 101  88 100
M  END
> <chiral flag>
0

> <version>
0

> <s_m_source_file>
/data/baiqing/PycharmProjects/Reinvent-master-3.2/result/LINK_invent/BTK/process_docking_weight1_custom_sum_contain_oxygen_bond_distance_aromatic_linkinvent_7_9_3/rearranged_h_0028.sdf

> <i_m_source_file_index>
13

> <r_mmod_Potential_Energy-OPLS-2005>
327.908447265625

> <r_mmod_Stretch_Energy-OPLS-2005>
215.929809570312

> <r_mmod_Bend_Energy-OPLS-2005>
320.226318359375

> <r_mmod_Torsional_Energy-OPLS-2005>
260.013305664062

> <r_mmod_Improper_Torsional_Energy-OPLS-2005>
5.1724100112915

> <r_mmod_Van_der_Waal_Energy-OPLS-2005>
141.427993774414

> <r_mmod_Electrostatic_Energy-OPLS-2005>
-386.968109130859

> <r_mmod_Solvation_Energy-OPLS-2005>
-370.366760253906

> <b_mmod_Minimization_Converged-OPLS-2005>
0

> <r_mmod_RMS_Derivative-OPLS-2005>
1.56888592243195

$$$$
13
                    3D
 Structure written by MMmdl.
175184  0  0  1  0            999 V2000
  -30.8508  -14.2342   20.7924 C   0  0  0  0  0  0
  -30.4073  -12.2892   19.3533 C   0  0  0  0  0  0
  -29.4646  -12.5446   18.1698 C   0  0  0  0  0  0
  -27.9981  -12.3808   18.6016 C   0  0  0  0  0  0
  -27.6640  -13.2023   19.8724 C   0  0  2  0  0  0
  -28.7023  -12.9493   20.9858 C   0  0  0  0  0  0
  -25.2602  -13.8158   20.5670 C   0  0  0  0  0  0
  -24.1845  -13.0439   20.9162 C   0  0  0  0  0  0
  -24.6393  -11.6905   20.8726 C   0  0  0  0  0  0
  -23.9061  -10.4294   21.0406 C   0  0  0  0  0  0
  -24.3615   -9.4209   21.9183 C   0  0  0  0  0  0
  -23.6296   -8.2244   22.0751 C   0  0  0  0  0  0
  -22.4275   -8.0283   21.3548 C   0  0  0  0  0  0
  -21.9909   -9.0252   20.4643 C   0  0  0  0  0  0
  -22.7237  -10.2132   20.3053 C   0  0  0  0  0  0
  -21.6852   -6.0739   22.5282 C   0  0  0  0  0  0
  -21.4011   -6.5638   23.8215 C   0  0  0  0  0  0
  -21.3658   -5.6792   24.9175 C   0  0  0  0  0  0
  -21.6046   -4.3059   24.7226 C   0  0  0  0  0  0
  -21.8819   -3.8148   23.4351 C   0  0  0  0  0  0
  -21.9189   -4.6965   22.3404 C   0  0  0  0  0  0
  -22.7871  -13.5241   21.1833 C   0  0  0  0  0  0
  -22.1662   -4.2154   21.0985 F   0  0  0  0  0  0
  -21.5626   -3.4541   25.7741 F   0  0  0  0  0  0
  -30.0532  -13.1983   20.4489 N   0  0  0  0  0  0
  -26.3035  -12.9324   20.3354 N   0  0  0  0  0  0
  -25.9318  -11.6485   20.5744 N   0  0  0  0  0  0
  -22.0510  -12.8228   22.0381 N   0  0  0  0  0  0
  -25.4332  -15.1884   20.4103 N   0  0  0  0  0  0
  -31.7514  -14.6813   20.0735 O   0  0  0  0  0  0
  -21.6638   -6.8884   21.4245 O   0  0  0  0  0  0
  -22.3557  -14.5549   20.6686 O   0  0  0  0  0  0
  -24.6091  -31.8716   23.2119 C   0  0  0  0  0  0
  -25.9007  -32.4844   23.8404 C   0  0  1  0  0  0
  -27.2412  -27.4829   20.0903 C   0  0  0  0  0  0
  -25.5892  -33.8642   24.2363 N   0  0  0  0  0  0
  -23.3945  -30.4927   21.5513 C   0  0  2  0  0  0
  -24.8406  -28.9503   20.1296 C   0  0  0  0  0  0
  -22.7371  -29.4678   22.5017 C   0  0  0  0  0  0
  -18.0269  -28.1397   22.8502 C   0  0  0  0  0  0
  -24.1472  -36.7300   23.2643 C   0  0  0  0  0  0
  -25.9155  -30.8504   21.3560 C   0  0  0  0  0  0
  -25.9951  -29.4817   20.7174 C   0  0  0  0  0  0
  -27.1998  -28.7532   20.6954 C   0  0  0  0  0  0
  -26.0725  -26.9394   19.5192 C   0  0  0  0  0  0
  -24.8693  -27.6735   19.5350 C   0  0  0  0  0  0
  -23.6025  -29.8154   20.1688 C   0  0  0  0  0  0
  -25.4095  -36.3132   24.0360 C   0  0  1  0  0  0
  -20.5854  -28.3662   23.1347 C   0  0  2  0  0  0
  -20.6750  -26.9404   22.5434 C   0  0  0  0  0  0
  -19.5729  -26.6412   21.5219 C   0  0  0  0  0  0
  -18.1910  -26.7952   22.1626 C   0  0  0  0  0  0
  -19.1521  -28.8847   23.2925 C   0  0  0  0  0  0
  -18.9452  -30.1455   23.8932 C   0  0  0  0  0  0
  -17.6455  -30.6596   24.0584 C   0  0  0  0  0  0
  -25.9011  -34.9493   23.5150 C   0  0  0  0  0  0
  -16.5344  -29.9102   23.6334 C   0  0  0  0  0  0
  -16.7262  -28.6524   23.0349 C   0  0  0  0  0  0
  -26.4467  -31.6616   25.0711 C   0  0  0  0  0  0
  -25.3768  -31.3700   26.1487 C   0  0  0  0  0  0
  -27.0295  -30.3080   24.6034 C   0  0  0  0  0  0
  -27.6051  -32.4325   25.7473 C   0  0  0  0  0  0
  -27.5581  -37.1802   24.8473 C   0  0  0  0  0  0
  -21.4111  -29.3036   22.3758 N   0  0  0  0  0  0
  -26.4285  -37.3816   23.9431 N   0  0  0  0  0  0
  -24.6576  -31.0853   22.0996 N   0  0  0  0  0  0
  -23.4164  -28.8226   23.3046 O   0  0  0  0  0  0
  -28.4504  -26.8675   19.9283 O   0  0  0  0  0  0
  -26.5556  -34.8933   22.4696 O   0  0  0  0  0  0
  -23.5301  -32.1458   23.7542 O   0  0  0  0  0  0
  -31.9815  -22.4048   22.9366 C   0  0  0  0  0  0
  -32.2413  -23.2049   21.8023 C   0  0  0  0  0  0
  -32.9198  -21.4498   23.3776 C   0  0  0  0  0  0
  -33.4563  -23.0217   21.0896 C   0  0  0  0  0  0
  -34.1347  -21.2838   22.6725 C   0  0  0  0  0  0
  -34.3990  -22.0643   21.5267 C   0  0  0  0  0  0
  -30.3664  -24.8902   22.4387 C   0  0  0  0  0  0
  -30.2738  -23.6618   20.2611 C   0  0  0  0  0  0
  -29.5613  -26.0623   21.8524 C   0  0  0  0  0  0
  -29.4836  -24.8014   19.6074 C   0  0  0  0  0  0
  -31.2150  -24.2345   21.3315 C   0  0  2  0  0  0
  -28.7099  -25.6651   20.6246 C   0  0  2  0  0  0
  -32.5997  -20.5901   24.5915 C   0  0  0  0  0  0
  -31.2656  -16.3172   23.7252 C   0  0  0  0  0  0
  -32.2923  -16.8057   24.7639 C   0  0  0  0  0  0
  -31.8067  -15.1379   22.9102 C   0  0  0  0  0  0
  -32.0624  -18.2459   25.2490 C   0  0  0  0  0  0
  -30.7622  -14.5320   22.0930 N   0  0  0  0  0  0
  -32.3207  -19.2093   24.1612 N   0  3  0  0  0  0
  -33.7965  -23.9474   19.6622 Cl  0  0  0  0  0  0
  -35.2787  -20.0883   23.1887 Cl  0  0  0  0  0  0
  -35.8762  -21.8349   20.6481 Cl  0  0  0  0  0  0
  -31.4462  -12.4042   19.0379 H   0  0  0  0  0  0
  -30.3143  -11.2587   19.6985 H   0  0  0  0  0  0
  -29.6923  -11.8612   17.3508 H   0  0  0  0  0  0
  -29.6253  -13.5527   17.7832 H   0  0  0  0  0  0
  -27.8156  -11.3207   18.7835 H   0  0  0  0  0  0
  -27.3327  -12.6680   17.7863 H   0  0  0  0  0  0
  -27.7218  -14.2561   19.5982 H   0  0  0  0  0  0
  -28.6435  -11.9178   21.3365 H   0  0  0  0  0  0
  -28.4578  -13.5755   21.8442 H   0  0  0  0  0  0
  -25.2771   -9.5682   22.4747 H   0  0  0  0  0  0
  -24.0008   -7.4637   22.7472 H   0  0  0  0  0  0
  -21.0841   -8.8777   19.8952 H   0  0  0  0  0  0
  -22.3707  -10.9668   19.6154 H   0  0  0  0  0  0
  -21.2000   -7.6146   23.9720 H   0  0  0  0  0  0
  -21.1479   -6.0521   25.9082 H   0  0  0  0  0  0
  -22.0594   -2.7612   23.2850 H   0  0  0  0  0  0
  -22.4124  -11.9883   22.4764 H   0  0  0  0  0  0
  -21.1132  -13.1254   22.2596 H   0  0  0  0  0  0
  -24.6722  -15.8488   20.5247 H   0  0  0  0  0  0
  -26.2972  -15.6258   20.1133 H   0  0  0  0  0  0
  -26.7071  -32.5591   23.1172 H   0  0  0  0  0  0
  -25.0107  -33.9806   25.0553 H   0  0  0  0  0  0
  -22.6813  -31.3074   21.4098 H   0  0  0  0  0  0
  -23.3750  -35.9615   23.3321 H   0  0  0  0  0  0
  -24.3575  -36.8889   22.2056 H   0  0  0  0  0  0
  -23.7189  -37.6501   23.6620 H   0  0  0  0  0  0
  -26.0140  -31.6122   20.5810 H   0  0  0  0  0  0
  -26.8076  -30.9159   21.9660 H   0  0  0  0  0  0
  -28.1033  -29.1748   21.1137 H   0  0  0  0  0  0
  -26.1060  -25.9760   19.0296 H   0  0  0  0  0  0
  -23.9820  -27.2594   19.0769 H   0  0  0  0  0  0
  -23.7132  -30.5841   19.4026 H   0  0  0  0  0  0
  -22.7275  -29.2331   19.8761 H   0  0  0  0  0  0
  -25.1268  -36.2009   25.0856 H   0  0  0  0  0  0
  -20.9961  -28.3217   24.1462 H   0  0  0  0  0  0
  -20.5662  -26.2255   23.3608 H   0  0  0  0  0  0
  -21.6621  -26.7459   22.1226 H   0  0  0  0  0  0
  -19.6868  -25.6330   21.1231 H   0  0  0  0  0  0
  -19.6678  -27.3233   20.6756 H   0  0  0  0  0  0
  -17.4192  -26.6740   21.4014 H   0  0  0  0  0  0
  -18.0274  -26.0092   22.9019 H   0  0  0  0  0  0
  -19.7930  -30.7269   24.2311 H   0  0  0  0  0  0
  -17.5015  -31.6282   24.5178 H   0  0  0  0  0  0
  -15.5344  -30.3018   23.7637 H   0  0  0  0  0  0
  -15.8663  -28.0851   22.7041 H   0  0  0  0  0  0
  -24.5952  -30.7023   25.7856 H   0  0  0  0  0  0
  -24.8943  -32.2849   26.4945 H   0  0  0  0  0  0
  -25.8184  -30.8900   27.0235 H   0  0  0  0  0  0
  -26.2820  -29.6837   24.1133 H   0  0  0  0  0  0
  -27.4162  -29.7317   25.4448 H   0  0  0  0  0  0
  -27.8602  -30.4441   23.9101 H   0  0  0  0  0  0
  -27.2683  -33.3622   26.2075 H   0  0  0  0  0  0
  -28.3848  -32.6902   25.0291 H   0  0  0  0  0  0
  -28.0726  -31.8436   26.5376 H   0  0  0  0  0  0
  -28.2613  -38.0088   24.7548 H   0  0  0  0  0  0
  -28.1066  -36.2632   24.6270 H   0  0  0  0  0  0
  -27.2316  -37.1437   25.8880 H   0  0  0  0  0  0
  -20.9244  -29.8772   21.7015 H   0  0  0  0  0  0
  -26.0184  -38.2899   24.1445 H   0  0  0  0  0  0
  -31.0541  -22.5166   23.4786 H   0  0  0  0  0  0
  -29.6830  -24.1695   22.8896 H   0  0  0  0  0  0
  -31.0098  -25.2619   23.2368 H   0  0  0  0  0  0
  -30.8456  -23.1422   19.4920 H   0  0  0  0  0  0
  -29.5992  -22.9242   20.6999 H   0  0  0  0  0  0
  -30.2642  -26.8446   21.5620 H   0  0  0  0  0  0
  -28.9242  -26.5047   22.6193 H   0  0  0  0  0  0
  -28.7998  -24.4067   18.8553 H   0  0  0  0  0  0
  -30.1922  -25.4308   19.0651 H   0  0  0  0  0  0
  -31.7837  -25.0527   20.8880 H   0  0  0  0  0  0
  -27.8000  -25.1486   20.9384 H   0  0  0  0  0  0
  -31.7400  -20.9895   25.1313 H   0  0  0  0  0  0
  -33.4426  -20.6135   25.2843 H   0  0  0  0  0  0
  -30.9977  -17.1150   23.0329 H   0  0  0  0  0  0
  -30.3445  -16.0379   24.2393 H   0  0  0  0  0  0
  -33.3044  -16.7237   24.3645 H   0  0  0  0  0  0
  -32.2645  -16.1329   25.6224 H   0  0  0  0  0  0
  -32.1948  -14.3671   23.5778 H   0  0  0  0  0  0
  -32.6527  -15.4650   22.3023 H   0  0  0  0  0  0
  -32.7463  -18.4445   26.0746 H   0  0  0  0  0  0
  -31.0512  -18.3756   25.6375 H   0  0  0  0  0  0
  -30.0146  -14.0675   22.5887 H   0  0  0  0  0  0
  -33.1359  -18.9016   23.6544 H   0  0  0  0  0  0
  -31.5367  -19.2168   23.5292 H   0  0  0  0  0  0
  1 25  1  0  0  0
  1 30  2  0  0  0
  1 88  1  0  0  0
  2  3  1  0  0  0
  2 25  1  0  0  0
  2 93  1  0  0  0
  2 94  1  0  0  0
  3  4  1  0  0  0
  3 95  1  0  0  0
  3 96  1  0  0  0
  4  5  1  0  0  0
  4 97  1  0  0  0
  4 98  1  0  0  0
  5  6  1  0  0  0
  5 26  1  0  0  0
  5 99  1  0  0  0
  6 25  1  0  0  0
  6100  1  0  0  0
  6101  1  0  0  0
  7  8  2  0  0  0
  7 26  1  0  0  0
  7 29  1  0  0  0
  8  9  1  0  0  0
  8 22  1  0  0  0
  9 10  1  0  0  0
  9 27  2  0  0  0
 10 11  2  0  0  0
 10 15  1  0  0  0
 11 12  1  0  0  0
 11102  1  0  0  0
 12 13  2  0  0  0
 12103  1  0  0  0
 13 14  1  0  0  0
 13 31  1  0  0  0
 14 15  2  0  0  0
 14104  1  0  0  0
 15105  1  0  0  0
 16 17  2  0  0  0
 16 21  1  0  0  0
 16 31  1  0  0  0
 17 18  1  0  0  0
 17106  1  0  0  0
 18 19  2  0  0  0
 18107  1  0  0  0
 19 20  1  0  0  0
 19 24  1  0  0  0
 20 21  2  0  0  0
 20108  1  0  0  0
 21 23  1  0  0  0
 22 28  1  0  0  0
 22 32  2  0  0  0
 26 27  1  0  0  0
 28109  1  0  0  0
 28110  1  0  0  0
 29111  1  0  0  0
 29112  1  0  0  0
 33 34  1  0  0  0
 33 66  1  0  0  0
 33 70  2  0  0  0
 34 36  1  0  0  0
 34 59  1  0  0  0
 34113  1  0  0  0
 35 44  2  0  0  0
 35 45  1  0  0  0
 35 68  1  0  0  0
 36 56  1  0  0  0
 36114  1  0  0  0
 37 39  1  0  0  0
 37 47  1  0  0  0
 37 66  1  0  0  0
 37115  1  0  0  0
 38 43  2  0  0  0
 38 46  1  0  0  0
 38 47  1  0  0  0
 39 64  1  0  0  0
 39 67  2  0  0  0
 40 52  1  0  0  0
 40 53  2  0  0  0
 40 58  1  0  0  0
 41116  1  0  0  0
 41117  1  0  0  0
 41118  1  0  0  0
 41 48  1  0  0  0
 42 43  1  0  0  0
 42 66  1  0  0  0
 42119  1  0  0  0
 42120  1  0  0  0
 43 44  1  0  0  0
 44121  1  0  0  0
 45 46  2  0  0  0
 45122  1  0  0  0
 46123  1  0  0  0
 47124  1  0  0  0
 47125  1  0  0  0
 48 56  1  0  0  0
 48 65  1  0  0  0
 48126  1  0  0  0
 49 50  1  0  0  0
 49 53  1  0  0  0
 49 64  1  0  0  0
 49127  1  0  0  0
 50 51  1  0  0  0
 50128  1  0  0  0
 50129  1  0  0  0
 51 52  1  0  0  0
 51130  1  0  0  0
 51131  1  0  0  0
 52132  1  0  0  0
 52133  1  0  0  0
 53 54  1  0  0  0
 54 55  2  0  0  0
 54134  1  0  0  0
 55 57  1  0  0  0
 55135  1  0  0  0
 56 69  2  0  0  0
 57 58  2  0  0  0
 57136  1  0  0  0
 58137  1  0  0  0
 59 60  1  0  0  0
 59 61  1  0  0  0
 59 62  1  0  0  0
 60138  1  0  0  0
 60139  1  0  0  0
 60140  1  0  0  0
 61141  1  0  0  0
 61142  1  0  0  0
 61143  1  0  0  0
 62144  1  0  0  0
 62145  1  0  0  0
 62146  1  0  0  0
 63 65  1  0  0  0
 63147  1  0  0  0
 63148  1  0  0  0
 63149  1  0  0  0
 64150  1  0  0  0
 65151  1  0  0  0
 68 82  1  0  0  0
 71 72  2  0  0  0
 71 73  1  0  0  0
 71152  1  0  0  0
 72 74  1  0  0  0
 72 81  1  0  0  0
 73 75  2  0  0  0
 73 83  1  0  0  0
 74 76  2  0  0  0
 74 90  1  0  0  0
 75 76  1  0  0  0
 75 91  1  0  0  0
 76 92  1  0  0  0
 77 79  1  0  0  0
 77 81  1  0  0  0
 77153  1  0  0  0
 77154  1  0  0  0
 78 80  1  0  0  0
 78 81  1  0  0  0
 78155  1  0  0  0
 78156  1  0  0  0
 79 82  1  0  0  0
 79157  1  0  0  0
 79158  1  0  0  0
 80 82  1  0  0  0
 80159  1  0  0  0
 80160  1  0  0  0
 81161  1  0  0  0
 82162  1  0  0  0
 83 89  1  0  0  0
 83163  1  0  0  0
 83164  1  0  0  0
 84 85  1  0  0  0
 84 86  1  0  0  0
 84165  1  0  0  0
 84166  1  0  0  0
 85 87  1  0  0  0
 85167  1  0  0  0
 85168  1  0  0  0
 86 88  1  0  0  0
 86169  1  0  0  0
 86170  1  0  0  0
 87 89  1  0  0  0
 87171  1  0  0  0
 87172  1  0  0  0
 88173  1  0  0  0
 89174  1  0  0  0
 89175  1  0  0  0
M  CHG  1  89   1
M  ISO  4   1 100  68 101  82 101  88 100
M  END
> <chiral flag>
0

> <version>
0

> <s_m_source_file>
/data/baiqing/PycharmProjects/Reinvent-master-3.2/result/LINK_invent/BTK/process_docking_weight1_custom_sum_contain_oxygen_bond_distance_aromatic_linkinvent_7_9_3/rearranged_h_0028.sdf

> <i_m_source_file_index>
14

> <r_mmod_Potential_Energy-OPLS-2005>
-206.93391418457

> <r_mmod_Stretch_Energy-OPLS-2005>
31.574275970459

> <r_mmod_Bend_Energy-OPLS-2005>
96.0363998413086

> <r_mmod_Torsional_Energy-OPLS-2005>
256.140380859375

> <r_mmod_Improper_Torsional_Energy-OPLS-2005>
7.51688003540039

> <r_mmod_Van_der_Waal_Energy-OPLS-2005>
158.22200012207

> <r_mmod_Electrostatic_Energy-OPLS-2005>
-283.506622314453

> <r_mmod_Solvation_Energy-OPLS-2005>
-485.765869140625

> <b_mmod_Minimization_Converged-OPLS-2005>
0

> <r_mmod_RMS_Derivative-OPLS-2005>
1.77855789661407

$$$$
14
                    3D
 Structure written by MMmdl.
149157  0  0  1  0            999 V2000
  -30.5362  -14.8673   20.4526 C   0  0  0  0  0  0
  -30.4525  -12.5316   19.4906 C   0  0  0  0  0  0
  -29.5238  -12.5283   18.2524 C   0  0  0  0  0  0
  -28.0529  -12.3259   18.6665 C   0  0  0  0  0  0
  -27.6424  -13.2348   19.8541 C   0  0  2  0  0  0
  -28.6871  -13.1895   20.9917 C   0  0  0  0  0  0
  -25.2477  -13.8163   20.5635 C   0  0  0  0  0  0
  -24.1787  -13.0413   20.9188 C   0  0  0  0  0  0
  -24.6403  -11.6900   20.8754 C   0  0  0  0  0  0
  -23.9077  -10.4280   21.0412 C   0  0  0  0  0  0
  -24.3622   -9.4195   21.9190 C   0  0  0  0  0  0
  -23.6290   -8.2236   22.0759 C   0  0  0  0  0  0
  -22.4273   -8.0278   21.3546 C   0  0  0  0  0  0
  -21.9913   -9.0255   20.4649 C   0  0  0  0  0  0
  -22.7249  -10.2130   20.3059 C   0  0  0  0  0  0
  -21.6852   -6.0732   22.5279 C   0  0  0  0  0  0
  -21.4013   -6.5636   23.8212 C   0  0  0  0  0  0
  -21.3660   -5.6791   24.9176 C   0  0  0  0  0  0
  -21.6046   -4.3055   24.7227 C   0  0  0  0  0  0
  -21.8818   -3.8143   23.4347 C   0  0  0  0  0  0
  -21.9191   -4.6959   22.3403 C   0  0  0  0  0  0
  -22.7811  -13.5202   21.1856 C   0  0  0  0  0  0
  -22.1658   -4.2143   21.0981 F   0  0  0  0  0  0
  -21.5631   -3.4538   25.7739 F   0  0  0  0  0  0
  -29.9797  -13.5946   20.4164 N   0  0  0  0  0  0
  -26.2942  -12.9395   20.3295 N   0  0  0  0  0  0
  -25.9345  -11.6536   20.5782 N   0  0  0  0  0  0
  -22.0468  -12.8202   22.0426 N   0  0  0  0  0  0
  -25.4085  -15.1870   20.3949 N   0  0  0  0  0  0
  -31.7124  -15.0043   20.0936 O   0  0  0  0  0  0
  -21.6638   -6.8873   21.4239 O   0  0  0  0  0  0
  -22.3484  -14.5505   20.6704 O   0  0  0  0  0  0
  -24.6389  -31.8480   23.1913 C   0  0  0  0  0  0
  -25.9177  -32.4717   23.8294 C   0  0  1  0  0  0
  -27.2238  -27.1831   20.1536 C   0  0  0  0  0  0
  -25.5942  -33.8520   24.2213 N   0  0  0  0  0  0
  -23.4410  -30.4667   21.5360 C   0  0  2  0  0  0
  -24.8921  -28.8981   20.1145 C   0  0  0  0  0  0
  -22.7545  -29.4563   22.4885 C   0  0  0  0  0  0
  -18.0301  -28.1393   22.8477 C   0  0  0  0  0  0
  -24.1490  -36.7266   23.2642 C   0  0  0  0  0  0
  -25.9931  -30.7372   21.3831 C   0  0  0  0  0  0
  -26.0670  -29.3508   20.7289 C   0  0  0  0  0  0
  -27.2368  -28.5096   20.7302 C   0  0  0  0  0  0
  -26.0270  -26.8209   19.4991 C   0  0  0  0  0  0
  -24.8818  -27.6445   19.4843 C   0  0  0  0  0  0
  -23.6663  -29.7945   20.1557 C   0  0  0  0  0  0
  -25.4120  -36.3044   24.0319 C   0  0  1  0  0  0
  -20.5908  -28.3714   23.1248 C   0  0  2  0  0  0
  -20.6785  -26.9421   22.5408 C   0  0  0  0  0  0
  -19.5764  -26.6395   21.5205 C   0  0  0  0  0  0
  -18.1943  -26.7938   22.1612 C   0  0  0  0  0  0
  -19.1554  -28.8871   23.2856 C   0  0  0  0  0  0
  -18.9471  -30.1468   23.8883 C   0  0  0  0  0  0
  -17.6467  -30.6589   24.0562 C   0  0  0  0  0  0
  -25.9066  -34.9419   23.5075 C   0  0  0  0  0  0
  -16.5359  -29.9080   23.6331 C   0  0  0  0  0  0
  -16.7285  -28.6499   23.0353 C   0  0  0  0  0  0
  -26.4519  -31.6570   25.0718 C   0  0  0  0  0  0
  -25.3718  -31.3744   26.1422 C   0  0  0  0  0  0
  -27.0383  -30.2974   24.6264 C   0  0  0  0  0  0
  -27.6053  -32.4331   25.7500 C   0  0  0  0  0  0
  -27.5576  -37.1789   24.8465 C   0  0  0  0  0  0
  -21.4243  -29.3045   22.3627 N   0  0  0  0  0  0
  -26.4288  -37.3752   23.9407 N   0  0  0  0  0  0
  -24.7104  -31.0376   22.0926 N   0  0  0  0  0  0
  -23.4203  -28.8116   23.3028 O   0  0  0  0  0  0
  -28.2953  -26.2333   20.1758 O   0  0  0  0  0  0
  -26.5650  -34.8908   22.4651 O   0  0  0  0  0  0
  -23.5517  -32.1333   23.7157 O   0  0  0  0  0  0
  -28.2023  -19.4115   21.4306 C   0  0  0  0  0  0
  -30.0669  -19.7652   20.0585 C   0  0  0  0  0  0
  -28.9705  -20.3964   20.7438 C   0  0  0  0  0  0
  -28.4913  -18.0070   21.4273 C   0  0  0  0  0  0
  -29.5928  -17.4484   20.7138 C   0  0  0  0  0  0
  -28.5373  -21.9697   20.9574 C   0  0  0  0  0  0
  -28.8605  -23.3845   20.1554 C   0  0  0  0  0  0
  -28.0398  -24.7730   20.5933 C   0  0  0  0  0  0
  -30.3541  -18.3894   20.0399 N   0  0  0  0  0  0
  -29.6857  -15.9351   20.7788 N   0  0  0  0  0  0
  -27.4590  -16.9692   22.3497 Cl  0  0  0  0  0  0
  -31.4866  -12.6927   19.1821 H   0  0  0  0  0  0
  -30.4392  -11.5600   19.9874 H   0  0  0  0  0  0
  -29.8278  -11.7462   17.5553 H   0  0  0  0  0  0
  -29.6249  -13.4731   17.7162 H   0  0  0  0  0  0
  -27.9329  -11.2793   18.9489 H   0  0  0  0  0  0
  -27.3917  -12.4896   17.8147 H   0  0  0  0  0  0
  -27.6268  -14.2515   19.4606 H   0  0  0  0  0  0
  -28.7520  -12.1877   21.4193 H   0  0  0  0  0  0
  -28.3954  -13.8468   21.8122 H   0  0  0  0  0  0
  -25.2765   -9.5669   22.4768 H   0  0  0  0  0  0
  -23.9995   -7.4626   22.7479 H   0  0  0  0  0  0
  -21.0845   -8.8778   19.8953 H   0  0  0  0  0  0
  -22.3710  -10.9671   19.6171 H   0  0  0  0  0  0
  -21.2004   -7.6144   23.9713 H   0  0  0  0  0  0
  -21.1486   -6.0522   25.9079 H   0  0  0  0  0  0
  -22.0596   -2.7602   23.2851 H   0  0  0  0  0  0
  -22.4091  -11.9869   22.4815 H   0  0  0  0  0  0
  -21.1093  -13.1239   22.2649 H   0  0  0  0  0  0
  -24.6447  -15.8378   20.5370 H   0  0  0  0  0  0
  -26.2680  -15.6435   20.1230 H   0  0  0  0  0  0
  -26.7244  -32.5344   23.1029 H   0  0  0  0  0  0
  -25.0075  -33.9641   25.0349 H   0  0  0  0  0  0
  -22.7416  -31.2909   21.3818 H   0  0  0  0  0  0
  -23.3753  -35.9597   23.3295 H   0  0  0  0  0  0
  -24.3576  -36.8904   22.2058 H   0  0  0  0  0  0
  -23.7244  -37.6461   23.6682 H   0  0  0  0  0  0
  -26.1411  -31.4921   20.6095 H   0  0  0  0  0  0
  -26.8662  -30.7898   22.0218 H   0  0  0  0  0  0
  -28.1360  -28.8538   21.2221 H   0  0  0  0  0  0
  -25.9616  -25.8661   18.9979 H   0  0  0  0  0  0
  -23.9868  -27.2946   18.9882 H   0  0  0  0  0  0
  -23.8012  -30.5677   19.3986 H   0  0  0  0  0  0
  -22.7832  -29.2327   19.8461 H   0  0  0  0  0  0
  -25.1306  -36.1880   25.0811 H   0  0  0  0  0  0
  -20.9994  -28.3308   24.1369 H   0  0  0  0  0  0
  -20.5677  -26.2326   23.3622 H   0  0  0  0  0  0
  -21.6651  -26.7435   22.1205 H   0  0  0  0  0  0
  -19.6924  -25.6307   21.1227 H   0  0  0  0  0  0
  -19.6703  -27.3212   20.6739 H   0  0  0  0  0  0
  -17.4218  -26.6685   21.4009 H   0  0  0  0  0  0
  -18.0342  -26.0075   22.9003 H   0  0  0  0  0  0
  -19.7942  -30.7292   24.2253 H   0  0  0  0  0  0
  -17.5017  -31.6267   24.5167 H   0  0  0  0  0  0
  -15.5358  -30.2975   23.7661 H   0  0  0  0  0  0
  -15.8692  -28.0807   22.7072 H   0  0  0  0  0  0
  -24.5896  -30.7094   25.7745 H   0  0  0  0  0  0
  -24.8911  -32.2925   26.4813 H   0  0  0  0  0  0
  -25.8014  -30.8941   27.0222 H   0  0  0  0  0  0
  -26.2994  -29.6699   24.1270 H   0  0  0  0  0  0
  -27.4015  -29.7265   25.4820 H   0  0  0  0  0  0
  -27.8890  -30.4223   23.9561 H   0  0  0  0  0  0
  -27.2644  -33.3640   26.2042 H   0  0  0  0  0  0
  -28.3883  -32.6879   25.0346 H   0  0  0  0  0  0
  -28.0703  -31.8485   26.5448 H   0  0  0  0  0  0
  -28.2588  -38.0089   24.7509 H   0  0  0  0  0  0
  -28.1076  -36.2619   24.6297 H   0  0  0  0  0  0
  -27.2294  -37.1443   25.8868 H   0  0  0  0  0  0
  -20.9451  -29.8760   21.6808 H   0  0  0  0  0  0
  -26.0158  -38.2821   24.1408 H   0  0  0  0  0  0
  -27.3548  -19.7422   22.0132 H   0  0  0  0  0  0
  -30.7623  -20.3815   19.5080 H   0  0  0  0  0  0
  -28.8047  -22.1703   21.9957 H   0  0  0  0  0  0
  -27.4475  -21.9284   20.9764 H   0  0  0  0  0  0
  -28.6807  -23.2214   19.0927 H   0  0  0  0  0  0
  -29.9290  -23.5815   20.2426 H   0  0  0  0  0  0
  -28.1182  -24.8144   21.6802 H   0  0  0  0  0  0
  -26.9879  -24.5479   20.4265 H   0  0  0  0  0  0
  -28.8314  -15.5672   21.1671 H   0  0  0  0  0  0
  1 25  1  0  0  0
  1 30  2  0  0  0
  1 80  1  0  0  0
  2  3  1  0  0  0
  2 25  1  0  0  0
  2 82  1  0  0  0
  2 83  1  0  0  0
  3  4  1  0  0  0
  3 84  1  0  0  0
  3 85  1  0  0  0
  4  5  1  0  0  0
  4 86  1  0  0  0
  4 87  1  0  0  0
  5  6  1  0  0  0
  5 26  1  0  0  0
  5 88  1  0  0  0
  6 25  1  0  0  0
  6 89  1  0  0  0
  6 90  1  0  0  0
  7  8  2  0  0  0
  7 26  1  0  0  0
  7 29  1  0  0  0
  8  9  1  0  0  0
  8 22  1  0  0  0
  9 10  1  0  0  0
  9 27  2  0  0  0
 10 11  2  0  0  0
 10 15  1  0  0  0
 11 12  1  0  0  0
 11 91  1  0  0  0
 12 13  2  0  0  0
 12 92  1  0  0  0
 13 14  1  0  0  0
 13 31  1  0  0  0
 14 15  2  0  0  0
 14 93  1  0  0  0
 15 94  1  0  0  0
 16 17  2  0  0  0
 16 21  1  0  0  0
 16 31  1  0  0  0
 17 18  1  0  0  0
 17 95  1  0  0  0
 18 19  2  0  0  0
 18 96  1  0  0  0
 19 20  1  0  0  0
 19 24  1  0  0  0
 20 21  2  0  0  0
 20 97  1  0  0  0
 21 23  1  0  0  0
 22 28  1  0  0  0
 22 32  2  0  0  0
 26 27  1  0  0  0
 28 98  1  0  0  0
 28 99  1  0  0  0
 29100  1  0  0  0
 29101  1  0  0  0
 33 34  1  0  0  0
 33 66  1  0  0  0
 33 70  2  0  0  0
 34 36  1  0  0  0
 34 59  1  0  0  0
 34102  1  0  0  0
 35 44  2  0  0  0
 35 45  1  0  0  0
 35 68  1  0  0  0
 36 56  1  0  0  0
 36103  1  0  0  0
 37 39  1  0  0  0
 37 47  1  0  0  0
 37 66  1  0  0  0
 37104  1  0  0  0
 38 43  2  0  0  0
 38 46  1  0  0  0
 38 47  1  0  0  0
 39 64  1  0  0  0
 39 67  2  0  0  0
 40 52  1  0  0  0
 40 53  2  0  0  0
 40 58  1  0  0  0
 41105  1  0  0  0
 41106  1  0  0  0
 41107  1  0  0  0
 41 48  1  0  0  0
 42 43  1  0  0  0
 42 66  1  0  0  0
 42108  1  0  0  0
 42109  1  0  0  0
 43 44  1  0  0  0
 44110  1  0  0  0
 45 46  2  0  0  0
 45111  1  0  0  0
 46112  1  0  0  0
 47113  1  0  0  0
 47114  1  0  0  0
 48 56  1  0  0  0
 48 65  1  0  0  0
 48115  1  0  0  0
 49 50  1  0  0  0
 49 53  1  0  0  0
 49 64  1  0  0  0
 49116  1  0  0  0
 50 51  1  0  0  0
 50117  1  0  0  0
 50118  1  0  0  0
 51 52  1  0  0  0
 51119  1  0  0  0
 51120  1  0  0  0
 52121  1  0  0  0
 52122  1  0  0  0
 53 54  1  0  0  0
 54 55  2  0  0  0
 54123  1  0  0  0
 55 57  1  0  0  0
 55124  1  0  0  0
 56 69  2  0  0  0
 57 58  2  0  0  0
 57125  1  0  0  0
 58126  1  0  0  0
 59 60  1  0  0  0
 59 61  1  0  0  0
 59 62  1  0  0  0
 60127  1  0  0  0
 60128  1  0  0  0
 60129  1  0  0  0
 61130  1  0  0  0
 61131  1  0  0  0
 61132  1  0  0  0
 62133  1  0  0  0
 62134  1  0  0  0
 62135  1  0  0  0
 63 65  1  0  0  0
 63136  1  0  0  0
 63137  1  0  0  0
 63138  1  0  0  0
 64139  1  0  0  0
 65140  1  0  0  0
 68 78  1  0  0  0
 71 73  2  0  0  0
 71 74  1  0  0  0
 71141  1  0  0  0
 72 73  1  0  0  0
 72 79  2  0  0  0
 72142  1  0  0  0
 73 76  1  0  0  0
 74 75  2  0  0  0
 74 81  1  0  0  0
 75 79  1  0  0  0
 75 80  1  0  0  0
 76 77  1  0  0  0
 76143  1  0  0  0
 76144  1  0  0  0
 77 78  1  0  0  0
 77145  1  0  0  0
 77146  1  0  0  0
 78147  1  0  0  0
 78148  1  0  0  0
 80149  1  0  0  0
M  ISO  4   1 100  68 101  78 101  80 100
M  END
> <chiral flag>
0

> <version>
0

> <s_m_source_file>
/data/baiqing/PycharmProjects/Reinvent-master-3.2/result/LINK_invent/BTK/process_docking_weight1_custom_sum_contain_oxygen_bond_distance_aromatic_linkinvent_7_9_3/rearranged_h_0028.sdf

> <i_m_source_file_index>
15

> <r_mmod_Potential_Energy-OPLS-2005>
277.878356933594

> <r_mmod_Stretch_Energy-OPLS-2005>
192.942245483398

> <r_mmod_Bend_Energy-OPLS-2005>
281.141693115234

> <r_mmod_Torsional_Energy-OPLS-2005>
215.891296386719

> <r_mmod_Improper_Torsional_Energy-OPLS-2005>
3.18623495101929

> <r_mmod_Van_der_Waal_Energy-OPLS-2005>
132.443405151367

> <r_mmod_Electrostatic_Energy-OPLS-2005>
-468.562042236328

> <r_mmod_Solvation_Energy-OPLS-2005>
-222.177688598633

> <b_mmod_Minimization_Converged-OPLS-2005>
0

> <r_mmod_RMS_Derivative-OPLS-2005>
0.559045314788818

$$$$
15
                    3D
 Structure written by MMmdl.
153161  0  0  1  0            999 V2000
  -30.5304  -14.9441   20.4771 C   0  0  0  0  0  0
  -30.4435  -12.5894   19.5203 C   0  0  0  0  0  0
  -29.5384  -12.5685   18.2628 C   0  0  0  0  0  0
  -28.0558  -12.3766   18.6448 C   0  0  0  0  0  0
  -27.6355  -13.2618   19.8467 C   0  0  2  0  0  0
  -28.6716  -13.2487   20.9938 C   0  0  0  0  0  0
  -25.2489  -13.8242   20.5712 C   0  0  0  0  0  0
  -24.1794  -13.0471   20.9226 C   0  0  0  0  0  0
  -24.6428  -11.6959   20.8747 C   0  0  0  0  0  0
  -23.9107  -10.4315   21.0368 C   0  0  0  0  0  0
  -24.3642   -9.4216   21.9141 C   0  0  0  0  0  0
  -23.6326   -8.2236   22.0699 C   0  0  0  0  0  0
  -22.4297   -8.0265   21.3520 C   0  0  0  0  0  0
  -21.9953   -9.0238   20.4600 C   0  0  0  0  0  0
  -22.7284  -10.2133   20.3019 C   0  0  0  0  0  0
  -21.6850   -6.0730   22.5262 C   0  0  0  0  0  0
  -21.4027   -6.5638   23.8202 C   0  0  0  0  0  0
  -21.3670   -5.6793   24.9169 C   0  0  0  0  0  0
  -21.6046   -4.3050   24.7211 C   0  0  0  0  0  0
  -21.8833   -3.8141   23.4337 C   0  0  0  0  0  0
  -21.9210   -4.6953   22.3399 C   0  0  0  0  0  0
  -22.7802  -13.5224   21.1842 C   0  0  0  0  0  0
  -22.1656   -4.2150   21.0970 F   0  0  0  0  0  0
  -21.5631   -3.4527   25.7718 F   0  0  0  0  0  0
  -29.9511  -13.6730   20.4226 N   0  0  0  0  0  0
  -26.2909  -12.9511   20.3243 N   0  0  0  0  0  0
  -25.9353  -11.6626   20.5675 N   0  0  0  0  0  0
  -22.0456  -12.8231   22.0420 N   0  0  0  0  0  0
  -25.4207  -15.1956   20.4152 N   0  0  0  0  0  0
  -31.7146  -15.0272   20.1367 O   0  0  0  0  0  0
  -21.6645   -6.8862   21.4217 O   0  0  0  0  0  0
  -22.3474  -14.5490   20.6616 O   0  0  0  0  0  0
  -24.6493  -31.8393   23.1909 C   0  0  0  0  0  0
  -25.9227  -32.4680   23.8302 C   0  0  1  0  0  0
  -27.2003  -27.1017   20.1885 C   0  0  0  0  0  0
  -25.5960  -33.8496   24.2195 N   0  0  0  0  0  0
  -23.4522  -30.4600   21.5387 C   0  0  2  0  0  0
  -24.9021  -28.8859   20.1115 C   0  0  0  0  0  0
  -22.7602  -29.4489   22.4899 C   0  0  0  0  0  0
  -18.0290  -28.1344   22.8470 C   0  0  0  0  0  0
  -24.1485  -36.7256   23.2646 C   0  0  0  0  0  0
  -26.0124  -30.7059   21.3932 C   0  0  0  0  0  0
  -26.0806  -29.3167   20.7363 C   0  0  0  0  0  0
  -27.2362  -28.4441   20.7507 C   0  0  0  0  0  0
  -26.0035  -26.7871   19.5095 C   0  0  0  0  0  0
  -24.8806  -27.6391   19.4712 C   0  0  0  0  0  0
  -23.6792  -29.7888   20.1570 C   0  0  0  0  0  0
  -25.4124  -36.3062   24.0334 C   0  0  1  0  0  0
  -20.5907  -28.3672   23.1228 C   0  0  2  0  0  0
  -20.6759  -26.9362   22.5405 C   0  0  0  0  0  0
  -19.5728  -26.6309   21.5205 C   0  0  0  0  0  0
  -18.1920  -26.7882   22.1614 C   0  0  0  0  0  0
  -19.1545  -28.8839   23.2827 C   0  0  0  0  0  0
  -18.9456  -30.1445   23.8834 C   0  0  0  0  0  0
  -17.6445  -30.6543   24.0540 C   0  0  0  0  0  0
  -25.9070  -34.9427   23.5075 C   0  0  0  0  0  0
  -16.5339  -29.9022   23.6342 C   0  0  0  0  0  0
  -16.7270  -28.6445   23.0354 C   0  0  0  0  0  0
  -26.4522  -31.6581   25.0781 C   0  0  0  0  0  0
  -25.3689  -31.3770   26.1456 C   0  0  0  0  0  0
  -27.0387  -30.2985   24.6395 C   0  0  0  0  0  0
  -27.6079  -32.4328   25.7542 C   0  0  0  0  0  0
  -27.5582  -37.1788   24.8453 C   0  0  0  0  0  0
  -21.4298  -29.3000   22.3637 N   0  0  0  0  0  0
  -26.4290  -37.3780   23.9407 N   0  0  0  0  0  0
  -24.7253  -31.0217   22.0952 N   0  0  0  0  0  0
  -23.4253  -28.8024   23.3028 O   0  0  0  0  0  0
  -28.2264  -26.0856   20.2720 O   0  0  0  0  0  0
  -26.5656  -34.8930   22.4650 O   0  0  0  0  0  0
  -23.5595  -32.1261   23.7105 O   0  0  0  0  0  0
  -29.2938  -20.3972   20.4452 C   0  0  0  0  0  0
  -27.9526  -20.0978   22.8161 C   0  0  0  0  0  0
  -28.7076  -21.6470   21.0279 C   0  0  0  0  0  0
  -29.2481  -19.0130   21.0119 C   0  0  0  0  0  0
  -28.0526  -21.4050   22.2691 C   0  0  0  0  0  0
  -28.5350  -18.9453   22.2333 C   0  0  0  0  0  0
  -27.5005  -22.5403   23.1199 C   0  0  0  0  0  0
  -28.9341  -23.2154   20.4866 C   0  0  0  0  0  0
  -30.0131  -17.6579   20.4164 C   0  0  0  0  0  0
  -27.8864  -24.5651   20.5008 C   0  0  0  0  0  0
  -29.7505  -16.1158   20.7105 N   0  0  0  0  0  0
  -28.3878  -17.4639   23.1119 Cl  0  0  0  0  0  0
  -31.4846  -12.7425   19.2283 H   0  0  0  0  0  0
  -30.4185  -11.6230   20.0296 H   0  0  0  0  0  0
  -29.8674  -11.7910   17.5726 H   0  0  0  0  0  0
  -29.6478  -13.5137   17.7325 H   0  0  0  0  0  0
  -27.9082  -11.3256   18.8866 H   0  0  0  0  0  0
  -27.4157  -12.5802   17.7825 H   0  0  0  0  0  0
  -27.6078  -14.2822   19.4614 H   0  0  0  0  0  0
  -28.7503  -12.2520   21.4305 H   0  0  0  0  0  0
  -28.3698  -13.9204   21.8016 H   0  0  0  0  0  0
  -25.2773   -9.5704   22.4733 H   0  0  0  0  0  0
  -24.0036   -7.4662   22.7450 H   0  0  0  0  0  0
  -21.0857   -8.8788   19.8952 H   0  0  0  0  0  0
  -22.3715  -10.9670   19.6143 H   0  0  0  0  0  0
  -21.1995   -7.6154   23.9724 H   0  0  0  0  0  0
  -21.1481   -6.0494   25.9081 H   0  0  0  0  0  0
  -22.0600   -2.7602   23.2828 H   0  0  0  0  0  0
  -22.4029  -11.9915   22.4933 H   0  0  0  0  0  0
  -21.1021  -13.1181   22.2488 H   0  0  0  0  0  0
  -24.6672  -15.8633   20.5307 H   0  0  0  0  0  0
  -26.2751  -15.6244   20.0881 H   0  0  0  0  0  0
  -26.7321  -32.5284   23.1052 H   0  0  0  0  0  0
  -25.0159  -33.9606   25.0382 H   0  0  0  0  0  0
  -22.7594  -31.2906   21.3840 H   0  0  0  0  0  0
  -23.3786  -35.9538   23.3279 H   0  0  0  0  0  0
  -24.3558  -36.8904   22.2059 H   0  0  0  0  0  0
  -23.7191  -37.6436   23.6671 H   0  0  0  0  0  0
  -26.1777  -31.4582   20.6199 H   0  0  0  0  0  0
  -26.8831  -30.7550   22.0387 H   0  0  0  0  0  0
  -28.1334  -28.7649   21.2625 H   0  0  0  0  0  0
  -25.9043  -25.8378   19.0073 H   0  0  0  0  0  0
  -23.9925  -27.3133   18.9474 H   0  0  0  0  0  0
  -23.8133  -30.5585   19.3971 H   0  0  0  0  0  0
  -22.7974  -29.2257   19.8477 H   0  0  0  0  0  0
  -25.1310  -36.1919   25.0835 H   0  0  0  0  0  0
  -21.0006  -28.3212   24.1336 H   0  0  0  0  0  0
  -20.5570  -26.2278   23.3625 H   0  0  0  0  0  0
  -21.6631  -26.7276   22.1241 H   0  0  0  0  0  0
  -19.6871  -25.6211   21.1233 H   0  0  0  0  0  0
  -19.6669  -27.3115   20.6741 H   0  0  0  0  0  0
  -17.4199  -26.6639   21.4013 H   0  0  0  0  0  0
  -18.0291  -26.0007   22.8988 H   0  0  0  0  0  0
  -19.7937  -30.7270   24.2163 H   0  0  0  0  0  0
  -17.4993  -31.6222   24.5120 H   0  0  0  0  0  0
  -15.5335  -30.2888   23.7680 H   0  0  0  0  0  0
  -15.8681  -28.0736   22.7083 H   0  0  0  0  0  0
  -24.5890  -30.7089   25.7771 H   0  0  0  0  0  0
  -24.8839  -32.2941   26.4825 H   0  0  0  0  0  0
  -25.7959  -30.8986   27.0285 H   0  0  0  0  0  0
  -26.3025  -29.6720   24.1349 H   0  0  0  0  0  0
  -27.3925  -29.7290   25.5004 H   0  0  0  0  0  0
  -27.8970  -30.4226   23.9788 H   0  0  0  0  0  0
  -27.2710  -33.3646   26.2090 H   0  0  0  0  0  0
  -28.3899  -32.6836   25.0366 H   0  0  0  0  0  0
  -28.0736  -31.8468   26.5472 H   0  0  0  0  0  0
  -28.2601  -38.0098   24.7568 H   0  0  0  0  0  0
  -28.1083  -36.2637   24.6200 H   0  0  0  0  0  0
  -27.2300  -37.1370   25.8857 H   0  0  0  0  0  0
  -20.9522  -29.8801   21.6894 H   0  0  0  0  0  0
  -26.0171  -38.2852   24.1410 H   0  0  0  0  0  0
  -29.8525  -20.5118   19.5270 H   0  0  0  0  0  0
  -27.4512  -19.9641   23.7648 H   0  0  0  0  0  0
  -27.2190  -22.2057   24.1187 H   0  0  0  0  0  0
  -26.5983  -22.9620   22.6743 H   0  0  0  0  0  0
  -28.2499  -23.3241   23.2536 H   0  0  0  0  0  0
  -29.2673  -23.1065   19.4547 H   0  0  0  0  0  0
  -29.8223  -23.5396   21.0307 H   0  0  0  0  0  0
  -31.0709  -17.8106   20.6399 H   0  0  0  0  0  0
  -29.9553  -17.7608   19.3331 H   0  0  0  0  0  0
  -27.3957  -24.5870   21.4686 H   0  0  0  0  0  0
  -27.0939  -24.2961   19.8036 H   0  0  0  0  0  0
  -28.8143  -15.9161   21.0326 H   0  0  0  0  0  0
  1 25  1  0  0  0
  1 30  2  0  0  0
  1 81  1  0  0  0
  2  3  1  0  0  0
  2 25  1  0  0  0
  2 83  1  0  0  0
  2 84  1  0  0  0
  3  4  1  0  0  0
  3 85  1  0  0  0
  3 86  1  0  0  0
  4  5  1  0  0  0
  4 87  1  0  0  0
  4 88  1  0  0  0
  5  6  1  0  0  0
  5 26  1  0  0  0
  5 89  1  0  0  0
  6 25  1  0  0  0
  6 90  1  0  0  0
  6 91  1  0  0  0
  7  8  2  0  0  0
  7 26  1  0  0  0
  7 29  1  0  0  0
  8  9  1  0  0  0
  8 22  1  0  0  0
  9 10  1  0  0  0
  9 27  2  0  0  0
 10 11  2  0  0  0
 10 15  1  0  0  0
 11 12  1  0  0  0
 11 92  1  0  0  0
 12 13  2  0  0  0
 12 93  1  0  0  0
 13 14  1  0  0  0
 13 31  1  0  0  0
 14 15  2  0  0  0
 14 94  1  0  0  0
 15 95  1  0  0  0
 16 17  2  0  0  0
 16 21  1  0  0  0
 16 31  1  0  0  0
 17 18  1  0  0  0
 17 96  1  0  0  0
 18 19  2  0  0  0
 18 97  1  0  0  0
 19 20  1  0  0  0
 19 24  1  0  0  0
 20 21  2  0  0  0
 20 98  1  0  0  0
 21 23  1  0  0  0
 22 28  1  0  0  0
 22 32  2  0  0  0
 26 27  1  0  0  0
 28 99  1  0  0  0
 28100  1  0  0  0
 29101  1  0  0  0
 29102  1  0  0  0
 33 34  1  0  0  0
 33 66  1  0  0  0
 33 70  2  0  0  0
 34 36  1  0  0  0
 34 59  1  0  0  0
 34103  1  0  0  0
 35 44  2  0  0  0
 35 45  1  0  0  0
 35 68  1  0  0  0
 36 56  1  0  0  0
 36104  1  0  0  0
 37 39  1  0  0  0
 37 47  1  0  0  0
 37 66  1  0  0  0
 37105  1  0  0  0
 38 43  2  0  0  0
 38 46  1  0  0  0
 38 47  1  0  0  0
 39 64  1  0  0  0
 39 67  2  0  0  0
 40 52  1  0  0  0
 40 53  2  0  0  0
 40 58  1  0  0  0
 41106  1  0  0  0
 41107  1  0  0  0
 41108  1  0  0  0
 41 48  1  0  0  0
 42 43  1  0  0  0
 42 66  1  0  0  0
 42109  1  0  0  0
 42110  1  0  0  0
 43 44  1  0  0  0
 44111  1  0  0  0
 45 46  2  0  0  0
 45112  1  0  0  0
 46113  1  0  0  0
 47114  1  0  0  0
 47115  1  0  0  0
 48 56  1  0  0  0
 48 65  1  0  0  0
 48116  1  0  0  0
 49 50  1  0  0  0
 49 53  1  0  0  0
 49 64  1  0  0  0
 49117  1  0  0  0
 50 51  1  0  0  0
 50118  1  0  0  0
 50119  1  0  0  0
 51 52  1  0  0  0
 51120  1  0  0  0
 51121  1  0  0  0
 52122  1  0  0  0
 52123  1  0  0  0
 53 54  1  0  0  0
 54 55  2  0  0  0
 54124  1  0  0  0
 55 57  1  0  0  0
 55125  1  0  0  0
 56 69  2  0  0  0
 57 58  2  0  0  0
 57126  1  0  0  0
 58127  1  0  0  0
 59 60  1  0  0  0
 59 61  1  0  0  0
 59 62  1  0  0  0
 60128  1  0  0  0
 60129  1  0  0  0
 60130  1  0  0  0
 61131  1  0  0  0
 61132  1  0  0  0
 61133  1  0  0  0
 62134  1  0  0  0
 62135  1  0  0  0
 62136  1  0  0  0
 63 65  1  0  0  0
 63137  1  0  0  0
 63138  1  0  0  0
 63139  1  0  0  0
 64140  1  0  0  0
 65141  1  0  0  0
 68 80  1  0  0  0
 71 73  2  0  0  0
 71 74  1  0  0  0
 71142  1  0  0  0
 72 75  2  0  0  0
 72 76  1  0  0  0
 72143  1  0  0  0
 73 75  1  0  0  0
 73 78  1  0  0  0
 74 76  2  0  0  0
 74 79  1  0  0  0
 75 77  1  0  0  0
 76 82  1  0  0  0
 77144  1  0  0  0
 77145  1  0  0  0
 77146  1  0  0  0
 78 80  1  0  0  0
 78147  1  0  0  0
 78148  1  0  0  0
 79 81  1  0  0  0
 79149  1  0  0  0
 79150  1  0  0  0
 80151  1  0  0  0
 80152  1  0  0  0
 81153  1  0  0  0
M  ISO  4   1 100  68 101  80 101  81 100
M  END
> <chiral flag>
0

> <version>
0

> <s_m_source_file>
/data/baiqing/PycharmProjects/Reinvent-master-3.2/result/LINK_invent/BTK/process_docking_weight1_custom_sum_contain_oxygen_bond_distance_aromatic_linkinvent_7_9_3/rearranged_h_0028.sdf

> <i_m_source_file_index>
16

> <r_mmod_Potential_Energy-OPLS-2005>
530.079772949219

> <r_mmod_Stretch_Energy-OPLS-2005>
292.933319091797

> <r_mmod_Bend_Energy-OPLS-2005>
262.515960693359

> <r_mmod_Torsional_Energy-OPLS-2005>
213.385406494141

> <r_mmod_Improper_Torsional_Energy-OPLS-2005>
5.80683279037476

> <r_mmod_Van_der_Waal_Energy-OPLS-2005>
132.462020874023

> <r_mmod_Electrostatic_Energy-OPLS-2005>
-381.339172363281

> <r_mmod_Solvation_Energy-OPLS-2005>
-202.40315246582

> <b_mmod_Minimization_Converged-OPLS-2005>
0

> <r_mmod_RMS_Derivative-OPLS-2005>
5.72097778320312

$$$$
16
                    3D
 Structure written by MMmdl.
163171  0  0  1  0            999 V2000
  -30.7993  -14.2987   20.7245 C   0  0  0  0  0  0
  -30.4183  -12.2744   19.3698 C   0  0  0  0  0  0
  -29.4747  -12.5263   18.1802 C   0  0  0  0  0  0
  -28.0037  -12.3753   18.6077 C   0  0  0  0  0  0
  -27.6708  -13.1937   19.8800 C   0  0  2  0  0  0
  -28.7111  -12.9178   20.9890 C   0  0  0  0  0  0
  -25.2631  -13.8119   20.5690 C   0  0  0  0  0  0
  -24.1860  -13.0414   20.9174 C   0  0  0  0  0  0
  -24.6389  -11.6876   20.8745 C   0  0  0  0  0  0
  -23.9052  -10.4272   21.0423 C   0  0  0  0  0  0
  -24.3618   -9.4179   21.9190 C   0  0  0  0  0  0
  -23.6297   -8.2213   22.0752 C   0  0  0  0  0  0
  -22.4262   -8.0267   21.3553 C   0  0  0  0  0  0
  -21.9880   -9.0255   20.4675 C   0  0  0  0  0  0
  -22.7234  -10.2120   20.3073 C   0  0  0  0  0  0
  -21.6870   -6.0713   22.5288 C   0  0  0  0  0  0
  -21.4033   -6.5629   23.8219 C   0  0  0  0  0  0
  -21.3656   -5.6788   24.9185 C   0  0  0  0  0  0
  -21.6042   -4.3052   24.7250 C   0  0  0  0  0  0
  -21.8826   -3.8129   23.4379 C   0  0  0  0  0  0
  -21.9200   -4.6939   22.3424 C   0  0  0  0  0  0
  -22.7866  -13.5213   21.1825 C   0  0  0  0  0  0
  -22.1665   -4.2109   21.1004 F   0  0  0  0  0  0
  -21.5599   -3.4533   25.7760 F   0  0  0  0  0  0
  -30.0639  -13.1921   20.4594 N   0  0  0  0  0  0
  -26.3069  -12.9275   20.3399 N   0  0  0  0  0  0
  -25.9318  -11.6441   20.5778 N   0  0  0  0  0  0
  -22.0411  -12.8144   22.0280 N   0  0  0  0  0  0
  -25.4369  -15.1832   20.4099 N   0  0  0  0  0  0
  -31.7526  -14.6808   20.0380 O   0  0  0  0  0  0
  -21.6645   -6.8865   21.4257 O   0  0  0  0  0  0
  -22.3599  -14.5566   20.6742 O   0  0  0  0  0  0
  -24.6130  -31.8710   23.2129 C   0  0  0  0  0  0
  -25.9038  -32.4844   23.8422 C   0  0  1  0  0  0
  -27.2347  -27.4786   20.0622 C   0  0  0  0  0  0
  -25.5917  -33.8649   24.2342 N   0  0  0  0  0  0
  -23.3970  -30.4969   21.5545 C   0  0  2  0  0  0
  -24.8388  -28.9728   20.1074 C   0  0  0  0  0  0
  -22.7397  -29.4699   22.5028 C   0  0  0  0  0  0
  -18.0288  -28.1355   22.8474 C   0  0  0  0  0  0
  -24.1481  -36.7323   23.2629 C   0  0  0  0  0  0
  -25.9238  -30.8456   21.3612 C   0  0  0  0  0  0
  -25.9984  -29.4878   20.6996 C   0  0  0  0  0  0
  -27.2003  -28.7502   20.6698 C   0  0  0  0  0  0
  -26.0576  -26.9738   19.4598 C   0  0  0  0  0  0
  -24.8626  -27.7152   19.4824 C   0  0  0  0  0  0
  -23.5980  -29.8338   20.1669 C   0  0  0  0  0  0
  -25.4110  -36.3131   24.0325 C   0  0  1  0  0  0
  -20.5871  -28.3665   23.1340 C   0  0  2  0  0  0
  -20.6800  -26.9388   22.5485 C   0  0  0  0  0  0
  -19.5800  -26.6328   21.5265 C   0  0  0  0  0  0
  -18.1956  -26.7899   22.1621 C   0  0  0  0  0  0
  -19.1526  -28.8835   23.2891 C   0  0  0  0  0  0
  -18.9432  -30.1457   23.8870 C   0  0  0  0  0  0
  -17.6427  -30.6570   24.0531 C   0  0  0  0  0  0
  -25.9037  -34.9491   23.5119 C   0  0  0  0  0  0
  -16.5327  -29.9048   23.6296 C   0  0  0  0  0  0
  -16.7275  -28.6472   23.0305 C   0  0  0  0  0  0
  -26.4466  -31.6619   25.0743 C   0  0  0  0  0  0
  -25.3755  -31.3700   26.1506 C   0  0  0  0  0  0
  -27.0283  -30.3070   24.6098 C   0  0  0  0  0  0
  -27.6057  -32.4330   25.7496 C   0  0  0  0  0  0
  -27.5578  -37.1822   24.8462 C   0  0  0  0  0  0
  -21.4139  -29.3018   22.3736 N   0  0  0  0  0  0
  -26.4292  -37.3822   23.9402 N   0  0  0  0  0  0
  -24.6631  -31.0842   22.1013 N   0  0  0  0  0  0
  -23.4177  -28.8321   23.3119 O   0  0  0  0  0  0
  -28.4171  -26.7726   20.0821 O   0  0  0  0  0  0
  -26.5593  -34.8932   22.4675 O   0  0  0  0  0  0
  -23.5328  -32.1468   23.7532 O   0  0  0  0  0  0
  -27.4034  -22.5278   21.4381 C   0  0  0  0  0  0
  -24.6799  -22.6911   21.6972 C   0  0  0  0  0  0
  -26.8310  -23.7995   21.6232 C   0  0  0  0  0  0
  -25.4268  -23.8824   21.7747 C   0  0  0  0  0  0
  -26.5708  -21.3953   21.4177 C   0  0  0  0  0  0
  -27.7387  -25.0171   21.6608 C   0  0  0  0  0  0
  -29.6930  -18.1651   23.3816 C   0  0  0  0  0  0
  -28.5927  -18.3929   22.3293 C   0  0  0  0  0  0
  -30.0969  -16.6908   23.5004 C   0  0  0  0  0  0
  -28.2341  -19.8750   22.2116 C   0  0  0  0  0  0
  -30.9573  -16.1941   22.3234 C   0  0  0  0  0  0
  -28.3152  -25.3603   20.2695 C   0  0  0  0  0  0
  -25.2344  -21.4684   21.5223 N   0  0  0  0  0  0
  -27.0928  -20.1073   21.3354 N   0  0  0  0  0  0
  -30.4614  -14.9100   21.8610 N   0  0  0  0  0  0
  -24.6042  -25.3739   22.0669 Cl  0  0  0  0  0  0
  -31.4576  -12.3874   19.0548 H   0  0  0  0  0  0
  -30.3235  -11.2445   19.7176 H   0  0  0  0  0  0
  -29.6969  -11.8257   17.3748 H   0  0  0  0  0  0
  -29.6439  -13.5243   17.7728 H   0  0  0  0  0  0
  -27.8181  -11.3165   18.7929 H   0  0  0  0  0  0
  -27.3376  -12.6613   17.7917 H   0  0  0  0  0  0
  -27.7366  -14.2492   19.6118 H   0  0  0  0  0  0
  -28.6617  -11.8730   21.3005 H   0  0  0  0  0  0
  -28.4549  -13.4939   21.8771 H   0  0  0  0  0  0
  -25.2764   -9.5626   22.4763 H   0  0  0  0  0  0
  -24.0014   -7.4585   22.7432 H   0  0  0  0  0  0
  -21.0789   -8.8791   19.9010 H   0  0  0  0  0  0
  -22.3697  -10.9652   19.6171 H   0  0  0  0  0  0
  -21.2045   -7.6143   23.9719 H   0  0  0  0  0  0
  -21.1465   -6.0517   25.9084 H   0  0  0  0  0  0
  -22.0603   -2.7583   23.2905 H   0  0  0  0  0  0
  -22.3890  -11.9684   22.4559 H   0  0  0  0  0  0
  -21.0989  -13.1145   22.2330 H   0  0  0  0  0  0
  -24.6769  -15.8463   20.5173 H   0  0  0  0  0  0
  -26.3005  -15.6169   20.1105 H   0  0  0  0  0  0
  -26.7116  -32.5542   23.1196 H   0  0  0  0  0  0
  -25.0114  -33.9834   25.0518 H   0  0  0  0  0  0
  -22.6841  -31.3135   21.4226 H   0  0  0  0  0  0
  -23.3745  -35.9657   23.3313 H   0  0  0  0  0  0
  -24.3565  -36.8919   22.2038 H   0  0  0  0  0  0
  -23.7232  -37.6531   23.6634 H   0  0  0  0  0  0
  -26.0388  -31.6180   20.6000 H   0  0  0  0  0  0
  -26.8111  -30.8885   21.9809 H   0  0  0  0  0  0
  -28.0986  -29.1508   21.1188 H   0  0  0  0  0  0
  -26.0390  -26.0193   18.9585 H   0  0  0  0  0  0
  -23.9732  -27.3169   19.0123 H   0  0  0  0  0  0
  -23.6999  -30.6125   19.4098 H   0  0  0  0  0  0
  -22.7219  -29.2532   19.8743 H   0  0  0  0  0  0
  -25.1287  -36.1999   25.0821 H   0  0  0  0  0  0
  -20.9941  -28.3277   24.1471 H   0  0  0  0  0  0
  -20.5666  -26.2306   23.3698 H   0  0  0  0  0  0
  -21.6691  -26.7399   22.1332 H   0  0  0  0  0  0
  -19.6967  -25.6204   21.1376 H   0  0  0  0  0  0
  -19.6776  -27.3102   20.6760 H   0  0  0  0  0  0
  -17.4266  -26.6649   21.3988 H   0  0  0  0  0  0
  -18.0304  -26.0034   22.8995 H   0  0  0  0  0  0
  -19.7900  -30.7300   24.2210 H   0  0  0  0  0  0
  -17.4961  -31.6252   24.5120 H   0  0  0  0  0  0
  -15.5320  -30.2929   23.7604 H   0  0  0  0  0  0
  -15.8687  -28.0792   22.6968 H   0  0  0  0  0  0
  -24.5921  -30.7052   25.7843 H   0  0  0  0  0  0
  -24.8954  -32.2838   26.5013 H   0  0  0  0  0  0
  -25.8128  -30.8833   27.0232 H   0  0  0  0  0  0
  -26.2807  -29.6857   24.1151 H   0  0  0  0  0  0
  -27.4053  -29.7281   25.4537 H   0  0  0  0  0  0
  -27.8651  -30.4392   23.9239 H   0  0  0  0  0  0
  -27.2694  -33.3610   26.2132 H   0  0  0  0  0  0
  -28.3841  -32.6926   25.0309 H   0  0  0  0  0  0
  -28.0776  -31.8433   26.5364 H   0  0  0  0  0  0
  -28.2616  -38.0103   24.7522 H   0  0  0  0  0  0
  -28.1053  -36.2639   24.6285 H   0  0  0  0  0  0
  -27.2294  -37.1479   25.8865 H   0  0  0  0  0  0
  -20.9291  -29.8711   21.6939 H   0  0  0  0  0  0
  -26.0175  -38.2893   24.1432 H   0  0  0  0  0  0
  -28.4746  -22.4405   21.3242 H   0  0  0  0  0  0
  -23.6053  -22.7168   21.7983 H   0  0  0  0  0  0
  -28.5587  -24.8209   22.3514 H   0  0  0  0  0  0
  -27.2080  -25.8618   22.0958 H   0  0  0  0  0  0
  -29.3230  -18.5014   24.3513 H   0  0  0  0  0  0
  -30.5678  -18.7784   23.1591 H   0  0  0  0  0  0
  -27.7117  -17.8126   22.6045 H   0  0  0  0  0  0
  -28.9124  -18.0234   21.3541 H   0  0  0  0  0  0
  -29.1895  -16.0949   23.6100 H   0  0  0  0  0  0
  -30.6536  -16.5394   24.4262 H   0  0  0  0  0  0
  -29.1023  -20.4143   21.8342 H   0  0  0  0  0  0
  -28.0127  -20.2796   23.2015 H   0  0  0  0  0  0
  -32.0023  -16.1020   22.6268 H   0  0  0  0  0  0
  -30.9392  -16.8987   21.4900 H   0  0  0  0  0  0
  -27.7411  -24.8959   19.4673 H   0  0  0  0  0  0
  -29.3098  -24.9245   20.1768 H   0  0  0  0  0  0
  -26.3844  -19.3831   21.3571 H   0  0  0  0  0  0
  -29.7265  -14.4725   22.3963 H   0  0  0  0  0  0
  1 25  1  0  0  0
  1 30  2  0  0  0
  1 85  1  0  0  0
  2  3  1  0  0  0
  2 25  1  0  0  0
  2 87  1  0  0  0
  2 88  1  0  0  0
  3  4  1  0  0  0
  3 89  1  0  0  0
  3 90  1  0  0  0
  4  5  1  0  0  0
  4 91  1  0  0  0
  4 92  1  0  0  0
  5  6  1  0  0  0
  5 26  1  0  0  0
  5 93  1  0  0  0
  6 25  1  0  0  0
  6 94  1  0  0  0
  6 95  1  0  0  0
  7  8  2  0  0  0
  7 26  1  0  0  0
  7 29  1  0  0  0
  8  9  1  0  0  0
  8 22  1  0  0  0
  9 10  1  0  0  0
  9 27  2  0  0  0
 10 11  2  0  0  0
 10 15  1  0  0  0
 11 12  1  0  0  0
 11 96  1  0  0  0
 12 13  2  0  0  0
 12 97  1  0  0  0
 13 14  1  0  0  0
 13 31  1  0  0  0
 14 15  2  0  0  0
 14 98  1  0  0  0
 15 99  1  0  0  0
 16 17  2  0  0  0
 16 21  1  0  0  0
 16 31  1  0  0  0
 17 18  1  0  0  0
 17100  1  0  0  0
 18 19  2  0  0  0
 18101  1  0  0  0
 19 20  1  0  0  0
 19 24  1  0  0  0
 20 21  2  0  0  0
 20102  1  0  0  0
 21 23  1  0  0  0
 22 28  1  0  0  0
 22 32  2  0  0  0
 26 27  1  0  0  0
 28103  1  0  0  0
 28104  1  0  0  0
 29105  1  0  0  0
 29106  1  0  0  0
 33 34  1  0  0  0
 33 66  1  0  0  0
 33 70  2  0  0  0
 34 36  1  0  0  0
 34 59  1  0  0  0
 34107  1  0  0  0
 35 44  2  0  0  0
 35 45  1  0  0  0
 35 68  1  0  0  0
 36 56  1  0  0  0
 36108  1  0  0  0
 37 39  1  0  0  0
 37 47  1  0  0  0
 37 66  1  0  0  0
 37109  1  0  0  0
 38 43  2  0  0  0
 38 46  1  0  0  0
 38 47  1  0  0  0
 39 64  1  0  0  0
 39 67  2  0  0  0
 40 52  1  0  0  0
 40 53  2  0  0  0
 40 58  1  0  0  0
 41110  1  0  0  0
 41111  1  0  0  0
 41112  1  0  0  0
 41 48  1  0  0  0
 42 43  1  0  0  0
 42 66  1  0  0  0
 42113  1  0  0  0
 42114  1  0  0  0
 43 44  1  0  0  0
 44115  1  0  0  0
 45 46  2  0  0  0
 45116  1  0  0  0
 46117  1  0  0  0
 47118  1  0  0  0
 47119  1  0  0  0
 48 56  1  0  0  0
 48 65  1  0  0  0
 48120  1  0  0  0
 49 50  1  0  0  0
 49 53  1  0  0  0
 49 64  1  0  0  0
 49121  1  0  0  0
 50 51  1  0  0  0
 50122  1  0  0  0
 50123  1  0  0  0
 51 52  1  0  0  0
 51124  1  0  0  0
 51125  1  0  0  0
 52126  1  0  0  0
 52127  1  0  0  0
 53 54  1  0  0  0
 54 55  2  0  0  0
 54128  1  0  0  0
 55 57  1  0  0  0
 55129  1  0  0  0
 56 69  2  0  0  0
 57 58  2  0  0  0
 57130  1  0  0  0
 58131  1  0  0  0
 59 60  1  0  0  0
 59 61  1  0  0  0
 59 62  1  0  0  0
 60132  1  0  0  0
 60133  1  0  0  0
 60134  1  0  0  0
 61135  1  0  0  0
 61136  1  0  0  0
 61137  1  0  0  0
 62138  1  0  0  0
 62139  1  0  0  0
 62140  1  0  0  0
 63 65  1  0  0  0
 63141  1  0  0  0
 63142  1  0  0  0
 63143  1  0  0  0
 64144  1  0  0  0
 65145  1  0  0  0
 68 82  1  0  0  0
 71 73  2  0  0  0
 71 75  1  0  0  0
 71146  1  0  0  0
 72 74  2  0  0  0
 72 83  1  0  0  0
 72147  1  0  0  0
 73 74  1  0  0  0
 73 76  1  0  0  0
 74 86  1  0  0  0
 75 83  2  0  0  0
 75 84  1  0  0  0
 76 82  1  0  0  0
 76148  1  0  0  0
 76149  1  0  0  0
 77 78  1  0  0  0
 77 79  1  0  0  0
 77150  1  0  0  0
 77151  1  0  0  0
 78 80  1  0  0  0
 78152  1  0  0  0
 78153  1  0  0  0
 79 81  1  0  0  0
 79154  1  0  0  0
 79155  1  0  0  0
 80 84  1  0  0  0
 80156  1  0  0  0
 80157  1  0  0  0
 81 85  1  0  0  0
 81158  1  0  0  0
 81159  1  0  0  0
 82160  1  0  0  0
 82161  1  0  0  0
 84162  1  0  0  0
 85163  1  0  0  0
M  ISO  4   1 100  68 101  82 101  85 100
M  END
> <chiral flag>
0

> <version>
0

> <s_m_source_file>
/data/baiqing/PycharmProjects/Reinvent-master-3.2/result/LINK_invent/BTK/process_docking_weight1_custom_sum_contain_oxygen_bond_distance_aromatic_linkinvent_7_9_3/rearranged_h_0028.sdf

> <i_m_source_file_index>
17

> <r_mmod_Potential_Energy-OPLS-2005>
-244.366928100586

> <r_mmod_Stretch_Energy-OPLS-2005>
30.9154319763184

> <r_mmod_Bend_Energy-OPLS-2005>
88.4737548828125

> <r_mmod_Torsional_Energy-OPLS-2005>
225.882141113281

> <r_mmod_Improper_Torsional_Energy-OPLS-2005>
6.55989170074463

> <r_mmod_Van_der_Waal_Energy-OPLS-2005>
155.477157592773

> <r_mmod_Electrostatic_Energy-OPLS-2005>
-535.876586914062

> <r_mmod_Solvation_Energy-OPLS-2005>
-224.954086303711

> <b_mmod_Minimization_Converged-OPLS-2005>
0

> <r_mmod_RMS_Derivative-OPLS-2005>
2.42041397094727

$$$$
17
                    3D
 Structure written by MMmdl.
157165  0  0  1  0            999 V2000
  -30.6436  -14.7502   20.4510 C   0  0  0  0  0  0
  -30.4317  -12.4526   19.4717 C   0  0  0  0  0  0
  -29.5147  -12.5200   18.2335 C   0  0  0  0  0  0
  -28.0333  -12.3781   18.6335 C   0  0  0  0  0  0
  -27.6499  -13.2518   19.8576 C   0  0  2  0  0  0
  -28.7032  -13.1920   20.9865 C   0  0  0  0  0  0
  -25.2547  -13.8259   20.5717 C   0  0  0  0  0  0
  -24.1850  -13.0458   20.9202 C   0  0  0  0  0  0
  -24.6463  -11.6942   20.8722 C   0  0  0  0  0  0
  -23.9110  -10.4307   21.0370 C   0  0  0  0  0  0
  -24.3647   -9.4228   21.9164 C   0  0  0  0  0  0
  -23.6311   -8.2269   22.0750 C   0  0  0  0  0  0
  -22.4302   -8.0301   21.3528 C   0  0  0  0  0  0
  -21.9922   -9.0274   20.4635 C   0  0  0  0  0  0
  -22.7264  -10.2151   20.3023 C   0  0  0  0  0  0
  -21.6879   -6.0725   22.5246 C   0  0  0  0  0  0
  -21.4049   -6.5627   23.8185 C   0  0  0  0  0  0
  -21.3669   -5.6783   24.9144 C   0  0  0  0  0  0
  -21.6046   -4.3042   24.7199 C   0  0  0  0  0  0
  -21.8836   -3.8132   23.4320 C   0  0  0  0  0  0
  -21.9212   -4.6945   22.3376 C   0  0  0  0  0  0
  -22.7863  -13.5209   21.1847 C   0  0  0  0  0  0
  -22.1673   -4.2130   21.0950 F   0  0  0  0  0  0
  -21.5618   -3.4528   25.7711 F   0  0  0  0  0  0
  -29.9996  -13.5326   20.3899 N   0  0  0  0  0  0
  -26.3018  -12.9504   20.3349 N   0  0  0  0  0  0
  -25.9422  -11.6622   20.5777 N   0  0  0  0  0  0
  -22.0528  -12.8186   22.0408 N   0  0  0  0  0  0
  -25.4198  -15.1995   20.4135 N   0  0  0  0  0  0
  -31.8420  -14.8197   20.1605 O   0  0  0  0  0  0
  -21.6678   -6.8885   21.4216 O   0  0  0  0  0  0
  -22.3511  -14.5489   20.6676 O   0  0  0  0  0  0
  -24.6288  -31.8552   23.1910 C   0  0  0  0  0  0
  -25.9123  -32.4739   23.8283 C   0  0  1  0  0  0
  -27.2335  -27.2584   20.1822 C   0  0  0  0  0  0
  -25.5913  -33.8541   24.2209 N   0  0  0  0  0  0
  -23.4251  -30.4749   21.5305 C   0  0  2  0  0  0
  -24.8768  -28.9044   20.1193 C   0  0  0  0  0  0
  -22.7472  -29.4637   22.4863 C   0  0  0  0  0  0
  -18.0296  -28.1396   22.8457 C   0  0  0  0  0  0
  -24.1491  -36.7321   23.2637 C   0  0  0  0  0  0
  -25.9647  -30.7717   21.3646 C   0  0  0  0  0  0
  -26.0394  -29.3841   20.7329 C   0  0  0  0  0  0
  -27.2197  -28.5767   20.7466 C   0  0  0  0  0  0
  -26.0495  -26.8345   19.5418 C   0  0  0  0  0  0
  -24.8863  -27.6380   19.5093 C   0  0  0  0  0  0
  -23.6425  -29.7898   20.1533 C   0  0  0  0  0  0
  -25.4115  -36.3060   24.0304 C   0  0  1  0  0  0
  -20.5895  -28.3719   23.1225 C   0  0  2  0  0  0
  -20.6774  -26.9431   22.5383 C   0  0  0  0  0  0
  -19.5758  -26.6376   21.5181 C   0  0  0  0  0  0
  -18.1949  -26.7927   22.1609 C   0  0  0  0  0  0
  -19.1562  -28.8867   23.2843 C   0  0  0  0  0  0
  -18.9482  -30.1456   23.8867 C   0  0  0  0  0  0
  -17.6494  -30.6584   24.0564 C   0  0  0  0  0  0
  -25.9056  -34.9431   23.5064 C   0  0  0  0  0  0
  -16.5373  -29.9090   23.6325 C   0  0  0  0  0  0
  -16.7292  -28.6518   23.0318 C   0  0  0  0  0  0
  -26.4475  -31.6552   25.0678 C   0  0  0  0  0  0
  -25.3696  -31.3727   26.1398 C   0  0  0  0  0  0
  -27.0292  -30.2945   24.6167 C   0  0  0  0  0  0
  -27.6009  -32.4273   25.7513 C   0  0  0  0  0  0
  -27.5577  -37.1820   24.8447 C   0  0  0  0  0  0
  -21.4187  -29.3064   22.3595 N   0  0  0  0  0  0
  -26.4289  -37.3762   23.9385 N   0  0  0  0  0  0
  -24.6913  -31.0552   22.0847 N   0  0  0  0  0  0
  -23.4186  -28.8213   23.2986 O   0  0  0  0  0  0
  -28.3746  -26.4278   20.1126 O   0  0  0  0  0  0
  -26.5653  -34.8917   22.4648 O   0  0  0  0  0  0
  -23.5446  -32.1377   23.7219 O   0  0  0  0  0  0
  -29.6100  -24.3092   22.9252 C   0  0  0  0  0  0
  -28.6820  -23.8863   20.3705 C   0  0  0  0  0  0
  -29.0943  -25.4136   22.2146 C   0  0  0  0  0  0
  -29.7177  -23.0042   22.3844 C   0  0  0  0  0  0
  -28.6308  -25.2532   20.8876 C   0  0  0  0  0  0
  -29.2017  -22.7125   21.0793 C   0  0  0  0  0  0
  -29.1201  -26.7846   22.8818 C   0  0  0  0  0  0
  -30.4114  -21.9953   23.2925 C   0  0  0  0  0  0
  -29.4553  -18.6608   20.3890 C   0  0  0  0  0  0
  -30.4025  -17.3668   20.7289 C   0  0  0  0  0  0
  -29.9043  -20.1484   20.8715 C   0  0  0  0  0  0
  -29.9055  -15.9132   20.6319 N   0  0  0  0  0  0
  -29.1426  -21.3963   20.4816 O   0  0  0  0  0  0
  -31.4736  -12.5609   19.1683 H   0  0  0  0  0  0
  -30.3624  -11.4757   19.9538 H   0  0  0  0  0  0
  -29.7808  -11.7466   17.5119 H   0  0  0  0  0  0
  -29.6748  -13.4745   17.7309 H   0  0  0  0  0  0
  -27.8462  -11.3265   18.8515 H   0  0  0  0  0  0
  -27.3966  -12.6360   17.7849 H   0  0  0  0  0  0
  -27.6390  -14.2786   19.4919 H   0  0  0  0  0  0
  -28.7399  -12.2033   21.4469 H   0  0  0  0  0  0
  -28.4572  -13.8956   21.7836 H   0  0  0  0  0  0
  -25.2784   -9.5730   22.4749 H   0  0  0  0  0  0
  -24.0015   -7.4685   22.7492 H   0  0  0  0  0  0
  -21.0842   -8.8780   19.8965 H   0  0  0  0  0  0
  -22.3690  -10.9681   19.6135 H   0  0  0  0  0  0
  -21.2061   -7.6140   23.9674 H   0  0  0  0  0  0
  -21.1479   -6.0514   25.9046 H   0  0  0  0  0  0
  -22.0617   -2.7590   23.2817 H   0  0  0  0  0  0
  -22.4151  -11.9808   22.4717 H   0  0  0  0  0  0
  -21.1150  -13.1206   22.2636 H   0  0  0  0  0  0
  -24.6515  -15.8534   20.5272 H   0  0  0  0  0  0
  -26.2617  -15.6406   20.0633 H   0  0  0  0  0  0
  -26.7198  -32.5397   23.1044 H   0  0  0  0  0  0
  -24.9956  -33.9660   25.0276 H   0  0  0  0  0  0
  -22.7230  -31.2971   21.3755 H   0  0  0  0  0  0
  -23.3720  -35.9692   23.3294 H   0  0  0  0  0  0
  -24.3580  -36.8975   22.2058 H   0  0  0  0  0  0
  -23.7309  -37.6538   23.6686 H   0  0  0  0  0  0
  -26.0896  -31.5161   20.5774 H   0  0  0  0  0  0
  -26.8456  -30.8360   21.9903 H   0  0  0  0  0  0
  -28.1166  -28.9606   21.2067 H   0  0  0  0  0  0
  -26.0162  -25.8636   19.0678 H   0  0  0  0  0  0
  -23.9964  -27.2708   19.0183 H   0  0  0  0  0  0
  -23.7587  -30.5506   19.3809 H   0  0  0  0  0  0
  -22.7620  -29.2142   19.8618 H   0  0  0  0  0  0
  -25.1314  -36.1891   25.0802 H   0  0  0  0  0  0
  -21.0009  -28.3306   24.1335 H   0  0  0  0  0  0
  -20.5617  -26.2353   23.3608 H   0  0  0  0  0  0
  -21.6656  -26.7411   22.1224 H   0  0  0  0  0  0
  -19.6924  -25.6276   21.1230 H   0  0  0  0  0  0
  -19.6689  -27.3164   20.6695 H   0  0  0  0  0  0
  -17.4202  -26.6636   21.4027 H   0  0  0  0  0  0
  -18.0394  -26.0080   22.9029 H   0  0  0  0  0  0
  -19.7970  -30.7275   24.2209 H   0  0  0  0  0  0
  -17.5056  -31.6258   24.5192 H   0  0  0  0  0  0
  -15.5381  -30.2993   23.7657 H   0  0  0  0  0  0
  -15.8691  -28.0840   22.7017 H   0  0  0  0  0  0
  -24.5860  -30.7091   25.7734 H   0  0  0  0  0  0
  -24.8916  -32.2909   26.4808 H   0  0  0  0  0  0
  -25.8010  -30.8917   27.0182 H   0  0  0  0  0  0
  -26.2866  -29.6736   24.1139 H   0  0  0  0  0  0
  -27.3870  -29.7176   25.4708 H   0  0  0  0  0  0
  -27.8790  -30.4178   23.9455 H   0  0  0  0  0  0
  -27.2574  -33.3538   26.2127 H   0  0  0  0  0  0
  -28.3849  -32.6880   25.0397 H   0  0  0  0  0  0
  -28.0633  -31.8372   26.5437 H   0  0  0  0  0  0
  -28.2567  -38.0133   24.7469 H   0  0  0  0  0  0
  -28.1092  -36.2660   24.6282 H   0  0  0  0  0  0
  -27.2293  -37.1486   25.8847 H   0  0  0  0  0  0
  -20.9367  -29.8798   21.6811 H   0  0  0  0  0  0
  -26.0154  -38.2836   24.1352 H   0  0  0  0  0  0
  -29.9783  -24.4742   23.9279 H   0  0  0  0  0  0
  -28.3453  -23.7467   19.3542 H   0  0  0  0  0  0
  -29.6481  -26.7730   23.8365 H   0  0  0  0  0  0
  -28.1076  -27.1367   23.0814 H   0  0  0  0  0  0
  -29.6210  -27.5173   22.2491 H   0  0  0  0  0  0
  -29.6856  -21.3353   23.7696 H   0  0  0  0  0  0
  -30.9562  -22.4803   24.1021 H   0  0  0  0  0  0
  -31.1763  -21.4288   22.7617 H   0  0  0  0  0  0
  -28.4655  -18.4992   20.8203 H   0  0  0  0  0  0
  -29.2956  -18.6906   19.3100 H   0  0  0  0  0  0
  -30.7611  -17.4776   21.7513 H   0  0  0  0  0  0
  -31.3094  -17.4410   20.1247 H   0  0  0  0  0  0
  -30.9469  -20.2997   20.5767 H   0  0  0  0  0  0
  -29.8930  -20.0164   21.9453 H   0  0  0  0  0  0
  -28.9152  -15.7733   20.7699 H   0  0  0  0  0  0
  1 25  1  0  0  0
  1 30  2  0  0  0
  1 82  1  0  0  0
  2  3  1  0  0  0
  2 25  1  0  0  0
  2 84  1  0  0  0
  2 85  1  0  0  0
  3  4  1  0  0  0
  3 86  1  0  0  0
  3 87  1  0  0  0
  4  5  1  0  0  0
  4 88  1  0  0  0
  4 89  1  0  0  0
  5  6  1  0  0  0
  5 26  1  0  0  0
  5 90  1  0  0  0
  6 25  1  0  0  0
  6 91  1  0  0  0
  6 92  1  0  0  0
  7  8  2  0  0  0
  7 26  1  0  0  0
  7 29  1  0  0  0
  8  9  1  0  0  0
  8 22  1  0  0  0
  9 10  1  0  0  0
  9 27  2  0  0  0
 10 11  2  0  0  0
 10 15  1  0  0  0
 11 12  1  0  0  0
 11 93  1  0  0  0
 12 13  2  0  0  0
 12 94  1  0  0  0
 13 14  1  0  0  0
 13 31  1  0  0  0
 14 15  2  0  0  0
 14 95  1  0  0  0
 15 96  1  0  0  0
 16 17  2  0  0  0
 16 21  1  0  0  0
 16 31  1  0  0  0
 17 18  1  0  0  0
 17 97  1  0  0  0
 18 19  2  0  0  0
 18 98  1  0  0  0
 19 20  1  0  0  0
 19 24  1  0  0  0
 20 21  2  0  0  0
 20 99  1  0  0  0
 21 23  1  0  0  0
 22 28  1  0  0  0
 22 32  2  0  0  0
 26 27  1  0  0  0
 28100  1  0  0  0
 28101  1  0  0  0
 29102  1  0  0  0
 29103  1  0  0  0
 33 34  1  0  0  0
 33 66  1  0  0  0
 33 70  2  0  0  0
 34 36  1  0  0  0
 34 59  1  0  0  0
 34104  1  0  0  0
 35 44  2  0  0  0
 35 45  1  0  0  0
 35 68  1  0  0  0
 36 56  1  0  0  0
 36105  1  0  0  0
 37 39  1  0  0  0
 37 47  1  0  0  0
 37 66  1  0  0  0
 37106  1  0  0  0
 38 43  2  0  0  0
 38 46  1  0  0  0
 38 47  1  0  0  0
 39 64  1  0  0  0
 39 67  2  0  0  0
 40 52  1  0  0  0
 40 53  2  0  0  0
 40 58  1  0  0  0
 41107  1  0  0  0
 41108  1  0  0  0
 41109  1  0  0  0
 41 48  1  0  0  0
 42 43  1  0  0  0
 42 66  1  0  0  0
 42110  1  0  0  0
 42111  1  0  0  0
 43 44  1  0  0  0
 44112  1  0  0  0
 45 46  2  0  0  0
 45113  1  0  0  0
 46114  1  0  0  0
 47115  1  0  0  0
 47116  1  0  0  0
 48 56  1  0  0  0
 48 65  1  0  0  0
 48117  1  0  0  0
 49 50  1  0  0  0
 49 53  1  0  0  0
 49 64  1  0  0  0
 49118  1  0  0  0
 50 51  1  0  0  0
 50119  1  0  0  0
 50120  1  0  0  0
 51 52  1  0  0  0
 51121  1  0  0  0
 51122  1  0  0  0
 52123  1  0  0  0
 52124  1  0  0  0
 53 54  1  0  0  0
 54 55  2  0  0  0
 54125  1  0  0  0
 55 57  1  0  0  0
 55126  1  0  0  0
 56 69  2  0  0  0
 57 58  2  0  0  0
 57127  1  0  0  0
 58128  1  0  0  0
 59 60  1  0  0  0
 59 61  1  0  0  0
 59 62  1  0  0  0
 60129  1  0  0  0
 60130  1  0  0  0
 60131  1  0  0  0
 61132  1  0  0  0
 61133  1  0  0  0
 61134  1  0  0  0
 62135  1  0  0  0
 62136  1  0  0  0
 62137  1  0  0  0
 63 65  1  0  0  0
 63138  1  0  0  0
 63139  1  0  0  0
 63140  1  0  0  0
 64141  1  0  0  0
 65142  1  0  0  0
 68 75  1  0  0  0
 71 73  2  0  0  0
 71 74  1  0  0  0
 71143  1  0  0  0
 72 75  2  0  0  0
 72 76  1  0  0  0
 72144  1  0  0  0
 73 75  1  0  0  0
 73 77  1  0  0  0
 74 76  2  0  0  0
 74 78  1  0  0  0
 76 83  1  0  0  0
 77145  1  0  0  0
 77146  1  0  0  0
 77147  1  0  0  0
 78148  1  0  0  0
 78149  1  0  0  0
 78150  1  0  0  0
 79 80  1  0  0  0
 79 81  1  0  0  0
 79151  1  0  0  0
 79152  1  0  0  0
 80 82  1  0  0  0
 80153  1  0  0  0
 80154  1  0  0  0
 81 83  1  0  0  0
 81155  1  0  0  0
 81156  1  0  0  0
 82157  1  0  0  0
M  ISO  4   1 100  68 101  75 101  82 100
M  END
> <chiral flag>
0

> <version>
0

> <s_m_source_file>
/data/baiqing/PycharmProjects/Reinvent-master-3.2/result/LINK_invent/BTK/process_docking_weight1_custom_sum_contain_oxygen_bond_distance_aromatic_linkinvent_7_9_3/rearranged_h_0028.sdf

> <i_m_source_file_index>
18

> <r_mmod_Potential_Energy-OPLS-2005>
198.032730102539

> <r_mmod_Stretch_Energy-OPLS-2005>
140.570709228516

> <r_mmod_Bend_Energy-OPLS-2005>
202.891723632812

> <r_mmod_Torsional_Energy-OPLS-2005>
221.170166015625

> <r_mmod_Improper_Torsional_Energy-OPLS-2005>
6.01205635070801

> <r_mmod_Van_der_Waal_Energy-OPLS-2005>
138.748825073242

> <r_mmod_Electrostatic_Energy-OPLS-2005>
-375.299133300781

> <r_mmod_Solvation_Energy-OPLS-2005>
-216.939361572266

> <b_mmod_Minimization_Converged-OPLS-2005>
0

> <r_mmod_RMS_Derivative-OPLS-2005>
4.84451007843018

$$$$
18
                    3D
 Structure written by MMmdl.
163171  0  0  1  0            999 V2000
  -30.5952  -14.9930   20.4234 C   0  0  0  0  0  0
  -30.4179  -12.6340   19.4839 C   0  0  0  0  0  0
  -29.5022  -12.5247   18.2475 C   0  0  0  0  0  0
  -28.0464  -12.2884   18.6842 C   0  0  0  0  0  0
  -27.6137  -13.2397   19.8293 C   0  0  2  0  0  0
  -28.6629  -13.3551   20.9544 C   0  0  0  0  0  0
  -25.2437  -13.8169   20.5784 C   0  0  0  0  0  0
  -24.1736  -13.0413   20.9262 C   0  0  0  0  0  0
  -24.6349  -11.6899   20.8797 C   0  0  0  0  0  0
  -23.9048  -10.4277   21.0437 C   0  0  0  0  0  0
  -24.3609   -9.4187   21.9202 C   0  0  0  0  0  0
  -23.6291   -8.2218   22.0752 C   0  0  0  0  0  0
  -22.4269   -8.0268   21.3546 C   0  0  0  0  0  0
  -21.9898   -9.0245   20.4655 C   0  0  0  0  0  0
  -22.7227  -10.2124   20.3077 C   0  0  0  0  0  0
  -21.6852   -6.0728   22.5280 C   0  0  0  0  0  0
  -21.4011   -6.5634   23.8212 C   0  0  0  0  0  0
  -21.3656   -5.6791   24.9176 C   0  0  0  0  0  0
  -21.6041   -4.3051   24.7227 C   0  0  0  0  0  0
  -21.8818   -3.8139   23.4349 C   0  0  0  0  0  0
  -21.9192   -4.6955   22.3405 C   0  0  0  0  0  0
  -22.7766  -13.5211   21.1893 C   0  0  0  0  0  0
  -22.1663   -4.2139   21.0983 F   0  0  0  0  0  0
  -21.5628   -3.4537   25.7740 F   0  0  0  0  0  0
  -29.9184  -13.7713   20.3177 N   0  0  0  0  0  0
  -26.2826  -12.9376   20.3306 N   0  0  0  0  0  0
  -25.9278  -11.6519   20.5800 N   0  0  0  0  0  0
  -22.0406  -12.8210   22.0445 N   0  0  0  0  0  0
  -25.4150  -15.1881   20.4258 N   0  0  0  0  0  0
  -31.8127  -14.9341   20.2099 O   0  0  0  0  0  0
  -21.6635   -6.8867   21.4241 O   0  0  0  0  0  0
  -22.3466  -14.5518   20.6729 O   0  0  0  0  0  0
  -24.6461  -31.8417   23.1862 C   0  0  0  0  0  0
  -25.9224  -32.4681   23.8257 C   0  0  1  0  0  0
  -27.2165  -27.1112   20.1537 C   0  0  0  0  0  0
  -25.5966  -33.8487   24.2179 N   0  0  0  0  0  0
  -23.4510  -30.4606   21.5318 C   0  0  2  0  0  0
  -24.9012  -28.8835   20.1085 C   0  0  0  0  0  0
  -22.7585  -29.4535   22.4844 C   0  0  0  0  0  0
  -18.0309  -28.1396   22.8480 C   0  0  0  0  0  0
  -24.1491  -36.7245   23.2641 C   0  0  0  0  0  0
  -26.0087  -30.7067   21.3896 C   0  0  0  0  0  0
  -26.0792  -29.3161   20.7304 C   0  0  0  0  0  0
  -27.2367  -28.4461   20.7358 C   0  0  0  0  0  0
  -26.0145  -26.7895   19.4852 C   0  0  0  0  0  0
  -24.8833  -27.6348   19.4697 C   0  0  0  0  0  0
  -23.6793  -29.7892   20.1514 C   0  0  0  0  0  0
  -25.4125  -36.3024   24.0312 C   0  0  1  0  0  0
  -20.5925  -28.3726   23.1226 C   0  0  2  0  0  0
  -20.6790  -26.9425   22.5402 C   0  0  0  0  0  0
  -19.5762  -26.6381   21.5211 C   0  0  0  0  0  0
  -18.1945  -26.7936   22.1625 C   0  0  0  0  0  0
  -19.1567  -28.8880   23.2844 C   0  0  0  0  0  0
  -18.9481  -30.1474   23.8872 C   0  0  0  0  0  0
  -17.6476  -30.6590   24.0560 C   0  0  0  0  0  0
  -25.9080  -34.9400   23.5057 C   0  0  0  0  0  0
  -16.5368  -29.9084   23.6334 C   0  0  0  0  0  0
  -16.7293  -28.6503   23.0359 C   0  0  0  0  0  0
  -26.4538  -31.6561   25.0711 C   0  0  0  0  0  0
  -25.3718  -31.3759   26.1405 C   0  0  0  0  0  0
  -27.0410  -30.2953   24.6314 C   0  0  0  0  0  0
  -27.6063  -32.4337   25.7501 C   0  0  0  0  0  0
  -27.5575  -37.1781   24.8467 C   0  0  0  0  0  0
  -21.4273  -29.3048   22.3593 N   0  0  0  0  0  0
  -26.4287  -37.3740   23.9410 N   0  0  0  0  0  0
  -24.7218  -31.0250   22.0907 N   0  0  0  0  0  0
  -23.4217  -28.8084   23.3006 O   0  0  0  0  0  0
  -28.2563  -26.1054   20.2410 O   0  0  0  0  0  0
  -26.5662  -34.8903   22.4633 O   0  0  0  0  0  0
  -23.5575  -32.1305   23.7068 O   0  0  0  0  0  0
  -28.5232  -18.5930   19.9866 C   0  0  0  0  0  0
  -27.1991  -18.6751   19.4625 C   0  0  0  0  0  0
  -29.0616  -17.1667   19.8348 C   0  0  0  0  0  0
  -27.4895  -16.8565   18.1477 C   0  0  0  0  0  0
  -27.0089  -15.9946   17.0016 C   0  0  0  0  0  0
  -23.7734  -19.7510   21.0728 C   0  0  0  0  0  0
  -29.0912  -20.0616   20.5476 C   0  0  0  0  0  0
  -26.1077  -19.5809   20.0273 C   0  0  0  0  0  0
  -24.7957  -18.8461   20.3695 C   0  0  0  0  0  0
  -28.4759  -21.5998   20.0403 C   0  0  0  0  0  0
  -28.8928  -23.1998   20.4346 C   0  0  0  0  0  0
  -27.9845  -24.5776   20.0051 C   0  0  0  0  0  0
  -26.7501  -17.8840   18.4799 N   0  0  0  0  0  0
  -28.5388  -16.4443   18.8251 N   0  0  0  0  0  0
  -30.0154  -16.2962   20.6235 N   0  0  0  0  0  0
  -31.4479  -12.7771   19.1553 H   0  0  0  0  0  0
  -30.4159  -11.7040   20.0550 H   0  0  0  0  0  0
  -29.8354  -11.7156   17.5960 H   0  0  0  0  0  0
  -29.5666  -13.4422   17.6605 H   0  0  0  0  0  0
  -27.9692  -11.2536   19.0200 H   0  0  0  0  0  0
  -27.3717  -12.3835   17.8323 H   0  0  0  0  0  0
  -27.5394  -14.2144   19.3618 H   0  0  0  0  0  0
  -28.7791  -12.4123   21.4908 H   0  0  0  0  0  0
  -28.3504  -14.1011   21.6872 H   0  0  0  0  0  0
  -25.2752   -9.5658   22.4781 H   0  0  0  0  0  0
  -23.9997   -7.4599   22.7461 H   0  0  0  0  0  0
  -21.0828   -8.8768   19.8960 H   0  0  0  0  0  0
  -22.3687  -10.9669   19.6194 H   0  0  0  0  0  0
  -21.2010   -7.6142   23.9715 H   0  0  0  0  0  0
  -21.1479   -6.0522   25.9078 H   0  0  0  0  0  0
  -22.0600   -2.7602   23.2853 H   0  0  0  0  0  0
  -22.4017  -11.9884   22.4861 H   0  0  0  0  0  0
  -21.1019  -13.1238   22.2633 H   0  0  0  0  0  0
  -24.6464  -15.8395   20.5325 H   0  0  0  0  0  0
  -26.2763  -15.6287   20.1308 H   0  0  0  0  0  0
  -26.7289  -32.5282   23.0981 H   0  0  0  0  0  0
  -25.0106  -33.9594   25.0322 H   0  0  0  0  0  0
  -22.7549  -31.2872   21.3757 H   0  0  0  0  0  0
  -23.3763  -35.9567   23.3292 H   0  0  0  0  0  0
  -24.3576  -36.8891   22.2059 H   0  0  0  0  0  0
  -23.7236  -37.6432   23.6687 H   0  0  0  0  0  0
  -26.1686  -31.4602   20.6173 H   0  0  0  0  0  0
  -26.8774  -30.7568   22.0345 H   0  0  0  0  0  0
  -28.1318  -28.7704   21.2477 H   0  0  0  0  0  0
  -25.9134  -25.8365   18.9882 H   0  0  0  0  0  0
  -23.9853  -27.3002   18.9687 H   0  0  0  0  0  0
  -23.8200  -30.5635   19.3966 H   0  0  0  0  0  0
  -22.7931  -29.2346   19.8385 H   0  0  0  0  0  0
  -25.1313  -36.1847   25.0804 H   0  0  0  0  0  0
  -21.0018  -28.3322   24.1347 H   0  0  0  0  0  0
  -20.5682  -26.2341   23.3625 H   0  0  0  0  0  0
  -21.6655  -26.7426   22.1200 H   0  0  0  0  0  0
  -19.6921  -25.6287   21.1256 H   0  0  0  0  0  0
  -19.6696  -27.3179   20.6732 H   0  0  0  0  0  0
  -17.4214  -26.6683   21.4030 H   0  0  0  0  0  0
  -18.0343  -26.0077   22.9022 H   0  0  0  0  0  0
  -19.7955  -30.7296   24.2236 H   0  0  0  0  0  0
  -17.5028  -31.6269   24.5166 H   0  0  0  0  0  0
  -15.5368  -30.2978   23.7667 H   0  0  0  0  0  0
  -15.8695  -28.0809   22.7090 H   0  0  0  0  0  0
  -24.5896  -30.7108   25.7728 H   0  0  0  0  0  0
  -24.8906  -32.2946   26.4774 H   0  0  0  0  0  0
  -25.7997  -30.8969   27.0220 H   0  0  0  0  0  0
  -26.3037  -29.6667   24.1307 H   0  0  0  0  0  0
  -27.4001  -29.7263   25.4900 H   0  0  0  0  0  0
  -27.8953  -30.4184   23.9652 H   0  0  0  0  0  0
  -27.2650  -33.3657   26.2016 H   0  0  0  0  0  0
  -28.3906  -32.6868   25.0355 H   0  0  0  0  0  0
  -28.0692  -31.8503   26.5469 H   0  0  0  0  0  0
  -28.2587  -38.0084   24.7515 H   0  0  0  0  0  0
  -28.1079  -36.2614   24.6296 H   0  0  0  0  0  0
  -27.2293  -37.1428   25.8869 H   0  0  0  0  0  0
  -20.9489  -29.8763   21.6767 H   0  0  0  0  0  0
  -26.0152  -38.2807   24.1417 H   0  0  0  0  0  0
  -25.9665  -15.7124   17.1465 H   0  0  0  0  0  0
  -27.5963  -15.0802   16.9150 H   0  0  0  0  0  0
  -27.0902  -16.5391   16.0611 H   0  0  0  0  0  0
  -22.8612  -19.2005   21.3057 H   0  0  0  0  0  0
  -23.4969  -20.5987   20.4447 H   0  0  0  0  0  0
  -24.1699  -20.1426   22.0102 H   0  0  0  0  0  0
  -30.1611  -20.0605   20.3370 H   0  0  0  0  0  0
  -29.0219  -20.0214   21.6352 H   0  0  0  0  0  0
  -25.9123  -20.4027   19.3377 H   0  0  0  0  0  0
  -26.4518  -19.9814   20.9788 H   0  0  0  0  0  0
  -24.3484  -18.4373   19.4625 H   0  0  0  0  0  0
  -25.0197  -17.9965   21.0147 H   0  0  0  0  0  0
  -27.4325  -21.6521   20.3132 H   0  0  0  0  0  0
  -28.4742  -21.5672   18.9501 H   0  0  0  0  0  0
  -29.9044  -23.3586   20.0607 H   0  0  0  0  0  0
  -28.9943  -23.2319   21.5195 H   0  0  0  0  0  0
  -26.9999  -24.3943   20.4358 H   0  0  0  0  0  0
  -27.8356  -24.4954   18.9280 H   0  0  0  0  0  0
  -30.6636  -16.8773   21.1310 H   0  0  0  0  0  0
  1 25  1  0  0  0
  1 30  2  0  0  0
  1 85  1  0  0  0
  2  3  1  0  0  0
  2 25  1  0  0  0
  2 86  1  0  0  0
  2 87  1  0  0  0
  3  4  1  0  0  0
  3 88  1  0  0  0
  3 89  1  0  0  0
  4  5  1  0  0  0
  4 90  1  0  0  0
  4 91  1  0  0  0
  5  6  1  0  0  0
  5 26  1  0  0  0
  5 92  1  0  0  0
  6 25  1  0  0  0
  6 93  1  0  0  0
  6 94  1  0  0  0
  7  8  2  0  0  0
  7 26  1  0  0  0
  7 29  1  0  0  0
  8  9  1  0  0  0
  8 22  1  0  0  0
  9 10  1  0  0  0
  9 27  2  0  0  0
 10 11  2  0  0  0
 10 15  1  0  0  0
 11 12  1  0  0  0
 11 95  1  0  0  0
 12 13  2  0  0  0
 12 96  1  0  0  0
 13 14  1  0  0  0
 13 31  1  0  0  0
 14 15  2  0  0  0
 14 97  1  0  0  0
 15 98  1  0  0  0
 16 17  2  0  0  0
 16 21  1  0  0  0
 16 31  1  0  0  0
 17 18  1  0  0  0
 17 99  1  0  0  0
 18 19  2  0  0  0
 18100  1  0  0  0
 19 20  1  0  0  0
 19 24  1  0  0  0
 20 21  2  0  0  0
 20101  1  0  0  0
 21 23  1  0  0  0
 22 28  1  0  0  0
 22 32  2  0  0  0
 26 27  1  0  0  0
 28102  1  0  0  0
 28103  1  0  0  0
 29104  1  0  0  0
 29105  1  0  0  0
 33 34  1  0  0  0
 33 66  1  0  0  0
 33 70  2  0  0  0
 34 36  1  0  0  0
 34 59  1  0  0  0
 34106  1  0  0  0
 35 44  2  0  0  0
 35 45  1  0  0  0
 35 68  1  0  0  0
 36 56  1  0  0  0
 36107  1  0  0  0
 37 39  1  0  0  0
 37 47  1  0  0  0
 37 66  1  0  0  0
 37108  1  0  0  0
 38 43  2  0  0  0
 38 46  1  0  0  0
 38 47  1  0  0  0
 39 64  1  0  0  0
 39 67  2  0  0  0
 40 52  1  0  0  0
 40 53  2  0  0  0
 40 58  1  0  0  0
 41109  1  0  0  0
 41110  1  0  0  0
 41111  1  0  0  0
 41 48  1  0  0  0
 42 43  1  0  0  0
 42 66  1  0  0  0
 42112  1  0  0  0
 42113  1  0  0  0
 43 44  1  0  0  0
 44114  1  0  0  0
 45 46  2  0  0  0
 45115  1  0  0  0
 46116  1  0  0  0
 47117  1  0  0  0
 47118  1  0  0  0
 48 56  1  0  0  0
 48 65  1  0  0  0
 48119  1  0  0  0
 49 50  1  0  0  0
 49 53  1  0  0  0
 49 64  1  0  0  0
 49120  1  0  0  0
 50 51  1  0  0  0
 50121  1  0  0  0
 50122  1  0  0  0
 51 52  1  0  0  0
 51123  1  0  0  0
 51124  1  0  0  0
 52125  1  0  0  0
 52126  1  0  0  0
 53 54  1  0  0  0
 54 55  2  0  0  0
 54127  1  0  0  0
 55 57  1  0  0  0
 55128  1  0  0  0
 56 69  2  0  0  0
 57 58  2  0  0  0
 57129  1  0  0  0
 58130  1  0  0  0
 59 60  1  0  0  0
 59 61  1  0  0  0
 59 62  1  0  0  0
 60131  1  0  0  0
 60132  1  0  0  0
 60133  1  0  0  0
 61134  1  0  0  0
 61135  1  0  0  0
 61136  1  0  0  0
 62137  1  0  0  0
 62138  1  0  0  0
 62139  1  0  0  0
 63 65  1  0  0  0
 63140  1  0  0  0
 63141  1  0  0  0
 63142  1  0  0  0
 64143  1  0  0  0
 65144  1  0  0  0
 68 82  1  0  0  0
 71 72  2  0  0  0
 71 73  1  0  0  0
 71 77  1  0  0  0
 72 78  1  0  0  0
 72 83  1  0  0  0
 73 84  2  0  0  0
 73 85  1  0  0  0
 74 75  1  0  0  0
 74 83  2  0  0  0
 74 84  1  0  0  0
 75145  1  0  0  0
 75146  1  0  0  0
 75147  1  0  0  0
 76 79  1  0  0  0
 76148  1  0  0  0
 76149  1  0  0  0
 76150  1  0  0  0
 77 80  1  0  0  0
 77151  1  0  0  0
 77152  1  0  0  0
 78 79  1  0  0  0
 78153  1  0  0  0
 78154  1  0  0  0
 79155  1  0  0  0
 79156  1  0  0  0
 80 81  1  0  0  0
 80157  1  0  0  0
 80158  1  0  0  0
 81 82  1  0  0  0
 81159  1  0  0  0
 81160  1  0  0  0
 82161  1  0  0  0
 82162  1  0  0  0
 85163  1  0  0  0
M  ISO  4   1 100  68 101  82 101  85 100
M  END
> <chiral flag>
0

> <version>
0

> <s_m_source_file>
/data/baiqing/PycharmProjects/Reinvent-master-3.2/result/LINK_invent/BTK/process_docking_weight1_custom_sum_contain_oxygen_bond_distance_aromatic_linkinvent_7_9_3/rearranged_h_0028.sdf

> <i_m_source_file_index>
19

> <r_mmod_Potential_Energy-OPLS-2005>
408.862426757812

> <r_mmod_Stretch_Energy-OPLS-2005>
327.420349121094

> <r_mmod_Bend_Energy-OPLS-2005>
368.172058105469

> <r_mmod_Torsional_Energy-OPLS-2005>
301.736572265625

> <r_mmod_Improper_Torsional_Energy-OPLS-2005>
5.83407688140869

> <r_mmod_Van_der_Waal_Energy-OPLS-2005>
139.969390869141

> <r_mmod_Electrostatic_Energy-OPLS-2005>
-755.350280761719

> <r_mmod_Solvation_Energy-OPLS-2005>
-204.023742675781

> <b_mmod_Minimization_Converged-OPLS-2005>
0

> <r_mmod_RMS_Derivative-OPLS-2005>
0.712081849575043

$$$$
19
                    3D
 Structure written by MMmdl.
159167  0  0  1  0            999 V2000
  -30.5908  -14.7617   20.3990 C   0  0  0  0  0  0
  -30.4283  -12.4603   19.4652 C   0  0  0  0  0  0
  -29.5097  -12.5209   18.2252 C   0  0  0  0  0  0
  -28.0313  -12.3586   18.6288 C   0  0  0  0  0  0
  -27.6372  -13.2415   19.8423 C   0  0  2  0  0  0
  -28.6843  -13.1800   20.9754 C   0  0  0  0  0  0
  -25.2516  -13.8217   20.5696 C   0  0  0  0  0  0
  -24.1811  -13.0468   20.9222 C   0  0  0  0  0  0
  -24.6399  -11.6942   20.8730 C   0  0  0  0  0  0
  -23.9086  -10.4316   21.0416 C   0  0  0  0  0  0
  -24.3661   -9.4244   21.9193 C   0  0  0  0  0  0
  -23.6336   -8.2269   22.0741 C   0  0  0  0  0  0
  -22.4313   -8.0302   21.3553 C   0  0  0  0  0  0
  -21.9941   -9.0271   20.4645 C   0  0  0  0  0  0
  -22.7258  -10.2150   20.3055 C   0  0  0  0  0  0
  -21.6864   -6.0733   22.5279 C   0  0  0  0  0  0
  -21.4026   -6.5637   23.8211 C   0  0  0  0  0  0
  -21.3671   -5.6787   24.9172 C   0  0  0  0  0  0
  -21.6039   -4.3046   24.7212 C   0  0  0  0  0  0
  -21.8832   -3.8138   23.4337 C   0  0  0  0  0  0
  -21.9213   -4.6958   22.3404 C   0  0  0  0  0  0
  -22.7833  -13.5246   21.1908 C   0  0  0  0  0  0
  -22.1687   -4.2162   21.0965 F   0  0  0  0  0  0
  -21.5640   -3.4514   25.7722 F   0  0  0  0  0  0
  -29.9826  -13.5277   20.3860 N   0  0  0  0  0  0
  -26.2929  -12.9436   20.3248 N   0  0  0  0  0  0
  -25.9326  -11.6574   20.5681 N   0  0  0  0  0  0
  -22.0504  -12.8182   22.0439 N   0  0  0  0  0  0
  -25.4218  -15.1944   20.4096 N   0  0  0  0  0  0
  -31.8080  -14.8292   20.2068 O   0  0  0  0  0  0
  -21.6670   -6.8898   21.4251 O   0  0  0  0  0  0
  -22.3496  -14.5544   20.6752 O   0  0  0  0  0  0
  -24.6310  -31.8544   23.1904 C   0  0  0  0  0  0
  -25.9163  -32.4726   23.8250 C   0  0  1  0  0  0
  -27.2367  -27.2963   20.0997 C   0  0  0  0  0  0
  -25.5957  -33.8514   24.2172 N   0  0  0  0  0  0
  -23.4241  -30.4792   21.5285 C   0  0  2  0  0  0
  -24.8718  -28.9254   20.1058 C   0  0  0  0  0  0
  -22.7469  -29.4645   22.4814 C   0  0  0  0  0  0
  -18.0288  -28.1393   22.8456 C   0  0  0  0  0  0
  -24.1508  -36.7307   23.2633 C   0  0  0  0  0  0
  -25.9645  -30.7825   21.3602 C   0  0  0  0  0  0
  -26.0392  -29.4052   20.7063 C   0  0  0  0  0  0
  -27.2214  -28.6017   20.6954 C   0  0  0  0  0  0
  -26.0355  -26.8698   19.4864 C   0  0  0  0  0  0
  -24.8709  -27.6649   19.4894 C   0  0  0  0  0  0
  -23.6404  -29.8074   20.1464 C   0  0  0  0  0  0
  -25.4126  -36.3023   24.0280 C   0  0  1  0  0  0
  -20.5893  -28.3727   23.1202 C   0  0  2  0  0  0
  -20.6769  -26.9435   22.5371 C   0  0  0  0  0  0
  -19.5765  -26.6382   21.5170 C   0  0  0  0  0  0
  -18.1946  -26.7927   22.1589 C   0  0  0  0  0  0
  -19.1546  -28.8862   23.2841 C   0  0  0  0  0  0
  -18.9484  -30.1443   23.8893 C   0  0  0  0  0  0
  -17.6498  -30.6588   24.0560 C   0  0  0  0  0  0
  -25.9070  -34.9407   23.5018 C   0  0  0  0  0  0
  -16.5378  -29.9101   23.6315 C   0  0  0  0  0  0
  -16.7280  -28.6510   23.0334 C   0  0  0  0  0  0
  -26.4534  -31.6553   25.0654 C   0  0  0  0  0  0
  -25.3756  -31.3756   26.1375 C   0  0  0  0  0  0
  -27.0391  -30.2954   24.6165 C   0  0  0  0  0  0
  -27.6031  -32.4317   25.7492 C   0  0  0  0  0  0
  -27.5565  -37.1805   24.8439 C   0  0  0  0  0  0
  -21.4170  -29.3103   22.3583 N   0  0  0  0  0  0
  -26.4272  -37.3742   23.9387 N   0  0  0  0  0  0
  -24.6912  -31.0559   22.0843 N   0  0  0  0  0  0
  -23.4179  -28.8208   23.2927 O   0  0  0  0  0  0
  -28.3841  -26.4768   20.1514 O   0  0  0  0  0  0
  -26.5646  -34.8890   22.4589 O   0  0  0  0  0  0
  -23.5470  -32.1349   23.7235 O   0  0  0  0  0  0
  -30.4930  -20.0157   19.0429 C   0  0  0  0  0  0
  -29.3823  -18.4691   20.5489 C   0  0  0  0  0  0
  -29.5830  -19.8421   20.1023 C   0  0  0  0  0  0
  -31.0699  -18.9140   18.3777 C   0  0  0  0  0  0
  -30.0160  -17.3010   19.9443 C   0  0  0  0  0  0
  -30.7961  -17.5774   18.7740 C   0  0  0  0  0  0
  -31.9805  -19.2001   17.1890 C   0  0  0  0  0  0
  -27.3432  -23.8042   21.5256 C   0  0  0  0  0  0
  -28.9351  -21.1499   20.7537 C   0  0  0  0  0  0
  -28.4626  -25.0873   19.5985 C   0  0  0  0  0  0
  -28.5595  -23.8099   20.5791 C   0  0  2  0  0  0
  -29.7876  -15.8995   20.4275 N   0  0  0  0  0  0
  -28.7846  -22.4279   19.9119 N   0  3  0  0  0  0
  -31.3509  -16.3204   17.7145 Cl  0  0  0  0  0  0
  -31.4712  -12.5879   19.1686 H   0  0  0  0  0  0
  -30.3566  -11.4836   19.9464 H   0  0  0  0  0  0
  -29.7807  -11.7427   17.5110 H   0  0  0  0  0  0
  -29.6488  -13.4734   17.7091 H   0  0  0  0  0  0
  -27.8730  -11.3083   18.8644 H   0  0  0  0  0  0
  -27.3846  -12.5830   17.7791 H   0  0  0  0  0  0
  -27.6209  -14.2660   19.4677 H   0  0  0  0  0  0
  -28.7218  -12.1836   21.4134 H   0  0  0  0  0  0
  -28.4227  -13.8656   21.7848 H   0  0  0  0  0  0
  -25.2820   -9.5702   22.4760 H   0  0  0  0  0  0
  -24.0069   -7.4629   22.7415 H   0  0  0  0  0  0
  -21.0901   -8.8762   19.8927 H   0  0  0  0  0  0
  -22.3723  -10.9702   19.6152 H   0  0  0  0  0  0
  -21.1985   -7.6136   23.9717 H   0  0  0  0  0  0
  -21.1498   -6.0507   25.9088 H   0  0  0  0  0  0
  -22.0587   -2.7597   23.2811 H   0  0  0  0  0  0
  -22.4132  -11.9843   22.4817 H   0  0  0  0  0  0
  -21.1110  -13.1134   22.2655 H   0  0  0  0  0  0
  -24.6543  -15.8505   20.5141 H   0  0  0  0  0  0
  -26.2574  -15.6302   20.0413 H   0  0  0  0  0  0
  -26.7242  -32.5400   23.0997 H   0  0  0  0  0  0
  -25.0106  -33.9639   25.0315 H   0  0  0  0  0  0
  -22.7227  -31.3023   21.3747 H   0  0  0  0  0  0
  -23.3722  -35.9695   23.3270 H   0  0  0  0  0  0
  -24.3603  -36.8982   22.2058 H   0  0  0  0  0  0
  -23.7334  -37.6510   23.6711 H   0  0  0  0  0  0
  -26.0932  -31.5461   20.5908 H   0  0  0  0  0  0
  -26.8421  -30.8362   21.9903 H   0  0  0  0  0  0
  -28.1185  -28.9742   21.1668 H   0  0  0  0  0  0
  -25.9483  -25.9093   19.0040 H   0  0  0  0  0  0
  -23.9732  -27.2931   19.0157 H   0  0  0  0  0  0
  -23.7644  -30.5765   19.3818 H   0  0  0  0  0  0
  -22.7642  -29.2316   19.8456 H   0  0  0  0  0  0
  -25.1332  -36.1806   25.0774 H   0  0  0  0  0  0
  -21.0005  -28.3339   24.1316 H   0  0  0  0  0  0
  -20.5584  -26.2394   23.3617 H   0  0  0  0  0  0
  -21.6653  -26.7409   22.1239 H   0  0  0  0  0  0
  -19.6935  -25.6280   21.1248 H   0  0  0  0  0  0
  -19.6696  -27.3146   20.6667 H   0  0  0  0  0  0
  -17.4207  -26.6632   21.4001 H   0  0  0  0  0  0
  -18.0379  -26.0055   22.8983 H   0  0  0  0  0  0
  -19.7976  -30.7215   24.2283 H   0  0  0  0  0  0
  -17.5074  -31.6267   24.5174 H   0  0  0  0  0  0
  -15.5382  -30.3028   23.7612 H   0  0  0  0  0  0
  -15.8677  -28.0817   22.7071 H   0  0  0  0  0  0
  -24.5867  -30.7181   25.7708 H   0  0  0  0  0  0
  -24.9063  -32.2987   26.4786 H   0  0  0  0  0  0
  -25.8060  -30.8912   27.0149 H   0  0  0  0  0  0
  -26.2986  -29.6665   24.1208 H   0  0  0  0  0  0
  -27.4084  -29.7243   25.4694 H   0  0  0  0  0  0
  -27.8847  -30.4194   23.9397 H   0  0  0  0  0  0
  -27.2540  -33.3566   26.2090 H   0  0  0  0  0  0
  -28.3875  -32.6959   25.0392 H   0  0  0  0  0  0
  -28.0672  -31.8449   26.5424 H   0  0  0  0  0  0
  -28.2535  -38.0141   24.7460 H   0  0  0  0  0  0
  -28.1093  -36.2647   24.6268 H   0  0  0  0  0  0
  -27.2279  -37.1461   25.8843 H   0  0  0  0  0  0
  -20.9325  -29.8897   21.6863 H   0  0  0  0  0  0
  -26.0112  -38.2789   24.1404 H   0  0  0  0  0  0
  -30.7380  -21.0121   18.7062 H   0  0  0  0  0  0
  -28.7246  -18.3071   21.3923 H   0  0  0  0  0  0
  -31.4932  -18.9166   16.2555 H   0  0  0  0  0  0
  -32.9155  -18.6460   17.2696 H   0  0  0  0  0  0
  -32.2368  -20.2567   17.1236 H   0  0  0  0  0  0
  -27.3024  -24.7322   22.0989 H   0  0  0  0  0  0
  -27.3887  -22.9864   22.2437 H   0  0  0  0  0  0
  -26.4052  -23.7290   20.9771 H   0  0  0  0  0  0
  -29.5284  -21.4083   21.6305 H   0  0  0  0  0  0
  -27.9487  -20.8821   21.1352 H   0  0  0  0  0  0
  -27.7048  -24.8979   18.8414 H   0  0  0  0  0  0
  -29.3893  -25.0943   19.0217 H   0  0  0  0  0  0
  -29.4350  -23.9866   21.2052 H   0  0  0  0  0  0
  -28.8467  -15.7210   20.7439 H   0  0  0  0  0  0
  -28.0455  -22.2506   19.2492 H   0  0  0  0  0  0
  -29.6327  -22.4921   19.3722 H   0  0  0  0  0  0
  1 25  1  0  0  0
  1 30  2  0  0  0
  1 82  1  0  0  0
  2  3  1  0  0  0
  2 25  1  0  0  0
  2 85  1  0  0  0
  2 86  1  0  0  0
  3  4  1  0  0  0
  3 87  1  0  0  0
  3 88  1  0  0  0
  4  5  1  0  0  0
  4 89  1  0  0  0
  4 90  1  0  0  0
  5  6  1  0  0  0
  5 26  1  0  0  0
  5 91  1  0  0  0
  6 25  1  0  0  0
  6 92  1  0  0  0
  6 93  1  0  0  0
  7  8  2  0  0  0
  7 26  1  0  0  0
  7 29  1  0  0  0
  8  9  1  0  0  0
  8 22  1  0  0  0
  9 10  1  0  0  0
  9 27  2  0  0  0
 10 11  2  0  0  0
 10 15  1  0  0  0
 11 12  1  0  0  0
 11 94  1  0  0  0
 12 13  2  0  0  0
 12 95  1  0  0  0
 13 14  1  0  0  0
 13 31  1  0  0  0
 14 15  2  0  0  0
 14 96  1  0  0  0
 15 97  1  0  0  0
 16 17  2  0  0  0
 16 21  1  0  0  0
 16 31  1  0  0  0
 17 18  1  0  0  0
 17 98  1  0  0  0
 18 19  2  0  0  0
 18 99  1  0  0  0
 19 20  1  0  0  0
 19 24  1  0  0  0
 20 21  2  0  0  0
 20100  1  0  0  0
 21 23  1  0  0  0
 22 28  1  0  0  0
 22 32  2  0  0  0
 26 27  1  0  0  0
 28101  1  0  0  0
 28102  1  0  0  0
 29103  1  0  0  0
 29104  1  0  0  0
 33 34  1  0  0  0
 33 66  1  0  0  0
 33 70  2  0  0  0
 34 36  1  0  0  0
 34 59  1  0  0  0
 34105  1  0  0  0
 35 44  2  0  0  0
 35 45  1  0  0  0
 35 68  1  0  0  0
 36 56  1  0  0  0
 36106  1  0  0  0
 37 39  1  0  0  0
 37 47  1  0  0  0
 37 66  1  0  0  0
 37107  1  0  0  0
 38 43  2  0  0  0
 38 46  1  0  0  0
 38 47  1  0  0  0
 39 64  1  0  0  0
 39 67  2  0  0  0
 40 52  1  0  0  0
 40 53  2  0  0  0
 40 58  1  0  0  0
 41108  1  0  0  0
 41109  1  0  0  0
 41110  1  0  0  0
 41 48  1  0  0  0
 42 43  1  0  0  0
 42 66  1  0  0  0
 42111  1  0  0  0
 42112  1  0  0  0
 43 44  1  0  0  0
 44113  1  0  0  0
 45 46  2  0  0  0
 45114  1  0  0  0
 46115  1  0  0  0
 47116  1  0  0  0
 47117  1  0  0  0
 48 56  1  0  0  0
 48 65  1  0  0  0
 48118  1  0  0  0
 49 50  1  0  0  0
 49 53  1  0  0  0
 49 64  1  0  0  0
 49119  1  0  0  0
 50 51  1  0  0  0
 50120  1  0  0  0
 50121  1  0  0  0
 51 52  1  0  0  0
 51122  1  0  0  0
 51123  1  0  0  0
 52124  1  0  0  0
 52125  1  0  0  0
 53 54  1  0  0  0
 54 55  2  0  0  0
 54126  1  0  0  0
 55 57  1  0  0  0
 55127  1  0  0  0
 56 69  2  0  0  0
 57 58  2  0  0  0
 57128  1  0  0  0
 58129  1  0  0  0
 59 60  1  0  0  0
 59 61  1  0  0  0
 59 62  1  0  0  0
 60130  1  0  0  0
 60131  1  0  0  0
 60132  1  0  0  0
 61133  1  0  0  0
 61134  1  0  0  0
 61135  1  0  0  0
 62136  1  0  0  0
 62137  1  0  0  0
 62138  1  0  0  0
 63 65  1  0  0  0
 63139  1  0  0  0
 63140  1  0  0  0
 63141  1  0  0  0
 64142  1  0  0  0
 65143  1  0  0  0
 68 80  1  0  0  0
 71 73  2  0  0  0
 71 74  1  0  0  0
 71144  1  0  0  0
 72 73  1  0  0  0
 72 75  2  0  0  0
 72145  1  0  0  0
 73 79  1  0  0  0
 74 76  2  0  0  0
 74 77  1  0  0  0
 75 76  1  0  0  0
 75 82  1  0  0  0
 76 84  1  0  0  0
 77146  1  0  0  0
 77147  1  0  0  0
 77148  1  0  0  0
 78149  1  0  0  0
 78150  1  0  0  0
 78151  1  0  0  0
 78 81  1  0  0  0
 79 83  1  0  0  0
 79152  1  0  0  0
 79153  1  0  0  0
 80 81  1  0  0  0
 80154  1  0  0  0
 80155  1  0  0  0
 81 83  1  0  0  0
 81156  1  0  0  0
 82157  1  0  0  0
 83158  1  0  0  0
 83159  1  0  0  0
M  CHG  1  83   1
M  ISO  4   1 100  68 101  80 101  82 100
M  END
> <chiral flag>
0

> <version>
0

> <s_m_source_file>
/data/baiqing/PycharmProjects/Reinvent-master-3.2/result/LINK_invent/BTK/process_docking_weight1_custom_sum_contain_oxygen_bond_distance_aromatic_linkinvent_7_9_3/rearranged_h_0028.sdf

> <i_m_source_file_index>
20

> <r_mmod_Potential_Energy-OPLS-2005>
16.3031158447266

> <r_mmod_Stretch_Energy-OPLS-2005>
124.490280151367

> <r_mmod_Bend_Energy-OPLS-2005>
166.307968139648

> <r_mmod_Torsional_Energy-OPLS-2005>
235.294128417969

> <r_mmod_Improper_Torsional_Energy-OPLS-2005>
5.2674560546875

> <r_mmod_Van_der_Waal_Energy-OPLS-2005>
142.70133972168

> <r_mmod_Electrostatic_Energy-OPLS-2005>
-259.520263671875

> <r_mmod_Solvation_Energy-OPLS-2005>
-478.735015869141

> <b_mmod_Minimization_Converged-OPLS-2005>
0

> <r_mmod_RMS_Derivative-OPLS-2005>
4.56970500946045

$$$$
20
                    3D
 Structure written by MMmdl.
155163  0  0  1  0            999 V2000
  -30.5586  -14.7936   20.4611 C   0  0  0  0  0  0
  -30.4480  -12.4928   19.4521 C   0  0  0  0  0  0
  -29.5106  -12.5049   18.2233 C   0  0  0  0  0  0
  -28.0375  -12.3189   18.6454 C   0  0  0  0  0  0
  -27.6382  -13.2246   19.8409 C   0  0  2  0  0  0
  -28.6881  -13.1620   20.9685 C   0  0  0  0  0  0
  -25.2515  -13.8171   20.5684 C   0  0  0  0  0  0
  -24.1804  -13.0426   20.9211 C   0  0  0  0  0  0
  -24.6388  -11.6901   20.8755 C   0  0  0  0  0  0
  -23.9069  -10.4282   21.0418 C   0  0  0  0  0  0
  -24.3622   -9.4196   21.9194 C   0  0  0  0  0  0
  -23.6294   -8.2237   22.0759 C   0  0  0  0  0  0
  -22.4276   -8.0279   21.3550 C   0  0  0  0  0  0
  -21.9915   -9.0252   20.4652 C   0  0  0  0  0  0
  -22.7244  -10.2130   20.3063 C   0  0  0  0  0  0
  -21.6849   -6.0738   22.5280 C   0  0  0  0  0  0
  -21.4009   -6.5642   23.8212 C   0  0  0  0  0  0
  -21.3656   -5.6794   24.9175 C   0  0  0  0  0  0
  -21.6044   -4.3057   24.7226 C   0  0  0  0  0  0
  -21.8822   -3.8149   23.4346 C   0  0  0  0  0  0
  -21.9192   -4.6966   22.3403 C   0  0  0  0  0  0
  -22.7828  -13.5220   21.1870 C   0  0  0  0  0  0
  -22.1662   -4.2150   21.0980 F   0  0  0  0  0  0
  -21.5630   -3.4540   25.7740 F   0  0  0  0  0  0
  -29.9734  -13.5488   20.3727 N   0  0  0  0  0  0
  -26.2926  -12.9362   20.3248 N   0  0  0  0  0  0
  -25.9313  -11.6514   20.5742 N   0  0  0  0  0  0
  -22.0471  -12.8211   22.0423 N   0  0  0  0  0  0
  -25.4194  -15.1899   20.4092 N   0  0  0  0  0  0
  -31.7693  -14.9215   20.2583 O   0  0  0  0  0  0
  -21.6638   -6.8880   21.4242 O   0  0  0  0  0  0
  -22.3518  -14.5525   20.6708 O   0  0  0  0  0  0
  -24.6334  -31.8529   23.1952 C   0  0  0  0  0  0
  -25.9155  -32.4736   23.8309 C   0  0  1  0  0  0
  -27.2253  -27.2393   20.1543 C   0  0  0  0  0  0
  -25.5948  -33.8539   24.2240 N   0  0  0  0  0  0
  -23.4311  -30.4720   21.5393 C   0  0  2  0  0  0
  -24.8787  -28.9001   20.1293 C   0  0  0  0  0  0
  -22.7505  -29.4598   22.4927 C   0  0  0  0  0  0
  -18.0292  -28.1399   22.8481 C   0  0  0  0  0  0
  -24.1489  -36.7260   23.2642 C   0  0  0  0  0  0
  -25.9765  -30.7601   21.3748 C   0  0  0  0  0  0
  -26.0502  -29.3724   20.7360 C   0  0  0  0  0  0
  -27.2292  -28.5565   20.7316 C   0  0  0  0  0  0
  -26.0302  -26.8264   19.5363 C   0  0  0  0  0  0
  -24.8726  -27.6335   19.5219 C   0  0  0  0  0  0
  -23.6522  -29.7944   20.1611 C   0  0  0  0  0  0
  -25.4110  -36.3047   24.0331 C   0  0  1  0  0  0
  -20.5898  -28.3702   23.1271 C   0  0  2  0  0  0
  -20.6780  -26.9419   22.5411 C   0  0  0  0  0  0
  -19.5757  -26.6388   21.5219 C   0  0  0  0  0  0
  -18.1935  -26.7945   22.1620 C   0  0  0  0  0  0
  -19.1547  -28.8868   23.2871 C   0  0  0  0  0  0
  -18.9470  -30.1472   23.8888 C   0  0  0  0  0  0
  -17.6468  -30.6594   24.0565 C   0  0  0  0  0  0
  -25.9049  -34.9425   23.5081 C   0  0  0  0  0  0
  -16.5355  -29.9092   23.6342 C   0  0  0  0  0  0
  -16.7279  -28.6512   23.0352 C   0  0  0  0  0  0
  -26.4527  -31.6566   25.0701 C   0  0  0  0  0  0
  -25.3746  -31.3721   26.1417 C   0  0  0  0  0  0
  -27.0378  -30.2985   24.6183 C   0  0  0  0  0  0
  -27.6088  -32.4304   25.7468 C   0  0  0  0  0  0
  -27.5579  -37.1765   24.8462 C   0  0  0  0  0  0
  -21.4209  -29.3042   22.3660 N   0  0  0  0  0  0
  -26.4268  -37.3762   23.9439 N   0  0  0  0  0  0
  -24.6992  -31.0480   22.0931 N   0  0  0  0  0  0
  -23.4194  -28.8156   23.3050 O   0  0  0  0  0  0
  -28.3516  -26.4043   19.9976 O   0  0  0  0  0  0
  -26.5623  -34.8912   22.4653 O   0  0  0  0  0  0
  -23.5476  -32.1356   23.7237 O   0  0  0  0  0  0
  -27.2146  -21.0878   21.0076 C   0  0  0  0  0  0
  -28.4788  -21.1562   20.3965 C   0  0  0  0  0  0
  -28.9810  -22.5251   20.2338 C   0  0  0  0  0  0
  -28.1930  -23.6972   20.6426 C   0  0  0  0  0  0
  -26.5052  -22.2499   21.3588 C   0  0  0  0  0  0
  -30.3615  -22.7474   19.6383 C   0  0  0  0  0  0
  -29.0203  -19.7668   19.7803 C   0  0  0  0  0  0
  -28.6913  -25.2151   20.8510 C   0  0  0  0  0  0
  -30.1006  -18.7227   20.4099 C   0  0  0  0  0  0
  -29.8181  -17.3040   21.1743 C   0  0  0  0  0  0
  -26.9695  -23.5021   21.1716 N   0  0  0  0  0  0
  -29.7062  -15.8931   20.5653 N   0  0  0  0  0  0
  -24.9444  -22.0812   22.0710 Cl  0  0  0  0  0  0
  -31.4797  -12.6631   19.1392 H   0  0  0  0  0  0
  -30.4353  -11.5192   19.9444 H   0  0  0  0  0  0
  -29.7988  -11.7217   17.5205 H   0  0  0  0  0  0
  -29.6202  -13.4498   17.6886 H   0  0  0  0  0  0
  -27.9038  -11.2715   18.9184 H   0  0  0  0  0  0
  -27.3751  -12.4974   17.7974 H   0  0  0  0  0  0
  -27.6257  -14.2426   19.4522 H   0  0  0  0  0  0
  -28.7469  -12.1588   21.3930 H   0  0  0  0  0  0
  -28.4200  -13.8275   21.7910 H   0  0  0  0  0  0
  -25.2768   -9.5672   22.4763 H   0  0  0  0  0  0
  -24.0001   -7.4629   22.7475 H   0  0  0  0  0  0
  -21.0848   -8.8773   19.8955 H   0  0  0  0  0  0
  -22.3708  -10.9671   19.6170 H   0  0  0  0  0  0
  -21.1995   -7.6149   23.9715 H   0  0  0  0  0  0
  -21.1475   -6.0525   25.9078 H   0  0  0  0  0  0
  -22.0604   -2.7610   23.2846 H   0  0  0  0  0  0
  -22.4085  -11.9874   22.4817 H   0  0  0  0  0  0
  -21.1087  -13.1238   22.2618 H   0  0  0  0  0  0
  -24.6478  -15.8387   20.5213 H   0  0  0  0  0  0
  -26.2563  -15.6338   20.0553 H   0  0  0  0  0  0
  -26.7216  -32.5384   23.1042 H   0  0  0  0  0  0
  -25.0143  -33.9686   25.0420 H   0  0  0  0  0  0
  -22.7285  -31.2935   21.3852 H   0  0  0  0  0  0
  -23.3764  -35.9576   23.3277 H   0  0  0  0  0  0
  -24.3588  -36.8907   22.2060 H   0  0  0  0  0  0
  -23.7221  -37.6448   23.6677 H   0  0  0  0  0  0
  -26.1084  -31.5094   20.5930 H   0  0  0  0  0  0
  -26.8576  -30.8214   22.0011 H   0  0  0  0  0  0
  -28.1395  -28.9324   21.1766 H   0  0  0  0  0  0
  -25.9967  -25.8606   19.0513 H   0  0  0  0  0  0
  -23.9759  -27.2653   19.0423 H   0  0  0  0  0  0
  -23.7830  -30.5629   19.3987 H   0  0  0  0  0  0
  -22.7694  -29.2294   19.8563 H   0  0  0  0  0  0
  -25.1289  -36.1873   25.0819 H   0  0  0  0  0  0
  -20.9981  -28.3267   24.1396 H   0  0  0  0  0  0
  -20.5695  -26.2307   23.3614 H   0  0  0  0  0  0
  -21.6646  -26.7446   22.1193 H   0  0  0  0  0  0
  -19.6918  -25.6301   21.1247 H   0  0  0  0  0  0
  -19.6699  -27.3195   20.6753 H   0  0  0  0  0  0
  -17.4207  -26.6705   21.4016 H   0  0  0  0  0  0
  -18.0316  -26.0093   22.9020 H   0  0  0  0  0  0
  -19.7947  -30.7297   24.2239 H   0  0  0  0  0  0
  -17.5023  -31.6276   24.5170 H   0  0  0  0  0  0
  -15.5357  -30.2989   23.7688 H   0  0  0  0  0  0
  -15.8675  -28.0834   22.7067 H   0  0  0  0  0  0
  -24.5947  -30.7033   25.7756 H   0  0  0  0  0  0
  -24.8908  -32.2891   26.4788 H   0  0  0  0  0  0
  -25.8067  -30.8947   27.0221 H   0  0  0  0  0  0
  -26.2949  -29.6710   24.1236 H   0  0  0  0  0  0
  -27.4115  -29.7263   25.4690 H   0  0  0  0  0  0
  -27.8807  -30.4287   23.9388 H   0  0  0  0  0  0
  -27.2715  -33.3630   26.2005 H   0  0  0  0  0  0
  -28.3915  -32.6813   25.0295 H   0  0  0  0  0  0
  -28.0735  -31.8445   26.5409 H   0  0  0  0  0  0
  -28.2549  -38.0109   24.7562 H   0  0  0  0  0  0
  -28.1114  -36.2638   24.6196 H   0  0  0  0  0  0
  -27.2313  -37.1300   25.8867 H   0  0  0  0  0  0
  -20.9405  -29.8733   21.6827 H   0  0  0  0  0  0
  -26.0133  -38.2820   24.1494 H   0  0  0  0  0  0
  -26.7388  -20.1296   21.1605 H   0  0  0  0  0  0
  -30.7380  -21.8657   19.1217 H   0  0  0  0  0  0
  -31.0761  -23.0008   20.4215 H   0  0  0  0  0  0
  -30.3440  -23.5651   18.9170 H   0  0  0  0  0  0
  -29.4127  -20.0465   18.8025 H   0  0  0  0  0  0
  -28.1426  -19.1753   19.5176 H   0  0  0  0  0  0
  -29.7805  -25.1791   20.8580 H   0  0  0  0  0  0
  -28.4357  -25.4928   21.8748 H   0  0  0  0  0  0
  -30.7190  -19.3254   21.0759 H   0  0  0  0  0  0
  -30.7819  -18.4692   19.5972 H   0  0  0  0  0  0
  -28.9187  -17.4456   21.7750 H   0  0  0  0  0  0
  -30.6136  -17.2072   21.9149 H   0  0  0  0  0  0
  -28.7449  -15.5972   20.4886 H   0  0  0  0  0  0
  1 25  1  0  0  0
  1 30  2  0  0  0
  1 82  1  0  0  0
  2  3  1  0  0  0
  2 25  1  0  0  0
  2 84  1  0  0  0
  2 85  1  0  0  0
  3  4  1  0  0  0
  3 86  1  0  0  0
  3 87  1  0  0  0
  4  5  1  0  0  0
  4 88  1  0  0  0
  4 89  1  0  0  0
  5  6  1  0  0  0
  5 26  1  0  0  0
  5 90  1  0  0  0
  6 25  1  0  0  0
  6 91  1  0  0  0
  6 92  1  0  0  0
  7  8  2  0  0  0
  7 26  1  0  0  0
  7 29  1  0  0  0
  8  9  1  0  0  0
  8 22  1  0  0  0
  9 10  1  0  0  0
  9 27  2  0  0  0
 10 11  2  0  0  0
 10 15  1  0  0  0
 11 12  1  0  0  0
 11 93  1  0  0  0
 12 13  2  0  0  0
 12 94  1  0  0  0
 13 14  1  0  0  0
 13 31  1  0  0  0
 14 15  2  0  0  0
 14 95  1  0  0  0
 15 96  1  0  0  0
 16 17  2  0  0  0
 16 21  1  0  0  0
 16 31  1  0  0  0
 17 18  1  0  0  0
 17 97  1  0  0  0
 18 19  2  0  0  0
 18 98  1  0  0  0
 19 20  1  0  0  0
 19 24  1  0  0  0
 20 21  2  0  0  0
 20 99  1  0  0  0
 21 23  1  0  0  0
 22 28  1  0  0  0
 22 32  2  0  0  0
 26 27  1  0  0  0
 28100  1  0  0  0
 28101  1  0  0  0
 29102  1  0  0  0
 29103  1  0  0  0
 33 34  1  0  0  0
 33 66  1  0  0  0
 33 70  2  0  0  0
 34 36  1  0  0  0
 34 59  1  0  0  0
 34104  1  0  0  0
 35 44  2  0  0  0
 35 45  1  0  0  0
 35 68  1  0  0  0
 36 56  1  0  0  0
 36105  1  0  0  0
 37 39  1  0  0  0
 37 47  1  0  0  0
 37 66  1  0  0  0
 37106  1  0  0  0
 38 43  2  0  0  0
 38 46  1  0  0  0
 38 47  1  0  0  0
 39 64  1  0  0  0
 39 67  2  0  0  0
 40 52  1  0  0  0
 40 53  2  0  0  0
 40 58  1  0  0  0
 41107  1  0  0  0
 41108  1  0  0  0
 41109  1  0  0  0
 41 48  1  0  0  0
 42 43  1  0  0  0
 42 66  1  0  0  0
 42110  1  0  0  0
 42111  1  0  0  0
 43 44  1  0  0  0
 44112  1  0  0  0
 45 46  2  0  0  0
 45113  1  0  0  0
 46114  1  0  0  0
 47115  1  0  0  0
 47116  1  0  0  0
 48 56  1  0  0  0
 48 65  1  0  0  0
 48117  1  0  0  0
 49 50  1  0  0  0
 49 53  1  0  0  0
 49 64  1  0  0  0
 49118  1  0  0  0
 50 51  1  0  0  0
 50119  1  0  0  0
 50120  1  0  0  0
 51 52  1  0  0  0
 51121  1  0  0  0
 51122  1  0  0  0
 52123  1  0  0  0
 52124  1  0  0  0
 53 54  1  0  0  0
 54 55  2  0  0  0
 54125  1  0  0  0
 55 57  1  0  0  0
 55126  1  0  0  0
 56 69  2  0  0  0
 57 58  2  0  0  0
 57127  1  0  0  0
 58128  1  0  0  0
 59 60  1  0  0  0
 59 61  1  0  0  0
 59 62  1  0  0  0
 60129  1  0  0  0
 60130  1  0  0  0
 60131  1  0  0  0
 61132  1  0  0  0
 61133  1  0  0  0
 61134  1  0  0  0
 62135  1  0  0  0
 62136  1  0  0  0
 62137  1  0  0  0
 63 65  1  0  0  0
 63138  1  0  0  0
 63139  1  0  0  0
 63140  1  0  0  0
 64141  1  0  0  0
 65142  1  0  0  0
 68 78  1  0  0  0
 71 72  2  0  0  0
 71 75  1  0  0  0
 71143  1  0  0  0
 72 73  1  0  0  0
 72 77  1  0  0  0
 73 74  2  0  0  0
 73 76  1  0  0  0
 74 78  1  0  0  0
 74 81  1  0  0  0
 75 81  2  0  0  0
 75 83  1  0  0  0
 76144  1  0  0  0
 76145  1  0  0  0
 76146  1  0  0  0
 77 79  1  0  0  0
 77147  1  0  0  0
 77148  1  0  0  0
 78149  1  0  0  0
 78150  1  0  0  0
 79 80  1  0  0  0
 79151  1  0  0  0
 79152  1  0  0  0
 80 82  1  0  0  0
 80153  1  0  0  0
 80154  1  0  0  0
 82155  1  0  0  0
M  ISO  4   1 100  68 101  78 101  82 100
M  END
> <chiral flag>
0

> <version>
0

> <s_m_source_file>
/data/baiqing/PycharmProjects/Reinvent-master-3.2/result/LINK_invent/BTK/process_docking_weight1_custom_sum_contain_oxygen_bond_distance_aromatic_linkinvent_7_9_3/rearranged_h_0028.sdf

> <i_m_source_file_index>
21

> <r_mmod_Potential_Energy-OPLS-2005>
197.276229858398

> <r_mmod_Stretch_Energy-OPLS-2005>
144.460998535156

> <r_mmod_Bend_Energy-OPLS-2005>
267.18896484375

> <r_mmod_Torsional_Energy-OPLS-2005>
276.747406005859

> <r_mmod_Improper_Torsional_Energy-OPLS-2005>
9.42645645141602

> <r_mmod_Van_der_Waal_Energy-OPLS-2005>
125.284965515137

> <r_mmod_Electrostatic_Energy-OPLS-2005>
-504.873931884766

> <r_mmod_Solvation_Energy-OPLS-2005>
-221.049468994141

> <b_mmod_Minimization_Converged-OPLS-2005>
0

> <r_mmod_RMS_Derivative-OPLS-2005>
1.3299206495285

$$$$
21
                    3D
 Structure written by MMmdl.
161169  0  0  1  0            999 V2000
  -32.1241  -13.8849   20.5952 C   0  0  0  0  0  0
  -30.8047  -11.9649   19.2838 C   0  0  0  0  0  0
  -29.5558  -12.1055   17.6854 C   0  0  0  0  0  0
  -28.2871  -13.6715   17.5153 C   0  0  0  0  0  0
  -28.2678  -15.2536   19.4618 C   0  0  2  0  0  0
  -29.9215  -14.7715   20.7889 C   0  0  0  0  0  0
  -24.4110  -14.5880   20.7239 C   0  0  0  0  0  0
  -23.6734  -13.4341   20.9149 C   0  0  0  0  0  0
  -24.3793  -12.2259   20.9709 C   0  0  0  0  0  0
  -23.9098  -10.7248   21.0652 C   0  0  0  0  0  0
  -24.3862   -9.6782   21.9253 C   0  0  0  0  0  0
  -23.7101   -8.4159   22.0690 C   0  0  0  0  0  0
  -22.5161   -8.1322   21.3540 C   0  0  0  0  0  0
  -22.0810   -9.1151   20.4482 C   0  0  0  0  0  0
  -22.7634  -10.3505   20.3038 C   0  0  0  0  0  0
  -21.7499   -6.1207   22.5219 C   0  0  0  0  0  0
  -21.4487   -6.5956   23.8176 C   0  0  0  0  0  0
  -21.3786   -5.7009   24.9075 C   0  0  0  0  0  0
  -21.6015   -4.3245   24.7113 C   0  0  0  0  0  0
  -21.8754   -3.8410   23.4222 C   0  0  0  0  0  0
  -21.9394   -4.7308   22.3323 C   0  0  0  0  0  0
  -22.2643  -13.5576   21.1580 C   0  0  0  0  0  0
  -22.1751   -4.2420   21.0909 F   0  0  0  0  0  0
  -21.5485   -3.4666   25.7594 F   0  0  0  0  0  0
  -30.9400  -13.2887   20.5786 N   0  0  0  0  0  0
  -25.6792  -14.4255   20.7814 N   0  0  0  0  0  0
  -25.4956  -12.8892   21.2425 N   0  0  0  0  0  0
  -21.7404  -12.7580   22.0721 N   0  0  0  0  0  0
  -24.1362  -15.8938   20.6654 N   0  0  0  0  0  0
  -32.3864  -15.0072   20.9612 O   0  0  0  0  0  0
  -21.7769   -6.9555   21.4223 O   0  0  0  0  0  0
  -21.6775  -14.4823   20.6193 O   0  0  0  0  0  0
  -24.7480  -31.7080   23.0996 C   0  0  0  0  0  0
  -25.9754  -32.3992   23.7733 C   0  0  1  0  0  0
  -26.7673  -25.8017   20.2894 C   0  0  0  0  0  0
  -25.6051  -33.7884   24.1513 N   0  0  0  0  0  0
  -23.5766  -30.3126   21.4742 C   0  0  2  0  0  0
  -24.9452  -28.4932   20.1000 C   0  0  0  0  0  0
  -22.7920  -29.3892   22.4478 C   0  0  0  0  0  0
  -18.0350  -28.1446   22.8416 C   0  0  0  0  0  0
  -24.1498  -36.6967   23.2669 C   0  0  0  0  0  0
  -26.1605  -30.1143   21.4989 C   0  0  0  0  0  0
  -26.1171  -28.6006   20.8455 C   0  0  0  0  0  0
  -27.0037  -27.2992   20.8953 C   0  0  0  0  0  0
  -25.6884  -26.1460   19.4127 C   0  0  0  0  0  0
  -24.8324  -27.3123   19.3451 C   0  0  0  0  0  0
  -23.8425  -29.5900   20.1145 C   0  0  0  0  0  0
  -25.4179  -36.2636   24.0221 C   0  0  1  0  0  0
  -20.6004  -28.3821   23.1023 C   0  0  2  0  0  0
  -20.6774  -26.9420   22.5412 C   0  0  0  0  0  0
  -19.5766  -26.6335   21.5212 C   0  0  0  0  0  0
  -18.1953  -26.7963   22.1594 C   0  0  0  0  0  0
  -19.1631  -28.8964   23.2700 C   0  0  0  0  0  0
  -18.9537  -30.1537   23.8770 C   0  0  0  0  0  0
  -17.6525  -30.6616   24.0542 C   0  0  0  0  0  0
  -25.9209  -34.9039   23.4760 C   0  0  0  0  0  0
  -16.5410  -29.9094   23.6367 C   0  0  0  0  0  0
  -16.7330  -28.6524   23.0368 C   0  0  0  0  0  0
  -26.4713  -31.6411   25.0683 C   0  0  0  0  0  0
  -25.3585  -31.3959   26.1163 C   0  0  0  0  0  0
  -27.0786  -30.2681   24.7191 C   0  0  0  0  0  0
  -27.6023  -32.4471   25.7507 C   0  0  0  0  0  0
  -27.5540  -37.1637   24.8457 C   0  0  0  0  0  0
  -21.4526  -29.2958   22.3254 N   0  0  0  0  0  0
  -26.4235  -37.3485   23.9406 N   0  0  0  0  0  0
  -24.8693  -30.7714   22.0710 N   0  0  0  0  0  0
  -23.4094  -28.7564   23.3074 O   0  0  0  0  0  0
  -27.2887  -24.1137   20.4001 O   0  0  0  0  0  0
  -26.5955  -34.8762   22.4453 O   0  0  0  0  0  0
  -23.6398  -32.0610   23.5509 O   0  0  0  0  0  0
  -26.3323  -14.4692   18.6723 C   0  0  0  0  0  0
  -27.3599  -16.0904   21.4869 C   0  0  0  0  0  0
  -26.1786  -16.2501   19.0499 C   0  0  0  0  0  0
  -26.7952  -17.2984   20.3253 C   0  0  0  0  0  0
  -27.4071  -13.3171   19.9014 C   0  0  0  0  0  0
  -27.7445  -14.2943   21.4892 C   0  0  0  0  0  0
  -25.4735  -17.0281   17.9531 C   0  0  0  0  0  0
  -26.9788  -19.5790   20.5684 C   0  0  0  0  0  0
  -31.6072  -13.9333   17.6882 C   0  0  0  0  0  0
  -30.2321  -14.2454   18.5253 C   0  0  0  0  0  0
  -32.9815  -14.0321   18.4193 C   0  0  0  0  0  0
  -26.8973  -21.9839   20.1164 C   0  0  0  0  0  0
  -28.7791  -13.0310   19.6632 N   0  0  0  0  0  0
  -33.0072  -13.3904   19.7366 N   0  0  0  0  0  0
  -28.2380  -13.6728   22.5958 F   0  0  0  0  0  0
  -31.7510  -11.5435   18.9497 H   0  0  0  0  0  0
  -30.4415  -11.1118   19.8564 H   0  0  0  0  0  0
  -28.9072  -11.2332   17.7765 H   0  0  0  0  0  0
  -30.0325  -11.8744   16.7327 H   0  0  0  0  0  0
  -27.4027  -13.1542   17.1401 H   0  0  0  0  0  0
  -28.5307  -14.2300   16.6056 H   0  0  0  0  0  0
  -28.4766  -16.2620   19.0842 H   0  0  0  0  0  0
  -29.8931  -14.9865   21.8617 H   0  0  0  0  0  0
  -30.3797  -15.7578   20.6614 H   0  0  0  0  0  0
  -25.2589   -9.8763   22.5327 H   0  0  0  0  0  0
  -24.1116   -7.6814   22.7535 H   0  0  0  0  0  0
  -21.1964   -8.9322   19.8554 H   0  0  0  0  0  0
  -22.3449  -11.0711   19.6161 H   0  0  0  0  0  0
  -21.2702   -7.6483   23.9791 H   0  0  0  0  0  0
  -21.1545   -6.0704   25.8971 H   0  0  0  0  0  0
  -22.0310   -2.7845   23.2665 H   0  0  0  0  0  0
  -22.3007  -12.0613   22.5373 H   0  0  0  0  0  0
  -20.7613  -12.8361   22.3112 H   0  0  0  0  0  0
  -24.8779  -16.5158   20.3552 H   0  0  0  0  0  0
  -23.2006  -16.2054   20.4321 H   0  0  0  0  0  0
  -26.7883  -32.4242   23.0464 H   0  0  0  0  0  0
  -24.9982  -33.8807   24.9523 H   0  0  0  0  0  0
  -22.9479  -31.1797   21.2591 H   0  0  0  0  0  0
  -23.3799  -35.9252   23.3202 H   0  0  0  0  0  0
  -24.3538  -36.8817   22.2112 H   0  0  0  0  0  0
  -23.7228  -37.6061   23.6902 H   0  0  0  0  0  0
  -26.4932  -30.7726   20.6960 H   0  0  0  0  0  0
  -26.9833  -30.1375   22.1978 H   0  0  0  0  0  0
  -27.8545  -27.3770   21.5573 H   0  0  0  0  0  0
  -25.3531  -25.3279   18.7913 H   0  0  0  0  0  0
  -23.9813  -27.2395   18.6815 H   0  0  0  0  0  0
  -24.1258  -30.3349   19.3709 H   0  0  0  0  0  0
  -22.9112  -29.1587   19.7457 H   0  0  0  0  0  0
  -25.1424  -36.1286   25.0707 H   0  0  0  0  0  0
  -21.0075  -28.3515   24.1156 H   0  0  0  0  0  0
  -20.5565  -26.2466   23.3736 H   0  0  0  0  0  0
  -21.6635  -26.7259   22.1281 H   0  0  0  0  0  0
  -19.6909  -25.6210   21.1333 H   0  0  0  0  0  0
  -19.6746  -27.3071   20.6689 H   0  0  0  0  0  0
  -17.4231  -26.6725   21.3994 H   0  0  0  0  0  0
  -18.0314  -26.0143   22.9016 H   0  0  0  0  0  0
  -19.8020  -30.7374   24.2088 H   0  0  0  0  0  0
  -17.5081  -31.6277   24.5175 H   0  0  0  0  0  0
  -15.5409  -30.2956   23.7754 H   0  0  0  0  0  0
  -15.8733  -28.0798   22.7145 H   0  0  0  0  0  0
  -24.5837  -30.7245   25.7446 H   0  0  0  0  0  0
  -24.8716  -32.3255   26.4116 H   0  0  0  0  0  0
  -25.7581  -30.9421   27.0242 H   0  0  0  0  0  0
  -26.3553  -29.5932   24.2610 H   0  0  0  0  0  0
  -27.4279  -29.7600   25.6193 H   0  0  0  0  0  0
  -27.9529  -30.3637   24.0751 H   0  0  0  0  0  0
  -27.2479  -33.3942   26.1586 H   0  0  0  0  0  0
  -28.4062  -32.6760   25.0497 H   0  0  0  0  0  0
  -28.0443  -31.8962   26.5823 H   0  0  0  0  0  0
  -28.2465  -38.0013   24.7522 H   0  0  0  0  0  0
  -28.1124  -36.2525   24.6259 H   0  0  0  0  0  0
  -27.2254  -37.1222   25.8856 H   0  0  0  0  0  0
  -20.9926  -29.8579   21.6223 H   0  0  0  0  0  0
  -25.9991  -38.2493   24.1440 H   0  0  0  0  0  0
  -25.7745  -14.0747   17.8353 H   0  0  0  0  0  0
  -27.6506  -16.5425   22.4228 H   0  0  0  0  0  0
  -26.1691  -17.2480   17.1425 H   0  0  0  0  0  0
  -25.0797  -17.9734   18.3310 H   0  0  0  0  0  0
  -24.6395  -16.4533   17.5482 H   0  0  0  0  0  0
  -28.0362  -19.5443   20.8353 H   0  0  0  0  0  0
  -26.4628  -19.6174   21.5280 H   0  0  0  0  0  0
  -31.6631  -14.7081   16.9201 H   0  0  0  0  0  0
  -31.6534  -13.0462   17.0729 H   0  0  0  0  0  0
  -29.8656  -15.0351   17.8575 H   0  0  0  0  0  0
  -30.7317  -15.1383   18.8867 H   0  0  0  0  0  0
  -33.2569  -15.0836   18.5289 H   0  0  0  0  0  0
  -33.7646  -13.5967   17.7971 H   0  0  0  0  0  0
  -25.8491  -22.0775   19.8312 H   0  0  0  0  0  0
  -27.4234  -21.9370   19.1643 H   0  0  0  0  0  0
  -29.2378  -12.6784   20.4960 H   0  0  0  0  0  0
  -33.9431  -13.3988   20.1185 H   0  0  0  0  0  0
  1 25  1  0  0  0
  1 30  2  0  0  0
  1 84  1  0  0  0
  2  3  1  0  0  0
  2 25  1  0  0  0
  2 86  1  0  0  0
  2 87  1  0  0  0
  3  4  1  0  0  0
  3 88  1  0  0  0
  3 89  1  0  0  0
  4  5  1  0  0  0
  4 90  1  0  0  0
  4 91  1  0  0  0
  5  6  1  0  0  0
  5 26  1  0  0  0
  5 92  1  0  0  0
  6 25  1  0  0  0
  6 93  1  0  0  0
  6 94  1  0  0  0
  7  8  2  0  0  0
  7 26  1  0  0  0
  7 29  1  0  0  0
  8  9  1  0  0  0
  8 22  1  0  0  0
  9 10  1  0  0  0
  9 27  2  0  0  0
 10 11  2  0  0  0
 10 15  1  0  0  0
 11 12  1  0  0  0
 11 95  1  0  0  0
 12 13  2  0  0  0
 12 96  1  0  0  0
 13 14  1  0  0  0
 13 31  1  0  0  0
 14 15  2  0  0  0
 14 97  1  0  0  0
 15 98  1  0  0  0
 16 17  2  0  0  0
 16 21  1  0  0  0
 16 31  1  0  0  0
 17 18  1  0  0  0
 17 99  1  0  0  0
 18 19  2  0  0  0
 18100  1  0  0  0
 19 20  1  0  0  0
 19 24  1  0  0  0
 20 21  2  0  0  0
 20101  1  0  0  0
 21 23  1  0  0  0
 22 28  1  0  0  0
 22 32  2  0  0  0
 26 27  1  0  0  0
 28102  1  0  0  0
 28103  1  0  0  0
 29104  1  0  0  0
 29105  1  0  0  0
 33 34  1  0  0  0
 33 66  1  0  0  0
 33 70  2  0  0  0
 34 36  1  0  0  0
 34 59  1  0  0  0
 34106  1  0  0  0
 35 44  2  0  0  0
 35 45  1  0  0  0
 35 68  1  0  0  0
 36 56  1  0  0  0
 36107  1  0  0  0
 37 39  1  0  0  0
 37 47  1  0  0  0
 37 66  1  0  0  0
 37108  1  0  0  0
 38 43  2  0  0  0
 38 46  1  0  0  0
 38 47  1  0  0  0
 39 64  1  0  0  0
 39 67  2  0  0  0
 40 52  1  0  0  0
 40 53  2  0  0  0
 40 58  1  0  0  0
 41109  1  0  0  0
 41110  1  0  0  0
 41111  1  0  0  0
 41 48  1  0  0  0
 42 43  1  0  0  0
 42 66  1  0  0  0
 42112  1  0  0  0
 42113  1  0  0  0
 43 44  1  0  0  0
 44114  1  0  0  0
 45 46  2  0  0  0
 45115  1  0  0  0
 46116  1  0  0  0
 47117  1  0  0  0
 47118  1  0  0  0
 48 56  1  0  0  0
 48 65  1  0  0  0
 48119  1  0  0  0
 49 50  1  0  0  0
 49 53  1  0  0  0
 49 64  1  0  0  0
 49120  1  0  0  0
 50 51  1  0  0  0
 50121  1  0  0  0
 50122  1  0  0  0
 51 52  1  0  0  0
 51123  1  0  0  0
 51124  1  0  0  0
 52125  1  0  0  0
 52126  1  0  0  0
 53 54  1  0  0  0
 54 55  2  0  0  0
 54127  1  0  0  0
 55 57  1  0  0  0
 55128  1  0  0  0
 56 69  2  0  0  0
 57 58  2  0  0  0
 57129  1  0  0  0
 58130  1  0  0  0
 59 60  1  0  0  0
 59 61  1  0  0  0
 59 62  1  0  0  0
 60131  1  0  0  0
 60132  1  0  0  0
 60133  1  0  0  0
 61134  1  0  0  0
 61135  1  0  0  0
 61136  1  0  0  0
 62137  1  0  0  0
 62138  1  0  0  0
 62139  1  0  0  0
 63 65  1  0  0  0
 63140  1  0  0  0
 63141  1  0  0  0
 63142  1  0  0  0
 64143  1  0  0  0
 65144  1  0  0  0
 68 82  1  0  0  0
 71 73  2  0  0  0
 71 75  1  0  0  0
 71145  1  0  0  0
 72 74  2  0  0  0
 72 76  1  0  0  0
 72146  1  0  0  0
 73 74  1  0  0  0
 73 77  1  0  0  0
 74 78  1  0  0  0
 75 76  2  0  0  0
 75 83  1  0  0  0
 76 85  1  0  0  0
 77147  1  0  0  0
 77148  1  0  0  0
 77149  1  0  0  0
 78 82  1  0  0  0
 78150  1  0  0  0
 78151  1  0  0  0
 79 80  1  0  0  0
 79 81  1  0  0  0
 79152  1  0  0  0
 79153  1  0  0  0
 80 83  1  0  0  0
 80154  1  0  0  0
 80155  1  0  0  0
 81 84  1  0  0  0
 81156  1  0  0  0
 81157  1  0  0  0
 82158  1  0  0  0
 82159  1  0  0  0
 83160  1  0  0  0
 84161  1  0  0  0
M  ISO  4   1 100  68 101  82 101  84 100
M  END
> <chiral flag>
0

> <version>
0

> <s_m_source_file>
/data/baiqing/PycharmProjects/Reinvent-master-3.2/result/LINK_invent/BTK/process_docking_weight1_custom_sum_contain_oxygen_bond_distance_aromatic_linkinvent_7_9_3/rearranged_h_0028.sdf

> <i_m_source_file_index>
22

> <r_mmod_Potential_Energy-OPLS-2005>
23268.65625

> <r_mmod_Stretch_Energy-OPLS-2005>
12556.521484375

> <r_mmod_Bend_Energy-OPLS-2005>
1610.68322753906

> <r_mmod_Torsional_Energy-OPLS-2005>
557.154602050781

> <r_mmod_Improper_Torsional_Energy-OPLS-2005>
66.7576751708984

> <r_mmod_Van_der_Waal_Energy-OPLS-2005>
4558.404296875

> <r_mmod_Electrostatic_Energy-OPLS-2005>
-352.150115966797

> <r_mmod_Solvation_Energy-OPLS-2005>
-207.432754516602

> <b_mmod_Minimization_Converged-OPLS-2005>
0

> <r_mmod_RMS_Derivative-OPLS-2005>
4.61025524139404

$$$$
22
                    3D
 Structure written by MMmdl.
155163  0  0  1  0            999 V2000
  -30.6452  -14.6171   20.5001 C   0  0  0  0  0  0
  -30.4317  -12.3789   19.4507 C   0  0  0  0  0  0
  -29.5057  -12.5013   18.2212 C   0  0  0  0  0  0
  -28.0271  -12.3480   18.6317 C   0  0  0  0  0  0
  -27.6520  -13.2186   19.8610 C   0  0  2  0  0  0
  -28.6963  -13.0806   20.9913 C   0  0  0  0  0  0
  -25.2554  -13.8178   20.5675 C   0  0  0  0  0  0
  -24.1827  -13.0443   20.9195 C   0  0  0  0  0  0
  -24.6398  -11.6914   20.8743 C   0  0  0  0  0  0
  -23.9067  -10.4296   21.0407 C   0  0  0  0  0  0
  -24.3620   -9.4211   21.9183 C   0  0  0  0  0  0
  -23.6297   -8.2245   22.0751 C   0  0  0  0  0  0
  -22.4280   -8.0283   21.3541 C   0  0  0  0  0  0
  -21.9914   -9.0257   20.4645 C   0  0  0  0  0  0
  -22.7240  -10.2139   20.3053 C   0  0  0  0  0  0
  -21.6855   -6.0739   22.5279 C   0  0  0  0  0  0
  -21.4015   -6.5642   23.8212 C   0  0  0  0  0  0
  -21.3660   -5.6793   24.9174 C   0  0  0  0  0  0
  -21.6046   -4.3056   24.7226 C   0  0  0  0  0  0
  -21.8818   -3.8150   23.4346 C   0  0  0  0  0  0
  -21.9191   -4.6966   22.3402 C   0  0  0  0  0  0
  -22.7847  -13.5237   21.1850 C   0  0  0  0  0  0
  -22.1659   -4.2152   21.0979 F   0  0  0  0  0  0
  -21.5632   -3.4538   25.7737 F   0  0  0  0  0  0
  -30.0118  -13.4071   20.4223 N   0  0  0  0  0  0
  -26.2983  -12.9362   20.3309 N   0  0  0  0  0  0
  -25.9326  -11.6517   20.5757 N   0  0  0  0  0  0
  -22.0486  -12.8237   22.0408 N   0  0  0  0  0  0
  -25.4266  -15.1896   20.4060 N   0  0  0  0  0  0
  -31.8137  -14.7594   20.1315 O   0  0  0  0  0  0
  -21.6641   -6.8882   21.4240 O   0  0  0  0  0  0
  -22.3536  -14.5540   20.6689 O   0  0  0  0  0  0
  -24.6245  -31.8608   23.2033 C   0  0  0  0  0  0
  -25.9097  -32.4785   23.8357 C   0  0  1  0  0  0
  -27.2251  -27.3337   20.1136 C   0  0  0  0  0  0
  -25.5915  -33.8586   24.2284 N   0  0  0  0  0  0
  -23.4171  -30.4845   21.5461 C   0  0  2  0  0  0
  -24.8628  -28.9411   20.1119 C   0  0  0  0  0  0
  -22.7466  -29.4627   22.4946 C   0  0  0  0  0  0
  -18.0281  -28.1387   22.8484 C   0  0  0  0  0  0
  -24.1485  -36.7300   23.2639 C   0  0  0  0  0  0
  -25.9566  -30.7968   21.3704 C   0  0  0  0  0  0
  -26.0313  -29.4251   20.7132 C   0  0  0  0  0  0
  -27.2157  -28.6334   20.7031 C   0  0  0  0  0  0
  -26.0319  -26.8969   19.4926 C   0  0  0  0  0  0
  -24.8641  -27.6817   19.4937 C   0  0  0  0  0  0
  -23.6302  -29.8194   20.1613 C   0  0  0  0  0  0
  -25.4108  -36.3089   24.0330 C   0  0  1  0  0  0
  -20.5881  -28.3685   23.1290 C   0  0  2  0  0  0
  -20.6773  -26.9411   22.5413 C   0  0  0  0  0  0
  -19.5750  -26.6384   21.5215 C   0  0  0  0  0  0
  -18.1928  -26.7929   22.1625 C   0  0  0  0  0  0
  -19.1535  -28.8852   23.2881 C   0  0  0  0  0  0
  -18.9460  -30.1456   23.8893 C   0  0  0  0  0  0
  -17.6463  -30.6590   24.0563 C   0  0  0  0  0  0
  -25.9046  -34.9456   23.5108 C   0  0  0  0  0  0
  -16.5352  -29.9090   23.6331 C   0  0  0  0  0  0
  -16.7271  -28.6510   23.0346 C   0  0  0  0  0  0
  -26.4487  -31.6589   25.0721 C   0  0  0  0  0  0
  -25.3729  -31.3723   26.1456 C   0  0  0  0  0  0
  -27.0324  -30.3016   24.6157 C   0  0  0  0  0  0
  -27.6046  -32.4321   25.7495 C   0  0  0  0  0  0
  -27.5576  -37.1805   24.8463 C   0  0  0  0  0  0
  -21.4181  -29.3040   22.3687 N   0  0  0  0  0  0
  -26.4288  -37.3782   23.9409 N   0  0  0  0  0  0
  -24.6851  -31.0634   22.0972 N   0  0  0  0  0  0
  -23.4197  -28.8164   23.3018 O   0  0  0  0  0  0
  -28.3533  -26.5042   20.1602 O   0  0  0  0  0  0
  -26.5619  -34.8923   22.4678 O   0  0  0  0  0  0
  -23.5414  -32.1395   23.7373 O   0  0  0  0  0  0
  -29.6390  -21.8160   19.2210 C   0  0  0  0  0  0
  -29.6284  -20.3931   19.2310 C   0  0  0  0  0  0
  -29.2240  -19.6922   20.4002 C   0  0  0  0  0  0
  -29.2460  -22.5544   20.3598 C   0  0  0  0  0  0
  -28.8601  -20.5187   21.5022 C   0  0  0  0  0  0
  -30.0324  -19.6462   17.9727 C   0  0  0  0  0  0
  -29.0278  -18.1285   20.4192 C   0  0  0  0  0  0
  -29.3808  -24.1182   20.4294 C   0  0  0  0  0  0
  -30.2307  -17.1586   20.7560 C   0  0  0  0  0  0
  -28.1553  -25.0419   20.0537 C   0  0  0  0  0  0
  -28.8694  -21.8854   21.4781 N   0  0  0  0  0  0
  -29.8700  -15.6996   20.8053 N   0  0  0  0  0  0
  -28.3529  -19.7980   22.9875 Cl  0  0  0  0  0  0
  -31.4745  -12.4939   19.1498 H   0  0  0  0  0  0
  -30.3564  -11.3858   19.8960 H   0  0  0  0  0  0
  -29.7674  -11.7491   17.4761 H   0  0  0  0  0  0
  -29.6556  -13.4706   17.7428 H   0  0  0  0  0  0
  -27.8553  -11.2951   18.8583 H   0  0  0  0  0  0
  -27.3765  -12.5865   17.7897 H   0  0  0  0  0  0
  -27.6700  -14.2535   19.5192 H   0  0  0  0  0  0
  -28.7019  -12.0653   21.3896 H   0  0  0  0  0  0
  -28.4496  -13.7310   21.8319 H   0  0  0  0  0  0
  -25.2766   -9.5688   22.4757 H   0  0  0  0  0  0
  -24.0008   -7.4635   22.7467 H   0  0  0  0  0  0
  -21.0843   -8.8776   19.8953 H   0  0  0  0  0  0
  -22.3694  -10.9679   19.6163 H   0  0  0  0  0  0
  -21.2007   -7.6151   23.9715 H   0  0  0  0  0  0
  -21.1484   -6.0526   25.9077 H   0  0  0  0  0  0
  -22.0598   -2.7612   23.2843 H   0  0  0  0  0  0
  -22.4099  -11.9904   22.4813 H   0  0  0  0  0  0
  -21.1102  -13.1264   22.2604 H   0  0  0  0  0  0
  -24.6572  -15.8425   20.5066 H   0  0  0  0  0  0
  -26.2682  -15.6237   20.0502 H   0  0  0  0  0  0
  -26.7163  -32.5461   23.1108 H   0  0  0  0  0  0
  -25.0050  -33.9731   25.0420 H   0  0  0  0  0  0
  -22.7101  -31.3045   21.4044 H   0  0  0  0  0  0
  -23.3744  -35.9636   23.3305 H   0  0  0  0  0  0
  -24.3574  -36.8916   22.2053 H   0  0  0  0  0  0
  -23.7242  -37.6505   23.6658 H   0  0  0  0  0  0
  -26.0832  -31.5597   20.6010 H   0  0  0  0  0  0
  -26.8392  -30.8475   21.9965 H   0  0  0  0  0  0
  -28.1133  -29.0013   21.1803 H   0  0  0  0  0  0
  -25.9736  -25.9350   19.0060 H   0  0  0  0  0  0
  -23.9677  -27.3048   19.0207 H   0  0  0  0  0  0
  -23.7481  -30.5956   19.4045 H   0  0  0  0  0  0
  -22.7506  -29.2477   19.8599 H   0  0  0  0  0  0
  -25.1289  -36.1943   25.0823 H   0  0  0  0  0  0
  -20.9971  -28.3261   24.1412 H   0  0  0  0  0  0
  -20.5680  -26.2295   23.3611 H   0  0  0  0  0  0
  -21.6642  -26.7447   22.1205 H   0  0  0  0  0  0
  -19.6914  -25.6295   21.1243 H   0  0  0  0  0  0
  -19.6690  -27.3195   20.6745 H   0  0  0  0  0  0
  -17.4199  -26.6670   21.4027 H   0  0  0  0  0  0
  -18.0332  -26.0075   22.9026 H   0  0  0  0  0  0
  -19.7937  -30.7272   24.2261 H   0  0  0  0  0  0
  -17.5019  -31.6270   24.5167 H   0  0  0  0  0  0
  -15.5353  -30.2994   23.7658 H   0  0  0  0  0  0
  -15.8668  -28.0834   22.7056 H   0  0  0  0  0  0
  -24.5897  -30.7076   25.7793 H   0  0  0  0  0  0
  -24.8929  -32.2890   26.4894 H   0  0  0  0  0  0
  -25.8063  -30.8896   27.0224 H   0  0  0  0  0  0
  -26.2891  -29.6777   24.1178 H   0  0  0  0  0  0
  -27.4027  -29.7258   25.4649 H   0  0  0  0  0  0
  -27.8757  -30.4308   23.9368 H   0  0  0  0  0  0
  -27.2648  -33.3612   26.2087 H   0  0  0  0  0  0
  -28.3852  -32.6898   25.0325 H   0  0  0  0  0  0
  -28.0719  -31.8440   26.5403 H   0  0  0  0  0  0
  -28.2596  -38.0100   24.7507 H   0  0  0  0  0  0
  -28.1068  -36.2631   24.6290 H   0  0  0  0  0  0
  -27.2296  -37.1459   25.8867 H   0  0  0  0  0  0
  -20.9357  -29.8768   21.6901 H   0  0  0  0  0  0
  -26.0169  -38.2857   24.1414 H   0  0  0  0  0  0
  -29.9631  -22.3479   18.3358 H   0  0  0  0  0  0
  -30.5032  -20.3119   17.2493 H   0  0  0  0  0  0
  -29.1590  -19.1999   17.4973 H   0  0  0  0  0  0
  -30.7443  -18.8537   18.2007 H   0  0  0  0  0  0
  -28.6300  -17.8402   19.4458 H   0  0  0  0  0  0
  -28.2101  -17.9025   21.1034 H   0  0  0  0  0  0
  -30.2209  -24.3977   19.7939 H   0  0  0  0  0  0
  -29.6962  -24.3735   21.4411 H   0  0  0  0  0  0
  -30.6490  -17.4292   21.7261 H   0  0  0  0  0  0
  -31.0300  -17.3089   20.0290 H   0  0  0  0  0  0
  -27.3173  -24.7547   20.6908 H   0  0  0  0  0  0
  -27.8711  -24.8049   19.0280 H   0  0  0  0  0  0
  -28.9194  -15.4854   21.0666 H   0  0  0  0  0  0
  1 25  1  0  0  0
  1 30  2  0  0  0
  1 82  1  0  0  0
  2  3  1  0  0  0
  2 25  1  0  0  0
  2 84  1  0  0  0
  2 85  1  0  0  0
  3  4  1  0  0  0
  3 86  1  0  0  0
  3 87  1  0  0  0
  4  5  1  0  0  0
  4 88  1  0  0  0
  4 89  1  0  0  0
  5  6  1  0  0  0
  5 26  1  0  0  0
  5 90  1  0  0  0
  6 25  1  0  0  0
  6 91  1  0  0  0
  6 92  1  0  0  0
  7  8  2  0  0  0
  7 26  1  0  0  0
  7 29  1  0  0  0
  8  9  1  0  0  0
  8 22  1  0  0  0
  9 10  1  0  0  0
  9 27  2  0  0  0
 10 11  2  0  0  0
 10 15  1  0  0  0
 11 12  1  0  0  0
 11 93  1  0  0  0
 12 13  2  0  0  0
 12 94  1  0  0  0
 13 14  1  0  0  0
 13 31  1  0  0  0
 14 15  2  0  0  0
 14 95  1  0  0  0
 15 96  1  0  0  0
 16 17  2  0  0  0
 16 21  1  0  0  0
 16 31  1  0  0  0
 17 18  1  0  0  0
 17 97  1  0  0  0
 18 19  2  0  0  0
 18 98  1  0  0  0
 19 20  1  0  0  0
 19 24  1  0  0  0
 20 21  2  0  0  0
 20 99  1  0  0  0
 21 23  1  0  0  0
 22 28  1  0  0  0
 22 32  2  0  0  0
 26 27  1  0  0  0
 28100  1  0  0  0
 28101  1  0  0  0
 29102  1  0  0  0
 29103  1  0  0  0
 33 34  1  0  0  0
 33 66  1  0  0  0
 33 70  2  0  0  0
 34 36  1  0  0  0
 34 59  1  0  0  0
 34104  1  0  0  0
 35 44  2  0  0  0
 35 45  1  0  0  0
 35 68  1  0  0  0
 36 56  1  0  0  0
 36105  1  0  0  0
 37 39  1  0  0  0
 37 47  1  0  0  0
 37 66  1  0  0  0
 37106  1  0  0  0
 38 43  2  0  0  0
 38 46  1  0  0  0
 38 47  1  0  0  0
 39 64  1  0  0  0
 39 67  2  0  0  0
 40 52  1  0  0  0
 40 53  2  0  0  0
 40 58  1  0  0  0
 41107  1  0  0  0
 41108  1  0  0  0
 41109  1  0  0  0
 41 48  1  0  0  0
 42 43  1  0  0  0
 42 66  1  0  0  0
 42110  1  0  0  0
 42111  1  0  0  0
 43 44  1  0  0  0
 44112  1  0  0  0
 45 46  2  0  0  0
 45113  1  0  0  0
 46114  1  0  0  0
 47115  1  0  0  0
 47116  1  0  0  0
 48 56  1  0  0  0
 48 65  1  0  0  0
 48117  1  0  0  0
 49 50  1  0  0  0
 49 53  1  0  0  0
 49 64  1  0  0  0
 49118  1  0  0  0
 50 51  1  0  0  0
 50119  1  0  0  0
 50120  1  0  0  0
 51 52  1  0  0  0
 51121  1  0  0  0
 51122  1  0  0  0
 52123  1  0  0  0
 52124  1  0  0  0
 53 54  1  0  0  0
 54 55  2  0  0  0
 54125  1  0  0  0
 55 57  1  0  0  0
 55126  1  0  0  0
 56 69  2  0  0  0
 57 58  2  0  0  0
 57127  1  0  0  0
 58128  1  0  0  0
 59 60  1  0  0  0
 59 61  1  0  0  0
 59 62  1  0  0  0
 60129  1  0  0  0
 60130  1  0  0  0
 60131  1  0  0  0
 61132  1  0  0  0
 61133  1  0  0  0
 61134  1  0  0  0
 62135  1  0  0  0
 62136  1  0  0  0
 62137  1  0  0  0
 63 65  1  0  0  0
 63138  1  0  0  0
 63139  1  0  0  0
 63140  1  0  0  0
 64141  1  0  0  0
 65142  1  0  0  0
 68 80  1  0  0  0
 71 72  2  0  0  0
 71 74  1  0  0  0
 71143  1  0  0  0
 72 73  1  0  0  0
 72 76  1  0  0  0
 73 75  2  0  0  0
 73 77  1  0  0  0
 74 78  1  0  0  0
 74 81  2  0  0  0
 75 81  1  0  0  0
 75 83  1  0  0  0
 76144  1  0  0  0
 76145  1  0  0  0
 76146  1  0  0  0
 77 79  1  0  0  0
 77147  1  0  0  0
 77148  1  0  0  0
 78 80  1  0  0  0
 78149  1  0  0  0
 78150  1  0  0  0
 79 82  1  0  0  0
 79151  1  0  0  0
 79152  1  0  0  0
 80153  1  0  0  0
 80154  1  0  0  0
 82155  1  0  0  0
M  ISO  4   1 100  68 101  80 101  82 100
M  END
> <chiral flag>
0

> <version>
0

> <s_m_source_file>
/data/baiqing/PycharmProjects/Reinvent-master-3.2/result/LINK_invent/BTK/process_docking_weight1_custom_sum_contain_oxygen_bond_distance_aromatic_linkinvent_7_9_3/rearranged_h_0028.sdf

> <i_m_source_file_index>
23

> <r_mmod_Potential_Energy-OPLS-2005>
-176.237380981445

> <r_mmod_Stretch_Energy-OPLS-2005>
70.9640731811523

> <r_mmod_Bend_Energy-OPLS-2005>
121.85816192627

> <r_mmod_Torsional_Energy-OPLS-2005>
193.495590209961

> <r_mmod_Improper_Torsional_Energy-OPLS-2005>
5.60673332214355

> <r_mmod_Van_der_Waal_Energy-OPLS-2005>
144.401351928711

> <r_mmod_Electrostatic_Energy-OPLS-2005>
-534.784118652344

> <r_mmod_Solvation_Energy-OPLS-2005>
-220.040390014648

> <b_mmod_Minimization_Converged-OPLS-2005>
0

> <r_mmod_RMS_Derivative-OPLS-2005>
0.58973902463913

$$$$
23
                    3D
 Structure written by MMmdl.
166174  0  0  1  0            999 V2000
  -30.7405  -14.4401   20.6689 C   0  0  0  0  0  0
  -30.4142  -12.3183   19.4238 C   0  0  0  0  0  0
  -29.4921  -12.5184   18.2040 C   0  0  0  0  0  0
  -28.0143  -12.3613   18.6077 C   0  0  0  0  0  0
  -27.6582  -13.1960   19.8633 C   0  0  2  0  0  0
  -28.6925  -12.9693   20.9881 C   0  0  0  0  0  0
  -25.2603  -13.8125   20.5593 C   0  0  0  0  0  0
  -24.1872  -13.0434   20.9220 C   0  0  0  0  0  0
  -24.6393  -11.6893   20.8751 C   0  0  0  0  0  0
  -23.9046  -10.4286   21.0406 C   0  0  0  0  0  0
  -24.3614   -9.4208   21.9173 C   0  0  0  0  0  0
  -23.6298   -8.2241   22.0747 C   0  0  0  0  0  0
  -22.4281   -8.0281   21.3535 C   0  0  0  0  0  0
  -21.9899   -9.0254   20.4639 C   0  0  0  0  0  0
  -22.7216  -10.2139   20.3050 C   0  0  0  0  0  0
  -21.6864   -6.0722   22.5269 C   0  0  0  0  0  0
  -21.4013   -6.5628   23.8200 C   0  0  0  0  0  0
  -21.3659   -5.6785   24.9168 C   0  0  0  0  0  0
  -21.6048   -4.3050   24.7218 C   0  0  0  0  0  0
  -21.8828   -3.8133   23.4341 C   0  0  0  0  0  0
  -21.9196   -4.6947   22.3393 C   0  0  0  0  0  0
  -22.7903  -13.5252   21.1862 C   0  0  0  0  0  0
  -22.1678   -4.2130   21.0972 F   0  0  0  0  0  0
  -21.5625   -3.4530   25.7726 F   0  0  0  0  0  0
  -30.0273  -13.2922   20.4646 N   0  0  0  0  0  0
  -26.2996  -12.9262   20.3237 N   0  0  0  0  0  0
  -25.9289  -11.6442   20.5691 N   0  0  0  0  0  0
  -22.0529  -12.8260   22.0417 N   0  0  0  0  0  0
  -25.4341  -15.1825   20.3783 N   0  0  0  0  0  0
  -31.7881  -14.6250   20.0381 O   0  0  0  0  0  0
  -21.6672   -6.8865   21.4230 O   0  0  0  0  0  0
  -22.3612  -14.5550   20.6672 O   0  0  0  0  0  0
  -24.6131  -31.8682   23.2071 C   0  0  0  0  0  0
  -25.9031  -32.4822   23.8366 C   0  0  1  0  0  0
  -27.2398  -27.4493   20.0945 C   0  0  0  0  0  0
  -25.5884  -33.8619   24.2306 N   0  0  0  0  0  0
  -23.4020  -30.4884   21.5477 C   0  0  2  0  0  0
  -24.8499  -28.9556   20.1134 C   0  0  0  0  0  0
  -22.7405  -29.4663   22.4987 C   0  0  0  0  0  0
  -18.0288  -28.1397   22.8463 C   0  0  0  0  0  0
  -24.1489  -36.7321   23.2637 C   0  0  0  0  0  0
  -25.9274  -30.8405   21.3555 C   0  0  0  0  0  0
  -26.0079  -29.4744   20.7057 C   0  0  0  0  0  0
  -27.2078  -28.7297   20.6903 C   0  0  0  0  0  0
  -26.0675  -26.9426   19.4948 C   0  0  0  0  0  0
  -24.8741  -27.6889   19.5027 C   0  0  0  0  0  0
  -23.6093  -29.8170   20.1629 C   0  0  0  0  0  0
  -25.4110  -36.3108   24.0332 C   0  0  1  0  0  0
  -20.5870  -28.3684   23.1341 C   0  0  2  0  0  0
  -20.6770  -26.9402   22.5476 C   0  0  0  0  0  0
  -19.5800  -26.6395   21.5221 C   0  0  0  0  0  0
  -18.1942  -26.7963   22.1554 C   0  0  0  0  0  0
  -19.1529  -28.8853   23.2908 C   0  0  0  0  0  0
  -18.9453  -30.1444   23.8930 C   0  0  0  0  0  0
  -17.6452  -30.6582   24.0576 C   0  0  0  0  0  0
  -25.9035  -34.9477   23.5119 C   0  0  0  0  0  0
  -16.5352  -29.9092   23.6315 C   0  0  0  0  0  0
  -16.7273  -28.6516   23.0317 C   0  0  0  0  0  0
  -26.4465  -31.6595   25.0687 C   0  0  0  0  0  0
  -25.3724  -31.3715   26.1426 C   0  0  0  0  0  0
  -27.0292  -30.3034   24.6059 C   0  0  0  0  0  0
  -27.6040  -32.4305   25.7463 C   0  0  0  0  0  0
  -27.5573  -37.1814   24.8464 C   0  0  0  0  0  0
  -21.4135  -29.3046   22.3724 N   0  0  0  0  0  0
  -26.4299  -37.3783   23.9391 N   0  0  0  0  0  0
  -24.6659  -31.0796   22.0960 N   0  0  0  0  0  0
  -23.4177  -28.8213   23.3040 O   0  0  0  0  0  0
  -28.4078  -26.7212   20.0943 O   0  0  0  0  0  0
  -26.5600  -34.8929   22.4684 O   0  0  0  0  0  0
  -23.5321  -32.1431   23.7463 O   0  0  0  0  0  0
  -27.0047  -22.5179   22.2264 C   0  0  0  0  0  0
  -27.1956  -20.1703   22.8439 C   0  0  0  0  0  0
  -27.2061  -22.1963   20.8679 C   0  0  0  0  0  0
  -27.4248  -19.8153   21.4960 C   0  0  0  0  0  0
  -27.0035  -21.5146   23.2099 C   0  0  0  0  0  0
  -27.4502  -20.8396   20.5045 C   0  0  0  0  0  0
  -31.4456  -16.6308   21.7266 C   0  0  0  0  0  0
  -30.1380  -15.0288   23.1116 C   0  0  0  0  0  0
  -27.0387  -23.3083   19.8247 C   0  0  0  0  0  0
  -27.5424  -18.3249   21.1464 C   0  0  0  0  0  0
  -28.2367  -24.2723   19.6481 C   0  0  0  0  0  0
  -28.9898  -16.2927   21.1519 C   0  0  0  0  0  0
  -28.3255  -25.4162   20.6863 C   0  0  0  0  0  0
  -30.2923  -15.5799   21.6665 C   0  0  0  0  0  0
  -28.7911  -17.6898   21.6331 N   0  3  0  0  0  0
  -26.7188  -21.9302   24.8599 Cl  0  0  0  0  0  0
  -27.7418  -20.4314   18.8464 Cl  0  0  0  0  0  0
  -31.4595  -12.4041   19.1247 H   0  0  0  0  0  0
  -30.3156  -11.3044   19.8126 H   0  0  0  0  0  0
  -29.7425  -11.8045   17.4187 H   0  0  0  0  0  0
  -29.6524  -13.5099   17.7782 H   0  0  0  0  0  0
  -27.8311  -11.3044   18.8024 H   0  0  0  0  0  0
  -27.3651  -12.6337   17.7759 H   0  0  0  0  0  0
  -27.7037  -14.2402   19.5613 H   0  0  0  0  0  0
  -28.6730  -11.9263   21.3081 H   0  0  0  0  0  0
  -28.4110  -13.5323   21.8701 H   0  0  0  0  0  0
  -25.2761   -9.5705   22.4742 H   0  0  0  0  0  0
  -24.0013   -7.4643   22.7481 H   0  0  0  0  0  0
  -21.0819   -8.8790   19.8948 H   0  0  0  0  0  0
  -22.3677  -10.9694   19.6175 H   0  0  0  0  0  0
  -21.2019   -7.6140   23.9705 H   0  0  0  0  0  0
  -21.1472   -6.0512   25.9073 H   0  0  0  0  0  0
  -22.0608   -2.7591   23.2851 H   0  0  0  0  0  0
  -22.4133  -11.9907   22.4778 H   0  0  0  0  0  0
  -21.1129  -13.1250   22.2587 H   0  0  0  0  0  0
  -24.5805  -15.7303   20.3426 H   0  0  0  0  0  0
  -26.0918  -15.4729   19.6668 H   0  0  0  0  0  0
  -26.7104  -32.5554   23.1138 H   0  0  0  0  0  0
  -25.0026  -33.9776   25.0440 H   0  0  0  0  0  0
  -22.6914  -31.3051   21.4062 H   0  0  0  0  0  0
  -23.3721  -35.9684   23.3337 H   0  0  0  0  0  0
  -24.3576  -36.8898   22.2042 H   0  0  0  0  0  0
  -23.7280  -37.6555   23.6630 H   0  0  0  0  0  0
  -26.0324  -31.6067   20.5851 H   0  0  0  0  0  0
  -26.8172  -30.8986   21.9700 H   0  0  0  0  0  0
  -28.1044  -29.1255   21.1459 H   0  0  0  0  0  0
  -26.0766  -25.9783   19.0099 H   0  0  0  0  0  0
  -23.9856  -27.2862   19.0371 H   0  0  0  0  0  0
  -23.7150  -30.5893   19.4004 H   0  0  0  0  0  0
  -22.7363  -29.2312   19.8680 H   0  0  0  0  0  0
  -25.1286  -36.1981   25.0824 H   0  0  0  0  0  0
  -20.9968  -28.3285   24.1462 H   0  0  0  0  0  0
  -20.5620  -26.2295   23.3673 H   0  0  0  0  0  0
  -21.6659  -26.7403   22.1321 H   0  0  0  0  0  0
  -19.6970  -25.6309   21.1257 H   0  0  0  0  0  0
  -19.6811  -27.3201   20.6748 H   0  0  0  0  0  0
  -17.4264  -26.6775   21.3895 H   0  0  0  0  0  0
  -18.0263  -26.0087   22.8914 H   0  0  0  0  0  0
  -19.7932  -30.7257   24.2325 H   0  0  0  0  0  0
  -17.5005  -31.6260   24.5187 H   0  0  0  0  0  0
  -15.5353  -30.2992   23.7632 H   0  0  0  0  0  0
  -15.8675  -28.0851   22.7004 H   0  0  0  0  0  0
  -24.5865  -30.7114   25.7733 H   0  0  0  0  0  0
  -24.8960  -32.2892   26.4884 H   0  0  0  0  0  0
  -25.8052  -30.8840   27.0170 H   0  0  0  0  0  0
  -26.2841  -29.6805   24.1101 H   0  0  0  0  0  0
  -27.4048  -29.7259   25.4516 H   0  0  0  0  0  0
  -27.8675  -30.4338   23.9211 H   0  0  0  0  0  0
  -27.2643  -33.3572   26.2099 H   0  0  0  0  0  0
  -28.3828  -32.6922   25.0286 H   0  0  0  0  0  0
  -28.0736  -31.8397   26.5334 H   0  0  0  0  0  0
  -28.2610  -38.0087   24.7465 H   0  0  0  0  0  0
  -28.1047  -36.2617   24.6349 H   0  0  0  0  0  0
  -27.2284  -37.1535   25.8866 H   0  0  0  0  0  0
  -20.9313  -29.8730   21.6904 H   0  0  0  0  0  0
  -26.0192  -38.2871   24.1350 H   0  0  0  0  0  0
  -26.8116  -23.5381   22.5228 H   0  0  0  0  0  0
  -27.1411  -19.4084   23.6095 H   0  0  0  0  0  0
  -31.2739  -17.4090   22.4693 H   0  0  0  0  0  0
  -31.5951  -17.1293   20.7671 H   0  0  0  0  0  0
  -32.3948  -16.1673   22.0026 H   0  0  0  0  0  0
  -30.5373  -15.7149   23.8599 H   0  0  0  0  0  0
  -30.6741  -14.0888   23.2481 H   0  0  0  0  0  0
  -29.1008  -14.8590   23.3981 H   0  0  0  0  0  0
  -26.1456  -23.8796   20.0836 H   0  0  0  0  0  0
  -26.8003  -22.8691   18.8564 H   0  0  0  0  0  0
  -27.4535  -18.1647   20.0733 H   0  0  0  0  0  0
  -26.6886  -17.8029   21.5827 H   0  0  0  0  0  0
  -28.1454  -24.7321   18.6635 H   0  0  0  0  0  0
  -29.1688  -23.7065   19.6101 H   0  0  0  0  0  0
  -28.1082  -15.7218   21.4404 H   0  0  0  0  0  0
  -28.9904  -16.3159   20.0607 H   0  0  0  0  0  0
  -29.2300  -25.2813   21.2799 H   0  0  0  0  0  0
  -27.5038  -25.3732   21.4022 H   0  0  0  0  0  0
  -28.7777  -17.6921   22.6404 H   0  0  0  0  0  0
  -29.5691  -18.2536   21.3298 H   0  0  0  0  0  0
  1 25  1  0  0  0
  1 30  2  0  0  0
  1 84  1  0  0  0
  2  3  1  0  0  0
  2 25  1  0  0  0
  2 88  1  0  0  0
  2 89  1  0  0  0
  3  4  1  0  0  0
  3 90  1  0  0  0
  3 91  1  0  0  0
  4  5  1  0  0  0
  4 92  1  0  0  0
  4 93  1  0  0  0
  5  6  1  0  0  0
  5 26  1  0  0  0
  5 94  1  0  0  0
  6 25  1  0  0  0
  6 95  1  0  0  0
  6 96  1  0  0  0
  7  8  2  0  0  0
  7 26  1  0  0  0
  7 29  1  0  0  0
  8  9  1  0  0  0
  8 22  1  0  0  0
  9 10  1  0  0  0
  9 27  2  0  0  0
 10 11  2  0  0  0
 10 15  1  0  0  0
 11 12  1  0  0  0
 11 97  1  0  0  0
 12 13  2  0  0  0
 12 98  1  0  0  0
 13 14  1  0  0  0
 13 31  1  0  0  0
 14 15  2  0  0  0
 14 99  1  0  0  0
 15100  1  0  0  0
 16 17  2  0  0  0
 16 21  1  0  0  0
 16 31  1  0  0  0
 17 18  1  0  0  0
 17101  1  0  0  0
 18 19  2  0  0  0
 18102  1  0  0  0
 19 20  1  0  0  0
 19 24  1  0  0  0
 20 21  2  0  0  0
 20103  1  0  0  0
 21 23  1  0  0  0
 22 28  1  0  0  0
 22 32  2  0  0  0
 26 27  1  0  0  0
 28104  1  0  0  0
 28105  1  0  0  0
 29106  1  0  0  0
 29107  1  0  0  0
 33 34  1  0  0  0
 33 66  1  0  0  0
 33 70  2  0  0  0
 34 36  1  0  0  0
 34 59  1  0  0  0
 34108  1  0  0  0
 35 44  2  0  0  0
 35 45  1  0  0  0
 35 68  1  0  0  0
 36 56  1  0  0  0
 36109  1  0  0  0
 37 39  1  0  0  0
 37 47  1  0  0  0
 37 66  1  0  0  0
 37110  1  0  0  0
 38 43  2  0  0  0
 38 46  1  0  0  0
 38 47  1  0  0  0
 39 64  1  0  0  0
 39 67  2  0  0  0
 40 52  1  0  0  0
 40 53  2  0  0  0
 40 58  1  0  0  0
 41111  1  0  0  0
 41112  1  0  0  0
 41113  1  0  0  0
 41 48  1  0  0  0
 42 43  1  0  0  0
 42 66  1  0  0  0
 42114  1  0  0  0
 42115  1  0  0  0
 43 44  1  0  0  0
 44116  1  0  0  0
 45 46  2  0  0  0
 45117  1  0  0  0
 46118  1  0  0  0
 47119  1  0  0  0
 47120  1  0  0  0
 48 56  1  0  0  0
 48 65  1  0  0  0
 48121  1  0  0  0
 49 50  1  0  0  0
 49 53  1  0  0  0
 49 64  1  0  0  0
 49122  1  0  0  0
 50 51  1  0  0  0
 50123  1  0  0  0
 50124  1  0  0  0
 51 52  1  0  0  0
 51125  1  0  0  0
 51126  1  0  0  0
 52127  1  0  0  0
 52128  1  0  0  0
 53 54  1  0  0  0
 54 55  2  0  0  0
 54129  1  0  0  0
 55 57  1  0  0  0
 55130  1  0  0  0
 56 69  2  0  0  0
 57 58  2  0  0  0
 57131  1  0  0  0
 58132  1  0  0  0
 59 60  1  0  0  0
 59 61  1  0  0  0
 59 62  1  0  0  0
 60133  1  0  0  0
 60134  1  0  0  0
 60135  1  0  0  0
 61136  1  0  0  0
 61137  1  0  0  0
 61138  1  0  0  0
 62139  1  0  0  0
 62140  1  0  0  0
 62141  1  0  0  0
 63 65  1  0  0  0
 63142  1  0  0  0
 63143  1  0  0  0
 63144  1  0  0  0
 64145  1  0  0  0
 65146  1  0  0  0
 68 83  1  0  0  0
 71 73  2  0  0  0
 71 75  1  0  0  0
 71147  1  0  0  0
 72 74  1  0  0  0
 72 75  2  0  0  0
 72148  1  0  0  0
 73 76  1  0  0  0
 73 79  1  0  0  0
 74 76  2  0  0  0
 74 80  1  0  0  0
 75 86  1  0  0  0
 76 87  1  0  0  0
 77149  1  0  0  0
 77150  1  0  0  0
 77151  1  0  0  0
 77 84  1  0  0  0
 78 84  1  0  0  0
 78152  1  0  0  0
 78153  1  0  0  0
 78154  1  0  0  0
 79 81  1  0  0  0
 79155  1  0  0  0
 79156  1  0  0  0
 80 85  1  0  0  0
 80157  1  0  0  0
 80158  1  0  0  0
 81 83  1  0  0  0
 81159  1  0  0  0
 81160  1  0  0  0
 82 84  1  0  0  0
 82 85  1  0  0  0
 82161  1  0  0  0
 82162  1  0  0  0
 83163  1  0  0  0
 83164  1  0  0  0
 85165  1  0  0  0
 85166  1  0  0  0
M  CHG  1  85   1
M  ISO  4   1 100  68 101  83 101  84 100
M  END
> <chiral flag>
0

> <version>
0

> <s_m_source_file>
/data/baiqing/PycharmProjects/Reinvent-master-3.2/result/LINK_invent/BTK/process_docking_weight1_custom_sum_contain_oxygen_bond_distance_aromatic_linkinvent_7_9_3/rearranged_h_0028.sdf

> <i_m_source_file_index>
24

> <r_mmod_Potential_Energy-OPLS-2005>
-178.349563598633

> <r_mmod_Stretch_Energy-OPLS-2005>
45.6103630065918

> <r_mmod_Bend_Energy-OPLS-2005>
99.4891357421875

> <r_mmod_Torsional_Energy-OPLS-2005>
239.70198059082

> <r_mmod_Improper_Torsional_Energy-OPLS-2005>
6.47941589355469

> <r_mmod_Van_der_Waal_Energy-OPLS-2005>
156.824645996094

> <r_mmod_Electrostatic_Energy-OPLS-2005>
-289.472900390625

> <r_mmod_Solvation_Energy-OPLS-2005>
-447.014678955078

> <b_mmod_Minimization_Converged-OPLS-2005>
0

> <r_mmod_RMS_Derivative-OPLS-2005>
1.96746969223022

$$$$
24
                    3D
 Structure written by MMmdl.
158166  0  0  1  0            999 V2000
  -30.6476  -14.5690   20.5439 C   0  0  0  0  0  0
  -30.4358  -12.3644   19.4244 C   0  0  0  0  0  0
  -29.4984  -12.5043   18.2059 C   0  0  0  0  0  0
  -28.0213  -12.3477   18.6232 C   0  0  0  0  0  0
  -27.6538  -13.2080   19.8617 C   0  0  2  0  0  0
  -28.6995  -13.0298   20.9834 C   0  0  0  0  0  0
  -25.2569  -13.8153   20.5671 C   0  0  0  0  0  0
  -24.1830  -13.0431   20.9186 C   0  0  0  0  0  0
  -24.6388  -11.6898   20.8740 C   0  0  0  0  0  0
  -23.9057  -10.4287   21.0411 C   0  0  0  0  0  0
  -24.3611   -9.4203   21.9187 C   0  0  0  0  0  0
  -23.6288   -8.2238   22.0755 C   0  0  0  0  0  0
  -22.4270   -8.0278   21.3545 C   0  0  0  0  0  0
  -21.9905   -9.0251   20.4648 C   0  0  0  0  0  0
  -22.7232  -10.2131   20.3058 C   0  0  0  0  0  0
  -21.6851   -6.0734   22.5280 C   0  0  0  0  0  0
  -21.4012   -6.5638   23.8213 C   0  0  0  0  0  0
  -21.3658   -5.6791   24.9175 C   0  0  0  0  0  0
  -21.6044   -4.3055   24.7226 C   0  0  0  0  0  0
  -21.8819   -3.8146   23.4348 C   0  0  0  0  0  0
  -21.9192   -4.6963   22.3404 C   0  0  0  0  0  0
  -22.7855  -13.5232   21.1854 C   0  0  0  0  0  0
  -22.1660   -4.2149   21.0982 F   0  0  0  0  0  0
  -21.5629   -3.4539   25.7739 F   0  0  0  0  0  0
  -30.0152  -13.3665   20.4170 N   0  0  0  0  0  0
  -26.2989  -12.9319   20.3308 N   0  0  0  0  0  0
  -25.9311  -11.6483   20.5749 N   0  0  0  0  0  0
  -22.0494  -12.8226   22.0410 N   0  0  0  0  0  0
  -25.4288  -15.1872   20.4075 N   0  0  0  0  0  0
  -31.8145  -14.7436   20.1842 O   0  0  0  0  0  0
  -21.6635   -6.8876   21.4242 O   0  0  0  0  0  0
  -22.3543  -14.5541   20.6705 O   0  0  0  0  0  0
  -24.6205  -31.8636   23.2054 C   0  0  0  0  0  0
  -25.9076  -32.4799   23.8369 C   0  0  1  0  0  0
  -27.2316  -27.3700   20.1129 C   0  0  0  0  0  0
  -25.5911  -33.8597   24.2301 N   0  0  0  0  0  0
  -23.4107  -30.4861   21.5481 C   0  0  2  0  0  0
  -24.8555  -28.9379   20.1229 C   0  0  0  0  0  0
  -22.7437  -29.4643   22.4981 C   0  0  0  0  0  0
  -18.0276  -28.1378   22.8491 C   0  0  0  0  0  0
  -24.1487  -36.7302   23.2640 C   0  0  0  0  0  0
  -25.9453  -30.8111   21.3652 C   0  0  0  0  0  0
  -26.0211  -29.4388   20.7154 C   0  0  0  0  0  0
  -27.2131  -28.6672   20.6957 C   0  0  0  0  0  0
  -26.0402  -26.8940   19.5247 C   0  0  0  0  0  0
  -24.8631  -27.6677   19.5233 C   0  0  0  0  0  0
  -23.6221  -29.8145   20.1654 C   0  0  0  0  0  0
  -25.4111  -36.3097   24.0335 C   0  0  1  0  0  0
  -20.5871  -28.3672   23.1307 C   0  0  2  0  0  0
  -20.6769  -26.9405   22.5416 C   0  0  0  0  0  0
  -19.5747  -26.6385   21.5213 C   0  0  0  0  0  0
  -18.1924  -26.7924   22.1622 C   0  0  0  0  0  0
  -19.1526  -28.8842   23.2895 C   0  0  0  0  0  0
  -18.9454  -30.1447   23.8908 C   0  0  0  0  0  0
  -17.6455  -30.6586   24.0563 C   0  0  0  0  0  0
  -25.9044  -34.9463   23.5118 C   0  0  0  0  0  0
  -16.5347  -29.9086   23.6328 C   0  0  0  0  0  0
  -16.7264  -28.6501   23.0352 C   0  0  0  0  0  0
  -26.4483  -31.6592   25.0717 C   0  0  0  0  0  0
  -25.3736  -31.3706   26.1458 C   0  0  0  0  0  0
  -27.0318  -30.3030   24.6121 C   0  0  0  0  0  0
  -27.6054  -32.4316   25.7481 C   0  0  0  0  0  0
  -27.5579  -37.1807   24.8467 C   0  0  0  0  0  0
  -21.4160  -29.3036   22.3714 N   0  0  0  0  0  0
  -26.4293  -37.3786   23.9409 N   0  0  0  0  0  0
  -24.6776  -31.0694   22.0975 N   0  0  0  0  0  0
  -23.4184  -28.8190   23.3046 O   0  0  0  0  0  0
  -28.4087  -26.6320   20.0534 O   0  0  0  0  0  0
  -26.5608  -34.8923   22.4681 O   0  0  0  0  0  0
  -23.5386  -32.1408   23.7422 O   0  0  0  0  0  0
  -31.0327  -18.1348   19.3570 C   0  0  0  0  0  0
  -30.5181  -20.4652   18.8327 C   0  0  0  0  0  0
  -30.1841  -18.1742   20.4801 C   0  0  0  0  0  0
  -29.5997  -20.5531   19.9067 C   0  0  0  0  0  0
  -31.2056  -19.2705   18.5477 C   0  0  0  0  0  0
  -29.4550  -19.3901   20.7395 C   0  0  0  0  0  0
  -28.0572  -22.2868   17.8584 C   0  0  0  0  0  0
  -30.2210  -16.9531   21.4416 C   0  0  0  0  0  0
  -27.8877  -24.1270   19.5435 C   0  0  0  0  0  0
  -28.4561  -25.2366   20.4915 C   0  0  0  0  0  0
  -28.7271  -22.8463   19.1365 C   0  0  1  0  0  0
  -28.8621  -21.7608   20.1480 N   0  0  0  0  0  0
  -29.8588  -15.5979   20.9467 N   0  0  0  0  0  0
  -32.2909  -19.2064   17.2075 Cl  0  0  0  0  0  0
  -28.3844  -19.4864   22.0971 Cl  0  0  0  0  0  0
  -31.4755  -12.4964   19.1191 H   0  0  0  0  0  0
  -30.3714  -11.3617   19.8496 H   0  0  0  0  0  0
  -29.7526  -11.7619   17.4482 H   0  0  0  0  0  0
  -29.6450  -13.4796   17.7388 H   0  0  0  0  0  0
  -27.8512  -11.2932   18.8439 H   0  0  0  0  0  0
  -27.3650  -12.5913   17.7868 H   0  0  0  0  0  0
  -27.6817  -14.2481   19.5363 H   0  0  0  0  0  0
  -28.7028  -11.9997   21.3428 H   0  0  0  0  0  0
  -28.4532  -13.6427   21.8520 H   0  0  0  0  0  0
  -25.2758   -9.5678   22.4760 H   0  0  0  0  0  0
  -23.9999   -7.4629   22.7472 H   0  0  0  0  0  0
  -21.0837   -8.8771   19.8953 H   0  0  0  0  0  0
  -22.3695  -10.9670   19.6165 H   0  0  0  0  0  0
  -21.2003   -7.6146   23.9717 H   0  0  0  0  0  0
  -21.1480   -6.0521   25.9078 H   0  0  0  0  0  0
  -22.0599   -2.7608   23.2848 H   0  0  0  0  0  0
  -22.4104  -11.9881   22.4791 H   0  0  0  0  0  0
  -21.1116  -13.1258   22.2621 H   0  0  0  0  0  0
  -24.6610  -15.8409   20.5157 H   0  0  0  0  0  0
  -26.2744  -15.6268   20.0671 H   0  0  0  0  0  0
  -26.7144  -32.5490   23.1124 H   0  0  0  0  0  0
  -25.0072  -33.9750   25.0454 H   0  0  0  0  0  0
  -22.7020  -31.3045   21.4051 H   0  0  0  0  0  0
  -23.3748  -35.9637   23.3312 H   0  0  0  0  0  0
  -24.3578  -36.8909   22.2053 H   0  0  0  0  0  0
  -23.7242  -37.6510   23.6650 H   0  0  0  0  0  0
  -26.0649  -31.5732   20.5939 H   0  0  0  0  0  0
  -26.8305  -30.8650   21.9874 H   0  0  0  0  0  0
  -28.1180  -29.0599   21.1380 H   0  0  0  0  0  0
  -26.0037  -25.9307   19.0435 H   0  0  0  0  0  0
  -23.9675  -27.2766   19.0605 H   0  0  0  0  0  0
  -23.7384  -30.5869   19.4044 H   0  0  0  0  0  0
  -22.7434  -29.2396   19.8674 H   0  0  0  0  0  0
  -25.1290  -36.1957   25.0828 H   0  0  0  0  0  0
  -20.9958  -28.3239   24.1428 H   0  0  0  0  0  0
  -20.5675  -26.2280   23.3607 H   0  0  0  0  0  0
  -21.6639  -26.7447   22.1206 H   0  0  0  0  0  0
  -19.6912  -25.6298   21.1236 H   0  0  0  0  0  0
  -19.6688  -27.3202   20.6748 H   0  0  0  0  0  0
  -17.4198  -26.6676   21.4021 H   0  0  0  0  0  0
  -18.0323  -26.0059   22.9011 H   0  0  0  0  0  0
  -19.7930  -30.7257   24.2285 H   0  0  0  0  0  0
  -17.5011  -31.6268   24.5160 H   0  0  0  0  0  0
  -15.5348  -30.2992   23.7646 H   0  0  0  0  0  0
  -15.8663  -28.0822   22.7067 H   0  0  0  0  0  0
  -24.5919  -30.7040   25.7794 H   0  0  0  0  0  0
  -24.8914  -32.2860   26.4898 H   0  0  0  0  0  0
  -25.8082  -30.8885   27.0223 H   0  0  0  0  0  0
  -26.2869  -29.6788   24.1171 H   0  0  0  0  0  0
  -27.4072  -29.7274   25.4592 H   0  0  0  0  0  0
  -27.8709  -30.4341   23.9285 H   0  0  0  0  0  0
  -27.2676  -33.3614   26.2068 H   0  0  0  0  0  0
  -28.3856  -32.6878   25.0301 H   0  0  0  0  0  0
  -28.0727  -31.8433   26.5388 H   0  0  0  0  0  0
  -28.2606  -38.0095   24.7508 H   0  0  0  0  0  0
  -28.1065  -36.2629   24.6299 H   0  0  0  0  0  0
  -27.2297  -37.1465   25.8870 H   0  0  0  0  0  0
  -20.9331  -29.8754   21.6926 H   0  0  0  0  0  0
  -26.0180  -38.2865   24.1404 H   0  0  0  0  0  0
  -31.6027  -17.2424   19.1420 H   0  0  0  0  0  0
  -30.7064  -21.3117   18.1913 H   0  0  0  0  0  0
  -28.0179  -23.0404   17.0705 H   0  0  0  0  0  0
  -27.0312  -21.9745   18.0570 H   0  0  0  0  0  0
  -28.5702  -21.4319   17.4237 H   0  0  0  0  0  0
  -29.5867  -17.1435   22.3057 H   0  0  0  0  0  0
  -31.2315  -16.9041   21.8513 H   0  0  0  0  0  0
  -27.6983  -24.6536   18.6086 H   0  0  0  0  0  0
  -26.9014  -23.8252   19.8975 H   0  0  0  0  0  0
  -29.5091  -25.0159   20.6681 H   0  0  0  0  0  0
  -27.9814  -25.1561   21.4705 H   0  0  0  0  0  0
  -29.7300  -23.1896   18.8770 H   0  0  0  0  0  0
  -28.1949  -21.7355   20.9149 H   0  0  0  0  0  0
  -28.8987  -15.3364   21.1097 H   0  0  0  0  0  0
  1 25  1  0  0  0
  1 30  2  0  0  0
  1 83  1  0  0  0
  2  3  1  0  0  0
  2 25  1  0  0  0
  2 86  1  0  0  0
  2 87  1  0  0  0
  3  4  1  0  0  0
  3 88  1  0  0  0
  3 89  1  0  0  0
  4  5  1  0  0  0
  4 90  1  0  0  0
  4 91  1  0  0  0
  5  6  1  0  0  0
  5 26  1  0  0  0
  5 92  1  0  0  0
  6 25  1  0  0  0
  6 93  1  0  0  0
  6 94  1  0  0  0
  7  8  2  0  0  0
  7 26  1  0  0  0
  7 29  1  0  0  0
  8  9  1  0  0  0
  8 22  1  0  0  0
  9 10  1  0  0  0
  9 27  2  0  0  0
 10 11  2  0  0  0
 10 15  1  0  0  0
 11 12  1  0  0  0
 11 95  1  0  0  0
 12 13  2  0  0  0
 12 96  1  0  0  0
 13 14  1  0  0  0
 13 31  1  0  0  0
 14 15  2  0  0  0
 14 97  1  0  0  0
 15 98  1  0  0  0
 16 17  2  0  0  0
 16 21  1  0  0  0
 16 31  1  0  0  0
 17 18  1  0  0  0
 17 99  1  0  0  0
 18 19  2  0  0  0
 18100  1  0  0  0
 19 20  1  0  0  0
 19 24  1  0  0  0
 20 21  2  0  0  0
 20101  1  0  0  0
 21 23  1  0  0  0
 22 28  1  0  0  0
 22 32  2  0  0  0
 26 27  1  0  0  0
 28102  1  0  0  0
 28103  1  0  0  0
 29104  1  0  0  0
 29105  1  0  0  0
 33 34  1  0  0  0
 33 66  1  0  0  0
 33 70  2  0  0  0
 34 36  1  0  0  0
 34 59  1  0  0  0
 34106  1  0  0  0
 35 44  2  0  0  0
 35 45  1  0  0  0
 35 68  1  0  0  0
 36 56  1  0  0  0
 36107  1  0  0  0
 37 39  1  0  0  0
 37 47  1  0  0  0
 37 66  1  0  0  0
 37108  1  0  0  0
 38 43  2  0  0  0
 38 46  1  0  0  0
 38 47  1  0  0  0
 39 64  1  0  0  0
 39 67  2  0  0  0
 40 52  1  0  0  0
 40 53  2  0  0  0
 40 58  1  0  0  0
 41109  1  0  0  0
 41110  1  0  0  0
 41111  1  0  0  0
 41 48  1  0  0  0
 42 43  1  0  0  0
 42 66  1  0  0  0
 42112  1  0  0  0
 42113  1  0  0  0
 43 44  1  0  0  0
 44114  1  0  0  0
 45 46  2  0  0  0
 45115  1  0  0  0
 46116  1  0  0  0
 47117  1  0  0  0
 47118  1  0  0  0
 48 56  1  0  0  0
 48 65  1  0  0  0
 48119  1  0  0  0
 49 50  1  0  0  0
 49 53  1  0  0  0
 49 64  1  0  0  0
 49120  1  0  0  0
 50 51  1  0  0  0
 50121  1  0  0  0
 50122  1  0  0  0
 51 52  1  0  0  0
 51123  1  0  0  0
 51124  1  0  0  0
 52125  1  0  0  0
 52126  1  0  0  0
 53 54  1  0  0  0
 54 55  2  0  0  0
 54127  1  0  0  0
 55 57  1  0  0  0
 55128  1  0  0  0
 56 69  2  0  0  0
 57 58  2  0  0  0
 57129  1  0  0  0
 58130  1  0  0  0
 59 60  1  0  0  0
 59 61  1  0  0  0
 59 62  1  0  0  0
 60131  1  0  0  0
 60132  1  0  0  0
 60133  1  0  0  0
 61134  1  0  0  0
 61135  1  0  0  0
 61136  1  0  0  0
 62137  1  0  0  0
 62138  1  0  0  0
 62139  1  0  0  0
 63 65  1  0  0  0
 63140  1  0  0  0
 63141  1  0  0  0
 63142  1  0  0  0
 64143  1  0  0  0
 65144  1  0  0  0
 68 80  1  0  0  0
 71 73  2  0  0  0
 71 75  1  0  0  0
 71145  1  0  0  0
 72 74  1  0  0  0
 72 75  2  0  0  0
 72146  1  0  0  0
 73 76  1  0  0  0
 73 78  1  0  0  0
 74 76  2  0  0  0
 74 82  1  0  0  0
 75 84  1  0  0  0
 76 85  1  0  0  0
 77147  1  0  0  0
 77148  1  0  0  0
 77149  1  0  0  0
 77 81  1  0  0  0
 78 83  1  0  0  0
 78150  1  0  0  0
 78151  1  0  0  0
 79 80  1  0  0  0
 79 81  1  0  0  0
 79152  1  0  0  0
 79153  1  0  0  0
 80154  1  0  0  0
 80155  1  0  0  0
 81 82  1  0  0  0
 81156  1  0  0  0
 82157  1  0  0  0
 83158  1  0  0  0
M  ISO  4   1 100  68 101  80 101  83 100
M  END
> <chiral flag>
0

> <version>
0

> <s_m_source_file>
/data/baiqing/PycharmProjects/Reinvent-master-3.2/result/LINK_invent/BTK/process_docking_weight1_custom_sum_contain_oxygen_bond_distance_aromatic_linkinvent_7_9_3/rearranged_h_0028.sdf

> <i_m_source_file_index>
25

> <r_mmod_Potential_Energy-OPLS-2005>
14.4176816940308

> <r_mmod_Stretch_Energy-OPLS-2005>
60.9280548095703

> <r_mmod_Bend_Energy-OPLS-2005>
146.739273071289

> <r_mmod_Torsional_Energy-OPLS-2005>
222.365386962891

> <r_mmod_Improper_Torsional_Energy-OPLS-2005>
5.27837562561035

> <r_mmod_Van_der_Waal_Energy-OPLS-2005>
147.53971862793

> <r_mmod_Electrostatic_Energy-OPLS-2005>
-388.166687011719

> <r_mmod_Solvation_Energy-OPLS-2005>
-207.073150634766

> <b_mmod_Minimization_Converged-OPLS-2005>
0

> <r_mmod_RMS_Derivative-OPLS-2005>
0.266696155071259

$$$$
25
                    3D
 Structure written by MMmdl.
159167  0  0  1  0            999 V2000
  -30.5323  -14.8580   20.4333 C   0  0  0  0  0  0
  -30.4474  -12.5248   19.4894 C   0  0  0  0  0  0
  -29.5193  -12.5237   18.2509 C   0  0  0  0  0  0
  -28.0477  -12.3242   18.6640 C   0  0  0  0  0  0
  -27.6385  -13.2345   19.8512 C   0  0  2  0  0  0
  -28.6823  -13.1922   20.9891 C   0  0  0  0  0  0
  -25.2474  -13.8178   20.5672 C   0  0  0  0  0  0
  -24.1775  -13.0426   20.9220 C   0  0  0  0  0  0
  -24.6375  -11.6909   20.8762 C   0  0  0  0  0  0
  -23.9059  -10.4289   21.0419 C   0  0  0  0  0  0
  -24.3599   -9.4191   21.9187 C   0  0  0  0  0  0
  -23.6278   -8.2228   22.0742 C   0  0  0  0  0  0
  -22.4254   -8.0284   21.3545 C   0  0  0  0  0  0
  -21.9905   -9.0255   20.4638 C   0  0  0  0  0  0
  -22.7236  -10.2132   20.3069 C   0  0  0  0  0  0
  -21.6842   -6.0740   22.5286 C   0  0  0  0  0  0
  -21.4004   -6.5638   23.8221 C   0  0  0  0  0  0
  -21.3664   -5.6781   24.9181 C   0  0  0  0  0  0
  -21.6050   -4.3049   24.7215 C   0  0  0  0  0  0
  -21.8819   -3.8145   23.4330 C   0  0  0  0  0  0
  -21.9179   -4.6968   22.3388 C   0  0  0  0  0  0
  -22.7794  -13.5205   21.1879 C   0  0  0  0  0  0
  -22.1655   -4.2158   21.0966 F   0  0  0  0  0  0
  -21.5625   -3.4529   25.7725 F   0  0  0  0  0  0
  -29.9744  -13.5898   20.4107 N   0  0  0  0  0  0
  -26.2910  -12.9394   20.3276 N   0  0  0  0  0  0
  -25.9306  -11.6534   20.5759 N   0  0  0  0  0  0
  -22.0434  -12.8217   22.0449 N   0  0  0  0  0  0
  -25.4124  -15.1906   20.4041 N   0  0  0  0  0  0
  -31.7110  -14.9933   20.0845 O   0  0  0  0  0  0
  -21.6619   -6.8883   21.4251 O   0  0  0  0  0  0
  -22.3485  -14.5507   20.6719 O   0  0  0  0  0  0
  -24.6388  -31.8484   23.1935 C   0  0  0  0  0  0
  -25.9193  -32.4716   23.8287 C   0  0  1  0  0  0
  -27.2154  -27.1912   20.1362 C   0  0  0  0  0  0
  -25.5958  -33.8520   24.2205 N   0  0  0  0  0  0
  -23.4392  -30.4699   21.5379 C   0  0  2  0  0  0
  -24.8863  -28.9082   20.1099 C   0  0  0  0  0  0
  -22.7554  -29.4569   22.4887 C   0  0  0  0  0  0
  -18.0304  -28.1387   22.8482 C   0  0  0  0  0  0
  -24.1491  -36.7266   23.2639 C   0  0  0  0  0  0
  -25.9932  -30.7383   21.3855 C   0  0  0  0  0  0
  -26.0637  -29.3570   20.7227 C   0  0  0  0  0  0
  -27.2308  -28.5139   20.7201 C   0  0  0  0  0  0
  -26.0091  -26.8312   19.4920 C   0  0  0  0  0  0
  -24.8688  -27.6559   19.4828 C   0  0  0  0  0  0
  -23.6615  -29.8038   20.1559 C   0  0  0  0  0  0
  -25.4123  -36.3041   24.0312 C   0  0  1  0  0  0
  -20.5912  -28.3706   23.1243 C   0  0  2  0  0  0
  -20.6796  -26.9413   22.5404 C   0  0  0  0  0  0
  -19.5767  -26.6375   21.5223 C   0  0  0  0  0  0
  -18.1942  -26.7927   22.1627 C   0  0  0  0  0  0
  -19.1559  -28.8872   23.2846 C   0  0  0  0  0  0
  -18.9474  -30.1470   23.8865 C   0  0  0  0  0  0
  -17.6473  -30.6587   24.0554 C   0  0  0  0  0  0
  -25.9068  -34.9415   23.5058 C   0  0  0  0  0  0
  -16.5359  -29.9076   23.6335 C   0  0  0  0  0  0
  -16.7285  -28.6497   23.0359 C   0  0  0  0  0  0
  -26.4520  -31.6585   25.0725 C   0  0  0  0  0  0
  -25.3721  -31.3792   26.1440 C   0  0  0  0  0  0
  -27.0387  -30.2982   24.6306 C   0  0  0  0  0  0
  -27.6025  -32.4373   25.7519 C   0  0  0  0  0  0
  -27.5579  -37.1787   24.8461 C   0  0  0  0  0  0
  -21.4254  -29.3038   22.3627 N   0  0  0  0  0  0
  -26.4292  -37.3751   23.9406 N   0  0  0  0  0  0
  -24.7100  -31.0409   22.0928 N   0  0  0  0  0  0
  -23.4233  -28.8101   23.2998 O   0  0  0  0  0  0
  -28.2796  -26.2358   20.1987 O   0  0  0  0  0  0
  -26.5643  -34.8901   22.4628 O   0  0  0  0  0  0
  -23.5525  -32.1321   23.7205 O   0  0  0  0  0  0
  -29.3575  -18.2937   21.6536 C   0  0  0  0  0  0
  -29.0555  -19.7049   21.5768 C   0  0  0  0  0  0
  -29.4304  -19.6269   19.2216 C   0  0  0  0  0  0
  -29.0341  -20.4415   20.3460 C   0  0  0  0  0  0
  -29.7282  -18.1958   19.3098 C   0  0  0  0  0  0
  -29.6843  -17.4548   20.5448 C   0  0  0  0  0  0
  -28.6697  -20.3910   22.8756 C   0  0  0  0  0  0
  -29.4597  -20.2858   17.8447 C   0  0  0  0  0  0
  -30.0188  -17.4412   18.0171 C   0  0  0  0  0  0
  -28.3175  -21.9112   20.2045 C   0  0  0  0  0  0
  -28.9526  -23.4334   20.3107 C   0  0  0  0  0  0
  -27.9722  -24.7420   20.0280 C   0  0  0  0  0  0
  -29.6895  -15.9462   20.7177 N   0  0  0  0  0  0
  -31.4817  -12.6859   19.1816 H   0  0  0  0  0  0
  -30.4330  -11.5552   19.9901 H   0  0  0  0  0  0
  -29.8213  -11.7393   17.5549 H   0  0  0  0  0  0
  -29.6241  -13.4680   17.7159 H   0  0  0  0  0  0
  -27.9240  -11.2768   18.9427 H   0  0  0  0  0  0
  -27.3858  -12.4918   17.8134 H   0  0  0  0  0  0
  -27.6250  -14.2505   19.4567 H   0  0  0  0  0  0
  -28.7427  -12.1940   21.4253 H   0  0  0  0  0  0
  -28.3923  -13.8601   21.8016 H   0  0  0  0  0  0
  -25.2738   -9.5652   22.4775 H   0  0  0  0  0  0
  -23.9987   -7.4604   22.7441 H   0  0  0  0  0  0
  -21.0845   -8.8773   19.8929 H   0  0  0  0  0  0
  -22.3699  -10.9678   19.6183 H   0  0  0  0  0  0
  -21.2011   -7.6148   23.9734 H   0  0  0  0  0  0
  -21.1491   -6.0507   25.9086 H   0  0  0  0  0  0
  -22.0597   -2.7614   23.2819 H   0  0  0  0  0  0
  -22.4050  -11.9899   22.4881 H   0  0  0  0  0  0
  -21.1055  -13.1266   22.2652 H   0  0  0  0  0  0
  -24.6321  -15.8324   20.4920 H   0  0  0  0  0  0
  -26.2440  -15.6294   20.0298 H   0  0  0  0  0  0
  -26.7258  -32.5347   23.1013 H   0  0  0  0  0  0
  -25.0133  -33.9625   25.0374 H   0  0  0  0  0  0
  -22.7384  -31.2944   21.3901 H   0  0  0  0  0  0
  -23.3751  -35.9606   23.3293 H   0  0  0  0  0  0
  -24.3569  -36.8908   22.2056 H   0  0  0  0  0  0
  -23.7255  -37.6461   23.6680 H   0  0  0  0  0  0
  -26.1483  -31.4955   20.6162 H   0  0  0  0  0  0
  -26.8639  -30.7818   22.0282 H   0  0  0  0  0  0
  -28.1296  -28.8530   21.2166 H   0  0  0  0  0  0
  -25.9053  -25.8747   19.0046 H   0  0  0  0  0  0
  -23.9696  -27.3034   18.9979 H   0  0  0  0  0  0
  -23.7906  -30.5794   19.4006 H   0  0  0  0  0  0
  -22.7787  -29.2405   19.8468 H   0  0  0  0  0  0
  -25.1310  -36.1868   25.0807 H   0  0  0  0  0  0
  -20.9989  -28.3294   24.1373 H   0  0  0  0  0  0
  -20.5715  -26.2311   23.3616 H   0  0  0  0  0  0
  -21.6652  -26.7438   22.1181 H   0  0  0  0  0  0
  -19.6903  -25.6285   21.1259 H   0  0  0  0  0  0
  -19.6697  -27.3176   20.6748 H   0  0  0  0  0  0
  -17.4212  -26.6680   21.4021 H   0  0  0  0  0  0
  -18.0314  -26.0082   22.9032 H   0  0  0  0  0  0
  -19.7955  -30.7294   24.2205 H   0  0  0  0  0  0
  -17.5028  -31.6260   24.5161 H   0  0  0  0  0  0
  -15.5353  -30.2960   23.7691 H   0  0  0  0  0  0
  -15.8693  -28.0803   22.7084 H   0  0  0  0  0  0
  -24.5859  -30.7175   25.7783 H   0  0  0  0  0  0
  -24.8963  -32.2998   26.4835 H   0  0  0  0  0  0
  -25.8015  -30.8984   27.0242 H   0  0  0  0  0  0
  -26.3002  -29.6715   24.1293 H   0  0  0  0  0  0
  -27.3968  -29.7275   25.4886 H   0  0  0  0  0  0
  -27.8925  -30.4206   23.9638 H   0  0  0  0  0  0
  -27.2553  -33.3659   26.2064 H   0  0  0  0  0  0
  -28.3854  -32.6974   25.0382 H   0  0  0  0  0  0
  -28.0678  -31.8551   26.5479 H   0  0  0  0  0  0
  -28.2580  -38.0094   24.7500 H   0  0  0  0  0  0
  -28.1079  -36.2615   24.6290 H   0  0  0  0  0  0
  -27.2287  -37.1453   25.8860 H   0  0  0  0  0  0
  -20.9459  -29.8776   21.6834 H   0  0  0  0  0  0
  -26.0153  -38.2821   24.1406 H   0  0  0  0  0  0
  -29.2770  -17.8211   22.6220 H   0  0  0  0  0  0
  -29.2775  -20.0152   23.6997 H   0  0  0  0  0  0
  -27.6252  -20.1966   23.1156 H   0  0  0  0  0  0
  -28.8244  -21.4684   22.8336 H   0  0  0  0  0  0
  -29.4536  -21.3736   17.8900 H   0  0  0  0  0  0
  -28.5953  -19.9710   17.2583 H   0  0  0  0  0  0
  -30.3642  -20.0149   17.2990 H   0  0  0  0  0  0
  -31.0067  -17.7129   17.6445 H   0  0  0  0  0  0
  -29.2814  -17.6836   17.2502 H   0  0  0  0  0  0
  -29.9926  -16.3609   18.1371 H   0  0  0  0  0  0
  -27.5018  -21.8938   20.9271 H   0  0  0  0  0  0
  -27.7772  -21.8816   19.2584 H   0  0  0  0  0  0
  -29.7889  -23.4971   19.6144 H   0  0  0  0  0  0
  -29.3909  -23.5454   21.3013 H   0  0  0  0  0  0
  -27.0744  -24.5603   20.6211 H   0  0  0  0  0  0
  -27.6615  -24.6255   18.9889 H   0  0  0  0  0  0
  -28.8297  -15.6108   21.1251 H   0  0  0  0  0  0
  1 25  1  0  0  0
  1 30  2  0  0  0
  1 83  1  0  0  0
  2  3  1  0  0  0
  2 25  1  0  0  0
  2 84  1  0  0  0
  2 85  1  0  0  0
  3  4  1  0  0  0
  3 86  1  0  0  0
  3 87  1  0  0  0
  4  5  1  0  0  0
  4 88  1  0  0  0
  4 89  1  0  0  0
  5  6  1  0  0  0
  5 26  1  0  0  0
  5 90  1  0  0  0
  6 25  1  0  0  0
  6 91  1  0  0  0
  6 92  1  0  0  0
  7  8  2  0  0  0
  7 26  1  0  0  0
  7 29  1  0  0  0
  8  9  1  0  0  0
  8 22  1  0  0  0
  9 10  1  0  0  0
  9 27  2  0  0  0
 10 11  2  0  0  0
 10 15  1  0  0  0
 11 12  1  0  0  0
 11 93  1  0  0  0
 12 13  2  0  0  0
 12 94  1  0  0  0
 13 14  1  0  0  0
 13 31  1  0  0  0
 14 15  2  0  0  0
 14 95  1  0  0  0
 15 96  1  0  0  0
 16 17  2  0  0  0
 16 21  1  0  0  0
 16 31  1  0  0  0
 17 18  1  0  0  0
 17 97  1  0  0  0
 18 19  2  0  0  0
 18 98  1  0  0  0
 19 20  1  0  0  0
 19 24  1  0  0  0
 20 21  2  0  0  0
 20 99  1  0  0  0
 21 23  1  0  0  0
 22 28  1  0  0  0
 22 32  2  0  0  0
 26 27  1  0  0  0
 28100  1  0  0  0
 28101  1  0  0  0
 29102  1  0  0  0
 29103  1  0  0  0
 33 34  1  0  0  0
 33 66  1  0  0  0
 33 70  2  0  0  0
 34 36  1  0  0  0
 34 59  1  0  0  0
 34104  1  0  0  0
 35 44  2  0  0  0
 35 45  1  0  0  0
 35 68  1  0  0  0
 36 56  1  0  0  0
 36105  1  0  0  0
 37 39  1  0  0  0
 37 47  1  0  0  0
 37 66  1  0  0  0
 37106  1  0  0  0
 38 43  2  0  0  0
 38 46  1  0  0  0
 38 47  1  0  0  0
 39 64  1  0  0  0
 39 67  2  0  0  0
 40 52  1  0  0  0
 40 53  2  0  0  0
 40 58  1  0  0  0
 41107  1  0  0  0
 41108  1  0  0  0
 41109  1  0  0  0
 41 48  1  0  0  0
 42 43  1  0  0  0
 42 66  1  0  0  0
 42110  1  0  0  0
 42111  1  0  0  0
 43 44  1  0  0  0
 44112  1  0  0  0
 45 46  2  0  0  0
 45113  1  0  0  0
 46114  1  0  0  0
 47115  1  0  0  0
 47116  1  0  0  0
 48 56  1  0  0  0
 48 65  1  0  0  0
 48117  1  0  0  0
 49 50  1  0  0  0
 49 53  1  0  0  0
 49 64  1  0  0  0
 49118  1  0  0  0
 50 51  1  0  0  0
 50119  1  0  0  0
 50120  1  0  0  0
 51 52  1  0  0  0
 51121  1  0  0  0
 51122  1  0  0  0
 52123  1  0  0  0
 52124  1  0  0  0
 53 54  1  0  0  0
 54 55  2  0  0  0
 54125  1  0  0  0
 55 57  1  0  0  0
 55126  1  0  0  0
 56 69  2  0  0  0
 57 58  2  0  0  0
 57127  1  0  0  0
 58128  1  0  0  0
 59 60  1  0  0  0
 59 61  1  0  0  0
 59 62  1  0  0  0
 60129  1  0  0  0
 60130  1  0  0  0
 60131  1  0  0  0
 61132  1  0  0  0
 61133  1  0  0  0
 61134  1  0  0  0
 62135  1  0  0  0
 62136  1  0  0  0
 62137  1  0  0  0
 63 65  1  0  0  0
 63138  1  0  0  0
 63139  1  0  0  0
 63140  1  0  0  0
 64141  1  0  0  0
 65142  1  0  0  0
 68 82  1  0  0  0
 71 72  2  0  0  0
 71 76  1  0  0  0
 71143  1  0  0  0
 72 74  1  0  0  0
 72 77  1  0  0  0
 73 74  2  0  0  0
 73 75  1  0  0  0
 73 78  1  0  0  0
 74 80  1  0  0  0
 75 76  2  0  0  0
 75 79  1  0  0  0
 76 83  1  0  0  0
 77144  1  0  0  0
 77145  1  0  0  0
 77146  1  0  0  0
 78147  1  0  0  0
 78148  1  0  0  0
 78149  1  0  0  0
 79150  1  0  0  0
 79151  1  0  0  0
 79152  1  0  0  0
 80 81  1  0  0  0
 80153  1  0  0  0
 80154  1  0  0  0
 81 82  1  0  0  0
 81155  1  0  0  0
 81156  1  0  0  0
 82157  1  0  0  0
 82158  1  0  0  0
 83159  1  0  0  0
M  ISO  4   1 100  68 101  82 101  83 100
M  END
> <chiral flag>
0

> <version>
0

> <s_m_source_file>
/data/baiqing/PycharmProjects/Reinvent-master-3.2/result/LINK_invent/BTK/process_docking_weight1_custom_sum_contain_oxygen_bond_distance_aromatic_linkinvent_7_9_3/rearranged_h_0028.sdf

> <i_m_source_file_index>
26

> <r_mmod_Potential_Energy-OPLS-2005>
336.928527832031

> <r_mmod_Stretch_Energy-OPLS-2005>
186.250061035156

> <r_mmod_Bend_Energy-OPLS-2005>
227.729400634766

> <r_mmod_Torsional_Energy-OPLS-2005>
244.369918823242

> <r_mmod_Improper_Torsional_Energy-OPLS-2005>
7.66756391525269

> <r_mmod_Van_der_Waal_Energy-OPLS-2005>
143.017669677734

> <r_mmod_Electrostatic_Energy-OPLS-2005>
-406.582824707031

> <r_mmod_Solvation_Energy-OPLS-2005>
-206.882965087891

> <b_mmod_Minimization_Converged-OPLS-2005>
0

> <r_mmod_RMS_Derivative-OPLS-2005>
2.45392060279846

$$$$
26
                    3D
 Structure written by MMmdl.
167175  0  0  1  0            999 V2000
  -30.6268  -14.5621   20.5815 C   0  0  0  0  0  0
  -30.4539  -12.3647   19.4145 C   0  0  0  0  0  0
  -29.5089  -12.5267   18.2010 C   0  0  0  0  0  0
  -28.0274  -12.3739   18.6103 C   0  0  0  0  0  0
  -27.6688  -13.1998   19.8748 C   0  0  2  0  0  0
  -28.7158  -12.9510   20.9838 C   0  0  0  0  0  0
  -25.2620  -13.8099   20.5601 C   0  0  0  0  0  0
  -24.1866  -13.0404   20.9141 C   0  0  0  0  0  0
  -24.6409  -11.6872   20.8699 C   0  0  0  0  0  0
  -23.9056  -10.4268   21.0394 C   0  0  0  0  0  0
  -24.3592   -9.4185   21.9181 C   0  0  0  0  0  0
  -23.6275   -8.2222   22.0746 C   0  0  0  0  0  0
  -22.4262   -8.0249   21.3545 C   0  0  0  0  0  0
  -21.9892   -9.0225   20.4643 C   0  0  0  0  0  0
  -22.7216  -10.2112   20.3057 C   0  0  0  0  0  0
  -21.6844   -6.0712   22.5286 C   0  0  0  0  0  0
  -21.3995   -6.5623   23.8218 C   0  0  0  0  0  0
  -21.3657   -5.6777   24.9180 C   0  0  0  0  0  0
  -21.6061   -4.3047   24.7238 C   0  0  0  0  0  0
  -21.8817   -3.8129   23.4360 C   0  0  0  0  0  0
  -21.9187   -4.6937   22.3409 C   0  0  0  0  0  0
  -22.7887  -13.5234   21.1820 C   0  0  0  0  0  0
  -22.1662   -4.2127   21.0985 F   0  0  0  0  0  0
  -21.5640   -3.4524   25.7754 F   0  0  0  0  0  0
  -30.0407  -13.3293   20.4521 N   0  0  0  0  0  0
  -26.3072  -12.9268   20.3342 N   0  0  0  0  0  0
  -25.9346  -11.6435   20.5727 N   0  0  0  0  0  0
  -22.0504  -12.8246   22.0372 N   0  0  0  0  0  0
  -25.4311  -15.1783   20.3880 N   0  0  0  0  0  0
  -31.7062  -14.8328   20.0396 O   0  0  0  0  0  0
  -21.6626   -6.8846   21.4248 O   0  0  0  0  0  0
  -22.3556  -14.5528   20.6655 O   0  0  0  0  0  0
  -24.6205  -31.8634   23.2073 C   0  0  0  0  0  0
  -25.9079  -32.4791   23.8372 C   0  0  1  0  0  0
  -27.2271  -27.3608   20.0882 C   0  0  0  0  0  0
  -25.5911  -33.8588   24.2302 N   0  0  0  0  0  0
  -23.4138  -30.4928   21.5453 C   0  0  2  0  0  0
  -24.8580  -28.9550   20.1092 C   0  0  0  0  0  0
  -22.7430  -29.4651   22.4883 C   0  0  0  0  0  0
  -18.0290  -28.1393   22.8493 C   0  0  0  0  0  0
  -24.1481  -36.7299   23.2634 C   0  0  0  0  0  0
  -25.9525  -30.8040   21.3757 C   0  0  0  0  0  0
  -26.0250  -29.4360   20.7146 C   0  0  0  0  0  0
  -27.2094  -28.6475   20.7018 C   0  0  0  0  0  0
  -26.0354  -26.9340   19.4510 C   0  0  0  0  0  0
  -24.8615  -27.7062   19.4739 C   0  0  0  0  0  0
  -23.6275  -29.8345   20.1589 C   0  0  0  0  0  0
  -25.4105  -36.3086   24.0332 C   0  0  1  0  0  0
  -20.5889  -28.3691   23.1274 C   0  0  2  0  0  0
  -20.6778  -26.9413   22.5404 C   0  0  0  0  0  0
  -19.5763  -26.6392   21.5199 C   0  0  0  0  0  0
  -18.1946  -26.7941   22.1616 C   0  0  0  0  0  0
  -19.1551  -28.8849   23.2896 C   0  0  0  0  0  0
  -18.9485  -30.1455   23.8916 C   0  0  0  0  0  0
  -17.6485  -30.6603   24.0577 C   0  0  0  0  0  0
  -25.9045  -34.9450   23.5115 C   0  0  0  0  0  0
  -16.5376  -29.9118   23.6322 C   0  0  0  0  0  0
  -16.7287  -28.6537   23.0354 C   0  0  0  0  0  0
  -26.4470  -31.6602   25.0735 C   0  0  0  0  0  0
  -25.3709  -31.3777   26.1468 C   0  0  0  0  0  0
  -27.0309  -30.3028   24.6176 C   0  0  0  0  0  0
  -27.6029  -32.4328   25.7516 C   0  0  0  0  0  0
  -27.5576  -37.1806   24.8457 C   0  0  0  0  0  0
  -21.4142  -29.3058   22.3645 N   0  0  0  0  0  0
  -26.4284  -37.3787   23.9405 N   0  0  0  0  0  0
  -24.6803  -31.0681   22.1001 N   0  0  0  0  0  0
  -23.4174  -28.8166   23.2927 O   0  0  0  0  0  0
  -28.3653  -26.5486   20.1324 O   0  0  0  0  0  0
  -26.5609  -34.8911   22.4679 O   0  0  0  0  0  0
  -23.5378  -32.1403   23.7424 O   0  0  0  0  0  0
  -28.3531  -19.3329   21.2967 C   0  0  0  0  0  0
  -27.7714  -18.3469   22.1196 C   0  0  0  0  0  0
  -28.4083  -17.0694   22.1327 C   0  0  0  0  0  0
  -29.5039  -19.0622   20.5440 C   0  0  0  0  0  0
  -29.5266  -16.8059   21.2891 C   0  0  0  0  0  0
  -25.9784  -20.1319   22.6783 C   0  0  0  0  0  0
  -26.8085  -18.6413   24.4641 C   0  0  0  0  0  0
  -25.3224  -17.7708   22.5864 C   0  0  0  0  0  0
  -30.0821  -20.2205   19.6874 C   0  0  0  0  0  0
  -29.2884  -24.1098   20.2768 C   0  0  0  0  0  0
  -29.1241  -22.6324   19.7284 C   0  0  0  0  0  0
  -28.2455  -25.1456   19.7161 C   0  0  0  0  0  0
  -26.5026  -18.6975   22.9515 C   0  0  0  0  0  0
  -30.0688  -17.8091   20.5194 N   0  0  0  0  0  0
  -29.9498  -15.4225   21.3778 N   0  0  0  0  0  0
  -30.0333  -21.5865   20.3271 N   0  3  0  0  0  0
  -27.8515  -15.7955   23.1785 Cl  0  0  0  0  0  0
  -31.4914  -12.5127   19.1076 H   0  0  0  0  0  0
  -30.4039  -11.3448   19.8016 H   0  0  0  0  0  0
  -29.7600  -11.7961   17.4298 H   0  0  0  0  0  0
  -29.6651  -13.5067   17.7471 H   0  0  0  0  0  0
  -27.8417  -11.3153   18.7983 H   0  0  0  0  0  0
  -27.3789  -12.6558   17.7793 H   0  0  0  0  0  0
  -27.7159  -14.2522   19.5963 H   0  0  0  0  0  0
  -28.7203  -11.8945   21.2565 H   0  0  0  0  0  0
  -28.4535  -13.4682   21.9035 H   0  0  0  0  0  0
  -25.2734   -9.5670   22.4756 H   0  0  0  0  0  0
  -23.9986   -7.4615   22.7474 H   0  0  0  0  0  0
  -21.0821   -8.8740   19.8955 H   0  0  0  0  0  0
  -22.3667  -10.9643   19.6164 H   0  0  0  0  0  0
  -21.1968   -7.6131   23.9706 H   0  0  0  0  0  0
  -21.1492   -6.0514   25.9088 H   0  0  0  0  0  0
  -22.0599   -2.7590   23.2864 H   0  0  0  0  0  0
  -22.4085  -11.9938   22.4839 H   0  0  0  0  0  0
  -21.1131  -13.1312   22.2555 H   0  0  0  0  0  0
  -24.6695  -15.8336   20.5169 H   0  0  0  0  0  0
  -26.2998  -15.6182   20.1159 H   0  0  0  0  0  0
  -26.7136  -32.5475   23.1116 H   0  0  0  0  0  0
  -25.0050  -33.9740   25.0432 H   0  0  0  0  0  0
  -22.7085  -31.3149   21.4061 H   0  0  0  0  0  0
  -23.3743  -35.9631   23.3292 H   0  0  0  0  0  0
  -24.3587  -36.8922   22.2050 H   0  0  0  0  0  0
  -23.7220  -37.6496   23.6657 H   0  0  0  0  0  0
  -26.0867  -31.5704   20.6106 H   0  0  0  0  0  0
  -26.8318  -30.8451   22.0063 H   0  0  0  0  0  0
  -28.1058  -29.0122   21.1831 H   0  0  0  0  0  0
  -25.9749  -25.9938   18.9240 H   0  0  0  0  0  0
  -23.9664  -27.3406   18.9887 H   0  0  0  0  0  0
  -23.7528  -30.6145   19.4063 H   0  0  0  0  0  0
  -22.7454  -29.2698   19.8532 H   0  0  0  0  0  0
  -25.1283  -36.1941   25.0828 H   0  0  0  0  0  0
  -21.0027  -28.3280   24.1377 H   0  0  0  0  0  0
  -20.5660  -26.2307   23.3601 H   0  0  0  0  0  0
  -21.6654  -26.7446   22.1207 H   0  0  0  0  0  0
  -19.6926  -25.6304   21.1238 H   0  0  0  0  0  0
  -19.6711  -27.3187   20.6720 H   0  0  0  0  0  0
  -17.4210  -26.6684   21.4015 H   0  0  0  0  0  0
  -18.0378  -26.0084   22.9023 H   0  0  0  0  0  0
  -19.7970  -30.7258   24.2281 H   0  0  0  0  0  0
  -17.5068  -31.6278   24.5198 H   0  0  0  0  0  0
  -15.5389  -30.3051   23.7624 H   0  0  0  0  0  0
  -15.8682  -28.0861   22.7049 H   0  0  0  0  0  0
  -24.5865  -30.7134   25.7831 H   0  0  0  0  0  0
  -24.8910  -32.2961   26.4855 H   0  0  0  0  0  0
  -25.8028  -30.8994   27.0259 H   0  0  0  0  0  0
  -26.2897  -29.6800   24.1151 H   0  0  0  0  0  0
  -27.3967  -29.7265   25.4680 H   0  0  0  0  0  0
  -27.8777  -30.4332   23.9437 H   0  0  0  0  0  0
  -27.2639  -33.3626   26.2091 H   0  0  0  0  0  0
  -28.3853  -32.6880   25.0364 H   0  0  0  0  0  0
  -28.0663  -31.8440   26.5434 H   0  0  0  0  0  0
  -28.2582  -38.0114   24.7518 H   0  0  0  0  0  0
  -28.1089  -36.2647   24.6271 H   0  0  0  0  0  0
  -27.2307  -37.1440   25.8865 H   0  0  0  0  0  0
  -20.9285  -29.8837   21.6915 H   0  0  0  0  0  0
  -26.0165  -38.2856   24.1439 H   0  0  0  0  0  0
  -27.9216  -20.3157   21.2189 H   0  0  0  0  0  0
  -26.7094  -20.8927   22.9527 H   0  0  0  0  0  0
  -25.0812  -20.3481   23.2582 H   0  0  0  0  0  0
  -25.7103  -20.2729   21.6302 H   0  0  0  0  0  0
  -27.6414  -19.3006   24.7152 H   0  0  0  0  0  0
  -27.0691  -17.6472   24.8186 H   0  0  0  0  0  0
  -25.9482  -18.9576   25.0550 H   0  0  0  0  0  0
  -25.1370  -17.7868   21.5119 H   0  0  0  0  0  0
  -24.4022  -18.0860   23.0779 H   0  0  0  0  0  0
  -25.4714  -16.7345   22.8767 H   0  0  0  0  0  0
  -29.5665  -20.2311   18.7280 H   0  0  0  0  0  0
  -31.1260  -19.9920   19.4678 H   0  0  0  0  0  0
  -30.2945  -24.4664   20.0503 H   0  0  0  0  0  0
  -29.2047  -24.1034   21.3651 H   0  0  0  0  0  0
  -29.2870  -22.6576   18.6493 H   0  0  0  0  0  0
  -28.0910  -22.3093   19.8705 H   0  0  0  0  0  0
  -27.2725  -24.7489   20.0087 H   0  0  0  0  0  0
  -28.2768  -25.1279   18.6249 H   0  0  0  0  0  0
  -29.3024  -14.9171   21.9654 H   0  0  0  0  0  0
  -30.9775  -21.9305   20.2895 H   0  0  0  0  0  0
  -29.8152  -21.4497   21.2997 H   0  0  0  0  0  0
  1 25  1  0  0  0
  1 30  2  0  0  0
  1 85  1  0  0  0
  2  3  1  0  0  0
  2 25  1  0  0  0
  2 88  1  0  0  0
  2 89  1  0  0  0
  3  4  1  0  0  0
  3 90  1  0  0  0
  3 91  1  0  0  0
  4  5  1  0  0  0
  4 92  1  0  0  0
  4 93  1  0  0  0
  5  6  1  0  0  0
  5 26  1  0  0  0
  5 94  1  0  0  0
  6 25  1  0  0  0
  6 95  1  0  0  0
  6 96  1  0  0  0
  7  8  2  0  0  0
  7 26  1  0  0  0
  7 29  1  0  0  0
  8  9  1  0  0  0
  8 22  1  0  0  0
  9 10  1  0  0  0
  9 27  2  0  0  0
 10 11  2  0  0  0
 10 15  1  0  0  0
 11 12  1  0  0  0
 11 97  1  0  0  0
 12 13  2  0  0  0
 12 98  1  0  0  0
 13 14  1  0  0  0
 13 31  1  0  0  0
 14 15  2  0  0  0
 14 99  1  0  0  0
 15100  1  0  0  0
 16 17  2  0  0  0
 16 21  1  0  0  0
 16 31  1  0  0  0
 17 18  1  0  0  0
 17101  1  0  0  0
 18 19  2  0  0  0
 18102  1  0  0  0
 19 20  1  0  0  0
 19 24  1  0  0  0
 20 21  2  0  0  0
 20103  1  0  0  0
 21 23  1  0  0  0
 22 28  1  0  0  0
 22 32  2  0  0  0
 26 27  1  0  0  0
 28104  1  0  0  0
 28105  1  0  0  0
 29106  1  0  0  0
 29107  1  0  0  0
 33 34  1  0  0  0
 33 66  1  0  0  0
 33 70  2  0  0  0
 34 36  1  0  0  0
 34 59  1  0  0  0
 34108  1  0  0  0
 35 44  2  0  0  0
 35 45  1  0  0  0
 35 68  1  0  0  0
 36 56  1  0  0  0
 36109  1  0  0  0
 37 39  1  0  0  0
 37 47  1  0  0  0
 37 66  1  0  0  0
 37110  1  0  0  0
 38 43  2  0  0  0
 38 46  1  0  0  0
 38 47  1  0  0  0
 39 64  1  0  0  0
 39 67  2  0  0  0
 40 52  1  0  0  0
 40 53  2  0  0  0
 40 58  1  0  0  0
 41111  1  0  0  0
 41112  1  0  0  0
 41113  1  0  0  0
 41 48  1  0  0  0
 42 43  1  0  0  0
 42 66  1  0  0  0
 42114  1  0  0  0
 42115  1  0  0  0
 43 44  1  0  0  0
 44116  1  0  0  0
 45 46  2  0  0  0
 45117  1  0  0  0
 46118  1  0  0  0
 47119  1  0  0  0
 47120  1  0  0  0
 48 56  1  0  0  0
 48 65  1  0  0  0
 48121  1  0  0  0
 49 50  1  0  0  0
 49 53  1  0  0  0
 49 64  1  0  0  0
 49122  1  0  0  0
 50 51  1  0  0  0
 50123  1  0  0  0
 50124  1  0  0  0
 51 52  1  0  0  0
 51125  1  0  0  0
 51126  1  0  0  0
 52127  1  0  0  0
 52128  1  0  0  0
 53 54  1  0  0  0
 54 55  2  0  0  0
 54129  1  0  0  0
 55 57  1  0  0  0
 55130  1  0  0  0
 56 69  2  0  0  0
 57 58  2  0  0  0
 57131  1  0  0  0
 58132  1  0  0  0
 59 60  1  0  0  0
 59 61  1  0  0  0
 59 62  1  0  0  0
 60133  1  0  0  0
 60134  1  0  0  0
 60135  1  0  0  0
 61136  1  0  0  0
 61137  1  0  0  0
 61138  1  0  0  0
 62139  1  0  0  0
 62140  1  0  0  0
 62141  1  0  0  0
 63 65  1  0  0  0
 63142  1  0  0  0
 63143  1  0  0  0
 63144  1  0  0  0
 64145  1  0  0  0
 65146  1  0  0  0
 68 82  1  0  0  0
 71 72  2  0  0  0
 71 74  1  0  0  0
 71147  1  0  0  0
 72 73  1  0  0  0
 72 83  1  0  0  0
 73 75  2  0  0  0
 73 87  1  0  0  0
 74 79  1  0  0  0
 74 84  2  0  0  0
 75 84  1  0  0  0
 75 85  1  0  0  0
 76148  1  0  0  0
 76149  1  0  0  0
 76150  1  0  0  0
 76 83  1  0  0  0
 77 83  1  0  0  0
 77151  1  0  0  0
 77152  1  0  0  0
 77153  1  0  0  0
 78 83  1  0  0  0
 78154  1  0  0  0
 78155  1  0  0  0
 78156  1  0  0  0
 79 86  1  0  0  0
 79157  1  0  0  0
 79158  1  0  0  0
 80 81  1  0  0  0
 80 82  1  0  0  0
 80159  1  0  0  0
 80160  1  0  0  0
 81 86  1  0  0  0
 81161  1  0  0  0
 81162  1  0  0  0
 82163  1  0  0  0
 82164  1  0  0  0
 85165  1  0  0  0
 86166  1  0  0  0
 86167  1  0  0  0
M  CHG  1  86   1
M  ISO  4   1 100  68 101  82 101  85 100
M  END
> <chiral flag>
0

> <version>
0

> <s_m_source_file>
/data/baiqing/PycharmProjects/Reinvent-master-3.2/result/LINK_invent/BTK/process_docking_weight1_custom_sum_contain_oxygen_bond_distance_aromatic_linkinvent_7_9_3/rearranged_h_0028.sdf

> <i_m_source_file_index>
27

> <r_mmod_Potential_Energy-OPLS-2005>
-375.595306396484

> <r_mmod_Stretch_Energy-OPLS-2005>
69.7808532714844

> <r_mmod_Bend_Energy-OPLS-2005>
154.184463500977

> <r_mmod_Torsional_Energy-OPLS-2005>
214.342712402344

> <r_mmod_Improper_Torsional_Energy-OPLS-2005>
4.19856977462769

> <r_mmod_Van_der_Waal_Energy-OPLS-2005>
165.86457824707

> <r_mmod_Electrostatic_Energy-OPLS-2005>
-515.898803710938

> <r_mmod_Solvation_Energy-OPLS-2005>
-498.898376464844

> <b_mmod_Minimization_Converged-OPLS-2005>
0

> <r_mmod_RMS_Derivative-OPLS-2005>
2.99728727340698

$$$$
27
                    3D
 Structure written by MMmdl.
159167  0  0  1  0            999 V2000
  -30.5999  -14.7438   20.4276 C   0  0  0  0  0  0
  -30.4430  -12.4378   19.4891 C   0  0  0  0  0  0
  -29.5189  -12.4393   18.2490 C   0  0  0  0  0  0
  -28.0367  -12.3133   18.6572 C   0  0  0  0  0  0
  -27.6446  -13.2247   19.8518 C   0  0  2  0  0  0
  -28.6888  -13.1617   20.9880 C   0  0  0  0  0  0
  -25.2526  -13.8181   20.5679 C   0  0  0  0  0  0
  -24.1809  -13.0441   20.9201 C   0  0  0  0  0  0
  -24.6389  -11.6914   20.8749 C   0  0  0  0  0  0
  -23.9061  -10.4290   21.0404 C   0  0  0  0  0  0
  -24.3613   -9.4208   21.9183 C   0  0  0  0  0  0
  -23.6303   -8.2236   22.0752 C   0  0  0  0  0  0
  -22.4284   -8.0273   21.3544 C   0  0  0  0  0  0
  -21.9913   -9.0247   20.4654 C   0  0  0  0  0  0
  -22.7228  -10.2135   20.3064 C   0  0  0  0  0  0
  -21.6857   -6.0735   22.5275 C   0  0  0  0  0  0
  -21.4008   -6.5638   23.8205 C   0  0  0  0  0  0
  -21.3662   -5.6789   24.9166 C   0  0  0  0  0  0
  -21.6055   -4.3055   24.7218 C   0  0  0  0  0  0
  -21.8818   -3.8148   23.4339 C   0  0  0  0  0  0
  -21.9193   -4.6964   22.3397 C   0  0  0  0  0  0
  -22.7835  -13.5232   21.1868 C   0  0  0  0  0  0
  -22.1659   -4.2148   21.0976 F   0  0  0  0  0  0
  -21.5644   -3.4543   25.7734 F   0  0  0  0  0  0
  -29.9924  -13.5088   20.4087 N   0  0  0  0  0  0
  -26.2952  -12.9378   20.3300 N   0  0  0  0  0  0
  -25.9319  -11.6529   20.5780 N   0  0  0  0  0  0
  -22.0486  -12.8215   22.0430 N   0  0  0  0  0  0
  -25.4238  -15.1902   20.4047 N   0  0  0  0  0  0
  -31.7853  -14.8516   20.1017 O   0  0  0  0  0  0
  -21.6648   -6.8876   21.4239 O   0  0  0  0  0  0
  -22.3519  -14.5540   20.6726 O   0  0  0  0  0  0
  -24.6295  -31.8571   23.2008 C   0  0  0  0  0  0
  -25.9127  -32.4767   23.8346 C   0  0  1  0  0  0
  -27.2181  -27.2771   20.1267 C   0  0  0  0  0  0
  -25.5932  -33.8568   24.2258 N   0  0  0  0  0  0
  -23.4255  -30.4799   21.5445 C   0  0  2  0  0  0
  -24.8726  -28.9333   20.1088 C   0  0  0  0  0  0
  -22.7497  -29.4596   22.4924 C   0  0  0  0  0  0
  -18.0288  -28.1394   22.8481 C   0  0  0  0  0  0
  -24.1485  -36.7289   23.2639 C   0  0  0  0  0  0
  -25.9701  -30.7740   21.3803 C   0  0  0  0  0  0
  -26.0426  -29.3988   20.7216 C   0  0  0  0  0  0
  -27.2172  -28.5822   20.7221 C   0  0  0  0  0  0
  -26.0271  -26.8852   19.4707 C   0  0  0  0  0  0
  -24.8692  -27.6843   19.4729 C   0  0  0  0  0  0
  -23.6431  -29.8177   20.1585 C   0  0  0  0  0  0
  -25.4116  -36.3075   24.0320 C   0  0  1  0  0  0
  -20.5889  -28.3695   23.1280 C   0  0  2  0  0  0
  -20.6776  -26.9416   22.5415 C   0  0  0  0  0  0
  -19.5750  -26.6382   21.5219 C   0  0  0  0  0  0
  -18.1930  -26.7933   22.1626 C   0  0  0  0  0  0
  -19.1542  -28.8863   23.2873 C   0  0  0  0  0  0
  -18.9467  -30.1468   23.8882 C   0  0  0  0  0  0
  -17.6465  -30.6592   24.0564 C   0  0  0  0  0  0
  -25.9058  -34.9446   23.5090 C   0  0  0  0  0  0
  -16.5354  -29.9090   23.6337 C   0  0  0  0  0  0
  -16.7275  -28.6514   23.0345 C   0  0  0  0  0  0
  -26.4496  -31.6597   25.0737 C   0  0  0  0  0  0
  -25.3718  -31.3759   26.1460 C   0  0  0  0  0  0
  -27.0350  -30.3014   24.6233 C   0  0  0  0  0  0
  -27.6039  -32.4348   25.7519 C   0  0  0  0  0  0
  -27.5574  -37.1807   24.8462 C   0  0  0  0  0  0
  -21.4204  -29.3040   22.3671 N   0  0  0  0  0  0
  -26.4290  -37.3776   23.9405 N   0  0  0  0  0  0
  -24.6940  -31.0543   22.0985 N   0  0  0  0  0  0
  -23.4209  -28.8130   23.3007 O   0  0  0  0  0  0
  -28.3124  -26.3855   20.2089 O   0  0  0  0  0  0
  -26.5630  -34.8917   22.4658 O   0  0  0  0  0  0
  -23.5447  -32.1382   23.7311 O   0  0  0  0  0  0
  -30.0767  -19.7890   18.6553 C   0  0  0  0  0  0
  -29.7581  -19.7831   20.0418 C   0  0  0  0  0  0
  -29.9730  -17.3155   18.5597 C   0  0  0  0  0  0
  -29.8725  -17.2126   19.9774 C   0  0  0  0  0  0
  -30.1300  -18.5745   17.9263 C   0  0  0  0  0  0
  -29.7003  -18.4730   20.6882 C   0  0  0  0  0  0
  -30.3694  -21.0943   17.9116 C   0  0  0  0  0  0
  -29.8439  -16.0774   17.6805 C   0  0  0  0  0  0
  -29.6179  -21.1845   20.8007 C   0  0  0  0  0  0
  -29.0734  -23.7850   20.5587 C   0  0  0  0  0  0
  -28.0785  -24.9191   19.9862 C   0  0  0  0  0  0
  -29.8074  -15.8678   20.6221 N   0  0  0  0  0  0
  -28.7821  -22.3171   20.1858 N   0  3  0  0  0  0
  -30.3789  -18.6355   16.2079 Cl  0  0  0  0  0  0
  -29.4309  -18.3932   22.3943 Cl  0  0  0  0  0  0
  -31.4813  -12.5680   19.1786 H   0  0  0  0  0  0
  -30.4038  -11.4718   19.9948 H   0  0  0  0  0  0
  -29.7875  -11.6101   17.5932 H   0  0  0  0  0  0
  -29.6770  -13.3363   17.6565 H   0  0  0  0  0  0
  -27.8719  -11.2701   18.9305 H   0  0  0  0  0  0
  -27.3866  -12.5062   17.8021 H   0  0  0  0  0  0
  -27.6370  -14.2434   19.4658 H   0  0  0  0  0  0
  -28.7219  -12.1644   21.4300 H   0  0  0  0  0  0
  -28.4235  -13.8473   21.7941 H   0  0  0  0  0  0
  -25.2752   -9.5700   22.4762 H   0  0  0  0  0  0
  -24.0028   -7.4625   22.7461 H   0  0  0  0  0  0
  -21.0844   -8.8752   19.8964 H   0  0  0  0  0  0
  -22.3661  -10.9677   19.6188 H   0  0  0  0  0  0
  -21.1984   -7.6142   23.9708 H   0  0  0  0  0  0
  -21.1501   -6.0518   25.9072 H   0  0  0  0  0  0
  -22.0599   -2.7611   23.2832 H   0  0  0  0  0  0
  -22.4096  -11.9876   22.4818 H   0  0  0  0  0  0
  -21.1126  -13.1268   22.2674 H   0  0  0  0  0  0
  -24.6527  -15.8424   20.4999 H   0  0  0  0  0  0
  -26.2673  -15.6258   20.0558 H   0  0  0  0  0  0
  -26.7193  -32.5417   23.1090 H   0  0  0  0  0  0
  -25.0078  -33.9714   25.0403 H   0  0  0  0  0  0
  -22.7205  -31.3020   21.4008 H   0  0  0  0  0  0
  -23.3746  -35.9624   23.3308 H   0  0  0  0  0  0
  -24.3569  -36.8912   22.2052 H   0  0  0  0  0  0
  -23.7242  -37.6491   23.6668 H   0  0  0  0  0  0
  -26.1085  -31.5367   20.6126 H   0  0  0  0  0  0
  -26.8478  -30.8211   22.0137 H   0  0  0  0  0  0
  -28.1097  -28.9299   21.2226 H   0  0  0  0  0  0
  -25.9535  -25.9387   18.9566 H   0  0  0  0  0  0
  -23.9752  -27.3265   18.9803 H   0  0  0  0  0  0
  -23.7685  -30.5964   19.4054 H   0  0  0  0  0  0
  -22.7615  -29.2523   19.8515 H   0  0  0  0  0  0
  -25.1300  -36.1919   25.0813 H   0  0  0  0  0  0
  -20.9978  -28.3274   24.1404 H   0  0  0  0  0  0
  -20.5682  -26.2305   23.3620 H   0  0  0  0  0  0
  -21.6643  -26.7446   22.1207 H   0  0  0  0  0  0
  -19.6912  -25.6291   21.1256 H   0  0  0  0  0  0
  -19.6693  -27.3187   20.6746 H   0  0  0  0  0  0
  -17.4203  -26.6682   21.4027 H   0  0  0  0  0  0
  -18.0328  -26.0083   22.9029 H   0  0  0  0  0  0
  -19.7943  -30.7290   24.2237 H   0  0  0  0  0  0
  -17.5021  -31.6271   24.5172 H   0  0  0  0  0  0
  -15.5354  -30.2987   23.7677 H   0  0  0  0  0  0
  -15.8678  -28.0839   22.7052 H   0  0  0  0  0  0
  -24.5871  -30.7135   25.7792 H   0  0  0  0  0  0
  -24.8938  -32.2939   26.4889 H   0  0  0  0  0  0
  -25.8025  -30.8927   27.0239 H   0  0  0  0  0  0
  -26.2949  -29.6767   24.1221 H   0  0  0  0  0  0
  -27.3991  -29.7274   25.4765 H   0  0  0  0  0  0
  -27.8840  -30.4290   23.9513 H   0  0  0  0  0  0
  -27.2626  -33.3641   26.2097 H   0  0  0  0  0  0
  -28.3855  -32.6928   25.0360 H   0  0  0  0  0  0
  -28.0708  -31.8482   26.5444 H   0  0  0  0  0  0
  -28.2594  -38.0100   24.7502 H   0  0  0  0  0  0
  -28.1065  -36.2630   24.6297 H   0  0  0  0  0  0
  -27.2293  -37.1467   25.8866 H   0  0  0  0  0  0
  -20.9391  -29.8777   21.6886 H   0  0  0  0  0  0
  -26.0161  -38.2848   24.1410 H   0  0  0  0  0  0
  -30.8143  -21.8544   18.5507 H   0  0  0  0  0  0
  -29.4640  -21.4910   17.4516 H   0  0  0  0  0  0
  -31.1047  -20.9519   17.1200 H   0  0  0  0  0  0
  -29.1268  -15.3892   18.1177 H   0  0  0  0  0  0
  -30.8063  -15.5820   17.5537 H   0  0  0  0  0  0
  -29.4373  -16.2944   16.6948 H   0  0  0  0  0  0
  -30.6329  -21.5607   20.9348 H   0  0  0  0  0  0
  -29.2445  -21.0212   21.8114 H   0  0  0  0  0  0
  -29.0845  -23.8632   21.6463 H   0  0  0  0  0  0
  -30.0862  -24.0200   20.2303 H   0  0  0  0  0  0
  -27.0982  -24.6665   20.3922 H   0  0  0  0  0  0
  -28.0040  -24.7798   18.9072 H   0  0  0  0  0  0
  -28.9456  -15.6840   21.1134 H   0  0  0  0  0  0
  -27.8182  -22.1124   20.4006 H   0  0  0  0  0  0
  -28.8773  -22.2331   19.1864 H   0  0  0  0  0  0
  1 25  1  0  0  0
  1 30  2  0  0  0
  1 82  1  0  0  0
  2  3  1  0  0  0
  2 25  1  0  0  0
  2 86  1  0  0  0
  2 87  1  0  0  0
  3  4  1  0  0  0
  3 88  1  0  0  0
  3 89  1  0  0  0
  4  5  1  0  0  0
  4 90  1  0  0  0
  4 91  1  0  0  0
  5  6  1  0  0  0
  5 26  1  0  0  0
  5 92  1  0  0  0
  6 25  1  0  0  0
  6 93  1  0  0  0
  6 94  1  0  0  0
  7  8  2  0  0  0
  7 26  1  0  0  0
  7 29  1  0  0  0
  8  9  1  0  0  0
  8 22  1  0  0  0
  9 10  1  0  0  0
  9 27  2  0  0  0
 10 11  2  0  0  0
 10 15  1  0  0  0
 11 12  1  0  0  0
 11 95  1  0  0  0
 12 13  2  0  0  0
 12 96  1  0  0  0
 13 14  1  0  0  0
 13 31  1  0  0  0
 14 15  2  0  0  0
 14 97  1  0  0  0
 15 98  1  0  0  0
 16 17  2  0  0  0
 16 21  1  0  0  0
 16 31  1  0  0  0
 17 18  1  0  0  0
 17 99  1  0  0  0
 18 19  2  0  0  0
 18100  1  0  0  0
 19 20  1  0  0  0
 19 24  1  0  0  0
 20 21  2  0  0  0
 20101  1  0  0  0
 21 23  1  0  0  0
 22 28  1  0  0  0
 22 32  2  0  0  0
 26 27  1  0  0  0
 28102  1  0  0  0
 28103  1  0  0  0
 29104  1  0  0  0
 29105  1  0  0  0
 33 34  1  0  0  0
 33 66  1  0  0  0
 33 70  2  0  0  0
 34 36  1  0  0  0
 34 59  1  0  0  0
 34106  1  0  0  0
 35 44  2  0  0  0
 35 45  1  0  0  0
 35 68  1  0  0  0
 36 56  1  0  0  0
 36107  1  0  0  0
 37 39  1  0  0  0
 37 47  1  0  0  0
 37 66  1  0  0  0
 37108  1  0  0  0
 38 43  2  0  0  0
 38 46  1  0  0  0
 38 47  1  0  0  0
 39 64  1  0  0  0
 39 67  2  0  0  0
 40 52  1  0  0  0
 40 53  2  0  0  0
 40 58  1  0  0  0
 41109  1  0  0  0
 41110  1  0  0  0
 41111  1  0  0  0
 41 48  1  0  0  0
 42 43  1  0  0  0
 42 66  1  0  0  0
 42112  1  0  0  0
 42113  1  0  0  0
 43 44  1  0  0  0
 44114  1  0  0  0
 45 46  2  0  0  0
 45115  1  0  0  0
 46116  1  0  0  0
 47117  1  0  0  0
 47118  1  0  0  0
 48 56  1  0  0  0
 48 65  1  0  0  0
 48119  1  0  0  0
 49 50  1  0  0  0
 49 53  1  0  0  0
 49 64  1  0  0  0
 49120  1  0  0  0
 50 51  1  0  0  0
 50121  1  0  0  0
 50122  1  0  0  0
 51 52  1  0  0  0
 51123  1  0  0  0
 51124  1  0  0  0
 52125  1  0  0  0
 52126  1  0  0  0
 53 54  1  0  0  0
 54 55  2  0  0  0
 54127  1  0  0  0
 55 57  1  0  0  0
 55128  1  0  0  0
 56 69  2  0  0  0
 57 58  2  0  0  0
 57129  1  0  0  0
 58130  1  0  0  0
 59 60  1  0  0  0
 59 61  1  0  0  0
 59 62  1  0  0  0
 60131  1  0  0  0
 60132  1  0  0  0
 60133  1  0  0  0
 61134  1  0  0  0
 61135  1  0  0  0
 61136  1  0  0  0
 62137  1  0  0  0
 62138  1  0  0  0
 62139  1  0  0  0
 63 65  1  0  0  0
 63140  1  0  0  0
 63141  1  0  0  0
 63142  1  0  0  0
 64143  1  0  0  0
 65144  1  0  0  0
 68 81  1  0  0  0
 71 72  2  0  0  0
 71 75  1  0  0  0
 71 77  1  0  0  0
 72 76  1  0  0  0
 72 79  1  0  0  0
 73 74  1  0  0  0
 73 75  2  0  0  0
 73 78  1  0  0  0
 74 76  2  0  0  0
 74 82  1  0  0  0
 75 84  1  0  0  0
 76 85  1  0  0  0
 77145  1  0  0  0
 77146  1  0  0  0
 77147  1  0  0  0
 78148  1  0  0  0
 78149  1  0  0  0
 78150  1  0  0  0
 79 83  1  0  0  0
 79151  1  0  0  0
 79152  1  0  0  0
 80 81  1  0  0  0
 80 83  1  0  0  0
 80153  1  0  0  0
 80154  1  0  0  0
 81155  1  0  0  0
 81156  1  0  0  0
 82157  1  0  0  0
 83158  1  0  0  0
 83159  1  0  0  0
M  CHG  1  83   1
M  ISO  4   1 100  68 101  81 101  82 100
M  END
> <chiral flag>
0

> <version>
0

> <s_m_source_file>
/data/baiqing/PycharmProjects/Reinvent-master-3.2/result/LINK_invent/BTK/process_docking_weight1_custom_sum_contain_oxygen_bond_distance_aromatic_linkinvent_7_9_3/rearranged_h_0028.sdf

> <i_m_source_file_index>
28

> <r_mmod_Potential_Energy-OPLS-2005>
-19.1044902801514

> <r_mmod_Stretch_Energy-OPLS-2005>
122.310211181641

> <r_mmod_Bend_Energy-OPLS-2005>
147.899429321289

> <r_mmod_Torsional_Energy-OPLS-2005>
246.227783203125

> <r_mmod_Improper_Torsional_Energy-OPLS-2005>
5.89397096633911

> <r_mmod_Van_der_Waal_Energy-OPLS-2005>
157.936325073242

> <r_mmod_Electrostatic_Energy-OPLS-2005>
-308.556365966797

> <r_mmod_Solvation_Energy-OPLS-2005>
-475.404174804688

> <b_mmod_Minimization_Converged-OPLS-2005>
0

> <r_mmod_RMS_Derivative-OPLS-2005>
1.43371903896332

$$$$
28
                    3D
 Structure written by MMmdl.
168176  0  0  1  0            999 V2000
  -30.7093  -14.4782   20.6619 C   0  0  0  0  0  0
  -30.4099  -12.3632   19.3876 C   0  0  0  0  0  0
  -29.4832  -12.5856   18.1816 C   0  0  0  0  0  0
  -28.0055  -12.4300   18.5957 C   0  0  0  0  0  0
  -27.6584  -13.2289   19.8810 C   0  0  2  0  0  0
  -28.6971  -12.9903   20.9910 C   0  0  0  0  0  0
  -25.2596  -13.8256   20.5701 C   0  0  0  0  0  0
  -24.1843  -13.0444   20.9143 C   0  0  0  0  0  0
  -24.6434  -11.6953   20.8732 C   0  0  0  0  0  0
  -23.9113  -10.4299   21.0350 C   0  0  0  0  0  0
  -24.3641   -9.4251   21.9162 C   0  0  0  0  0  0
  -23.6310   -8.2303   22.0758 C   0  0  0  0  0  0
  -22.4317   -8.0295   21.3561 C   0  0  0  0  0  0
  -21.9919   -9.0271   20.4664 C   0  0  0  0  0  0
  -22.7250  -10.2138   20.3040 C   0  0  0  0  0  0
  -21.6850   -6.0757   22.5278 C   0  0  0  0  0  0
  -21.4018   -6.5653   23.8212 C   0  0  0  0  0  0
  -21.3684   -5.6797   24.9168 C   0  0  0  0  0  0
  -21.6023   -4.3060   24.7210 C   0  0  0  0  0  0
  -21.8847   -3.8165   23.4331 C   0  0  0  0  0  0
  -21.9200   -4.6986   22.3390 C   0  0  0  0  0  0
  -22.7886  -13.5267   21.1882 C   0  0  0  0  0  0
  -22.1680   -4.2158   21.0973 F   0  0  0  0  0  0
  -21.5612   -3.4544   25.7730 F   0  0  0  0  0  0
  -30.0173  -13.3265   20.4346 N   0  0  0  0  0  0
  -26.3040  -12.9454   20.3391 N   0  0  0  0  0  0
  -25.9374  -11.6606   20.5749 N   0  0  0  0  0  0
  -22.0477  -12.8206   22.0326 N   0  0  0  0  0  0
  -25.4241  -15.1963   20.4226 N   0  0  0  0  0  0
  -31.8398  -14.6516   20.1882 O   0  0  0  0  0  0
  -21.6677   -6.8899   21.4253 O   0  0  0  0  0  0
  -22.3573  -14.5574   20.6703 O   0  0  0  0  0  0
  -24.6226  -31.8697   23.2136 C   0  0  0  0  0  0
  -25.9150  -32.4783   23.8412 C   0  0  1  0  0  0
  -27.1233  -27.3580   20.0918 C   0  0  0  0  0  0
  -25.5985  -33.8588   24.2308 N   0  0  0  0  0  0
  -23.4029  -30.5054   21.5590 C   0  0  2  0  0  0
  -24.8333  -29.0170   20.0685 C   0  0  0  0  0  0
  -22.7456  -29.4572   22.4928 C   0  0  0  0  0  0
  -18.0309  -28.1242   22.8743 C   0  0  0  0  0  0
  -24.1519  -36.7280   23.2608 C   0  0  0  0  0  0
  -25.9495  -30.8266   21.3784 C   0  0  0  0  0  0
  -26.0024  -29.4663   20.6983 C   0  0  0  0  0  0
  -27.1497  -28.6327   20.7276 C   0  0  0  0  0  0
  -25.9817  -27.0191   19.3507 C   0  0  0  0  0  0
  -24.8219  -27.8044   19.3719 C   0  0  0  0  0  0
  -23.6014  -29.8813   20.1609 C   0  0  0  0  0  0
  -25.4158  -36.3042   24.0245 C   0  0  1  0  0  0
  -20.5947  -28.3448   23.1401 C   0  0  2  0  0  0
  -20.6929  -26.9223   22.5214 C   0  0  0  0  0  0
  -19.5506  -26.5698   21.5393 C   0  0  0  0  0  0
  -18.1726  -26.7755   22.1885 C   0  0  0  0  0  0
  -19.1619  -28.8659   23.3026 C   0  0  0  0  0  0
  -18.9720  -30.1437   23.8752 C   0  0  0  0  0  0
  -17.6827  -30.6596   24.0544 C   0  0  0  0  0  0
  -25.9104  -34.9421   23.5040 C   0  0  0  0  0  0
  -16.5618  -29.9107   23.6710 C   0  0  0  0  0  0
  -16.7376  -28.6512   23.0800 C   0  0  0  0  0  0
  -26.4544  -31.6532   25.0757 C   0  0  0  0  0  0
  -25.3720  -31.3644   26.1426 C   0  0  0  0  0  0
  -27.0320  -30.2912   24.6185 C   0  0  0  0  0  0
  -27.6045  -32.4278   25.7547 C   0  0  0  0  0  0
  -27.5574  -37.1799   24.8451 C   0  0  0  0  0  0
  -21.4155  -29.3096   22.4038 N   0  0  0  0  0  0
  -26.4332  -37.3721   23.9326 N   0  0  0  0  0  0
  -24.6775  -31.0793   22.1017 N   0  0  0  0  0  0
  -23.4297  -28.7856   23.2663 O   0  0  0  0  0  0
  -28.1158  -26.4018   20.1664 O   0  0  0  0  0  0
  -26.5642  -34.8890   22.4587 O   0  0  0  0  0  0
  -23.5396  -32.1391   23.7624 O   0  0  0  0  0  0
  -27.6321  -18.2083   21.8503 C   0  0  0  0  0  0
  -27.9306  -19.0773   20.7752 C   0  0  0  0  0  0
  -28.3221  -16.9806   22.0304 C   0  0  0  0  0  0
  -28.9652  -18.7022   19.8783 C   0  0  0  0  0  0
  -29.3636  -16.5925   21.1385 C   0  0  0  0  0  0
  -29.6626  -17.4657   20.0408 C   0  0  0  0  0  0
  -27.8621  -16.0719   23.1578 C   0  0  0  0  0  0
  -29.3216  -19.6027   18.6968 C   0  0  0  0  0  0
  -26.7935  -23.6058   22.6708 C   0  0  0  0  0  0
  -25.3832  -24.4397   20.8619 C   0  0  0  0  0  0
  -27.0449  -20.3291   20.5357 C   0  0  0  0  0  0
  -27.2428  -22.8547   20.2413 C   0  0  0  0  0  0
  -27.8882  -25.3327   21.1638 C   0  0  0  0  0  0
  -26.8595  -24.0846   21.1730 C   0  0  0  0  0  0
  -30.1247  -15.3982   21.4654 N   0  0  0  0  0  0
  -27.6257  -21.6183   20.9945 N   0  3  0  0  0  0
  -30.8837  -17.0872   18.8657 Cl  0  0  0  0  0  0
  -31.4596  -12.4621   19.0967 H   0  0  0  0  0  0
  -30.3015  -11.3487   19.7574 H   0  0  0  0  0  0
  -29.7325  -11.8983   17.3714 H   0  0  0  0  0  0
  -29.6517  -13.5931   17.7859 H   0  0  0  0  0  0
  -27.7992  -11.3696   18.7289 H   0  0  0  0  0  0
  -27.3644  -12.7674   17.7751 H   0  0  0  0  0  0
  -27.7041  -14.2867   19.6187 H   0  0  0  0  0  0
  -28.7087  -11.9517   21.3194 H   0  0  0  0  0  0
  -28.4743  -13.5768   21.8767 H   0  0  0  0  0  0
  -25.2785   -9.5735   22.4731 H   0  0  0  0  0  0
  -24.0024   -7.4710   22.7479 H   0  0  0  0  0  0
  -21.0858   -8.8808   19.8954 H   0  0  0  0  0  0
  -22.3730  -10.9697   19.6150 H   0  0  0  0  0  0
  -21.2027   -7.6157   23.9716 H   0  0  0  0  0  0
  -21.1469   -6.0521   25.9068 H   0  0  0  0  0  0
  -22.0595   -2.7617   23.2830 H   0  0  0  0  0  0
  -22.4062  -11.9864   22.4759 H   0  0  0  0  0  0
  -21.1085  -13.1244   22.2509 H   0  0  0  0  0  0
  -24.6548  -15.8433   20.5646 H   0  0  0  0  0  0
  -26.2941  -15.6612   20.1800 H   0  0  0  0  0  0
  -26.7295  -32.5492   23.1221 H   0  0  0  0  0  0
  -25.0031  -33.9749   25.0401 H   0  0  0  0  0  0
  -22.6894  -31.3213   21.4556 H   0  0  0  0  0  0
  -23.3739  -35.9653   23.3296 H   0  0  0  0  0  0
  -24.3575  -36.8935   22.2024 H   0  0  0  0  0  0
  -23.7418  -37.6513   23.6691 H   0  0  0  0  0  0
  -26.1003  -31.6327   20.6575 H   0  0  0  0  0  0
  -26.8260  -30.8402   22.0106 H   0  0  0  0  0  0
  -28.0366  -28.9553   21.2434 H   0  0  0  0  0  0
  -25.9590  -26.1021   18.7878 H   0  0  0  0  0  0
  -23.9369  -27.4951   18.8257 H   0  0  0  0  0  0
  -23.6758  -30.6810   19.4230 H   0  0  0  0  0  0
  -22.7248  -29.2931   19.8848 H   0  0  0  0  0  0
  -25.1387  -36.1776   25.0727 H   0  0  0  0  0  0
  -20.9988  -28.2909   24.1511 H   0  0  0  0  0  0
  -20.6196  -26.2067   23.3392 H   0  0  0  0  0  0
  -21.6851  -26.7529   22.0920 H   0  0  0  0  0  0
  -19.6523  -25.5388   21.1755 H   0  0  0  0  0  0
  -19.6041  -27.2131   20.6572 H   0  0  0  0  0  0
  -17.3792  -26.6568   21.4473 H   0  0  0  0  0  0
  -17.9781  -25.9939   22.9282 H   0  0  0  0  0  0
  -19.8222  -30.7357   24.1776 H   0  0  0  0  0  0
  -17.5504  -31.6337   24.5050 H   0  0  0  0  0  0
  -15.5714  -30.3183   23.8237 H   0  0  0  0  0  0
  -15.8552  -28.0918   22.7736 H   0  0  0  0  0  0
  -24.5893  -30.7055   25.7672 H   0  0  0  0  0  0
  -24.8952  -32.2824   26.4845 H   0  0  0  0  0  0
  -25.7985  -30.8749   27.0187 H   0  0  0  0  0  0
  -26.2895  -29.6724   24.1155 H   0  0  0  0  0  0
  -27.3929  -29.7070   25.4664 H   0  0  0  0  0  0
  -27.8805  -30.4100   23.9436 H   0  0  0  0  0  0
  -27.2584  -33.3541   26.2105 H   0  0  0  0  0  0
  -28.3860  -32.6919   25.0416 H   0  0  0  0  0  0
  -28.0707  -31.8441   26.5491 H   0  0  0  0  0  0
  -28.2589  -38.0098   24.7466 H   0  0  0  0  0  0
  -28.1083  -36.2626   24.6325 H   0  0  0  0  0  0
  -27.2248  -37.1480   25.8847 H   0  0  0  0  0  0
  -20.9205  -29.9464   21.7933 H   0  0  0  0  0  0
  -26.0146  -38.2744   24.1341 H   0  0  0  0  0  0
  -26.8202  -18.4753   22.5132 H   0  0  0  0  0  0
  -27.1536  -16.5620   23.8324 H   0  0  0  0  0  0
  -28.7024  -15.6959   23.7470 H   0  0  0  0  0  0
  -27.3325  -15.2328   22.7048 H   0  0  0  0  0  0
  -28.9974  -20.6341   18.8150 H   0  0  0  0  0  0
  -28.8764  -19.2200   17.7804 H   0  0  0  0  0  0
  -30.3975  -19.6507   18.5580 H   0  0  0  0  0  0
  -26.1043  -22.7725   22.8847 H   0  0  0  0  0  0
  -26.4356  -24.4028   23.3246 H   0  0  0  0  0  0
  -27.7583  -23.3498   23.0963 H   0  0  0  0  0  0
  -24.7027  -23.7017   21.2839 H   0  0  0  0  0  0
  -25.1299  -24.4460   19.7888 H   0  0  0  0  0  0
  -25.0949  -25.3971   21.2913 H   0  0  0  0  0  0
  -26.0825  -20.1937   21.0471 H   0  0  0  0  0  0
  -26.7955  -20.3456   19.4754 H   0  0  0  0  0  0
  -28.0205  -23.0931   19.5023 H   0  0  0  0  0  0
  -26.3791  -22.5774   19.6402 H   0  0  0  0  0  0
  -28.8773  -24.8849   21.3215 H   0  0  0  0  0  0
  -27.7132  -25.8719   22.0905 H   0  0  0  0  0  0
  -30.6963  -15.5628   22.2784 H   0  0  0  0  0  0
  -28.6244  -21.5351   21.0669 H   0  0  0  0  0  0
  -27.2583  -21.7492   21.9124 H   0  0  0  0  0  0
  1 25  1  0  0  0
  1 30  2  0  0  0
  1 85  1  0  0  0
  2  3  1  0  0  0
  2 25  1  0  0  0
  2 88  1  0  0  0
  2 89  1  0  0  0
  3  4  1  0  0  0
  3 90  1  0  0  0
  3 91  1  0  0  0
  4  5  1  0  0  0
  4 92  1  0  0  0
  4 93  1  0  0  0
  5  6  1  0  0  0
  5 26  1  0  0  0
  5 94  1  0  0  0
  6 25  1  0  0  0
  6 95  1  0  0  0
  6 96  1  0  0  0
  7  8  2  0  0  0
  7 26  1  0  0  0
  7 29  1  0  0  0
  8  9  1  0  0  0
  8 22  1  0  0  0
  9 10  1  0  0  0
  9 27  2  0  0  0
 10 11  2  0  0  0
 10 15  1  0  0  0
 11 12  1  0  0  0
 11 97  1  0  0  0
 12 13  2  0  0  0
 12 98  1  0  0  0
 13 14  1  0  0  0
 13 31  1  0  0  0
 14 15  2  0  0  0
 14 99  1  0  0  0
 15100  1  0  0  0
 16 17  2  0  0  0
 16 21  1  0  0  0
 16 31  1  0  0  0
 17 18  1  0  0  0
 17101  1  0  0  0
 18 19  2  0  0  0
 18102  1  0  0  0
 19 20  1  0  0  0
 19 24  1  0  0  0
 20 21  2  0  0  0
 20103  1  0  0  0
 21 23  1  0  0  0
 22 28  1  0  0  0
 22 32  2  0  0  0
 26 27  1  0  0  0
 28104  1  0  0  0
 28105  1  0  0  0
 29106  1  0  0  0
 29107  1  0  0  0
 33 34  1  0  0  0
 33 66  1  0  0  0
 33 70  2  0  0  0
 34 36  1  0  0  0
 34 59  1  0  0  0
 34108  1  0  0  0
 35 44  2  0  0  0
 35 45  1  0  0  0
 35 68  1  0  0  0
 36 56  1  0  0  0
 36109  1  0  0  0
 37 39  1  0  0  0
 37 47  1  0  0  0
 37 66  1  0  0  0
 37110  1  0  0  0
 38 43  2  0  0  0
 38 46  1  0  0  0
 38 47  1  0  0  0
 39 64  1  0  0  0
 39 67  2  0  0  0
 40 52  1  0  0  0
 40 53  2  0  0  0
 40 58  1  0  0  0
 41111  1  0  0  0
 41112  1  0  0  0
 41113  1  0  0  0
 41 48  1  0  0  0
 42 43  1  0  0  0
 42 66  1  0  0  0
 42114  1  0  0  0
 42115  1  0  0  0
 43 44  1  0  0  0
 44116  1  0  0  0
 45 46  2  0  0  0
 45117  1  0  0  0
 46118  1  0  0  0
 47119  1  0  0  0
 47120  1  0  0  0
 48 56  1  0  0  0
 48 65  1  0  0  0
 48121  1  0  0  0
 49 50  1  0  0  0
 49 53  1  0  0  0
 49 64  1  0  0  0
 49122  1  0  0  0
 50 51  1  0  0  0
 50123  1  0  0  0
 50124  1  0  0  0
 51 52  1  0  0  0
 51125  1  0  0  0
 51126  1  0  0  0
 52127  1  0  0  0
 52128  1  0  0  0
 53 54  1  0  0  0
 54 55  2  0  0  0
 54129  1  0  0  0
 55 57  1  0  0  0
 55130  1  0  0  0
 56 69  2  0  0  0
 57 58  2  0  0  0
 57131  1  0  0  0
 58132  1  0  0  0
 59 60  1  0  0  0
 59 61  1  0  0  0
 59 62  1  0  0  0
 60133  1  0  0  0
 60134  1  0  0  0
 60135  1  0  0  0
 61136  1  0  0  0
 61137  1  0  0  0
 61138  1  0  0  0
 62139  1  0  0  0
 62140  1  0  0  0
 62141  1  0  0  0
 63 65  1  0  0  0
 63142  1  0  0  0
 63143  1  0  0  0
 63144  1  0  0  0
 64145  1  0  0  0
 65146  1  0  0  0
 68 83  1  0  0  0
 71 72  2  0  0  0
 71 73  1  0  0  0
 71147  1  0  0  0
 72 74  1  0  0  0
 72 81  1  0  0  0
 73 75  2  0  0  0
 73 77  1  0  0  0
 74 76  2  0  0  0
 74 78  1  0  0  0
 75 76  1  0  0  0
 75 85  1  0  0  0
 76 87  1  0  0  0
 77148  1  0  0  0
 77149  1  0  0  0
 77150  1  0  0  0
 78151  1  0  0  0
 78152  1  0  0  0
 78153  1  0  0  0
 79154  1  0  0  0
 79155  1  0  0  0
 79156  1  0  0  0
 79 84  1  0  0  0
 80 84  1  0  0  0
 80157  1  0  0  0
 80158  1  0  0  0
 80159  1  0  0  0
 81 86  1  0  0  0
 81160  1  0  0  0
 81161  1  0  0  0
 82 84  1  0  0  0
 82 86  1  0  0  0
 82162  1  0  0  0
 82163  1  0  0  0
 83 84  1  0  0  0
 83164  1  0  0  0
 83165  1  0  0  0
 85166  1  0  0  0
 86167  1  0  0  0
 86168  1  0  0  0
M  CHG  1  86   1
M  ISO  4   1 100  68 101  83 101  85 100
M  END
> <chiral flag>
0

> <version>
0

> <s_m_source_file>
/data/baiqing/PycharmProjects/Reinvent-master-3.2/result/LINK_invent/BTK/process_docking_weight1_custom_sum_contain_oxygen_bond_distance_aromatic_linkinvent_7_9_3/rearranged_h_0028.sdf

> <i_m_source_file_index>
29

> <r_mmod_Potential_Energy-OPLS-2005>
-2.81192302703857

> <r_mmod_Stretch_Energy-OPLS-2005>
71.8565521240234

> <r_mmod_Bend_Energy-OPLS-2005>
177.487045288086

> <r_mmod_Torsional_Energy-OPLS-2005>
341.559631347656

> <r_mmod_Improper_Torsional_Energy-OPLS-2005>
5.3068699836731

> <r_mmod_Van_der_Waal_Energy-OPLS-2005>
163.926086425781

> <r_mmod_Electrostatic_Energy-OPLS-2005>
-349.864410400391

> <r_mmod_Solvation_Energy-OPLS-2005>
-464.711547851562

> <b_mmod_Minimization_Converged-OPLS-2005>
0

> <r_mmod_RMS_Derivative-OPLS-2005>
17.1408576965332

$$$$
29
                    3D
 Structure written by MMmdl.
168176  0  0  1  0            999 V2000
  -30.6543  -14.5445   20.3183 C   0  0  0  0  0  0
  -30.3967  -12.2895   19.4147 C   0  0  0  0  0  0
  -29.4509  -12.3553   18.1981 C   0  0  0  0  0  0
  -27.9787  -12.2836   18.6415 C   0  0  0  0  0  0
  -27.6342  -13.2005   19.8449 C   0  0  2  0  0  0
  -28.6986  -13.1112   20.9549 C   0  0  0  0  0  0
  -25.2492  -13.8195   20.5761 C   0  0  0  0  0  0
  -24.1759  -13.0476   20.9269 C   0  0  0  0  0  0
  -24.6308  -11.6948   20.8857 C   0  0  0  0  0  0
  -23.8987  -10.4346   21.0478 C   0  0  0  0  0  0
  -24.3570   -9.4243   21.9218 C   0  0  0  0  0  0
  -23.6278   -8.2254   22.0765 C   0  0  0  0  0  0
  -22.4263   -8.0296   21.3543 C   0  0  0  0  0  0
  -21.9873   -9.0270   20.4645 C   0  0  0  0  0  0
  -22.7192  -10.2166   20.3089 C   0  0  0  0  0  0
  -21.6838   -6.0738   22.5273 C   0  0  0  0  0  0
  -21.4037   -6.5650   23.8215 C   0  0  0  0  0  0
  -21.3649   -5.6792   24.9167 C   0  0  0  0  0  0
  -21.6006   -4.3054   24.7211 C   0  0  0  0  0  0
  -21.8816   -3.8154   23.4347 C   0  0  0  0  0  0
  -21.9216   -4.6969   22.3402 C   0  0  0  0  0  0
  -22.7792  -13.5307   21.1876 C   0  0  0  0  0  0
  -22.1671   -4.2158   21.0974 F   0  0  0  0  0  0
  -21.5604   -3.4546   25.7725 F   0  0  0  0  0  0
  -30.0004  -13.3604   20.3370 N   0  0  0  0  0  0
  -26.2884  -12.9330   20.3412 N   0  0  0  0  0  0
  -25.9217  -11.6509   20.5918 N   0  0  0  0  0  0
  -22.0378  -12.8330   22.0406 N   0  0  0  0  0  0
  -25.4210  -15.1905   20.4156 N   0  0  0  0  0  0
  -31.8871  -14.6044   20.3721 O   0  0  0  0  0  0
  -21.6642   -6.8885   21.4236 O   0  0  0  0  0  0
  -22.3517  -14.5618   20.6711 O   0  0  0  0  0  0
  -24.6191  -31.8671   23.2109 C   0  0  0  0  0  0
  -25.9104  -32.4786   23.8396 C   0  0  1  0  0  0
  -27.2207  -27.4430   20.1140 C   0  0  0  0  0  0
  -25.5974  -33.8597   24.2337 N   0  0  0  0  0  0
  -23.3972  -30.4966   21.5536 C   0  0  2  0  0  0
  -24.8371  -28.9582   20.1128 C   0  0  0  0  0  0
  -22.7371  -29.4700   22.5010 C   0  0  0  0  0  0
  -18.0276  -28.1362   22.8528 C   0  0  0  0  0  0
  -24.1475  -36.7312   23.2638 C   0  0  0  0  0  0
  -25.9218  -30.8463   21.3471 C   0  0  0  0  0  0
  -25.9976  -29.4787   20.7005 C   0  0  0  0  0  0
  -27.1939  -28.7360   20.6873 C   0  0  0  0  0  0
  -26.0540  -26.9389   19.5085 C   0  0  0  0  0  0
  -24.8617  -27.6879   19.5098 C   0  0  0  0  0  0
  -23.6005  -29.8267   20.1668 C   0  0  0  0  0  0
  -25.4084  -36.3092   24.0348 C   0  0  1  0  0  0
  -20.5854  -28.3663   23.1333 C   0  0  2  0  0  0
  -20.6789  -26.9393   22.5447 C   0  0  0  0  0  0
  -19.5760  -26.6386   21.5252 C   0  0  0  0  0  0
  -18.1936  -26.7918   22.1644 C   0  0  0  0  0  0
  -19.1522  -28.8824   23.2926 C   0  0  0  0  0  0
  -18.9461  -30.1454   23.8923 C   0  0  0  0  0  0
  -17.6467  -30.6587   24.0573 C   0  0  0  0  0  0
  -25.9042  -34.9469   23.5105 C   0  0  0  0  0  0
  -16.5355  -29.9097   23.6318 C   0  0  0  0  0  0
  -16.7274  -28.6497   23.0345 C   0  0  0  0  0  0
  -26.4535  -31.6553   25.0707 C   0  0  0  0  0  0
  -25.3818  -31.3671   26.1457 C   0  0  0  0  0  0
  -27.0340  -30.2996   24.6059 C   0  0  0  0  0  0
  -27.6116  -32.4248   25.7459 C   0  0  0  0  0  0
  -27.5549  -37.1804   24.8468 C   0  0  0  0  0  0
  -21.4098  -29.3029   22.3720 N   0  0  0  0  0  0
  -26.4257  -37.3771   23.9427 N   0  0  0  0  0  0
  -24.6664  -31.0820   22.0976 N   0  0  0  0  0  0
  -23.4135  -28.8260   23.3058 O   0  0  0  0  0  0
  -28.3717  -26.6893   20.1059 O   0  0  0  0  0  0
  -26.5589  -34.8916   22.4654 O   0  0  0  0  0  0
  -23.5416  -32.1412   23.7561 O   0  0  0  0  0  0
  -28.2633  -18.7554   19.1779 C   0  0  0  0  0  0
  -28.9648  -19.5561   20.0997 C   0  0  0  0  0  0
  -29.6635  -18.9059   21.1512 C   0  0  0  0  0  0
  -29.8091  -17.4813   21.1453 C   0  0  0  0  0  0
  -29.3888  -16.7275   20.0029 C   0  0  0  0  0  0
  -28.4631  -17.3645   19.1258 C   0  0  0  0  0  0
  -30.3011  -19.7277   22.2737 C   0  0  0  0  0  0
  -30.4219  -16.8035   22.3668 C   0  0  0  0  0  0
  -28.5078  -26.5992   22.5962 C   0  0  0  0  0  0
  -30.6882  -15.6525   18.2443 C   0  0  0  0  0  0
  -29.0674  -21.0680   19.8133 C   0  0  0  0  0  0
  -27.8694  -24.4788   21.2315 C   0  0  0  0  0  0
  -28.5667  -23.4190   20.3382 C   0  0  0  0  0  0
  -28.6181  -25.8489   21.2518 C   0  0  1  0  0  0
  -30.0185  -15.4878   19.5582 N   0  0  0  0  0  0
  -28.2177  -21.9897   20.6063 N   0  3  0  0  0  0
  -27.5782  -16.4927   17.9167 Cl  0  0  0  0  0  0
  -31.4332  -12.3903   19.0818 H   0  0  0  0  0  0
  -30.3095  -11.3196   19.9123 H   0  0  0  0  0  0
  -29.6565  -11.5122   17.5345 H   0  0  0  0  0  0
  -29.6137  -13.2448   17.5967 H   0  0  0  0  0  0
  -27.7976  -11.2472   18.9221 H   0  0  0  0  0  0
  -27.3043  -12.4922   17.8105 H   0  0  0  0  0  0
  -27.6330  -14.2197   19.4653 H   0  0  0  0  0  0
  -28.6886  -12.1242   21.4204 H   0  0  0  0  0  0
  -28.4954  -13.8437   21.7374 H   0  0  0  0  0  0
  -25.2688   -9.5750   22.4832 H   0  0  0  0  0  0
  -23.9979   -7.4653   22.7492 H   0  0  0  0  0  0
  -21.0793   -8.8816   19.8956 H   0  0  0  0  0  0
  -22.3626  -10.9741   19.6249 H   0  0  0  0  0  0
  -21.2034   -7.6160   23.9739 H   0  0  0  0  0  0
  -21.1451   -6.0505   25.9067 H   0  0  0  0  0  0
  -22.0595   -2.7624   23.2846 H   0  0  0  0  0  0
  -22.3954  -11.9990   22.4848 H   0  0  0  0  0  0
  -21.1009  -13.1439   22.2571 H   0  0  0  0  0  0
  -24.6513  -15.8461   20.4975 H   0  0  0  0  0  0
  -26.2549  -15.6110   20.0289 H   0  0  0  0  0  0
  -26.7132  -32.5508   23.1130 H   0  0  0  0  0  0
  -25.0165  -33.9741   25.0512 H   0  0  0  0  0  0
  -22.6864  -31.3147   21.4181 H   0  0  0  0  0  0
  -23.3701  -35.9668   23.3314 H   0  0  0  0  0  0
  -24.3592  -36.8934   22.2051 H   0  0  0  0  0  0
  -23.7259  -37.6544   23.6619 H   0  0  0  0  0  0
  -26.0164  -31.5988   20.5645 H   0  0  0  0  0  0
  -26.8166  -30.9104   21.9553 H   0  0  0  0  0  0
  -28.0926  -29.1505   21.1237 H   0  0  0  0  0  0
  -26.0646  -25.9610   19.0464 H   0  0  0  0  0  0
  -23.9697  -27.2774   19.0530 H   0  0  0  0  0  0
  -23.7009  -30.5994   19.4015 H   0  0  0  0  0  0
  -22.7212  -29.2473   19.8807 H   0  0  0  0  0  0
  -25.1236  -36.1910   25.0833 H   0  0  0  0  0  0
  -20.9990  -28.3243   24.1421 H   0  0  0  0  0  0
  -20.5690  -26.2291   23.3642 H   0  0  0  0  0  0
  -21.6677  -26.7439   22.1248 H   0  0  0  0  0  0
  -19.6924  -25.6295   21.1286 H   0  0  0  0  0  0
  -19.6698  -27.3190   20.6771 H   0  0  0  0  0  0
  -17.4222  -26.6705   21.4011 H   0  0  0  0  0  0
  -18.0298  -26.0011   22.8986 H   0  0  0  0  0  0
  -19.7939  -30.7278   24.2286 H   0  0  0  0  0  0
  -17.5013  -31.6272   24.5157 H   0  0  0  0  0  0
  -15.5355  -30.3004   23.7638 H   0  0  0  0  0  0
  -15.8675  -28.0856   22.7024 H   0  0  0  0  0  0
  -24.6007  -30.6970   25.7826 H   0  0  0  0  0  0
  -24.8994  -32.2842   26.4841 H   0  0  0  0  0  0
  -25.8241  -30.8907   27.0216 H   0  0  0  0  0  0
  -26.2883  -29.6711   24.1176 H   0  0  0  0  0  0
  -27.4195  -29.7262   25.4495 H   0  0  0  0  0  0
  -27.8637  -30.4320   23.9124 H   0  0  0  0  0  0
  -27.2732  -33.3539   26.2035 H   0  0  0  0  0  0
  -28.3910  -32.6821   25.0276 H   0  0  0  0  0  0
  -28.0741  -31.8345   26.5375 H   0  0  0  0  0  0
  -28.2593  -38.0075   24.7478 H   0  0  0  0  0  0
  -28.1034  -36.2627   24.6295 H   0  0  0  0  0  0
  -27.2314  -37.1464   25.8890 H   0  0  0  0  0  0
  -20.9259  -29.8712   21.6916 H   0  0  0  0  0  0
  -26.0150  -38.2846   24.1416 H   0  0  0  0  0  0
  -27.6453  -19.2135   18.4196 H   0  0  0  0  0  0
  -30.5804  -20.7350   21.9715 H   0  0  0  0  0  0
  -31.2181  -19.2734   22.6545 H   0  0  0  0  0  0
  -29.5989  -19.8182   23.1041 H   0  0  0  0  0  0
  -30.1667  -17.3333   23.2828 H   0  0  0  0  0  0
  -31.5066  -16.7350   22.2900 H   0  0  0  0  0  0
  -29.9987  -15.8127   22.5191 H   0  0  0  0  0  0
  -28.8028  -25.9658   23.4339 H   0  0  0  0  0  0
  -27.5041  -26.9681   22.8036 H   0  0  0  0  0  0
  -29.1867  -27.4506   22.6048 H   0  0  0  0  0  0
  -30.0352  -15.9545   17.4299 H   0  0  0  0  0  0
  -31.1927  -14.7473   17.8902 H   0  0  0  0  0  0
  -31.4590  -16.4181   18.3259 H   0  0  0  0  0  0
  -28.8512  -21.2445   18.7604 H   0  0  0  0  0  0
  -30.1148  -21.3539   19.9180 H   0  0  0  0  0  0
  -27.8337  -24.0956   22.2518 H   0  0  0  0  0  0
  -26.8255  -24.6056   20.9377 H   0  0  0  0  0  0
  -29.6430  -23.5264   20.4688 H   0  0  0  0  0  0
  -28.3798  -23.6509   19.2897 H   0  0  0  0  0  0
  -29.6817  -25.6296   21.1778 H   0  0  0  0  0  0
  -27.2517  -21.8166   20.3731 H   0  0  0  0  0  0
  -28.3422  -21.7809   21.5820 H   0  0  0  0  0  0
  1 25  1  0  0  0
  1 30  2  0  0  0
  1 85  1  0  0  0
  2  3  1  0  0  0
  2 25  1  0  0  0
  2 88  1  0  0  0
  2 89  1  0  0  0
  3  4  1  0  0  0
  3 90  1  0  0  0
  3 91  1  0  0  0
  4  5  1  0  0  0
  4 92  1  0  0  0
  4 93  1  0  0  0
  5  6  1  0  0  0
  5 26  1  0  0  0
  5 94  1  0  0  0
  6 25  1  0  0  0
  6 95  1  0  0  0
  6 96  1  0  0  0
  7  8  2  0  0  0
  7 26  1  0  0  0
  7 29  1  0  0  0
  8  9  1  0  0  0
  8 22  1  0  0  0
  9 10  1  0  0  0
  9 27  2  0  0  0
 10 11  2  0  0  0
 10 15  1  0  0  0
 11 12  1  0  0  0
 11 97  1  0  0  0
 12 13  2  0  0  0
 12 98  1  0  0  0
 13 14  1  0  0  0
 13 31  1  0  0  0
 14 15  2  0  0  0
 14 99  1  0  0  0
 15100  1  0  0  0
 16 17  2  0  0  0
 16 21  1  0  0  0
 16 31  1  0  0  0
 17 18  1  0  0  0
 17101  1  0  0  0
 18 19  2  0  0  0
 18102  1  0  0  0
 19 20  1  0  0  0
 19 24  1  0  0  0
 20 21  2  0  0  0
 20103  1  0  0  0
 21 23  1  0  0  0
 22 28  1  0  0  0
 22 32  2  0  0  0
 26 27  1  0  0  0
 28104  1  0  0  0
 28105  1  0  0  0
 29106  1  0  0  0
 29107  1  0  0  0
 33 34  1  0  0  0
 33 66  1  0  0  0
 33 70  2  0  0  0
 34 36  1  0  0  0
 34 59  1  0  0  0
 34108  1  0  0  0
 35 44  2  0  0  0
 35 45  1  0  0  0
 35 68  1  0  0  0
 36 56  1  0  0  0
 36109  1  0  0  0
 37 39  1  0  0  0
 37 47  1  0  0  0
 37 66  1  0  0  0
 37110  1  0  0  0
 38 43  2  0  0  0
 38 46  1  0  0  0
 38 47  1  0  0  0
 39 64  1  0  0  0
 39 67  2  0  0  0
 40 52  1  0  0  0
 40 53  2  0  0  0
 40 58  1  0  0  0
 41111  1  0  0  0
 41112  1  0  0  0
 41113  1  0  0  0
 41 48  1  0  0  0
 42 43  1  0  0  0
 42 66  1  0  0  0
 42114  1  0  0  0
 42115  1  0  0  0
 43 44  1  0  0  0
 44116  1  0  0  0
 45 46  2  0  0  0
 45117  1  0  0  0
 46118  1  0  0  0
 47119  1  0  0  0
 47120  1  0  0  0
 48 56  1  0  0  0
 48 65  1  0  0  0
 48121  1  0  0  0
 49 50  1  0  0  0
 49 53  1  0  0  0
 49 64  1  0  0  0
 49122  1  0  0  0
 50 51  1  0  0  0
 50123  1  0  0  0
 50124  1  0  0  0
 51 52  1  0  0  0
 51125  1  0  0  0
 51126  1  0  0  0
 52127  1  0  0  0
 52128  1  0  0  0
 53 54  1  0  0  0
 54 55  2  0  0  0
 54129  1  0  0  0
 55 57  1  0  0  0
 55130  1  0  0  0
 56 69  2  0  0  0
 57 58  2  0  0  0
 57131  1  0  0  0
 58132  1  0  0  0
 59 60  1  0  0  0
 59 61  1  0  0  0
 59 62  1  0  0  0
 60133  1  0  0  0
 60134  1  0  0  0
 60135  1  0  0  0
 61136  1  0  0  0
 61137  1  0  0  0
 61138  1  0  0  0
 62139  1  0  0  0
 62140  1  0  0  0
 62141  1  0  0  0
 63 65  1  0  0  0
 63142  1  0  0  0
 63143  1  0  0  0
 63144  1  0  0  0
 64145  1  0  0  0
 65146  1  0  0  0
 68 84  1  0  0  0
 71 72  2  0  0  0
 71 76  1  0  0  0
 71147  1  0  0  0
 72 73  1  0  0  0
 72 81  1  0  0  0
 73 74  2  0  0  0
 73 77  1  0  0  0
 74 75  1  0  0  0
 74 78  1  0  0  0
 75 76  2  0  0  0
 75 85  1  0  0  0
 76 87  1  0  0  0
 77148  1  0  0  0
 77149  1  0  0  0
 77150  1  0  0  0
 78151  1  0  0  0
 78152  1  0  0  0
 78153  1  0  0  0
 79154  1  0  0  0
 79155  1  0  0  0
 79156  1  0  0  0
 79 84  1  0  0  0
 80 85  1  0  0  0
 80157  1  0  0  0
 80158  1  0  0  0
 80159  1  0  0  0
 81 86  1  0  0  0
 81160  1  0  0  0
 81161  1  0  0  0
 82 83  1  0  0  0
 82 84  1  0  0  0
 82162  1  0  0  0
 82163  1  0  0  0
 83 86  1  0  0  0
 83164  1  0  0  0
 83165  1  0  0  0
 84166  1  0  0  0
 86167  1  0  0  0
 86168  1  0  0  0
M  CHG  1  86   1
M  ISO  4   1 100  68 101  84 101  85 100
M  END
> <chiral flag>
0

> <version>
0

> <s_m_source_file>
/data/baiqing/PycharmProjects/Reinvent-master-3.2/result/LINK_invent/BTK/process_docking_weight1_custom_sum_contain_oxygen_bond_distance_aromatic_linkinvent_7_9_3/rearranged_h_0028.sdf

> <i_m_source_file_index>
30

> <r_mmod_Potential_Energy-OPLS-2005>
94.3920364379883

> <r_mmod_Stretch_Energy-OPLS-2005>
48.833381652832

> <r_mmod_Bend_Energy-OPLS-2005>
132.685272216797

> <r_mmod_Torsional_Energy-OPLS-2005>
381.666656494141

> <r_mmod_Improper_Torsional_Energy-OPLS-2005>
31.5564937591553

> <r_mmod_Van_der_Waal_Energy-OPLS-2005>
163.639862060547

> <r_mmod_Electrostatic_Energy-OPLS-2005>
-258.402526855469

> <r_mmod_Solvation_Energy-OPLS-2005>
-453.763732910156

> <b_mmod_Minimization_Converged-OPLS-2005>
0

> <r_mmod_RMS_Derivative-OPLS-2005>
5.95009660720825

$$$$
30
                    3D
 Structure written by MMmdl.
156164  0  0  1  0            999 V2000
  -30.7076  -14.3947   20.6465 C   0  0  0  0  0  0
  -30.4240  -12.2725   19.4258 C   0  0  0  0  0  0
  -29.5095  -12.5218   18.2120 C   0  0  0  0  0  0
  -28.0254  -12.3792   18.6048 C   0  0  0  0  0  0
  -27.6672  -13.1940   19.8754 C   0  0  2  0  0  0
  -28.6908  -12.9326   20.9998 C   0  0  0  0  0  0
  -25.2640  -13.8146   20.5717 C   0  0  0  0  0  0
  -24.1861  -13.0454   20.9181 C   0  0  0  0  0  0
  -24.6377  -11.6905   20.8682 C   0  0  0  0  0  0
  -23.9027  -10.4303   21.0378 C   0  0  0  0  0  0
  -24.3598   -9.4237   21.9174 C   0  0  0  0  0  0
  -23.6288   -8.2275   22.0750 C   0  0  0  0  0  0
  -22.4270   -8.0289   21.3545 C   0  0  0  0  0  0
  -21.9892   -9.0245   20.4644 C   0  0  0  0  0  0
  -22.7206  -10.2135   20.3040 C   0  0  0  0  0  0
  -21.6854   -6.0735   22.5283 C   0  0  0  0  0  0
  -21.4012   -6.5635   23.8216 C   0  0  0  0  0  0
  -21.3660   -5.6784   24.9176 C   0  0  0  0  0  0
  -21.6037   -4.3052   24.7199 C   0  0  0  0  0  0
  -21.8826   -3.8140   23.4317 C   0  0  0  0  0  0
  -21.9209   -4.6968   22.3387 C   0  0  0  0  0  0
  -22.7897  -13.5292   21.1830 C   0  0  0  0  0  0
  -22.1668   -4.2171   21.0951 F   0  0  0  0  0  0
  -21.5637   -3.4518   25.7709 F   0  0  0  0  0  0
  -30.0453  -13.2210   20.4827 N   0  0  0  0  0  0
  -26.3025  -12.9278   20.3264 N   0  0  0  0  0  0
  -25.9287  -11.6448   20.5634 N   0  0  0  0  0  0
  -22.0461  -12.8313   22.0335 N   0  0  0  0  0  0
  -25.4380  -15.1866   20.4331 N   0  0  0  0  0  0
  -31.7416  -14.6911   20.0379 O   0  0  0  0  0  0
  -21.6637   -6.8882   21.4249 O   0  0  0  0  0  0
  -22.3621  -14.5599   20.6660 O   0  0  0  0  0  0
  -24.6119  -31.8694   23.2095 C   0  0  0  0  0  0
  -25.9028  -32.4837   23.8389 C   0  0  1  0  0  0
  -27.2468  -27.4549   20.1169 C   0  0  0  0  0  0
  -25.5896  -33.8640   24.2336 N   0  0  0  0  0  0
  -23.4038  -30.4853   21.5476 C   0  0  2  0  0  0
  -24.8576  -28.9514   20.1156 C   0  0  0  0  0  0
  -22.7391  -29.4651   22.4966 C   0  0  0  0  0  0
  -18.0269  -28.1377   22.8508 C   0  0  0  0  0  0
  -24.1467  -36.7303   23.2647 C   0  0  0  0  0  0
  -25.9262  -30.8387   21.3637 C   0  0  0  0  0  0
  -26.0095  -29.4705   20.7237 C   0  0  0  0  0  0
  -27.2078  -28.7238   20.7300 C   0  0  0  0  0  0
  -26.0875  -26.9449   19.4961 C   0  0  0  0  0  0
  -24.8906  -27.6894   19.4958 C   0  0  0  0  0  0
  -23.6154  -29.8126   20.1623 C   0  0  0  0  0  0
  -25.4103  -36.3116   24.0342 C   0  0  1  0  0  0
  -20.5857  -28.3687   23.1342 C   0  0  2  0  0  0
  -20.6806  -26.9431   22.5386 C   0  0  0  0  0  0
  -19.5757  -26.6356   21.5224 C   0  0  0  0  0  0
  -18.1920  -26.7923   22.1620 C   0  0  0  0  0  0
  -19.1510  -28.8838   23.2931 C   0  0  0  0  0  0
  -18.9425  -30.1452   23.8924 C   0  0  0  0  0  0
  -17.6419  -30.6576   24.0584 C   0  0  0  0  0  0
  -25.9028  -34.9491   23.5129 C   0  0  0  0  0  0
  -16.5336  -29.9083   23.6297 C   0  0  0  0  0  0
  -16.7259  -28.6505   23.0312 C   0  0  0  0  0  0
  -26.4457  -31.6591   25.0683 C   0  0  0  0  0  0
  -25.3751  -31.3641   26.1430 C   0  0  0  0  0  0
  -27.0296  -30.3062   24.6008 C   0  0  0  0  0  0
  -27.6027  -32.4302   25.7440 C   0  0  0  0  0  0
  -27.5566  -37.1812   24.8469 C   0  0  0  0  0  0
  -21.4117  -29.3059   22.3733 N   0  0  0  0  0  0
  -26.4277  -37.3811   23.9397 N   0  0  0  0  0  0
  -24.6652  -31.0780   22.1006 N   0  0  0  0  0  0
  -23.4170  -28.8183   23.2984 O   0  0  0  0  0  0
  -28.4071  -26.7220   20.0886 O   0  0  0  0  0  0
  -26.5557  -34.8941   22.4663 O   0  0  0  0  0  0
  -23.5307  -32.1458   23.7472 O   0  0  0  0  0  0
  -30.5450  -18.8597   22.2334 C   0  0  0  0  0  0
  -29.0473  -17.1687   20.5666 C   0  0  0  0  0  0
  -29.4890  -19.4039   21.4657 C   0  0  0  0  0  0
  -30.0430  -16.6193   21.4064 C   0  0  0  0  0  0
  -30.8112  -17.4765   22.2201 C   0  0  0  0  0  0
  -28.7758  -18.5541   20.5838 C   0  0  0  0  0  0
  -29.0152  -20.8276   21.7620 C   0  0  0  0  0  0
  -29.0611  -24.3827   20.4217 C   0  0  0  0  0  0
  -29.2452  -23.2549   21.4655 C   0  0  0  0  0  0
  -28.4667  -25.6644   21.0524 C   0  0  0  0  0  0
  -30.1531  -15.2144   21.5439 N   0  0  0  0  0  0
  -29.5278  -21.9122   20.8904 N   0  3  0  0  0  0
  -32.0267  -16.8413   23.2719 Cl  0  0  0  0  0  0
  -27.5153  -19.1693   19.5740 Cl  0  0  0  0  0  0
  -31.4743  -12.3651   19.1450 H   0  0  0  0  0  0
  -30.3050  -11.2477   19.7846 H   0  0  0  0  0  0
  -29.7512  -11.8290   17.4054 H   0  0  0  0  0  0
  -29.6980  -13.5218   17.8161 H   0  0  0  0  0  0
  -27.8262  -11.3201   18.7730 H   0  0  0  0  0  0
  -27.3897  -12.6828   17.7699 H   0  0  0  0  0  0
  -27.7242  -14.2467   19.6020 H   0  0  0  0  0  0
  -28.6395  -11.8926   21.3255 H   0  0  0  0  0  0
  -28.4218  -13.5145   21.8848 H   0  0  0  0  0  0
  -25.2730   -9.5740   22.4746 H   0  0  0  0  0  0
  -24.0008   -7.4665   22.7475 H   0  0  0  0  0  0
  -21.0815   -8.8712   19.8959 H   0  0  0  0  0  0
  -22.3619  -10.9646   19.6134 H   0  0  0  0  0  0
  -21.1980   -7.6148   23.9729 H   0  0  0  0  0  0
  -21.1488   -6.0499   25.9090 H   0  0  0  0  0  0
  -22.0612   -2.7605   23.2779 H   0  0  0  0  0  0
  -22.4010  -11.9968   22.4742 H   0  0  0  0  0  0
  -21.1059  -13.1347   22.2448 H   0  0  0  0  0  0
  -24.6827  -15.8389   20.6114 H   0  0  0  0  0  0
  -26.2847  -15.6386   20.1161 H   0  0  0  0  0  0
  -26.7132  -32.5609   23.1192 H   0  0  0  0  0  0
  -25.0104  -33.9797   25.0520 H   0  0  0  0  0  0
  -22.6965  -31.3045   21.4047 H   0  0  0  0  0  0
  -23.3751  -35.9612   23.3320 H   0  0  0  0  0  0
  -24.3561  -36.8888   22.2049 H   0  0  0  0  0  0
  -23.7184  -37.6506   23.6640 H   0  0  0  0  0  0
  -26.0284  -31.5972   20.5881 H   0  0  0  0  0  0
  -26.8189  -30.9089   21.9718 H   0  0  0  0  0  0
  -28.0963  -29.1125   21.2088 H   0  0  0  0  0  0
  -26.1211  -25.9794   19.0108 H   0  0  0  0  0  0
  -24.0138  -27.2904   19.0058 H   0  0  0  0  0  0
  -23.7179  -30.5829   19.3968 H   0  0  0  0  0  0
  -22.7451  -29.2181   19.8754 H   0  0  0  0  0  0
  -25.1295  -36.1984   25.0841 H   0  0  0  0  0  0
  -21.0013  -28.3239   24.1444 H   0  0  0  0  0  0
  -20.5835  -26.2259   23.3542 H   0  0  0  0  0  0
  -21.6668  -26.7553   22.1153 H   0  0  0  0  0  0
  -19.6948  -25.6254   21.1279 H   0  0  0  0  0  0
  -19.6637  -27.3133   20.6727 H   0  0  0  0  0  0
  -17.4239  -26.6710   21.3988 H   0  0  0  0  0  0
  -18.0291  -26.0054   22.8986 H   0  0  0  0  0  0
  -19.7877  -30.7322   24.2266 H   0  0  0  0  0  0
  -17.4933  -31.6261   24.5182 H   0  0  0  0  0  0
  -15.5333  -30.2993   23.7569 H   0  0  0  0  0  0
  -15.8665  -28.0868   22.6947 H   0  0  0  0  0  0
  -24.5961  -30.6963   25.7742 H   0  0  0  0  0  0
  -24.8910  -32.2764   26.4905 H   0  0  0  0  0  0
  -25.8136  -30.8781   27.0160 H   0  0  0  0  0  0
  -26.2841  -29.6844   24.1053 H   0  0  0  0  0  0
  -27.4102  -29.7236   25.4408 H   0  0  0  0  0  0
  -27.8621  -30.4410   23.9120 H   0  0  0  0  0  0
  -27.2678  -33.3626   26.1995 H   0  0  0  0  0  0
  -28.3842  -32.6830   25.0269 H   0  0  0  0  0  0
  -28.0698  -31.8451   26.5372 H   0  0  0  0  0  0
  -28.2614  -38.0091   24.7555 H   0  0  0  0  0  0
  -28.1053  -36.2630   24.6295 H   0  0  0  0  0  0
  -27.2283  -37.1444   25.8878 H   0  0  0  0  0  0
  -20.9250  -29.8822   21.7021 H   0  0  0  0  0  0
  -26.0172  -38.2881   24.1449 H   0  0  0  0  0  0
  -31.1047  -19.4831   22.9166 H   0  0  0  0  0  0
  -28.4468  -16.5263   19.9414 H   0  0  0  0  0  0
  -29.2930  -21.0442   22.7933 H   0  0  0  0  0  0
  -27.9243  -20.8406   21.7500 H   0  0  0  0  0  0
  -28.3951  -24.0488   19.6281 H   0  0  0  0  0  0
  -30.0186  -24.6110   19.9520 H   0  0  0  0  0  0
  -28.3387  -23.1978   22.0685 H   0  0  0  0  0  0
  -30.0469  -23.5158   22.1599 H   0  0  0  0  0  0
  -29.0873  -25.9915   21.8865 H   0  0  0  0  0  0
  -27.4827  -25.4445   21.4795 H   0  0  0  0  0  0
  -29.4323  -14.7798   22.1004 H   0  0  0  0  0  0
  -29.0873  -21.8346   19.9888 H   0  0  0  0  0  0
  -30.5218  -21.8051   20.7663 H   0  0  0  0  0  0
  1 25  1  0  0  0
  1 30  2  0  0  0
  1 81  1  0  0  0
  2  3  1  0  0  0
  2 25  1  0  0  0
  2 85  1  0  0  0
  2 86  1  0  0  0
  3  4  1  0  0  0
  3 87  1  0  0  0
  3 88  1  0  0  0
  4  5  1  0  0  0
  4 89  1  0  0  0
  4 90  1  0  0  0
  5  6  1  0  0  0
  5 26  1  0  0  0
  5 91  1  0  0  0
  6 25  1  0  0  0
  6 92  1  0  0  0
  6 93  1  0  0  0
  7  8  2  0  0  0
  7 26  1  0  0  0
  7 29  1  0  0  0
  8  9  1  0  0  0
  8 22  1  0  0  0
  9 10  1  0  0  0
  9 27  2  0  0  0
 10 11  2  0  0  0
 10 15  1  0  0  0
 11 12  1  0  0  0
 11 94  1  0  0  0
 12 13  2  0  0  0
 12 95  1  0  0  0
 13 14  1  0  0  0
 13 31  1  0  0  0
 14 15  2  0  0  0
 14 96  1  0  0  0
 15 97  1  0  0  0
 16 17  2  0  0  0
 16 21  1  0  0  0
 16 31  1  0  0  0
 17 18  1  0  0  0
 17 98  1  0  0  0
 18 19  2  0  0  0
 18 99  1  0  0  0
 19 20  1  0  0  0
 19 24  1  0  0  0
 20 21  2  0  0  0
 20100  1  0  0  0
 21 23  1  0  0  0
 22 28  1  0  0  0
 22 32  2  0  0  0
 26 27  1  0  0  0
 28101  1  0  0  0
 28102  1  0  0  0
 29103  1  0  0  0
 29104  1  0  0  0
 33 34  1  0  0  0
 33 66  1  0  0  0
 33 70  2  0  0  0
 34 36  1  0  0  0
 34 59  1  0  0  0
 34105  1  0  0  0
 35 44  2  0  0  0
 35 45  1  0  0  0
 35 68  1  0  0  0
 36 56  1  0  0  0
 36106  1  0  0  0
 37 39  1  0  0  0
 37 47  1  0  0  0
 37 66  1  0  0  0
 37107  1  0  0  0
 38 43  2  0  0  0
 38 46  1  0  0  0
 38 47  1  0  0  0
 39 64  1  0  0  0
 39 67  2  0  0  0
 40 52  1  0  0  0
 40 53  2  0  0  0
 40 58  1  0  0  0
 41108  1  0  0  0
 41109  1  0  0  0
 41110  1  0  0  0
 41 48  1  0  0  0
 42 43  1  0  0  0
 42 66  1  0  0  0
 42111  1  0  0  0
 42112  1  0  0  0
 43 44  1  0  0  0
 44113  1  0  0  0
 45 46  2  0  0  0
 45114  1  0  0  0
 46115  1  0  0  0
 47116  1  0  0  0
 47117  1  0  0  0
 48 56  1  0  0  0
 48 65  1  0  0  0
 48118  1  0  0  0
 49 50  1  0  0  0
 49 53  1  0  0  0
 49 64  1  0  0  0
 49119  1  0  0  0
 50 51  1  0  0  0
 50120  1  0  0  0
 50121  1  0  0  0
 51 52  1  0  0  0
 51122  1  0  0  0
 51123  1  0  0  0
 52124  1  0  0  0
 52125  1  0  0  0
 53 54  1  0  0  0
 54 55  2  0  0  0
 54126  1  0  0  0
 55 57  1  0  0  0
 55127  1  0  0  0
 56 69  2  0  0  0
 57 58  2  0  0  0
 57128  1  0  0  0
 58129  1  0  0  0
 59 60  1  0  0  0
 59 61  1  0  0  0
 59 62  1  0  0  0
 60130  1  0  0  0
 60131  1  0  0  0
 60132  1  0  0  0
 61133  1  0  0  0
 61134  1  0  0  0
 61135  1  0  0  0
 62136  1  0  0  0
 62137  1  0  0  0
 62138  1  0  0  0
 63 65  1  0  0  0
 63139  1  0  0  0
 63140  1  0  0  0
 63141  1  0  0  0
 64142  1  0  0  0
 65143  1  0  0  0
 68 80  1  0  0  0
 71 73  2  0  0  0
 71 75  1  0  0  0
 71144  1  0  0  0
 72 74  1  0  0  0
 72 76  2  0  0  0
 72145  1  0  0  0
 73 76  1  0  0  0
 73 77  1  0  0  0
 74 75  2  0  0  0
 74 81  1  0  0  0
 75 83  1  0  0  0
 76 84  1  0  0  0
 77 82  1  0  0  0
 77146  1  0  0  0
 77147  1  0  0  0
 78 79  1  0  0  0
 78 80  1  0  0  0
 78148  1  0  0  0
 78149  1  0  0  0
 79 82  1  0  0  0
 79150  1  0  0  0
 79151  1  0  0  0
 80152  1  0  0  0
 80153  1  0  0  0
 81154  1  0  0  0
 82155  1  0  0  0
 82156  1  0  0  0
M  CHG  1  82   1
M  ISO  4   1 100  68 101  80 101  81 100
M  END
> <chiral flag>
0

> <version>
0

> <s_m_source_file>
/data/baiqing/PycharmProjects/Reinvent-master-3.2/result/LINK_invent/BTK/process_docking_weight1_custom_sum_contain_oxygen_bond_distance_aromatic_linkinvent_7_9_3/rearranged_h_0028.sdf

> <i_m_source_file_index>
31

> <r_mmod_Potential_Energy-OPLS-2005>
-268.102478027344

> <r_mmod_Stretch_Energy-OPLS-2005>
33.4702491760254

> <r_mmod_Bend_Energy-OPLS-2005>
88.6516799926758

> <r_mmod_Torsional_Energy-OPLS-2005>
269.980621337891

> <r_mmod_Improper_Torsional_Energy-OPLS-2005>
5.75085401535034

> <r_mmod_Van_der_Waal_Energy-OPLS-2005>
143.211822509766

> <r_mmod_Electrostatic_Energy-OPLS-2005>
-322.545745849609

> <r_mmod_Solvation_Energy-OPLS-2005>
-494.585601806641

> <b_mmod_Minimization_Converged-OPLS-2005>
0

> <r_mmod_RMS_Derivative-OPLS-2005>
4.74846315383911

$$$$
31
                    3D
 Structure written by MMmdl.
159167  0  0  1  0            999 V2000
  -30.7387  -14.4601   20.6263 C   0  0  0  0  0  0
  -30.4271  -12.3156   19.4287 C   0  0  0  0  0  0
  -29.4976  -12.5142   18.2146 C   0  0  0  0  0  0
  -28.0228  -12.3557   18.6297 C   0  0  0  0  0  0
  -27.6636  -13.1981   19.8805 C   0  0  2  0  0  0
  -28.7075  -12.9948   21.0062 C   0  0  0  0  0  0
  -25.2484  -13.8047   20.5565 C   0  0  0  0  0  0
  -24.1792  -13.0335   20.9180 C   0  0  0  0  0  0
  -24.6388  -11.6826   20.8747 C   0  0  0  0  0  0
  -23.9053  -10.4227   21.0395 C   0  0  0  0  0  0
  -24.3598   -9.4155   21.9184 C   0  0  0  0  0  0
  -23.6261   -8.2207   22.0761 C   0  0  0  0  0  0
  -22.4256   -8.0247   21.3539 C   0  0  0  0  0  0
  -21.9883   -9.0219   20.4647 C   0  0  0  0  0  0
  -22.7214  -10.2090   20.3053 C   0  0  0  0  0  0
  -21.6841   -6.0703   22.5268 C   0  0  0  0  0  0
  -21.4007   -6.5618   23.8197 C   0  0  0  0  0  0
  -21.3657   -5.6776   24.9163 C   0  0  0  0  0  0
  -21.6049   -4.3039   24.7219 C   0  0  0  0  0  0
  -21.8818   -3.8121   23.4343 C   0  0  0  0  0  0
  -21.9190   -4.6935   22.3391 C   0  0  0  0  0  0
  -22.7828  -13.5162   21.1816 C   0  0  0  0  0  0
  -22.1659   -4.2119   21.0971 F   0  0  0  0  0  0
  -21.5636   -3.4531   25.7735 F   0  0  0  0  0  0
  -30.0481  -13.2932   20.4662 N   0  0  0  0  0  0
  -26.3007  -12.9268   20.3380 N   0  0  0  0  0  0
  -25.9333  -11.6431   20.5830 N   0  0  0  0  0  0
  -22.0474  -12.8203   22.0409 N   0  0  0  0  0  0
  -25.3898  -15.1720   20.3661 N   0  0  0  0  0  0
  -31.8019  -14.6829   20.0427 O   0  0  0  0  0  0
  -21.6622   -6.8844   21.4234 O   0  0  0  0  0  0
  -22.3510  -14.5452   20.6630 O   0  0  0  0  0  0
  -24.6164  -31.8670   23.2072 C   0  0  0  0  0  0
  -25.9055  -32.4819   23.8373 C   0  0  1  0  0  0
  -27.2452  -27.4288   20.0954 C   0  0  0  0  0  0
  -25.5910  -33.8616   24.2321 N   0  0  0  0  0  0
  -23.4051  -30.4908   21.5450 C   0  0  2  0  0  0
  -24.8518  -28.9504   20.1140 C   0  0  0  0  0  0
  -22.7420  -29.4662   22.4942 C   0  0  0  0  0  0
  -18.0274  -28.1396   22.8489 C   0  0  0  0  0  0
  -24.1488  -36.7314   23.2633 C   0  0  0  0  0  0
  -25.9328  -30.8303   21.3590 C   0  0  0  0  0  0
  -26.0095  -29.4618   20.7113 C   0  0  0  0  0  0
  -27.2026  -28.7057   20.7038 C   0  0  0  0  0  0
  -26.0613  -26.9251   19.5053 C   0  0  0  0  0  0
  -24.8708  -27.6789   19.5132 C   0  0  0  0  0  0
  -23.6173  -29.8218   20.1601 C   0  0  0  0  0  0
  -25.4110  -36.3114   24.0339 C   0  0  1  0  0  0
  -20.5869  -28.3683   23.1298 C   0  0  2  0  0  0
  -20.6773  -26.9417   22.5408 C   0  0  0  0  0  0
  -19.5747  -26.6401   21.5207 C   0  0  0  0  0  0
  -18.1925  -26.7941   22.1625 C   0  0  0  0  0  0
  -19.1523  -28.8853   23.2896 C   0  0  0  0  0  0
  -18.9461  -30.1456   23.8915 C   0  0  0  0  0  0
  -17.6469  -30.6601   24.0574 C   0  0  0  0  0  0
  -25.9042  -34.9478   23.5124 C   0  0  0  0  0  0
  -16.5360  -29.9118   23.6323 C   0  0  0  0  0  0
  -16.7264  -28.6533   23.0340 C   0  0  0  0  0  0
  -26.4468  -31.6595   25.0703 C   0  0  0  0  0  0
  -25.3734  -31.3701   26.1452 C   0  0  0  0  0  0
  -27.0288  -30.3046   24.6055 C   0  0  0  0  0  0
  -27.6061  -32.4289   25.7468 C   0  0  0  0  0  0
  -27.5585  -37.1811   24.8466 C   0  0  0  0  0  0
  -21.4140  -29.3058   22.3701 N   0  0  0  0  0  0
  -26.4299  -37.3806   23.9408 N   0  0  0  0  0  0
  -24.6698  -31.0780   22.0961 N   0  0  0  0  0  0
  -23.4188  -28.8197   23.2988 O   0  0  0  0  0  0
  -28.4396  -26.7307   20.1229 O   0  0  0  0  0  0
  -26.5598  -34.8933   22.4679 O   0  0  0  0  0  0
  -23.5362  -32.1406   23.7475 O   0  0  0  0  0  0
  -29.3312  -18.9786   20.7369 C   0  0  0  0  0  0
  -31.5911  -18.8869   21.5964 C   0  0  0  0  0  0
  -30.5135  -19.6575   21.0950 C   0  0  0  0  0  0
  -29.2282  -17.5778   20.8722 C   0  0  0  0  0  0
  -30.3234  -16.7986   21.3250 C   0  0  0  0  0  0
  -31.5060  -17.4781   21.7188 C   0  0  0  0  0  0
  -27.9141  -16.9312   20.5119 C   0  0  0  0  0  0
  -30.6665  -21.1831   20.9381 C   0  0  0  0  0  0
  -28.3540  -24.2045   20.0253 C   0  0  0  0  0  0
  -29.6435  -23.3919   20.3470 C   0  0  0  0  0  0
  -28.6265  -25.5615   19.3121 C   0  0  0  0  0  0
  -30.1698  -15.3759   21.4359 N   0  0  0  0  0  0
  -29.4208  -21.9472   20.6439 N   0  3  0  0  0  0
  -32.8425  -16.6282   22.4147 Cl  0  0  0  0  0  0
  -30.3274  -11.3017   19.8182 H   0  0  0  0  0  0
  -31.4723  -12.4078   19.1256 H   0  0  0  0  0  0
  -29.7403  -11.7951   17.4310 H   0  0  0  0  0  0
  -29.6615  -13.5045   17.7859 H   0  0  0  0  0  0
  -27.8491  -11.2982   18.8345 H   0  0  0  0  0  0
  -27.3665  -12.6119   17.7979 H   0  0  0  0  0  0
  -27.7039  -14.2391   19.5713 H   0  0  0  0  0  0
  -28.6896  -11.9630   21.3590 H   0  0  0  0  0  0
  -28.4527  -13.5989   21.8784 H   0  0  0  0  0  0
  -25.2748   -9.5632   22.4755 H   0  0  0  0  0  0
  -23.9945   -7.4610   22.7503 H   0  0  0  0  0  0
  -21.0798   -8.8726   19.8979 H   0  0  0  0  0  0
  -22.3658  -10.9618   19.6157 H   0  0  0  0  0  0
  -21.2002   -7.6131   23.9679 H   0  0  0  0  0  0
  -21.1487   -6.0521   25.9059 H   0  0  0  0  0  0
  -22.0609   -2.7587   23.2849 H   0  0  0  0  0  0
  -22.4073  -11.9874   22.4822 H   0  0  0  0  0  0
  -21.1106  -13.1258   22.2609 H   0  0  0  0  0  0
  -24.5917  -15.7962   20.4174 H   0  0  0  0  0  0
  -26.1982  -15.5966   19.9330 H   0  0  0  0  0  0
  -26.7127  -32.5537   23.1143 H   0  0  0  0  0  0
  -25.0092  -33.9755   25.0492 H   0  0  0  0  0  0
  -22.6951  -31.3083   21.4037 H   0  0  0  0  0  0
  -23.3757  -35.9640   23.3290 H   0  0  0  0  0  0
  -24.3597  -36.8928   22.2051 H   0  0  0  0  0  0
  -23.7227  -37.6514   23.6646 H   0  0  0  0  0  0
  -26.0422  -31.5896   20.5834 H   0  0  0  0  0  0
  -26.8237  -30.8908   21.9730 H   0  0  0  0  0  0
  -28.0973  -29.1024   21.1631 H   0  0  0  0  0  0
  -26.0322  -25.9464   19.0494 H   0  0  0  0  0  0
  -23.9774  -27.2728   19.0593 H   0  0  0  0  0  0
  -23.7380  -30.5975   19.4031 H   0  0  0  0  0  0
  -22.7399  -29.2486   19.8568 H   0  0  0  0  0  0
  -25.1284  -36.1980   25.0835 H   0  0  0  0  0  0
  -20.9960  -28.3257   24.1414 H   0  0  0  0  0  0
  -20.5688  -26.2289   23.3596 H   0  0  0  0  0  0
  -21.6643  -26.7477   22.1185 H   0  0  0  0  0  0
  -19.6917  -25.6313   21.1222 H   0  0  0  0  0  0
  -19.6688  -27.3222   20.6743 H   0  0  0  0  0  0
  -17.4194  -26.6669   21.4032 H   0  0  0  0  0  0
  -18.0345  -26.0089   22.9029 H   0  0  0  0  0  0
  -19.7945  -30.7252   24.2297 H   0  0  0  0  0  0
  -17.5042  -31.6275   24.5180 H   0  0  0  0  0  0
  -15.5367  -30.3044   23.7635 H   0  0  0  0  0  0
  -15.8657  -28.0872   22.7046 H   0  0  0  0  0  0
  -24.5951  -30.6987   25.7802 H   0  0  0  0  0  0
  -24.8869  -32.2849   26.4847 H   0  0  0  0  0  0
  -25.8100  -30.8935   27.0236 H   0  0  0  0  0  0
  -26.2814  -29.6823   24.1120 H   0  0  0  0  0  0
  -27.4083  -29.7266   25.4486 H   0  0  0  0  0  0
  -27.8634  -30.4371   23.9170 H   0  0  0  0  0  0
  -27.2718  -33.3612   26.2022 H   0  0  0  0  0  0
  -28.3895  -32.6788   25.0306 H   0  0  0  0  0  0
  -28.0687  -31.8407   26.5401 H   0  0  0  0  0  0
  -28.2601  -38.0112   24.7537 H   0  0  0  0  0  0
  -28.1080  -36.2647   24.6267 H   0  0  0  0  0  0
  -27.2299  -37.1427   25.8867 H   0  0  0  0  0  0
  -20.9296  -29.8795   21.6934 H   0  0  0  0  0  0
  -26.0185  -38.2878   24.1434 H   0  0  0  0  0  0
  -28.4818  -19.5226   20.3489 H   0  0  0  0  0  0
  -32.5057  -19.3782   21.9015 H   0  0  0  0  0  0
  -27.1101  -17.6653   20.4572 H   0  0  0  0  0  0
  -27.6370  -16.2054   21.2764 H   0  0  0  0  0  0
  -27.9962  -16.4384   19.5439 H   0  0  0  0  0  0
  -31.3941  -21.3622   20.1450 H   0  0  0  0  0  0
  -31.1081  -21.5793   21.8529 H   0  0  0  0  0  0
  -27.7621  -24.3592   20.9284 H   0  0  0  0  0  0
  -27.7274  -23.6087   19.3609 H   0  0  0  0  0  0
  -30.1593  -23.8585   21.1860 H   0  0  0  0  0  0
  -30.3234  -23.4473   19.4961 H   0  0  0  0  0  0
  -28.0685  -25.6278   18.3773 H   0  0  0  0  0  0
  -29.6683  -25.5899   18.9934 H   0  0  0  0  0  0
  -29.3157  -15.0595   21.8658 H   0  0  0  0  0  0
  -28.7954  -21.8538   21.4273 H   0  0  0  0  0  0
  -28.9900  -21.5223   19.8396 H   0  0  0  0  0  0
  1 25  1  0  0  0
  1 30  2  0  0  0
  1 82  1  0  0  0
  2  3  1  0  0  0
  2 25  1  0  0  0
  2 85  1  0  0  0
  2 86  1  0  0  0
  3  4  1  0  0  0
  3 87  1  0  0  0
  3 88  1  0  0  0
  4  5  1  0  0  0
  4 89  1  0  0  0
  4 90  1  0  0  0
  5  6  1  0  0  0
  5 26  1  0  0  0
  5 91  1  0  0  0
  6 25  1  0  0  0
  6 92  1  0  0  0
  6 93  1  0  0  0
  7  8  2  0  0  0
  7 26  1  0  0  0
  7 29  1  0  0  0
  8  9  1  0  0  0
  8 22  1  0  0  0
  9 10  1  0  0  0
  9 27  2  0  0  0
 10 11  2  0  0  0
 10 15  1  0  0  0
 11 12  1  0  0  0
 11 94  1  0  0  0
 12 13  2  0  0  0
 12 95  1  0  0  0
 13 14  1  0  0  0
 13 31  1  0  0  0
 14 15  2  0  0  0
 14 96  1  0  0  0
 15 97  1  0  0  0
 16 17  2  0  0  0
 16 21  1  0  0  0
 16 31  1  0  0  0
 17 18  1  0  0  0
 17 98  1  0  0  0
 18 19  2  0  0  0
 18 99  1  0  0  0
 19 20  1  0  0  0
 19 24  1  0  0  0
 20 21  2  0  0  0
 20100  1  0  0  0
 21 23  1  0  0  0
 22 28  1  0  0  0
 22 32  2  0  0  0
 26 27  1  0  0  0
 28101  1  0  0  0
 28102  1  0  0  0
 29103  1  0  0  0
 29104  1  0  0  0
 33 34  1  0  0  0
 33 66  1  0  0  0
 33 70  2  0  0  0
 34 36  1  0  0  0
 34 59  1  0  0  0
 34105  1  0  0  0
 35 44  2  0  0  0
 35 45  1  0  0  0
 35 68  1  0  0  0
 36 56  1  0  0  0
 36106  1  0  0  0
 37 39  1  0  0  0
 37 47  1  0  0  0
 37 66  1  0  0  0
 37107  1  0  0  0
 38 43  2  0  0  0
 38 46  1  0  0  0
 38 47  1  0  0  0
 39 64  1  0  0  0
 39 67  2  0  0  0
 40 52  1  0  0  0
 40 53  2  0  0  0
 40 58  1  0  0  0
 41108  1  0  0  0
 41109  1  0  0  0
 41110  1  0  0  0
 41 48  1  0  0  0
 42 43  1  0  0  0
 42 66  1  0  0  0
 42111  1  0  0  0
 42112  1  0  0  0
 43 44  1  0  0  0
 44113  1  0  0  0
 45 46  2  0  0  0
 45114  1  0  0  0
 46115  1  0  0  0
 47116  1  0  0  0
 47117  1  0  0  0
 48 56  1  0  0  0
 48 65  1  0  0  0
 48118  1  0  0  0
 49 50  1  0  0  0
 49 53  1  0  0  0
 49 64  1  0  0  0
 49119  1  0  0  0
 50 51  1  0  0  0
 50120  1  0  0  0
 50121  1  0  0  0
 51 52  1  0  0  0
 51122  1  0  0  0
 51123  1  0  0  0
 52124  1  0  0  0
 52125  1  0  0  0
 53 54  1  0  0  0
 54 55  2  0  0  0
 54126  1  0  0  0
 55 57  1  0  0  0
 55127  1  0  0  0
 56 69  2  0  0  0
 57 58  2  0  0  0
 57128  1  0  0  0
 58129  1  0  0  0
 59 60  1  0  0  0
 59 61  1  0  0  0
 59 62  1  0  0  0
 60130  1  0  0  0
 60131  1  0  0  0
 60132  1  0  0  0
 61133  1  0  0  0
 61134  1  0  0  0
 61135  1  0  0  0
 62136  1  0  0  0
 62137  1  0  0  0
 62138  1  0  0  0
 63 65  1  0  0  0
 63139  1  0  0  0
 63140  1  0  0  0
 63141  1  0  0  0
 64142  1  0  0  0
 65143  1  0  0  0
 68 81  1  0  0  0
 71 73  2  0  0  0
 71 74  1  0  0  0
 71144  1  0  0  0
 72 73  1  0  0  0
 72 76  2  0  0  0
 72145  1  0  0  0
 73 78  1  0  0  0
 74 75  2  0  0  0
 74 77  1  0  0  0
 75 76  1  0  0  0
 75 82  1  0  0  0
 76 84  1  0  0  0
 77146  1  0  0  0
 77147  1  0  0  0
 77148  1  0  0  0
 78 83  1  0  0  0
 78149  1  0  0  0
 78150  1  0  0  0
 79 80  1  0  0  0
 79 81  1  0  0  0
 79151  1  0  0  0
 79152  1  0  0  0
 80 83  1  0  0  0
 80153  1  0  0  0
 80154  1  0  0  0
 81155  1  0  0  0
 81156  1  0  0  0
 82157  1  0  0  0
 83158  1  0  0  0
 83159  1  0  0  0
M  CHG  1  83   1
M  ISO  4   1 100  68 101  81 101  82 100
M  END
> <chiral flag>
0

> <version>
0

> <s_m_source_file>
/data/baiqing/PycharmProjects/Reinvent-master-3.2/result/LINK_invent/BTK/process_docking_weight1_custom_sum_contain_oxygen_bond_distance_aromatic_linkinvent_7_9_3/rearranged_h_0028.sdf

> <i_m_source_file_index>
32

> <r_mmod_Potential_Energy-OPLS-2005>
-266.420288085938

> <r_mmod_Stretch_Energy-OPLS-2005>
41.2362518310547

> <r_mmod_Bend_Energy-OPLS-2005>
104.997756958008

> <r_mmod_Torsional_Energy-OPLS-2005>
231.034332275391

> <r_mmod_Improper_Torsional_Energy-OPLS-2005>
4.48268938064575

> <r_mmod_Van_der_Waal_Energy-OPLS-2005>
152.795059204102

> <r_mmod_Electrostatic_Energy-OPLS-2005>
-322.225494384766

> <r_mmod_Solvation_Energy-OPLS-2005>
-491.025451660156

> <b_mmod_Minimization_Converged-OPLS-2005>
0

> <r_mmod_RMS_Derivative-OPLS-2005>
2.14865064620972

$$$$
32
                    3D
 Structure written by MMmdl.
166174  0  0  1  0            999 V2000
  -30.6822  -14.3320   20.7023 C   0  0  0  0  0  0
  -30.4321  -12.2832   19.3561 C   0  0  0  0  0  0
  -29.4828  -12.5407   18.1703 C   0  0  0  0  0  0
  -27.9998  -12.3987   18.5818 C   0  0  0  0  0  0
  -27.6638  -13.1807   19.8785 C   0  0  2  0  0  0
  -28.6929  -12.8247   20.9683 C   0  0  0  0  0  0
  -25.2580  -13.8118   20.5613 C   0  0  0  0  0  0
  -24.1828  -13.0438   20.9156 C   0  0  0  0  0  0
  -24.6338  -11.6887   20.8734 C   0  0  0  0  0  0
  -23.9009  -10.4291   21.0407 C   0  0  0  0  0  0
  -24.3582   -9.4221   21.9194 C   0  0  0  0  0  0
  -23.6274   -8.2257   22.0759 C   0  0  0  0  0  0
  -22.4257   -8.0291   21.3561 C   0  0  0  0  0  0
  -21.9891   -9.0248   20.4650 C   0  0  0  0  0  0
  -22.7197  -10.2131   20.3057 C   0  0  0  0  0  0
  -21.6836   -6.0740   22.5287 C   0  0  0  0  0  0
  -21.4014   -6.5640   23.8231 C   0  0  0  0  0  0
  -21.3665   -5.6783   24.9193 C   0  0  0  0  0  0
  -21.6027   -4.3039   24.7229 C   0  0  0  0  0  0
  -21.8827   -3.8148   23.4347 C   0  0  0  0  0  0
  -21.9192   -4.6975   22.3412 C   0  0  0  0  0  0
  -22.7850  -13.5249   21.1864 C   0  0  0  0  0  0
  -22.1653   -4.2163   21.0985 F   0  0  0  0  0  0
  -21.5642   -3.4534   25.7744 F   0  0  0  0  0  0
  -30.0301  -13.1751   20.4464 N   0  0  0  0  0  0
  -26.2997  -12.9223   20.3311 N   0  0  0  0  0  0
  -25.9233  -11.6398   20.5686 N   0  0  0  0  0  0
  -22.0489  -12.8256   22.0404 N   0  0  0  0  0  0
  -25.4366  -15.1847   20.4019 N   0  0  0  0  0  0
  -31.7477  -14.6671   20.1680 O   0  0  0  0  0  0
  -21.6639   -6.8885   21.4240 O   0  0  0  0  0  0
  -22.3556  -14.5555   20.6696 O   0  0  0  0  0  0
  -24.6127  -31.8745   23.2174 C   0  0  0  0  0  0
  -25.9024  -32.4845   23.8463 C   0  0  1  0  0  0
  -27.2131  -27.4669   20.0460 C   0  0  0  0  0  0
  -25.5857  -33.8648   24.2342 N   0  0  0  0  0  0
  -23.3960  -30.5052   21.5625 C   0  0  2  0  0  0
  -24.8269  -28.9794   20.1202 C   0  0  0  0  0  0
  -22.7371  -29.4741   22.5058 C   0  0  0  0  0  0
  -18.0258  -28.1440   22.8532 C   0  0  0  0  0  0
  -24.1474  -36.7345   23.2654 C   0  0  0  0  0  0
  -25.9259  -30.8390   21.3720 C   0  0  0  0  0  0
  -25.9926  -29.4817   20.7101 C   0  0  0  0  0  0
  -27.1828  -28.7282   20.6812 C   0  0  0  0  0  0
  -26.0181  -26.9780   19.4598 C   0  0  0  0  0  0
  -24.8296  -27.7172   19.5118 C   0  0  0  0  0  0
  -23.5937  -29.8446   20.1773 C   0  0  0  0  0  0
  -25.4088  -36.3110   24.0346 C   0  0  1  0  0  0
  -20.5847  -28.3718   23.1352 C   0  0  2  0  0  0
  -20.6748  -26.9473   22.5443 C   0  0  0  0  0  0
  -19.5707  -26.6436   21.5261 C   0  0  0  0  0  0
  -18.1886  -26.7987   22.1664 C   0  0  0  0  0  0
  -19.1514  -28.8892   23.2935 C   0  0  0  0  0  0
  -18.9424  -30.1500   23.8938 C   0  0  0  0  0  0
  -17.6425  -30.6634   24.0614 C   0  0  0  0  0  0
  -25.9018  -34.9485   23.5137 C   0  0  0  0  0  0
  -16.5318  -29.9145   23.6364 C   0  0  0  0  0  0
  -16.7242  -28.6567   23.0378 C   0  0  0  0  0  0
  -26.4460  -31.6636   25.0794 C   0  0  0  0  0  0
  -25.3695  -31.3704   26.1505 C   0  0  0  0  0  0
  -27.0375  -30.3073   24.6249 C   0  0  0  0  0  0
  -27.5995  -32.4425   25.7544 C   0  0  0  0  0  0
  -27.5568  -37.1802   24.8466 C   0  0  0  0  0  0
  -21.4110  -29.3099   22.3755 N   0  0  0  0  0  0
  -26.4276  -37.3800   23.9429 N   0  0  0  0  0  0
  -24.6653  -31.0873   22.1074 N   0  0  0  0  0  0
  -23.4145  -28.8268   23.3086 O   0  0  0  0  0  0
  -28.4079  -26.7794   20.0662 O   0  0  0  0  0  0
  -26.5595  -34.8916   22.4713 O   0  0  0  0  0  0
  -23.5312  -32.1513   23.7541 O   0  0  0  0  0  0
  -28.7461  -22.7208   22.0139 C   0  0  0  0  0  0
  -28.2210  -23.7995   21.2818 C   0  0  0  0  0  0
  -29.0590  -24.4386   20.3264 C   0  0  0  0  0  0
  -30.3942  -23.9860   20.2120 C   0  0  0  0  0  0
  -30.0613  -22.3184   21.7743 C   0  0  0  0  0  0
  -31.3979  -24.6668   19.3022 C   0  0  0  0  0  0
  -26.7078  -25.2409   22.7123 C   0  0  0  0  0  0
  -26.7863  -24.2099   21.5771 C   0  0  0  0  0  0
  -28.5385  -25.5281   19.3988 C   0  0  0  0  0  0
  -30.5994  -18.7563   22.2446 C   0  0  0  0  0  0
  -30.3428  -17.5187   21.3883 C   0  0  0  0  0  0
  -30.5942  -20.0664   21.4656 C   0  0  0  0  0  0
  -30.4909  -16.2790   22.2702 C   0  0  0  0  0  0
  -30.8771  -22.9357   20.9061 N   0  0  0  0  0  0
  -30.5592  -21.1849   22.3957 N   0  0  0  0  0  0
  -30.0427  -15.0817   21.6015 N   0  0  0  0  0  0
  -31.4659  -12.4484   19.0487 H   0  0  0  0  0  0
  -30.3812  -11.2415   19.6799 H   0  0  0  0  0  0
  -29.7126  -11.8624   17.3480 H   0  0  0  0  0  0
  -29.6535  -13.5488   17.7864 H   0  0  0  0  0  0
  -27.7870  -11.3381   18.7205 H   0  0  0  0  0  0
  -27.3546  -12.7324   17.7694 H   0  0  0  0  0  0
  -27.7499  -14.2452   19.6583 H   0  0  0  0  0  0
  -28.6583  -11.7534   21.1718 H   0  0  0  0  0  0
  -28.4286  -13.2886   21.9200 H   0  0  0  0  0  0
  -25.2717   -9.5719   22.4784 H   0  0  0  0  0  0
  -23.9992   -7.4648   22.7470 H   0  0  0  0  0  0
  -21.0840   -8.8759   19.8935 H   0  0  0  0  0  0
  -22.3653  -10.9682   19.6189 H   0  0  0  0  0  0
  -21.1998   -7.6152   23.9744 H   0  0  0  0  0  0
  -21.1480   -6.0509   25.9094 H   0  0  0  0  0  0
  -22.0598   -2.7614   23.2845 H   0  0  0  0  0  0
  -22.4076  -11.9900   22.4796 H   0  0  0  0  0  0
  -21.1112  -13.1306   22.2605 H   0  0  0  0  0  0
  -24.6749  -15.8460   20.5098 H   0  0  0  0  0  0
  -26.2962  -15.6181   20.0890 H   0  0  0  0  0  0
  -26.7088  -32.5565   23.1221 H   0  0  0  0  0  0
  -24.9905  -33.9822   25.0406 H   0  0  0  0  0  0
  -22.6845  -31.3239   21.4293 H   0  0  0  0  0  0
  -23.3723  -35.9684   23.3287 H   0  0  0  0  0  0
  -24.3555  -36.9017   22.2072 H   0  0  0  0  0  0
  -23.7227  -37.6528   23.6723 H   0  0  0  0  0  0
  -26.0485  -31.6065   20.6078 H   0  0  0  0  0  0
  -26.8104  -30.8760   21.9961 H   0  0  0  0  0  0
  -28.0831  -29.1120   21.1420 H   0  0  0  0  0  0
  -25.9295  -26.0320   18.9544 H   0  0  0  0  0  0
  -23.9234  -27.3147   19.0778 H   0  0  0  0  0  0
  -23.6990  -30.6237   19.4218 H   0  0  0  0  0  0
  -22.7142  -29.2657   19.8901 H   0  0  0  0  0  0
  -25.1245  -36.1989   25.0830 H   0  0  0  0  0  0
  -20.9938  -28.3327   24.1480 H   0  0  0  0  0  0
  -20.5750  -26.2343   23.3642 H   0  0  0  0  0  0
  -21.6608  -26.7589   22.1195 H   0  0  0  0  0  0
  -19.6885  -25.6361   21.1290 H   0  0  0  0  0  0
  -19.6635  -27.3248   20.6802 H   0  0  0  0  0  0
  -17.4189  -26.6812   21.4033 H   0  0  0  0  0  0
  -18.0201  -26.0121   22.9032 H   0  0  0  0  0  0
  -19.7897  -30.7323   24.2323 H   0  0  0  0  0  0
  -17.4994  -31.6317   24.5239 H   0  0  0  0  0  0
  -15.5323  -30.3065   23.7698 H   0  0  0  0  0  0
  -15.8633  -28.0921   22.7058 H   0  0  0  0  0  0
  -24.5940  -30.6972   25.7834 H   0  0  0  0  0  0
  -24.8769  -32.2824   26.4890 H   0  0  0  0  0  0
  -25.8005  -30.8951   27.0327 H   0  0  0  0  0  0
  -26.2998  -29.6745   24.1299 H   0  0  0  0  0  0
  -27.4130  -29.7389   25.4778 H   0  0  0  0  0  0
  -27.8806  -30.4401   23.9464 H   0  0  0  0  0  0
  -27.2584  -33.3758   26.2046 H   0  0  0  0  0  0
  -28.3776  -32.6967   25.0339 H   0  0  0  0  0  0
  -28.0699  -31.8656   26.5511 H   0  0  0  0  0  0
  -28.2557  -38.0133   24.7554 H   0  0  0  0  0  0
  -28.1109  -36.2663   24.6247 H   0  0  0  0  0  0
  -27.2309  -37.1388   25.8878 H   0  0  0  0  0  0
  -20.9269  -29.8758   21.6902 H   0  0  0  0  0  0
  -26.0173  -38.2884   24.1433 H   0  0  0  0  0  0
  -28.1250  -22.1918   22.7246 H   0  0  0  0  0  0
  -31.1484  -24.4891   18.2555 H   0  0  0  0  0  0
  -32.4070  -24.2974   19.4800 H   0  0  0  0  0  0
  -31.3981  -25.7416   19.4813 H   0  0  0  0  0  0
  -25.6722  -25.4534   22.9784 H   0  0  0  0  0  0
  -27.1793  -26.1805   22.4314 H   0  0  0  0  0  0
  -27.2122  -24.8808   23.6071 H   0  0  0  0  0  0
  -26.2194  -23.3216   21.8651 H   0  0  0  0  0  0
  -26.2912  -24.5766   20.6841 H   0  0  0  0  0  0
  -27.6618  -25.1177   18.9148 H   0  0  0  0  0  0
  -29.2080  -25.7025   18.5582 H   0  0  0  0  0  0
  -31.5550  -18.6539   22.7605 H   0  0  0  0  0  0
  -29.8312  -18.7911   23.0181 H   0  0  0  0  0  0
  -31.0370  -17.4742   20.5460 H   0  0  0  0  0  0
  -29.3362  -17.5622   20.9633 H   0  0  0  0  0  0
  -29.7310  -20.1012   20.7958 H   0  0  0  0  0  0
  -31.4866  -20.1388   20.8395 H   0  0  0  0  0  0
  -29.8672  -16.3868   23.1600 H   0  0  0  0  0  0
  -31.5179  -16.1573   22.6176 H   0  0  0  0  0  0
  -30.0194  -20.9493   23.2221 H   0  0  0  0  0  0
  -29.1534  -14.7106   21.9041 H   0  0  0  0  0  0
  1 25  1  0  0  0
  1 30  2  0  0  0
  1 86  1  0  0  0
  2  3  1  0  0  0
  2 25  1  0  0  0
  2 87  1  0  0  0
  2 88  1  0  0  0
  3  4  1  0  0  0
  3 89  1  0  0  0
  3 90  1  0  0  0
  4  5  1  0  0  0
  4 91  1  0  0  0
  4 92  1  0  0  0
  5  6  1  0  0  0
  5 26  1  0  0  0
  5 93  1  0  0  0
  6 25  1  0  0  0
  6 94  1  0  0  0
  6 95  1  0  0  0
  7  8  2  0  0  0
  7 26  1  0  0  0
  7 29  1  0  0  0
  8  9  1  0  0  0
  8 22  1  0  0  0
  9 10  1  0  0  0
  9 27  2  0  0  0
 10 11  2  0  0  0
 10 15  1  0  0  0
 11 12  1  0  0  0
 11 96  1  0  0  0
 12 13  2  0  0  0
 12 97  1  0  0  0
 13 14  1  0  0  0
 13 31  1  0  0  0
 14 15  2  0  0  0
 14 98  1  0  0  0
 15 99  1  0  0  0
 16 17  2  0  0  0
 16 21  1  0  0  0
 16 31  1  0  0  0
 17 18  1  0  0  0
 17100  1  0  0  0
 18 19  2  0  0  0
 18101  1  0  0  0
 19 20  1  0  0  0
 19 24  1  0  0  0
 20 21  2  0  0  0
 20102  1  0  0  0
 21 23  1  0  0  0
 22 28  1  0  0  0
 22 32  2  0  0  0
 26 27  1  0  0  0
 28103  1  0  0  0
 28104  1  0  0  0
 29105  1  0  0  0
 29106  1  0  0  0
 33 34  1  0  0  0
 33 66  1  0  0  0
 33 70  2  0  0  0
 34 36  1  0  0  0
 34 59  1  0  0  0
 34107  1  0  0  0
 35 44  2  0  0  0
 35 45  1  0  0  0
 35 68  1  0  0  0
 36 56  1  0  0  0
 36108  1  0  0  0
 37 39  1  0  0  0
 37 47  1  0  0  0
 37 66  1  0  0  0
 37109  1  0  0  0
 38 43  2  0  0  0
 38 46  1  0  0  0
 38 47  1  0  0  0
 39 64  1  0  0  0
 39 67  2  0  0  0
 40 52  1  0  0  0
 40 53  2  0  0  0
 40 58  1  0  0  0
 41110  1  0  0  0
 41111  1  0  0  0
 41112  1  0  0  0
 41 48  1  0  0  0
 42 43  1  0  0  0
 42 66  1  0  0  0
 42113  1  0  0  0
 42114  1  0  0  0
 43 44  1  0  0  0
 44115  1  0  0  0
 45 46  2  0  0  0
 45116  1  0  0  0
 46117  1  0  0  0
 47118  1  0  0  0
 47119  1  0  0  0
 48 56  1  0  0  0
 48 65  1  0  0  0
 48120  1  0  0  0
 49 50  1  0  0  0
 49 53  1  0  0  0
 49 64  1  0  0  0
 49121  1  0  0  0
 50 51  1  0  0  0
 50122  1  0  0  0
 50123  1  0  0  0
 51 52  1  0  0  0
 51124  1  0  0  0
 51125  1  0  0  0
 52126  1  0  0  0
 52127  1  0  0  0
 53 54  1  0  0  0
 54 55  2  0  0  0
 54128  1  0  0  0
 55 57  1  0  0  0
 55129  1  0  0  0
 56 69  2  0  0  0
 57 58  2  0  0  0
 57130  1  0  0  0
 58131  1  0  0  0
 59 60  1  0  0  0
 59 61  1  0  0  0
 59 62  1  0  0  0
 60132  1  0  0  0
 60133  1  0  0  0
 60134  1  0  0  0
 61135  1  0  0  0
 61136  1  0  0  0
 61137  1  0  0  0
 62138  1  0  0  0
 62139  1  0  0  0
 62140  1  0  0  0
 63 65  1  0  0  0
 63141  1  0  0  0
 63142  1  0  0  0
 63143  1  0  0  0
 64144  1  0  0  0
 65145  1  0  0  0
 68 79  1  0  0  0
 71 72  2  0  0  0
 71 75  1  0  0  0
 71146  1  0  0  0
 72 73  1  0  0  0
 72 78  1  0  0  0
 73 74  2  0  0  0
 73 79  1  0  0  0
 74 76  1  0  0  0
 74 84  1  0  0  0
 75 84  2  0  0  0
 75 85  1  0  0  0
 76147  1  0  0  0
 76148  1  0  0  0
 76149  1  0  0  0
 77 78  1  0  0  0
 77150  1  0  0  0
 77151  1  0  0  0
 77152  1  0  0  0
 78153  1  0  0  0
 78154  1  0  0  0
 79155  1  0  0  0
 79156  1  0  0  0
 80 81  1  0  0  0
 80 82  1  0  0  0
 80157  1  0  0  0
 80158  1  0  0  0
 81 83  1  0  0  0
 81159  1  0  0  0
 81160  1  0  0  0
 82 85  1  0  0  0
 82161  1  0  0  0
 82162  1  0  0  0
 83 86  1  0  0  0
 83163  1  0  0  0
 83164  1  0  0  0
 85165  1  0  0  0
 86166  1  0  0  0
M  ISO  4   1 100  68 101  79 101  86 100
M  END
> <chiral flag>
0

> <version>
0

> <s_m_source_file>
/data/baiqing/PycharmProjects/Reinvent-master-3.2/result/LINK_invent/BTK/process_docking_weight1_custom_sum_contain_oxygen_bond_distance_aromatic_linkinvent_7_9_3/rearranged_h_0028.sdf

> <i_m_source_file_index>
33

> <r_mmod_Potential_Energy-OPLS-2005>
-284.605010986328

> <r_mmod_Stretch_Energy-OPLS-2005>
30.6516284942627

> <r_mmod_Bend_Energy-OPLS-2005>
108.884834289551

> <r_mmod_Torsional_Energy-OPLS-2005>
213.54931640625

> <r_mmod_Improper_Torsional_Energy-OPLS-2005>
7.89838361740112

> <r_mmod_Van_der_Waal_Energy-OPLS-2005>
169.346054077148

> <r_mmod_Electrostatic_Energy-OPLS-2005>
-588.402282714844

> <r_mmod_Solvation_Energy-OPLS-2005>
-240.260757446289

> <b_mmod_Minimization_Converged-OPLS-2005>
0

> <r_mmod_RMS_Derivative-OPLS-2005>
4.29954814910889

$$$$
33
                    3D
 Structure written by MMmdl.
159167  0  0  1  0            999 V2000
  -30.6844  -14.4770   20.5793 C   0  0  0  0  0  0
  -30.4289  -12.3098   19.4232 C   0  0  0  0  0  0
  -29.4970  -12.5090   18.2088 C   0  0  0  0  0  0
  -28.0179  -12.3674   18.6207 C   0  0  0  0  0  0
  -27.6647  -13.2032   19.8797 C   0  0  2  0  0  0
  -28.7046  -12.9695   20.9988 C   0  0  0  0  0  0
  -25.2602  -13.8153   20.5678 C   0  0  0  0  0  0
  -24.1844  -13.0436   20.9164 C   0  0  0  0  0  0
  -24.6394  -11.6901   20.8730 C   0  0  0  0  0  0
  -23.9059  -10.4291   21.0405 C   0  0  0  0  0  0
  -24.3612   -9.4207   21.9185 C   0  0  0  0  0  0
  -23.6288   -8.2242   22.0755 C   0  0  0  0  0  0
  -22.4271   -8.0280   21.3545 C   0  0  0  0  0  0
  -21.9905   -9.0253   20.4648 C   0  0  0  0  0  0
  -22.7232  -10.2133   20.3056 C   0  0  0  0  0  0
  -21.6851   -6.0734   22.5278 C   0  0  0  0  0  0
  -21.4013   -6.5639   23.8211 C   0  0  0  0  0  0
  -21.3659   -5.6793   24.9174 C   0  0  0  0  0  0
  -21.6044   -4.3055   24.7226 C   0  0  0  0  0  0
  -21.8820   -3.8146   23.4347 C   0  0  0  0  0  0
  -21.9193   -4.6962   22.3402 C   0  0  0  0  0  0
  -22.7869  -13.5241   21.1833 C   0  0  0  0  0  0
  -22.1661   -4.2148   21.0980 F   0  0  0  0  0  0
  -21.5630   -3.4539   25.7739 F   0  0  0  0  0  0
  -30.0386  -13.2844   20.4545 N   0  0  0  0  0  0
  -26.3039  -12.9316   20.3383 N   0  0  0  0  0  0
  -25.9322  -11.6478   20.5770 N   0  0  0  0  0  0
  -22.0511  -12.8234   22.0392 N   0  0  0  0  0  0
  -25.4340  -15.1868   20.4092 N   0  0  0  0  0  0
  -31.7983  -14.6830   20.0881 O   0  0  0  0  0  0
  -21.6637   -6.8876   21.4240 O   0  0  0  0  0  0
  -22.3554  -14.5549   20.6687 O   0  0  0  0  0  0
  -24.6143  -31.8671   23.2102 C   0  0  0  0  0  0
  -25.9035  -32.4817   23.8394 C   0  0  1  0  0  0
  -27.2402  -27.4276   20.0837 C   0  0  0  0  0  0
  -25.5892  -33.8619   24.2322 N   0  0  0  0  0  0
  -23.4026  -30.4903   21.5506 C   0  0  2  0  0  0
  -24.8486  -28.9533   20.1153 C   0  0  0  0  0  0
  -22.7403  -29.4651   22.4992 C   0  0  0  0  0  0
  -18.0267  -28.1367   22.8490 C   0  0  0  0  0  0
  -24.1485  -36.7319   23.2638 C   0  0  0  0  0  0
  -25.9320  -30.8269   21.3661 C   0  0  0  0  0  0
  -26.0074  -29.4590   20.7160 C   0  0  0  0  0  0
  -27.2000  -28.6986   20.7067 C   0  0  0  0  0  0
  -26.0557  -26.9344   19.4875 C   0  0  0  0  0  0
  -24.8668  -27.6886   19.5036 C   0  0  0  0  0  0
  -23.6114  -29.8219   20.1651 C   0  0  0  0  0  0
  -25.4105  -36.3111   24.0335 C   0  0  1  0  0  0
  -20.5856  -28.3655   23.1317 C   0  0  2  0  0  0
  -20.6754  -26.9391   22.5417 C   0  0  0  0  0  0
  -19.5739  -26.6378   21.5206 C   0  0  0  0  0  0
  -18.1918  -26.7914   22.1616 C   0  0  0  0  0  0
  -19.1517  -28.8826   23.2900 C   0  0  0  0  0  0
  -18.9447  -30.1432   23.8909 C   0  0  0  0  0  0
  -17.6451  -30.6574   24.0562 C   0  0  0  0  0  0
  -25.9033  -34.9475   23.5129 C   0  0  0  0  0  0
  -16.5340  -29.9079   23.6322 C   0  0  0  0  0  0
  -16.7257  -28.6495   23.0345 C   0  0  0  0  0  0
  -26.4469  -31.6599   25.0722 C   0  0  0  0  0  0
  -25.3744  -31.3699   26.1478 C   0  0  0  0  0  0
  -27.0299  -30.3041   24.6097 C   0  0  0  0  0  0
  -27.6052  -32.4316   25.7475 C   0  0  0  0  0  0
  -27.5581  -37.1809   24.8462 C   0  0  0  0  0  0
  -21.4132  -29.3027   22.3728 N   0  0  0  0  0  0
  -26.4291  -37.3795   23.9411 N   0  0  0  0  0  0
  -24.6679  -31.0761   22.1007 N   0  0  0  0  0  0
  -23.4173  -28.8195   23.3037 O   0  0  0  0  0  0
  -28.4265  -26.7135   20.0959 O   0  0  0  0  0  0
  -26.5601  -34.8924   22.4693 O   0  0  0  0  0  0
  -23.5336  -32.1434   23.7490 O   0  0  0  0  0  0
  -30.9348  -17.5958   20.3090 C   0  0  0  0  0  0
  -29.1654  -18.9935   21.9801 C   0  0  0  0  0  0
  -30.9349  -19.0144   20.3104 C   0  0  0  0  0  0
  -30.0548  -19.7329   21.1670 C   0  0  0  0  0  0
  -30.0612  -16.8626   21.1498 C   0  0  0  0  0  0
  -29.1675  -17.5821   21.9692 C   0  0  0  0  0  0
  -31.9129  -19.7363   19.3965 C   0  0  0  0  0  0
  -30.0984  -21.2687   21.3015 C   0  0  0  0  0  0
  -28.2544  -24.2309   19.5706 C   0  0  0  0  0  0
  -29.3269  -23.4753   20.4041 C   0  0  0  0  0  0
  -28.6396  -25.6720   19.1286 C   0  0  0  0  0  0
  -29.9777  -15.4338   21.2120 N   0  0  0  0  0  0
  -29.1180  -21.9972   20.4571 N   0  3  0  0  0  0
  -28.3043  -16.9032   22.7634 F   0  0  0  0  0  0
  -31.4724  -12.4161   19.1214 H   0  0  0  0  0  0
  -30.3364  -11.2956   19.8147 H   0  0  0  0  0  0
  -29.7370  -11.7865   17.4277 H   0  0  0  0  0  0
  -29.6635  -13.4957   17.7737 H   0  0  0  0  0  0
  -27.8287  -11.3109   18.8146 H   0  0  0  0  0  0
  -27.3669  -12.6438   17.7906 H   0  0  0  0  0  0
  -27.7137  -14.2531   19.5898 H   0  0  0  0  0  0
  -28.6819  -11.9283   21.3239 H   0  0  0  0  0  0
  -28.4575  -13.5502   21.8884 H   0  0  0  0  0  0
  -25.2760   -9.5681   22.4757 H   0  0  0  0  0  0
  -23.9998   -7.4634   22.7475 H   0  0  0  0  0  0
  -21.0837   -8.8771   19.8955 H   0  0  0  0  0  0
  -22.3693  -10.9670   19.6162 H   0  0  0  0  0  0
  -21.2005   -7.6148   23.9714 H   0  0  0  0  0  0
  -21.1482   -6.0523   25.9076 H   0  0  0  0  0  0
  -22.0600   -2.7607   23.2847 H   0  0  0  0  0  0
  -22.4121  -11.9885   22.4764 H   0  0  0  0  0  0
  -21.1134  -13.1266   22.2609 H   0  0  0  0  0  0
  -24.6747  -15.8477   20.5311 H   0  0  0  0  0  0
  -26.2995  -15.6265   20.1226 H   0  0  0  0  0  0
  -26.7106  -32.5523   23.1158 H   0  0  0  0  0  0
  -25.0033  -33.9788   25.0460 H   0  0  0  0  0  0
  -22.6914  -31.3069   21.4112 H   0  0  0  0  0  0
  -23.3742  -35.9657   23.3297 H   0  0  0  0  0  0
  -24.3584  -36.8941   22.2055 H   0  0  0  0  0  0
  -23.7241  -37.6524   23.6657 H   0  0  0  0  0  0
  -26.0444  -31.5910   20.5955 H   0  0  0  0  0  0
  -26.8205  -30.8823   21.9831 H   0  0  0  0  0  0
  -28.0950  -29.0882   21.1716 H   0  0  0  0  0  0
  -26.0278  -25.9647   19.0132 H   0  0  0  0  0  0
  -23.9733  -27.2905   19.0425 H   0  0  0  0  0  0
  -23.7199  -30.5966   19.4049 H   0  0  0  0  0  0
  -22.7349  -29.2422   19.8700 H   0  0  0  0  0  0
  -25.1280  -36.1979   25.0829 H   0  0  0  0  0  0
  -20.9943  -28.3218   24.1439 H   0  0  0  0  0  0
  -20.5645  -26.2262   23.3602 H   0  0  0  0  0  0
  -21.6629  -26.7432   22.1219 H   0  0  0  0  0  0
  -19.6904  -25.6295   21.1222 H   0  0  0  0  0  0
  -19.6679  -27.3197   20.6742 H   0  0  0  0  0  0
  -17.4188  -26.6662   21.4016 H   0  0  0  0  0  0
  -18.0322  -26.0049   22.9005 H   0  0  0  0  0  0
  -19.7924  -30.7240   24.2286 H   0  0  0  0  0  0
  -17.5009  -31.6259   24.5157 H   0  0  0  0  0  0
  -15.5343  -30.2987   23.7638 H   0  0  0  0  0  0
  -15.8655  -28.0821   22.7051 H   0  0  0  0  0  0
  -24.5904  -30.7061   25.7816 H   0  0  0  0  0  0
  -24.8949  -32.2851   26.4958 H   0  0  0  0  0  0
  -25.8107  -30.8842   27.0215 H   0  0  0  0  0  0
  -26.2836  -29.6796   24.1172 H   0  0  0  0  0  0
  -27.4092  -29.7285   25.4551 H   0  0  0  0  0  0
  -27.8662  -30.4358   23.9228 H   0  0  0  0  0  0
  -27.2681  -33.3613   26.2072 H   0  0  0  0  0  0
  -28.3845  -32.6883   25.0287 H   0  0  0  0  0  0
  -28.0735  -31.8427   26.5371 H   0  0  0  0  0  0
  -28.2596  -38.0111   24.7520 H   0  0  0  0  0  0
  -28.1081  -36.2644   24.6269 H   0  0  0  0  0  0
  -27.2302  -37.1438   25.8865 H   0  0  0  0  0  0
  -20.9287  -29.8767   21.6971 H   0  0  0  0  0  0
  -26.0179  -38.2872   24.1419 H   0  0  0  0  0  0
  -31.6196  -17.0808   19.6518 H   0  0  0  0  0  0
  -28.4835  -19.5052   22.6440 H   0  0  0  0  0  0
  -32.3684  -19.0510   18.6806 H   0  0  0  0  0  0
  -32.7178  -20.1897   19.9759 H   0  0  0  0  0  0
  -31.4150  -20.5179   18.8225 H   0  0  0  0  0  0
  -31.1047  -21.6256   21.0817 H   0  0  0  0  0  0
  -29.9234  -21.5341   22.3453 H   0  0  0  0  0  0
  -27.2980  -24.2350   20.0937 H   0  0  0  0  0  0
  -28.0872  -23.6619   18.6552 H   0  0  0  0  0  0
  -29.3498  -23.8820   21.4164 H   0  0  0  0  0  0
  -30.3136  -23.6596   19.9762 H   0  0  0  0  0  0
  -28.1341  -25.9211   18.1944 H   0  0  0  0  0  0
  -29.6977  -25.6900   18.8646 H   0  0  0  0  0  0
  -29.1596  -15.0957   21.6968 H   0  0  0  0  0  0
  -28.1955  -21.8005   20.8089 H   0  0  0  0  0  0
  -29.1759  -21.6245   19.5241 H   0  0  0  0  0  0
  1 25  1  0  0  0
  1 30  2  0  0  0
  1 82  1  0  0  0
  2  3  1  0  0  0
  2 25  1  0  0  0
  2 85  1  0  0  0
  2 86  1  0  0  0
  3  4  1  0  0  0
  3 87  1  0  0  0
  3 88  1  0  0  0
  4  5  1  0  0  0
  4 89  1  0  0  0
  4 90  1  0  0  0
  5  6  1  0  0  0
  5 26  1  0  0  0
  5 91  1  0  0  0
  6 25  1  0  0  0
  6 92  1  0  0  0
  6 93  1  0  0  0
  7  8  2  0  0  0
  7 26  1  0  0  0
  7 29  1  0  0  0
  8  9  1  0  0  0
  8 22  1  0  0  0
  9 10  1  0  0  0
  9 27  2  0  0  0
 10 11  2  0  0  0
 10 15  1  0  0  0
 11 12  1  0  0  0
 11 94  1  0  0  0
 12 13  2  0  0  0
 12 95  1  0  0  0
 13 14  1  0  0  0
 13 31  1  0  0  0
 14 15  2  0  0  0
 14 96  1  0  0  0
 15 97  1  0  0  0
 16 17  2  0  0  0
 16 21  1  0  0  0
 16 31  1  0  0  0
 17 18  1  0  0  0
 17 98  1  0  0  0
 18 19  2  0  0  0
 18 99  1  0  0  0
 19 20  1  0  0  0
 19 24  1  0  0  0
 20 21  2  0  0  0
 20100  1  0  0  0
 21 23  1  0  0  0
 22 28  1  0  0  0
 22 32  2  0  0  0
 26 27  1  0  0  0
 28101  1  0  0  0
 28102  1  0  0  0
 29103  1  0  0  0
 29104  1  0  0  0
 33 34  1  0  0  0
 33 66  1  0  0  0
 33 70  2  0  0  0
 34 36  1  0  0  0
 34 59  1  0  0  0
 34105  1  0  0  0
 35 44  2  0  0  0
 35 45  1  0  0  0
 35 68  1  0  0  0
 36 56  1  0  0  0
 36106  1  0  0  0
 37 39  1  0  0  0
 37 47  1  0  0  0
 37 66  1  0  0  0
 37107  1  0  0  0
 38 43  2  0  0  0
 38 46  1  0  0  0
 38 47  1  0  0  0
 39 64  1  0  0  0
 39 67  2  0  0  0
 40 52  1  0  0  0
 40 53  2  0  0  0
 40 58  1  0  0  0
 41108  1  0  0  0
 41109  1  0  0  0
 41110  1  0  0  0
 41 48  1  0  0  0
 42 43  1  0  0  0
 42 66  1  0  0  0
 42111  1  0  0  0
 42112  1  0  0  0
 43 44  1  0  0  0
 44113  1  0  0  0
 45 46  2  0  0  0
 45114  1  0  0  0
 46115  1  0  0  0
 47116  1  0  0  0
 47117  1  0  0  0
 48 56  1  0  0  0
 48 65  1  0  0  0
 48118  1  0  0  0
 49 50  1  0  0  0
 49 53  1  0  0  0
 49 64  1  0  0  0
 49119  1  0  0  0
 50 51  1  0  0  0
 50120  1  0  0  0
 50121  1  0  0  0
 51 52  1  0  0  0
 51122  1  0  0  0
 51123  1  0  0  0
 52124  1  0  0  0
 52125  1  0  0  0
 53 54  1  0  0  0
 54 55  2  0  0  0
 54126  1  0  0  0
 55 57  1  0  0  0
 55127  1  0  0  0
 56 69  2  0  0  0
 57 58  2  0  0  0
 57128  1  0  0  0
 58129  1  0  0  0
 59 60  1  0  0  0
 59 61  1  0  0  0
 59 62  1  0  0  0
 60130  1  0  0  0
 60131  1  0  0  0
 60132  1  0  0  0
 61133  1  0  0  0
 61134  1  0  0  0
 61135  1  0  0  0
 62136  1  0  0  0
 62137  1  0  0  0
 62138  1  0  0  0
 63 65  1  0  0  0
 63139  1  0  0  0
 63140  1  0  0  0
 63141  1  0  0  0
 64142  1  0  0  0
 65143  1  0  0  0
 68 81  1  0  0  0
 71 73  2  0  0  0
 71 75  1  0  0  0
 71144  1  0  0  0
 72 74  2  0  0  0
 72 76  1  0  0  0
 72145  1  0  0  0
 73 74  1  0  0  0
 73 77  1  0  0  0
 74 78  1  0  0  0
 75 76  2  0  0  0
 75 82  1  0  0  0
 76 84  1  0  0  0
 77146  1  0  0  0
 77147  1  0  0  0
 77148  1  0  0  0
 78 83  1  0  0  0
 78149  1  0  0  0
 78150  1  0  0  0
 79 80  1  0  0  0
 79 81  1  0  0  0
 79151  1  0  0  0
 79152  1  0  0  0
 80 83  1  0  0  0
 80153  1  0  0  0
 80154  1  0  0  0
 81155  1  0  0  0
 81156  1  0  0  0
 82157  1  0  0  0
 83158  1  0  0  0
 83159  1  0  0  0
M  CHG  1  83   1
M  ISO  4   1 100  68 101  81 101  82 100
M  END
> <chiral flag>
0

> <version>
0

> <s_m_source_file>
/data/baiqing/PycharmProjects/Reinvent-master-3.2/result/LINK_invent/BTK/process_docking_weight1_custom_sum_contain_oxygen_bond_distance_aromatic_linkinvent_7_9_3/rearranged_h_0028.sdf

> <i_m_source_file_index>
34

> <r_mmod_Potential_Energy-OPLS-2005>
-287.882965087891

> <r_mmod_Stretch_Energy-OPLS-2005>
40.4155158996582

> <r_mmod_Bend_Energy-OPLS-2005>
109.410118103027

> <r_mmod_Torsional_Energy-OPLS-2005>
200.374450683594

> <r_mmod_Improper_Torsional_Energy-OPLS-2005>
2.83378553390503

> <r_mmod_Van_der_Waal_Energy-OPLS-2005>
153.345916748047

> <r_mmod_Electrostatic_Energy-OPLS-2005>
-333.867309570312

> <r_mmod_Solvation_Energy-OPLS-2005>
-472.930419921875

> <b_mmod_Minimization_Converged-OPLS-2005>
0

> <r_mmod_RMS_Derivative-OPLS-2005>
0.420994400978088

$$$$
34
                    3D
 Structure written by MMmdl.
168176  0  0  1  0            999 V2000
  -30.7031  -14.3950   20.6346 C   0  0  0  0  0  0
  -30.4292  -12.2787   19.3958 C   0  0  0  0  0  0
  -29.4936  -12.5214   18.1927 C   0  0  0  0  0  0
  -28.0167  -12.3637   18.6127 C   0  0  0  0  0  0
  -27.6719  -13.1838   19.8842 C   0  0  2  0  0  0
  -28.7109  -12.8990   20.9926 C   0  0  0  0  0  0
  -25.2655  -13.8139   20.5671 C   0  0  0  0  0  0
  -24.1860  -13.0429   20.9144 C   0  0  0  0  0  0
  -24.6396  -11.6899   20.8711 C   0  0  0  0  0  0
  -23.9008  -10.4312   21.0378 C   0  0  0  0  0  0
  -24.3547   -9.4249   21.9177 C   0  0  0  0  0  0
  -23.6261   -8.2271   22.0776 C   0  0  0  0  0  0
  -22.4270   -8.0273   21.3545 C   0  0  0  0  0  0
  -21.9892   -9.0224   20.4627 C   0  0  0  0  0  0
  -22.7194  -10.2120   20.3011 C   0  0  0  0  0  0
  -21.6852   -6.0735   22.5290 C   0  0  0  0  0  0
  -21.4009   -6.5643   23.8217 C   0  0  0  0  0  0
  -21.3628   -5.6790   24.9173 C   0  0  0  0  0  0
  -21.6032   -4.3061   24.7226 C   0  0  0  0  0  0
  -21.8820   -3.8155   23.4356 C   0  0  0  0  0  0
  -21.9197   -4.6960   22.3411 C   0  0  0  0  0  0
  -22.7876  -13.5258   21.1808 C   0  0  0  0  0  0
  -22.1671   -4.2140   21.0989 F   0  0  0  0  0  0
  -21.5612   -3.4545   25.7738 F   0  0  0  0  0  0
  -30.0470  -13.2214   20.4548 N   0  0  0  0  0  0
  -26.3083  -12.9249   20.3413 N   0  0  0  0  0  0
  -25.9319  -11.6423   20.5759 N   0  0  0  0  0  0
  -22.0536  -12.8250   22.0388 N   0  0  0  0  0  0
  -25.4425  -15.1867   20.4141 N   0  0  0  0  0  0
  -31.7718  -14.6770   20.0795 O   0  0  0  0  0  0
  -21.6641   -6.8871   21.4256 O   0  0  0  0  0  0
  -22.3522  -14.5531   20.6631 O   0  0  0  0  0  0
  -24.6125  -31.8716   23.2112 C   0  0  0  0  0  0
  -25.9034  -32.4850   23.8398 C   0  0  1  0  0  0
  -27.2439  -27.4655   20.0903 C   0  0  0  0  0  0
  -25.5897  -33.8639   24.2342 N   0  0  0  0  0  0
  -23.3999  -30.4950   21.5519 C   0  0  2  0  0  0
  -24.8487  -28.9619   20.1150 C   0  0  0  0  0  0
  -22.7408  -29.4690   22.4996 C   0  0  0  0  0  0
  -18.0282  -28.1409   22.8514 C   0  0  0  0  0  0
  -24.1484  -36.7295   23.2641 C   0  0  0  0  0  0
  -25.9272  -30.8440   21.3650 C   0  0  0  0  0  0
  -26.0056  -29.4826   20.7064 C   0  0  0  0  0  0
  -27.2057  -28.7412   20.6912 C   0  0  0  0  0  0
  -26.0731  -26.9509   19.4900 C   0  0  0  0  0  0
  -24.8742  -27.6917   19.5081 C   0  0  0  0  0  0
  -23.6074  -29.8255   20.1671 C   0  0  0  0  0  0
  -25.4113  -36.3133   24.0352 C   0  0  1  0  0  0
  -20.5881  -28.3690   23.1343 C   0  0  2  0  0  0
  -20.6784  -26.9430   22.5435 C   0  0  0  0  0  0
  -19.5745  -26.6427   21.5237 C   0  0  0  0  0  0
  -18.1922  -26.7966   22.1644 C   0  0  0  0  0  0
  -19.1538  -28.8860   23.2938 C   0  0  0  0  0  0
  -18.9458  -30.1467   23.8938 C   0  0  0  0  0  0
  -17.6459  -30.6607   24.0591 C   0  0  0  0  0  0
  -25.9038  -34.9498   23.5154 C   0  0  0  0  0  0
  -16.5348  -29.9112   23.6346 C   0  0  0  0  0  0
  -16.7274  -28.6540   23.0356 C   0  0  0  0  0  0
  -26.4479  -31.6612   25.0700 C   0  0  0  0  0  0
  -25.3754  -31.3700   26.1449 C   0  0  0  0  0  0
  -27.0302  -30.3056   24.6070 C   0  0  0  0  0  0
  -27.6090  -32.4313   25.7427 C   0  0  0  0  0  0
  -27.5585  -37.1810   24.8480 C   0  0  0  0  0  0
  -21.4143  -29.3042   22.3714 N   0  0  0  0  0  0
  -26.4297  -37.3815   23.9421 N   0  0  0  0  0  0
  -24.6639  -31.0830   22.1009 N   0  0  0  0  0  0
  -23.4189  -28.8250   23.3046 O   0  0  0  0  0  0
  -28.4232  -26.7503   20.0926 O   0  0  0  0  0  0
  -26.5601  -34.8947   22.4712 O   0  0  0  0  0  0
  -23.5329  -32.1446   23.7540 O   0  0  0  0  0  0
  -28.1555  -19.4200   19.1200 C   0  0  0  0  0  0
  -29.4893  -17.4060   19.4133 C   0  0  0  0  0  0
  -28.2626  -19.6971   20.5010 C   0  0  0  0  0  0
  -29.6137  -17.6616   20.7961 C   0  0  0  0  0  0
  -28.7750  -18.2807   18.5771 C   0  0  0  0  0  0
  -29.0231  -18.8363   21.3340 C   0  0  0  0  0  0
  -30.1552  -24.0215   19.4352 C   0  0  0  0  0  0
  -29.7835  -25.7637   21.7206 C   0  0  0  0  0  0
  -27.3406  -25.3247   21.8571 C   0  0  0  0  0  0
  -27.4932  -20.8759   21.0870 C   0  0  0  0  0  0
  -30.3878  -16.6660   21.6652 C   0  0  0  0  0  0
  -28.2887  -22.1998   21.1560 C   0  0  0  0  0  0
  -28.6988  -24.3601   19.8253 C   0  0  2  0  0  0
  -28.5208  -25.5312   20.8663 C   0  0  0  0  0  0
  -30.0443  -15.2707   21.4020 N   0  0  0  0  0  0
  -27.8879  -23.1332   20.0700 N   0  3  0  0  0  0
  -28.6263  -17.9247   16.8961 Cl  0  0  0  0  0  0
  -29.2065  -19.2261   23.0123 Cl  0  0  0  0  0  0
  -31.4774  -12.3810   19.1068 H   0  0  0  0  0  0
  -30.3148  -11.2541   19.7551 H   0  0  0  0  0  0
  -29.7296  -11.8306   17.3835 H   0  0  0  0  0  0
  -29.6542  -13.5225   17.7878 H   0  0  0  0  0  0
  -27.8467  -11.3044   18.8073 H   0  0  0  0  0  0
  -27.3531  -12.6308   17.7882 H   0  0  0  0  0  0
  -27.7382  -14.2384   19.6203 H   0  0  0  0  0  0
  -28.6868  -11.8431   21.2634 H   0  0  0  0  0  0
  -28.4638  -13.4238   21.9144 H   0  0  0  0  0  0
  -25.2681   -9.5767   22.4757 H   0  0  0  0  0  0
  -23.9963   -7.4698   22.7545 H   0  0  0  0  0  0
  -21.0820   -8.8691   19.8957 H   0  0  0  0  0  0
  -22.3619  -10.9613   19.6078 H   0  0  0  0  0  0
  -21.2006   -7.6154   23.9708 H   0  0  0  0  0  0
  -21.1431   -6.0535   25.9060 H   0  0  0  0  0  0
  -22.0627   -2.7623   23.2870 H   0  0  0  0  0  0
  -22.4243  -11.9966   22.4813 H   0  0  0  0  0  0
  -21.1181  -13.1331   22.2642 H   0  0  0  0  0  0
  -24.6884  -15.8504   20.5602 H   0  0  0  0  0  0
  -26.3074  -15.6354   20.1393 H   0  0  0  0  0  0
  -26.7096  -32.5582   23.1159 H   0  0  0  0  0  0
  -25.0054  -33.9795   25.0494 H   0  0  0  0  0  0
  -22.6888  -31.3129   21.4163 H   0  0  0  0  0  0
  -23.3768  -35.9603   23.3335 H   0  0  0  0  0  0
  -24.3572  -36.8862   22.2045 H   0  0  0  0  0  0
  -23.7198  -37.6499   23.6617 H   0  0  0  0  0  0
  -26.0473  -31.6179   20.6053 H   0  0  0  0  0  0
  -26.8112  -30.8884   21.9900 H   0  0  0  0  0  0
  -28.0993  -29.1382   21.1515 H   0  0  0  0  0  0
  -26.0834  -25.9799   19.0164 H   0  0  0  0  0  0
  -23.9810  -27.2840   19.0536 H   0  0  0  0  0  0
  -23.7160  -30.6025   19.4098 H   0  0  0  0  0  0
  -22.7317  -29.2465   19.8685 H   0  0  0  0  0  0
  -25.1288  -36.2010   25.0842 H   0  0  0  0  0  0
  -21.0001  -28.3264   24.1455 H   0  0  0  0  0  0
  -20.5756  -26.2271   23.3607 H   0  0  0  0  0  0
  -21.6646  -26.7514   22.1178 H   0  0  0  0  0  0
  -19.6911  -25.6356   21.1212 H   0  0  0  0  0  0
  -19.6697  -27.3291   20.6811 H   0  0  0  0  0  0
  -17.4216  -26.6768   21.4018 H   0  0  0  0  0  0
  -18.0299  -26.0090   22.9018 H   0  0  0  0  0  0
  -19.7928  -30.7298   24.2313 H   0  0  0  0  0  0
  -17.5008  -31.6289   24.5191 H   0  0  0  0  0  0
  -15.5357  -30.3032   23.7635 H   0  0  0  0  0  0
  -15.8676  -28.0873   22.7036 H   0  0  0  0  0  0
  -24.5928  -30.7051   25.7763 H   0  0  0  0  0  0
  -24.8943  -32.2849   26.4919 H   0  0  0  0  0  0
  -25.8109  -30.8839   27.0188 H   0  0  0  0  0  0
  -26.2860  -29.6847   24.1064 H   0  0  0  0  0  0
  -27.4001  -29.7257   25.4535 H   0  0  0  0  0  0
  -27.8732  -30.4370   23.9277 H   0  0  0  0  0  0
  -27.2756  -33.3611   26.2042 H   0  0  0  0  0  0
  -28.3860  -32.6867   25.0208 H   0  0  0  0  0  0
  -28.0805  -31.8403   26.5286 H   0  0  0  0  0  0
  -28.2648  -38.0072   24.7542 H   0  0  0  0  0  0
  -28.1044  -36.2615   24.6311 H   0  0  0  0  0  0
  -27.2304  -37.1467   25.8883 H   0  0  0  0  0  0
  -20.9289  -29.8667   21.6859 H   0  0  0  0  0  0
  -26.0203  -38.2899   24.1419 H   0  0  0  0  0  0
  -27.5818  -20.0637   18.4687 H   0  0  0  0  0  0
  -29.9423  -16.5280   18.9804 H   0  0  0  0  0  0
  -30.6623  -24.8952   19.0263 H   0  0  0  0  0  0
  -30.1989  -23.2475   18.6691 H   0  0  0  0  0  0
  -30.7383  -23.6719   20.2879 H   0  0  0  0  0  0
  -30.6532  -26.0141   21.1108 H   0  0  0  0  0  0
  -30.0339  -24.8890   22.3199 H   0  0  0  0  0  0
  -29.6384  -26.5944   22.4111 H   0  0  0  0  0  0
  -26.4372  -24.9614   21.3693 H   0  0  0  0  0  0
  -27.0808  -26.2462   22.3750 H   0  0  0  0  0  0
  -27.5985  -24.6289   22.6525 H   0  0  0  0  0  0
  -27.1330  -20.6083   22.0809 H   0  0  0  0  0  0
  -26.5757  -21.0001   20.5094 H   0  0  0  0  0  0
  -30.1906  -16.8292   22.7252 H   0  0  0  0  0  0
  -31.4564  -16.8303   21.5201 H   0  0  0  0  0  0
  -29.3615  -21.9995   21.1603 H   0  0  0  0  0  0
  -28.0667  -22.6586   22.1174 H   0  0  0  0  0  0
  -28.2499  -24.7282   18.9012 H   0  0  0  0  0  0
  -29.1839  -14.9333   21.8086 H   0  0  0  0  0  0
  -27.8775  -22.6102   19.2076 H   0  0  0  0  0  0
  -26.9375  -23.4259   20.2397 H   0  0  0  0  0  0
  1 25  1  0  0  0
  1 30  2  0  0  0
  1 85  1  0  0  0
  2  3  1  0  0  0
  2 25  1  0  0  0
  2 89  1  0  0  0
  2 90  1  0  0  0
  3  4  1  0  0  0
  3 91  1  0  0  0
  3 92  1  0  0  0
  4  5  1  0  0  0
  4 93  1  0  0  0
  4 94  1  0  0  0
  5  6  1  0  0  0
  5 26  1  0  0  0
  5 95  1  0  0  0
  6 25  1  0  0  0
  6 96  1  0  0  0
  6 97  1  0  0  0
  7  8  2  0  0  0
  7 26  1  0  0  0
  7 29  1  0  0  0
  8  9  1  0  0  0
  8 22  1  0  0  0
  9 10  1  0  0  0
  9 27  2  0  0  0
 10 11  2  0  0  0
 10 15  1  0  0  0
 11 12  1  0  0  0
 11 98  1  0  0  0
 12 13  2  0  0  0
 12 99  1  0  0  0
 13 14  1  0  0  0
 13 31  1  0  0  0
 14 15  2  0  0  0
 14100  1  0  0  0
 15101  1  0  0  0
 16 17  2  0  0  0
 16 21  1  0  0  0
 16 31  1  0  0  0
 17 18  1  0  0  0
 17102  1  0  0  0
 18 19  2  0  0  0
 18103  1  0  0  0
 19 20  1  0  0  0
 19 24  1  0  0  0
 20 21  2  0  0  0
 20104  1  0  0  0
 21 23  1  0  0  0
 22 28  1  0  0  0
 22 32  2  0  0  0
 26 27  1  0  0  0
 28105  1  0  0  0
 28106  1  0  0  0
 29107  1  0  0  0
 29108  1  0  0  0
 33 34  1  0  0  0
 33 66  1  0  0  0
 33 70  2  0  0  0
 34 36  1  0  0  0
 34 59  1  0  0  0
 34109  1  0  0  0
 35 44  2  0  0  0
 35 45  1  0  0  0
 35 68  1  0  0  0
 36 56  1  0  0  0
 36110  1  0  0  0
 37 39  1  0  0  0
 37 47  1  0  0  0
 37 66  1  0  0  0
 37111  1  0  0  0
 38 43  2  0  0  0
 38 46  1  0  0  0
 38 47  1  0  0  0
 39 64  1  0  0  0
 39 67  2  0  0  0
 40 52  1  0  0  0
 40 53  2  0  0  0
 40 58  1  0  0  0
 41112  1  0  0  0
 41113  1  0  0  0
 41114  1  0  0  0
 41 48  1  0  0  0
 42 43  1  0  0  0
 42 66  1  0  0  0
 42115  1  0  0  0
 42116  1  0  0  0
 43 44  1  0  0  0
 44117  1  0  0  0
 45 46  2  0  0  0
 45118  1  0  0  0
 46119  1  0  0  0
 47120  1  0  0  0
 47121  1  0  0  0
 48 56  1  0  0  0
 48 65  1  0  0  0
 48122  1  0  0  0
 49 50  1  0  0  0
 49 53  1  0  0  0
 49 64  1  0  0  0
 49123  1  0  0  0
 50 51  1  0  0  0
 50124  1  0  0  0
 50125  1  0  0  0
 51 52  1  0  0  0
 51126  1  0  0  0
 51127  1  0  0  0
 52128  1  0  0  0
 52129  1  0  0  0
 53 54  1  0  0  0
 54 55  2  0  0  0
 54130  1  0  0  0
 55 57  1  0  0  0
 55131  1  0  0  0
 56 69  2  0  0  0
 57 58  2  0  0  0
 57132  1  0  0  0
 58133  1  0  0  0
 59 60  1  0  0  0
 59 61  1  0  0  0
 59 62  1  0  0  0
 60134  1  0  0  0
 60135  1  0  0  0
 60136  1  0  0  0
 61137  1  0  0  0
 61138  1  0  0  0
 61139  1  0  0  0
 62140  1  0  0  0
 62141  1  0  0  0
 62142  1  0  0  0
 63 65  1  0  0  0
 63143  1  0  0  0
 63144  1  0  0  0
 63145  1  0  0  0
 64146  1  0  0  0
 65147  1  0  0  0
 68 84  1  0  0  0
 71 73  2  0  0  0
 71 75  1  0  0  0
 71148  1  0  0  0
 72 74  1  0  0  0
 72 75  2  0  0  0
 72149  1  0  0  0
 73 76  1  0  0  0
 73 80  1  0  0  0
 74 76  2  0  0  0
 74 81  1  0  0  0
 75 87  1  0  0  0
 76 88  1  0  0  0
 77150  1  0  0  0
 77151  1  0  0  0
 77152  1  0  0  0
 77 83  1  0  0  0
 78153  1  0  0  0
 78154  1  0  0  0
 78155  1  0  0  0
 78 84  1  0  0  0
 79 84  1  0  0  0
 79156  1  0  0  0
 79157  1  0  0  0
 79158  1  0  0  0
 80 82  1  0  0  0
 80159  1  0  0  0
 80160  1  0  0  0
 81 85  1  0  0  0
 81161  1  0  0  0
 81162  1  0  0  0
 82 86  1  0  0  0
 82163  1  0  0  0
 82164  1  0  0  0
 83 84  1  0  0  0
 83 86  1  0  0  0
 83165  1  0  0  0
 85166  1  0  0  0
 86167  1  0  0  0
 86168  1  0  0  0
M  CHG  1  86   1
M  ISO  4   1 100  68 101  84 101  85 100
M  END
> <chiral flag>
0

> <version>
0

> <s_m_source_file>
/data/baiqing/PycharmProjects/Reinvent-master-3.2/result/LINK_invent/BTK/process_docking_weight1_custom_sum_contain_oxygen_bond_distance_aromatic_linkinvent_7_9_3/rearranged_h_0028.sdf

> <i_m_source_file_index>
35

> <r_mmod_Potential_Energy-OPLS-2005>
-175.392059326172

> <r_mmod_Stretch_Energy-OPLS-2005>
39.1866340637207

> <r_mmod_Bend_Energy-OPLS-2005>
114.419509887695

> <r_mmod_Torsional_Energy-OPLS-2005>
275.843505859375

> <r_mmod_Improper_Torsional_Energy-OPLS-2005>
2.43941354751587

> <r_mmod_Van_der_Waal_Energy-OPLS-2005>
162.141296386719

> <r_mmod_Electrostatic_Energy-OPLS-2005>
-337.131591796875

> <r_mmod_Solvation_Energy-OPLS-2005>
-440.652923583984

> <b_mmod_Minimization_Converged-OPLS-2005>
0

> <r_mmod_RMS_Derivative-OPLS-2005>
4.14763307571411

$$$$
35
                    3D
 Structure written by MMmdl.
163172  0  0  1  0            999 V2000
  -30.6627  -14.5948   20.5273 C   0  0  0  0  0  0
  -30.4298  -12.3767   19.4428 C   0  0  0  0  0  0
  -29.4971  -12.5166   18.2197 C   0  0  0  0  0  0
  -28.0208  -12.3612   18.6291 C   0  0  0  0  0  0
  -27.6568  -13.2158   19.8710 C   0  0  2  0  0  0
  -28.7033  -13.0605   20.9966 C   0  0  0  0  0  0
  -25.2594  -13.8157   20.5672 C   0  0  0  0  0  0
  -24.1846  -13.0432   20.9158 C   0  0  0  0  0  0
  -24.6407  -11.6892   20.8720 C   0  0  0  0  0  0
  -23.9051  -10.4278   21.0380 C   0  0  0  0  0  0
  -24.3596   -9.4197   21.9164 C   0  0  0  0  0  0
  -23.6285   -8.2231   22.0740 C   0  0  0  0  0  0
  -22.4277   -8.0268   21.3526 C   0  0  0  0  0  0
  -21.9891   -9.0241   20.4632 C   0  0  0  0  0  0
  -22.7213  -10.2126   20.3042 C   0  0  0  0  0  0
  -21.6869   -6.0728   22.5261 C   0  0  0  0  0  0
  -21.4032   -6.5638   23.8196 C   0  0  0  0  0  0
  -21.3657   -5.6783   24.9153 C   0  0  0  0  0  0
  -21.6056   -4.3052   24.7206 C   0  0  0  0  0  0
  -21.8821   -3.8140   23.4328 C   0  0  0  0  0  0
  -21.9200   -4.6951   22.3379 C   0  0  0  0  0  0
  -22.7864  -13.5242   21.1811 C   0  0  0  0  0  0
  -22.1666   -4.2134   21.0951 F   0  0  0  0  0  0
  -21.5625   -3.4535   25.7717 F   0  0  0  0  0  0
  -30.0159  -13.3952   20.4276 N   0  0  0  0  0  0
  -26.3027  -12.9339   20.3381 N   0  0  0  0  0  0
  -25.9337  -11.6490   20.5767 N   0  0  0  0  0  0
  -22.0508  -12.8239   22.0373 N   0  0  0  0  0  0
  -25.4343  -15.1867   20.4011 N   0  0  0  0  0  0
  -31.8250  -14.7332   20.1400 O   0  0  0  0  0  0
  -21.6643   -6.8869   21.4227 O   0  0  0  0  0  0
  -22.3534  -14.5535   20.6640 O   0  0  0  0  0  0
  -24.6228  -31.8616   23.1999 C   0  0  0  0  0  0
  -25.9080  -32.4788   23.8340 C   0  0  1  0  0  0
  -27.2406  -27.3458   20.1294 C   0  0  0  0  0  0
  -25.5901  -33.8588   24.2276 N   0  0  0  0  0  0
  -23.4165  -30.4800   21.5429 C   0  0  2  0  0  0
  -24.8653  -28.9294   20.1161 C   0  0  0  0  0  0
  -22.7456  -29.4635   22.4957 C   0  0  0  0  0  0
  -18.0279  -28.1381   22.8506 C   0  0  0  0  0  0
  -24.1482  -36.7294   23.2646 C   0  0  0  0  0  0
  -25.9522  -30.8002   21.3663 C   0  0  0  0  0  0
  -26.0291  -29.4280   20.7121 C   0  0  0  0  0  0
  -27.2175  -28.6494   20.7033 C   0  0  0  0  0  0
  -26.0520  -26.8777   19.5259 C   0  0  0  0  0  0
  -24.8770  -27.6585   19.5145 C   0  0  0  0  0  0
  -23.6310  -29.8057   20.1613 C   0  0  0  0  0  0
  -25.4103  -36.3095   24.0347 C   0  0  1  0  0  0
  -20.5882  -28.3682   23.1305 C   0  0  2  0  0  0
  -20.6775  -26.9410   22.5435 C   0  0  0  0  0  0
  -19.5754  -26.6377   21.5235 C   0  0  0  0  0  0
  -18.1925  -26.7924   22.1641 C   0  0  0  0  0  0
  -19.1532  -28.8845   23.2900 C   0  0  0  0  0  0
  -18.9458  -30.1452   23.8908 C   0  0  0  0  0  0
  -17.6460  -30.6594   24.0566 C   0  0  0  0  0  0
  -25.9044  -34.9460   23.5114 C   0  0  0  0  0  0
  -16.5351  -29.9090   23.6331 C   0  0  0  0  0  0
  -16.7267  -28.6501   23.0362 C   0  0  0  0  0  0
  -26.4471  -31.6589   25.0701 C   0  0  0  0  0  0
  -25.3727  -31.3725   26.1449 C   0  0  0  0  0  0
  -27.0313  -30.3017   24.6130 C   0  0  0  0  0  0
  -27.6016  -32.4344   25.7467 C   0  0  0  0  0  0
  -27.5580  -37.1798   24.8458 C   0  0  0  0  0  0
  -21.4170  -29.3027   22.3690 N   0  0  0  0  0  0
  -26.4283  -37.3787   23.9417 N   0  0  0  0  0  0
  -24.6823  -31.0649   22.0940 N   0  0  0  0  0  0
  -23.4178  -28.8198   23.3060 O   0  0  0  0  0  0
  -28.4095  -26.5807   20.1638 O   0  0  0  0  0  0
  -26.5622  -34.8934   22.4688 O   0  0  0  0  0  0
  -23.5407  -32.1404   23.7347 O   0  0  0  0  0  0
  -28.2347  -20.3862   18.9409 C   0  0  0  0  0  0
  -29.5702  -19.6024   20.8082 C   0  0  0  0  0  0
  -31.2341  -22.3948   20.2854 C   0  0  0  0  0  0
  -28.1814  -19.0668   18.4395 C   0  0  0  0  0  0
  -29.5463  -18.2500   20.3143 C   0  0  0  0  0  0
  -29.7801  -24.3713   20.1474 C   0  0  0  0  0  0
  -28.9292  -20.6947   20.1268 C   0  0  0  0  0  0
  -29.9280  -22.9318   20.3195 C   0  0  0  0  0  0
  -28.8284  -18.0083   19.1193 C   0  0  0  0  0  0
  -30.9950  -25.1059   19.9596 C   0  0  0  0  0  0
  -32.3353  -23.2168   20.0639 C   0  0  0  0  0  0
  -27.4250  -18.8086   17.1483 C   0  0  0  0  0  0
  -31.0826  -26.6175   19.8038 C   0  0  0  0  0  0
  -30.3614  -17.1069   21.0104 C   0  0  0  0  0  0
  -28.3914  -25.1095   20.1236 C   0  0  0  0  0  0
  -32.2169  -24.5402   19.9098 N   0  0  0  0  0  0
  -29.9205  -15.6726   20.9176 N   0  0  0  0  0  0
  -28.8927  -22.0286   20.5801 O   0  0  0  0  0  0
  -28.7744  -16.7554   18.6041 F   0  0  0  0  0  0
  -33.9086  -22.5154   19.9926 Cl  0  0  0  0  0  0
  -31.4699  -12.4969   19.1336 H   0  0  0  0  0  0
  -30.3631  -11.3779   19.8779 H   0  0  0  0  0  0
  -29.7495  -11.7736   17.4643 H   0  0  0  0  0  0
  -29.6458  -13.4951   17.7550 H   0  0  0  0  0  0
  -27.8373  -11.3063   18.8344 H   0  0  0  0  0  0
  -27.3723  -12.6280   17.7945 H   0  0  0  0  0  0
  -27.6826  -14.2545   19.5443 H   0  0  0  0  0  0
  -28.7103  -12.0408   21.3827 H   0  0  0  0  0  0
  -28.4567  -13.6995   21.8453 H   0  0  0  0  0  0
  -25.2733   -9.5699   22.4746 H   0  0  0  0  0  0
  -24.0003   -7.4621   22.7469 H   0  0  0  0  0  0
  -21.0830   -8.8753   19.8936 H   0  0  0  0  0  0
  -22.3658  -10.9664   19.6157 H   0  0  0  0  0  0
  -21.2040   -7.6145   23.9699 H   0  0  0  0  0  0
  -21.1486   -6.0509   25.9062 H   0  0  0  0  0  0
  -22.0617   -2.7602   23.2819 H   0  0  0  0  0  0
  -22.4138  -11.9939   22.4812 H   0  0  0  0  0  0
  -21.1116  -13.1264   22.2534 H   0  0  0  0  0  0
  -24.6704  -15.8461   20.5008 H   0  0  0  0  0  0
  -26.2813  -15.6114   20.0420 H   0  0  0  0  0  0
  -26.7141  -32.5465   23.1092 H   0  0  0  0  0  0
  -25.0031  -33.9724   25.0408 H   0  0  0  0  0  0
  -22.7094  -31.2991   21.3958 H   0  0  0  0  0  0
  -23.3761  -35.9610   23.3300 H   0  0  0  0  0  0
  -24.3585  -36.8917   22.2062 H   0  0  0  0  0  0
  -23.7206  -37.6486   23.6665 H   0  0  0  0  0  0
  -26.0804  -31.5637   20.5986 H   0  0  0  0  0  0
  -26.8343  -30.8501   21.9922 H   0  0  0  0  0  0
  -28.1144  -29.0360   21.1664 H   0  0  0  0  0  0
  -26.0127  -25.9042   19.0623 H   0  0  0  0  0  0
  -23.9826  -27.2658   19.0506 H   0  0  0  0  0  0
  -23.7473  -30.5776   19.4000 H   0  0  0  0  0  0
  -22.7535  -29.2301   19.8636 H   0  0  0  0  0  0
  -25.1274  -36.1964   25.0841 H   0  0  0  0  0  0
  -20.9974  -28.3266   24.1430 H   0  0  0  0  0  0
  -20.5712  -26.2285   23.3626 H   0  0  0  0  0  0
  -21.6643  -26.7464   22.1208 H   0  0  0  0  0  0
  -19.6921  -25.6291   21.1260 H   0  0  0  0  0  0
  -19.6698  -27.3196   20.6775 H   0  0  0  0  0  0
  -17.4209  -26.6699   21.4023 H   0  0  0  0  0  0
  -18.0304  -26.0061   22.9019 H   0  0  0  0  0  0
  -19.7932  -30.7264   24.2283 H   0  0  0  0  0  0
  -17.5017  -31.6276   24.5155 H   0  0  0  0  0  0
  -15.5353  -30.3002   23.7640 H   0  0  0  0  0  0
  -15.8667  -28.0824   22.7080 H   0  0  0  0  0  0
  -24.5862  -30.7118   25.7776 H   0  0  0  0  0  0
  -24.8979  -32.2909   26.4920 H   0  0  0  0  0  0
  -25.8082  -30.8856   27.0187 H   0  0  0  0  0  0
  -26.2878  -29.6773   24.1166 H   0  0  0  0  0  0
  -27.4029  -29.7255   25.4610 H   0  0  0  0  0  0
  -27.8732  -30.4295   23.9324 H   0  0  0  0  0  0
  -27.2587  -33.3629   26.2044 H   0  0  0  0  0  0
  -28.3817  -32.6951   25.0301 H   0  0  0  0  0  0
  -28.0699  -31.8496   26.5391 H   0  0  0  0  0  0
  -28.2585  -38.0107   24.7542 H   0  0  0  0  0  0
  -28.1095  -36.2649   24.6241 H   0  0  0  0  0  0
  -27.2320  -37.1389   25.8866 H   0  0  0  0  0  0
  -20.9349  -29.8706   21.6860 H   0  0  0  0  0  0
  -26.0181  -38.2869   24.1430 H   0  0  0  0  0  0
  -27.7280  -21.1815   18.4120 H   0  0  0  0  0  0
  -30.1125  -19.8108   21.7194 H   0  0  0  0  0  0
  -31.4306  -21.3460   20.4294 H   0  0  0  0  0  0
  -27.8590  -19.3930   16.3357 H   0  0  0  0  0  0
  -26.3814  -19.1014   17.2571 H   0  0  0  0  0  0
  -27.4453  -17.7581   16.8601 H   0  0  0  0  0  0
  -30.5382  -26.9511   18.9211 H   0  0  0  0  0  0
  -32.1143  -26.9588   19.6926 H   0  0  0  0  0  0
  -30.6936  -27.1194   20.6905 H   0  0  0  0  0  0
  -30.4481  -17.3473   22.0707 H   0  0  0  0  0  0
  -31.3777  -17.1872   20.6180 H   0  0  0  0  0  0
  -27.8017  -24.7493   20.9675 H   0  0  0  0  0  0
  -27.8852  -24.7781   19.2176 H   0  0  0  0  0  0
  -28.9704  -15.4805   21.1909 H   0  0  0  0  0  0
  1 25  1  0  0  0
  1 30  2  0  0  0
  1 87  1  0  0  0
  2  3  1  0  0  0
  2 25  1  0  0  0
  2 91  1  0  0  0
  2 92  1  0  0  0
  3  4  1  0  0  0
  3 93  1  0  0  0
  3 94  1  0  0  0
  4  5  1  0  0  0
  4 95  1  0  0  0
  4 96  1  0  0  0
  5  6  1  0  0  0
  5 26  1  0  0  0
  5 97  1  0  0  0
  6 25  1  0  0  0
  6 98  1  0  0  0
  6 99  1  0  0  0
  7  8  2  0  0  0
  7 26  1  0  0  0
  7 29  1  0  0  0
  8  9  1  0  0  0
  8 22  1  0  0  0
  9 10  1  0  0  0
  9 27  2  0  0  0
 10 11  2  0  0  0
 10 15  1  0  0  0
 11 12  1  0  0  0
 11100  1  0  0  0
 12 13  2  0  0  0
 12101  1  0  0  0
 13 14  1  0  0  0
 13 31  1  0  0  0
 14 15  2  0  0  0
 14102  1  0  0  0
 15103  1  0  0  0
 16 17  2  0  0  0
 16 21  1  0  0  0
 16 31  1  0  0  0
 17 18  1  0  0  0
 17104  1  0  0  0
 18 19  2  0  0  0
 18105  1  0  0  0
 19 20  1  0  0  0
 19 24  1  0  0  0
 20 21  2  0  0  0
 20106  1  0  0  0
 21 23  1  0  0  0
 22 28  1  0  0  0
 22 32  2  0  0  0
 26 27  1  0  0  0
 28107  1  0  0  0
 28108  1  0  0  0
 29109  1  0  0  0
 29110  1  0  0  0
 33 34  1  0  0  0
 33 66  1  0  0  0
 33 70  2  0  0  0
 34 36  1  0  0  0
 34 59  1  0  0  0
 34111  1  0  0  0
 35 44  2  0  0  0
 35 45  1  0  0  0
 35 68  1  0  0  0
 36 56  1  0  0  0
 36112  1  0  0  0
 37 39  1  0  0  0
 37 47  1  0  0  0
 37 66  1  0  0  0
 37113  1  0  0  0
 38 43  2  0  0  0
 38 46  1  0  0  0
 38 47  1  0  0  0
 39 64  1  0  0  0
 39 67  2  0  0  0
 40 52  1  0  0  0
 40 53  2  0  0  0
 40 58  1  0  0  0
 41114  1  0  0  0
 41115  1  0  0  0
 41116  1  0  0  0
 41 48  1  0  0  0
 42 43  1  0  0  0
 42 66  1  0  0  0
 42117  1  0  0  0
 42118  1  0  0  0
 43 44  1  0  0  0
 44119  1  0  0  0
 45 46  2  0  0  0
 45120  1  0  0  0
 46121  1  0  0  0
 47122  1  0  0  0
 47123  1  0  0  0
 48 56  1  0  0  0
 48 65  1  0  0  0
 48124  1  0  0  0
 49 50  1  0  0  0
 49 53  1  0  0  0
 49 64  1  0  0  0
 49125  1  0  0  0
 50 51  1  0  0  0
 50126  1  0  0  0
 50127  1  0  0  0
 51 52  1  0  0  0
 51128  1  0  0  0
 51129  1  0  0  0
 52130  1  0  0  0
 52131  1  0  0  0
 53 54  1  0  0  0
 54 55  2  0  0  0
 54132  1  0  0  0
 55 57  1  0  0  0
 55133  1  0  0  0
 56 69  2  0  0  0
 57 58  2  0  0  0
 57134  1  0  0  0
 58135  1  0  0  0
 59 60  1  0  0  0
 59 61  1  0  0  0
 59 62  1  0  0  0
 60136  1  0  0  0
 60137  1  0  0  0
 60138  1  0  0  0
 61139  1  0  0  0
 61140  1  0  0  0
 61141  1  0  0  0
 62142  1  0  0  0
 62143  1  0  0  0
 62144  1  0  0  0
 63 65  1  0  0  0
 63145  1  0  0  0
 63146  1  0  0  0
 63147  1  0  0  0
 64148  1  0  0  0
 65149  1  0  0  0
 68 85  1  0  0  0
 71 74  2  0  0  0
 71 77  1  0  0  0
 71150  1  0  0  0
 72 75  1  0  0  0
 72 77  2  0  0  0
 72151  1  0  0  0
 73 78  2  0  0  0
 73 81  1  0  0  0
 73152  1  0  0  0
 74 79  1  0  0  0
 74 82  1  0  0  0
 75 79  2  0  0  0
 75 84  1  0  0  0
 76 78  1  0  0  0
 76 80  2  0  0  0
 76 85  1  0  0  0
 77 88  1  0  0  0
 78 88  1  0  0  0
 79 89  1  0  0  0
 80 83  1  0  0  0
 80 86  1  0  0  0
 81 86  2  0  0  0
 81 90  1  0  0  0
 82153  1  0  0  0
 82154  1  0  0  0
 82155  1  0  0  0
 83156  1  0  0  0
 83157  1  0  0  0
 83158  1  0  0  0
 84 87  1  0  0  0
 84159  1  0  0  0
 84160  1  0  0  0
 85161  1  0  0  0
 85162  1  0  0  0
 87163  1  0  0  0
M  ISO  4   1 100  68 101  85 101  87 100
M  END
> <chiral flag>
0

> <version>
0

> <s_m_source_file>
/data/baiqing/PycharmProjects/Reinvent-master-3.2/result/LINK_invent/BTK/process_docking_weight1_custom_sum_contain_oxygen_bond_distance_aromatic_linkinvent_7_9_3/rearranged_h_0028.sdf

> <i_m_source_file_index>
36

> <r_mmod_Potential_Energy-OPLS-2005>
-144.423141479492

> <r_mmod_Stretch_Energy-OPLS-2005>
77.9014053344727

> <r_mmod_Bend_Energy-OPLS-2005>
135.122650146484

> <r_mmod_Torsional_Energy-OPLS-2005>
211.544158935547

> <r_mmod_Improper_Torsional_Energy-OPLS-2005>
3.95789551734924

> <r_mmod_Van_der_Waal_Energy-OPLS-2005>
172.081237792969

> <r_mmod_Electrostatic_Energy-OPLS-2005>
-568.296630859375

> <r_mmod_Solvation_Energy-OPLS-2005>
-211.129272460938

> <b_mmod_Minimization_Converged-OPLS-2005>
0

> <r_mmod_RMS_Derivative-OPLS-2005>
3.00120735168457

$$$$
36
                    3D
 Structure written by MMmdl.
165174  0  0  1  0            999 V2000
  -30.5864  -14.6848   20.5389 C   0  0  0  0  0  0
  -30.4378  -12.4371   19.4410 C   0  0  0  0  0  0
  -29.5002  -12.5180   18.2150 C   0  0  0  0  0  0
  -28.0266  -12.3303   18.6343 C   0  0  0  0  0  0
  -27.6408  -13.2144   19.8507 C   0  0  2  0  0  0
  -28.6866  -13.0887   20.9767 C   0  0  0  0  0  0
  -25.2515  -13.8141   20.5685 C   0  0  0  0  0  0
  -24.1820  -13.0412   20.9222 C   0  0  0  0  0  0
  -24.6387  -11.6872   20.8742 C   0  0  0  0  0  0
  -23.9045  -10.4268   21.0406 C   0  0  0  0  0  0
  -24.3601   -9.4181   21.9176 C   0  0  0  0  0  0
  -23.6296   -8.2206   22.0749 C   0  0  0  0  0  0
  -22.4278   -8.0237   21.3541 C   0  0  0  0  0  0
  -21.9902   -9.0205   20.4645 C   0  0  0  0  0  0
  -22.7220  -10.2093   20.3053 C   0  0  0  0  0  0
  -21.6856   -6.0713   22.5295 C   0  0  0  0  0  0
  -21.4005   -6.5625   23.8216 C   0  0  0  0  0  0
  -21.3667   -5.6787   24.9181 C   0  0  0  0  0  0
  -21.6059   -4.3052   24.7242 C   0  0  0  0  0  0
  -21.8812   -3.8129   23.4363 C   0  0  0  0  0  0
  -21.9187   -4.6940   22.3417 C   0  0  0  0  0  0
  -22.7836  -13.5171   21.1874 C   0  0  0  0  0  0
  -22.1656   -4.2121   21.0997 F   0  0  0  0  0  0
  -21.5632   -3.4541   25.7762 F   0  0  0  0  0  0
  -29.9857  -13.4595   20.4039 N   0  0  0  0  0  0
  -26.2927  -12.9308   20.3259 N   0  0  0  0  0  0
  -25.9314  -11.6469   20.5775 N   0  0  0  0  0  0
  -22.0483  -12.8185   22.0448 N   0  0  0  0  0  0
  -25.4223  -15.1878   20.4059 N   0  0  0  0  0  0
  -31.7822  -14.8360   20.2847 O   0  0  0  0  0  0
  -21.6636   -6.8848   21.4255 O   0  0  0  0  0  0
  -22.3500  -14.5462   20.6691 O   0  0  0  0  0  0
  -24.6283  -31.8616   23.2035 C   0  0  0  0  0  0
  -25.9145  -32.4781   23.8352 C   0  0  1  0  0  0
  -27.1970  -27.3252   20.1094 C   0  0  0  0  0  0
  -25.5986  -33.8584   24.2301 N   0  0  0  0  0  0
  -23.4151  -30.4921   21.5451 C   0  0  2  0  0  0
  -24.8463  -28.9454   20.1174 C   0  0  0  0  0  0
  -22.7454  -29.4665   22.4913 C   0  0  0  0  0  0
  -18.0285  -28.1371   22.8503 C   0  0  0  0  0  0
  -24.1465  -36.7230   23.2643 C   0  0  0  0  0  0
  -25.9566  -30.7994   21.3656 C   0  0  0  0  0  0
  -26.0211  -29.4294   20.7042 C   0  0  0  0  0  0
  -27.2010  -28.6332   20.6803 C   0  0  0  0  0  0
  -25.9776  -26.8664   19.5671 C   0  0  0  0  0  0
  -24.8216  -27.6644   19.5493 C   0  0  0  0  0  0
  -23.6272  -29.8384   20.1560 C   0  0  0  0  0  0
  -25.4085  -36.3061   24.0349 C   0  0  1  0  0  0
  -20.5900  -28.3691   23.1255 C   0  0  2  0  0  0
  -20.6784  -26.9413   22.5394 C   0  0  0  0  0  0
  -19.5754  -26.6382   21.5204 C   0  0  0  0  0  0
  -18.1935  -26.7922   22.1620 C   0  0  0  0  0  0
  -19.1553  -28.8837   23.2884 C   0  0  0  0  0  0
  -18.9507  -30.1439   23.8902 C   0  0  0  0  0  0
  -17.6523  -30.6602   24.0576 C   0  0  0  0  0  0
  -25.9052  -34.9450   23.5106 C   0  0  0  0  0  0
  -16.5396  -29.9121   23.6333 C   0  0  0  0  0  0
  -16.7287  -28.6518   23.0379 C   0  0  0  0  0  0
  -26.4528  -31.6604   25.0739 C   0  0  0  0  0  0
  -25.3797  -31.3794   26.1506 C   0  0  0  0  0  0
  -27.0381  -30.3021   24.6208 C   0  0  0  0  0  0
  -27.6065  -32.4354   25.7548 C   0  0  0  0  0  0
  -27.5538  -37.1755   24.8488 C   0  0  0  0  0  0
  -21.4177  -29.3059   22.3652 N   0  0  0  0  0  0
  -26.4236  -37.3775   23.9466 N   0  0  0  0  0  0
  -24.6862  -31.0682   22.0958 N   0  0  0  0  0  0
  -23.4192  -28.8206   23.2989 O   0  0  0  0  0  0
  -28.3541  -26.5383   20.1246 O   0  0  0  0  0  0
  -26.5609  -34.8931   22.4660 O   0  0  0  0  0  0
  -23.5449  -32.1430   23.7365 O   0  0  0  0  0  0
  -29.6101  -19.6338   20.9994 C   0  0  0  0  0  0
  -30.2367  -20.9366   21.1093 C   0  0  0  0  0  0
  -30.3391  -18.4099   21.2854 C   0  0  0  0  0  0
  -31.5861  -20.9065   21.5637 C   0  0  0  0  0  0
  -31.6957  -18.5774   21.6310 C   0  0  0  0  0  0
  -28.0530  -22.5650   20.5694 C   0  0  0  0  0  0
  -30.2984  -23.2777   19.8626 C   0  0  0  0  0  0
  -27.6160  -24.0928   20.6277 C   0  0  0  0  0  0
  -29.9210  -24.7784   20.0183 C   0  0  0  0  0  0
  -29.5656  -22.3645   20.8892 C   0  0  2  0  0  0
  -28.4354  -25.1090   19.7399 C   0  0  2  0  0  0
  -32.3929  -22.1350   21.9759 C   0  0  0  0  0  0
  -28.1948  -24.9313   18.2156 C   0  0  0  0  0  0
  -29.6769  -16.9997   21.5680 C   0  0  0  0  0  0
  -32.2859  -19.7755   21.7531 N   0  0  0  0  0  0
  -29.7211  -15.7443   20.7153 N   0  0  0  0  0  0
  -32.6741  -17.2369   22.1046 Cl  0  0  0  0  0  0
  -31.4767  -12.5936   19.1443 H   0  0  0  0  0  0
  -30.3914  -11.4447   19.8938 H   0  0  0  0  0  0
  -29.7793  -11.7648   17.4750 H   0  0  0  0  0  0
  -29.6189  -13.4874   17.7287 H   0  0  0  0  0  0
  -27.8884  -11.2803   18.8917 H   0  0  0  0  0  0
  -27.3605  -12.5261   17.7949 H   0  0  0  0  0  0
  -27.6490  -14.2450   19.4955 H   0  0  0  0  0  0
  -28.7214  -12.0653   21.3536 H   0  0  0  0  0  0
  -28.4307  -13.7185   21.8308 H   0  0  0  0  0  0
  -25.2731   -9.5663   22.4761 H   0  0  0  0  0  0
  -24.0012   -7.4587   22.7465 H   0  0  0  0  0  0
  -21.0822   -8.8714   19.8957 H   0  0  0  0  0  0
  -22.3664  -10.9622   19.6164 H   0  0  0  0  0  0
  -21.2006   -7.6138   23.9719 H   0  0  0  0  0  0
  -21.1509   -6.0521   25.9088 H   0  0  0  0  0  0
  -22.0601   -2.7594   23.2883 H   0  0  0  0  0  0
  -22.4058  -11.9851   22.4893 H   0  0  0  0  0  0
  -21.1102  -13.1226   22.2615 H   0  0  0  0  0  0
  -24.6512  -15.8367   20.5161 H   0  0  0  0  0  0
  -26.2566  -15.6301   20.0440 H   0  0  0  0  0  0
  -26.7230  -32.5452   23.1108 H   0  0  0  0  0  0
  -25.0267  -33.9749   25.0536 H   0  0  0  0  0  0
  -22.7107  -31.3152   21.4058 H   0  0  0  0  0  0
  -23.3764  -35.9526   23.3320 H   0  0  0  0  0  0
  -24.3538  -36.8823   22.2050 H   0  0  0  0  0  0
  -23.7178  -37.6413   23.6659 H   0  0  0  0  0  0
  -26.0926  -31.5648   20.6003 H   0  0  0  0  0  0
  -26.8356  -30.8330   21.9997 H   0  0  0  0  0  0
  -28.1103  -29.0073   21.1292 H   0  0  0  0  0  0
  -25.8587  -25.8699   19.1891 H   0  0  0  0  0  0
  -23.9070  -27.2636   19.1341 H   0  0  0  0  0  0
  -23.7723  -30.6240   19.4122 H   0  0  0  0  0  0
  -22.7442  -29.2847   19.8358 H   0  0  0  0  0  0
  -25.1238  -36.1879   25.0836 H   0  0  0  0  0  0
  -21.0002  -28.3269   24.1372 H   0  0  0  0  0  0
  -20.5664  -26.2318   23.3609 H   0  0  0  0  0  0
  -21.6657  -26.7421   22.1205 H   0  0  0  0  0  0
  -19.6928  -25.6294   21.1240 H   0  0  0  0  0  0
  -19.6691  -27.3202   20.6752 H   0  0  0  0  0  0
  -17.4200  -26.6693   21.4031 H   0  0  0  0  0  0
  -18.0330  -26.0042   22.8996 H   0  0  0  0  0  0
  -19.8006  -30.7232   24.2277 H   0  0  0  0  0  0
  -17.5111  -31.6297   24.5159 H   0  0  0  0  0  0
  -15.5409  -30.3066   23.7630 H   0  0  0  0  0  0
  -15.8681  -28.0847   22.7105 H   0  0  0  0  0  0
  -24.5984  -30.7089   25.7921 H   0  0  0  0  0  0
  -24.8998  -32.2990   26.4862 H   0  0  0  0  0  0
  -25.8151  -30.9086   27.0331 H   0  0  0  0  0  0
  -26.2970  -29.6767   24.1218 H   0  0  0  0  0  0
  -27.4077  -29.7263   25.4705 H   0  0  0  0  0  0
  -27.8830  -30.4304   23.9443 H   0  0  0  0  0  0
  -27.2661  -33.3704   26.2012 H   0  0  0  0  0  0
  -28.3953  -32.6810   25.0439 H   0  0  0  0  0  0
  -28.0641  -31.8560   26.5580 H   0  0  0  0  0  0
  -28.2550  -38.0052   24.7518 H   0  0  0  0  0  0
  -28.1016  -36.2573   24.6300 H   0  0  0  0  0  0
  -27.2278  -37.1389   25.8897 H   0  0  0  0  0  0
  -20.9335  -29.8817   21.6910 H   0  0  0  0  0  0
  -26.0097  -38.2822   24.1547 H   0  0  0  0  0  0
  -28.5511  -19.5843   20.7842 H   0  0  0  0  0  0
  -27.8163  -22.1512   19.5885 H   0  0  0  0  0  0
  -27.4447  -22.0062   21.2831 H   0  0  0  0  0  0
  -31.3769  -23.2271   19.9556 H   0  0  0  0  0  0
  -30.1033  -22.9226   18.8518 H   0  0  0  0  0  0
  -27.6925  -24.4231   21.6655 H   0  0  0  0  0  0
  -26.5550  -24.1603   20.3912 H   0  0  0  0  0  0
  -30.5477  -25.3810   19.3600 H   0  0  0  0  0  0
  -30.1723  -25.0983   21.0323 H   0  0  0  0  0  0
  -29.6692  -22.8306   21.8690 H   0  0  0  0  0  0
  -33.1294  -22.3777   21.2109 H   0  0  0  0  0  0
  -32.9328  -21.9397   22.9040 H   0  0  0  0  0  0
  -31.7982  -23.0254   22.1624 H   0  0  0  0  0  0
  -28.3774  -23.9053   17.8972 H   0  0  0  0  0  0
  -28.8657  -25.5644   17.6366 H   0  0  0  0  0  0
  -27.1907  -25.1551   17.8691 H   0  0  0  0  0  0
  -29.9868  -16.6980   22.5726 H   0  0  0  0  0  0
  -28.6139  -17.2157   21.6987 H   0  0  0  0  0  0
  -28.7810  -15.4268   20.5347 H   0  0  0  0  0  0
  1 25  1  0  0  0
  1 30  2  0  0  0
  1 86  1  0  0  0
  2  3  1  0  0  0
  2 25  1  0  0  0
  2 88  1  0  0  0
  2 89  1  0  0  0
  3  4  1  0  0  0
  3 90  1  0  0  0
  3 91  1  0  0  0
  4  5  1  0  0  0
  4 92  1  0  0  0
  4 93  1  0  0  0
  5  6  1  0  0  0
  5 26  1  0  0  0
  5 94  1  0  0  0
  6 25  1  0  0  0
  6 95  1  0  0  0
  6 96  1  0  0  0
  7  8  2  0  0  0
  7 26  1  0  0  0
  7 29  1  0  0  0
  8  9  1  0  0  0
  8 22  1  0  0  0
  9 10  1  0  0  0
  9 27  2  0  0  0
 10 11  2  0  0  0
 10 15  1  0  0  0
 11 12  1  0  0  0
 11 97  1  0  0  0
 12 13  2  0  0  0
 12 98  1  0  0  0
 13 14  1  0  0  0
 13 31  1  0  0  0
 14 15  2  0  0  0
 14 99  1  0  0  0
 15100  1  0  0  0
 16 17  2  0  0  0
 16 21  1  0  0  0
 16 31  1  0  0  0
 17 18  1  0  0  0
 17101  1  0  0  0
 18 19  2  0  0  0
 18102  1  0  0  0
 19 20  1  0  0  0
 19 24  1  0  0  0
 20 21  2  0  0  0
 20103  1  0  0  0
 21 23  1  0  0  0
 22 28  1  0  0  0
 22 32  2  0  0  0
 26 27  1  0  0  0
 28104  1  0  0  0
 28105  1  0  0  0
 29106  1  0  0  0
 29107  1  0  0  0
 33 34  1  0  0  0
 33 66  1  0  0  0
 33 70  2  0  0  0
 34 36  1  0  0  0
 34 59  1  0  0  0
 34108  1  0  0  0
 35 44  2  0  0  0
 35 45  1  0  0  0
 35 68  1  0  0  0
 36 56  1  0  0  0
 36109  1  0  0  0
 37 39  1  0  0  0
 37 47  1  0  0  0
 37 66  1  0  0  0
 37110  1  0  0  0
 38 43  2  0  0  0
 38 46  1  0  0  0
 38 47  1  0  0  0
 39 64  1  0  0  0
 39 67  2  0  0  0
 40 52  1  0  0  0
 40 53  2  0  0  0
 40 58  1  0  0  0
 41111  1  0  0  0
 41112  1  0  0  0
 41113  1  0  0  0
 41 48  1  0  0  0
 42 43  1  0  0  0
 42 66  1  0  0  0
 42114  1  0  0  0
 42115  1  0  0  0
 43 44  1  0  0  0
 44116  1  0  0  0
 45 46  2  0  0  0
 45117  1  0  0  0
 46118  1  0  0  0
 47119  1  0  0  0
 47120  1  0  0  0
 48 56  1  0  0  0
 48 65  1  0  0  0
 48121  1  0  0  0
 49 50  1  0  0  0
 49 53  1  0  0  0
 49 64  1  0  0  0
 49122  1  0  0  0
 50 51  1  0  0  0
 50123  1  0  0  0
 50124  1  0  0  0
 51 52  1  0  0  0
 51125  1  0  0  0
 51126  1  0  0  0
 52127  1  0  0  0
 52128  1  0  0  0
 53 54  1  0  0  0
 54 55  2  0  0  0
 54129  1  0  0  0
 55 57  1  0  0  0
 55130  1  0  0  0
 56 69  2  0  0  0
 57 58  2  0  0  0
 57131  1  0  0  0
 58132  1  0  0  0
 59 60  1  0  0  0
 59 61  1  0  0  0
 59 62  1  0  0  0
 60133  1  0  0  0
 60134  1  0  0  0
 60135  1  0  0  0
 61136  1  0  0  0
 61137  1  0  0  0
 61138  1  0  0  0
 62139  1  0  0  0
 62140  1  0  0  0
 62141  1  0  0  0
 63 65  1  0  0  0
 63142  1  0  0  0
 63143  1  0  0  0
 63144  1  0  0  0
 64145  1  0  0  0
 65146  1  0  0  0
 68 81  1  0  0  0
 71 72  2  0  0  0
 71 73  1  0  0  0
 71147  1  0  0  0
 72 74  1  0  0  0
 72 80  1  0  0  0
 73 75  2  0  0  0
 73 84  1  0  0  0
 74 82  1  0  0  0
 74 85  2  0  0  0
 75 85  1  0  0  0
 75 87  1  0  0  0
 76 78  1  0  0  0
 76 80  1  0  0  0
 76148  1  0  0  0
 76149  1  0  0  0
 77 79  1  0  0  0
 77 80  1  0  0  0
 77150  1  0  0  0
 77151  1  0  0  0
 78 81  1  0  0  0
 78152  1  0  0  0
 78153  1  0  0  0
 79 81  1  0  0  0
 79154  1  0  0  0
 79155  1  0  0  0
 80156  1  0  0  0
 81 83  1  0  0  0
 82157  1  0  0  0
 82158  1  0  0  0
 82159  1  0  0  0
 83160  1  0  0  0
 83161  1  0  0  0
 83162  1  0  0  0
 84 86  1  0  0  0
 84163  1  0  0  0
 84164  1  0  0  0
 86165  1  0  0  0
M  ISO  4   1 100  68 101  81 101  86 100
M  END
> <chiral flag>
0

> <version>
0

> <s_m_source_file>
/data/baiqing/PycharmProjects/Reinvent-master-3.2/result/LINK_invent/BTK/process_docking_weight1_custom_sum_contain_oxygen_bond_distance_aromatic_linkinvent_7_9_3/rearranged_h_0028.sdf

> <i_m_source_file_index>
37

> <r_mmod_Potential_Energy-OPLS-2005>
50.0126876831055

> <r_mmod_Stretch_Energy-OPLS-2005>
92.6078414916992

> <r_mmod_Bend_Energy-OPLS-2005>
219.301040649414

> <r_mmod_Torsional_Energy-OPLS-2005>
253.06770324707

> <r_mmod_Improper_Torsional_Energy-OPLS-2005>
11.1498441696167

> <r_mmod_Van_der_Waal_Energy-OPLS-2005>
156.144119262695

> <r_mmod_Electrostatic_Energy-OPLS-2005>
-519.545959472656

> <r_mmod_Solvation_Energy-OPLS-2005>
-222.046081542969

> <b_mmod_Minimization_Converged-OPLS-2005>
0

> <r_mmod_RMS_Derivative-OPLS-2005>
4.2583179473877

$$$$
37
                    3D
 Structure written by MMmdl.
168177  0  0  1  0            999 V2000
  -30.6279  -14.7406   20.4061 C   0  0  0  0  0  0
  -30.4307  -12.4449   19.4691 C   0  0  0  0  0  0
  -29.5092  -12.4904   18.2309 C   0  0  0  0  0  0
  -28.0330  -12.3290   18.6440 C   0  0  0  0  0  0
  -27.6387  -13.2360   19.8413 C   0  0  2  0  0  0
  -28.6874  -13.1900   20.9736 C   0  0  0  0  0  0
  -25.2495  -13.8210   20.5682 C   0  0  0  0  0  0
  -24.1793  -13.0445   20.9214 C   0  0  0  0  0  0
  -24.6392  -11.6927   20.8750 C   0  0  0  0  0  0
  -23.9067  -10.4299   21.0400 C   0  0  0  0  0  0
  -24.3620   -9.4215   21.9174 C   0  0  0  0  0  0
  -23.6300   -8.2246   22.0743 C   0  0  0  0  0  0
  -22.4283   -8.0276   21.3532 C   0  0  0  0  0  0
  -21.9916   -9.0250   20.4636 C   0  0  0  0  0  0
  -22.7238  -10.2133   20.3048 C   0  0  0  0  0  0
  -21.6856   -6.0731   22.5273 C   0  0  0  0  0  0
  -21.4016   -6.5634   23.8206 C   0  0  0  0  0  0
  -21.3666   -5.6788   24.9168 C   0  0  0  0  0  0
  -21.6053   -4.3052   24.7219 C   0  0  0  0  0  0
  -21.8818   -3.8141   23.4341 C   0  0  0  0  0  0
  -21.9190   -4.6955   22.3396 C   0  0  0  0  0  0
  -22.7809  -13.5218   21.1870 C   0  0  0  0  0  0
  -22.1656   -4.2136   21.0974 F   0  0  0  0  0  0
  -21.5633   -3.4536   25.7736 F   0  0  0  0  0  0
  -29.9878  -13.5227   20.3809 N   0  0  0  0  0  0
  -26.2927  -12.9430   20.3245 N   0  0  0  0  0  0
  -25.9326  -11.6570   20.5742 N   0  0  0  0  0  0
  -22.0442  -12.8214   22.0426 N   0  0  0  0  0  0
  -25.4176  -15.1937   20.4092 N   0  0  0  0  0  0
  -31.8500  -14.7761   20.2409 O   0  0  0  0  0  0
  -21.6647   -6.8875   21.4235 O   0  0  0  0  0  0
  -22.3492  -14.5513   20.6698 O   0  0  0  0  0  0
  -24.6306  -31.8548   23.1986 C   0  0  0  0  0  0
  -25.9136  -32.4747   23.8331 C   0  0  1  0  0  0
  -27.2207  -27.2597   20.1213 C   0  0  0  0  0  0
  -25.5932  -33.8550   24.2245 N   0  0  0  0  0  0
  -23.4267  -30.4779   21.5424 C   0  0  2  0  0  0
  -24.8727  -28.9260   20.1099 C   0  0  0  0  0  0
  -22.7499  -29.4597   22.4915 C   0  0  0  0  0  0
  -18.0285  -28.1386   22.8480 C   0  0  0  0  0  0
  -24.1492  -36.7283   23.2639 C   0  0  0  0  0  0
  -25.9729  -30.7654   21.3805 C   0  0  0  0  0  0
  -26.0431  -29.3891   20.7207 C   0  0  0  0  0  0
  -27.2153  -28.5673   20.7173 C   0  0  0  0  0  0
  -26.0184  -26.8636   19.4869 C   0  0  0  0  0  0
  -24.8662  -27.6717   19.4842 C   0  0  0  0  0  0
  -23.6444  -29.8129   20.1581 C   0  0  0  0  0  0
  -25.4119  -36.3060   24.0320 C   0  0  1  0  0  0
  -20.5888  -28.3696   23.1270 C   0  0  2  0  0  0
  -20.6777  -26.9417   22.5405 C   0  0  0  0  0  0
  -19.5755  -26.6382   21.5210 C   0  0  0  0  0  0
  -18.1933  -26.7926   22.1621 C   0  0  0  0  0  0
  -19.1539  -28.8859   23.2866 C   0  0  0  0  0  0
  -18.9464  -30.1460   23.8883 C   0  0  0  0  0  0
  -17.6464  -30.6588   24.0560 C   0  0  0  0  0  0
  -25.9059  -34.9432   23.5084 C   0  0  0  0  0  0
  -16.5353  -29.9085   23.6332 C   0  0  0  0  0  0
  -16.7272  -28.6503   23.0350 C   0  0  0  0  0  0
  -26.4499  -31.6576   25.0724 C   0  0  0  0  0  0
  -25.3715  -31.3740   26.1438 C   0  0  0  0  0  0
  -27.0356  -30.2988   24.6233 C   0  0  0  0  0  0
  -27.6041  -32.4328   25.7506 C   0  0  0  0  0  0
  -27.5578  -37.1799   24.8461 C   0  0  0  0  0  0
  -21.4205  -29.3038   22.3655 N   0  0  0  0  0  0
  -26.4291  -37.3764   23.9403 N   0  0  0  0  0  0
  -24.6956  -31.0516   22.0962 N   0  0  0  0  0  0
  -23.4198  -28.8136   23.3012 O   0  0  0  0  0  0
  -28.3429  -26.3991   20.2056 O   0  0  0  0  0  0
  -26.5637  -34.8907   22.4656 O   0  0  0  0  0  0
  -23.5459  -32.1371   23.7286 O   0  0  0  0  0  0
  -31.4769  -18.7304   18.3439 C   0  0  0  0  0  0
  -30.9714  -17.4444   18.6734 C   0  0  0  0  0  0
  -30.9372  -19.8854   18.9701 C   0  0  0  0  0  0
  -29.8945  -19.7180   19.9310 C   0  0  0  0  0  0
  -30.1524  -17.2675   19.8309 C   0  0  0  0  0  0
  -32.6499  -18.8665   17.3508 C   0  0  0  0  0  0
  -31.2542  -16.3211   17.6658 C   0  0  0  0  0  0
  -32.9440  -17.6592   16.4486 C   0  0  0  0  0  0
  -32.6922  -16.3343   17.1581 C   0  0  0  0  0  0
  -30.8456  -21.8731   17.3270 C   0  0  0  0  0  0
  -31.4950  -21.2688   18.5864 C   0  0  0  0  0  0
  -29.0894  -20.9814   20.5208 C   0  0  0  0  0  0
  -28.6911  -23.6816   20.5680 C   0  0  0  0  0  0
  -28.3957  -24.9957   19.6576 C   0  0  0  0  0  0
  -29.5897  -18.4258   20.3685 N   0  0  0  0  0  0
  -29.8535  -15.8973   20.3401 N   0  0  0  0  0  0
  -28.8569  -22.3362   19.8248 N   0  3  0  0  0  0
  -31.4729  -12.5595   19.1646 H   0  0  0  0  0  0
  -30.3673  -11.4754   19.9654 H   0  0  0  0  0  0
  -29.7874  -11.7062   17.5253 H   0  0  0  0  0  0
  -29.6388  -13.4352   17.7023 H   0  0  0  0  0  0
  -27.8790  -11.2822   18.9074 H   0  0  0  0  0  0
  -27.3806  -12.5247   17.7925 H   0  0  0  0  0  0
  -27.6258  -14.2527   19.4492 H   0  0  0  0  0  0
  -28.7193  -12.2029   21.4369 H   0  0  0  0  0  0
  -28.4325  -13.8961   21.7657 H   0  0  0  0  0  0
  -25.2762   -9.5696   22.4749 H   0  0  0  0  0  0
  -24.0003   -7.4643   22.7469 H   0  0  0  0  0  0
  -21.0839   -8.8773   19.8957 H   0  0  0  0  0  0
  -22.3687  -10.9667   19.6160 H   0  0  0  0  0  0
  -21.2010   -7.6142   23.9705 H   0  0  0  0  0  0
  -21.1491   -6.0517   25.9070 H   0  0  0  0  0  0
  -22.0594   -2.7600   23.2843 H   0  0  0  0  0  0
  -22.4062  -11.9900   22.4862 H   0  0  0  0  0  0
  -21.1046  -13.1223   22.2596 H   0  0  0  0  0  0
  -24.6478  -15.8443   20.5220 H   0  0  0  0  0  0
  -26.2577  -15.6348   20.0579 H   0  0  0  0  0  0
  -26.7195  -32.5388   23.1066 H   0  0  0  0  0  0
  -25.0068  -33.9691   25.0381 H   0  0  0  0  0  0
  -22.7221  -31.2990   21.3970 H   0  0  0  0  0  0
  -23.3752  -35.9620   23.3296 H   0  0  0  0  0  0
  -24.3581  -36.8916   22.2055 H   0  0  0  0  0  0
  -23.7251  -37.6482   23.6673 H   0  0  0  0  0  0
  -26.1156  -31.5275   20.6133 H   0  0  0  0  0  0
  -26.8485  -30.8103   22.0165 H   0  0  0  0  0  0
  -28.1103  -28.9186   21.2118 H   0  0  0  0  0  0
  -25.9037  -25.9111   18.9992 H   0  0  0  0  0  0
  -23.9680  -27.3099   19.0029 H   0  0  0  0  0  0
  -23.7700  -30.5880   19.4017 H   0  0  0  0  0  0
  -22.7623  -29.2468   19.8535 H   0  0  0  0  0  0
  -25.1304  -36.1907   25.0815 H   0  0  0  0  0  0
  -20.9974  -28.3276   24.1396 H   0  0  0  0  0  0
  -20.5682  -26.2309   23.3609 H   0  0  0  0  0  0
  -21.6644  -26.7448   22.1198 H   0  0  0  0  0  0
  -19.6921  -25.6291   21.1245 H   0  0  0  0  0  0
  -19.6691  -27.3186   20.6735 H   0  0  0  0  0  0
  -17.4202  -26.6660   21.4026 H   0  0  0  0  0  0
  -18.0342  -26.0071   22.9024 H   0  0  0  0  0  0
  -19.7942  -30.7276   24.2246 H   0  0  0  0  0  0
  -17.5021  -31.6265   24.5167 H   0  0  0  0  0  0
  -15.5354  -30.2985   23.7666 H   0  0  0  0  0  0
  -15.8670  -28.0821   22.7071 H   0  0  0  0  0  0
  -24.5884  -30.7097   25.7763 H   0  0  0  0  0  0
  -24.8916  -32.2920   26.4843 H   0  0  0  0  0  0
  -25.8022  -30.8923   27.0226 H   0  0  0  0  0  0
  -26.2955  -29.6727   24.1236 H   0  0  0  0  0  0
  -27.3998  -29.7261   25.4773 H   0  0  0  0  0  0
  -27.8848  -30.4247   23.9512 H   0  0  0  0  0  0
  -27.2630  -33.3630   26.2065 H   0  0  0  0  0  0
  -28.3868  -32.6888   25.0351 H   0  0  0  0  0  0
  -28.0691  -31.8468   26.5444 H   0  0  0  0  0  0
  -28.2586  -38.0103   24.7506 H   0  0  0  0  0  0
  -28.1081  -36.2630   24.6292 H   0  0  0  0  0  0
  -27.2291  -37.1451   25.8862 H   0  0  0  0  0  0
  -20.9393  -29.8765   21.6862 H   0  0  0  0  0  0
  -26.0164  -38.2837   24.1398 H   0  0  0  0  0  0
  -33.5397  -19.0619   17.9508 H   0  0  0  0  0  0
  -32.5341  -19.7297   16.7010 H   0  0  0  0  0  0
  -30.5884  -16.4989   16.8204 H   0  0  0  0  0  0
  -30.9807  -15.3225   17.9724 H   0  0  0  0  0  0
  -33.9658  -17.7118   16.0699 H   0  0  0  0  0  0
  -32.2971  -17.7090   15.5716 H   0  0  0  0  0  0
  -32.8564  -15.5053   16.4681 H   0  0  0  0  0  0
  -33.3901  -16.1990   17.9856 H   0  0  0  0  0  0
  -31.2795  -22.8493   17.1047 H   0  0  0  0  0  0
  -29.7705  -22.0056   17.4201 H   0  0  0  0  0  0
  -30.9978  -21.2512   16.4457 H   0  0  0  0  0  0
  -32.5720  -21.1988   18.4319 H   0  0  0  0  0  0
  -31.4426  -21.9762   19.4105 H   0  0  0  0  0  0
  -28.6182  -20.7690   19.5606 H   0  0  0  0  0  0
  -30.0434  -21.3774   20.8557 H   0  0  0  0  0  0
  -27.8831  -23.5707   21.2910 H   0  0  0  0  0  0
  -29.5951  -23.8599   21.1508 H   0  0  0  0  0  0
  -27.5389  -24.7638   19.0353 H   0  0  0  0  0  0
  -29.2120  -25.0448   18.9366 H   0  0  0  0  0  0
  -28.9004  -15.7673   20.6362 H   0  0  0  0  0  0
  -28.0219  -22.1930   19.2789 H   0  0  0  0  0  0
  -29.6133  -22.4213   19.1627 H   0  0  0  0  0  0
  1 25  1  0  0  0
  1 30  2  0  0  0
  1 86  1  0  0  0
  2  3  1  0  0  0
  2 25  1  0  0  0
  2 88  1  0  0  0
  2 89  1  0  0  0
  3  4  1  0  0  0
  3 90  1  0  0  0
  3 91  1  0  0  0
  4  5  1  0  0  0
  4 92  1  0  0  0
  4 93  1  0  0  0
  5  6  1  0  0  0
  5 26  1  0  0  0
  5 94  1  0  0  0
  6 25  1  0  0  0
  6 95  1  0  0  0
  6 96  1  0  0  0
  7  8  2  0  0  0
  7 26  1  0  0  0
  7 29  1  0  0  0
  8  9  1  0  0  0
  8 22  1  0  0  0
  9 10  1  0  0  0
  9 27  2  0  0  0
 10 11  2  0  0  0
 10 15  1  0  0  0
 11 12  1  0  0  0
 11 97  1  0  0  0
 12 13  2  0  0  0
 12 98  1  0  0  0
 13 14  1  0  0  0
 13 31  1  0  0  0
 14 15  2  0  0  0
 14 99  1  0  0  0
 15100  1  0  0  0
 16 17  2  0  0  0
 16 21  1  0  0  0
 16 31  1  0  0  0
 17 18  1  0  0  0
 17101  1  0  0  0
 18 19  2  0  0  0
 18102  1  0  0  0
 19 20  1  0  0  0
 19 24  1  0  0  0
 20 21  2  0  0  0
 20103  1  0  0  0
 21 23  1  0  0  0
 22 28  1  0  0  0
 22 32  2  0  0  0
 26 27  1  0  0  0
 28104  1  0  0  0
 28105  1  0  0  0
 29106  1  0  0  0
 29107  1  0  0  0
 33 34  1  0  0  0
 33 66  1  0  0  0
 33 70  2  0  0  0
 34 36  1  0  0  0
 34 59  1  0  0  0
 34108  1  0  0  0
 35 44  2  0  0  0
 35 45  1  0  0  0
 35 68  1  0  0  0
 36 56  1  0  0  0
 36109  1  0  0  0
 37 39  1  0  0  0
 37 47  1  0  0  0
 37 66  1  0  0  0
 37110  1  0  0  0
 38 43  2  0  0  0
 38 46  1  0  0  0
 38 47  1  0  0  0
 39 64  1  0  0  0
 39 67  2  0  0  0
 40 52  1  0  0  0
 40 53  2  0  0  0
 40 58  1  0  0  0
 41111  1  0  0  0
 41112  1  0  0  0
 41113  1  0  0  0
 41 48  1  0  0  0
 42 43  1  0  0  0
 42 66  1  0  0  0
 42114  1  0  0  0
 42115  1  0  0  0
 43 44  1  0  0  0
 44116  1  0  0  0
 45 46  2  0  0  0
 45117  1  0  0  0
 46118  1  0  0  0
 47119  1  0  0  0
 47120  1  0  0  0
 48 56  1  0  0  0
 48 65  1  0  0  0
 48121  1  0  0  0
 49 50  1  0  0  0
 49 53  1  0  0  0
 49 64  1  0  0  0
 49122  1  0  0  0
 50 51  1  0  0  0
 50123  1  0  0  0
 50124  1  0  0  0
 51 52  1  0  0  0
 51125  1  0  0  0
 51126  1  0  0  0
 52127  1  0  0  0
 52128  1  0  0  0
 53 54  1  0  0  0
 54 55  2  0  0  0
 54129  1  0  0  0
 55 57  1  0  0  0
 55130  1  0  0  0
 56 69  2  0  0  0
 57 58  2  0  0  0
 57131  1  0  0  0
 58132  1  0  0  0
 59 60  1  0  0  0
 59 61  1  0  0  0
 59 62  1  0  0  0
 60133  1  0  0  0
 60134  1  0  0  0
 60135  1  0  0  0
 61136  1  0  0  0
 61137  1  0  0  0
 61138  1  0  0  0
 62139  1  0  0  0
 62140  1  0  0  0
 62141  1  0  0  0
 63 65  1  0  0  0
 63142  1  0  0  0
 63143  1  0  0  0
 63144  1  0  0  0
 64145  1  0  0  0
 65146  1  0  0  0
 68 84  1  0  0  0
 71 72  1  0  0  0
 71 73  2  0  0  0
 71 76  1  0  0  0
 72 75  2  0  0  0
 72 77  1  0  0  0
 73 74  1  0  0  0
 73 81  1  0  0  0
 74 82  1  0  0  0
 74 85  2  0  0  0
 75 85  1  0  0  0
 75 86  1  0  0  0
 76 78  1  0  0  0
 76147  1  0  0  0
 76148  1  0  0  0
 77 79  1  0  0  0
 77149  1  0  0  0
 77150  1  0  0  0
 78 79  1  0  0  0
 78151  1  0  0  0
 78152  1  0  0  0
 79153  1  0  0  0
 79154  1  0  0  0
 80 81  1  0  0  0
 80155  1  0  0  0
 80156  1  0  0  0
 80157  1  0  0  0
 81158  1  0  0  0
 81159  1  0  0  0
 82 87  1  0  0  0
 82160  1  0  0  0
 82161  1  0  0  0
 83 84  1  0  0  0
 83 87  1  0  0  0
 83162  1  0  0  0
 83163  1  0  0  0
 84164  1  0  0  0
 84165  1  0  0  0
 86166  1  0  0  0
 87167  1  0  0  0
 87168  1  0  0  0
M  CHG  1  87   1
M  ISO  4   1 100  68 101  84 101  86 100
M  END
> <chiral flag>
0

> <version>
0

> <s_m_source_file>
/data/baiqing/PycharmProjects/Reinvent-master-3.2/result/LINK_invent/BTK/process_docking_weight1_custom_sum_contain_oxygen_bond_distance_aromatic_linkinvent_7_9_3/rearranged_h_0028.sdf

> <i_m_source_file_index>
38

> <r_mmod_Potential_Energy-OPLS-2005>
127.31388092041

> <r_mmod_Stretch_Energy-OPLS-2005>
136.315490722656

> <r_mmod_Bend_Energy-OPLS-2005>
399.148376464844

> <r_mmod_Torsional_Energy-OPLS-2005>
267.478668212891

> <r_mmod_Improper_Torsional_Energy-OPLS-2005>
7.1762228012085

> <r_mmod_Van_der_Waal_Energy-OPLS-2005>
164.111312866211

> <r_mmod_Electrostatic_Energy-OPLS-2005>
-460.273773193359

> <r_mmod_Solvation_Energy-OPLS-2005>
-474.991455078125

> <b_mmod_Minimization_Converged-OPLS-2005>
0

> <r_mmod_RMS_Derivative-OPLS-2005>
1.19019734859467

$$$$
38
                    3D
 Structure written by MMmdl.
160169  0  0  1  0            999 V2000
  -30.6726  -14.5684   20.5198 C   0  0  0  0  0  0
  -30.4293  -12.3495   19.4398 C   0  0  0  0  0  0
  -29.4992  -12.4827   18.2150 C   0  0  0  0  0  0
  -28.0236  -12.3365   18.6330 C   0  0  0  0  0  0
  -27.6559  -13.2135   19.8607 C   0  0  2  0  0  0
  -28.7006  -13.0593   20.9863 C   0  0  0  0  0  0
  -25.2584  -13.8171   20.5683 C   0  0  0  0  0  0
  -24.1847  -13.0445   20.9172 C   0  0  0  0  0  0
  -24.6411  -11.6914   20.8732 C   0  0  0  0  0  0
  -23.9070  -10.4307   21.0411 C   0  0  0  0  0  0
  -24.3625   -9.4216   21.9197 C   0  0  0  0  0  0
  -23.6304   -8.2249   22.0757 C   0  0  0  0  0  0
  -22.4301   -8.0280   21.3532 C   0  0  0  0  0  0
  -21.9926   -9.0262   20.4640 C   0  0  0  0  0  0
  -22.7249  -10.2150   20.3050 C   0  0  0  0  0  0
  -21.6850   -6.0749   22.5280 C   0  0  0  0  0  0
  -21.4020   -6.5652   23.8214 C   0  0  0  0  0  0
  -21.3669   -5.6796   24.9175 C   0  0  0  0  0  0
  -21.6035   -4.3054   24.7217 C   0  0  0  0  0  0
  -21.8822   -3.8156   23.4342 C   0  0  0  0  0  0
  -21.9196   -4.6982   22.3397 C   0  0  0  0  0  0
  -22.7858  -13.5238   21.1833 C   0  0  0  0  0  0
  -22.1652   -4.2170   21.0973 F   0  0  0  0  0  0
  -21.5628   -3.4532   25.7726 F   0  0  0  0  0  0
  -30.0212  -13.3730   20.4179 N   0  0  0  0  0  0
  -26.3022  -12.9357   20.3334 N   0  0  0  0  0  0
  -25.9331  -11.6517   20.5758 N   0  0  0  0  0  0
  -22.0487  -12.8222   22.0362 N   0  0  0  0  0  0
  -25.4243  -15.1898   20.4061 N   0  0  0  0  0  0
  -31.8347  -14.7185   20.1329 O   0  0  0  0  0  0
  -21.6630   -6.8900   21.4246 O   0  0  0  0  0  0
  -22.3565  -14.5569   20.6695 O   0  0  0  0  0  0
  -24.6182  -31.8688   23.2080 C   0  0  0  0  0  0
  -25.9054  -32.4826   23.8375 C   0  0  1  0  0  0
  -27.2183  -27.3888   20.0854 C   0  0  0  0  0  0
  -25.5899  -33.8623   24.2317 N   0  0  0  0  0  0
  -23.4045  -30.4936   21.5568 C   0  0  2  0  0  0
  -24.8450  -28.9593   20.1147 C   0  0  0  0  0  0
  -22.7409  -29.4673   22.5041 C   0  0  0  0  0  0
  -18.0262  -28.1367   22.8509 C   0  0  0  0  0  0
  -24.1476  -36.7290   23.2650 C   0  0  0  0  0  0
  -25.9380  -30.8218   21.3635 C   0  0  0  0  0  0
  -26.0136  -29.4534   20.7073 C   0  0  0  0  0  0
  -27.2034  -28.6783   20.6880 C   0  0  0  0  0  0
  -26.0242  -26.9350   19.4762 C   0  0  0  0  0  0
  -24.8465  -27.6993   19.5009 C   0  0  0  0  0  0
  -23.6085  -29.8302   20.1715 C   0  0  0  0  0  0
  -25.4102  -36.3117   24.0356 C   0  0  1  0  0  0
  -20.5855  -28.3655   23.1329 C   0  0  2  0  0  0
  -20.6754  -26.9393   22.5431 C   0  0  0  0  0  0
  -19.5724  -26.6374   21.5235 C   0  0  0  0  0  0
  -18.1902  -26.7915   22.1645 C   0  0  0  0  0  0
  -19.1514  -28.8828   23.2913 C   0  0  0  0  0  0
  -18.9452  -30.1445   23.8910 C   0  0  0  0  0  0
  -17.6456  -30.6592   24.0562 C   0  0  0  0  0  0
  -25.9046  -34.9488   23.5141 C   0  0  0  0  0  0
  -16.5345  -29.9096   23.6330 C   0  0  0  0  0  0
  -16.7254  -28.6503   23.0367 C   0  0  0  0  0  0
  -26.4453  -31.6603   25.0709 C   0  0  0  0  0  0
  -25.3684  -31.3700   26.1430 C   0  0  0  0  0  0
  -27.0314  -30.3072   24.6062 C   0  0  0  0  0  0
  -27.6034  -32.4316   25.7458 C   0  0  0  0  0  0
  -27.5571  -37.1800   24.8481 C   0  0  0  0  0  0
  -21.4141  -29.3022   22.3740 N   0  0  0  0  0  0
  -26.4288  -37.3806   23.9425 N   0  0  0  0  0  0
  -24.6738  -31.0744   22.1014 N   0  0  0  0  0  0
  -23.4175  -28.8218   23.3103 O   0  0  0  0  0  0
  -28.3591  -26.5895   20.1117 O   0  0  0  0  0  0
  -26.5617  -34.8945   22.4712 O   0  0  0  0  0  0
  -23.5373  -32.1462   23.7453 O   0  0  0  0  0  0
  -29.8002  -19.4580   20.3938 C   0  0  0  0  0  0
  -30.2103  -17.7424   18.7230 C   0  0  0  0  0  0
  -29.5146  -22.3072   18.0665 C   0  0  0  0  0  0
  -29.8899  -20.0856   17.9996 C   0  0  0  0  0  0
  -30.0829  -18.0929   20.0795 C   0  0  0  0  0  0
  -29.8039  -21.2849   17.2041 C   0  0  0  0  0  0
  -29.6993  -20.4485   19.3727 C   0  0  0  0  0  0
  -30.1216  -18.7135   17.7080 C   0  0  0  0  0  0
  -29.9885  -21.4369   15.7227 C   0  0  0  0  0  0
  -30.3477  -17.0275   21.1705 C   0  0  0  0  0  0
  -29.3503  -24.2559   20.4015 C   0  0  0  0  0  0
  -29.0817  -22.7027   20.5243 C   0  0  0  0  0  0
  -28.1718  -25.1565   19.9151 C   0  0  0  0  0  0
  -29.4390  -21.8418   19.3759 N   0  0  0  0  0  0
  -29.9212  -15.6273   20.9108 N   0  0  0  0  0  0
  -30.3252  -18.1843   16.0756 Cl  0  0  0  0  0  0
  -31.4742  -12.4535   19.1378 H   0  0  0  0  0  0
  -30.3450  -11.3557   19.8849 H   0  0  0  0  0  0
  -29.7510  -11.7255   17.4706 H   0  0  0  0  0  0
  -29.6518  -13.4487   17.7321 H   0  0  0  0  0  0
  -27.8549  -11.2842   18.8670 H   0  0  0  0  0  0
  -27.3678  -12.5677   17.7931 H   0  0  0  0  0  0
  -27.6781  -14.2483   19.5162 H   0  0  0  0  0  0
  -28.7018  -12.0405   21.3739 H   0  0  0  0  0  0
  -28.4566  -13.7023   21.8341 H   0  0  0  0  0  0
  -25.2778   -9.5694   22.4775 H   0  0  0  0  0  0
  -24.0006   -7.4655   22.7487 H   0  0  0  0  0  0
  -21.0849   -8.8798   19.8953 H   0  0  0  0  0  0
  -22.3724  -10.9688   19.6152 H   0  0  0  0  0  0
  -21.2003   -7.6159   23.9719 H   0  0  0  0  0  0
  -21.1479   -6.0527   25.9078 H   0  0  0  0  0  0
  -22.0589   -2.7621   23.2817 H   0  0  0  0  0  0
  -22.4101  -11.9887   22.4766 H   0  0  0  0  0  0
  -21.1103  -13.1261   22.2542 H   0  0  0  0  0  0
  -24.6405  -15.8283   20.4866 H   0  0  0  0  0  0
  -26.2701  -15.6396   20.0808 H   0  0  0  0  0  0
  -26.7111  -32.5520   23.1124 H   0  0  0  0  0  0
  -24.9997  -33.9767   25.0425 H   0  0  0  0  0  0
  -22.6936  -31.3123   21.4241 H   0  0  0  0  0  0
  -23.3768  -35.9597   23.3332 H   0  0  0  0  0  0
  -24.3556  -36.8882   22.2059 H   0  0  0  0  0  0
  -23.7185  -37.6486   23.6644 H   0  0  0  0  0  0
  -26.0483  -31.5877   20.5943 H   0  0  0  0  0  0
  -26.8256  -30.8783   21.9804 H   0  0  0  0  0  0
  -28.1001  -29.0610   21.1525 H   0  0  0  0  0  0
  -25.9688  -25.9808   18.9740 H   0  0  0  0  0  0
  -23.9475  -27.3115   19.0446 H   0  0  0  0  0  0
  -23.7145  -30.6085   19.4159 H   0  0  0  0  0  0
  -22.7272  -29.2559   19.8772 H   0  0  0  0  0  0
  -25.1276  -36.2000   25.0852 H   0  0  0  0  0  0
  -20.9940  -28.3227   24.1458 H   0  0  0  0  0  0
  -20.5665  -26.2271   23.3625 H   0  0  0  0  0  0
  -21.6620  -26.7439   22.1217 H   0  0  0  0  0  0
  -19.6885  -25.6290   21.1251 H   0  0  0  0  0  0
  -19.6656  -27.3199   20.6775 H   0  0  0  0  0  0
  -17.4177  -26.6681   21.4043 H   0  0  0  0  0  0
  -18.0291  -26.0047   22.9024 H   0  0  0  0  0  0
  -19.7934  -30.7251   24.2284 H   0  0  0  0  0  0
  -17.5022  -31.6280   24.5145 H   0  0  0  0  0  0
  -15.5347  -30.3009   23.7644 H   0  0  0  0  0  0
  -15.8651  -28.0824   22.7089 H   0  0  0  0  0  0
  -24.5842  -30.7090   25.7711 H   0  0  0  0  0  0
  -24.8881  -32.2862   26.4888 H   0  0  0  0  0  0
  -25.7989  -30.8813   27.0181 H   0  0  0  0  0  0
  -26.2889  -29.6822   24.1084 H   0  0  0  0  0  0
  -27.4110  -29.7298   25.4497 H   0  0  0  0  0  0
  -27.8689  -30.4445   23.9216 H   0  0  0  0  0  0
  -27.2674  -33.3619   26.2045 H   0  0  0  0  0  0
  -28.3814  -32.6869   25.0250 H   0  0  0  0  0  0
  -28.0730  -31.8426   26.5343 H   0  0  0  0  0  0
  -28.2636  -38.0055   24.7528 H   0  0  0  0  0  0
  -28.1024  -36.2597   24.6329 H   0  0  0  0  0  0
  -27.2288  -37.1478   25.8886 H   0  0  0  0  0  0
  -20.9317  -29.8717   21.6922 H   0  0  0  0  0  0
  -26.0194  -38.2900   24.1422 H   0  0  0  0  0  0
  -29.6987  -19.7700   21.4235 H   0  0  0  0  0  0
  -30.4306  -16.7226   18.4433 H   0  0  0  0  0  0
  -29.3569  -23.3510   17.8316 H   0  0  0  0  0  0
  -29.1167  -21.0855   15.1709 H   0  0  0  0  0  0
  -30.8550  -20.8779   15.3695 H   0  0  0  0  0  0
  -30.1478  -22.4777   15.4456 H   0  0  0  0  0  0
  -31.4182  -17.0448   21.3880 H   0  0  0  0  0  0
  -29.8661  -17.3485   22.0939 H   0  0  0  0  0  0
  -30.2448  -24.4544   19.8123 H   0  0  0  0  0  0
  -29.5952  -24.6037   21.4057 H   0  0  0  0  0  0
  -29.6473  -22.3340   21.3804 H   0  0  0  0  0  0
  -28.0341  -22.5229   20.7700 H   0  0  0  0  0  0
  -27.2857  -24.8367   20.4693 H   0  0  0  0  0  0
  -27.9717  -24.9587   18.8609 H   0  0  0  0  0  0
  -28.9645  -15.4140   21.1496 H   0  0  0  0  0  0
  1 25  1  0  0  0
  1 30  2  0  0  0
  1 85  1  0  0  0
  2  3  1  0  0  0
  2 25  1  0  0  0
  2 87  1  0  0  0
  2 88  1  0  0  0
  3  4  1  0  0  0
  3 89  1  0  0  0
  3 90  1  0  0  0
  4  5  1  0  0  0
  4 91  1  0  0  0
  4 92  1  0  0  0
  5  6  1  0  0  0
  5 26  1  0  0  0
  5 93  1  0  0  0
  6 25  1  0  0  0
  6 94  1  0  0  0
  6 95  1  0  0  0
  7  8  2  0  0  0
  7 26  1  0  0  0
  7 29  1  0  0  0
  8  9  1  0  0  0
  8 22  1  0  0  0
  9 10  1  0  0  0
  9 27  2  0  0  0
 10 11  2  0  0  0
 10 15  1  0  0  0
 11 12  1  0  0  0
 11 96  1  0  0  0
 12 13  2  0  0  0
 12 97  1  0  0  0
 13 14  1  0  0  0
 13 31  1  0  0  0
 14 15  2  0  0  0
 14 98  1  0  0  0
 15 99  1  0  0  0
 16 17  2  0  0  0
 16 21  1  0  0  0
 16 31  1  0  0  0
 17 18  1  0  0  0
 17100  1  0  0  0
 18 19  2  0  0  0
 18101  1  0  0  0
 19 20  1  0  0  0
 19 24  1  0  0  0
 20 21  2  0  0  0
 20102  1  0  0  0
 21 23  1  0  0  0
 22 28  1  0  0  0
 22 32  2  0  0  0
 26 27  1  0  0  0
 28103  1  0  0  0
 28104  1  0  0  0
 29105  1  0  0  0
 29106  1  0  0  0
 33 34  1  0  0  0
 33 66  1  0  0  0
 33 70  2  0  0  0
 34 36  1  0  0  0
 34 59  1  0  0  0
 34107  1  0  0  0
 35 44  2  0  0  0
 35 45  1  0  0  0
 35 68  1  0  0  0
 36 56  1  0  0  0
 36108  1  0  0  0
 37 39  1  0  0  0
 37 47  1  0  0  0
 37 66  1  0  0  0
 37109  1  0  0  0
 38 43  2  0  0  0
 38 46  1  0  0  0
 38 47  1  0  0  0
 39 64  1  0  0  0
 39 67  2  0  0  0
 40 52  1  0  0  0
 40 53  2  0  0  0
 40 58  1  0  0  0
 41110  1  0  0  0
 41111  1  0  0  0
 41112  1  0  0  0
 41 48  1  0  0  0
 42 43  1  0  0  0
 42 66  1  0  0  0
 42113  1  0  0  0
 42114  1  0  0  0
 43 44  1  0  0  0
 44115  1  0  0  0
 45 46  2  0  0  0
 45116  1  0  0  0
 46117  1  0  0  0
 47118  1  0  0  0
 47119  1  0  0  0
 48 56  1  0  0  0
 48 65  1  0  0  0
 48120  1  0  0  0
 49 50  1  0  0  0
 49 53  1  0  0  0
 49 64  1  0  0  0
 49121  1  0  0  0
 50 51  1  0  0  0
 50122  1  0  0  0
 50123  1  0  0  0
 51 52  1  0  0  0
 51124  1  0  0  0
 51125  1  0  0  0
 52126  1  0  0  0
 52127  1  0  0  0
 53 54  1  0  0  0
 54 55  2  0  0  0
 54128  1  0  0  0
 55 57  1  0  0  0
 55129  1  0  0  0
 56 69  2  0  0  0
 57 58  2  0  0  0
 57130  1  0  0  0
 58131  1  0  0  0
 59 60  1  0  0  0
 59 61  1  0  0  0
 59 62  1  0  0  0
 60132  1  0  0  0
 60133  1  0  0  0
 60134  1  0  0  0
 61135  1  0  0  0
 61136  1  0  0  0
 61137  1  0  0  0
 62138  1  0  0  0
 62139  1  0  0  0
 62140  1  0  0  0
 63 65  1  0  0  0
 63141  1  0  0  0
 63142  1  0  0  0
 63143  1  0  0  0
 64144  1  0  0  0
 65145  1  0  0  0
 68 83  1  0  0  0
 71 75  2  0  0  0
 71 77  1  0  0  0
 71146  1  0  0  0
 72 75  1  0  0  0
 72 78  2  0  0  0
 72147  1  0  0  0
 73 76  2  0  0  0
 73 84  1  0  0  0
 73148  1  0  0  0
 74 76  1  0  0  0
 74 77  2  0  0  0
 74 78  1  0  0  0
 75 80  1  0  0  0
 76 79  1  0  0  0
 77 84  1  0  0  0
 78 86  1  0  0  0
 79149  1  0  0  0
 79150  1  0  0  0
 79151  1  0  0  0
 80 85  1  0  0  0
 80152  1  0  0  0
 80153  1  0  0  0
 81 82  1  0  0  0
 81 83  1  0  0  0
 81154  1  0  0  0
 81155  1  0  0  0
 82 84  1  0  0  0
 82156  1  0  0  0
 82157  1  0  0  0
 83158  1  0  0  0
 83159  1  0  0  0
 85160  1  0  0  0
M  ISO  4   1 100  68 101  83 101  85 100
M  END
> <chiral flag>
0

> <version>
0

> <s_m_source_file>
/data/baiqing/PycharmProjects/Reinvent-master-3.2/result/LINK_invent/BTK/process_docking_weight1_custom_sum_contain_oxygen_bond_distance_aromatic_linkinvent_7_9_3/rearranged_h_0028.sdf

> <i_m_source_file_index>
39

> <r_mmod_Potential_Energy-OPLS-2005>
-50.1049118041992

> <r_mmod_Stretch_Energy-OPLS-2005>
53.3433685302734

> <r_mmod_Bend_Energy-OPLS-2005>
111.769775390625

> <r_mmod_Torsional_Energy-OPLS-2005>
213.297286987305

> <r_mmod_Improper_Torsional_Energy-OPLS-2005>
4.0872950553894

> <r_mmod_Van_der_Waal_Energy-OPLS-2005>
142.019912719727

> <r_mmod_Electrostatic_Energy-OPLS-2005>
-390.419372558594

> <r_mmod_Solvation_Energy-OPLS-2005>
-211.817291259766

> <b_mmod_Minimization_Converged-OPLS-2005>
0

> <r_mmod_RMS_Derivative-OPLS-2005>
3.42950820922852

$$$$
39
                    3D
 Structure written by MMmdl.
164172  0  0  1  0            999 V2000
  -32.1121  -13.8486   20.6083 C   0  0  0  0  0  0
  -30.7954  -11.9259   19.2752 C   0  0  0  0  0  0
  -29.5482  -12.0773   17.6658 C   0  0  0  0  0  0
  -28.2899  -13.6483   17.4999 C   0  0  0  0  0  0
  -28.2737  -15.2166   19.4486 C   0  0  2  0  0  0
  -29.9155  -14.7485   20.7682 C   0  0  0  0  0  0
  -24.4232  -14.5919   20.7460 C   0  0  0  0  0  0
  -23.6706  -13.4443   20.9279 C   0  0  0  0  0  0
  -24.3606  -12.2251   20.9591 C   0  0  0  0  0  0
  -23.8939  -10.7278   21.0547 C   0  0  0  0  0  0
  -24.3763   -9.6893   21.9196 C   0  0  0  0  0  0
  -23.7073   -8.4258   22.0688 C   0  0  0  0  0  0
  -22.5163   -8.1336   21.3524 C   0  0  0  0  0  0
  -22.0686   -9.1158   20.4515 C   0  0  0  0  0  0
  -22.7446  -10.3532   20.3014 C   0  0  0  0  0  0
  -21.7537   -6.1239   22.5183 C   0  0  0  0  0  0
  -21.4528   -6.6014   23.8135 C   0  0  0  0  0  0
  -21.3779   -5.7067   24.9035 C   0  0  0  0  0  0
  -21.6003   -4.3296   24.7063 C   0  0  0  0  0  0
  -21.8760   -3.8442   23.4151 C   0  0  0  0  0  0
  -21.9407   -4.7350   22.3278 C   0  0  0  0  0  0
  -22.2652  -13.5736   21.1612 C   0  0  0  0  0  0
  -22.1748   -4.2447   21.0869 F   0  0  0  0  0  0
  -21.5445   -3.4740   25.7540 F   0  0  0  0  0  0
  -30.9272  -13.2572   20.5765 N   0  0  0  0  0  0
  -25.6857  -14.3967   20.7595 N   0  0  0  0  0  0
  -25.4864  -12.8603   21.2052 N   0  0  0  0  0  0
  -21.7405  -12.7752   22.0768 N   0  0  0  0  0  0
  -24.1913  -15.9103   20.7439 N   0  0  0  0  0  0
  -32.3800  -14.9718   20.9678 O   0  0  0  0  0  0
  -21.7782   -6.9559   21.4162 O   0  0  0  0  0  0
  -21.6756  -14.4882   20.6129 O   0  0  0  0  0  0
  -24.7520  -31.7029   23.0954 C   0  0  0  0  0  0
  -25.9778  -32.3965   23.7725 C   0  0  1  0  0  0
  -26.7691  -25.7764   20.2991 C   0  0  0  0  0  0
  -25.6058  -33.7861   24.1490 N   0  0  0  0  0  0
  -23.5828  -30.3040   21.4686 C   0  0  2  0  0  0
  -24.9507  -28.4773   20.1023 C   0  0  0  0  0  0
  -22.7951  -29.3840   22.4446 C   0  0  0  0  0  0
  -18.0351  -28.1447   22.8417 C   0  0  0  0  0  0
  -24.1496  -36.6956   23.2669 C   0  0  0  0  0  0
  -26.1666  -30.1010   21.4987 C   0  0  0  0  0  0
  -26.1219  -28.5835   20.8486 C   0  0  0  0  0  0
  -27.0031  -27.2766   20.9032 C   0  0  0  0  0  0
  -25.6946  -26.1264   19.4171 C   0  0  0  0  0  0
  -24.8386  -27.2946   19.3493 C   0  0  0  0  0  0
  -23.8527  -29.5788   20.1095 C   0  0  0  0  0  0
  -25.4175  -36.2610   24.0215 C   0  0  1  0  0  0
  -20.6006  -28.3812   23.1017 C   0  0  2  0  0  0
  -20.6766  -26.9410   22.5412 C   0  0  0  0  0  0
  -19.5761  -26.6333   21.5211 C   0  0  0  0  0  0
  -18.1945  -26.7964   22.1597 C   0  0  0  0  0  0
  -19.1634  -28.8964   23.2692 C   0  0  0  0  0  0
  -18.9538  -30.1530   23.8771 C   0  0  0  0  0  0
  -17.6527  -30.6613   24.0538 C   0  0  0  0  0  0
  -25.9212  -34.9023   23.4744 C   0  0  0  0  0  0
  -16.5408  -29.9093   23.6361 C   0  0  0  0  0  0
  -16.7329  -28.6519   23.0366 C   0  0  0  0  0  0
  -26.4729  -31.6409   25.0698 C   0  0  0  0  0  0
  -25.3610  -31.3985   26.1192 C   0  0  0  0  0  0
  -27.0803  -30.2681   24.7200 C   0  0  0  0  0  0
  -27.6009  -32.4499   25.7536 C   0  0  0  0  0  0
  -27.5534  -37.1624   24.8455 C   0  0  0  0  0  0
  -21.4549  -29.2946   22.3252 N   0  0  0  0  0  0
  -26.4224  -37.3462   23.9413 N   0  0  0  0  0  0
  -24.8752  -30.7639   22.0675 N   0  0  0  0  0  0
  -23.4111  -28.7507   23.3049 O   0  0  0  0  0  0
  -27.2920  -24.0847   20.4162 O   0  0  0  0  0  0
  -26.5947  -34.8755   22.4429 O   0  0  0  0  0  0
  -23.6425  -32.0569   23.5434 O   0  0  0  0  0  0
  -27.3786  -16.0236   21.4860 C   0  0  0  0  0  0
  -26.3337  -14.4498   18.6476 C   0  0  0  0  0  0
  -26.8183  -17.2499   20.3327 C   0  0  0  0  0  0
  -27.7510  -14.2173   21.4593 C   0  0  0  0  0  0
  -26.1884  -16.2258   19.0479 C   0  0  0  0  0  0
  -27.3990  -13.2753   19.8624 C   0  0  0  0  0  0
  -28.0633  -13.4264   22.7346 C   0  0  0  0  0  0
  -25.4897  -17.0371   17.9842 C   0  0  0  0  0  0
  -26.9976  -19.5310   20.5827 C   0  0  0  0  0  0
  -31.6383  -13.8679   17.6950 C   0  0  0  0  0  0
  -30.2428  -14.2019   18.5106 C   0  0  0  0  0  0
  -32.9985  -13.9855   18.4514 C   0  0  0  0  0  0
  -26.9126  -21.9420   20.1364 C   0  0  0  0  0  0
  -28.7751  -12.9981   19.6458 N   0  0  0  0  0  0
  -32.9973  -13.3338   19.7661 N   0  0  0  0  0  0
  -31.7473  -11.5166   18.9335 H   0  0  0  0  0  0
  -30.4399  -11.0580   19.8342 H   0  0  0  0  0  0
  -28.8986  -11.2016   17.7341 H   0  0  0  0  0  0
  -30.0324  -11.8840   16.7080 H   0  0  0  0  0  0
  -27.4012  -13.1365   17.1324 H   0  0  0  0  0  0
  -28.5326  -14.2048   16.5898 H   0  0  0  0  0  0
  -28.4865  -16.2275   19.0762 H   0  0  0  0  0  0
  -29.8751  -14.9923   21.8359 H   0  0  0  0  0  0
  -30.3815  -15.7294   20.6286 H   0  0  0  0  0  0
  -25.2403   -9.9005   22.5310 H   0  0  0  0  0  0
  -24.1086   -7.7021   22.7630 H   0  0  0  0  0  0
  -21.1751   -8.9352   19.8691 H   0  0  0  0  0  0
  -22.3165  -11.0778   19.6234 H   0  0  0  0  0  0
  -21.2792   -7.6563   23.9745 H   0  0  0  0  0  0
  -21.1532   -6.0780   25.8934 H   0  0  0  0  0  0
  -22.0325   -2.7887   23.2598 H   0  0  0  0  0  0
  -22.2987  -12.0738   22.5389 H   0  0  0  0  0  0
  -20.7653  -12.8710   22.3189 H   0  0  0  0  0  0
  -24.0777  -16.2240   21.7010 H   0  0  0  0  0  0
  -25.0490  -16.3349   20.4000 H   0  0  0  0  0  0
  -26.7931  -32.4226   23.0479 H   0  0  0  0  0  0
  -25.0019  -33.8773   24.9523 H   0  0  0  0  0  0
  -22.9570  -31.1717   21.2477 H   0  0  0  0  0  0
  -23.3784  -35.9251   23.3191 H   0  0  0  0  0  0
  -24.3543  -36.8816   22.2114 H   0  0  0  0  0  0
  -23.7244  -37.6052   23.6918 H   0  0  0  0  0  0
  -26.5053  -30.7585   20.6965 H   0  0  0  0  0  0
  -26.9864  -30.1242   22.2010 H   0  0  0  0  0  0
  -27.8515  -27.3497   21.5674 H   0  0  0  0  0  0
  -25.3611  -25.3135   18.7861 H   0  0  0  0  0  0
  -23.9870  -27.2195   18.6855 H   0  0  0  0  0  0
  -24.1487  -30.3204   19.3668 H   0  0  0  0  0  0
  -22.9229  -29.1507   19.7315 H   0  0  0  0  0  0
  -25.1422  -36.1235   25.0696 H   0  0  0  0  0  0
  -21.0082  -28.3497   24.1148 H   0  0  0  0  0  0
  -20.5545  -26.2458   23.3733 H   0  0  0  0  0  0
  -21.6622  -26.7233   22.1287 H   0  0  0  0  0  0
  -19.6901  -25.6207   21.1328 H   0  0  0  0  0  0
  -19.6738  -27.3067   20.6685 H   0  0  0  0  0  0
  -17.4221  -26.6710   21.3994 H   0  0  0  0  0  0
  -18.0306  -26.0138   22.9017 H   0  0  0  0  0  0
  -19.8012  -30.7362   24.2101 H   0  0  0  0  0  0
  -17.5075  -31.6278   24.5170 H   0  0  0  0  0  0
  -15.5403  -30.2963   23.7750 H   0  0  0  0  0  0
  -15.8721  -28.0799   22.7155 H   0  0  0  0  0  0
  -24.5831  -30.7282   25.7519 H   0  0  0  0  0  0
  -24.8785  -32.3301   26.4155 H   0  0  0  0  0  0
  -25.7636  -30.9468   27.0265 H   0  0  0  0  0  0
  -26.3568  -29.5938   24.2604 H   0  0  0  0  0  0
  -27.4292  -29.7590   25.6196 H   0  0  0  0  0  0
  -27.9545  -30.3655   24.0759 H   0  0  0  0  0  0
  -27.2406  -33.3942   26.1625 H   0  0  0  0  0  0
  -28.4049  -32.6833   25.0548 H   0  0  0  0  0  0
  -28.0425  -31.8999   26.5853 H   0  0  0  0  0  0
  -28.2436  -38.0015   24.7517 H   0  0  0  0  0  0
  -28.1135  -36.2527   24.6250 H   0  0  0  0  0  0
  -27.2259  -37.1198   25.8853 H   0  0  0  0  0  0
  -20.9963  -29.8601   21.6238 H   0  0  0  0  0  0
  -25.9965  -38.2457   24.1457 H   0  0  0  0  0  0
  -27.6404  -16.4611   22.4378 H   0  0  0  0  0  0
  -25.7640  -14.0741   17.8100 H   0  0  0  0  0  0
  -27.3110  -13.6490   23.4931 H   0  0  0  0  0  0
  -29.0462  -13.6101   23.1649 H   0  0  0  0  0  0
  -27.9842  -12.3624   22.5131 H   0  0  0  0  0  0
  -26.1753  -17.2617   17.1682 H   0  0  0  0  0  0
  -25.1415  -17.9830   18.3982 H   0  0  0  0  0  0
  -24.6321  -16.4976   17.5877 H   0  0  0  0  0  0
  -28.0537  -19.4969   20.8538 H   0  0  0  0  0  0
  -26.4686  -19.5517   21.5348 H   0  0  0  0  0  0
  -31.7076  -14.5877   16.8769 H   0  0  0  0  0  0
  -31.7059  -12.9419   17.1354 H   0  0  0  0  0  0
  -29.8896  -14.9771   17.8190 H   0  0  0  0  0  0
  -30.7232  -15.1067   18.8634 H   0  0  0  0  0  0
  -33.2718  -15.0378   18.5685 H   0  0  0  0  0  0
  -33.7927  -13.5443   17.8482 H   0  0  0  0  0  0
  -25.8697  -22.0127   19.8316 H   0  0  0  0  0  0
  -27.4613  -21.8931   19.1955 H   0  0  0  0  0  0
  -29.2081  -12.7270   20.5213 H   0  0  0  0  0  0
  -33.9209  -13.2644   20.1717 H   0  0  0  0  0  0
  1 25  1  0  0  0
  1 30  2  0  0  0
  1 85  1  0  0  0
  2  3  1  0  0  0
  2 25  1  0  0  0
  2 86  1  0  0  0
  2 87  1  0  0  0
  3  4  1  0  0  0
  3 88  1  0  0  0
  3 89  1  0  0  0
  4  5  1  0  0  0
  4 90  1  0  0  0
  4 91  1  0  0  0
  5  6  1  0  0  0
  5 26  1  0  0  0
  5 92  1  0  0  0
  6 25  1  0  0  0
  6 93  1  0  0  0
  6 94  1  0  0  0
  7  8  2  0  0  0
  7 26  1  0  0  0
  7 29  1  0  0  0
  8  9  1  0  0  0
  8 22  1  0  0  0
  9 10  1  0  0  0
  9 27  2  0  0  0
 10 11  2  0  0  0
 10 15  1  0  0  0
 11 12  1  0  0  0
 11 95  1  0  0  0
 12 13  2  0  0  0
 12 96  1  0  0  0
 13 14  1  0  0  0
 13 31  1  0  0  0
 14 15  2  0  0  0
 14 97  1  0  0  0
 15 98  1  0  0  0
 16 17  2  0  0  0
 16 21  1  0  0  0
 16 31  1  0  0  0
 17 18  1  0  0  0
 17 99  1  0  0  0
 18 19  2  0  0  0
 18100  1  0  0  0
 19 20  1  0  0  0
 19 24  1  0  0  0
 20 21  2  0  0  0
 20101  1  0  0  0
 21 23  1  0  0  0
 22 28  1  0  0  0
 22 32  2  0  0  0
 26 27  1  0  0  0
 28102  1  0  0  0
 28103  1  0  0  0
 29104  1  0  0  0
 29105  1  0  0  0
 33 34  1  0  0  0
 33 66  1  0  0  0
 33 70  2  0  0  0
 34 36  1  0  0  0
 34 59  1  0  0  0
 34106  1  0  0  0
 35 44  2  0  0  0
 35 45  1  0  0  0
 35 68  1  0  0  0
 36 56  1  0  0  0
 36107  1  0  0  0
 37 39  1  0  0  0
 37 47  1  0  0  0
 37 66  1  0  0  0
 37108  1  0  0  0
 38 43  2  0  0  0
 38 46  1  0  0  0
 38 47  1  0  0  0
 39 64  1  0  0  0
 39 67  2  0  0  0
 40 52  1  0  0  0
 40 53  2  0  0  0
 40 58  1  0  0  0
 41109  1  0  0  0
 41110  1  0  0  0
 41111  1  0  0  0
 41 48  1  0  0  0
 42 43  1  0  0  0
 42 66  1  0  0  0
 42112  1  0  0  0
 42113  1  0  0  0
 43 44  1  0  0  0
 44114  1  0  0  0
 45 46  2  0  0  0
 45115  1  0  0  0
 46116  1  0  0  0
 47117  1  0  0  0
 47118  1  0  0  0
 48 56  1  0  0  0
 48 65  1  0  0  0
 48119  1  0  0  0
 49 50  1  0  0  0
 49 53  1  0  0  0
 49 64  1  0  0  0
 49120  1  0  0  0
 50 51  1  0  0  0
 50121  1  0  0  0
 50122  1  0  0  0
 51 52  1  0  0  0
 51123  1  0  0  0
 51124  1  0  0  0
 52125  1  0  0  0
 52126  1  0  0  0
 53 54  1  0  0  0
 54 55  2  0  0  0
 54127  1  0  0  0
 55 57  1  0  0  0
 55128  1  0  0  0
 56 69  2  0  0  0
 57 58  2  0  0  0
 57129  1  0  0  0
 58130  1  0  0  0
 59 60  1  0  0  0
 59 61  1  0  0  0
 59 62  1  0  0  0
 60131  1  0  0  0
 60132  1  0  0  0
 60133  1  0  0  0
 61134  1  0  0  0
 61135  1  0  0  0
 61136  1  0  0  0
 62137  1  0  0  0
 62138  1  0  0  0
 62139  1  0  0  0
 63 65  1  0  0  0
 63140  1  0  0  0
 63141  1  0  0  0
 63142  1  0  0  0
 64143  1  0  0  0
 65144  1  0  0  0
 68 83  1  0  0  0
 71 73  2  0  0  0
 71 74  1  0  0  0
 71145  1  0  0  0
 72 75  2  0  0  0
 72 76  1  0  0  0
 72146  1  0  0  0
 73 75  1  0  0  0
 73 79  1  0  0  0
 74 76  2  0  0  0
 74 77  1  0  0  0
 75 78  1  0  0  0
 76 84  1  0  0  0
 77147  1  0  0  0
 77148  1  0  0  0
 77149  1  0  0  0
 78150  1  0  0  0
 78151  1  0  0  0
 78152  1  0  0  0
 79 83  1  0  0  0
 79153  1  0  0  0
 79154  1  0  0  0
 80 81  1  0  0  0
 80 82  1  0  0  0
 80155  1  0  0  0
 80156  1  0  0  0
 81 84  1  0  0  0
 81157  1  0  0  0
 81158  1  0  0  0
 82 85  1  0  0  0
 82159  1  0  0  0
 82160  1  0  0  0
 83161  1  0  0  0
 83162  1  0  0  0
 84163  1  0  0  0
 85164  1  0  0  0
M  ISO  4   1 100  68 101  83 101  85 100
M  END
> <chiral flag>
0

> <version>
0

> <s_m_source_file>
/data/baiqing/PycharmProjects/Reinvent-master-3.2/result/LINK_invent/BTK/process_docking_weight1_custom_sum_contain_oxygen_bond_distance_aromatic_linkinvent_7_9_3/rearranged_h_0028.sdf

> <i_m_source_file_index>
40

> <r_mmod_Potential_Energy-OPLS-2005>
23251.734375

> <r_mmod_Stretch_Energy-OPLS-2005>
12560.4462890625

> <r_mmod_Bend_Energy-OPLS-2005>
1612.55126953125

> <r_mmod_Torsional_Energy-OPLS-2005>
585.577880859375

> <r_mmod_Improper_Torsional_Energy-OPLS-2005>
71.8778457641602

> <r_mmod_Van_der_Waal_Energy-OPLS-2005>
4565.81787109375

> <r_mmod_Electrostatic_Energy-OPLS-2005>
-407.155181884766

> <r_mmod_Solvation_Energy-OPLS-2005>
-214.160949707031

> <b_mmod_Minimization_Converged-OPLS-2005>
0

> <r_mmod_RMS_Derivative-OPLS-2005>
8.11259651184082

$$$$
40
                    3D
 Structure written by MMmdl.
169178  0  0  1  0            999 V2000
  -30.6511  -14.5960   20.5224 C   0  0  0  0  0  0
  -30.4350  -12.3752   19.4328 C   0  0  0  0  0  0
  -29.5000  -12.4963   18.2112 C   0  0  0  0  0  0
  -28.0253  -12.3361   18.6319 C   0  0  0  0  0  0
  -27.6524  -13.2109   19.8580 C   0  0  2  0  0  0
  -28.6992  -13.0613   20.9830 C   0  0  0  0  0  0
  -25.2568  -13.8164   20.5680 C   0  0  0  0  0  0
  -24.1830  -13.0436   20.9193 C   0  0  0  0  0  0
  -24.6392  -11.6907   20.8748 C   0  0  0  0  0  0
  -23.9065  -10.4290   21.0409 C   0  0  0  0  0  0
  -24.3615   -9.4206   21.9189 C   0  0  0  0  0  0
  -23.6288   -8.2243   22.0759 C   0  0  0  0  0  0
  -22.4271   -8.0281   21.3546 C   0  0  0  0  0  0
  -21.9912   -9.0254   20.4646 C   0  0  0  0  0  0
  -22.7242  -10.2132   20.3054 C   0  0  0  0  0  0
  -21.6851   -6.0733   22.5278 C   0  0  0  0  0  0
  -21.4010   -6.5641   23.8209 C   0  0  0  0  0  0
  -21.3661   -5.6795   24.9174 C   0  0  0  0  0  0
  -21.6043   -4.3056   24.7228 C   0  0  0  0  0  0
  -21.8822   -3.8148   23.4348 C   0  0  0  0  0  0
  -21.9192   -4.6961   22.3401 C   0  0  0  0  0  0
  -22.7857  -13.5231   21.1861 C   0  0  0  0  0  0
  -22.1662   -4.2149   21.0976 F   0  0  0  0  0  0
  -21.5632   -3.4539   25.7739 F   0  0  0  0  0  0
  -30.0125  -13.3939   20.4095 N   0  0  0  0  0  0
  -26.2982  -12.9330   20.3300 N   0  0  0  0  0  0
  -25.9313  -11.6493   20.5758 N   0  0  0  0  0  0
  -22.0491  -12.8208   22.0399 N   0  0  0  0  0  0
  -25.4298  -15.1881   20.4100 N   0  0  0  0  0  0
  -31.8254  -14.7474   20.1768 O   0  0  0  0  0  0
  -21.6638   -6.8875   21.4240 O   0  0  0  0  0  0
  -22.3550  -14.5545   20.6719 O   0  0  0  0  0  0
  -24.6240  -31.8615   23.2035 C   0  0  0  0  0  0
  -25.9094  -32.4788   23.8366 C   0  0  1  0  0  0
  -27.2257  -27.3532   20.1109 C   0  0  0  0  0  0
  -25.5914  -33.8586   24.2303 N   0  0  0  0  0  0
  -23.4148  -30.4863   21.5463 C   0  0  2  0  0  0
  -24.8585  -28.9420   20.1165 C   0  0  0  0  0  0
  -22.7454  -29.4636   22.4949 C   0  0  0  0  0  0
  -18.0285  -28.1382   22.8492 C   0  0  0  0  0  0
  -24.1485  -36.7306   23.2638 C   0  0  0  0  0  0
  -25.9514  -30.8085   21.3612 C   0  0  0  0  0  0
  -26.0272  -29.4359   20.7094 C   0  0  0  0  0  0
  -27.2160  -28.6546   20.6902 C   0  0  0  0  0  0
  -26.0284  -26.8925   19.5196 C   0  0  0  0  0  0
  -24.8583  -27.6736   19.5158 C   0  0  0  0  0  0
  -23.6266  -29.8198   20.1625 C   0  0  0  0  0  0
  -25.4106  -36.3087   24.0328 C   0  0  1  0  0  0
  -20.5885  -28.3685   23.1295 C   0  0  2  0  0  0
  -20.6773  -26.9412   22.5410 C   0  0  0  0  0  0
  -19.5749  -26.6394   21.5207 C   0  0  0  0  0  0
  -18.1928  -26.7933   22.1617 C   0  0  0  0  0  0
  -19.1537  -28.8846   23.2893 C   0  0  0  0  0  0
  -18.9461  -30.1446   23.8911 C   0  0  0  0  0  0
  -17.6463  -30.6583   24.0571 C   0  0  0  0  0  0
  -25.9038  -34.9455   23.5118 C   0  0  0  0  0  0
  -16.5354  -29.9087   23.6330 C   0  0  0  0  0  0
  -16.7271  -28.6501   23.0353 C   0  0  0  0  0  0
  -26.4492  -31.6573   25.0713 C   0  0  0  0  0  0
  -25.3740  -31.3658   26.1442 C   0  0  0  0  0  0
  -27.0334  -30.3021   24.6094 C   0  0  0  0  0  0
  -27.6071  -32.4286   25.7486 C   0  0  0  0  0  0
  -27.5575  -37.1804   24.8463 C   0  0  0  0  0  0
  -21.4168  -29.3042   22.3692 N   0  0  0  0  0  0
  -26.4283  -37.3783   23.9410 N   0  0  0  0  0  0
  -24.6831  -31.0673   22.0958 N   0  0  0  0  0  0
  -23.4193  -28.8172   23.3011 O   0  0  0  0  0  0
  -28.3749  -26.5599   20.1202 O   0  0  0  0  0  0
  -26.5613  -34.8920   22.4687 O   0  0  0  0  0  0
  -23.5408  -32.1385   23.7393 O   0  0  0  0  0  0
  -30.9486  -18.2081   19.2681 C   0  0  0  0  0  0
  -29.7195  -20.7119   19.9758 C   0  0  0  0  0  0
  -30.1798  -18.2600   20.4398 C   0  0  0  0  0  0
  -29.5176  -19.5064   20.7653 C   0  0  0  0  0  0
  -30.5725  -20.5942   18.8326 C   0  0  0  0  0  0
  -31.1454  -19.3508   18.4839 C   0  0  0  0  0  0
  -28.0746  -22.7103   19.3071 C   0  0  0  0  0  0
  -30.0756  -23.2248   20.7988 C   0  0  0  0  0  0
  -28.2236  -24.2476   19.0204 C   0  0  0  0  0  0
  -29.3964  -24.5719   21.2311 C   0  0  0  0  0  0
  -29.0797  -22.1162   20.3493 C   0  0  2  0  0  0
  -28.2522  -25.1065   20.3135 C   0  0  1  0  0  0
  -30.9685  -21.7702   17.9455 C   0  0  0  0  0  0
  -29.3296  -20.0293   23.2498 C   0  0  0  0  0  0
  -28.6034  -19.5389   21.9898 C   0  0  0  0  0  0
  -30.2748  -17.0054   21.3718 C   0  0  0  0  0  0
  -29.8733  -15.6529   20.8854 N   0  0  0  0  0  0
  -31.9480  -19.2557   17.3961 F   0  0  0  0  0  0
  -31.4750  -12.5018   19.1263 H   0  0  0  0  0  0
  -30.3711  -11.3793   19.8737 H   0  0  0  0  0  0
  -29.7579  -11.7444   17.4640 H   0  0  0  0  0  0
  -29.6420  -13.4658   17.7318 H   0  0  0  0  0  0
  -27.8655  -11.2844   18.8708 H   0  0  0  0  0  0
  -27.3651  -12.5589   17.7934 H   0  0  0  0  0  0
  -27.6730  -14.2454   19.5161 H   0  0  0  0  0  0
  -28.7078  -12.0410   21.3688 H   0  0  0  0  0  0
  -28.4528  -13.6977   21.8344 H   0  0  0  0  0  0
  -25.2756   -9.5684   22.4768 H   0  0  0  0  0  0
  -23.9998   -7.4634   22.7480 H   0  0  0  0  0  0
  -21.0845   -8.8770   19.8945 H   0  0  0  0  0  0
  -22.3703  -10.9671   19.6162 H   0  0  0  0  0  0
  -21.2001   -7.6150   23.9714 H   0  0  0  0  0  0
  -21.1481   -6.0524   25.9077 H   0  0  0  0  0  0
  -22.0600   -2.7611   23.2846 H   0  0  0  0  0  0
  -22.4099  -11.9844   22.4746 H   0  0  0  0  0  0
  -21.1112  -13.1234   22.2613 H   0  0  0  0  0  0
  -24.6639  -15.8436   20.5209 H   0  0  0  0  0  0
  -26.2761  -15.6262   20.0690 H   0  0  0  0  0  0
  -26.7162  -32.5479   23.1121 H   0  0  0  0  0  0
  -25.0041  -33.9723   25.0436 H   0  0  0  0  0  0
  -22.7067  -31.3050   21.4034 H   0  0  0  0  0  0
  -23.3737  -35.9647   23.3289 H   0  0  0  0  0  0
  -24.3581  -36.8944   22.2056 H   0  0  0  0  0  0
  -23.7245  -37.6506   23.6668 H   0  0  0  0  0  0
  -26.0646  -31.5683   20.5869 H   0  0  0  0  0  0
  -26.8389  -30.8692   21.9785 H   0  0  0  0  0  0
  -28.1200  -29.0324   21.1473 H   0  0  0  0  0  0
  -25.9712  -25.9182   19.0632 H   0  0  0  0  0  0
  -23.9592  -27.2843   19.0585 H   0  0  0  0  0  0
  -23.7431  -30.5938   19.4030 H   0  0  0  0  0  0
  -22.7462  -29.2477   19.8633 H   0  0  0  0  0  0
  -25.1280  -36.1944   25.0817 H   0  0  0  0  0  0
  -20.9983  -28.3259   24.1412 H   0  0  0  0  0  0
  -20.5680  -26.2288   23.3600 H   0  0  0  0  0  0
  -21.6642  -26.7442   22.1201 H   0  0  0  0  0  0
  -19.6915  -25.6313   21.1219 H   0  0  0  0  0  0
  -19.6695  -27.3210   20.6744 H   0  0  0  0  0  0
  -17.4207  -26.6691   21.4012 H   0  0  0  0  0  0
  -18.0316  -26.0065   22.9000 H   0  0  0  0  0  0
  -19.7932  -30.7259   24.2287 H   0  0  0  0  0  0
  -17.5017  -31.6266   24.5169 H   0  0  0  0  0  0
  -15.5352  -30.2999   23.7642 H   0  0  0  0  0  0
  -15.8667  -28.0823   22.7068 H   0  0  0  0  0  0
  -24.5993  -30.6900   25.7786 H   0  0  0  0  0  0
  -24.8813  -32.2775   26.4826 H   0  0  0  0  0  0
  -25.8102  -30.8911   27.0243 H   0  0  0  0  0  0
  -26.2881  -29.6765   24.1158 H   0  0  0  0  0  0
  -27.4126  -29.7267   25.4552 H   0  0  0  0  0  0
  -27.8706  -30.4347   23.9235 H   0  0  0  0  0  0
  -27.2730  -33.3636   26.1995 H   0  0  0  0  0  0
  -28.3925  -32.6747   25.0327 H   0  0  0  0  0  0
  -28.0672  -31.8426   26.5451 H   0  0  0  0  0  0
  -28.2578  -38.0119   24.7527 H   0  0  0  0  0  0
  -28.1089  -36.2644   24.6267 H   0  0  0  0  0  0
  -27.2293  -37.1429   25.8869 H   0  0  0  0  0  0
  -20.9336  -29.8780   21.6927 H   0  0  0  0  0  0
  -26.0162  -38.2855   24.1428 H   0  0  0  0  0  0
  -31.4584  -17.2951   18.9962 H   0  0  0  0  0  0
  -28.1385  -22.1673   18.3650 H   0  0  0  0  0  0
  -27.0605  -22.5139   19.6574 H   0  0  0  0  0  0
  -30.6796  -22.8532   21.6270 H   0  0  0  0  0  0
  -30.7845  -23.4434   20.0029 H   0  0  0  0  0  0
  -27.4221  -24.5592   18.3541 H   0  0  0  0  0  0
  -29.1383  -24.4365   18.4600 H   0  0  0  0  0  0
  -30.1740  -25.3316   21.3131 H   0  0  0  0  0  0
  -29.0005  -24.4600   22.2408 H   0  0  0  0  0  0
  -28.4792  -21.9839   21.2429 H   0  0  0  0  0  0
  -27.3190  -24.9111   20.8456 H   0  0  0  0  0  0
  -30.2484  -22.5767   17.9149 H   0  0  0  0  0  0
  -31.1002  -21.4504   16.9117 H   0  0  0  0  0  0
  -31.9205  -22.1815   18.2816 H   0  0  0  0  0  0
  -28.6644  -20.0105   24.1133 H   0  0  0  0  0  0
  -29.6893  -21.0518   23.1322 H   0  0  0  0  0  0
  -30.1901  -19.4013   23.4806 H   0  0  0  0  0  0
  -28.1714  -18.5553   22.1682 H   0  0  0  0  0  0
  -27.7178  -20.1405   21.7929 H   0  0  0  0  0  0
  -29.7470  -17.1648   22.3080 H   0  0  0  0  0  0
  -31.3201  -16.9438   21.6812 H   0  0  0  0  0  0
  -28.9027  -15.4222   21.0337 H   0  0  0  0  0  0
  1 25  1  0  0  0
  1 30  2  0  0  0
  1 87  1  0  0  0
  2  3  1  0  0  0
  2 25  1  0  0  0
  2 89  1  0  0  0
  2 90  1  0  0  0
  3  4  1  0  0  0
  3 91  1  0  0  0
  3 92  1  0  0  0
  4  5  1  0  0  0
  4 93  1  0  0  0
  4 94  1  0  0  0
  5  6  1  0  0  0
  5 26  1  0  0  0
  5 95  1  0  0  0
  6 25  1  0  0  0
  6 96  1  0  0  0
  6 97  1  0  0  0
  7  8  2  0  0  0
  7 26  1  0  0  0
  7 29  1  0  0  0
  8  9  1  0  0  0
  8 22  1  0  0  0
  9 10  1  0  0  0
  9 27  2  0  0  0
 10 11  2  0  0  0
 10 15  1  0  0  0
 11 12  1  0  0  0
 11 98  1  0  0  0
 12 13  2  0  0  0
 12 99  1  0  0  0
 13 14  1  0  0  0
 13 31  1  0  0  0
 14 15  2  0  0  0
 14100  1  0  0  0
 15101  1  0  0  0
 16 17  2  0  0  0
 16 21  1  0  0  0
 16 31  1  0  0  0
 17 18  1  0  0  0
 17102  1  0  0  0
 18 19  2  0  0  0
 18103  1  0  0  0
 19 20  1  0  0  0
 19 24  1  0  0  0
 20 21  2  0  0  0
 20104  1  0  0  0
 21 23  1  0  0  0
 22 28  1  0  0  0
 22 32  2  0  0  0
 26 27  1  0  0  0
 28105  1  0  0  0
 28106  1  0  0  0
 29107  1  0  0  0
 29108  1  0  0  0
 33 34  1  0  0  0
 33 66  1  0  0  0
 33 70  2  0  0  0
 34 36  1  0  0  0
 34 59  1  0  0  0
 34109  1  0  0  0
 35 44  2  0  0  0
 35 45  1  0  0  0
 35 68  1  0  0  0
 36 56  1  0  0  0
 36110  1  0  0  0
 37 39  1  0  0  0
 37 47  1  0  0  0
 37 66  1  0  0  0
 37111  1  0  0  0
 38 43  2  0  0  0
 38 46  1  0  0  0
 38 47  1  0  0  0
 39 64  1  0  0  0
 39 67  2  0  0  0
 40 52  1  0  0  0
 40 53  2  0  0  0
 40 58  1  0  0  0
 41112  1  0  0  0
 41113  1  0  0  0
 41114  1  0  0  0
 41 48  1  0  0  0
 42 43  1  0  0  0
 42 66  1  0  0  0
 42115  1  0  0  0
 42116  1  0  0  0
 43 44  1  0  0  0
 44117  1  0  0  0
 45 46  2  0  0  0
 45118  1  0  0  0
 46119  1  0  0  0
 47120  1  0  0  0
 47121  1  0  0  0
 48 56  1  0  0  0
 48 65  1  0  0  0
 48122  1  0  0  0
 49 50  1  0  0  0
 49 53  1  0  0  0
 49 64  1  0  0  0
 49123  1  0  0  0
 50 51  1  0  0  0
 50124  1  0  0  0
 50125  1  0  0  0
 51 52  1  0  0  0
 51126  1  0  0  0
 51127  1  0  0  0
 52128  1  0  0  0
 52129  1  0  0  0
 53 54  1  0  0  0
 54 55  2  0  0  0
 54130  1  0  0  0
 55 57  1  0  0  0
 55131  1  0  0  0
 56 69  2  0  0  0
 57 58  2  0  0  0
 57132  1  0  0  0
 58133  1  0  0  0
 59 60  1  0  0  0
 59 61  1  0  0  0
 59 62  1  0  0  0
 60134  1  0  0  0
 60135  1  0  0  0
 60136  1  0  0  0
 61137  1  0  0  0
 61138  1  0  0  0
 61139  1  0  0  0
 62140  1  0  0  0
 62141  1  0  0  0
 62142  1  0  0  0
 63 65  1  0  0  0
 63143  1  0  0  0
 63144  1  0  0  0
 63145  1  0  0  0
 64146  1  0  0  0
 65147  1  0  0  0
 68 82  1  0  0  0
 71 73  2  0  0  0
 71 76  1  0  0  0
 71148  1  0  0  0
 72 74  2  0  0  0
 72 75  1  0  0  0
 72 81  1  0  0  0
 73 74  1  0  0  0
 73 86  1  0  0  0
 74 85  1  0  0  0
 75 76  2  0  0  0
 75 83  1  0  0  0
 76 88  1  0  0  0
 77 79  1  0  0  0
 77 81  1  0  0  0
 77149  1  0  0  0
 77150  1  0  0  0
 78 80  1  0  0  0
 78 81  1  0  0  0
 78151  1  0  0  0
 78152  1  0  0  0
 79 82  1  0  0  0
 79153  1  0  0  0
 79154  1  0  0  0
 80 82  1  0  0  0
 80155  1  0  0  0
 80156  1  0  0  0
 81157  1  0  0  0
 82158  1  0  0  0
 83159  1  0  0  0
 83160  1  0  0  0
 83161  1  0  0  0
 84 85  1  0  0  0
 84162  1  0  0  0
 84163  1  0  0  0
 84164  1  0  0  0
 85165  1  0  0  0
 85166  1  0  0  0
 86 87  1  0  0  0
 86167  1  0  0  0
 86168  1  0  0  0
 87169  1  0  0  0
M  ISO  4   1 100  68 101  82 101  87 100
M  END
> <chiral flag>
0

> <version>
0

> <s_m_source_file>
/data/baiqing/PycharmProjects/Reinvent-master-3.2/result/LINK_invent/BTK/process_docking_weight1_custom_sum_contain_oxygen_bond_distance_aromatic_linkinvent_7_9_3/rearranged_h_0028.sdf

> <i_m_source_file_index>
41

> <r_mmod_Potential_Energy-OPLS-2005>
33.7808837890625

> <r_mmod_Stretch_Energy-OPLS-2005>
76.9527053833008

> <r_mmod_Bend_Energy-OPLS-2005>
137.115600585938

> <r_mmod_Torsional_Energy-OPLS-2005>
261.735382080078

> <r_mmod_Improper_Torsional_Energy-OPLS-2005>
4.73358345031738

> <r_mmod_Van_der_Waal_Energy-OPLS-2005>
159.764877319336

> <r_mmod_Electrostatic_Energy-OPLS-2005>
-443.791046142578

> <r_mmod_Solvation_Energy-OPLS-2005>
-197.729797363281

> <b_mmod_Minimization_Converged-OPLS-2005>
0

> <r_mmod_RMS_Derivative-OPLS-2005>
1.13292562961578

$$$$
41
                    3D
 Structure written by MMmdl.
159167  0  0  1  0            999 V2000
  -30.5456  -14.8725   20.4246 C   0  0  0  0  0  0
  -30.4516  -12.5331   19.4827 C   0  0  0  0  0  0
  -29.5241  -12.5226   18.2448 C   0  0  0  0  0  0
  -28.0526  -12.3236   18.6592 C   0  0  0  0  0  0
  -27.6402  -13.2362   19.8429 C   0  0  2  0  0  0
  -28.6882  -13.2075   20.9777 C   0  0  0  0  0  0
  -25.2520  -13.8204   20.5698 C   0  0  0  0  0  0
  -24.1818  -13.0451   20.9236 C   0  0  0  0  0  0
  -24.6415  -11.6927   20.8764 C   0  0  0  0  0  0
  -23.9085  -10.4299   21.0407 C   0  0  0  0  0  0
  -24.3644   -9.4210   21.9179 C   0  0  0  0  0  0
  -23.6315   -8.2243   22.0749 C   0  0  0  0  0  0
  -22.4293   -8.0284   21.3541 C   0  0  0  0  0  0
  -21.9932   -9.0261   20.4646 C   0  0  0  0  0  0
  -22.7261  -10.2136   20.3048 C   0  0  0  0  0  0
  -21.6854   -6.0741   22.5285 C   0  0  0  0  0  0
  -21.4013   -6.5638   23.8222 C   0  0  0  0  0  0
  -21.3658   -5.6788   24.9180 C   0  0  0  0  0  0
  -21.6045   -4.3052   24.7232 C   0  0  0  0  0  0
  -21.8813   -3.8146   23.4349 C   0  0  0  0  0  0
  -21.9195   -4.6967   22.3407 C   0  0  0  0  0  0
  -22.7826  -13.5221   21.1882 C   0  0  0  0  0  0
  -22.1659   -4.2152   21.0983 F   0  0  0  0  0  0
  -21.5641   -3.4531   25.7743 F   0  0  0  0  0  0
  -29.9775  -13.6063   20.3936 N   0  0  0  0  0  0
  -26.2940  -12.9409   20.3245 N   0  0  0  0  0  0
  -25.9340  -11.6553   20.5743 N   0  0  0  0  0  0
  -22.0452  -12.8223   22.0431 N   0  0  0  0  0  0
  -25.4168  -15.1936   20.4101 N   0  0  0  0  0  0
  -31.7375  -14.9867   20.1223 O   0  0  0  0  0  0
  -21.6644   -6.8887   21.4244 O   0  0  0  0  0  0
  -22.3503  -14.5506   20.6698 O   0  0  0  0  0  0
  -24.6372  -31.8479   23.1901 C   0  0  0  0  0  0
  -25.9165  -32.4717   23.8278 C   0  0  1  0  0  0
  -27.2374  -27.1951   20.1567 C   0  0  0  0  0  0
  -25.5932  -33.8522   24.2214 N   0  0  0  0  0  0
  -23.4394  -30.4638   21.5347 C   0  0  2  0  0  0
  -24.8921  -28.8860   20.1234 C   0  0  0  0  0  0
  -22.7537  -29.4552   22.4892 C   0  0  0  0  0  0
  -18.0302  -28.1402   22.8476 C   0  0  0  0  0  0
  -24.1487  -36.7263   23.2643 C   0  0  0  0  0  0
  -25.9893  -30.7396   21.3791 C   0  0  0  0  0  0
  -26.0658  -29.3514   20.7309 C   0  0  0  0  0  0
  -27.2408  -28.5221   20.7277 C   0  0  0  0  0  0
  -26.0355  -26.8015   19.5338 C   0  0  0  0  0  0
  -24.8839  -27.6197   19.5145 C   0  0  0  0  0  0
  -23.6668  -29.7839   20.1576 C   0  0  0  0  0  0
  -25.4118  -36.3047   24.0325 C   0  0  1  0  0  0
  -20.5906  -28.3715   23.1257 C   0  0  2  0  0  0
  -20.6793  -26.9427   22.5407 C   0  0  0  0  0  0
  -19.5768  -26.6388   21.5218 C   0  0  0  0  0  0
  -18.1945  -26.7941   22.1624 C   0  0  0  0  0  0
  -19.1556  -28.8880   23.2856 C   0  0  0  0  0  0
  -18.9475  -30.1480   23.8874 C   0  0  0  0  0  0
  -17.6471  -30.6596   24.0564 C   0  0  0  0  0  0
  -25.9062  -34.9422   23.5079 C   0  0  0  0  0  0
  -16.5361  -29.9091   23.6331 C   0  0  0  0  0  0
  -16.7285  -28.6516   23.0337 C   0  0  0  0  0  0
  -26.4504  -31.6555   25.0691 C   0  0  0  0  0  0
  -25.3707  -31.3738   26.1402 C   0  0  0  0  0  0
  -27.0363  -30.2961   24.6221 C   0  0  0  0  0  0
  -27.6050  -32.4294   25.7479 C   0  0  0  0  0  0
  -27.5576  -37.1790   24.8464 C   0  0  0  0  0  0
  -21.4234  -29.3039   22.3638 N   0  0  0  0  0  0
  -26.4287  -37.3755   23.9410 N   0  0  0  0  0  0
  -24.7083  -31.0377   22.0908 N   0  0  0  0  0  0
  -23.4202  -28.8113   23.3037 O   0  0  0  0  0  0
  -28.3458  -26.2983   20.1032 O   0  0  0  0  0  0
  -26.5641  -34.8914   22.4650 O   0  0  0  0  0  0
  -23.5505  -32.1323   23.7152 O   0  0  0  0  0  0
  -28.5022  -18.2241   20.8058 C   0  0  0  0  0  0
  -30.6430  -19.8137   20.1958 C   0  0  0  0  0  0
  -28.3686  -19.6699   20.8131 C   0  0  0  0  0  0
  -29.4583  -20.5712   20.5393 C   0  0  0  0  0  0
  -29.6988  -17.4852   20.5299 C   0  0  0  0  0  0
  -30.7736  -18.3668   20.1924 C   0  0  0  0  0  0
  -26.9995  -20.2007   21.1948 C   0  0  0  0  0  0
  -29.1760  -22.3153   22.3787 C   0  0  0  0  0  0
  -30.9465  -22.6921   20.7197 C   0  0  0  0  0  0
  -28.6195  -23.4031   20.0873 C   0  0  0  0  0  0
  -28.3417  -24.9144   20.7567 C   0  0  0  0  0  0
  -29.4868  -22.2020   20.8707 C   0  0  0  0  0  0
  -29.6829  -15.9656   20.6213 N   0  0  0  0  0  0
  -31.9826  -17.8415   19.8830 F   0  0  0  0  0  0
  -31.4849  -12.6929   19.1708 H   0  0  0  0  0  0
  -30.4367  -11.5666   19.9885 H   0  0  0  0  0  0
  -29.8274  -11.7339   17.5556 H   0  0  0  0  0  0
  -29.6296  -13.4620   17.6998 H   0  0  0  0  0  0
  -27.9313  -11.2775   18.9435 H   0  0  0  0  0  0
  -27.3919  -12.4835   17.8056 H   0  0  0  0  0  0
  -27.6201  -14.2493   19.4411 H   0  0  0  0  0  0
  -28.7543  -12.2120   21.4188 H   0  0  0  0  0  0
  -28.4009  -13.8817   21.7851 H   0  0  0  0  0  0
  -25.2781   -9.5694   22.4763 H   0  0  0  0  0  0
  -24.0029   -7.4626   22.7463 H   0  0  0  0  0  0
  -21.0865   -8.8783   19.8955 H   0  0  0  0  0  0
  -22.3718  -10.9683   19.6167 H   0  0  0  0  0  0
  -21.1988   -7.6143   23.9734 H   0  0  0  0  0  0
  -21.1492   -6.0510   25.9089 H   0  0  0  0  0  0
  -22.0596   -2.7607   23.2851 H   0  0  0  0  0  0
  -22.4065  -11.9920   22.4890 H   0  0  0  0  0  0
  -21.1050  -13.1234   22.2570 H   0  0  0  0  0  0
  -24.6398  -15.8376   20.5122 H   0  0  0  0  0  0
  -26.2400  -15.6327   20.0198 H   0  0  0  0  0  0
  -26.7228  -32.5351   23.1016 H   0  0  0  0  0  0
  -25.0061  -33.9646   25.0348 H   0  0  0  0  0  0
  -22.7377  -31.2853   21.3757 H   0  0  0  0  0  0
  -23.3760  -35.9582   23.3292 H   0  0  0  0  0  0
  -24.3570  -36.8905   22.2056 H   0  0  0  0  0  0
  -23.7236  -37.6460   23.6678 H   0  0  0  0  0  0
  -26.1290  -31.4924   20.6017 H   0  0  0  0  0  0
  -26.8655  -30.7973   22.0139 H   0  0  0  0  0  0
  -28.1444  -28.8821   21.1985 H   0  0  0  0  0  0
  -25.9874  -25.8330   19.0569 H   0  0  0  0  0  0
  -23.9866  -27.2533   19.0358 H   0  0  0  0  0  0
  -23.8044  -30.5521   19.3966 H   0  0  0  0  0  0
  -22.7838  -29.2215   19.8489 H   0  0  0  0  0  0
  -25.1308  -36.1876   25.0818 H   0  0  0  0  0  0
  -20.9984  -28.3302   24.1387 H   0  0  0  0  0  0
  -20.5699  -26.2327   23.3620 H   0  0  0  0  0  0
  -21.6661  -26.7448   22.1199 H   0  0  0  0  0  0
  -19.6928  -25.6295   21.1263 H   0  0  0  0  0  0
  -19.6715  -27.3190   20.6743 H   0  0  0  0  0  0
  -17.4215  -26.6676   21.4027 H   0  0  0  0  0  0
  -18.0339  -26.0100   22.9036 H   0  0  0  0  0  0
  -19.7952  -30.7304   24.2227 H   0  0  0  0  0  0
  -17.5027  -31.6274   24.5174 H   0  0  0  0  0  0
  -15.5362  -30.2984   23.7688 H   0  0  0  0  0  0
  -15.8682  -28.0845   22.7037 H   0  0  0  0  0  0
  -24.5864  -30.7107   25.7726 H   0  0  0  0  0  0
  -24.8921  -32.2929   26.4798 H   0  0  0  0  0  0
  -25.7994  -30.8922   27.0200 H   0  0  0  0  0  0
  -26.2970  -29.6695   24.1219 H   0  0  0  0  0  0
  -27.4001  -29.7234   25.4764 H   0  0  0  0  0  0
  -27.8859  -30.4225   23.9509 H   0  0  0  0  0  0
  -27.2648  -33.3595   26.2039 H   0  0  0  0  0  0
  -28.3875  -32.6850   25.0322 H   0  0  0  0  0  0
  -28.0691  -31.8427   26.5416 H   0  0  0  0  0  0
  -28.2589  -38.0091   24.7511 H   0  0  0  0  0  0
  -28.1086  -36.2625   24.6294 H   0  0  0  0  0  0
  -27.2297  -37.1433   25.8869 H   0  0  0  0  0  0
  -20.9442  -29.8746   21.6816 H   0  0  0  0  0  0
  -26.0161  -38.2826   24.1418 H   0  0  0  0  0  0
  -27.6224  -17.6514   21.0611 H   0  0  0  0  0  0
  -31.5532  -20.3455   19.9698 H   0  0  0  0  0  0
  -26.2129  -19.5987   20.7398 H   0  0  0  0  0  0
  -26.8409  -21.2264   20.8719 H   0  0  0  0  0  0
  -26.8716  -20.1514   22.2769 H   0  0  0  0  0  0
  -29.7497  -21.5839   22.9501 H   0  0  0  0  0  0
  -28.1248  -22.1506   22.6020 H   0  0  0  0  0  0
  -29.4303  -23.2910   22.7899 H   0  0  0  0  0  0
  -31.6344  -22.1355   21.3575 H   0  0  0  0  0  0
  -31.0544  -23.7409   20.9955 H   0  0  0  0  0  0
  -31.2936  -22.6011   19.6891 H   0  0  0  0  0  0
  -29.0832  -23.5599   19.1131 H   0  0  0  0  0  0
  -27.6372  -23.0054   19.8387 H   0  0  0  0  0  0
  -29.1238  -25.0464   21.5012 H   0  0  0  0  0  0
  -27.4329  -24.8392   21.3536 H   0  0  0  0  0  0
  -28.7662  -15.6178   20.8520 H   0  0  0  0  0  0
  1 25  1  0  0  0
  1 30  2  0  0  0
  1 83  1  0  0  0
  2  3  1  0  0  0
  2 25  1  0  0  0
  2 85  1  0  0  0
  2 86  1  0  0  0
  3  4  1  0  0  0
  3 87  1  0  0  0
  3 88  1  0  0  0
  4  5  1  0  0  0
  4 89  1  0  0  0
  4 90  1  0  0  0
  5  6  1  0  0  0
  5 26  1  0  0  0
  5 91  1  0  0  0
  6 25  1  0  0  0
  6 92  1  0  0  0
  6 93  1  0  0  0
  7  8  2  0  0  0
  7 26  1  0  0  0
  7 29  1  0  0  0
  8  9  1  0  0  0
  8 22  1  0  0  0
  9 10  1  0  0  0
  9 27  2  0  0  0
 10 11  2  0  0  0
 10 15  1  0  0  0
 11 12  1  0  0  0
 11 94  1  0  0  0
 12 13  2  0  0  0
 12 95  1  0  0  0
 13 14  1  0  0  0
 13 31  1  0  0  0
 14 15  2  0  0  0
 14 96  1  0  0  0
 15 97  1  0  0  0
 16 17  2  0  0  0
 16 21  1  0  0  0
 16 31  1  0  0  0
 17 18  1  0  0  0
 17 98  1  0  0  0
 18 19  2  0  0  0
 18 99  1  0  0  0
 19 20  1  0  0  0
 19 24  1  0  0  0
 20 21  2  0  0  0
 20100  1  0  0  0
 21 23  1  0  0  0
 22 28  1  0  0  0
 22 32  2  0  0  0
 26 27  1  0  0  0
 28101  1  0  0  0
 28102  1  0  0  0
 29103  1  0  0  0
 29104  1  0  0  0
 33 34  1  0  0  0
 33 66  1  0  0  0
 33 70  2  0  0  0
 34 36  1  0  0  0
 34 59  1  0  0  0
 34105  1  0  0  0
 35 44  2  0  0  0
 35 45  1  0  0  0
 35 68  1  0  0  0
 36 56  1  0  0  0
 36106  1  0  0  0
 37 39  1  0  0  0
 37 47  1  0  0  0
 37 66  1  0  0  0
 37107  1  0  0  0
 38 43  2  0  0  0
 38 46  1  0  0  0
 38 47  1  0  0  0
 39 64  1  0  0  0
 39 67  2  0  0  0
 40 52  1  0  0  0
 40 53  2  0  0  0
 40 58  1  0  0  0
 41108  1  0  0  0
 41109  1  0  0  0
 41110  1  0  0  0
 41 48  1  0  0  0
 42 43  1  0  0  0
 42 66  1  0  0  0
 42111  1  0  0  0
 42112  1  0  0  0
 43 44  1  0  0  0
 44113  1  0  0  0
 45 46  2  0  0  0
 45114  1  0  0  0
 46115  1  0  0  0
 47116  1  0  0  0
 47117  1  0  0  0
 48 56  1  0  0  0
 48 65  1  0  0  0
 48118  1  0  0  0
 49 50  1  0  0  0
 49 53  1  0  0  0
 49 64  1  0  0  0
 49119  1  0  0  0
 50 51  1  0  0  0
 50120  1  0  0  0
 50121  1  0  0  0
 51 52  1  0  0  0
 51122  1  0  0  0
 51123  1  0  0  0
 52124  1  0  0  0
 52125  1  0  0  0
 53 54  1  0  0  0
 54 55  2  0  0  0
 54126  1  0  0  0
 55 57  1  0  0  0
 55127  1  0  0  0
 56 69  2  0  0  0
 57 58  2  0  0  0
 57128  1  0  0  0
 58129  1  0  0  0
 59 60  1  0  0  0
 59 61  1  0  0  0
 59 62  1  0  0  0
 60130  1  0  0  0
 60131  1  0  0  0
 60132  1  0  0  0
 61133  1  0  0  0
 61134  1  0  0  0
 61135  1  0  0  0
 62136  1  0  0  0
 62137  1  0  0  0
 62138  1  0  0  0
 63 65  1  0  0  0
 63139  1  0  0  0
 63140  1  0  0  0
 63141  1  0  0  0
 64142  1  0  0  0
 65143  1  0  0  0
 68 81  1  0  0  0
 71 73  2  0  0  0
 71 75  1  0  0  0
 71144  1  0  0  0
 72 74  2  0  0  0
 72 76  1  0  0  0
 72145  1  0  0  0
 73 74  1  0  0  0
 73 77  1  0  0  0
 74 82  1  0  0  0
 75 76  2  0  0  0
 75 83  1  0  0  0
 76 84  1  0  0  0
 77146  1  0  0  0
 77147  1  0  0  0
 77148  1  0  0  0
 78149  1  0  0  0
 78150  1  0  0  0
 78151  1  0  0  0
 78 82  1  0  0  0
 79 82  1  0  0  0
 79152  1  0  0  0
 79153  1  0  0  0
 79154  1  0  0  0
 80 81  1  0  0  0
 80 82  1  0  0  0
 80155  1  0  0  0
 80156  1  0  0  0
 81157  1  0  0  0
 81158  1  0  0  0
 83159  1  0  0  0
M  ISO  4   1 100  68 101  81 101  83 100
M  END
> <chiral flag>
0

> <version>
0

> <s_m_source_file>
/data/baiqing/PycharmProjects/Reinvent-master-3.2/result/LINK_invent/BTK/process_docking_weight1_custom_sum_contain_oxygen_bond_distance_aromatic_linkinvent_7_9_3/rearranged_h_0028.sdf

> <i_m_source_file_index>
42

> <r_mmod_Potential_Energy-OPLS-2005>
399.758483886719

> <r_mmod_Stretch_Energy-OPLS-2005>
205.898025512695

> <r_mmod_Bend_Energy-OPLS-2005>
266.736053466797

> <r_mmod_Torsional_Energy-OPLS-2005>
257.006622314453

> <r_mmod_Improper_Torsional_Energy-OPLS-2005>
6.38467884063721

> <r_mmod_Van_der_Waal_Energy-OPLS-2005>
138.038238525391

> <r_mmod_Electrostatic_Energy-OPLS-2005>
-405.032775878906

> <r_mmod_Solvation_Energy-OPLS-2005>
-205.037094116211

> <b_mmod_Minimization_Converged-OPLS-2005>
0

> <r_mmod_RMS_Derivative-OPLS-2005>
1.97761428356171

$$$$
42
                    3D
 Structure written by MMmdl.
157165  0  0  1  0            999 V2000
  -30.6712  -14.4723   20.5998 C   0  0  0  0  0  0
  -30.4345  -12.3199   19.4028 C   0  0  0  0  0  0
  -29.4910  -12.5213   18.1983 C   0  0  0  0  0  0
  -28.0127  -12.3665   18.6142 C   0  0  0  0  0  0
  -27.6646  -13.1834   19.8864 C   0  0  2  0  0  0
  -28.7134  -12.9407   20.9954 C   0  0  0  0  0  0
  -25.2624  -13.8092   20.5690 C   0  0  0  0  0  0
  -24.1848  -13.0411   20.9181 C   0  0  0  0  0  0
  -24.6368  -11.6867   20.8749 C   0  0  0  0  0  0
  -23.9020  -10.4273   21.0419 C   0  0  0  0  0  0
  -24.3587   -9.4190   21.9188 C   0  0  0  0  0  0
  -23.6277   -8.2219   22.0752 C   0  0  0  0  0  0
  -22.4260   -8.0259   21.3546 C   0  0  0  0  0  0
  -21.9884   -9.0226   20.4646 C   0  0  0  0  0  0
  -22.7198  -10.2113   20.3064 C   0  0  0  0  0  0
  -21.6848   -6.0715   22.5271 C   0  0  0  0  0  0
  -21.4014   -6.5627   23.8202 C   0  0  0  0  0  0
  -21.3660   -5.6785   24.9165 C   0  0  0  0  0  0
  -21.6052   -4.3049   24.7219 C   0  0  0  0  0  0
  -21.8828   -3.8135   23.4343 C   0  0  0  0  0  0
  -21.9192   -4.6946   22.3396 C   0  0  0  0  0  0
  -22.7876  -13.5233   21.1844 C   0  0  0  0  0  0
  -22.1666   -4.2131   21.0976 F   0  0  0  0  0  0
  -21.5629   -3.4537   25.7737 F   0  0  0  0  0  0
  -30.0361  -13.2778   20.4443 N   0  0  0  0  0  0
  -26.3044  -12.9211   20.3437 N   0  0  0  0  0  0
  -25.9292  -11.6399   20.5807 N   0  0  0  0  0  0
  -22.0509  -12.8233   22.0398 N   0  0  0  0  0  0
  -25.4383  -15.1803   20.4055 N   0  0  0  0  0  0
  -31.7769  -14.6946   20.0937 O   0  0  0  0  0  0
  -21.6637   -6.8853   21.4232 O   0  0  0  0  0  0
  -22.3577  -14.5545   20.6690 O   0  0  0  0  0  0
  -24.6138  -31.8678   23.2098 C   0  0  0  0  0  0
  -25.9038  -32.4820   23.8383 C   0  0  1  0  0  0
  -27.2422  -27.4409   20.0891 C   0  0  0  0  0  0
  -25.5900  -33.8616   24.2316 N   0  0  0  0  0  0
  -23.4007  -30.4918   21.5497 C   0  0  2  0  0  0
  -24.8475  -28.9552   20.1153 C   0  0  0  0  0  0
  -22.7398  -29.4663   22.4988 C   0  0  0  0  0  0
  -18.0268  -28.1380   22.8487 C   0  0  0  0  0  0
  -24.1489  -36.7315   23.2640 C   0  0  0  0  0  0
  -25.9286  -30.8352   21.3608 C   0  0  0  0  0  0
  -26.0062  -29.4693   20.7089 C   0  0  0  0  0  0
  -27.2025  -28.7190   20.6933 C   0  0  0  0  0  0
  -26.0618  -26.9378   19.4919 C   0  0  0  0  0  0
  -24.8698  -27.6879   19.5074 C   0  0  0  0  0  0
  -23.6092  -29.8223   20.1644 C   0  0  0  0  0  0
  -25.4107  -36.3107   24.0338 C   0  0  1  0  0  0
  -20.5857  -28.3660   23.1323 C   0  0  2  0  0  0
  -20.6760  -26.9396   22.5419 C   0  0  0  0  0  0
  -19.5741  -26.6383   21.5212 C   0  0  0  0  0  0
  -18.1919  -26.7923   22.1620 C   0  0  0  0  0  0
  -19.1518  -28.8836   23.2902 C   0  0  0  0  0  0
  -18.9449  -30.1444   23.8905 C   0  0  0  0  0  0
  -17.6450  -30.6585   24.0566 C   0  0  0  0  0  0
  -25.9033  -34.9474   23.5120 C   0  0  0  0  0  0
  -16.5343  -29.9086   23.6330 C   0  0  0  0  0  0
  -16.7258  -28.6508   23.0338 C   0  0  0  0  0  0
  -26.4471  -31.6601   25.0709 C   0  0  0  0  0  0
  -25.3744  -31.3709   26.1466 C   0  0  0  0  0  0
  -27.0312  -30.3049   24.6085 C   0  0  0  0  0  0
  -27.6039  -32.4328   25.7472 C   0  0  0  0  0  0
  -27.5581  -37.1810   24.8465 C   0  0  0  0  0  0
  -21.4128  -29.3026   22.3725 N   0  0  0  0  0  0
  -26.4292  -37.3790   23.9410 N   0  0  0  0  0  0
  -24.6659  -31.0793   22.0988 N   0  0  0  0  0  0
  -23.4171  -28.8211   23.3035 O   0  0  0  0  0  0
  -28.4356  -26.7442   20.1116 O   0  0  0  0  0  0
  -26.5591  -34.8929   22.4681 O   0  0  0  0  0  0
  -23.5338  -32.1431   23.7503 O   0  0  0  0  0  0
  -29.8554  -18.8723   19.2639 C   0  0  0  0  0  0
  -30.7366  -19.7233   19.9593 C   0  0  0  0  0  0
  -30.2812  -17.0355   20.8381 C   0  0  0  0  0  0
  -29.6297  -17.5495   19.6878 C   0  0  0  0  0  0
  -31.4078  -19.2163   21.0995 C   0  0  0  0  0  0
  -31.1832  -17.8826   21.5359 C   0  0  0  0  0  0
  -29.9516  -15.6208   21.3521 C   0  0  0  0  0  0
  -30.9988  -21.1301   19.4058 C   0  0  0  0  0  0
  -29.8366  -24.7671   20.0693 C   0  0  0  0  0  0
  -30.2876  -23.5047   19.2803 C   0  0  0  0  0  0
  -28.4741  -25.3814   19.6688 C   0  0  0  0  0  0
  -30.1755  -22.2104   20.0098 N   0  3  0  0  0  0
  -28.5299  -16.5948   18.7592 Cl  0  0  0  0  0  0
  -32.5104  -20.2315   21.9670 Cl  0  0  0  0  0  0
  -32.0168  -17.3033   22.9413 Cl  0  0  0  0  0  0
  -31.4728  -12.4475   19.0932 H   0  0  0  0  0  0
  -30.3636  -11.3005   19.7844 H   0  0  0  0  0  0
  -29.7340  -11.8139   17.4048 H   0  0  0  0  0  0
  -29.6458  -13.5167   17.7778 H   0  0  0  0  0  0
  -27.8203  -11.3069   18.7875 H   0  0  0  0  0  0
  -27.3594  -12.6625   17.7927 H   0  0  0  0  0  0
  -27.7080  -14.2298   19.6061 H   0  0  0  0  0  0
  -28.7040  -11.8915   21.2956 H   0  0  0  0  0  0
  -28.4752  -13.4917   21.9052 H   0  0  0  0  0  0
  -25.2728   -9.5670   22.4764 H   0  0  0  0  0  0
  -23.9994   -7.4604   22.7467 H   0  0  0  0  0  0
  -21.0815   -8.8731   19.8942 H   0  0  0  0  0  0
  -22.3648  -10.9655   19.6181 H   0  0  0  0  0  0
  -21.2016   -7.6137   23.9696 H   0  0  0  0  0  0
  -21.1480   -6.0517   25.9065 H   0  0  0  0  0  0
  -22.0613   -2.7598   23.2846 H   0  0  0  0  0  0
  -22.4128  -11.9894   22.4795 H   0  0  0  0  0  0
  -21.1130  -13.1260   22.2605 H   0  0  0  0  0  0
  -24.6698  -15.8354   20.4966 H   0  0  0  0  0  0
  -26.2850  -15.6076   20.0520 H   0  0  0  0  0  0
  -26.7104  -32.5538   23.1142 H   0  0  0  0  0  0
  -25.0061  -33.9773   25.0471 H   0  0  0  0  0  0
  -22.6888  -31.3077   21.4104 H   0  0  0  0  0  0
  -23.3743  -35.9657   23.3310 H   0  0  0  0  0  0
  -24.3585  -36.8922   22.2054 H   0  0  0  0  0  0
  -23.7251  -37.6526   23.6650 H   0  0  0  0  0  0
  -26.0380  -31.6014   20.5919 H   0  0  0  0  0  0
  -26.8173  -30.8895   21.9777 H   0  0  0  0  0  0
  -28.0989  -29.1173   21.1490 H   0  0  0  0  0  0
  -26.0416  -25.9725   19.0077 H   0  0  0  0  0  0
  -23.9778  -27.2839   19.0491 H   0  0  0  0  0  0
  -23.7197  -30.5978   19.4051 H   0  0  0  0  0  0
  -22.7326  -29.2435   19.8679 H   0  0  0  0  0  0
  -25.1287  -36.1962   25.0830 H   0  0  0  0  0  0
  -20.9946  -28.3226   24.1445 H   0  0  0  0  0  0
  -20.5670  -26.2264   23.3600 H   0  0  0  0  0  0
  -21.6635  -26.7448   22.1209 H   0  0  0  0  0  0
  -19.6903  -25.6295   21.1235 H   0  0  0  0  0  0
  -19.6690  -27.3203   20.6749 H   0  0  0  0  0  0
  -17.4190  -26.6675   21.4017 H   0  0  0  0  0  0
  -18.0317  -26.0062   22.9011 H   0  0  0  0  0  0
  -19.7927  -30.7262   24.2270 H   0  0  0  0  0  0
  -17.5010  -31.6265   24.5166 H   0  0  0  0  0  0
  -15.5344  -30.2993   23.7654 H   0  0  0  0  0  0
  -15.8657  -28.0844   22.7030 H   0  0  0  0  0  0
  -24.5891  -30.7085   25.7806 H   0  0  0  0  0  0
  -24.8970  -32.2873   26.4947 H   0  0  0  0  0  0
  -25.8107  -30.8848   27.0199 H   0  0  0  0  0  0
  -26.2855  -29.6793   24.1162 H   0  0  0  0  0  0
  -27.4115  -29.7303   25.4540 H   0  0  0  0  0  0
  -27.8670  -30.4378   23.9211 H   0  0  0  0  0  0
  -27.2636  -33.3591   26.2110 H   0  0  0  0  0  0
  -28.3815  -32.6949   25.0284 H   0  0  0  0  0  0
  -28.0746  -31.8418   26.5339 H   0  0  0  0  0  0
  -28.2602  -38.0105   24.7507 H   0  0  0  0  0  0
  -28.1073  -36.2636   24.6291 H   0  0  0  0  0  0
  -27.2303  -37.1464   25.8870 H   0  0  0  0  0  0
  -20.9282  -29.8744   21.6951 H   0  0  0  0  0  0
  -26.0182  -38.2869   24.1403 H   0  0  0  0  0  0
  -29.3476  -19.2242   18.3773 H   0  0  0  0  0  0
  -28.8713  -15.5259   21.2690 H   0  0  0  0  0  0
  -30.1567  -15.5182   22.4159 H   0  0  0  0  0  0
  -30.8097  -21.1088   18.3313 H   0  0  0  0  0  0
  -32.0577  -21.3731   19.5038 H   0  0  0  0  0  0
  -30.5881  -25.5342   19.8778 H   0  0  0  0  0  0
  -29.8756  -24.6003   21.1461 H   0  0  0  0  0  0
  -31.3413  -23.6449   19.0318 H   0  0  0  0  0  0
  -29.7707  -23.4377   18.3219 H   0  0  0  0  0  0
  -27.6710  -24.7969   20.1206 H   0  0  0  0  0  0
  -28.3418  -25.3582   18.5864 H   0  0  0  0  0  0
  -30.4755  -22.3375   20.9622 H   0  0  0  0  0  0
  -29.2117  -21.9203   20.0206 H   0  0  0  0  0  0
  1 25  1  0  0  0
  1 30  2  0  0  0
  1 77  1  0  0  0
  2  3  1  0  0  0
  2 25  1  0  0  0
  2 86  1  0  0  0
  2 87  1  0  0  0
  3  4  1  0  0  0
  3 88  1  0  0  0
  3 89  1  0  0  0
  4  5  1  0  0  0
  4 90  1  0  0  0
  4 91  1  0  0  0
  5  6  1  0  0  0
  5 26  1  0  0  0
  5 92  1  0  0  0
  6 25  1  0  0  0
  6 93  1  0  0  0
  6 94  1  0  0  0
  7  8  2  0  0  0
  7 26  1  0  0  0
  7 29  1  0  0  0
  8  9  1  0  0  0
  8 22  1  0  0  0
  9 10  1  0  0  0
  9 27  2  0  0  0
 10 11  2  0  0  0
 10 15  1  0  0  0
 11 12  1  0  0  0
 11 95  1  0  0  0
 12 13  2  0  0  0
 12 96  1  0  0  0
 13 14  1  0  0  0
 13 31  1  0  0  0
 14 15  2  0  0  0
 14 97  1  0  0  0
 15 98  1  0  0  0
 16 17  2  0  0  0
 16 21  1  0  0  0
 16 31  1  0  0  0
 17 18  1  0  0  0
 17 99  1  0  0  0
 18 19  2  0  0  0
 18100  1  0  0  0
 19 20  1  0  0  0
 19 24  1  0  0  0
 20 21  2  0  0  0
 20101  1  0  0  0
 21 23  1  0  0  0
 22 28  1  0  0  0
 22 32  2  0  0  0
 26 27  1  0  0  0
 28102  1  0  0  0
 28103  1  0  0  0
 29104  1  0  0  0
 29105  1  0  0  0
 33 34  1  0  0  0
 33 66  1  0  0  0
 33 70  2  0  0  0
 34 36  1  0  0  0
 34 59  1  0  0  0
 34106  1  0  0  0
 35 44  2  0  0  0
 35 45  1  0  0  0
 35 68  1  0  0  0
 36 56  1  0  0  0
 36107  1  0  0  0
 37 39  1  0  0  0
 37 47  1  0  0  0
 37 66  1  0  0  0
 37108  1  0  0  0
 38 43  2  0  0  0
 38 46  1  0  0  0
 38 47  1  0  0  0
 39 64  1  0  0  0
 39 67  2  0  0  0
 40 52  1  0  0  0
 40 53  2  0  0  0
 40 58  1  0  0  0
 41109  1  0  0  0
 41110  1  0  0  0
 41111  1  0  0  0
 41 48  1  0  0  0
 42 43  1  0  0  0
 42 66  1  0  0  0
 42112  1  0  0  0
 42113  1  0  0  0
 43 44  1  0  0  0
 44114  1  0  0  0
 45 46  2  0  0  0
 45115  1  0  0  0
 46116  1  0  0  0
 47117  1  0  0  0
 47118  1  0  0  0
 48 56  1  0  0  0
 48 65  1  0  0  0
 48119  1  0  0  0
 49 50  1  0  0  0
 49 53  1  0  0  0
 49 64  1  0  0  0
 49120  1  0  0  0
 50 51  1  0  0  0
 50121  1  0  0  0
 50122  1  0  0  0
 51 52  1  0  0  0
 51123  1  0  0  0
 51124  1  0  0  0
 52125  1  0  0  0
 52126  1  0  0  0
 53 54  1  0  0  0
 54 55  2  0  0  0
 54127  1  0  0  0
 55 57  1  0  0  0
 55128  1  0  0  0
 56 69  2  0  0  0
 57 58  2  0  0  0
 57129  1  0  0  0
 58130  1  0  0  0
 59 60  1  0  0  0
 59 61  1  0  0  0
 59 62  1  0  0  0
 60131  1  0  0  0
 60132  1  0  0  0
 60133  1  0  0  0
 61134  1  0  0  0
 61135  1  0  0  0
 61136  1  0  0  0
 62137  1  0  0  0
 62138  1  0  0  0
 62139  1  0  0  0
 63 65  1  0  0  0
 63140  1  0  0  0
 63141  1  0  0  0
 63142  1  0  0  0
 64143  1  0  0  0
 65144  1  0  0  0
 68 81  1  0  0  0
 71 72  2  0  0  0
 71 74  1  0  0  0
 71145  1  0  0  0
 72 75  1  0  0  0
 72 78  1  0  0  0
 73 74  2  0  0  0
 73 76  1  0  0  0
 73 77  1  0  0  0
 74 83  1  0  0  0
 75 76  2  0  0  0
 75 84  1  0  0  0
 76 85  1  0  0  0
 77146  1  0  0  0
 77147  1  0  0  0
 78 82  1  0  0  0
 78148  1  0  0  0
 78149  1  0  0  0
 79 80  1  0  0  0
 79 81  1  0  0  0
 79150  1  0  0  0
 79151  1  0  0  0
 80 82  1  0  0  0
 80152  1  0  0  0
 80153  1  0  0  0
 81154  1  0  0  0
 81155  1  0  0  0
 82156  1  0  0  0
 82157  1  0  0  0
M  CHG  1  82   1
M  ISO  4   1 100  68 101  77 100  81 101
M  END
> <chiral flag>
0

> <version>
0

> <s_m_source_file>
/data/baiqing/PycharmProjects/Reinvent-master-3.2/result/LINK_invent/BTK/process_docking_weight1_custom_sum_contain_oxygen_bond_distance_aromatic_linkinvent_7_9_3/rearranged_h_0028.sdf

> <i_m_source_file_index>
43

> <r_mmod_Potential_Energy-OPLS-2005>
-291.421783447266

> <r_mmod_Stretch_Energy-OPLS-2005>
38.9987869262695

> <r_mmod_Bend_Energy-OPLS-2005>
100.475425720215

> <r_mmod_Torsional_Energy-OPLS-2005>
170.910461425781

> <r_mmod_Improper_Torsional_Energy-OPLS-2005>
2.74640941619873

> <r_mmod_Van_der_Waal_Energy-OPLS-2005>
150.475341796875

> <r_mmod_Electrostatic_Energy-OPLS-2005>
-288.279388427734

> <r_mmod_Solvation_Energy-OPLS-2005>
-478.868133544922

> <b_mmod_Minimization_Converged-OPLS-2005>
0

> <r_mmod_RMS_Derivative-OPLS-2005>
1.31926989555359

$$$$
43
                    3D
 Structure written by MMmdl.
150158  0  0  1  0            999 V2000
  -30.4381  -15.1992   20.3819 C   0  0  0  0  0  0
  -30.4501  -12.7597   19.5266 C   0  0  0  0  0  0
  -29.5428  -12.5782   18.2839 C   0  0  0  0  0  0
  -28.0912  -12.2932   18.7131 C   0  0  0  0  0  0
  -27.6193  -13.2609   19.8269 C   0  0  2  0  0  0
  -28.6528  -13.4000   20.9654 C   0  0  0  0  0  0
  -25.2391  -13.8140   20.5694 C   0  0  0  0  0  0
  -24.1739  -13.0379   20.9252 C   0  0  0  0  0  0
  -24.6389  -11.6879   20.8754 C   0  0  0  0  0  0
  -23.9062  -10.4264   21.0411 C   0  0  0  0  0  0
  -24.3618   -9.4188   21.9185 C   0  0  0  0  0  0
  -23.6296   -8.2224   22.0750 C   0  0  0  0  0  0
  -22.4277   -8.0274   21.3544 C   0  0  0  0  0  0
  -21.9909   -9.0246   20.4651 C   0  0  0  0  0  0
  -22.7233  -10.2121   20.3065 C   0  0  0  0  0  0
  -21.6847   -6.0734   22.5284 C   0  0  0  0  0  0
  -21.4016   -6.5639   23.8220 C   0  0  0  0  0  0
  -21.3656   -5.6786   24.9179 C   0  0  0  0  0  0
  -21.6044   -4.3053   24.7222 C   0  0  0  0  0  0
  -21.8809   -3.8148   23.4343 C   0  0  0  0  0  0
  -21.9187   -4.6963   22.3403 C   0  0  0  0  0  0
  -22.7766  -13.5183   21.1892 C   0  0  0  0  0  0
  -22.1658   -4.2155   21.0976 F   0  0  0  0  0  0
  -21.5626   -3.4533   25.7732 F   0  0  0  0  0  0
  -29.9008  -13.8864   20.3548 N   0  0  0  0  0  0
  -26.2840  -12.9422   20.3200 N   0  0  0  0  0  0
  -25.9328  -11.6539   20.5703 N   0  0  0  0  0  0
  -22.0401  -12.8210   22.0458 N   0  0  0  0  0  0
  -25.3942  -15.1831   20.4008 N   0  0  0  0  0  0
  -31.6540  -15.2543   20.1509 O   0  0  0  0  0  0
  -21.6635   -6.8880   21.4252 O   0  0  0  0  0  0
  -22.3468  -14.5488   20.6709 O   0  0  0  0  0  0
  -24.6587  -31.8291   23.1729 C   0  0  0  0  0  0
  -25.9287  -32.4617   23.8187 C   0  0  1  0  0  0
  -27.2292  -26.9861   20.1727 C   0  0  0  0  0  0
  -25.5980  -33.8425   24.2103 N   0  0  0  0  0  0
  -23.4708  -30.4408   21.5228 C   0  0  2  0  0  0
  -24.9250  -28.8367   20.1109 C   0  0  0  0  0  0
  -22.7655  -29.4458   22.4809 C   0  0  0  0  0  0
  -18.0320  -28.1399   22.8473 C   0  0  0  0  0  0
  -24.1500  -36.7226   23.2647 C   0  0  0  0  0  0
  -26.0377  -30.6538   21.3960 C   0  0  0  0  0  0
  -26.1081  -29.2499   20.7373 C   0  0  0  0  0  0
  -27.2552  -28.3453   20.7419 C   0  0  0  0  0  0
  -26.0133  -26.7048   19.5114 C   0  0  0  0  0  0
  -24.9002  -27.5826   19.4783 C   0  0  0  0  0  0
  -23.7078  -29.7589   20.1474 C   0  0  0  0  0  0
  -25.4135  -36.2991   24.0310 C   0  0  1  0  0  0
  -20.5946  -28.3738   23.1214 C   0  0  2  0  0  0
  -20.6811  -26.9426   22.5415 C   0  0  0  0  0  0
  -19.5785  -26.6368   21.5227 C   0  0  0  0  0  0
  -18.1959  -26.7934   22.1630 C   0  0  0  0  0  0
  -19.1579  -28.8889   23.2828 C   0  0  0  0  0  0
  -18.9485  -30.1483   23.8852 C   0  0  0  0  0  0
  -17.6478  -30.6590   24.0552 C   0  0  0  0  0  0
  -25.9095  -34.9368   23.5028 C   0  0  0  0  0  0
  -16.5371  -29.9074   23.6341 C   0  0  0  0  0  0
  -16.7300  -28.6498   23.0357 C   0  0  0  0  0  0
  -26.4531  -31.6549   25.0704 C   0  0  0  0  0  0
  -25.3666  -31.3796   26.1378 C   0  0  0  0  0  0
  -27.0428  -30.2924   24.6417 C   0  0  0  0  0  0
  -27.6037  -32.4347   25.7492 C   0  0  0  0  0  0
  -27.5580  -37.1769   24.8458 C   0  0  0  0  0  0
  -21.4327  -29.3031   22.3562 N   0  0  0  0  0  0
  -26.4289  -37.3716   23.9401 N   0  0  0  0  0  0
  -24.7428  -31.0000   22.0845 N   0  0  0  0  0  0
  -23.4237  -28.8050   23.3037 O   0  0  0  0  0  0
  -28.2625  -25.9290   20.2351 O   0  0  0  0  0  0
  -26.5688  -34.8894   22.4612 O   0  0  0  0  0  0
  -23.5672  -32.1242   23.6858 O   0  0  0  0  0  0
  -28.1619  -20.2546   20.1999 C   0  0  0  0  0  0
  -30.6008  -18.9852   20.4754 C   0  0  0  0  0  0
  -28.3101  -18.7746   20.2344 C   0  0  0  0  0  0
  -29.2162  -21.2432   20.3078 C   0  0  0  0  0  0
  -29.5457  -17.9954   20.3810 C   0  0  0  0  0  0
  -30.4501  -20.4621   20.4465 C   0  0  0  0  0  0
  -27.0216  -17.9891   20.0932 C   0  0  0  0  0  0
  -29.1931  -22.9830   20.3156 C   0  0  0  0  0  0
  -28.0472  -24.3164   20.1269 C   0  0  0  0  0  0
  -29.5814  -16.3878   20.4703 N   0  0  0  0  0  0
  -31.9189  -21.3590   20.6111 Cl  0  0  0  0  0  0
  -31.4735  -12.9635   19.2091 H   0  0  0  0  0  0
  -30.5001  -11.8385   20.1102 H   0  0  0  0  0  0
  -29.9213  -11.7771   17.6489 H   0  0  0  0  0  0
  -29.5693  -13.4865   17.6794 H   0  0  0  0  0  0
  -28.0564  -11.2687   19.0869 H   0  0  0  0  0  0
  -27.4195  -12.3298   17.8547 H   0  0  0  0  0  0
  -27.5455  -14.2343   19.3413 H   0  0  0  0  0  0
  -28.7981  -12.4550   21.4899 H   0  0  0  0  0  0
  -28.2994  -14.1152   21.7098 H   0  0  0  0  0  0
  -25.2759   -9.5670   22.4760 H   0  0  0  0  0  0
  -24.0003   -7.4610   22.7469 H   0  0  0  0  0  0
  -21.0831   -8.8763   19.8966 H   0  0  0  0  0  0
  -22.3686  -10.9659   19.6182 H   0  0  0  0  0  0
  -21.2024   -7.6148   23.9725 H   0  0  0  0  0  0
  -21.1487   -6.0518   25.9078 H   0  0  0  0  0  0
  -22.0594   -2.7612   23.2830 H   0  0  0  0  0  0
  -22.4016  -11.9916   22.4926 H   0  0  0  0  0  0
  -21.1025  -13.1265   22.2634 H   0  0  0  0  0  0
  -24.5955  -15.8055   20.4568 H   0  0  0  0  0  0
  -26.1883  -15.5961   19.9343 H   0  0  0  0  0  0
  -26.7373  -32.5169   23.0918 H   0  0  0  0  0  0
  -25.0088  -33.9497   25.0230 H   0  0  0  0  0  0
  -22.7818  -31.2711   21.3563 H   0  0  0  0  0  0
  -23.3773  -35.9548   23.3285 H   0  0  0  0  0  0
  -24.3592  -36.8889   22.2071 H   0  0  0  0  0  0
  -23.7258  -37.6412   23.6706 H   0  0  0  0  0  0
  -26.2153  -31.4012   20.6217 H   0  0  0  0  0  0
  -26.8988  -30.7053   22.0502 H   0  0  0  0  0  0
  -28.1543  -28.6621   21.2509 H   0  0  0  0  0  0
  -25.8951  -25.7433   19.0345 H   0  0  0  0  0  0
  -24.0000  -27.2574   18.9745 H   0  0  0  0  0  0
  -23.8600  -30.5309   19.3915 H   0  0  0  0  0  0
  -22.8187  -29.2119   19.8292 H   0  0  0  0  0  0
  -25.1336  -36.1791   25.0803 H   0  0  0  0  0  0
  -21.0022  -28.3333   24.1343 H   0  0  0  0  0  0
  -20.5725  -26.2338   23.3638 H   0  0  0  0  0  0
  -21.6670  -26.7431   22.1201 H   0  0  0  0  0  0
  -19.6939  -25.6264   21.1286 H   0  0  0  0  0  0
  -19.6729  -27.3154   20.6739 H   0  0  0  0  0  0
  -17.4235  -26.6684   21.4018 H   0  0  0  0  0  0
  -18.0340  -26.0083   22.9033 H   0  0  0  0  0  0
  -19.7955  -30.7317   24.2203 H   0  0  0  0  0  0
  -17.5022  -31.6267   24.5165 H   0  0  0  0  0  0
  -15.5370  -30.2961   23.7678 H   0  0  0  0  0  0
  -15.8708  -28.0803   22.7092 H   0  0  0  0  0  0
  -24.5796  -30.7216   25.7671 H   0  0  0  0  0  0
  -24.8915  -32.3010   26.4760 H   0  0  0  0  0  0
  -25.7892  -30.8956   27.0193 H   0  0  0  0  0  0
  -26.3085  -29.6595   24.1422 H   0  0  0  0  0  0
  -27.3978  -29.7292   25.5058 H   0  0  0  0  0  0
  -27.9018  -30.4124   23.9811 H   0  0  0  0  0  0
  -27.2599  -33.3657   26.2008 H   0  0  0  0  0  0
  -28.3858  -32.6905   25.0330 H   0  0  0  0  0  0
  -28.0697  -31.8529   26.5453 H   0  0  0  0  0  0
  -28.2578  -38.0082   24.7516 H   0  0  0  0  0  0
  -28.1098  -36.2616   24.6267 H   0  0  0  0  0  0
  -27.2302  -37.1393   25.8860 H   0  0  0  0  0  0
  -20.9566  -29.8711   21.6691 H   0  0  0  0  0  0
  -26.0149  -38.2781   24.1399 H   0  0  0  0  0  0
  -27.1597  -20.6463   20.0888 H   0  0  0  0  0  0
  -31.6064  -18.6069   20.5970 H   0  0  0  0  0  0
  -26.2184  -18.5962   19.6747 H   0  0  0  0  0  0
  -26.6916  -17.6233   21.0671 H   0  0  0  0  0  0
  -27.1613  -17.1390   19.4253 H   0  0  0  0  0  0
  -29.9469  -23.2136   19.5624 H   0  0  0  0  0  0
  -29.6924  -23.2137   21.2570 H   0  0  0  0  0  0
  -27.2361  -24.1067   20.8241 H   0  0  0  0  0  0
  -27.6033  -24.1665   19.1422 H   0  0  0  0  0  0
  -28.6452  -16.0390   20.6049 H   0  0  0  0  0  0
  1 25  1  0  0  0
  1 30  2  0  0  0
  1 80  1  0  0  0
  2  3  1  0  0  0
  2 25  1  0  0  0
  2 82  1  0  0  0
  2 83  1  0  0  0
  3  4  1  0  0  0
  3 84  1  0  0  0
  3 85  1  0  0  0
  4  5  1  0  0  0
  4 86  1  0  0  0
  4 87  1  0  0  0
  5  6  1  0  0  0
  5 26  1  0  0  0
  5 88  1  0  0  0
  6 25  1  0  0  0
  6 89  1  0  0  0
  6 90  1  0  0  0
  7  8  2  0  0  0
  7 26  1  0  0  0
  7 29  1  0  0  0
  8  9  1  0  0  0
  8 22  1  0  0  0
  9 10  1  0  0  0
  9 27  2  0  0  0
 10 11  2  0  0  0
 10 15  1  0  0  0
 11 12  1  0  0  0
 11 91  1  0  0  0
 12 13  2  0  0  0
 12 92  1  0  0  0
 13 14  1  0  0  0
 13 31  1  0  0  0
 14 15  2  0  0  0
 14 93  1  0  0  0
 15 94  1  0  0  0
 16 17  2  0  0  0
 16 21  1  0  0  0
 16 31  1  0  0  0
 17 18  1  0  0  0
 17 95  1  0  0  0
 18 19  2  0  0  0
 18 96  1  0  0  0
 19 20  1  0  0  0
 19 24  1  0  0  0
 20 21  2  0  0  0
 20 97  1  0  0  0
 21 23  1  0  0  0
 22 28  1  0  0  0
 22 32  2  0  0  0
 26 27  1  0  0  0
 28 98  1  0  0  0
 28 99  1  0  0  0
 29100  1  0  0  0
 29101  1  0  0  0
 33 34  1  0  0  0
 33 66  1  0  0  0
 33 70  2  0  0  0
 34 36  1  0  0  0
 34 59  1  0  0  0
 34102  1  0  0  0
 35 44  2  0  0  0
 35 45  1  0  0  0
 35 68  1  0  0  0
 36 56  1  0  0  0
 36103  1  0  0  0
 37 39  1  0  0  0
 37 47  1  0  0  0
 37 66  1  0  0  0
 37104  1  0  0  0
 38 43  2  0  0  0
 38 46  1  0  0  0
 38 47  1  0  0  0
 39 64  1  0  0  0
 39 67  2  0  0  0
 40 52  1  0  0  0
 40 53  2  0  0  0
 40 58  1  0  0  0
 41105  1  0  0  0
 41106  1  0  0  0
 41107  1  0  0  0
 41 48  1  0  0  0
 42 43  1  0  0  0
 42 66  1  0  0  0
 42108  1  0  0  0
 42109  1  0  0  0
 43 44  1  0  0  0
 44110  1  0  0  0
 45 46  2  0  0  0
 45111  1  0  0  0
 46112  1  0  0  0
 47113  1  0  0  0
 47114  1  0  0  0
 48 56  1  0  0  0
 48 65  1  0  0  0
 48115  1  0  0  0
 49 50  1  0  0  0
 49 53  1  0  0  0
 49 64  1  0  0  0
 49116  1  0  0  0
 50 51  1  0  0  0
 50117  1  0  0  0
 50118  1  0  0  0
 51 52  1  0  0  0
 51119  1  0  0  0
 51120  1  0  0  0
 52121  1  0  0  0
 52122  1  0  0  0
 53 54  1  0  0  0
 54 55  2  0  0  0
 54123  1  0  0  0
 55 57  1  0  0  0
 55124  1  0  0  0
 56 69  2  0  0  0
 57 58  2  0  0  0
 57125  1  0  0  0
 58126  1  0  0  0
 59 60  1  0  0  0
 59 61  1  0  0  0
 59 62  1  0  0  0
 60127  1  0  0  0
 60128  1  0  0  0
 60129  1  0  0  0
 61130  1  0  0  0
 61131  1  0  0  0
 61132  1  0  0  0
 62133  1  0  0  0
 62134  1  0  0  0
 62135  1  0  0  0
 63 65  1  0  0  0
 63136  1  0  0  0
 63137  1  0  0  0
 63138  1  0  0  0
 64139  1  0  0  0
 65140  1  0  0  0
 68 79  1  0  0  0
 71 73  2  0  0  0
 71 74  1  0  0  0
 71141  1  0  0  0
 72 75  2  0  0  0
 72 76  1  0  0  0
 72142  1  0  0  0
 73 75  1  0  0  0
 73 77  1  0  0  0
 74 76  2  0  0  0
 74 78  1  0  0  0
 75 80  1  0  0  0
 76 81  1  0  0  0
 77143  1  0  0  0
 77144  1  0  0  0
 77145  1  0  0  0
 78 79  1  0  0  0
 78146  1  0  0  0
 78147  1  0  0  0
 79148  1  0  0  0
 79149  1  0  0  0
 80150  1  0  0  0
M  ISO  4   1 100  68 101  79 101  80 100
M  END
> <chiral flag>
0

> <version>
0

> <s_m_source_file>
/data/baiqing/PycharmProjects/Reinvent-master-3.2/result/LINK_invent/BTK/process_docking_weight1_custom_sum_contain_oxygen_bond_distance_aromatic_linkinvent_7_9_3/rearranged_h_0028.sdf

> <i_m_source_file_index>
44

> <r_mmod_Potential_Energy-OPLS-2005>
1015.1328125

> <r_mmod_Stretch_Energy-OPLS-2005>
452.995971679688

> <r_mmod_Bend_Energy-OPLS-2005>
413.317077636719

> <r_mmod_Torsional_Energy-OPLS-2005>
212.923645019531

> <r_mmod_Improper_Torsional_Energy-OPLS-2005>
5.09699869155884

> <r_mmod_Van_der_Waal_Energy-OPLS-2005>
125.432914733887

> <r_mmod_Electrostatic_Energy-OPLS-2005>
-369.990844726562

> <r_mmod_Solvation_Energy-OPLS-2005>
-209.100936889648

> <b_mmod_Minimization_Converged-OPLS-2005>
0

> <r_mmod_RMS_Derivative-OPLS-2005>
2.19121432304382

$$$$
44
                    3D
 Structure written by MMmdl.
147155  0  0  1  0            999 V2000
  -30.4328  -15.1903   20.3868 C   0  0  0  0  0  0
  -30.4563  -12.7575   19.5130 C   0  0  0  0  0  0
  -29.5458  -12.5778   18.2713 C   0  0  0  0  0  0
  -28.0835  -12.3142   18.6869 C   0  0  0  0  0  0
  -27.6171  -13.2692   19.8163 C   0  0  2  0  0  0
  -28.6552  -13.3836   20.9528 C   0  0  0  0  0  0
  -25.2378  -13.8172   20.5692 C   0  0  0  0  0  0
  -24.1738  -13.0375   20.9233 C   0  0  0  0  0  0
  -24.6402  -11.6883   20.8719 C   0  0  0  0  0  0
  -23.9083  -10.4259   21.0387 C   0  0  0  0  0  0
  -24.3622   -9.4181   21.9173 C   0  0  0  0  0  0
  -23.6293   -8.2223   22.0754 C   0  0  0  0  0  0
  -22.4277   -8.0260   21.3541 C   0  0  0  0  0  0
  -21.9912   -9.0226   20.4640 C   0  0  0  0  0  0
  -22.7249  -10.2100   20.3041 C   0  0  0  0  0  0
  -21.6847   -6.0722   22.5274 C   0  0  0  0  0  0
  -21.4007   -6.5621   23.8209 C   0  0  0  0  0  0
  -21.3665   -5.6773   24.9165 C   0  0  0  0  0  0
  -21.6053   -4.3040   24.7214 C   0  0  0  0  0  0
  -21.8819   -3.8132   23.4334 C   0  0  0  0  0  0
  -21.9183   -4.6947   22.3388 C   0  0  0  0  0  0
  -22.7753  -13.5151   21.1863 C   0  0  0  0  0  0
  -22.1654   -4.2139   21.0964 F   0  0  0  0  0  0
  -21.5638   -3.4519   25.7727 F   0  0  0  0  0  0
  -29.8996  -13.8792   20.3434 N   0  0  0  0  0  0
  -26.2828  -12.9479   20.3121 N   0  0  0  0  0  0
  -25.9345  -11.6588   20.5661 N   0  0  0  0  0  0
  -22.0367  -12.8204   22.0437 N   0  0  0  0  0  0
  -25.3892  -15.1895   20.4155 N   0  0  0  0  0  0
  -31.6524  -15.2511   20.1830 O   0  0  0  0  0  0
  -21.6625   -6.8870   21.4246 O   0  0  0  0  0  0
  -22.3449  -14.5429   20.6642 O   0  0  0  0  0  0
  -24.6578  -31.8280   23.1739 C   0  0  0  0  0  0
  -25.9277  -32.4617   23.8199 C   0  0  1  0  0  0
  -27.2231  -26.9828   20.1846 C   0  0  0  0  0  0
  -25.5969  -33.8434   24.2110 N   0  0  0  0  0  0
  -23.4701  -30.4379   21.5226 C   0  0  2  0  0  0
  -24.9250  -28.8355   20.1100 C   0  0  0  0  0  0
  -22.7635  -29.4449   22.4806 C   0  0  0  0  0  0
  -18.0299  -28.1416   22.8463 C   0  0  0  0  0  0
  -24.1496  -36.7233   23.2642 C   0  0  0  0  0  0
  -26.0349  -30.6531   21.3951 C   0  0  0  0  0  0
  -26.1044  -29.2472   20.7428 C   0  0  0  0  0  0
  -27.2496  -28.3408   20.7553 C   0  0  0  0  0  0
  -26.0176  -26.7071   19.5034 C   0  0  0  0  0  0
  -24.9035  -27.5841   19.4712 C   0  0  0  0  0  0
  -23.7060  -29.7533   20.1478 C   0  0  0  0  0  0
  -25.4139  -36.3007   24.0302 C   0  0  1  0  0  0
  -20.5928  -28.3755   23.1211 C   0  0  2  0  0  0
  -20.6803  -26.9447   22.5409 C   0  0  0  0  0  0
  -19.5786  -26.6382   21.5219 C   0  0  0  0  0  0
  -18.1954  -26.7949   22.1616 C   0  0  0  0  0  0
  -19.1561  -28.8902   23.2820 C   0  0  0  0  0  0
  -18.9476  -30.1498   23.8837 C   0  0  0  0  0  0
  -17.6474  -30.6604   24.0560 C   0  0  0  0  0  0
  -25.9095  -34.9375   23.5030 C   0  0  0  0  0  0
  -16.5364  -29.9095   23.6353 C   0  0  0  0  0  0
  -16.7282  -28.6523   23.0359 C   0  0  0  0  0  0
  -26.4553  -31.6541   25.0703 C   0  0  0  0  0  0
  -25.3703  -31.3759   26.1371 C   0  0  0  0  0  0
  -27.0430  -30.2913   24.6395 C   0  0  0  0  0  0
  -27.6062  -32.4324   25.7500 C   0  0  0  0  0  0
  -27.5577  -37.1781   24.8464 C   0  0  0  0  0  0
  -21.4308  -29.3033   22.3548 N   0  0  0  0  0  0
  -26.4300  -37.3726   23.9389 N   0  0  0  0  0  0
  -24.7416  -30.9997   22.0842 N   0  0  0  0  0  0
  -23.4200  -28.8012   23.3027 O   0  0  0  0  0  0
  -28.2455  -25.9197   20.2818 O   0  0  0  0  0  0
  -26.5703  -34.8899   22.4623 O   0  0  0  0  0  0
  -23.5661  -32.1211   23.6876 O   0  0  0  0  0  0
  -28.1656  -20.2279   20.0456 C   0  0  0  0  0  0
  -30.5186  -18.9762   20.7710 C   0  0  0  0  0  0
  -29.1456  -21.2243   20.4335 C   0  0  0  0  0  0
  -29.5328  -17.9814   20.3966 C   0  0  0  0  0  0
  -28.3437  -18.7518   20.0302 C   0  0  0  0  0  0
  -30.3388  -20.4508   20.7935 C   0  0  0  0  0  0
  -29.0488  -22.9555   20.6067 C   0  0  0  0  0  0
  -28.0548  -24.3153   20.0654 C   0  0  0  0  0  0
  -29.5664  -16.3741   20.4343 N   0  0  0  0  0  0
  -26.9785  -17.8374   19.5079 Cl  0  0  0  0  0  0
  -31.7074  -21.3489   21.3468 Cl  0  0  0  0  0  0
  -31.4762  -12.9723   19.1895 H   0  0  0  0  0  0
  -30.5187  -11.8357   20.0946 H   0  0  0  0  0  0
  -29.9174  -11.7685   17.6411 H   0  0  0  0  0  0
  -29.5899  -13.4853   17.6664 H   0  0  0  0  0  0
  -28.0199  -11.2811   19.0319 H   0  0  0  0  0  0
  -27.4263  -12.3904   17.8192 H   0  0  0  0  0  0
  -27.5454  -14.2511   19.3460 H   0  0  0  0  0  0
  -28.8020  -12.4255   21.4539 H   0  0  0  0  0  0
  -28.3106  -14.0836   21.7150 H   0  0  0  0  0  0
  -25.2779   -9.5652   22.4733 H   0  0  0  0  0  0
  -23.9981   -7.4631   22.7502 H   0  0  0  0  0  0
  -21.0829   -8.8745   19.8973 H   0  0  0  0  0  0
  -22.3715  -10.9615   19.6126 H   0  0  0  0  0  0
  -21.2004   -7.6133   23.9711 H   0  0  0  0  0  0
  -21.1498   -6.0500   25.9074 H   0  0  0  0  0  0
  -22.0603   -2.7593   23.2822 H   0  0  0  0  0  0
  -22.3963  -11.9926   22.4950 H   0  0  0  0  0  0
  -21.0962  -13.1262   22.2521 H   0  0  0  0  0  0
  -24.5970  -15.8151   20.5118 H   0  0  0  0  0  0
  -26.2001  -15.6520   20.0249 H   0  0  0  0  0  0
  -26.7342  -32.5175   23.0917 H   0  0  0  0  0  0
  -25.0086  -33.9524   25.0242 H   0  0  0  0  0  0
  -22.7810  -31.2677   21.3532 H   0  0  0  0  0  0
  -23.3775  -35.9548   23.3302 H   0  0  0  0  0  0
  -24.3564  -36.8880   22.2055 H   0  0  0  0  0  0
  -23.7239  -37.6417   23.6696 H   0  0  0  0  0  0
  -26.2080  -31.3953   20.6145 H   0  0  0  0  0  0
  -26.8982  -30.7102   22.0465 H   0  0  0  0  0  0
  -28.1430  -28.6524   21.2787 H   0  0  0  0  0  0
  -25.9078  -25.7488   19.0178 H   0  0  0  0  0  0
  -24.0064  -27.2621   18.9589 H   0  0  0  0  0  0
  -23.8509  -30.5183   19.3842 H   0  0  0  0  0  0
  -22.8201  -29.1965   19.8375 H   0  0  0  0  0  0
  -25.1337  -36.1828   25.0795 H   0  0  0  0  0  0
  -20.9999  -28.3361   24.1348 H   0  0  0  0  0  0
  -20.5731  -26.2353   23.3630 H   0  0  0  0  0  0
  -21.6669  -26.7466   22.1197 H   0  0  0  0  0  0
  -19.6968  -25.6283   21.1284 H   0  0  0  0  0  0
  -19.6751  -27.3161   20.6730 H   0  0  0  0  0  0
  -17.4240  -26.6668   21.4011 H   0  0  0  0  0  0
  -18.0363  -26.0096   22.9018 H   0  0  0  0  0  0
  -19.7949  -30.7332   24.2172 H   0  0  0  0  0  0
  -17.5031  -31.6276   24.5185 H   0  0  0  0  0  0
  -15.5375  -30.2996   23.7715 H   0  0  0  0  0  0
  -15.8675  -28.0844   22.7112 H   0  0  0  0  0  0
  -24.5906  -30.7087   25.7672 H   0  0  0  0  0  0
  -24.8875  -32.2949   26.4706 H   0  0  0  0  0  0
  -25.7965  -30.8981   27.0205 H   0  0  0  0  0  0
  -26.3072  -29.6602   24.1401 H   0  0  0  0  0  0
  -27.3966  -29.7261   25.5029 H   0  0  0  0  0  0
  -27.9019  -30.4090   23.9787 H   0  0  0  0  0  0
  -27.2651  -33.3662   26.1982 H   0  0  0  0  0  0
  -28.3935  -32.6817   25.0373 H   0  0  0  0  0  0
  -28.0669  -31.8510   26.5498 H   0  0  0  0  0  0
  -28.2601  -38.0071   24.7512 H   0  0  0  0  0  0
  -28.1078  -36.2608   24.6317 H   0  0  0  0  0  0
  -27.2291  -37.1449   25.8864 H   0  0  0  0  0  0
  -20.9557  -29.8682   21.6647 H   0  0  0  0  0  0
  -26.0172  -38.2801   24.1368 H   0  0  0  0  0  0
  -27.1941  -20.5966   19.7496 H   0  0  0  0  0  0
  -31.4790  -18.6030   21.0951 H   0  0  0  0  0  0
  -30.0468  -23.2731   20.3109 H   0  0  0  0  0  0
  -29.0556  -23.0694   21.6903 H   0  0  0  0  0  0
  -27.0454  -24.0968   20.4138 H   0  0  0  0  0  0
  -27.9967  -24.2121   18.9822 H   0  0  0  0  0  0
  -28.6169  -16.0315   20.4408 H   0  0  0  0  0  0
  1 25  1  0  0  0
  1 30  2  0  0  0
  1 79  1  0  0  0
  2  3  1  0  0  0
  2 25  1  0  0  0
  2 82  1  0  0  0
  2 83  1  0  0  0
  3  4  1  0  0  0
  3 84  1  0  0  0
  3 85  1  0  0  0
  4  5  1  0  0  0
  4 86  1  0  0  0
  4 87  1  0  0  0
  5  6  1  0  0  0
  5 26  1  0  0  0
  5 88  1  0  0  0
  6 25  1  0  0  0
  6 89  1  0  0  0
  6 90  1  0  0  0
  7  8  2  0  0  0
  7 26  1  0  0  0
  7 29  1  0  0  0
  8  9  1  0  0  0
  8 22  1  0  0  0
  9 10  1  0  0  0
  9 27  2  0  0  0
 10 11  2  0  0  0
 10 15  1  0  0  0
 11 12  1  0  0  0
 11 91  1  0  0  0
 12 13  2  0  0  0
 12 92  1  0  0  0
 13 14  1  0  0  0
 13 31  1  0  0  0
 14 15  2  0  0  0
 14 93  1  0  0  0
 15 94  1  0  0  0
 16 17  2  0  0  0
 16 21  1  0  0  0
 16 31  1  0  0  0
 17 18  1  0  0  0
 17 95  1  0  0  0
 18 19  2  0  0  0
 18 96  1  0  0  0
 19 20  1  0  0  0
 19 24  1  0  0  0
 20 21  2  0  0  0
 20 97  1  0  0  0
 21 23  1  0  0  0
 22 28  1  0  0  0
 22 32  2  0  0  0
 26 27  1  0  0  0
 28 98  1  0  0  0
 28 99  1  0  0  0
 29100  1  0  0  0
 29101  1  0  0  0
 33 34  1  0  0  0
 33 66  1  0  0  0
 33 70  2  0  0  0
 34 36  1  0  0  0
 34 59  1  0  0  0
 34102  1  0  0  0
 35 44  2  0  0  0
 35 45  1  0  0  0
 35 68  1  0  0  0
 36 56  1  0  0  0
 36103  1  0  0  0
 37 39  1  0  0  0
 37 47  1  0  0  0
 37 66  1  0  0  0
 37104  1  0  0  0
 38 43  2  0  0  0
 38 46  1  0  0  0
 38 47  1  0  0  0
 39 64  1  0  0  0
 39 67  2  0  0  0
 40 52  1  0  0  0
 40 53  2  0  0  0
 40 58  1  0  0  0
 41105  1  0  0  0
 41106  1  0  0  0
 41107  1  0  0  0
 41 48  1  0  0  0
 42 43  1  0  0  0
 42 66  1  0  0  0
 42108  1  0  0  0
 42109  1  0  0  0
 43 44  1  0  0  0
 44110  1  0  0  0
 45 46  2  0  0  0
 45111  1  0  0  0
 46112  1  0  0  0
 47113  1  0  0  0
 47114  1  0  0  0
 48 56  1  0  0  0
 48 65  1  0  0  0
 48115  1  0  0  0
 49 50  1  0  0  0
 49 53  1  0  0  0
 49 64  1  0  0  0
 49116  1  0  0  0
 50 51  1  0  0  0
 50117  1  0  0  0
 50118  1  0  0  0
 51 52  1  0  0  0
 51119  1  0  0  0
 51120  1  0  0  0
 52121  1  0  0  0
 52122  1  0  0  0
 53 54  1  0  0  0
 54 55  2  0  0  0
 54123  1  0  0  0
 55 57  1  0  0  0
 55124  1  0  0  0
 56 69  2  0  0  0
 57 58  2  0  0  0
 57125  1  0  0  0
 58126  1  0  0  0
 59 60  1  0  0  0
 59 61  1  0  0  0
 59 62  1  0  0  0
 60127  1  0  0  0
 60128  1  0  0  0
 60129  1  0  0  0
 61130  1  0  0  0
 61131  1  0  0  0
 61132  1  0  0  0
 62133  1  0  0  0
 62134  1  0  0  0
 62135  1  0  0  0
 63 65  1  0  0  0
 63136  1  0  0  0
 63137  1  0  0  0
 63138  1  0  0  0
 64139  1  0  0  0
 65140  1  0  0  0
 68 78  1  0  0  0
 71 73  2  0  0  0
 71 75  1  0  0  0
 71141  1  0  0  0
 72 74  1  0  0  0
 72 76  2  0  0  0
 72142  1  0  0  0
 73 76  1  0  0  0
 73 77  1  0  0  0
 74 75  2  0  0  0
 74 79  1  0  0  0
 75 80  1  0  0  0
 76 81  1  0  0  0
 77 78  1  0  0  0
 77143  1  0  0  0
 77144  1  0  0  0
 78145  1  0  0  0
 78146  1  0  0  0
 79147  1  0  0  0
M  ISO  4   1 100  68 101  78 101  79 100
M  END
> <chiral flag>
0

> <version>
0

> <s_m_source_file>
/data/baiqing/PycharmProjects/Reinvent-master-3.2/result/LINK_invent/BTK/process_docking_weight1_custom_sum_contain_oxygen_bond_distance_aromatic_linkinvent_7_9_3/rearranged_h_0028.sdf

> <i_m_source_file_index>
45

> <r_mmod_Potential_Energy-OPLS-2005>
1002.19122314453

> <r_mmod_Stretch_Energy-OPLS-2005>
450.683197021484

> <r_mmod_Bend_Energy-OPLS-2005>
415.337677001953

> <r_mmod_Torsional_Energy-OPLS-2005>
216.207763671875

> <r_mmod_Improper_Torsional_Energy-OPLS-2005>
5.68010663986206

> <r_mmod_Van_der_Waal_Energy-OPLS-2005>
124.128570556641

> <r_mmod_Electrostatic_Energy-OPLS-2005>
-390.233703613281

> <r_mmod_Solvation_Energy-OPLS-2005>
-204.531982421875

> <b_mmod_Minimization_Converged-OPLS-2005>
0

> <r_mmod_RMS_Derivative-OPLS-2005>
2.39136981964111

$$$$
45
                    3D
 Structure written by MMmdl.
159167  0  0  1  0            999 V2000
  -30.5404  -14.9645   20.4163 C   0  0  0  0  0  0
  -30.4380  -12.5981   19.5049 C   0  0  0  0  0  0
  -29.5222  -12.5306   18.2607 C   0  0  0  0  0  0
  -28.0554  -12.3159   18.6779 C   0  0  0  0  0  0
  -27.6289  -13.2511   19.8392 C   0  0  2  0  0  0
  -28.6698  -13.2879   20.9781 C   0  0  0  0  0  0
  -25.2459  -13.8220   20.5723 C   0  0  0  0  0  0
  -24.1778  -13.0441   20.9238 C   0  0  0  0  0  0
  -24.6394  -11.6927   20.8753 C   0  0  0  0  0  0
  -23.9077  -10.4295   21.0407 C   0  0  0  0  0  0
  -24.3626   -9.4211   21.9183 C   0  0  0  0  0  0
  -23.6303   -8.2243   22.0749 C   0  0  0  0  0  0
  -22.4283   -8.0278   21.3542 C   0  0  0  0  0  0
  -21.9921   -9.0252   20.4641 C   0  0  0  0  0  0
  -22.7250  -10.2134   20.3054 C   0  0  0  0  0  0
  -21.6856   -6.0738   22.5280 C   0  0  0  0  0  0
  -21.4016   -6.5642   23.8212 C   0  0  0  0  0  0
  -21.3659   -5.6795   24.9174 C   0  0  0  0  0  0
  -21.6047   -4.3057   24.7225 C   0  0  0  0  0  0
  -21.8818   -3.8149   23.4344 C   0  0  0  0  0  0
  -21.9196   -4.6967   22.3402 C   0  0  0  0  0  0
  -22.7799  -13.5208   21.1891 C   0  0  0  0  0  0
  -22.1665   -4.2154   21.0979 F   0  0  0  0  0  0
  -21.5628   -3.4538   25.7735 F   0  0  0  0  0  0
  -29.9443  -13.7029   20.3789 N   0  0  0  0  0  0
  -26.2882  -12.9455   20.3247 N   0  0  0  0  0  0
  -25.9326  -11.6583   20.5739 N   0  0  0  0  0  0
  -22.0450  -12.8187   22.0439 N   0  0  0  0  0  0
  -25.4126  -15.1943   20.4142 N   0  0  0  0  0  0
  -31.7423  -15.0206   20.1371 O   0  0  0  0  0  0
  -21.6644   -6.8879   21.4240 O   0  0  0  0  0  0
  -22.3482  -14.5514   20.6739 O   0  0  0  0  0  0
  -24.6467  -31.8423   23.1860 C   0  0  0  0  0  0
  -25.9226  -32.4686   23.8260 C   0  0  1  0  0  0
  -27.2102  -27.1053   20.1555 C   0  0  0  0  0  0
  -25.5969  -33.8492   24.2179 N   0  0  0  0  0  0
  -23.4508  -30.4619   21.5327 C   0  0  2  0  0  0
  -24.8994  -28.8862   20.1112 C   0  0  0  0  0  0
  -22.7581  -29.4540   22.4848 C   0  0  0  0  0  0
  -18.0307  -28.1402   22.8481 C   0  0  0  0  0  0
  -24.1491  -36.7241   23.2642 C   0  0  0  0  0  0
  -26.0104  -30.7071   21.3885 C   0  0  0  0  0  0
  -26.0800  -29.3154   20.7309 C   0  0  0  0  0  0
  -27.2370  -28.4434   20.7329 C   0  0  0  0  0  0
  -26.0016  -26.7893   19.4938 C   0  0  0  0  0  0
  -24.8752  -27.6380   19.4755 C   0  0  0  0  0  0
  -23.6785  -29.7925   20.1523 C   0  0  0  0  0  0
  -25.4124  -36.3023   24.0314 C   0  0  1  0  0  0
  -20.5926  -28.3727   23.1234 C   0  0  2  0  0  0
  -20.6793  -26.9426   22.5407 C   0  0  0  0  0  0
  -19.5762  -26.6389   21.5217 C   0  0  0  0  0  0
  -18.1944  -26.7941   22.1627 C   0  0  0  0  0  0
  -19.1567  -28.8881   23.2853 C   0  0  0  0  0  0
  -18.9480  -30.1479   23.8876 C   0  0  0  0  0  0
  -17.6478  -30.6598   24.0561 C   0  0  0  0  0  0
  -25.9083  -34.9402   23.5054 C   0  0  0  0  0  0
  -16.5368  -29.9090   23.6345 C   0  0  0  0  0  0
  -16.7293  -28.6509   23.0364 C   0  0  0  0  0  0
  -26.4533  -31.6559   25.0708 C   0  0  0  0  0  0
  -25.3713  -31.3760   26.1398 C   0  0  0  0  0  0
  -27.0399  -30.2951   24.6304 C   0  0  0  0  0  0
  -27.6054  -32.4331   25.7503 C   0  0  0  0  0  0
  -27.5572  -37.1782   24.8470 C   0  0  0  0  0  0
  -21.4270  -29.3045   22.3601 N   0  0  0  0  0  0
  -26.4280  -37.3745   23.9417 N   0  0  0  0  0  0
  -24.7230  -31.0259   22.0904 N   0  0  0  0  0  0
  -23.4215  -28.8087   23.3010 O   0  0  0  0  0  0
  -28.2504  -26.0957   20.2140 O   0  0  0  0  0  0
  -26.5667  -34.8907   22.4634 O   0  0  0  0  0  0
  -23.5580  -32.1307   23.7066 O   0  0  0  0  0  0
  -28.5695  -21.8174   20.4190 C   0  0  0  0  0  0
  -29.4540  -20.6175   20.3098 C   0  0  0  0  0  0
  -28.9387  -23.2480   20.1892 C   0  0  0  0  0  0
  -31.1816  -22.2993   19.7042 C   0  0  0  0  0  0
  -30.7763  -20.9565   19.9427 C   0  0  0  0  0  0
  -30.2973  -23.4114   19.8229 C   0  0  0  0  0  0
  -32.6229  -22.5556   19.2833 C   0  0  0  0  0  0
  -27.8752  -18.7043   19.6225 C   0  0  0  0  0  0
  -28.5568  -18.9036   22.0062 C   0  0  0  0  0  0
  -27.9116  -24.5583   20.2153 C   0  0  0  0  0  0
  -30.1303  -17.6981   20.3644 C   0  0  0  0  0  0
  -29.0585  -19.0104   20.5562 C   0  0  0  0  0  0
  -29.7725  -16.1589   20.5566 N   0  0  0  0  0  0
  -31.6927  -19.9692   19.8049 F   0  0  0  0  0  0
  -30.9082  -24.9961   19.4804 Cl  0  0  0  0  0  0
  -31.4718  -12.7533   19.1938 H   0  0  0  0  0  0
  -30.4308  -11.6494   20.0442 H   0  0  0  0  0  0
  -29.8440  -11.7273   17.5965 H   0  0  0  0  0  0
  -29.6106  -13.4559   17.6893 H   0  0  0  0  0  0
  -27.9531  -11.2754   18.9876 H   0  0  0  0  0  0
  -27.3929  -12.4451   17.8209 H   0  0  0  0  0  0
  -27.5897  -14.2521   19.4080 H   0  0  0  0  0  0
  -28.7589  -12.3145   21.4628 H   0  0  0  0  0  0
  -28.3656  -13.9928   21.7536 H   0  0  0  0  0  0
  -25.2766   -9.5693   22.4766 H   0  0  0  0  0  0
  -24.0014   -7.4635   22.7467 H   0  0  0  0  0  0
  -21.0852   -8.8770   19.8944 H   0  0  0  0  0  0
  -22.3701  -10.9674   19.6167 H   0  0  0  0  0  0
  -21.2005   -7.6149   23.9718 H   0  0  0  0  0  0
  -21.1484   -6.0522   25.9079 H   0  0  0  0  0  0
  -22.0597   -2.7611   23.2842 H   0  0  0  0  0  0
  -22.4082  -11.9854   22.4829 H   0  0  0  0  0  0
  -21.1062  -13.1192   22.2638 H   0  0  0  0  0  0
  -24.6411  -15.8433   20.5234 H   0  0  0  0  0  0
  -26.2478  -15.6312   20.0494 H   0  0  0  0  0  0
  -26.7290  -32.5285   23.0988 H   0  0  0  0  0  0
  -25.0104  -33.9603   25.0318 H   0  0  0  0  0  0
  -22.7549  -31.2889   21.3786 H   0  0  0  0  0  0
  -23.3760  -35.9566   23.3294 H   0  0  0  0  0  0
  -24.3574  -36.8883   22.2058 H   0  0  0  0  0  0
  -23.7237  -37.6432   23.6685 H   0  0  0  0  0  0
  -26.1713  -31.4597   20.6152 H   0  0  0  0  0  0
  -26.8795  -30.7572   22.0330 H   0  0  0  0  0  0
  -28.1361  -28.7692   21.2372 H   0  0  0  0  0  0
  -25.8824  -25.8446   18.9886 H   0  0  0  0  0  0
  -23.9759  -27.3066   18.9747 H   0  0  0  0  0  0
  -23.8172  -30.5674   19.3974 H   0  0  0  0  0  0
  -22.7926  -29.2367   19.8402 H   0  0  0  0  0  0
  -25.1316  -36.1843   25.0804 H   0  0  0  0  0  0
  -21.0019  -28.3313   24.1358 H   0  0  0  0  0  0
  -20.5685  -26.2337   23.3627 H   0  0  0  0  0  0
  -21.6656  -26.7433   22.1202 H   0  0  0  0  0  0
  -19.6918  -25.6296   21.1256 H   0  0  0  0  0  0
  -19.6697  -27.3190   20.6738 H   0  0  0  0  0  0
  -17.4213  -26.6691   21.4030 H   0  0  0  0  0  0
  -18.0336  -26.0091   22.9031 H   0  0  0  0  0  0
  -19.7957  -30.7305   24.2228 H   0  0  0  0  0  0
  -17.5032  -31.6273   24.5170 H   0  0  0  0  0  0
  -15.5367  -30.2986   23.7681 H   0  0  0  0  0  0
  -15.8695  -28.0820   22.7094 H   0  0  0  0  0  0
  -24.5903  -30.7090   25.7727 H   0  0  0  0  0  0
  -24.8884  -32.2942   26.4747 H   0  0  0  0  0  0
  -25.7986  -30.8991   27.0226 H   0  0  0  0  0  0
  -26.3017  -29.6678   24.1287 H   0  0  0  0  0  0
  -27.3982  -29.7247   25.4884 H   0  0  0  0  0  0
  -27.8945  -30.4184   23.9648 H   0  0  0  0  0  0
  -27.2637  -33.3652   26.2018 H   0  0  0  0  0  0
  -28.3901  -32.6855   25.0360 H   0  0  0  0  0  0
  -28.0683  -31.8498   26.5475 H   0  0  0  0  0  0
  -28.2589  -38.0080   24.7520 H   0  0  0  0  0  0
  -28.1067  -36.2610   24.6290 H   0  0  0  0  0  0
  -27.2295  -37.1427   25.8874 H   0  0  0  0  0  0
  -20.9477  -29.8755   21.6775 H   0  0  0  0  0  0
  -26.0138  -38.2812   24.1414 H   0  0  0  0  0  0
  -27.5386  -21.6299   20.6821 H   0  0  0  0  0  0
  -33.2107  -21.6416   19.2098 H   0  0  0  0  0  0
  -33.1195  -23.2076   20.0019 H   0  0  0  0  0  0
  -32.6496  -23.0375   18.3055 H   0  0  0  0  0  0
  -27.0395  -19.3837   19.7900 H   0  0  0  0  0  0
  -27.4993  -17.6906   19.7634 H   0  0  0  0  0  0
  -28.1715  -18.8022   18.5781 H   0  0  0  0  0  0
  -27.7304  -19.5871   22.2019 H   0  0  0  0  0  0
  -29.3539  -19.1440   22.7098 H   0  0  0  0  0  0
  -28.2071  -17.8978   22.2411 H   0  0  0  0  0  0
  -27.2561  -24.4013   21.0724 H   0  0  0  0  0  0
  -27.2940  -24.3690   19.3408 H   0  0  0  0  0  0
  -30.9834  -17.8779   21.0197 H   0  0  0  0  0  0
  -30.5379  -17.7649   19.3548 H   0  0  0  0  0  0
  -28.8008  -15.9872   20.7646 H   0  0  0  0  0  0
  1 25  1  0  0  0
  1 30  2  0  0  0
  1 83  1  0  0  0
  2  3  1  0  0  0
  2 25  1  0  0  0
  2 86  1  0  0  0
  2 87  1  0  0  0
  3  4  1  0  0  0
  3 88  1  0  0  0
  3 89  1  0  0  0
  4  5  1  0  0  0
  4 90  1  0  0  0
  4 91  1  0  0  0
  5  6  1  0  0  0
  5 26  1  0  0  0
  5 92  1  0  0  0
  6 25  1  0  0  0
  6 93  1  0  0  0
  6 94  1  0  0  0
  7  8  2  0  0  0
  7 26  1  0  0  0
  7 29  1  0  0  0
  8  9  1  0  0  0
  8 22  1  0  0  0
  9 10  1  0  0  0
  9 27  2  0  0  0
 10 11  2  0  0  0
 10 15  1  0  0  0
 11 12  1  0  0  0
 11 95  1  0  0  0
 12 13  2  0  0  0
 12 96  1  0  0  0
 13 14  1  0  0  0
 13 31  1  0  0  0
 14 15  2  0  0  0
 14 97  1  0  0  0
 15 98  1  0  0  0
 16 17  2  0  0  0
 16 21  1  0  0  0
 16 31  1  0  0  0
 17 18  1  0  0  0
 17 99  1  0  0  0
 18 19  2  0  0  0
 18100  1  0  0  0
 19 20  1  0  0  0
 19 24  1  0  0  0
 20 21  2  0  0  0
 20101  1  0  0  0
 21 23  1  0  0  0
 22 28  1  0  0  0
 22 32  2  0  0  0
 26 27  1  0  0  0
 28102  1  0  0  0
 28103  1  0  0  0
 29104  1  0  0  0
 29105  1  0  0  0
 33 34  1  0  0  0
 33 66  1  0  0  0
 33 70  2  0  0  0
 34 36  1  0  0  0
 34 59  1  0  0  0
 34106  1  0  0  0
 35 44  2  0  0  0
 35 45  1  0  0  0
 35 68  1  0  0  0
 36 56  1  0  0  0
 36107  1  0  0  0
 37 39  1  0  0  0
 37 47  1  0  0  0
 37 66  1  0  0  0
 37108  1  0  0  0
 38 43  2  0  0  0
 38 46  1  0  0  0
 38 47  1  0  0  0
 39 64  1  0  0  0
 39 67  2  0  0  0
 40 52  1  0  0  0
 40 53  2  0  0  0
 40 58  1  0  0  0
 41109  1  0  0  0
 41110  1  0  0  0
 41111  1  0  0  0
 41 48  1  0  0  0
 42 43  1  0  0  0
 42 66  1  0  0  0
 42112  1  0  0  0
 42113  1  0  0  0
 43 44  1  0  0  0
 44114  1  0  0  0
 45 46  2  0  0  0
 45115  1  0  0  0
 46116  1  0  0  0
 47117  1  0  0  0
 47118  1  0  0  0
 48 56  1  0  0  0
 48 65  1  0  0  0
 48119  1  0  0  0
 49 50  1  0  0  0
 49 53  1  0  0  0
 49 64  1  0  0  0
 49120  1  0  0  0
 50 51  1  0  0  0
 50121  1  0  0  0
 50122  1  0  0  0
 51 52  1  0  0  0
 51123  1  0  0  0
 51124  1  0  0  0
 52125  1  0  0  0
 52126  1  0  0  0
 53 54  1  0  0  0
 54 55  2  0  0  0
 54127  1  0  0  0
 55 57  1  0  0  0
 55128  1  0  0  0
 56 69  2  0  0  0
 57 58  2  0  0  0
 57129  1  0  0  0
 58130  1  0  0  0
 59 60  1  0  0  0
 59 61  1  0  0  0
 59 62  1  0  0  0
 60131  1  0  0  0
 60132  1  0  0  0
 60133  1  0  0  0
 61134  1  0  0  0
 61135  1  0  0  0
 61136  1  0  0  0
 62137  1  0  0  0
 62138  1  0  0  0
 62139  1  0  0  0
 63 65  1  0  0  0
 63140  1  0  0  0
 63141  1  0  0  0
 63142  1  0  0  0
 64143  1  0  0  0
 65144  1  0  0  0
 68 80  1  0  0  0
 71 72  2  0  0  0
 71 73  1  0  0  0
 71145  1  0  0  0
 72 75  1  0  0  0
 72 82  1  0  0  0
 73 76  2  0  0  0
 73 80  1  0  0  0
 74 75  2  0  0  0
 74 76  1  0  0  0
 74 77  1  0  0  0
 75 84  1  0  0  0
 76 85  1  0  0  0
 77146  1  0  0  0
 77147  1  0  0  0
 77148  1  0  0  0
 78149  1  0  0  0
 78150  1  0  0  0
 78151  1  0  0  0
 78 82  1  0  0  0
 79 82  1  0  0  0
 79152  1  0  0  0
 79153  1  0  0  0
 79154  1  0  0  0
 80155  1  0  0  0
 80156  1  0  0  0
 81 82  1  0  0  0
 81 83  1  0  0  0
 81157  1  0  0  0
 81158  1  0  0  0
 83159  1  0  0  0
M  ISO  4   1 100  68 101  80 101  83 100
M  END
> <chiral flag>
0

> <version>
0

> <s_m_source_file>
/data/baiqing/PycharmProjects/Reinvent-master-3.2/result/LINK_invent/BTK/process_docking_weight1_custom_sum_contain_oxygen_bond_distance_aromatic_linkinvent_7_9_3/rearranged_h_0028.sdf

> <i_m_source_file_index>
46

> <r_mmod_Potential_Energy-OPLS-2005>
503.907501220703

> <r_mmod_Stretch_Energy-OPLS-2005>
289.924743652344

> <r_mmod_Bend_Energy-OPLS-2005>
251.80078125

> <r_mmod_Torsional_Energy-OPLS-2005>
223.406341552734

> <r_mmod_Improper_Torsional_Energy-OPLS-2005>
4.72536659240723

> <r_mmod_Van_der_Waal_Energy-OPLS-2005>
135.474014282227

> <r_mmod_Electrostatic_Energy-OPLS-2005>
-408.735778808594

> <r_mmod_Solvation_Energy-OPLS-2005>
-204.400848388672

> <b_mmod_Minimization_Converged-OPLS-2005>
0

> <r_mmod_RMS_Derivative-OPLS-2005>
0.950764834880829

$$$$
46
                    3D
 Structure written by MMmdl.
164172  0  0  1  0            999 V2000
  -30.7687  -14.3684   20.6813 C   0  0  0  0  0  0
  -30.4201  -12.2985   19.3830 C   0  0  0  0  0  0
  -29.4797  -12.5276   18.1854 C   0  0  0  0  0  0
  -28.0049  -12.3882   18.6060 C   0  0  0  0  0  0
  -27.6677  -13.2043   19.8822 C   0  0  2  0  0  0
  -28.7091  -12.9388   20.9903 C   0  0  0  0  0  0
  -25.2621  -13.8166   20.5679 C   0  0  0  0  0  0
  -24.1859  -13.0447   20.9166 C   0  0  0  0  0  0
  -24.6417  -11.6907   20.8736 C   0  0  0  0  0  0
  -23.9084  -10.4294   21.0408 C   0  0  0  0  0  0
  -24.3625   -9.4212   21.9192 C   0  0  0  0  0  0
  -23.6294   -8.2250   22.0762 C   0  0  0  0  0  0
  -22.4279   -8.0289   21.3548 C   0  0  0  0  0  0
  -21.9920   -9.0269   20.4654 C   0  0  0  0  0  0
  -22.7257  -10.2148   20.3067 C   0  0  0  0  0  0
  -21.6857   -6.0743   22.5283 C   0  0  0  0  0  0
  -21.4014   -6.5645   23.8212 C   0  0  0  0  0  0
  -21.3655   -5.6794   24.9174 C   0  0  0  0  0  0
  -21.6041   -4.3053   24.7222 C   0  0  0  0  0  0
  -21.8826   -3.8155   23.4342 C   0  0  0  0  0  0
  -21.9194   -4.6976   22.3401 C   0  0  0  0  0  0
  -22.7882  -13.5253   21.1828 C   0  0  0  0  0  0
  -22.1664   -4.2160   21.0981 F   0  0  0  0  0  0
  -21.5628   -3.4536   25.7734 F   0  0  0  0  0  0
  -30.0477  -13.2408   20.4472 N   0  0  0  0  0  0
  -26.3061  -12.9328   20.3402 N   0  0  0  0  0  0
  -25.9342  -11.6486   20.5768 N   0  0  0  0  0  0
  -22.0522  -12.8240   22.0382 N   0  0  0  0  0  0
  -25.4361  -15.1872   20.4086 N   0  0  0  0  0  0
  -31.8083  -14.6483   20.0754 O   0  0  0  0  0  0
  -21.6638   -6.8888   21.4243 O   0  0  0  0  0  0
  -22.3572  -14.5563   20.6684 O   0  0  0  0  0  0
  -24.6108  -31.8666   23.2159 C   0  0  0  0  0  0
  -25.9006  -32.4791   23.8444 C   0  0  1  0  0  0
  -27.2446  -27.4595   20.0603 C   0  0  0  0  0  0
  -25.5837  -33.8603   24.2355 N   0  0  0  0  0  0
  -23.4003  -30.4935   21.5546 C   0  0  2  0  0  0
  -24.8435  -28.9585   20.1166 C   0  0  0  0  0  0
  -22.7424  -29.4651   22.5021 C   0  0  0  0  0  0
  -18.0297  -28.1346   22.8493 C   0  0  0  0  0  0
  -24.1463  -36.7395   23.2646 C   0  0  0  0  0  0
  -25.9277  -30.8296   21.3720 C   0  0  0  0  0  0
  -26.0000  -29.4650   20.7204 C   0  0  0  0  0  0
  -27.1961  -28.7177   20.7008 C   0  0  0  0  0  0
  -26.0616  -26.9552   19.4651 C   0  0  0  0  0  0
  -24.8663  -27.6988   19.4939 C   0  0  0  0  0  0
  -23.6070  -29.8274   20.1677 C   0  0  0  0  0  0
  -25.4069  -36.3141   24.0345 C   0  0  1  0  0  0
  -20.5873  -28.3642   23.1356 C   0  0  2  0  0  0
  -20.6764  -26.9385   22.5437 C   0  0  0  0  0  0
  -19.5743  -26.6373   21.5228 C   0  0  0  0  0  0
  -18.1926  -26.7894   22.1633 C   0  0  0  0  0  0
  -19.1539  -28.8811   23.2903 C   0  0  0  0  0  0
  -18.9459  -30.1430   23.8882 C   0  0  0  0  0  0
  -17.6454  -30.6547   24.0565 C   0  0  0  0  0  0
  -25.8992  -34.9476   23.5168 C   0  0  0  0  0  0
  -16.5346  -29.9055   23.6309 C   0  0  0  0  0  0
  -16.7293  -28.6481   23.0325 C   0  0  0  0  0  0
  -26.4434  -31.6531   25.0758 C   0  0  0  0  0  0
  -25.3735  -31.3569   26.1536 C   0  0  0  0  0  0
  -27.0257  -30.2975   24.6089 C   0  0  0  0  0  0
  -27.6013  -32.4240   25.7484 C   0  0  0  0  0  0
  -27.5575  -37.1836   24.8454 C   0  0  0  0  0  0
  -21.4159  -29.3031   22.3777 N   0  0  0  0  0  0
  -26.4280  -37.3816   23.9407 N   0  0  0  0  0  0
  -24.6640  -31.0774   22.1056 N   0  0  0  0  0  0
  -23.4226  -28.8207   23.3049 O   0  0  0  0  0  0
  -28.4507  -26.7910   20.0262 O   0  0  0  0  0  0
  -26.5612  -34.8914   22.4761 O   0  0  0  0  0  0
  -23.5295  -32.1456   23.7548 O   0  0  0  0  0  0
  -29.8586  -19.7212   21.0805 C   0  0  0  0  0  0
  -29.3270  -20.4081   22.1921 C   0  0  0  0  0  0
  -30.4819  -20.4735   20.0524 C   0  0  0  0  0  0
  -29.4626  -21.8067   22.2487 C   0  0  0  0  0  0
  -30.5690  -21.8842   20.2068 C   0  0  0  0  0  0
  -28.8979  -22.5856   23.4144 C   0  0  0  0  0  0
  -29.7801  -18.1977   21.0415 C   0  0  0  0  0  0
  -31.2228  -22.7985   19.1670 C   0  0  0  0  0  0
  -31.1190  -17.5385   21.4261 C   0  0  0  0  0  0
  -30.2301  -23.7827   18.5112 C   0  0  0  0  0  0
  -30.0039  -25.0942   19.3011 C   0  0  0  0  0  0
  -30.9955  -16.2693   22.2926 C   0  0  0  0  0  0
  -28.5666  -25.6284   19.2079 C   0  0  0  0  0  0
  -30.0828  -22.5274   21.2933 N   0  0  0  0  0  0
  -30.2960  -15.1509   21.6584 N   0  0  0  0  0  0
  -28.7079  -19.7387   23.1963 F   0  0  0  0  0  0
  -31.1148  -19.6721   18.6531 Cl  0  0  0  0  0  0
  -31.4595  -12.4127   19.0677 H   0  0  0  0  0  0
  -30.3343  -11.2743   19.7478 H   0  0  0  0  0  0
  -29.7088  -11.8187   17.3886 H   0  0  0  0  0  0
  -29.6500  -13.5216   17.7690 H   0  0  0  0  0  0
  -27.8038  -11.3296   18.7739 H   0  0  0  0  0  0
  -27.3532  -12.6933   17.7870 H   0  0  0  0  0  0
  -27.7283  -14.2597   19.6181 H   0  0  0  0  0  0
  -28.6755  -11.8915   21.2931 H   0  0  0  0  0  0
  -28.4578  -13.5010   21.8896 H   0  0  0  0  0  0
  -25.2773   -9.5678   22.4752 H   0  0  0  0  0  0
  -24.0006   -7.4641   22.7475 H   0  0  0  0  0  0
  -21.0855   -8.8806   19.8942 H   0  0  0  0  0  0
  -22.3737  -10.9692   19.6167 H   0  0  0  0  0  0
  -21.2004   -7.6152   23.9726 H   0  0  0  0  0  0
  -21.1465   -6.0515   25.9076 H   0  0  0  0  0  0
  -22.0606   -2.7618   23.2840 H   0  0  0  0  0  0
  -22.4132  -11.9895   22.4757 H   0  0  0  0  0  0
  -21.1148  -13.1272   22.2594 H   0  0  0  0  0  0
  -24.6754  -15.8488   20.5213 H   0  0  0  0  0  0
  -26.2999  -15.6236   20.1100 H   0  0  0  0  0  0
  -26.7082  -32.5498   23.1208 H   0  0  0  0  0  0
  -24.9855  -33.9719   25.0413 H   0  0  0  0  0  0
  -22.6891  -31.3106   21.4214 H   0  0  0  0  0  0
  -23.3692  -35.9765   23.3298 H   0  0  0  0  0  0
  -24.3560  -36.9052   22.2067 H   0  0  0  0  0  0
  -23.7238  -37.6608   23.6675 H   0  0  0  0  0  0
  -26.0399  -31.5940   20.6030 H   0  0  0  0  0  0
  -26.8182  -30.8812   21.9875 H   0  0  0  0  0  0
  -28.0913  -29.1173   21.1585 H   0  0  0  0  0  0
  -26.0411  -26.0038   18.9563 H   0  0  0  0  0  0
  -23.9790  -27.3013   19.0190 H   0  0  0  0  0  0
  -23.7180  -30.6061   19.4104 H   0  0  0  0  0  0
  -22.7282  -29.2522   19.8722 H   0  0  0  0  0  0
  -25.1214  -36.2056   25.0838 H   0  0  0  0  0  0
  -20.9928  -28.3178   24.1495 H   0  0  0  0  0  0
  -20.5658  -26.2252   23.3618 H   0  0  0  0  0  0
  -21.6640  -26.7405   22.1231 H   0  0  0  0  0  0
  -19.6887  -25.6311   21.1208 H   0  0  0  0  0  0
  -19.6658  -27.3214   20.6781 H   0  0  0  0  0  0
  -17.4207  -26.6701   21.4024 H   0  0  0  0  0  0
  -18.0292  -26.0008   22.8992 H   0  0  0  0  0  0
  -19.7945  -30.7248   24.2223 H   0  0  0  0  0  0
  -17.5009  -31.6202   24.5227 H   0  0  0  0  0  0
  -15.5331  -30.2923   23.7611 H   0  0  0  0  0  0
  -15.8729  -28.0766   22.7004 H   0  0  0  0  0  0
  -24.5971  -30.6816   25.7923 H   0  0  0  0  0  0
  -24.8810  -32.2656   26.4988 H   0  0  0  0  0  0
  -25.8154  -30.8791   27.0300 H   0  0  0  0  0  0
  -26.2784  -29.6699   24.1206 H   0  0  0  0  0  0
  -27.4161  -29.7199   25.4479 H   0  0  0  0  0  0
  -27.8560  -30.4326   23.9163 H   0  0  0  0  0  0
  -27.2686  -33.3599   26.1991 H   0  0  0  0  0  0
  -28.3832  -32.6691   25.0285 H   0  0  0  0  0  0
  -28.0663  -31.8402   26.5446 H   0  0  0  0  0  0
  -28.2574  -38.0150   24.7483 H   0  0  0  0  0  0
  -28.1101  -36.2684   24.6283 H   0  0  0  0  0  0
  -27.2306  -37.1456   25.8862 H   0  0  0  0  0  0
  -20.9344  -29.8808   21.7030 H   0  0  0  0  0  0
  -26.0203  -38.2916   24.1393 H   0  0  0  0  0  0
  -29.2281  -22.1463   24.3549 H   0  0  0  0  0  0
  -27.8103  -22.5427   23.3833 H   0  0  0  0  0  0
  -29.2022  -23.6324   23.3913 H   0  0  0  0  0  0
  -29.4589  -17.8612   20.0555 H   0  0  0  0  0  0
  -28.9971  -17.8712   21.7256 H   0  0  0  0  0  0
  -31.6828  -22.2020   18.3810 H   0  0  0  0  0  0
  -32.0514  -23.3419   19.6205 H   0  0  0  0  0  0
  -31.7024  -18.2546   22.0082 H   0  0  0  0  0  0
  -31.7103  -17.3470   20.5302 H   0  0  0  0  0  0
  -29.2889  -23.2633   18.3200 H   0  0  0  0  0  0
  -30.6212  -24.0582   17.5300 H   0  0  0  0  0  0
  -30.2480  -24.9545   20.3525 H   0  0  0  0  0  0
  -30.7019  -25.8546   18.9470 H   0  0  0  0  0  0
  -30.4674  -16.5160   23.2153 H   0  0  0  0  0  0
  -31.9917  -15.9394   22.5940 H   0  0  0  0  0  0
  -27.8730  -24.8645   19.5677 H   0  0  0  0  0  0
  -28.3240  -25.8616   18.1693 H   0  0  0  0  0  0
  -29.4450  -14.8318   22.0984 H   0  0  0  0  0  0
  1 25  1  0  0  0
  1 30  2  0  0  0
  1 85  1  0  0  0
  2  3  1  0  0  0
  2 25  1  0  0  0
  2 88  1  0  0  0
  2 89  1  0  0  0
  3  4  1  0  0  0
  3 90  1  0  0  0
  3 91  1  0  0  0
  4  5  1  0  0  0
  4 92  1  0  0  0
  4 93  1  0  0  0
  5  6  1  0  0  0
  5 26  1  0  0  0
  5 94  1  0  0  0
  6 25  1  0  0  0
  6 95  1  0  0  0
  6 96  1  0  0  0
  7  8  2  0  0  0
  7 26  1  0  0  0
  7 29  1  0  0  0
  8  9  1  0  0  0
  8 22  1  0  0  0
  9 10  1  0  0  0
  9 27  2  0  0  0
 10 11  2  0  0  0
 10 15  1  0  0  0
 11 12  1  0  0  0
 11 97  1  0  0  0
 12 13  2  0  0  0
 12 98  1  0  0  0
 13 14  1  0  0  0
 13 31  1  0  0  0
 14 15  2  0  0  0
 14 99  1  0  0  0
 15100  1  0  0  0
 16 17  2  0  0  0
 16 21  1  0  0  0
 16 31  1  0  0  0
 17 18  1  0  0  0
 17101  1  0  0  0
 18 19  2  0  0  0
 18102  1  0  0  0
 19 20  1  0  0  0
 19 24  1  0  0  0
 20 21  2  0  0  0
 20103  1  0  0  0
 21 23  1  0  0  0
 22 28  1  0  0  0
 22 32  2  0  0  0
 26 27  1  0  0  0
 28104  1  0  0  0
 28105  1  0  0  0
 29106  1  0  0  0
 29107  1  0  0  0
 33 34  1  0  0  0
 33 66  1  0  0  0
 33 70  2  0  0  0
 34 36  1  0  0  0
 34 59  1  0  0  0
 34108  1  0  0  0
 35 44  2  0  0  0
 35 45  1  0  0  0
 35 68  1  0  0  0
 36 56  1  0  0  0
 36109  1  0  0  0
 37 39  1  0  0  0
 37 47  1  0  0  0
 37 66  1  0  0  0
 37110  1  0  0  0
 38 43  2  0  0  0
 38 46  1  0  0  0
 38 47  1  0  0  0
 39 64  1  0  0  0
 39 67  2  0  0  0
 40 52  1  0  0  0
 40 53  2  0  0  0
 40 58  1  0  0  0
 41111  1  0  0  0
 41112  1  0  0  0
 41113  1  0  0  0
 41 48  1  0  0  0
 42 43  1  0  0  0
 42 66  1  0  0  0
 42114  1  0  0  0
 42115  1  0  0  0
 43 44  1  0  0  0
 44116  1  0  0  0
 45 46  2  0  0  0
 45117  1  0  0  0
 46118  1  0  0  0
 47119  1  0  0  0
 47120  1  0  0  0
 48 56  1  0  0  0
 48 65  1  0  0  0
 48121  1  0  0  0
 49 50  1  0  0  0
 49 53  1  0  0  0
 49 64  1  0  0  0
 49122  1  0  0  0
 50 51  1  0  0  0
 50123  1  0  0  0
 50124  1  0  0  0
 51 52  1  0  0  0
 51125  1  0  0  0
 51126  1  0  0  0
 52127  1  0  0  0
 52128  1  0  0  0
 53 54  1  0  0  0
 54 55  2  0  0  0
 54129  1  0  0  0
 55 57  1  0  0  0
 55130  1  0  0  0
 56 69  2  0  0  0
 57 58  2  0  0  0
 57131  1  0  0  0
 58132  1  0  0  0
 59 60  1  0  0  0
 59 61  1  0  0  0
 59 62  1  0  0  0
 60133  1  0  0  0
 60134  1  0  0  0
 60135  1  0  0  0
 61136  1  0  0  0
 61137  1  0  0  0
 61138  1  0  0  0
 62139  1  0  0  0
 62140  1  0  0  0
 62141  1  0  0  0
 63 65  1  0  0  0
 63142  1  0  0  0
 63143  1  0  0  0
 63144  1  0  0  0
 64145  1  0  0  0
 65146  1  0  0  0
 68 83  1  0  0  0
 71 72  2  0  0  0
 71 73  1  0  0  0
 71 77  1  0  0  0
 72 74  1  0  0  0
 72 86  1  0  0  0
 73 75  2  0  0  0
 73 87  1  0  0  0
 74 76  1  0  0  0
 74 84  2  0  0  0
 75 78  1  0  0  0
 75 84  1  0  0  0
 76147  1  0  0  0
 76148  1  0  0  0
 76149  1  0  0  0
 77 79  1  0  0  0
 77150  1  0  0  0
 77151  1  0  0  0
 78 80  1  0  0  0
 78152  1  0  0  0
 78153  1  0  0  0
 79 82  1  0  0  0
 79154  1  0  0  0
 79155  1  0  0  0
 80 81  1  0  0  0
 80156  1  0  0  0
 80157  1  0  0  0
 81 83  1  0  0  0
 81158  1  0  0  0
 81159  1  0  0  0
 82 85  1  0  0  0
 82160  1  0  0  0
 82161  1  0  0  0
 83162  1  0  0  0
 83163  1  0  0  0
 85164  1  0  0  0
M  ISO  4   1 100  68 101  83 101  85 100
M  END
> <chiral flag>
0

> <version>
0

> <s_m_source_file>
/data/baiqing/PycharmProjects/Reinvent-master-3.2/result/LINK_invent/BTK/process_docking_weight1_custom_sum_contain_oxygen_bond_distance_aromatic_linkinvent_7_9_3/rearranged_h_0028.sdf

> <i_m_source_file_index>
47

> <r_mmod_Potential_Energy-OPLS-2005>
-136.172317504883

> <r_mmod_Stretch_Energy-OPLS-2005>
34.4705085754395

> <r_mmod_Bend_Energy-OPLS-2005>
96.5864028930664

> <r_mmod_Torsional_Energy-OPLS-2005>
203.050415039062

> <r_mmod_Improper_Torsional_Energy-OPLS-2005>
2.05876755714417

> <r_mmod_Van_der_Waal_Energy-OPLS-2005>
159.107849121094

> <r_mmod_Electrostatic_Energy-OPLS-2005>
-430.627868652344

> <r_mmod_Solvation_Energy-OPLS-2005>
-208.864959716797

> <b_mmod_Minimization_Converged-OPLS-2005>
0

> <r_mmod_RMS_Derivative-OPLS-2005>
3.10188746452332

$$$$
47
                    3D
 Structure written by MMmdl.
168176  0  0  1  0            999 V2000
  -30.7898  -14.4283   20.6395 C   0  0  0  0  0  0
  -30.4211  -12.2978   19.4485 C   0  0  0  0  0  0
  -29.4904  -12.5015   18.2367 C   0  0  0  0  0  0
  -28.0214  -12.3531   18.6556 C   0  0  0  0  0  0
  -27.6703  -13.2033   19.9017 C   0  0  2  0  0  0
  -28.7192  -13.0107   21.0222 C   0  0  0  0  0  0
  -25.2632  -13.8094   20.5705 C   0  0  0  0  0  0
  -24.1823  -13.0425   20.9057 C   0  0  0  0  0  0
  -24.6398  -11.6877   20.8674 C   0  0  0  0  0  0
  -23.9055  -10.4325   21.0415 C   0  0  0  0  0  0
  -24.3603   -9.4262   21.9203 C   0  0  0  0  0  0
  -23.6322   -8.2289   22.0768 C   0  0  0  0  0  0
  -22.4298   -8.0247   21.3563 C   0  0  0  0  0  0
  -21.9914   -9.0234   20.4667 C   0  0  0  0  0  0
  -22.7210  -10.2145   20.3116 C   0  0  0  0  0  0
  -21.6837   -6.0705   22.5278 C   0  0  0  0  0  0
  -21.4016   -6.5648   23.8180 C   0  0  0  0  0  0
  -21.3698   -5.6807   24.9151 C   0  0  0  0  0  0
  -21.6084   -4.3083   24.7232 C   0  0  0  0  0  0
  -21.8795   -3.8133   23.4366 C   0  0  0  0  0  0
  -21.9208   -4.6932   22.3400 C   0  0  0  0  0  0
  -22.7792  -13.5154   21.1727 C   0  0  0  0  0  0
  -22.1643   -4.2091   21.0976 F   0  0  0  0  0  0
  -21.5708   -3.4607   25.7780 F   0  0  0  0  0  0
  -30.0594  -13.2923   20.4705 N   0  0  0  0  0  0
  -26.3075  -12.9268   20.3528 N   0  0  0  0  0  0
  -25.9359  -11.6429   20.5899 N   0  0  0  0  0  0
  -22.0466  -12.8174   22.0311 N   0  0  0  0  0  0
  -25.4642  -15.1804   20.4176 N   0  0  0  0  0  0
  -31.8423  -14.6314   20.0267 O   0  0  0  0  0  0
  -21.6708   -6.8827   21.4218 O   0  0  0  0  0  0
  -22.3528  -14.5487   20.6548 O   0  0  0  0  0  0
  -24.6129  -31.8701   23.2072 C   0  0  0  0  0  0
  -25.9045  -32.4803   23.8313 C   0  0  1  0  0  0
  -27.2112  -27.4439   20.0950 C   0  0  0  0  0  0
  -25.5910  -33.8584   24.2247 N   0  0  0  0  0  0
  -23.3972  -30.4939   21.5553 C   0  0  2  0  0  0
  -24.8385  -28.9640   20.1069 C   0  0  0  0  0  0
  -22.7421  -29.4639   22.5043 C   0  0  0  0  0  0
  -18.0344  -28.1283   22.8435 C   0  0  0  0  0  0
  -24.1512  -36.7332   23.2642 C   0  0  0  0  0  0
  -25.9235  -30.8378   21.3618 C   0  0  0  0  0  0
  -25.9995  -29.4779   20.7011 C   0  0  0  0  0  0
  -27.1946  -28.7237   20.6909 C   0  0  0  0  0  0
  -26.0443  -26.9502   19.4812 C   0  0  0  0  0  0
  -24.8526  -27.6991   19.4905 C   0  0  0  0  0  0
  -23.6009  -29.8286   20.1655 C   0  0  0  0  0  0
  -25.4136  -36.3082   24.0309 C   0  0  1  0  0  0
  -20.5930  -28.3553   23.1349 C   0  0  2  0  0  0
  -20.6913  -26.9317   22.5377 C   0  0  0  0  0  0
  -19.5891  -26.6345   21.5159 C   0  0  0  0  0  0
  -18.2016  -26.7866   22.1488 C   0  0  0  0  0  0
  -19.1575  -28.8741   23.2909 C   0  0  0  0  0  0
  -18.9561  -30.1405   23.8823 C   0  0  0  0  0  0
  -17.6554  -30.6525   24.0479 C   0  0  0  0  0  0
  -25.9056  -34.9466   23.5100 C   0  0  0  0  0  0
  -16.5438  -29.9045   23.6155 C   0  0  0  0  0  0
  -16.7390  -28.6464   23.0192 C   0  0  0  0  0  0
  -26.4473  -31.6527   25.0625 C   0  0  0  0  0  0
  -25.3711  -31.3668   26.1357 C   0  0  0  0  0  0
  -27.0324  -30.2964   24.5991 C   0  0  0  0  0  0
  -27.6041  -32.4246   25.7408 C   0  0  0  0  0  0
  -27.5576  -37.1817   24.8457 C   0  0  0  0  0  0
  -21.4113  -29.3013   22.3802 N   0  0  0  0  0  0
  -26.4326  -37.3776   23.9372 N   0  0  0  0  0  0
  -24.6624  -31.0818   22.0994 N   0  0  0  0  0  0
  -23.4245  -28.8151   23.2994 O   0  0  0  0  0  0
  -28.3240  -26.6425   20.1762 O   0  0  0  0  0  0
  -26.5618  -34.8915   22.4656 O   0  0  0  0  0  0
  -23.5345  -32.1483   23.7497 O   0  0  0  0  0  0
  -30.6373  -19.0606   22.4001 C   0  0  0  0  0  0
  -30.2427  -20.3918   22.1148 C   0  0  0  0  0  0
  -30.2137  -17.9590   21.6133 C   0  0  0  0  0  0
  -29.2998  -20.6242   21.0696 C   0  0  0  0  0  0
  -28.6987  -19.5019   20.4407 C   0  0  0  0  0  0
  -29.2314  -18.1919   20.6108 C   0  0  0  0  0  0
  -27.4739  -19.7032   19.5524 C   0  0  0  0  0  0
  -29.0366  -21.6101   24.7201 C   0  0  0  0  0  0
  -30.9417  -21.5043   22.9155 C   0  0  0  0  0  0
  -29.0047  -22.0244   20.4881 C   0  0  0  0  0  0
  -30.9703  -16.6285   21.8173 C   0  0  0  0  0  0
  -30.5448  -21.6305   24.4184 C   0  0  0  0  0  0
  -28.0126  -22.8822   21.2865 C   0  0  0  0  0  0
  -27.6001  -24.2641   20.6666 C   0  0  0  0  0  0
  -28.1782  -25.6338   21.1948 C   0  0  0  0  0  0
  -30.3179  -15.3348   21.5149 N   0  0  0  0  0  0
  -28.7237  -16.9434   19.5139 Cl  0  0  0  0  0  0
  -31.4701  -12.3619   19.1477 H   0  0  0  0  0  0
  -30.2967  -11.3021   19.8703 H   0  0  0  0  0  0
  -29.7360  -11.7818   17.4544 H   0  0  0  0  0  0
  -29.6520  -13.4928   17.8118 H   0  0  0  0  0  0
  -27.8466  -11.2989   18.8756 H   0  0  0  0  0  0
  -27.3536  -12.6119   17.8371 H   0  0  0  0  0  0
  -27.6992  -14.2451   19.5918 H   0  0  0  0  0  0
  -28.6858  -11.9853   21.3905 H   0  0  0  0  0  0
  -28.4773  -13.6250   21.8900 H   0  0  0  0  0  0
  -25.2742   -9.5755   22.4740 H   0  0  0  0  0  0
  -24.0089   -7.4685   22.7479 H   0  0  0  0  0  0
  -21.0884   -8.8742   19.8928 H   0  0  0  0  0  0
  -22.3652  -10.9723   19.6249 H   0  0  0  0  0  0
  -21.1974   -7.6146   23.9684 H   0  0  0  0  0  0
  -21.1540   -6.0540   25.9069 H   0  0  0  0  0  0
  -22.0559   -2.7603   23.2882 H   0  0  0  0  0  0
  -22.4209  -11.9851   22.4643 H   0  0  0  0  0  0
  -21.1143  -13.1082   22.2884 H   0  0  0  0  0  0
  -24.7634  -15.8755   20.6430 H   0  0  0  0  0  0
  -26.3454  -15.5775   20.1181 H   0  0  0  0  0  0
  -26.7110  -32.5483   23.1057 H   0  0  0  0  0  0
  -24.9925  -33.9690   25.0288 H   0  0  0  0  0  0
  -22.6852  -31.3097   21.4185 H   0  0  0  0  0  0
  -23.3733  -35.9714   23.3352 H   0  0  0  0  0  0
  -24.3634  -36.8913   22.2059 H   0  0  0  0  0  0
  -23.7322  -37.6564   23.6647 H   0  0  0  0  0  0
  -26.0347  -31.6163   20.6053 H   0  0  0  0  0  0
  -26.8151  -30.8787   21.9755 H   0  0  0  0  0  0
  -28.0903  -29.1009   21.1642 H   0  0  0  0  0  0
  -26.0467  -25.9753   19.0164 H   0  0  0  0  0  0
  -23.9587  -27.2896   19.0361 H   0  0  0  0  0  0
  -23.7073  -30.6073   19.4088 H   0  0  0  0  0  0
  -22.7180  -29.2592   19.8667 H   0  0  0  0  0  0
  -25.1321  -36.1948   25.0814 H   0  0  0  0  0  0
  -20.9997  -28.3075   24.1488 H   0  0  0  0  0  0
  -20.5931  -26.2113   23.3503 H   0  0  0  0  0  0
  -21.6783  -26.7433   22.1119 H   0  0  0  0  0  0
  -19.7157  -25.6334   21.1020 H   0  0  0  0  0  0
  -19.6874  -27.3244   20.6778 H   0  0  0  0  0  0
  -17.4417  -26.6813   21.3713 H   0  0  0  0  0  0
  -18.0233  -25.9934   22.8742 H   0  0  0  0  0  0
  -19.8074  -30.7233   24.2055 H   0  0  0  0  0  0
  -17.5121  -31.6233   24.5079 H   0  0  0  0  0  0
  -15.5442  -30.2969   23.7363 H   0  0  0  0  0  0
  -15.8812  -28.0785   22.6791 H   0  0  0  0  0  0
  -24.5873  -30.7034   25.7674 H   0  0  0  0  0  0
  -24.8918  -32.2863   26.4746 H   0  0  0  0  0  0
  -25.8042  -30.8837   27.0123 H   0  0  0  0  0  0
  -26.2888  -29.6695   24.1061 H   0  0  0  0  0  0
  -27.4140  -29.7190   25.4415 H   0  0  0  0  0  0
  -27.8679  -30.4272   23.9105 H   0  0  0  0  0  0
  -27.2619  -33.3529   26.2009 H   0  0  0  0  0  0
  -28.3844  -32.6857   25.0230 H   0  0  0  0  0  0
  -28.0710  -31.8336   26.5293 H   0  0  0  0  0  0
  -28.2601  -38.0088   24.7441 H   0  0  0  0  0  0
  -28.1033  -36.2617   24.6362 H   0  0  0  0  0  0
  -27.2260  -37.1556   25.8841 H   0  0  0  0  0  0
  -20.9157  -29.8937   21.7286 H   0  0  0  0  0  0
  -26.0192  -38.2851   24.1337 H   0  0  0  0  0  0
  -31.3608  -18.9120   23.1875 H   0  0  0  0  0  0
  -27.7548  -19.9449   18.5286 H   0  0  0  0  0  0
  -26.8555  -20.5171   19.9354 H   0  0  0  0  0  0
  -26.8304  -18.8201   19.5598 H   0  0  0  0  0  0
  -28.8269  -21.5398   25.7898 H   0  0  0  0  0  0
  -28.5525  -20.7655   24.2278 H   0  0  0  0  0  0
  -28.5646  -22.5295   24.3798 H   0  0  0  0  0  0
  -30.8873  -22.4691   22.4169 H   0  0  0  0  0  0
  -32.0070  -21.2488   22.9138 H   0  0  0  0  0  0
  -28.6476  -21.9596   19.4580 H   0  0  0  0  0  0
  -29.9440  -22.5575   20.3701 H   0  0  0  0  0  0
  -31.8753  -16.7503   21.2192 H   0  0  0  0  0  0
  -31.3204  -16.5815   22.8489 H   0  0  0  0  0  0
  -31.0150  -20.8190   24.9778 H   0  0  0  0  0  0
  -30.9771  -22.5412   24.8345 H   0  0  0  0  0  0
  -28.4689  -23.0385   22.2591 H   0  0  0  0  0  0
  -27.1138  -22.2845   21.4513 H   0  0  0  0  0  0
  -27.0812  -24.3226   21.6239 H   0  0  0  0  0  0
  -28.5641  -24.2959   20.1609 H   0  0  0  0  0  0
  -29.1584  -25.4864   21.6531 H   0  0  0  0  0  0
  -27.5980  -26.0936   22.0100 H   0  0  0  0  0  0
  -29.4945  -15.0765   22.0382 H   0  0  0  0  0  0
  1 25  1  0  0  0
  1 30  2  0  0  0
  1 86  1  0  0  0
  2  3  1  0  0  0
  2 25  1  0  0  0
  2 88  1  0  0  0
  2 89  1  0  0  0
  3  4  1  0  0  0
  3 90  1  0  0  0
  3 91  1  0  0  0
  4  5  1  0  0  0
  4 92  1  0  0  0
  4 93  1  0  0  0
  5  6  1  0  0  0
  5 26  1  0  0  0
  5 94  1  0  0  0
  6 25  1  0  0  0
  6 95  1  0  0  0
  6 96  1  0  0  0
  7  8  2  0  0  0
  7 26  1  0  0  0
  7 29  1  0  0  0
  8  9  1  0  0  0
  8 22  1  0  0  0
  9 10  1  0  0  0
  9 27  2  0  0  0
 10 11  2  0  0  0
 10 15  1  0  0  0
 11 12  1  0  0  0
 11 97  1  0  0  0
 12 13  2  0  0  0
 12 98  1  0  0  0
 13 14  1  0  0  0
 13 31  1  0  0  0
 14 15  2  0  0  0
 14 99  1  0  0  0
 15100  1  0  0  0
 16 17  2  0  0  0
 16 21  1  0  0  0
 16 31  1  0  0  0
 17 18  1  0  0  0
 17101  1  0  0  0
 18 19  2  0  0  0
 18102  1  0  0  0
 19 20  1  0  0  0
 19 24  1  0  0  0
 20 21  2  0  0  0
 20103  1  0  0  0
 21 23  1  0  0  0
 22 28  1  0  0  0
 22 32  2  0  0  0
 26 27  1  0  0  0
 28104  1  0  0  0
 28105  1  0  0  0
 29106  1  0  0  0
 29107  1  0  0  0
 33 34  1  0  0  0
 33 66  1  0  0  0
 33 70  2  0  0  0
 34 36  1  0  0  0
 34 59  1  0  0  0
 34108  1  0  0  0
 35 44  2  0  0  0
 35 45  1  0  0  0
 35 68  1  0  0  0
 36 56  1  0  0  0
 36109  1  0  0  0
 37 39  1  0  0  0
 37 47  1  0  0  0
 37 66  1  0  0  0
 37110  1  0  0  0
 38 43  2  0  0  0
 38 46  1  0  0  0
 38 47  1  0  0  0
 39 64  1  0  0  0
 39 67  2  0  0  0
 40 52  1  0  0  0
 40 53  2  0  0  0
 40 58  1  0  0  0
 41111  1  0  0  0
 41112  1  0  0  0
 41113  1  0  0  0
 41 48  1  0  0  0
 42 43  1  0  0  0
 42 66  1  0  0  0
 42114  1  0  0  0
 42115  1  0  0  0
 43 44  1  0  0  0
 44116  1  0  0  0
 45 46  2  0  0  0
 45117  1  0  0  0
 46118  1  0  0  0
 47119  1  0  0  0
 47120  1  0  0  0
 48 56  1  0  0  0
 48 65  1  0  0  0
 48121  1  0  0  0
 49 50  1  0  0  0
 49 53  1  0  0  0
 49 64  1  0  0  0
 49122  1  0  0  0
 50 51  1  0  0  0
 50123  1  0  0  0
 50124  1  0  0  0
 51 52  1  0  0  0
 51125  1  0  0  0
 51126  1  0  0  0
 52127  1  0  0  0
 52128  1  0  0  0
 53 54  1  0  0  0
 54 55  2  0  0  0
 54129  1  0  0  0
 55 57  1  0  0  0
 55130  1  0  0  0
 56 69  2  0  0  0
 57 58  2  0  0  0
 57131  1  0  0  0
 58132  1  0  0  0
 59 60  1  0  0  0
 59 61  1  0  0  0
 59 62  1  0  0  0
 60133  1  0  0  0
 60134  1  0  0  0
 60135  1  0  0  0
 61136  1  0  0  0
 61137  1  0  0  0
 61138  1  0  0  0
 62139  1  0  0  0
 62140  1  0  0  0
 62141  1  0  0  0
 63 65  1  0  0  0
 63142  1  0  0  0
 63143  1  0  0  0
 63144  1  0  0  0
 64145  1  0  0  0
 65146  1  0  0  0
 68 85  1  0  0  0
 71 72  2  0  0  0
 71 73  1  0  0  0
 71147  1  0  0  0
 72 74  1  0  0  0
 72 79  1  0  0  0
 73 76  2  0  0  0
 73 81  1  0  0  0
 74 75  2  0  0  0
 74 80  1  0  0  0
 75 76  1  0  0  0
 75 77  1  0  0  0
 76 87  1  0  0  0
 77148  1  0  0  0
 77149  1  0  0  0
 77150  1  0  0  0
 78 82  1  0  0  0
 78151  1  0  0  0
 78152  1  0  0  0
 78153  1  0  0  0
 79 82  1  0  0  0
 79154  1  0  0  0
 79155  1  0  0  0
 80 83  1  0  0  0
 80156  1  0  0  0
 80157  1  0  0  0
 81 86  1  0  0  0
 81158  1  0  0  0
 81159  1  0  0  0
 82160  1  0  0  0
 82161  1  0  0  0
 83 84  1  0  0  0
 83162  1  0  0  0
 83163  1  0  0  0
 84 85  1  0  0  0
 84164  1  0  0  0
 84165  1  0  0  0
 85166  1  0  0  0
 85167  1  0  0  0
 86168  1  0  0  0
M  ISO  4   1 100  68 101  85 101  86 100
M  END
> <chiral flag>
0

> <version>
0

> <s_m_source_file>
/data/baiqing/PycharmProjects/Reinvent-master-3.2/result/LINK_invent/BTK/process_docking_weight1_custom_sum_contain_oxygen_bond_distance_aromatic_linkinvent_7_9_3/rearranged_h_0028.sdf

> <i_m_source_file_index>
48

> <r_mmod_Potential_Energy-OPLS-2005>
240.817230224609

> <r_mmod_Stretch_Energy-OPLS-2005>
47.9235763549805

> <r_mmod_Bend_Energy-OPLS-2005>
344.997619628906

> <r_mmod_Torsional_Energy-OPLS-2005>
252.416122436523

> <r_mmod_Improper_Torsional_Energy-OPLS-2005>
3.07908844947815

> <r_mmod_Van_der_Waal_Energy-OPLS-2005>
175.051895141602

> <r_mmod_Electrostatic_Energy-OPLS-2005>
-404.424743652344

> <r_mmod_Solvation_Energy-OPLS-2005>
-194.161010742188

> <b_mmod_Minimization_Converged-OPLS-2005>
0

> <r_mmod_RMS_Derivative-OPLS-2005>
10.0633239746094

$$$$
48
                    3D
 Structure written by MMmdl.
162170  0  0  1  0            999 V2000
  -30.7095  -14.4671   20.5981 C   0  0  0  0  0  0
  -30.4221  -12.3055   19.4297 C   0  0  0  0  0  0
  -29.4970  -12.5106   18.2120 C   0  0  0  0  0  0
  -28.0165  -12.3775   18.6182 C   0  0  0  0  0  0
  -27.6646  -13.2109   19.8806 C   0  0  2  0  0  0
  -28.7035  -12.9806   21.0018 C   0  0  0  0  0  0
  -25.2594  -13.8177   20.5699 C   0  0  0  0  0  0
  -24.1833  -13.0446   20.9133 C   0  0  0  0  0  0
  -24.6398  -11.6919   20.8719 C   0  0  0  0  0  0
  -23.9065  -10.4310   21.0397 C   0  0  0  0  0  0
  -24.3613   -9.4223   21.9184 C   0  0  0  0  0  0
  -23.6285   -8.2254   22.0753 C   0  0  0  0  0  0
  -22.4272   -8.0294   21.3543 C   0  0  0  0  0  0
  -21.9907   -9.0269   20.4650 C   0  0  0  0  0  0
  -22.7232  -10.2154   20.3056 C   0  0  0  0  0  0
  -21.6864   -6.0734   22.5281 C   0  0  0  0  0  0
  -21.4018   -6.5634   23.8211 C   0  0  0  0  0  0
  -21.3648   -5.6788   24.9175 C   0  0  0  0  0  0
  -21.6040   -4.3052   24.7228 C   0  0  0  0  0  0
  -21.8822   -3.8140   23.4352 C   0  0  0  0  0  0
  -21.9196   -4.6956   22.3405 C   0  0  0  0  0  0
  -22.7856  -13.5239   21.1790 C   0  0  0  0  0  0
  -22.1669   -4.2133   21.0985 F   0  0  0  0  0  0
  -21.5621   -3.4533   25.7742 F   0  0  0  0  0  0
  -30.0397  -13.2878   20.4590 N   0  0  0  0  0  0
  -26.3048  -12.9358   20.3409 N   0  0  0  0  0  0
  -25.9332  -11.6514   20.5776 N   0  0  0  0  0  0
  -22.0511  -12.8266   22.0388 N   0  0  0  0  0  0
  -25.4331  -15.1897   20.4228 N   0  0  0  0  0  0
  -31.7957  -14.6619   20.0532 O   0  0  0  0  0  0
  -21.6638   -6.8884   21.4244 O   0  0  0  0  0  0
  -22.3540  -14.5535   20.6622 O   0  0  0  0  0  0
  -24.6146  -31.8682   23.2093 C   0  0  0  0  0  0
  -25.9043  -32.4823   23.8388 C   0  0  1  0  0  0
  -27.2322  -27.4288   20.1036 C   0  0  0  0  0  0
  -25.5904  -33.8619   24.2333 N   0  0  0  0  0  0
  -23.4022  -30.4907   21.5503 C   0  0  2  0  0  0
  -24.8479  -28.9540   20.1169 C   0  0  0  0  0  0
  -22.7409  -29.4659   22.4992 C   0  0  0  0  0  0
  -18.0270  -28.1369   22.8494 C   0  0  0  0  0  0
  -24.1489  -36.7314   23.2635 C   0  0  0  0  0  0
  -25.9300  -30.8343   21.3604 C   0  0  0  0  0  0
  -26.0082  -29.4671   20.7095 C   0  0  0  0  0  0
  -27.2054  -28.7138   20.6933 C   0  0  0  0  0  0
  -26.0555  -26.9316   19.5019 C   0  0  0  0  0  0
  -24.8668  -27.6862   19.5088 C   0  0  0  0  0  0
  -23.6099  -29.8221   20.1651 C   0  0  0  0  0  0
  -25.4108  -36.3109   24.0338 C   0  0  1  0  0  0
  -20.5863  -28.3658   23.1323 C   0  0  2  0  0  0
  -20.6761  -26.9398   22.5416 C   0  0  0  0  0  0
  -19.5742  -26.6382   21.5209 C   0  0  0  0  0  0
  -18.1920  -26.7916   22.1625 C   0  0  0  0  0  0
  -19.1518  -28.8832   23.2905 C   0  0  0  0  0  0
  -18.9446  -30.1438   23.8910 C   0  0  0  0  0  0
  -17.6452  -30.6580   24.0563 C   0  0  0  0  0  0
  -25.9036  -34.9475   23.5130 C   0  0  0  0  0  0
  -16.5343  -29.9082   23.6327 C   0  0  0  0  0  0
  -16.7259  -28.6495   23.0354 C   0  0  0  0  0  0
  -26.4473  -31.6590   25.0707 C   0  0  0  0  0  0
  -25.3746  -31.3693   26.1461 C   0  0  0  0  0  0
  -27.0295  -30.3032   24.6067 C   0  0  0  0  0  0
  -27.6064  -32.4291   25.7461 C   0  0  0  0  0  0
  -27.5580  -37.1808   24.8465 C   0  0  0  0  0  0
  -21.4135  -29.3022   22.3726 N   0  0  0  0  0  0
  -26.4296  -37.3792   23.9404 N   0  0  0  0  0  0
  -24.6677  -31.0783   22.0991 N   0  0  0  0  0  0
  -23.4180  -28.8212   23.3046 O   0  0  0  0  0  0
  -28.4037  -26.7003   20.0885 O   0  0  0  0  0  0
  -26.5599  -34.8927   22.4693 O   0  0  0  0  0  0
  -23.5339  -32.1428   23.7494 O   0  0  0  0  0  0
  -31.2650  -19.0098   21.0227 C   0  0  0  0  0  0
  -30.0953  -19.7122   21.3971 C   0  0  0  0  0  0
  -28.9426  -18.9492   21.7320 C   0  0  0  0  0  0
  -30.1603  -16.8364   21.2999 C   0  0  0  0  0  0
  -31.3162  -17.5985   20.9976 C   0  0  0  0  0  0
  -28.9874  -17.5333   21.6665 C   0  0  0  0  0  0
  -27.6438  -19.5921   22.1994 C   0  0  0  0  0  0
  -31.2939  -23.1781   19.2049 C   0  0  0  0  0  0
  -30.1700  -21.2471   21.5238 C   0  0  0  0  0  0
  -29.0799  -24.3838   19.5252 C   0  0  0  0  0  0
  -28.3429  -25.3242   20.5167 C   0  0  0  0  0  0
  -30.0818  -23.3520   20.1461 C   0  0  1  0  0  0
  -30.0666  -15.4024   21.3231 N   0  0  0  0  0  0
  -29.4819  -22.0137   20.4464 N   0  3  0  0  0  0
  -32.5081  -17.0197   20.7268 F   0  0  0  0  0  0
  -27.8793  -16.8166   21.9782 F   0  0  0  0  0  0
  -31.4675  -12.3980   19.1309 H   0  0  0  0  0  0
  -30.3190  -11.2931   19.8249 H   0  0  0  0  0  0
  -29.7351  -11.7867   17.4298 H   0  0  0  0  0  0
  -29.6719  -13.4971   17.7808 H   0  0  0  0  0  0
  -27.8207  -11.3212   18.8044 H   0  0  0  0  0  0
  -27.3720  -12.6630   17.7854 H   0  0  0  0  0  0
  -27.7081  -14.2615   19.5919 H   0  0  0  0  0  0
  -28.6762  -11.9411   21.3328 H   0  0  0  0  0  0
  -28.4541  -13.5666   21.8864 H   0  0  0  0  0  0
  -25.2771   -9.5676   22.4746 H   0  0  0  0  0  0
  -23.9984   -7.4652   22.7475 H   0  0  0  0  0  0
  -21.0834   -8.8799   19.8971 H   0  0  0  0  0  0
  -22.3696  -10.9688   19.6154 H   0  0  0  0  0  0
  -21.2022   -7.6145   23.9709 H   0  0  0  0  0  0
  -21.1457   -6.0526   25.9076 H   0  0  0  0  0  0
  -22.0608   -2.7597   23.2861 H   0  0  0  0  0  0
  -22.4121  -11.9927   22.4780 H   0  0  0  0  0  0
  -21.1145  -13.1322   22.2627 H   0  0  0  0  0  0
  -24.6792  -15.8526   20.5662 H   0  0  0  0  0  0
  -26.3288  -15.6354   20.2717 H   0  0  0  0  0  0
  -26.7118  -32.5539   23.1156 H   0  0  0  0  0  0
  -25.0049  -33.9774   25.0476 H   0  0  0  0  0  0
  -22.6901  -31.3069   21.4118 H   0  0  0  0  0  0
  -23.3737  -35.9662   23.3319 H   0  0  0  0  0  0
  -24.3582  -36.8900   22.2045 H   0  0  0  0  0  0
  -23.7258  -37.6535   23.6631 H   0  0  0  0  0  0
  -26.0381  -31.6007   20.5918 H   0  0  0  0  0  0
  -26.8196  -30.8907   21.9759 H   0  0  0  0  0  0
  -28.1042  -29.1091   21.1457 H   0  0  0  0  0  0
  -26.0555  -25.9649   19.0189 H   0  0  0  0  0  0
  -23.9757  -27.2883   19.0427 H   0  0  0  0  0  0
  -23.7169  -30.5980   19.4059 H   0  0  0  0  0  0
  -22.7327  -29.2433   19.8694 H   0  0  0  0  0  0
  -25.1281  -36.1978   25.0829 H   0  0  0  0  0  0
  -20.9947  -28.3219   24.1450 H   0  0  0  0  0  0
  -20.5670  -26.2265   23.3596 H   0  0  0  0  0  0
  -21.6634  -26.7441   22.1210 H   0  0  0  0  0  0
  -19.6909  -25.6299   21.1219 H   0  0  0  0  0  0
  -19.6685  -27.3207   20.6752 H   0  0  0  0  0  0
  -17.4192  -26.6669   21.4025 H   0  0  0  0  0  0
  -18.0325  -26.0049   22.9016 H   0  0  0  0  0  0
  -19.7928  -30.7248   24.2292 H   0  0  0  0  0  0
  -17.5007  -31.6266   24.5164 H   0  0  0  0  0  0
  -15.5342  -30.2989   23.7640 H   0  0  0  0  0  0
  -15.8660  -28.0813   22.7069 H   0  0  0  0  0  0
  -24.5937  -30.7014   25.7803 H   0  0  0  0  0  0
  -24.8918  -32.2848   26.4889 H   0  0  0  0  0  0
  -25.8111  -30.8884   27.0226 H   0  0  0  0  0  0
  -26.2829  -29.6791   24.1142 H   0  0  0  0  0  0
  -27.4094  -29.7262   25.4508 H   0  0  0  0  0  0
  -27.8649  -30.4349   23.9187 H   0  0  0  0  0  0
  -27.2714  -33.3595   26.2054 H   0  0  0  0  0  0
  -28.3869  -32.6835   25.0278 H   0  0  0  0  0  0
  -28.0735  -31.8395   26.5359 H   0  0  0  0  0  0
  -28.2609  -38.0095   24.7495 H   0  0  0  0  0  0
  -28.1064  -36.2625   24.6309 H   0  0  0  0  0  0
  -27.2298  -37.1475   25.8869 H   0  0  0  0  0  0
  -20.9296  -29.8739   21.6940 H   0  0  0  0  0  0
  -26.0185  -38.2871   24.1398 H   0  0  0  0  0  0
  -32.1713  -19.5527   20.7930 H   0  0  0  0  0  0
  -27.7281  -20.6516   22.4280 H   0  0  0  0  0  0
  -27.2989  -19.0984   23.1093 H   0  0  0  0  0  0
  -26.8685  -19.4694   21.4433 H   0  0  0  0  0  0
  -31.7748  -24.1357   19.0001 H   0  0  0  0  0  0
  -30.9968  -22.7545   18.2444 H   0  0  0  0  0  0
  -32.0596  -22.5312   19.6330 H   0  0  0  0  0  0
  -31.2254  -21.5208   21.5391 H   0  0  0  0  0  0
  -29.7935  -21.5647   22.4958 H   0  0  0  0  0  0
  -29.6472  -25.0373   18.8612 H   0  0  0  0  0  0
  -28.3656  -23.8918   18.8643 H   0  0  0  0  0  0
  -28.8190  -25.2901   21.4971 H   0  0  0  0  0  0
  -27.3258  -24.9658   20.6821 H   0  0  0  0  0  0
  -30.4581  -23.7755   21.0796 H   0  0  0  0  0  0
  -29.2107  -15.0682   21.7377 H   0  0  0  0  0  0
  -28.5218  -22.1283   20.7245 H   0  0  0  0  0  0
  -29.4859  -21.4583   19.6075 H   0  0  0  0  0  0
  1 25  1  0  0  0
  1 30  2  0  0  0
  1 83  1  0  0  0
  2  3  1  0  0  0
  2 25  1  0  0  0
  2 87  1  0  0  0
  2 88  1  0  0  0
  3  4  1  0  0  0
  3 89  1  0  0  0
  3 90  1  0  0  0
  4  5  1  0  0  0
  4 91  1  0  0  0
  4 92  1  0  0  0
  5  6  1  0  0  0
  5 26  1  0  0  0
  5 93  1  0  0  0
  6 25  1  0  0  0
  6 94  1  0  0  0
  6 95  1  0  0  0
  7  8  2  0  0  0
  7 26  1  0  0  0
  7 29  1  0  0  0
  8  9  1  0  0  0
  8 22  1  0  0  0
  9 10  1  0  0  0
  9 27  2  0  0  0
 10 11  2  0  0  0
 10 15  1  0  0  0
 11 12  1  0  0  0
 11 96  1  0  0  0
 12 13  2  0  0  0
 12 97  1  0  0  0
 13 14  1  0  0  0
 13 31  1  0  0  0
 14 15  2  0  0  0
 14 98  1  0  0  0
 15 99  1  0  0  0
 16 17  2  0  0  0
 16 21  1  0  0  0
 16 31  1  0  0  0
 17 18  1  0  0  0
 17100  1  0  0  0
 18 19  2  0  0  0
 18101  1  0  0  0
 19 20  1  0  0  0
 19 24  1  0  0  0
 20 21  2  0  0  0
 20102  1  0  0  0
 21 23  1  0  0  0
 22 28  1  0  0  0
 22 32  2  0  0  0
 26 27  1  0  0  0
 28103  1  0  0  0
 28104  1  0  0  0
 29105  1  0  0  0
 29106  1  0  0  0
 33 34  1  0  0  0
 33 66  1  0  0  0
 33 70  2  0  0  0
 34 36  1  0  0  0
 34 59  1  0  0  0
 34107  1  0  0  0
 35 44  2  0  0  0
 35 45  1  0  0  0
 35 68  1  0  0  0
 36 56  1  0  0  0
 36108  1  0  0  0
 37 39  1  0  0  0
 37 47  1  0  0  0
 37 66  1  0  0  0
 37109  1  0  0  0
 38 43  2  0  0  0
 38 46  1  0  0  0
 38 47  1  0  0  0
 39 64  1  0  0  0
 39 67  2  0  0  0
 40 52  1  0  0  0
 40 53  2  0  0  0
 40 58  1  0  0  0
 41110  1  0  0  0
 41111  1  0  0  0
 41112  1  0  0  0
 41 48  1  0  0  0
 42 43  1  0  0  0
 42 66  1  0  0  0
 42113  1  0  0  0
 42114  1  0  0  0
 43 44  1  0  0  0
 44115  1  0  0  0
 45 46  2  0  0  0
 45116  1  0  0  0
 46117  1  0  0  0
 47118  1  0  0  0
 47119  1  0  0  0
 48 56  1  0  0  0
 48 65  1  0  0  0
 48120  1  0  0  0
 49 50  1  0  0  0
 49 53  1  0  0  0
 49 64  1  0  0  0
 49121  1  0  0  0
 50 51  1  0  0  0
 50122  1  0  0  0
 50123  1  0  0  0
 51 52  1  0  0  0
 51124  1  0  0  0
 51125  1  0  0  0
 52126  1  0  0  0
 52127  1  0  0  0
 53 54  1  0  0  0
 54 55  2  0  0  0
 54128  1  0  0  0
 55 57  1  0  0  0
 55129  1  0  0  0
 56 69  2  0  0  0
 57 58  2  0  0  0
 57130  1  0  0  0
 58131  1  0  0  0
 59 60  1  0  0  0
 59 61  1  0  0  0
 59 62  1  0  0  0
 60132  1  0  0  0
 60133  1  0  0  0
 60134  1  0  0  0
 61135  1  0  0  0
 61136  1  0  0  0
 61137  1  0  0  0
 62138  1  0  0  0
 62139  1  0  0  0
 62140  1  0  0  0
 63 65  1  0  0  0
 63141  1  0  0  0
 63142  1  0  0  0
 63143  1  0  0  0
 64144  1  0  0  0
 65145  1  0  0  0
 68 81  1  0  0  0
 71 72  2  0  0  0
 71 75  1  0  0  0
 71146  1  0  0  0
 72 73  1  0  0  0
 72 79  1  0  0  0
 73 76  2  0  0  0
 73 77  1  0  0  0
 74 75  2  0  0  0
 74 76  1  0  0  0
 74 83  1  0  0  0
 75 85  1  0  0  0
 76 86  1  0  0  0
 77147  1  0  0  0
 77148  1  0  0  0
 77149  1  0  0  0
 78150  1  0  0  0
 78151  1  0  0  0
 78152  1  0  0  0
 78 82  1  0  0  0
 79 84  1  0  0  0
 79153  1  0  0  0
 79154  1  0  0  0
 80 81  1  0  0  0
 80 82  1  0  0  0
 80155  1  0  0  0
 80156  1  0  0  0
 81157  1  0  0  0
 81158  1  0  0  0
 82 84  1  0  0  0
 82159  1  0  0  0
 83160  1  0  0  0
 84161  1  0  0  0
 84162  1  0  0  0
M  CHG  1  84   1
M  ISO  4   1 100  68 101  81 101  83 100
M  END
> <chiral flag>
0

> <version>
0

> <s_m_source_file>
/data/baiqing/PycharmProjects/Reinvent-master-3.2/result/LINK_invent/BTK/process_docking_weight1_custom_sum_contain_oxygen_bond_distance_aromatic_linkinvent_7_9_3/rearranged_h_0028.sdf

> <i_m_source_file_index>
49

> <r_mmod_Potential_Energy-OPLS-2005>
-250.006484985352

> <r_mmod_Stretch_Energy-OPLS-2005>
42.6761322021484

> <r_mmod_Bend_Energy-OPLS-2005>
114.333053588867

> <r_mmod_Torsional_Energy-OPLS-2005>
245.728897094727

> <r_mmod_Improper_Torsional_Energy-OPLS-2005>
3.59588193893433

> <r_mmod_Van_der_Waal_Energy-OPLS-2005>
156.560974121094

> <r_mmod_Electrostatic_Energy-OPLS-2005>
-339.529907226562

> <r_mmod_Solvation_Energy-OPLS-2005>
-484.523040771484

> <b_mmod_Minimization_Converged-OPLS-2005>
0

> <r_mmod_RMS_Derivative-OPLS-2005>
2.25618100166321

$$$$
49
                    3D
 Structure written by MMmdl.
154162  0  0  1  0            999 V2000
  -30.4307  -15.2886   20.3609 C   0  0  0  0  0  0
  -30.4366  -12.8286   19.5175 C   0  0  0  0  0  0
  -29.5308  -12.5853   18.2837 C   0  0  0  0  0  0
  -28.0840  -12.2990   18.7195 C   0  0  0  0  0  0
  -27.6094  -13.2775   19.8222 C   0  0  2  0  0  0
  -28.6446  -13.4642   20.9528 C   0  0  0  0  0  0
  -25.2385  -13.8245   20.5782 C   0  0  0  0  0  0
  -24.1737  -13.0431   20.9276 C   0  0  0  0  0  0
  -24.6391  -11.6926   20.8771 C   0  0  0  0  0  0
  -23.9085  -10.4285   21.0407 C   0  0  0  0  0  0
  -24.3632   -9.4197   21.9181 C   0  0  0  0  0  0
  -23.6305   -8.2226   22.0749 C   0  0  0  0  0  0
  -22.4289   -8.0270   21.3540 C   0  0  0  0  0  0
  -21.9927   -9.0241   20.4638 C   0  0  0  0  0  0
  -22.7261  -10.2117   20.3049 C   0  0  0  0  0  0
  -21.6852   -6.0734   22.5281 C   0  0  0  0  0  0
  -21.4020   -6.5640   23.8215 C   0  0  0  0  0  0
  -21.3658   -5.6797   24.9178 C   0  0  0  0  0  0
  -21.6042   -4.3059   24.7227 C   0  0  0  0  0  0
  -21.8829   -3.8148   23.4354 C   0  0  0  0  0  0
  -21.9192   -4.6961   22.3406 C   0  0  0  0  0  0
  -22.7751  -13.5165   21.1920 C   0  0  0  0  0  0
  -22.1671   -4.2148   21.0982 F   0  0  0  0  0  0
  -21.5632   -3.4545   25.7739 F   0  0  0  0  0  0
  -29.8702  -13.9778   20.3205 N   0  0  0  0  0  0
  -26.2811  -12.9522   20.3242 N   0  0  0  0  0  0
  -25.9325  -11.6623   20.5724 N   0  0  0  0  0  0
  -22.0430  -12.8122   22.0471 N   0  0  0  0  0  0
  -25.4034  -15.1982   20.4228 N   0  0  0  0  0  0
  -31.6527  -15.2820   20.1495 O   0  0  0  0  0  0
  -21.6641   -6.8876   21.4240 O   0  0  0  0  0  0
  -22.3414  -14.5462   20.6780 O   0  0  0  0  0  0
  -24.6639  -31.8230   23.1695 C   0  0  0  0  0  0
  -25.9326  -32.4574   23.8157 C   0  0  1  0  0  0
  -27.2115  -26.9187   20.1880 C   0  0  0  0  0  0
  -25.6001  -33.8393   24.2073 N   0  0  0  0  0  0
  -23.4768  -30.4349   21.5206 C   0  0  2  0  0  0
  -24.9269  -28.8174   20.1153 C   0  0  0  0  0  0
  -22.7659  -29.4440   22.4793 C   0  0  0  0  0  0
  -18.0317  -28.1405   22.8465 C   0  0  0  0  0  0
  -24.1497  -36.7195   23.2639 C   0  0  0  0  0  0
  -26.0453  -30.6293   21.3962 C   0  0  0  0  0  0
  -26.1126  -29.2166   20.7447 C   0  0  0  0  0  0
  -27.2513  -28.2902   20.7505 C   0  0  0  0  0  0
  -25.9940  -26.6710   19.5153 C   0  0  0  0  0  0
  -24.8932  -27.5664   19.4795 C   0  0  0  0  0  0
  -23.7148  -29.7487   20.1476 C   0  0  0  0  0  0
  -25.4135  -36.2953   24.0295 C   0  0  1  0  0  0
  -20.5944  -28.3747   23.1187 C   0  0  2  0  0  0
  -20.6789  -26.9430   22.5400 C   0  0  0  0  0  0
  -19.5772  -26.6380   21.5207 C   0  0  0  0  0  0
  -18.1953  -26.7940   22.1615 C   0  0  0  0  0  0
  -19.1578  -28.8900   23.2810 C   0  0  0  0  0  0
  -18.9489  -30.1490   23.8842 C   0  0  0  0  0  0
  -17.6482  -30.6591   24.0555 C   0  0  0  0  0  0
  -25.9108  -34.9343   23.5000 C   0  0  0  0  0  0
  -16.5373  -29.9081   23.6345 C   0  0  0  0  0  0
  -16.7301  -28.6507   23.0359 C   0  0  0  0  0  0
  -26.4586  -31.6512   25.0682 C   0  0  0  0  0  0
  -25.3732  -31.3767   26.1359 C   0  0  0  0  0  0
  -27.0463  -30.2877   24.6397 C   0  0  0  0  0  0
  -27.6068  -32.4317   25.7495 C   0  0  0  0  0  0
  -27.5579  -37.1742   24.8454 C   0  0  0  0  0  0
  -21.4329  -29.3041   22.3541 N   0  0  0  0  0  0
  -26.4263  -37.3705   23.9426 N   0  0  0  0  0  0
  -24.7507  -30.9893   22.0833 N   0  0  0  0  0  0
  -23.4207  -28.8016   23.3033 O   0  0  0  0  0  0
  -28.2286  -25.8248   20.2247 O   0  0  0  0  0  0
  -26.5711  -34.8881   22.4592 O   0  0  0  0  0  0
  -23.5714  -32.1204   23.6800 O   0  0  0  0  0  0
  -31.2605  -23.3992   18.9571 C   0  0  0  0  0  0
  -29.6953  -21.4604   20.1853 C   0  0  0  0  0  0
  -31.1211  -21.4443   20.0983 C   0  0  0  0  0  0
  -29.2237  -22.9774   19.9867 C   0  0  0  0  0  0
  -33.2260  -21.1617   21.5504 C   0  0  0  0  0  0
  -29.1247  -19.8088   20.4418 C   0  0  0  0  0  0
  -32.0129  -20.4854   20.8780 C   0  0  0  0  0  0
  -28.0107  -24.1742   20.2856 C   0  0  0  0  0  0
  -30.0222  -18.2059   20.2869 C   0  0  0  0  0  0
  -31.8493  -22.3198   19.3950 N   0  0  0  0  0  0
  -30.0614  -23.7836   19.3061 N   0  0  0  0  0  0
  -29.6753  -16.5719   20.4355 N   0  0  0  0  0  0
  -31.4514  -13.0399   19.1778 H   0  0  0  0  0  0
  -30.5145  -11.9274   20.1274 H   0  0  0  0  0  0
  -29.9128  -11.7587   17.6833 H   0  0  0  0  0  0
  -29.5484  -13.4659   17.6397 H   0  0  0  0  0  0
  -28.0518  -11.2779   19.1016 H   0  0  0  0  0  0
  -27.4123  -12.3288   17.8605 H   0  0  0  0  0  0
  -27.5177  -14.2395   19.3161 H   0  0  0  0  0  0
  -28.8193  -12.5331   21.4942 H   0  0  0  0  0  0
  -28.2822  -14.1877   21.6843 H   0  0  0  0  0  0
  -25.2791   -9.5673   22.4737 H   0  0  0  0  0  0
  -24.0036   -7.4613   22.7453 H   0  0  0  0  0  0
  -21.0879   -8.8753   19.8915 H   0  0  0  0  0  0
  -22.3741  -10.9650   19.6147 H   0  0  0  0  0  0
  -21.1999   -7.6149   23.9718 H   0  0  0  0  0  0
  -21.1487   -6.0526   25.9081 H   0  0  0  0  0  0
  -22.0597   -2.7606   23.2854 H   0  0  0  0  0  0
  -22.4110  -11.9805   22.4858 H   0  0  0  0  0  0
  -21.1019  -13.1068   22.2646 H   0  0  0  0  0  0
  -24.6344  -15.8516   20.5308 H   0  0  0  0  0  0
  -26.2463  -15.6378   20.0764 H   0  0  0  0  0  0
  -26.7396  -32.5117   23.0868 H   0  0  0  0  0  0
  -25.0127  -33.9471   25.0207 H   0  0  0  0  0  0
  -22.7897  -31.2670   21.3502 H   0  0  0  0  0  0
  -23.3786  -35.9494   23.3214 H   0  0  0  0  0  0
  -24.3591  -36.8934   22.2073 H   0  0  0  0  0  0
  -23.7220  -37.6342   23.6753 H   0  0  0  0  0  0
  -26.2178  -31.3681   20.6122 H   0  0  0  0  0  0
  -26.9088  -30.6925   22.0465 H   0  0  0  0  0  0
  -28.1534  -28.5972   21.2604 H   0  0  0  0  0  0
  -25.8624  -25.7175   19.0248 H   0  0  0  0  0  0
  -23.9927  -27.2571   18.9665 H   0  0  0  0  0  0
  -23.8681  -30.5166   19.3879 H   0  0  0  0  0  0
  -22.8234  -29.2040   19.8317 H   0  0  0  0  0  0
  -25.1326  -36.1728   25.0781 H   0  0  0  0  0  0
  -21.0022  -28.3353   24.1313 H   0  0  0  0  0  0
  -20.5659  -26.2365   23.3640 H   0  0  0  0  0  0
  -21.6657  -26.7398   22.1217 H   0  0  0  0  0  0
  -19.6927  -25.6285   21.1259 H   0  0  0  0  0  0
  -19.6708  -27.3169   20.6724 H   0  0  0  0  0  0
  -17.4218  -26.6678   21.4020 H   0  0  0  0  0  0
  -18.0347  -26.0090   22.9020 H   0  0  0  0  0  0
  -19.7965  -30.7323   24.2177 H   0  0  0  0  0  0
  -17.5035  -31.6265   24.5173 H   0  0  0  0  0  0
  -15.5374  -30.2964   23.7699 H   0  0  0  0  0  0
  -15.8701  -28.0811   22.7090 H   0  0  0  0  0  0
  -24.5922  -30.7096   25.7691 H   0  0  0  0  0  0
  -24.8926  -32.2974   26.4668 H   0  0  0  0  0  0
  -25.8000  -30.9026   27.0205 H   0  0  0  0  0  0
  -26.3123  -29.6564   24.1377 H   0  0  0  0  0  0
  -27.3968  -29.7219   25.5035 H   0  0  0  0  0  0
  -27.9073  -30.4039   23.9811 H   0  0  0  0  0  0
  -27.2630  -33.3656   26.1941 H   0  0  0  0  0  0
  -28.3961  -32.6809   25.0392 H   0  0  0  0  0  0
  -28.0644  -31.8532   26.5527 H   0  0  0  0  0  0
  -28.2512  -38.0115   24.7577 H   0  0  0  0  0  0
  -28.1153  -36.2645   24.6172 H   0  0  0  0  0  0
  -27.2310  -37.1253   25.8855 H   0  0  0  0  0  0
  -20.9578  -29.8741   21.6681 H   0  0  0  0  0  0
  -26.0096  -38.2737   24.1505 H   0  0  0  0  0  0
  -31.8565  -24.0959   18.3881 H   0  0  0  0  0  0
  -33.7686  -20.4538   22.1756 H   0  0  0  0  0  0
  -32.9111  -21.9940   22.1803 H   0  0  0  0  0  0
  -33.9314  -21.5497   20.8139 H   0  0  0  0  0  0
  -28.2698  -19.7260   19.7702 H   0  0  0  0  0  0
  -28.6800  -19.8145   21.4369 H   0  0  0  0  0  0
  -32.3493  -19.6744   20.2325 H   0  0  0  0  0  0
  -31.4325  -20.0800   21.7042 H   0  0  0  0  0  0
  -27.6082  -23.9571   21.2745 H   0  0  0  0  0  0
  -27.2003  -23.9378   19.5976 H   0  0  0  0  0  0
  -30.8251  -18.2283   21.0147 H   0  0  0  0  0  0
  -30.5156  -18.2560   19.3158 H   0  0  0  0  0  0
  -28.6918  -16.4019   20.5969 H   0  0  0  0  0  0
  1 25  1  0  0  0
  1 30  2  0  0  0
  1 82  1  0  0  0
  2  3  1  0  0  0
  2 25  1  0  0  0
  2 83  1  0  0  0
  2 84  1  0  0  0
  3  4  1  0  0  0
  3 85  1  0  0  0
  3 86  1  0  0  0
  4  5  1  0  0  0
  4 87  1  0  0  0
  4 88  1  0  0  0
  5  6  1  0  0  0
  5 26  1  0  0  0
  5 89  1  0  0  0
  6 25  1  0  0  0
  6 90  1  0  0  0
  6 91  1  0  0  0
  7  8  2  0  0  0
  7 26  1  0  0  0
  7 29  1  0  0  0
  8  9  1  0  0  0
  8 22  1  0  0  0
  9 10  1  0  0  0
  9 27  2  0  0  0
 10 11  2  0  0  0
 10 15  1  0  0  0
 11 12  1  0  0  0
 11 92  1  0  0  0
 12 13  2  0  0  0
 12 93  1  0  0  0
 13 14  1  0  0  0
 13 31  1  0  0  0
 14 15  2  0  0  0
 14 94  1  0  0  0
 15 95  1  0  0  0
 16 17  2  0  0  0
 16 21  1  0  0  0
 16 31  1  0  0  0
 17 18  1  0  0  0
 17 96  1  0  0  0
 18 19  2  0  0  0
 18 97  1  0  0  0
 19 20  1  0  0  0
 19 24  1  0  0  0
 20 21  2  0  0  0
 20 98  1  0  0  0
 21 23  1  0  0  0
 22 28  1  0  0  0
 22 32  2  0  0  0
 26 27  1  0  0  0
 28 99  1  0  0  0
 28100  1  0  0  0
 29101  1  0  0  0
 29102  1  0  0  0
 33 34  1  0  0  0
 33 66  1  0  0  0
 33 70  2  0  0  0
 34 36  1  0  0  0
 34 59  1  0  0  0
 34103  1  0  0  0
 35 44  2  0  0  0
 35 45  1  0  0  0
 35 68  1  0  0  0
 36 56  1  0  0  0
 36104  1  0  0  0
 37 39  1  0  0  0
 37 47  1  0  0  0
 37 66  1  0  0  0
 37105  1  0  0  0
 38 43  2  0  0  0
 38 46  1  0  0  0
 38 47  1  0  0  0
 39 64  1  0  0  0
 39 67  2  0  0  0
 40 52  1  0  0  0
 40 53  2  0  0  0
 40 58  1  0  0  0
 41106  1  0  0  0
 41107  1  0  0  0
 41108  1  0  0  0
 41 48  1  0  0  0
 42 43  1  0  0  0
 42 66  1  0  0  0
 42109  1  0  0  0
 42110  1  0  0  0
 43 44  1  0  0  0
 44111  1  0  0  0
 45 46  2  0  0  0
 45112  1  0  0  0
 46113  1  0  0  0
 47114  1  0  0  0
 47115  1  0  0  0
 48 56  1  0  0  0
 48 65  1  0  0  0
 48116  1  0  0  0
 49 50  1  0  0  0
 49 53  1  0  0  0
 49 64  1  0  0  0
 49117  1  0  0  0
 50 51  1  0  0  0
 50118  1  0  0  0
 50119  1  0  0  0
 51 52  1  0  0  0
 51120  1  0  0  0
 51121  1  0  0  0
 52122  1  0  0  0
 52123  1  0  0  0
 53 54  1  0  0  0
 54 55  2  0  0  0
 54124  1  0  0  0
 55 57  1  0  0  0
 55125  1  0  0  0
 56 69  2  0  0  0
 57 58  2  0  0  0
 57126  1  0  0  0
 58127  1  0  0  0
 59 60  1  0  0  0
 59 61  1  0  0  0
 59 62  1  0  0  0
 60128  1  0  0  0
 60129  1  0  0  0
 60130  1  0  0  0
 61131  1  0  0  0
 61132  1  0  0  0
 61133  1  0  0  0
 62134  1  0  0  0
 62135  1  0  0  0
 62136  1  0  0  0
 63 65  1  0  0  0
 63137  1  0  0  0
 63138  1  0  0  0
 63139  1  0  0  0
 64140  1  0  0  0
 65141  1  0  0  0
 68 78  1  0  0  0
 71 80  2  0  0  0
 71 81  1  0  0  0
 71142  1  0  0  0
 72 73  2  0  0  0
 72 74  1  0  0  0
 72 76  1  0  0  0
 73 77  1  0  0  0
 73 80  1  0  0  0
 74 78  1  0  0  0
 74 81  2  0  0  0
 75 77  1  0  0  0
 75143  1  0  0  0
 75144  1  0  0  0
 75145  1  0  0  0
 76 79  1  0  0  0
 76146  1  0  0  0
 76147  1  0  0  0
 77148  1  0  0  0
 77149  1  0  0  0
 78150  1  0  0  0
 78151  1  0  0  0
 79 82  1  0  0  0
 79152  1  0  0  0
 79153  1  0  0  0
 82154  1  0  0  0
M  ISO  4   1 100  68 101  78 101  82 100
M  END
> <chiral flag>
0

> <version>
0

> <s_m_source_file>
/data/baiqing/PycharmProjects/Reinvent-master-3.2/result/LINK_invent/BTK/process_docking_weight1_custom_sum_contain_oxygen_bond_distance_aromatic_linkinvent_7_9_3/rearranged_h_0028.sdf

> <i_m_source_file_index>
50

> <r_mmod_Potential_Energy-OPLS-2005>
1074.93298339844

> <r_mmod_Stretch_Energy-OPLS-2005>
669.59130859375

> <r_mmod_Bend_Energy-OPLS-2005>
528.809143066406

> <r_mmod_Torsional_Energy-OPLS-2005>
268.729431152344

> <r_mmod_Improper_Torsional_Energy-OPLS-2005>
4.28614330291748

> <r_mmod_Van_der_Waal_Energy-OPLS-2005>
148.595794677734

> <r_mmod_Electrostatic_Energy-OPLS-2005>
-772.896362304688

> <r_mmod_Solvation_Energy-OPLS-2005>
-245.192031860352

> <b_mmod_Minimization_Converged-OPLS-2005>
0

> <r_mmod_RMS_Derivative-OPLS-2005>
1.73324429988861

$$$$
50
                    3D
 Structure written by MMmdl.
156164  0  0  1  0            999 V2000
  -30.5402  -14.8419   20.4382 C   0  0  0  0  0  0
  -30.4472  -12.5144   19.4787 C   0  0  0  0  0  0
  -29.5208  -12.5288   18.2396 C   0  0  0  0  0  0
  -28.0501  -12.3252   18.6546 C   0  0  0  0  0  0
  -27.6414  -13.2300   19.8476 C   0  0  2  0  0  0
  -28.6854  -13.1772   20.9846 C   0  0  0  0  0  0
  -25.2507  -13.8179   20.5670 C   0  0  0  0  0  0
  -24.1807  -13.0439   20.9216 C   0  0  0  0  0  0
  -24.6408  -11.6915   20.8786 C   0  0  0  0  0  0
  -23.9090  -10.4283   21.0440 C   0  0  0  0  0  0
  -24.3639   -9.4179   21.9203 C   0  0  0  0  0  0
  -23.6300   -8.2229   22.0757 C   0  0  0  0  0  0
  -22.4279   -8.0290   21.3556 C   0  0  0  0  0  0
  -21.9931   -9.0267   20.4658 C   0  0  0  0  0  0
  -22.7270  -10.2139   20.3072 C   0  0  0  0  0  0
  -21.6838   -6.0747   22.5281 C   0  0  0  0  0  0
  -21.4001   -6.5650   23.8214 C   0  0  0  0  0  0
  -21.3654   -5.6809   24.9181 C   0  0  0  0  0  0
  -21.6038   -4.3070   24.7232 C   0  0  0  0  0  0
  -21.8819   -3.8159   23.4355 C   0  0  0  0  0  0
  -21.9179   -4.6974   22.3408 C   0  0  0  0  0  0
  -22.7821  -13.5219   21.1871 C   0  0  0  0  0  0
  -22.1653   -4.2163   21.0987 F   0  0  0  0  0  0
  -21.5630   -3.4554   25.7741 F   0  0  0  0  0  0
  -29.9780  -13.5753   20.4059 N   0  0  0  0  0  0
  -26.2929  -12.9388   20.3242 N   0  0  0  0  0  0
  -25.9320  -11.6544   20.5745 N   0  0  0  0  0  0
  -22.0469  -12.8206   22.0431 N   0  0  0  0  0  0
  -25.4179  -15.1905   20.4042 N   0  0  0  0  0  0
  -31.7241  -14.9812   20.1161 O   0  0  0  0  0  0
  -21.6642   -6.8893   21.4244 O   0  0  0  0  0  0
  -22.3497  -14.5525   20.6702 O   0  0  0  0  0  0
  -24.6390  -31.8495   23.1894 C   0  0  0  0  0  0
  -25.9174  -32.4720   23.8279 C   0  0  1  0  0  0
  -27.2222  -27.1856   20.1276 C   0  0  0  0  0  0
  -25.5925  -33.8526   24.2176 N   0  0  0  0  0  0
  -23.4392  -30.4707   21.5359 C   0  0  2  0  0  0
  -24.8866  -28.9048   20.1127 C   0  0  0  0  0  0
  -22.7515  -29.4594   22.4883 C   0  0  0  0  0  0
  -18.0270  -28.1386   22.8511 C   0  0  0  0  0  0
  -24.1486  -36.7263   23.2645 C   0  0  0  0  0  0
  -25.9928  -30.7389   21.3789 C   0  0  0  0  0  0
  -26.0656  -29.3546   20.7195 C   0  0  0  0  0  0
  -27.2353  -28.5121   20.7087 C   0  0  0  0  0  0
  -26.0102  -26.8256   19.4932 C   0  0  0  0  0  0
  -24.8680  -27.6504   19.4882 C   0  0  0  0  0  0
  -23.6630  -29.8019   20.1552 C   0  0  0  0  0  0
  -25.4120  -36.3034   24.0306 C   0  0  1  0  0  0
  -20.5905  -28.3667   23.1185 C   0  0  2  0  0  0
  -20.6716  -26.9383   22.5318 C   0  0  0  0  0  0
  -19.5650  -26.6386   21.5156 C   0  0  0  0  0  0
  -18.1869  -26.7916   22.1660 C   0  0  0  0  0  0
  -19.1556  -28.8853   23.2840 C   0  0  0  0  0  0
  -18.9517  -30.1476   23.8810 C   0  0  0  0  0  0
  -17.6514  -30.6596   24.0523 C   0  0  0  0  0  0
  -25.9074  -34.9419   23.5045 C   0  0  0  0  0  0
  -16.5385  -29.9095   23.6388 C   0  0  0  0  0  0
  -16.7270  -28.6509   23.0422 C   0  0  0  0  0  0
  -26.4493  -31.6575   25.0704 C   0  0  0  0  0  0
  -25.3664  -31.3786   26.1385 C   0  0  0  0  0  0
  -27.0343  -30.2968   24.6258 C   0  0  0  0  0  0
  -27.6025  -32.4332   25.7499 C   0  0  0  0  0  0
  -27.5571  -37.1785   24.8469 C   0  0  0  0  0  0
  -21.4230  -29.2980   22.3527 N   0  0  0  0  0  0
  -26.4283  -37.3742   23.9406 N   0  0  0  0  0  0
  -24.7113  -31.0393   22.0911 N   0  0  0  0  0  0
  -23.4156  -28.8223   23.3094 O   0  0  0  0  0  0
  -28.2917  -26.2296   20.1792 O   0  0  0  0  0  0
  -26.5684  -34.8917   22.4641 O   0  0  0  0  0  0
  -23.5514  -32.1358   23.7128 O   0  0  0  0  0  0
  -30.1775  -18.4093   21.3506 C   0  0  0  0  0  0
  -29.8623  -19.8277   21.2676 C   0  0  0  0  0  0
  -29.0126  -20.3989   20.2591 C   0  0  0  0  0  0
  -28.5816  -19.4107   19.2961 C   0  0  0  0  0  0
  -29.6752  -17.4162   20.4466 C   0  0  0  0  0  0
  -28.8760  -17.9891   19.4068 C   0  0  0  0  0  0
  -30.3954  -20.7499   22.3482 C   0  0  0  0  0  0
  -27.6969  -19.8615   18.1368 C   0  0  0  0  0  0
  -28.3317  -21.8960   20.3514 C   0  0  0  0  0  0
  -28.9873  -23.4139   20.2497 C   0  0  0  0  0  0
  -27.9862  -24.7273   20.0365 C   0  0  0  0  0  0
  -29.6871  -15.9229   20.6963 N   0  0  0  0  0  0
  -28.1557  -16.8767   18.2871 Cl  0  0  0  0  0  0
  -31.4839  -12.6703   19.1760 H   0  0  0  0  0  0
  -30.4208  -11.5379   19.9664 H   0  0  0  0  0  0
  -29.8226  -11.7552   17.5306 H   0  0  0  0  0  0
  -29.6209  -13.4802   17.7141 H   0  0  0  0  0  0
  -27.9274  -11.2760   18.9288 H   0  0  0  0  0  0
  -27.3879  -12.4993   17.8047 H   0  0  0  0  0  0
  -27.6288  -14.2483   19.4601 H   0  0  0  0  0  0
  -28.7444  -12.1738   21.4117 H   0  0  0  0  0  0
  -28.3964  -13.8379   21.8048 H   0  0  0  0  0  0
  -25.2789   -9.5650   22.4772 H   0  0  0  0  0  0
  -24.0010   -7.4614   22.7455 H   0  0  0  0  0  0
  -21.0871   -8.8789   19.8958 H   0  0  0  0  0  0
  -22.3738  -10.9684   19.6183 H   0  0  0  0  0  0
  -21.1995   -7.6156   23.9726 H   0  0  0  0  0  0
  -21.1476   -6.0537   25.9089 H   0  0  0  0  0  0
  -22.0605   -2.7620   23.2844 H   0  0  0  0  0  0
  -22.4108  -11.9873   22.4808 H   0  0  0  0  0  0
  -21.1068  -13.1185   22.2651 H   0  0  0  0  0  0
  -24.6398  -15.8324   20.5043 H   0  0  0  0  0  0
  -26.2367  -15.6258   20.0000 H   0  0  0  0  0  0
  -26.7269  -32.5337   23.1047 H   0  0  0  0  0  0
  -24.9992  -33.9665   25.0263 H   0  0  0  0  0  0
  -22.7391  -31.2946   21.3813 H   0  0  0  0  0  0
  -23.3734  -35.9605   23.3300 H   0  0  0  0  0  0
  -24.3590  -36.8905   22.2066 H   0  0  0  0  0  0
  -23.7264  -37.6466   23.6690 H   0  0  0  0  0  0
  -26.1417  -31.4947   20.6052 H   0  0  0  0  0  0
  -26.8665  -30.7905   22.0175 H   0  0  0  0  0  0
  -28.1365  -28.8615   21.1934 H   0  0  0  0  0  0
  -25.9010  -25.8710   19.0035 H   0  0  0  0  0  0
  -23.9667  -27.2986   19.0052 H   0  0  0  0  0  0
  -23.7979  -30.5771   19.4005 H   0  0  0  0  0  0
  -22.7775  -29.2443   19.8475 H   0  0  0  0  0  0
  -25.1308  -36.1862   25.0796 H   0  0  0  0  0  0
  -21.0030  -28.3208   24.1288 H   0  0  0  0  0  0
  -20.5653  -26.2277   23.3520 H   0  0  0  0  0  0
  -21.6552  -26.7343   22.1086 H   0  0  0  0  0  0
  -19.6757  -25.6328   21.1104 H   0  0  0  0  0  0
  -19.6544  -27.3195   20.6664 H   0  0  0  0  0  0
  -17.4047  -26.6635   21.4163 H   0  0  0  0  0  0
  -18.0345  -26.0086   22.9093 H   0  0  0  0  0  0
  -19.8022  -30.7325   24.2042 H   0  0  0  0  0  0
  -17.5106  -31.6316   24.5064 H   0  0  0  0  0  0
  -15.5400  -30.3004   23.7789 H   0  0  0  0  0  0
  -15.8631  -28.0823   22.7237 H   0  0  0  0  0  0
  -24.5848  -30.7128   25.7709 H   0  0  0  0  0  0
  -24.8835  -32.2976   26.4713 H   0  0  0  0  0  0
  -25.7920  -30.9033   27.0231 H   0  0  0  0  0  0
  -26.2956  -29.6721   24.1217 H   0  0  0  0  0  0
  -27.3924  -29.7241   25.4828 H   0  0  0  0  0  0
  -27.8875  -30.4217   23.9583 H   0  0  0  0  0  0
  -27.2612  -33.3658   26.2017 H   0  0  0  0  0  0
  -28.3866  -32.6858   25.0343 H   0  0  0  0  0  0
  -28.0639  -31.8489   26.5476 H   0  0  0  0  0  0
  -28.2572  -38.0090   24.7478 H   0  0  0  0  0  0
  -28.1066  -36.2614   24.6304 H   0  0  0  0  0  0
  -27.2296  -37.1450   25.8875 H   0  0  0  0  0  0
  -20.9506  -29.8396   21.6416 H   0  0  0  0  0  0
  -26.0133  -38.2804   24.1393 H   0  0  0  0  0  0
  -30.7575  -18.0623   22.1937 H   0  0  0  0  0  0
  -31.0314  -20.2188   23.0543 H   0  0  0  0  0  0
  -29.5768  -21.1996   22.9092 H   0  0  0  0  0  0
  -30.9852  -21.5546   21.9060 H   0  0  0  0  0  0
  -26.6452  -19.8084   18.4238 H   0  0  0  0  0  0
  -27.8337  -19.2467   17.2493 H   0  0  0  0  0  0
  -27.9310  -20.8791   17.8248 H   0  0  0  0  0  0
  -27.8204  -21.8812   21.3140 H   0  0  0  0  0  0
  -27.4920  -21.9120   19.6623 H   0  0  0  0  0  0
  -29.7087  -23.4176   19.4335 H   0  0  0  0  0  0
  -29.5751  -23.5757   21.1547 H   0  0  0  0  0  0
  -27.1306  -24.5444   20.6871 H   0  0  0  0  0  0
  -27.6115  -24.6009   19.0205 H   0  0  0  0  0  0
  -28.7625  -15.5717   20.8892 H   0  0  0  0  0  0
  1 25  1  0  0  0
  1 30  2  0  0  0
  1 82  1  0  0  0
  2  3  1  0  0  0
  2 25  1  0  0  0
  2 84  1  0  0  0
  2 85  1  0  0  0
  3  4  1  0  0  0
  3 86  1  0  0  0
  3 87  1  0  0  0
  4  5  1  0  0  0
  4 88  1  0  0  0
  4 89  1  0  0  0
  5  6  1  0  0  0
  5 26  1  0  0  0
  5 90  1  0  0  0
  6 25  1  0  0  0
  6 91  1  0  0  0
  6 92  1  0  0  0
  7  8  2  0  0  0
  7 26  1  0  0  0
  7 29  1  0  0  0
  8  9  1  0  0  0
  8 22  1  0  0  0
  9 10  1  0  0  0
  9 27  2  0  0  0
 10 11  2  0  0  0
 10 15  1  0  0  0
 11 12  1  0  0  0
 11 93  1  0  0  0
 12 13  2  0  0  0
 12 94  1  0  0  0
 13 14  1  0  0  0
 13 31  1  0  0  0
 14 15  2  0  0  0
 14 95  1  0  0  0
 15 96  1  0  0  0
 16 17  2  0  0  0
 16 21  1  0  0  0
 16 31  1  0  0  0
 17 18  1  0  0  0
 17 97  1  0  0  0
 18 19  2  0  0  0
 18 98  1  0  0  0
 19 20  1  0  0  0
 19 24  1  0  0  0
 20 21  2  0  0  0
 20 99  1  0  0  0
 21 23  1  0  0  0
 22 28  1  0  0  0
 22 32  2  0  0  0
 26 27  1  0  0  0
 28100  1  0  0  0
 28101  1  0  0  0
 29102  1  0  0  0
 29103  1  0  0  0
 33 34  1  0  0  0
 33 66  1  0  0  0
 33 70  2  0  0  0
 34 36  1  0  0  0
 34 59  1  0  0  0
 34104  1  0  0  0
 35 44  2  0  0  0
 35 45  1  0  0  0
 35 68  1  0  0  0
 36 56  1  0  0  0
 36105  1  0  0  0
 37 39  1  0  0  0
 37 47  1  0  0  0
 37 66  1  0  0  0
 37106  1  0  0  0
 38 43  2  0  0  0
 38 46  1  0  0  0
 38 47  1  0  0  0
 39 64  1  0  0  0
 39 67  2  0  0  0
 40 52  1  0  0  0
 40 53  2  0  0  0
 40 58  1  0  0  0
 41107  1  0  0  0
 41108  1  0  0  0
 41109  1  0  0  0
 41 48  1  0  0  0
 42 43  1  0  0  0
 42 66  1  0  0  0
 42110  1  0  0  0
 42111  1  0  0  0
 43 44  1  0  0  0
 44112  1  0  0  0
 45 46  2  0  0  0
 45113  1  0  0  0
 46114  1  0  0  0
 47115  1  0  0  0
 47116  1  0  0  0
 48 56  1  0  0  0
 48 65  1  0  0  0
 48117  1  0  0  0
 49 50  1  0  0  0
 49 53  1  0  0  0
 49 64  1  0  0  0
 49118  1  0  0  0
 50 51  1  0  0  0
 50119  1  0  0  0
 50120  1  0  0  0
 51 52  1  0  0  0
 51121  1  0  0  0
 51122  1  0  0  0
 52123  1  0  0  0
 52124  1  0  0  0
 53 54  1  0  0  0
 54 55  2  0  0  0
 54125  1  0  0  0
 55 57  1  0  0  0
 55126  1  0  0  0
 56 69  2  0  0  0
 57 58  2  0  0  0
 57127  1  0  0  0
 58128  1  0  0  0
 59 60  1  0  0  0
 59 61  1  0  0  0
 59 62  1  0  0  0
 60129  1  0  0  0
 60130  1  0  0  0
 60131  1  0  0  0
 61132  1  0  0  0
 61133  1  0  0  0
 61134  1  0  0  0
 62135  1  0  0  0
 62136  1  0  0  0
 62137  1  0  0  0
 63 65  1  0  0  0
 63138  1  0  0  0
 63139  1  0  0  0
 63140  1  0  0  0
 64141  1  0  0  0
 65142  1  0  0  0
 68 81  1  0  0  0
 71 72  2  0  0  0
 71 75  1  0  0  0
 71143  1  0  0  0
 72 73  1  0  0  0
 72 77  1  0  0  0
 73 74  2  0  0  0
 73 79  1  0  0  0
 74 76  1  0  0  0
 74 78  1  0  0  0
 75 76  2  0  0  0
 75 82  1  0  0  0
 76 83  1  0  0  0
 77144  1  0  0  0
 77145  1  0  0  0
 77146  1  0  0  0
 78147  1  0  0  0
 78148  1  0  0  0
 78149  1  0  0  0
 79 80  1  0  0  0
 79150  1  0  0  0
 79151  1  0  0  0
 80 81  1  0  0  0
 80152  1  0  0  0
 80153  1  0  0  0
 81154  1  0  0  0
 81155  1  0  0  0
 82156  1  0  0  0
M  ISO  4   1 100  68 101  81 101  82 100
M  END
> <chiral flag>
0

> <version>
0

> <s_m_source_file>
/data/baiqing/PycharmProjects/Reinvent-master-3.2/result/LINK_invent/BTK/process_docking_weight1_custom_sum_contain_oxygen_bond_distance_aromatic_linkinvent_7_9_3/rearranged_h_0028.sdf

> <i_m_source_file_index>
51

> <r_mmod_Potential_Energy-OPLS-2005>
355.494537353516

> <r_mmod_Stretch_Energy-OPLS-2005>
191.926330566406

> <r_mmod_Bend_Energy-OPLS-2005>
229.642791748047

> <r_mmod_Torsional_Energy-OPLS-2005>
254.714202880859

> <r_mmod_Improper_Torsional_Energy-OPLS-2005>
9.07382106781006

> <r_mmod_Van_der_Waal_Energy-OPLS-2005>
137.640350341797

> <r_mmod_Electrostatic_Energy-OPLS-2005>
-402.207550048828

> <r_mmod_Solvation_Energy-OPLS-2005>
-201.464630126953

> <b_mmod_Minimization_Converged-OPLS-2005>
0

> <r_mmod_RMS_Derivative-OPLS-2005>
3.07472133636475

$$$$
51
                    3D
 Structure written by MMmdl.
171179  0  0  1  0            999 V2000
  -30.7223  -14.4712   20.4654 C   0  0  0  0  0  0
  -30.4088  -12.2688   19.4146 C   0  0  0  0  0  0
  -29.4767  -12.4173   18.1977 C   0  0  0  0  0  0
  -28.0178  -12.2212   18.6499 C   0  0  0  0  0  0
  -27.6559  -13.1397   19.8420 C   0  0  2  0  0  0
  -28.7101  -12.9790   20.9695 C   0  0  0  0  0  0
  -25.2570  -13.7918   20.5461 C   0  0  0  0  0  0
  -24.1837  -13.0355   20.9103 C   0  0  0  0  0  0
  -24.6348  -11.6820   20.8760 C   0  0  0  0  0  0
  -23.9004  -10.4295   21.0443 C   0  0  0  0  0  0
  -24.3620   -9.4230   21.9187 C   0  0  0  0  0  0
  -23.6331   -8.2269   22.0761 C   0  0  0  0  0  0
  -22.4315   -8.0319   21.3545 C   0  0  0  0  0  0
  -21.9910   -9.0296   20.4653 C   0  0  0  0  0  0
  -22.7208  -10.2174   20.3065 C   0  0  0  0  0  0
  -21.6895   -6.0775   22.5292 C   0  0  0  0  0  0
  -21.4046   -6.5692   23.8221 C   0  0  0  0  0  0
  -21.3629   -5.6833   24.9167 C   0  0  0  0  0  0
  -21.5992   -4.3095   24.7207 C   0  0  0  0  0  0
  -21.8853   -3.8195   23.4348 C   0  0  0  0  0  0
  -21.9238   -4.7005   22.3404 C   0  0  0  0  0  0
  -22.7883  -13.5256   21.1711 C   0  0  0  0  0  0
  -22.1707   -4.2218   21.0960 F   0  0  0  0  0  0
  -21.5580   -3.4565   25.7696 F   0  0  0  0  0  0
  -30.0246  -13.3066   20.3978 N   0  0  0  0  0  0
  -26.3011  -12.9024   20.3321 N   0  0  0  0  0  0
  -25.9223  -11.6265   20.5801 N   0  0  0  0  0  0
  -22.0522  -12.8354   22.0326 N   0  0  0  0  0  0
  -25.4085  -15.1541   20.3546 N   0  0  0  0  0  0
  -31.8840  -14.5178   20.0362 O   0  0  0  0  0  0
  -21.6687   -6.8919   21.4253 O   0  0  0  0  0  0
  -22.3605  -14.5574   20.6496 O   0  0  0  0  0  0
  -24.6119  -31.8705   23.2186 C   0  0  0  0  0  0
  -25.9027  -32.4872   23.8376 C   0  0  1  0  0  0
  -27.1323  -27.4089   20.1277 C   0  0  0  0  0  0
  -25.5912  -33.8725   24.2325 N   0  0  0  0  0  0
  -23.4144  -30.5038   21.5481 C   0  0  2  0  0  0
  -24.8824  -29.0270   20.0690 C   0  0  0  0  0  0
  -22.7461  -29.4719   22.4957 C   0  0  0  0  0  0
  -18.0400  -28.1499   22.8430 C   0  0  0  0  0  0
  -24.1483  -36.7322   23.2607 C   0  0  0  0  0  0
  -25.9593  -30.8287   21.4201 C   0  0  0  0  0  0
  -26.0251  -29.4779   20.7457 C   0  0  0  0  0  0
  -27.1501  -28.6339   20.8367 C   0  0  0  0  0  0
  -26.1076  -27.1206   19.2280 C   0  0  0  0  0  0
  -24.9106  -27.8442   19.3161 C   0  0  0  0  0  0
  -23.6414  -29.8737   20.1541 C   0  0  0  0  0  0
  -25.4099  -36.3187   24.0329 C   0  0  1  0  0  0
  -20.6044  -28.3581   23.1113 C   0  0  2  0  0  0
  -20.7396  -26.9474   22.4784 C   0  0  0  0  0  0
  -19.5767  -26.6487   21.5242 C   0  0  0  0  0  0
  -18.2129  -26.7627   22.2154 C   0  0  0  0  0  0
  -19.1727  -28.8697   23.2899 C   0  0  0  0  0  0
  -18.9891  -30.1086   23.9483 C   0  0  0  0  0  0
  -17.7110  -30.6410   24.1231 C   0  0  0  0  0  0
  -25.9048  -34.9532   23.5101 C   0  0  0  0  0  0
  -16.5892  -29.9595   23.6483 C   0  0  0  0  0  0
  -16.7370  -28.7127   23.0190 C   0  0  0  0  0  0
  -26.4438  -31.6678   25.0721 C   0  0  0  0  0  0
  -25.3643  -31.3875   26.1437 C   0  0  0  0  0  0
  -27.0296  -30.3095   24.6184 C   0  0  0  0  0  0
  -27.6056  -32.4336   25.7416 C   0  0  0  0  0  0
  -27.5612  -37.1823   24.8462 C   0  0  0  0  0  0
  -21.4243  -29.3005   22.3572 N   0  0  0  0  0  0
  -26.4305  -37.3877   23.9451 N   0  0  0  0  0  0
  -24.6763  -31.0722   22.1205 N   0  0  0  0  0  0
  -23.4225  -28.8229   23.2956 O   0  0  0  0  0  0
  -27.9252  -26.3505   20.4492 O   0  0  0  0  0  0
  -26.5627  -34.8980   22.4705 O   0  0  0  0  0  0
  -23.5282  -32.1513   23.7561 O   0  0  0  0  0  0
  -23.5793  -23.6797   21.6394 C   0  0  0  0  0  0
  -24.9593  -23.6556   21.3283 C   0  0  0  0  0  0
  -22.7647  -22.5321   21.5561 C   0  0  0  0  0  0
  -25.4919  -22.4191   20.8082 C   0  0  0  0  0  0
  -24.7259  -21.2019   20.9121 C   0  0  0  0  0  0
  -23.3577  -21.2789   21.2965 C   0  0  0  0  0  0
  -21.2382  -22.6484   21.6506 C   0  0  0  0  0  0
  -26.7233  -22.5061   19.9292 C   0  0  0  0  0  0
  -31.1471  -16.6597   21.3294 C   0  0  0  0  0  0
  -25.6466  -25.0527   21.2581 C   0  0  0  0  0  0
  -25.2369  -19.8048   20.4603 C   0  0  0  0  0  0
  -28.5140  -17.6776   20.8569 C   0  0  0  0  0  0
  -28.8557  -16.1768   20.5314 C   0  0  0  0  0  0
  -27.0926  -18.1175   20.3795 C   0  0  0  0  0  0
  -27.2382  -25.3820   21.3667 C   0  0  0  0  0  0
  -30.1711  -15.6191   20.9704 N   0  0  0  0  0  0
  -26.6721  -19.5110   20.7090 N   0  3  0  0  0  0
  -22.3760  -19.8435   21.4662 Cl  0  0  0  0  0  0
  -31.4492  -12.3218   19.0886 H   0  0  0  0  0  0
  -30.3150  -11.2640   19.8372 H   0  0  0  0  0  0
  -29.7375  -11.6886   17.4294 H   0  0  0  0  0  0
  -29.6191  -13.3973   17.7403 H   0  0  0  0  0  0
  -27.9283  -11.1768   18.9631 H   0  0  0  0  0  0
  -27.3295  -12.3478   17.8173 H   0  0  0  0  0  0
  -27.6849  -14.1433   19.4298 H   0  0  0  0  0  0
  -28.7226  -11.9350   21.3023 H   0  0  0  0  0  0
  -28.4971  -13.5676   21.8631 H   0  0  0  0  0  0
  -25.2787   -9.5817   22.4696 H   0  0  0  0  0  0
  -24.0125   -7.4715   22.7496 H   0  0  0  0  0  0
  -21.0844   -8.8846   19.8954 H   0  0  0  0  0  0
  -22.3700  -10.9743   19.6197 H   0  0  0  0  0  0
  -21.2068   -7.6209   23.9737 H   0  0  0  0  0  0
  -21.1377   -6.0550   25.9058 H   0  0  0  0  0  0
  -22.0656   -2.7668   23.2816 H   0  0  0  0  0  0
  -22.4263  -12.0150   22.4888 H   0  0  0  0  0  0
  -21.1065  -13.1325   22.2358 H   0  0  0  0  0  0
  -24.5834  -15.7396   20.3537 H   0  0  0  0  0  0
  -26.2235  -15.5904   19.9587 H   0  0  0  0  0  0
  -26.7184  -32.5605   23.1162 H   0  0  0  0  0  0
  -25.0078  -33.9927   25.0464 H   0  0  0  0  0  0
  -22.7159  -31.3287   21.4189 H   0  0  0  0  0  0
  -23.3819  -35.9589   23.3217 H   0  0  0  0  0  0
  -24.3603  -36.9021   22.2059 H   0  0  0  0  0  0
  -23.7159  -37.6462   23.6638 H   0  0  0  0  0  0
  -26.1038  -31.6029   20.6668 H   0  0  0  0  0  0
  -26.8537  -30.8501   22.0372 H   0  0  0  0  0  0
  -27.9590  -28.8323   21.5286 H   0  0  0  0  0  0
  -26.1598  -26.2141   18.6286 H   0  0  0  0  0  0
  -24.0425  -27.5044   18.7654 H   0  0  0  0  0  0
  -23.7713  -30.6750   19.4305 H   0  0  0  0  0  0
  -22.7665  -29.3104   19.8185 H   0  0  0  0  0  0
  -25.1264  -36.2024   25.0832 H   0  0  0  0  0  0
  -20.9985  -28.3260   24.1311 H   0  0  0  0  0  0
  -20.8682  -26.1776   23.2547 H   0  0  0  0  0  0
  -21.6869  -26.8640   21.9387 H   0  0  0  0  0  0
  -19.7329  -25.6802   21.0329 H   0  0  0  0  0  0
  -19.5984  -27.3671   20.7257 H   0  0  0  0  0  0
  -17.4045  -26.5991   21.4954 H   0  0  0  0  0  0
  -18.0590  -25.9658   22.9578 H   0  0  0  0  0  0
  -19.8268  -30.6284   24.3719 H   0  0  0  0  0  0
  -17.5897  -31.6011   24.6136 H   0  0  0  0  0  0
  -15.6142  -30.3989   23.7770 H   0  0  0  0  0  0
  -15.8346  -28.2242   22.6761 H   0  0  0  0  0  0
  -24.5764  -30.7258   25.7787 H   0  0  0  0  0  0
  -24.8838  -32.3087   26.4762 H   0  0  0  0  0  0
  -25.7873  -30.9102   27.0295 H   0  0  0  0  0  0
  -26.2920  -29.6785   24.1205 H   0  0  0  0  0  0
  -27.4061  -29.7322   25.4663 H   0  0  0  0  0  0
  -27.8718  -30.4398   23.9371 H   0  0  0  0  0  0
  -27.2727  -33.3650   26.1980 H   0  0  0  0  0  0
  -28.3772  -32.6898   25.0142 H   0  0  0  0  0  0
  -28.0753  -31.8457   26.5315 H   0  0  0  0  0  0
  -28.2564  -38.0196   24.7675 H   0  0  0  0  0  0
  -28.1148  -36.2758   24.6015 H   0  0  0  0  0  0
  -27.2356  -37.1167   25.8861 H   0  0  0  0  0  0
  -20.9455  -29.8071   21.6258 H   0  0  0  0  0  0
  -26.0151  -38.2905   24.1626 H   0  0  0  0  0  0
  -23.0775  -24.6030   21.9254 H   0  0  0  0  0  0
  -20.7409  -21.8246   21.1469 H   0  0  0  0  0  0
  -20.8773  -23.5099   21.0924 H   0  0  0  0  0  0
  -20.8335  -22.7049   22.6642 H   0  0  0  0  0  0
  -26.6513  -23.3926   19.2788 H   0  0  0  0  0  0
  -26.8125  -21.6501   19.2514 H   0  0  0  0  0  0
  -27.6429  -22.5759   20.4852 H   0  0  0  0  0  0
  -31.4174  -17.2053   20.4195 H   0  0  0  0  0  0
  -32.0592  -16.2494   21.7739 H   0  0  0  0  0  0
  -30.7704  -17.3737   22.0559 H   0  0  0  0  0  0
  -25.1196  -25.7332   21.9391 H   0  0  0  0  0  0
  -25.2168  -25.3031   20.3127 H   0  0  0  0  0  0
  -24.9393  -19.6645   19.4127 H   0  0  0  0  0  0
  -24.7312  -19.0152   21.0336 H   0  0  0  0  0  0
  -29.2427  -18.3526   20.4019 H   0  0  0  0  0  0
  -28.5726  -17.8313   21.9370 H   0  0  0  0  0  0
  -28.7612  -16.0594   19.4483 H   0  0  0  0  0  0
  -28.0634  -15.5982   20.9971 H   0  0  0  0  0  0
  -26.3833  -17.4434   20.8584 H   0  0  0  0  0  0
  -27.0052  -17.9515   19.3029 H   0  0  0  0  0  0
  -27.7997  -24.4675   21.3975 H   0  0  0  0  0  0
  -27.3990  -25.7694   22.3691 H   0  0  0  0  0  0
  -26.7983  -19.6613   21.6948 H   0  0  0  0  0  0
  -27.2103  -20.1837   20.1956 H   0  0  0  0  0  0
  1 25  1  0  0  0
  1 30  2  0  0  0
  1 86  1  0  0  0
  2  3  1  0  0  0
  2 25  1  0  0  0
  2 89  1  0  0  0
  2 90  1  0  0  0
  3  4  1  0  0  0
  3 91  1  0  0  0
  3 92  1  0  0  0
  4  5  1  0  0  0
  4 93  1  0  0  0
  4 94  1  0  0  0
  5  6  1  0  0  0
  5 26  1  0  0  0
  5 95  1  0  0  0
  6 25  1  0  0  0
  6 96  1  0  0  0
  6 97  1  0  0  0
  7  8  2  0  0  0
  7 26  1  0  0  0
  7 29  1  0  0  0
  8  9  1  0  0  0
  8 22  1  0  0  0
  9 10  1  0  0  0
  9 27  2  0  0  0
 10 11  2  0  0  0
 10 15  1  0  0  0
 11 12  1  0  0  0
 11 98  1  0  0  0
 12 13  2  0  0  0
 12 99  1  0  0  0
 13 14  1  0  0  0
 13 31  1  0  0  0
 14 15  2  0  0  0
 14100  1  0  0  0
 15101  1  0  0  0
 16 17  2  0  0  0
 16 21  1  0  0  0
 16 31  1  0  0  0
 17 18  1  0  0  0
 17102  1  0  0  0
 18 19  2  0  0  0
 18103  1  0  0  0
 19 20  1  0  0  0
 19 24  1  0  0  0
 20 21  2  0  0  0
 20104  1  0  0  0
 21 23  1  0  0  0
 22 28  1  0  0  0
 22 32  2  0  0  0
 26 27  1  0  0  0
 28105  1  0  0  0
 28106  1  0  0  0
 29107  1  0  0  0
 29108  1  0  0  0
 33 34  1  0  0  0
 33 66  1  0  0  0
 33 70  2  0  0  0
 34 36  1  0  0  0
 34 59  1  0  0  0
 34109  1  0  0  0
 35 44  2  0  0  0
 35 45  1  0  0  0
 35 68  1  0  0  0
 36 56  1  0  0  0
 36110  1  0  0  0
 37 39  1  0  0  0
 37 47  1  0  0  0
 37 66  1  0  0  0
 37111  1  0  0  0
 38 43  2  0  0  0
 38 46  1  0  0  0
 38 47  1  0  0  0
 39 64  1  0  0  0
 39 67  2  0  0  0
 40 52  1  0  0  0
 40 53  2  0  0  0
 40 58  1  0  0  0
 41112  1  0  0  0
 41113  1  0  0  0
 41114  1  0  0  0
 41 48  1  0  0  0
 42 43  1  0  0  0
 42 66  1  0  0  0
 42115  1  0  0  0
 42116  1  0  0  0
 43 44  1  0  0  0
 44117  1  0  0  0
 45 46  2  0  0  0
 45118  1  0  0  0
 46119  1  0  0  0
 47120  1  0  0  0
 47121  1  0  0  0
 48 56  1  0  0  0
 48 65  1  0  0  0
 48122  1  0  0  0
 49 50  1  0  0  0
 49 53  1  0  0  0
 49 64  1  0  0  0
 49123  1  0  0  0
 50 51  1  0  0  0
 50124  1  0  0  0
 50125  1  0  0  0
 51 52  1  0  0  0
 51126  1  0  0  0
 51127  1  0  0  0
 52128  1  0  0  0
 52129  1  0  0  0
 53 54  1  0  0  0
 54 55  2  0  0  0
 54130  1  0  0  0
 55 57  1  0  0  0
 55131  1  0  0  0
 56 69  2  0  0  0
 57 58  2  0  0  0
 57132  1  0  0  0
 58133  1  0  0  0
 59 60  1  0  0  0
 59 61  1  0  0  0
 59 62  1  0  0  0
 60134  1  0  0  0
 60135  1  0  0  0
 60136  1  0  0  0
 61137  1  0  0  0
 61138  1  0  0  0
 61139  1  0  0  0
 62140  1  0  0  0
 62141  1  0  0  0
 62142  1  0  0  0
 63 65  1  0  0  0
 63143  1  0  0  0
 63144  1  0  0  0
 63145  1  0  0  0
 64146  1  0  0  0
 65147  1  0  0  0
 68 85  1  0  0  0
 71 72  2  0  0  0
 71 73  1  0  0  0
 71148  1  0  0  0
 72 74  1  0  0  0
 72 80  1  0  0  0
 73 76  2  0  0  0
 73 77  1  0  0  0
 74 75  2  0  0  0
 74 78  1  0  0  0
 75 76  1  0  0  0
 75 81  1  0  0  0
 76 88  1  0  0  0
 77149  1  0  0  0
 77150  1  0  0  0
 77151  1  0  0  0
 78152  1  0  0  0
 78153  1  0  0  0
 78154  1  0  0  0
 79 86  1  0  0  0
 79155  1  0  0  0
 79156  1  0  0  0
 79157  1  0  0  0
 80 85  1  0  0  0
 80158  1  0  0  0
 80159  1  0  0  0
 81 87  1  0  0  0
 81160  1  0  0  0
 81161  1  0  0  0
 82 83  1  0  0  0
 82 84  1  0  0  0
 82162  1  0  0  0
 82163  1  0  0  0
 83 86  1  0  0  0
 83164  1  0  0  0
 83165  1  0  0  0
 84 87  1  0  0  0
 84166  1  0  0  0
 84167  1  0  0  0
 85168  1  0  0  0
 85169  1  0  0  0
 87170  1  0  0  0
 87171  1  0  0  0
M  CHG  1  87   1
M  ISO  4   1 100  68 101  85 101  86 100
M  END
> <chiral flag>
0

> <version>
0

> <s_m_source_file>
/data/baiqing/PycharmProjects/Reinvent-master-3.2/result/LINK_invent/BTK/process_docking_weight1_custom_sum_contain_oxygen_bond_distance_aromatic_linkinvent_7_9_3/rearranged_h_0028.sdf

> <i_m_source_file_index>
52

> <r_mmod_Potential_Energy-OPLS-2005>
278.950317382812

> <r_mmod_Stretch_Energy-OPLS-2005>
82.4925231933594

> <r_mmod_Bend_Energy-OPLS-2005>
199.301818847656

> <r_mmod_Torsional_Energy-OPLS-2005>
359.060760498047

> <r_mmod_Improper_Torsional_Energy-OPLS-2005>
12.8204660415649

> <r_mmod_Van_der_Waal_Energy-OPLS-2005>
199.002899169922

> <r_mmod_Electrostatic_Energy-OPLS-2005>
-220.071716308594

> <r_mmod_Solvation_Energy-OPLS-2005>
-461.970916748047

> <b_mmod_Minimization_Converged-OPLS-2005>
0

> <r_mmod_RMS_Derivative-OPLS-2005>
24.7553310394287

$$$$
52
                    3D
 Structure written by MMmdl.
151159  0  0  1  0            999 V2000
  -30.3885  -15.3628   20.3210 C   0  0  0  0  0  0
  -30.4392  -12.8706   19.5328 C   0  0  0  0  0  0
  -29.5444  -12.6064   18.2939 C   0  0  0  0  0  0
  -28.0958  -12.3082   18.7195 C   0  0  0  0  0  0
  -27.6090  -13.2873   19.8175 C   0  0  2  0  0  0
  -28.6395  -13.4914   20.9491 C   0  0  0  0  0  0
  -25.2375  -13.8259   20.5772 C   0  0  0  0  0  0
  -24.1733  -13.0433   20.9273 C   0  0  0  0  0  0
  -24.6406  -11.6934   20.8738 C   0  0  0  0  0  0
  -23.9098  -10.4286   21.0378 C   0  0  0  0  0  0
  -24.3640   -9.4198   21.9162 C   0  0  0  0  0  0
  -23.6304   -8.2235   22.0747 C   0  0  0  0  0  0
  -22.4273   -8.0275   21.3545 C   0  0  0  0  0  0
  -21.9917   -9.0250   20.4644 C   0  0  0  0  0  0
  -22.7255  -10.2127   20.3035 C   0  0  0  0  0  0
  -21.6845   -6.0735   22.5275 C   0  0  0  0  0  0
  -21.4016   -6.5636   23.8214 C   0  0  0  0  0  0
  -21.3672   -5.6787   24.9177 C   0  0  0  0  0  0
  -21.6052   -4.3050   24.7227 C   0  0  0  0  0  0
  -21.8817   -3.8143   23.4342 C   0  0  0  0  0  0
  -21.9185   -4.6967   22.3396 C   0  0  0  0  0  0
  -22.7737  -13.5185   21.1912 C   0  0  0  0  0  0
  -22.1653   -4.2157   21.0969 F   0  0  0  0  0  0
  -21.5626   -3.4522   25.7732 F   0  0  0  0  0  0
  -29.8620  -14.0273   20.3228 N   0  0  0  0  0  0
  -26.2811  -12.9565   20.3193 N   0  0  0  0  0  0
  -25.9347  -11.6658   20.5672 N   0  0  0  0  0  0
  -22.0373  -12.8185   22.0466 N   0  0  0  0  0  0
  -25.4009  -15.2006   20.4277 N   0  0  0  0  0  0
  -31.6055  -15.3665   20.0755 O   0  0  0  0  0  0
  -21.6639   -6.8869   21.4223 O   0  0  0  0  0  0
  -22.3408  -14.5469   20.6725 O   0  0  0  0  0  0
  -24.6692  -31.8167   23.1650 C   0  0  0  0  0  0
  -25.9350  -32.4549   23.8140 C   0  0  1  0  0  0
  -27.2242  -26.8737   20.1735 C   0  0  0  0  0  0
  -25.5991  -33.8363   24.2039 N   0  0  0  0  0  0
  -23.4859  -30.4247   21.5170 C   0  0  2  0  0  0
  -24.9409  -28.8016   20.1081 C   0  0  0  0  0  0
  -22.7695  -29.4400   22.4783 C   0  0  0  0  0  0
  -18.0314  -28.1408   22.8459 C   0  0  0  0  0  0
  -24.1493  -36.7193   23.2646 C   0  0  0  0  0  0
  -26.0578  -30.6024   21.4048 C   0  0  0  0  0  0
  -26.1245  -29.1879   20.7475 C   0  0  0  0  0  0
  -27.2553  -28.2448   20.7568 C   0  0  0  0  0  0
  -26.0141  -26.6571   19.4767 C   0  0  0  0  0  0
  -24.9142  -27.5583   19.4519 C   0  0  0  0  0  0
  -23.7287  -29.7361   20.1443 C   0  0  0  0  0  0
  -25.4139  -36.2951   24.0298 C   0  0  1  0  0  0
  -20.5944  -28.3756   23.1180 C   0  0  2  0  0  0
  -20.6795  -26.9431   22.5418 C   0  0  0  0  0  0
  -19.5781  -26.6366   21.5221 C   0  0  0  0  0  0
  -18.1955  -26.7935   22.1614 C   0  0  0  0  0  0
  -19.1577  -28.8908   23.2805 C   0  0  0  0  0  0
  -18.9489  -30.1500   23.8835 C   0  0  0  0  0  0
  -17.6482  -30.6603   24.0550 C   0  0  0  0  0  0
  -25.9107  -34.9330   23.5001 C   0  0  0  0  0  0
  -16.5372  -29.9086   23.6349 C   0  0  0  0  0  0
  -16.7294  -28.6512   23.0355 C   0  0  0  0  0  0
  -26.4577  -31.6512   25.0696 C   0  0  0  0  0  0
  -25.3682  -31.3787   26.1341 C   0  0  0  0  0  0
  -27.0476  -30.2861   24.6482 C   0  0  0  0  0  0
  -27.6061  -32.4335   25.7509 C   0  0  0  0  0  0
  -27.5579  -37.1760   24.8467 C   0  0  0  0  0  0
  -21.4360  -29.3023   22.3527 N   0  0  0  0  0  0
  -26.4284  -37.3700   23.9413 N   0  0  0  0  0  0
  -24.7604  -30.9765   22.0825 N   0  0  0  0  0  0
  -23.4212  -28.7976   23.3057 O   0  0  0  0  0  0
  -28.2202  -25.7450   20.2751 O   0  0  0  0  0  0
  -26.5733  -34.8876   22.4602 O   0  0  0  0  0  0
  -23.5758  -32.1159   23.6714 O   0  0  0  0  0  0
  -28.9210  -19.4903   20.7921 C   0  0  0  0  0  0
  -29.6057  -18.2558   20.1801 C   0  0  0  0  0  0
  -29.1099  -20.8197   20.1904 C   0  0  0  0  0  0
  -30.2012  -18.9203   19.1220 C   0  0  0  0  0  0
  -31.0443  -18.3038   18.0427 C   0  0  0  0  0  0
  -30.3998  -21.2472   18.0770 C   0  0  0  0  0  0
  -28.8524  -22.5527   20.5815 C   0  0  0  0  0  0
  -28.1210  -24.1028   19.9093 C   0  0  0  0  0  0
  -29.9077  -20.3459   19.1143 N   0  0  0  0  0  0
  -29.5919  -16.6311   20.4778 N   0  0  0  0  0  0
  -31.4578  -13.0807   19.2047 H   0  0  0  0  0  0
  -30.5195  -11.9777   20.1546 H   0  0  0  0  0  0
  -29.9469  -11.7851   17.6992 H   0  0  0  0  0  0
  -29.5580  -13.4833   17.6458 H   0  0  0  0  0  0
  -28.0655  -11.2865   19.0999 H   0  0  0  0  0  0
  -27.4314  -12.3329   17.8541 H   0  0  0  0  0  0
  -27.5112  -14.2468   19.3043 H   0  0  0  0  0  0
  -28.8280  -12.5637   21.4922 H   0  0  0  0  0  0
  -28.2643  -14.2077   21.6820 H   0  0  0  0  0  0
  -25.2772   -9.5707   22.4744 H   0  0  0  0  0  0
  -24.0020   -7.4637   22.7472 H   0  0  0  0  0  0
  -21.0836   -8.8774   19.8952 H   0  0  0  0  0  0
  -22.3690  -10.9674   19.6149 H   0  0  0  0  0  0
  -21.2024   -7.6152   23.9730 H   0  0  0  0  0  0
  -21.1487   -6.0507   25.9083 H   0  0  0  0  0  0
  -22.0593   -2.7605   23.2822 H   0  0  0  0  0  0
  -22.3993  -11.9879   22.4928 H   0  0  0  0  0  0
  -21.0984  -13.1222   22.2624 H   0  0  0  0  0  0
  -24.6360  -15.8523   20.5651 H   0  0  0  0  0  0
  -26.2446  -15.6470   20.0923 H   0  0  0  0  0  0
  -26.7431  -32.5060   23.0860 H   0  0  0  0  0  0
  -25.0078  -33.9432   25.0150 H   0  0  0  0  0  0
  -22.8034  -31.2603   21.3429 H   0  0  0  0  0  0
  -23.3775  -35.9507   23.3283 H   0  0  0  0  0  0
  -24.3546  -36.8874   22.2065 H   0  0  0  0  0  0
  -23.7235  -37.6366   23.6719 H   0  0  0  0  0  0
  -26.2475  -31.3437   20.6270 H   0  0  0  0  0  0
  -26.9135  -30.6544   22.0662 H   0  0  0  0  0  0
  -28.1483  -28.5376   21.2914 H   0  0  0  0  0  0
  -25.8817  -25.7110   18.9723 H   0  0  0  0  0  0
  -24.0172  -27.2571   18.9285 H   0  0  0  0  0  0
  -23.8893  -30.5035   19.3863 H   0  0  0  0  0  0
  -22.8359  -29.1968   19.8242 H   0  0  0  0  0  0
  -25.1337  -36.1749   25.0795 H   0  0  0  0  0  0
  -21.0021  -28.3368   24.1308 H   0  0  0  0  0  0
  -20.5676  -26.2373   23.3662 H   0  0  0  0  0  0
  -21.6659  -26.7416   22.1234 H   0  0  0  0  0  0
  -19.6948  -25.6261   21.1298 H   0  0  0  0  0  0
  -19.6729  -27.3135   20.6722 H   0  0  0  0  0  0
  -17.4236  -26.6681   21.4008 H   0  0  0  0  0  0
  -18.0347  -26.0091   22.9025 H   0  0  0  0  0  0
  -19.7966  -30.7329   24.2186 H   0  0  0  0  0  0
  -17.5029  -31.6275   24.5165 H   0  0  0  0  0  0
  -15.5367  -30.2962   23.7709 H   0  0  0  0  0  0
  -15.8692  -28.0804   22.7101 H   0  0  0  0  0  0
  -24.5876  -30.7126   25.7649 H   0  0  0  0  0  0
  -24.8851  -32.2992   26.4628 H   0  0  0  0  0  0
  -25.7886  -30.9042   27.0217 H   0  0  0  0  0  0
  -26.3145  -29.6518   24.1484 H   0  0  0  0  0  0
  -27.3967  -29.7251   25.5164 H   0  0  0  0  0  0
  -27.9111  -30.4015   23.9927 H   0  0  0  0  0  0
  -27.2624  -33.3691   26.1938 H   0  0  0  0  0  0
  -28.3949  -32.6812   25.0391 H   0  0  0  0  0  0
  -28.0641  -31.8555   26.5551 H   0  0  0  0  0  0
  -28.2589  -38.0065   24.7516 H   0  0  0  0  0  0
  -28.1088  -36.2594   24.6294 H   0  0  0  0  0  0
  -27.2293  -37.1409   25.8869 H   0  0  0  0  0  0
  -20.9640  -29.8686   21.6614 H   0  0  0  0  0  0
  -26.0133  -38.2770   24.1387 H   0  0  0  0  0  0
  -28.3274  -19.4073   21.6907 H   0  0  0  0  0  0
  -31.5633  -17.4205   18.4126 H   0  0  0  0  0  0
  -31.8165  -18.9773   17.6788 H   0  0  0  0  0  0
  -30.4369  -17.9935   17.1923 H   0  0  0  0  0  0
  -31.4825  -21.1760   17.9859 H   0  0  0  0  0  0
  -30.1520  -22.2826   18.3019 H   0  0  0  0  0  0
  -29.9440  -20.9944   17.1188 H   0  0  0  0  0  0
  -29.8699  -22.8862   20.7861 H   0  0  0  0  0  0
  -28.4094  -22.5198   21.5759 H   0  0  0  0  0  0
  -27.0504  -23.9028   19.8646 H   0  0  0  0  0  0
  -28.4317  -24.0958   18.8636 H   0  0  0  0  0  0
  -28.6984  -16.3614   20.8589 H   0  0  0  0  0  0
  1 25  1  0  0  0
  1 30  2  0  0  0
  1 80  1  0  0  0
  2  3  1  0  0  0
  2 25  1  0  0  0
  2 81  1  0  0  0
  2 82  1  0  0  0
  3  4  1  0  0  0
  3 83  1  0  0  0
  3 84  1  0  0  0
  4  5  1  0  0  0
  4 85  1  0  0  0
  4 86  1  0  0  0
  5  6  1  0  0  0
  5 26  1  0  0  0
  5 87  1  0  0  0
  6 25  1  0  0  0
  6 88  1  0  0  0
  6 89  1  0  0  0
  7  8  2  0  0  0
  7 26  1  0  0  0
  7 29  1  0  0  0
  8  9  1  0  0  0
  8 22  1  0  0  0
  9 10  1  0  0  0
  9 27  2  0  0  0
 10 11  2  0  0  0
 10 15  1  0  0  0
 11 12  1  0  0  0
 11 90  1  0  0  0
 12 13  2  0  0  0
 12 91  1  0  0  0
 13 14  1  0  0  0
 13 31  1  0  0  0
 14 15  2  0  0  0
 14 92  1  0  0  0
 15 93  1  0  0  0
 16 17  2  0  0  0
 16 21  1  0  0  0
 16 31  1  0  0  0
 17 18  1  0  0  0
 17 94  1  0  0  0
 18 19  2  0  0  0
 18 95  1  0  0  0
 19 20  1  0  0  0
 19 24  1  0  0  0
 20 21  2  0  0  0
 20 96  1  0  0  0
 21 23  1  0  0  0
 22 28  1  0  0  0
 22 32  2  0  0  0
 26 27  1  0  0  0
 28 97  1  0  0  0
 28 98  1  0  0  0
 29 99  1  0  0  0
 29100  1  0  0  0
 33 34  1  0  0  0
 33 66  1  0  0  0
 33 70  2  0  0  0
 34 36  1  0  0  0
 34 59  1  0  0  0
 34101  1  0  0  0
 35 44  2  0  0  0
 35 45  1  0  0  0
 35 68  1  0  0  0
 36 56  1  0  0  0
 36102  1  0  0  0
 37 39  1  0  0  0
 37 47  1  0  0  0
 37 66  1  0  0  0
 37103  1  0  0  0
 38 43  2  0  0  0
 38 46  1  0  0  0
 38 47  1  0  0  0
 39 64  1  0  0  0
 39 67  2  0  0  0
 40 52  1  0  0  0
 40 53  2  0  0  0
 40 58  1  0  0  0
 41104  1  0  0  0
 41105  1  0  0  0
 41106  1  0  0  0
 41 48  1  0  0  0
 42 43  1  0  0  0
 42 66  1  0  0  0
 42107  1  0  0  0
 42108  1  0  0  0
 43 44  1  0  0  0
 44109  1  0  0  0
 45 46  2  0  0  0
 45110  1  0  0  0
 46111  1  0  0  0
 47112  1  0  0  0
 47113  1  0  0  0
 48 56  1  0  0  0
 48 65  1  0  0  0
 48114  1  0  0  0
 49 50  1  0  0  0
 49 53  1  0  0  0
 49 64  1  0  0  0
 49115  1  0  0  0
 50 51  1  0  0  0
 50116  1  0  0  0
 50117  1  0  0  0
 51 52  1  0  0  0
 51118  1  0  0  0
 51119  1  0  0  0
 52120  1  0  0  0
 52121  1  0  0  0
 53 54  1  0  0  0
 54 55  2  0  0  0
 54122  1  0  0  0
 55 57  1  0  0  0
 55123  1  0  0  0
 56 69  2  0  0  0
 57 58  2  0  0  0
 57124  1  0  0  0
 58125  1  0  0  0
 59 60  1  0  0  0
 59 61  1  0  0  0
 59 62  1  0  0  0
 60126  1  0  0  0
 60127  1  0  0  0
 60128  1  0  0  0
 61129  1  0  0  0
 61130  1  0  0  0
 61131  1  0  0  0
 62132  1  0  0  0
 62133  1  0  0  0
 62134  1  0  0  0
 63 65  1  0  0  0
 63135  1  0  0  0
 63136  1  0  0  0
 63137  1  0  0  0
 64138  1  0  0  0
 65139  1  0  0  0
 68 78  1  0  0  0
 71 72  1  0  0  0
 71 73  2  0  0  0
 71140  1  0  0  0
 72 74  2  0  0  0
 72 80  1  0  0  0
 73 77  1  0  0  0
 73 79  1  0  0  0
 74 75  1  0  0  0
 74 79  1  0  0  0
 75141  1  0  0  0
 75142  1  0  0  0
 75143  1  0  0  0
 76 79  1  0  0  0
 76144  1  0  0  0
 76145  1  0  0  0
 76146  1  0  0  0
 77 78  1  0  0  0
 77147  1  0  0  0
 77148  1  0  0  0
 78149  1  0  0  0
 78150  1  0  0  0
 80151  1  0  0  0
M  ISO  4   1 100  68 101  78 101  80 100
M  END
> <chiral flag>
0

> <version>
0

> <s_m_source_file>
/data/baiqing/PycharmProjects/Reinvent-master-3.2/result/LINK_invent/BTK/process_docking_weight1_custom_sum_contain_oxygen_bond_distance_aromatic_linkinvent_7_9_3/rearranged_h_0028.sdf

> <i_m_source_file_index>
53

> <r_mmod_Potential_Energy-OPLS-2005>
1470.91333007812

> <r_mmod_Stretch_Energy-OPLS-2005>
675.171325683594

> <r_mmod_Bend_Energy-OPLS-2005>
490.710571289062

> <r_mmod_Torsional_Energy-OPLS-2005>
231.317840576172

> <r_mmod_Improper_Torsional_Energy-OPLS-2005>
3.7384340763092

> <r_mmod_Van_der_Waal_Energy-OPLS-2005>
107.603515625

> <r_mmod_Electrostatic_Energy-OPLS-2005>
-377.457489013672

> <r_mmod_Solvation_Energy-OPLS-2005>
-217.860488891602

> <b_mmod_Minimization_Converged-OPLS-2005>
0

> <r_mmod_RMS_Derivative-OPLS-2005>
3.2236590385437

$$$$
53
                    3D
 Structure written by MMmdl.
162170  0  0  1  0            999 V2000
  -30.7341  -14.4682   20.4035 C   0  0  0  0  0  0
  -30.4211  -12.2575   19.4290 C   0  0  0  0  0  0
  -29.4992  -12.4331   18.2063 C   0  0  0  0  0  0
  -28.0152  -12.3336   18.6225 C   0  0  0  0  0  0
  -27.6594  -13.2149   19.8528 C   0  0  2  0  0  0
  -28.7183  -13.0642   20.9722 C   0  0  0  0  0  0
  -25.2604  -13.8234   20.5701 C   0  0  0  0  0  0
  -24.1856  -13.0463   20.9182 C   0  0  0  0  0  0
  -24.6427  -11.6959   20.8750 C   0  0  0  0  0  0
  -23.9110  -10.4324   21.0368 C   0  0  0  0  0  0
  -24.3635   -9.4257   21.9178 C   0  0  0  0  0  0
  -23.6298   -8.2304   22.0777 C   0  0  0  0  0  0
  -22.4289   -8.0329   21.3545 C   0  0  0  0  0  0
  -21.9909   -9.0314   20.4653 C   0  0  0  0  0  0
  -22.7264  -10.2181   20.3025 C   0  0  0  0  0  0
  -21.6899   -6.0757   22.5288 C   0  0  0  0  0  0
  -21.4053   -6.5647   23.8215 C   0  0  0  0  0  0
  -21.3633   -5.6787   24.9171 C   0  0  0  0  0  0
  -21.6020   -4.3051   24.7215 C   0  0  0  0  0  0
  -21.8839   -3.8153   23.4346 C   0  0  0  0  0  0
  -21.9206   -4.6983   22.3402 C   0  0  0  0  0  0
  -22.7885  -13.5280   21.1820 C   0  0  0  0  0  0
  -22.1688   -4.2156   21.0985 F   0  0  0  0  0  0
  -21.5593   -3.4532   25.7729 F   0  0  0  0  0  0
  -30.0488  -13.2980   20.3934 N   0  0  0  0  0  0
  -26.3050  -12.9412   20.3329 N   0  0  0  0  0  0
  -25.9354  -11.6567   20.5777 N   0  0  0  0  0  0
  -22.0495  -12.8262   22.0366 N   0  0  0  0  0  0
  -25.4174  -15.1955   20.4139 N   0  0  0  0  0  0
  -31.9457  -14.5464   20.2079 O   0  0  0  0  0  0
  -21.6683   -6.8915   21.4239 O   0  0  0  0  0  0
  -22.3577  -14.5580   20.6702 O   0  0  0  0  0  0
  -24.6133  -31.8688   23.2122 C   0  0  0  0  0  0
  -25.9076  -32.4806   23.8392 C   0  0  1  0  0  0
  -27.2439  -27.4287   20.0674 C   0  0  0  0  0  0
  -25.5919  -33.8607   24.2315 N   0  0  0  0  0  0
  -23.4005  -30.4991   21.5441 C   0  0  2  0  0  0
  -24.8442  -28.9504   20.1172 C   0  0  0  0  0  0
  -22.7315  -29.4742   22.4892 C   0  0  0  0  0  0
  -18.0241  -28.1377   22.8350 C   0  0  0  0  0  0
  -24.1498  -36.7286   23.2639 C   0  0  0  0  0  0
  -25.9345  -30.8174   21.3767 C   0  0  0  0  0  0
  -26.0040  -29.4559   20.7162 C   0  0  0  0  0  0
  -27.1991  -28.7004   20.6909 C   0  0  0  0  0  0
  -26.0490  -26.9219   19.4979 C   0  0  0  0  0  0
  -24.8619  -27.6807   19.5120 C   0  0  0  0  0  0
  -23.6130  -29.8272   20.1614 C   0  0  0  0  0  0
  -25.4106  -36.3088   24.0345 C   0  0  1  0  0  0
  -20.5870  -28.3580   23.1060 C   0  0  2  0  0  0
  -20.6781  -26.9388   22.5070 C   0  0  0  0  0  0
  -19.5654  -26.6233   21.5044 C   0  0  0  0  0  0
  -18.1833  -26.7987   22.1375 C   0  0  0  0  0  0
  -19.1543  -28.8742   23.2737 C   0  0  0  0  0  0
  -18.9597  -30.1347   23.8774 C   0  0  0  0  0  0
  -17.6650  -30.6571   24.0531 C   0  0  0  0  0  0
  -25.9020  -34.9462   23.5085 C   0  0  0  0  0  0
  -16.5466  -29.9155   23.6388 C   0  0  0  0  0  0
  -16.7284  -28.6595   23.0332 C   0  0  0  0  0  0
  -26.4501  -31.6593   25.0735 C   0  0  0  0  0  0
  -25.3749  -31.3745   26.1465 C   0  0  0  0  0  0
  -27.0365  -30.3024   24.6181 C   0  0  0  0  0  0
  -27.6047  -32.4313   25.7517 C   0  0  0  0  0  0
  -27.5575  -37.1811   24.8471 C   0  0  0  0  0  0
  -21.4075  -29.3031   22.3513 N   0  0  0  0  0  0
  -26.4296  -37.3760   23.9388 N   0  0  0  0  0  0
  -24.6645  -31.0811   22.1000 N   0  0  0  0  0  0
  -23.4053  -28.8347   23.3019 O   0  0  0  0  0  0
  -28.4669  -26.7770   20.0414 O   0  0  0  0  0  0
  -26.5620  -34.8919   22.4687 O   0  0  0  0  0  0
  -23.5346  -32.1448   23.7543 O   0  0  0  0  0  0
  -28.8894  -18.2877   20.7356 C   0  0  0  0  0  0
  -28.5192  -19.5467   21.2503 C   0  0  0  0  0  0
  -30.1268  -18.0853   20.0990 C   0  0  0  0  0  0
  -29.3998  -20.6618   21.1046 C   0  0  0  0  0  0
  -31.0352  -19.1717   20.0125 C   0  0  0  0  0  0
  -30.6726  -20.4444   20.5150 C   0  0  0  0  0  0
  -25.9854  -19.5512   20.9889 C   0  0  0  0  0  0
  -27.1688  -19.6003   21.9579 C   0  0  0  0  0  0
  -30.4240  -16.7347   19.4499 C   0  0  0  0  0  0
  -29.0505  -22.0964   21.5585 C   0  0  0  0  0  0
  -28.8471  -24.4778   20.7534 C   0  0  0  0  0  0
  -28.6276  -25.4335   19.5554 C   0  0  0  0  0  0
  -29.9659  -15.5489   20.1963 N   0  0  0  0  0  0
  -28.8585  -23.0258   20.4072 N   0  3  0  0  0  0
  -32.5902  -18.9804   19.2664 Cl  0  0  0  0  0  0
  -31.7867  -21.7665   20.3620 Cl  0  0  0  0  0  0
  -31.4672  -12.3207   19.1255 H   0  0  0  0  0  0
  -30.3016  -11.2707   19.8775 H   0  0  0  0  0  0
  -29.7229  -11.6679   17.4611 H   0  0  0  0  0  0
  -29.6955  -13.3923   17.7263 H   0  0  0  0  0  0
  -27.8193  -11.2862   18.8541 H   0  0  0  0  0  0
  -27.3655  -12.5807   17.7804 H   0  0  0  0  0  0
  -27.6762  -14.2455   19.5008 H   0  0  0  0  0  0
  -28.6804  -12.0619   21.3974 H   0  0  0  0  0  0
  -28.5300  -13.7496   21.7982 H   0  0  0  0  0  0
  -25.2765   -9.5796   22.4749 H   0  0  0  0  0  0
  -24.0014   -7.4730   22.7507 H   0  0  0  0  0  0
  -21.0839   -8.8829   19.8983 H   0  0  0  0  0  0
  -22.3706  -10.9715   19.6128 H   0  0  0  0  0  0
  -21.2115   -7.6167   23.9729 H   0  0  0  0  0  0
  -21.1386   -6.0514   25.9067 H   0  0  0  0  0  0
  -22.0627   -2.7612   23.2847 H   0  0  0  0  0  0
  -22.4047  -11.9919   22.4768 H   0  0  0  0  0  0
  -21.1107  -13.1297   22.2518 H   0  0  0  0  0  0
  -24.6300  -15.8250   20.5351 H   0  0  0  0  0  0
  -26.2558  -15.6713   20.1092 H   0  0  0  0  0  0
  -26.7115  -32.5499   23.1119 H   0  0  0  0  0  0
  -25.0094  -33.9735   25.0475 H   0  0  0  0  0  0
  -22.6973  -31.3221   21.4069 H   0  0  0  0  0  0
  -23.3739  -35.9634   23.3299 H   0  0  0  0  0  0
  -24.3589  -36.8916   22.2055 H   0  0  0  0  0  0
  -23.7319  -37.6519   23.6643 H   0  0  0  0  0  0
  -26.0766  -31.5828   20.6161 H   0  0  0  0  0  0
  -26.8113  -30.8459   22.0111 H   0  0  0  0  0  0
  -28.0980  -29.0967   21.1417 H   0  0  0  0  0  0
  -25.9929  -25.9594   19.0191 H   0  0  0  0  0  0
  -23.9694  -27.2811   19.0514 H   0  0  0  0  0  0
  -23.7238  -30.6000   19.4006 H   0  0  0  0  0  0
  -22.7321  -29.2570   19.8661 H   0  0  0  0  0  0
  -25.1295  -36.1904   25.0846 H   0  0  0  0  0  0
  -21.0044  -28.3038   24.1159 H   0  0  0  0  0  0
  -20.5903  -26.2172   23.3224 H   0  0  0  0  0  0
  -21.6609  -26.7618   22.0657 H   0  0  0  0  0  0
  -19.6657  -25.6009   21.1356 H   0  0  0  0  0  0
  -19.6475  -27.2767   20.6324 H   0  0  0  0  0  0
  -17.4259  -26.7051   21.3544 H   0  0  0  0  0  0
  -18.0032  -26.0051   22.8620 H   0  0  0  0  0  0
  -19.8203  -30.7045   24.2072 H   0  0  0  0  0  0
  -17.5352  -31.6255   24.5176 H   0  0  0  0  0  0
  -15.5531  -30.3130   23.7833 H   0  0  0  0  0  0
  -15.8598  -28.1000   22.7140 H   0  0  0  0  0  0
  -24.5863  -30.7163   25.7799 H   0  0  0  0  0  0
  -24.9006  -32.2928   26.4900 H   0  0  0  0  0  0
  -25.8057  -30.8900   27.0227 H   0  0  0  0  0  0
  -26.2962  -29.6753   24.1198 H   0  0  0  0  0  0
  -27.4084  -29.7298   25.4693 H   0  0  0  0  0  0
  -27.8797  -30.4320   23.9395 H   0  0  0  0  0  0
  -27.2634  -33.3563   26.2135 H   0  0  0  0  0  0
  -28.3838  -32.6968   25.0377 H   0  0  0  0  0  0
  -28.0717  -31.8448   26.5422 H   0  0  0  0  0  0
  -28.2612  -38.0089   24.7471 H   0  0  0  0  0  0
  -28.1059  -36.2632   24.6319 H   0  0  0  0  0  0
  -27.2281  -37.1472   25.8876 H   0  0  0  0  0  0
  -20.9269  -29.8532   21.6537 H   0  0  0  0  0  0
  -26.0162  -38.2824   24.1372 H   0  0  0  0  0  0
  -28.1918  -17.4637   20.8132 H   0  0  0  0  0  0
  -25.0380  -19.6549   21.5228 H   0  0  0  0  0  0
  -25.9586  -18.6006   20.4587 H   0  0  0  0  0  0
  -26.0403  -20.3498   20.2522 H   0  0  0  0  0  0
  -27.0661  -20.4360   22.6398 H   0  0  0  0  0  0
  -27.1110  -18.7221   22.6038 H   0  0  0  0  0  0
  -29.8996  -16.7234   18.4931 H   0  0  0  0  0  0
  -31.4768  -16.6601   19.1717 H   0  0  0  0  0  0
  -29.8576  -22.4639   22.1922 H   0  0  0  0  0  0
  -28.1703  -22.1477   22.1917 H   0  0  0  0  0  0
  -28.0830  -24.6722   21.5046 H   0  0  0  0  0  0
  -29.8128  -24.7277   21.1948 H   0  0  0  0  0  0
  -27.8422  -25.0924   18.8906 H   0  0  0  0  0  0
  -29.5313  -25.4300   18.9424 H   0  0  0  0  0  0
  -28.9728  -15.3812   20.1905 H   0  0  0  0  0  0
  -29.6208  -22.8742   19.7646 H   0  0  0  0  0  0
  -27.9991  -22.7695   19.9469 H   0  0  0  0  0  0
  1 25  1  0  0  0
  1 30  2  0  0  0
  1 83  1  0  0  0
  2  3  1  0  0  0
  2 25  1  0  0  0
  2 87  1  0  0  0
  2 88  1  0  0  0
  3  4  1  0  0  0
  3 89  1  0  0  0
  3 90  1  0  0  0
  4  5  1  0  0  0
  4 91  1  0  0  0
  4 92  1  0  0  0
  5  6  1  0  0  0
  5 26  1  0  0  0
  5 93  1  0  0  0
  6 25  1  0  0  0
  6 94  1  0  0  0
  6 95  1  0  0  0
  7  8  2  0  0  0
  7 26  1  0  0  0
  7 29  1  0  0  0
  8  9  1  0  0  0
  8 22  1  0  0  0
  9 10  1  0  0  0
  9 27  2  0  0  0
 10 11  2  0  0  0
 10 15  1  0  0  0
 11 12  1  0  0  0
 11 96  1  0  0  0
 12 13  2  0  0  0
 12 97  1  0  0  0
 13 14  1  0  0  0
 13 31  1  0  0  0
 14 15  2  0  0  0
 14 98  1  0  0  0
 15 99  1  0  0  0
 16 17  2  0  0  0
 16 21  1  0  0  0
 16 31  1  0  0  0
 17 18  1  0  0  0
 17100  1  0  0  0
 18 19  2  0  0  0
 18101  1  0  0  0
 19 20  1  0  0  0
 19 24  1  0  0  0
 20 21  2  0  0  0
 20102  1  0  0  0
 21 23  1  0  0  0
 22 28  1  0  0  0
 22 32  2  0  0  0
 26 27  1  0  0  0
 28103  1  0  0  0
 28104  1  0  0  0
 29105  1  0  0  0
 29106  1  0  0  0
 33 34  1  0  0  0
 33 66  1  0  0  0
 33 70  2  0  0  0
 34 36  1  0  0  0
 34 59  1  0  0  0
 34107  1  0  0  0
 35 44  2  0  0  0
 35 45  1  0  0  0
 35 68  1  0  0  0
 36 56  1  0  0  0
 36108  1  0  0  0
 37 39  1  0  0  0
 37 47  1  0  0  0
 37 66  1  0  0  0
 37109  1  0  0  0
 38 43  2  0  0  0
 38 46  1  0  0  0
 38 47  1  0  0  0
 39 64  1  0  0  0
 39 67  2  0  0  0
 40 52  1  0  0  0
 40 53  2  0  0  0
 40 58  1  0  0  0
 41110  1  0  0  0
 41111  1  0  0  0
 41112  1  0  0  0
 41 48  1  0  0  0
 42 43  1  0  0  0
 42 66  1  0  0  0
 42113  1  0  0  0
 42114  1  0  0  0
 43 44  1  0  0  0
 44115  1  0  0  0
 45 46  2  0  0  0
 45116  1  0  0  0
 46117  1  0  0  0
 47118  1  0  0  0
 47119  1  0  0  0
 48 56  1  0  0  0
 48 65  1  0  0  0
 48120  1  0  0  0
 49 50  1  0  0  0
 49 53  1  0  0  0
 49 64  1  0  0  0
 49121  1  0  0  0
 50 51  1  0  0  0
 50122  1  0  0  0
 50123  1  0  0  0
 51 52  1  0  0  0
 51124  1  0  0  0
 51125  1  0  0  0
 52126  1  0  0  0
 52127  1  0  0  0
 53 54  1  0  0  0
 54 55  2  0  0  0
 54128  1  0  0  0
 55 57  1  0  0  0
 55129  1  0  0  0
 56 69  2  0  0  0
 57 58  2  0  0  0
 57130  1  0  0  0
 58131  1  0  0  0
 59 60  1  0  0  0
 59 61  1  0  0  0
 59 62  1  0  0  0
 60132  1  0  0  0
 60133  1  0  0  0
 60134  1  0  0  0
 61135  1  0  0  0
 61136  1  0  0  0
 61137  1  0  0  0
 62138  1  0  0  0
 62139  1  0  0  0
 62140  1  0  0  0
 63 65  1  0  0  0
 63141  1  0  0  0
 63142  1  0  0  0
 63143  1  0  0  0
 64144  1  0  0  0
 65145  1  0  0  0
 68 82  1  0  0  0
 71 72  2  0  0  0
 71 73  1  0  0  0
 71146  1  0  0  0
 72 74  1  0  0  0
 72 78  1  0  0  0
 73 75  2  0  0  0
 73 79  1  0  0  0
 74 76  2  0  0  0
 74 80  1  0  0  0
 75 76  1  0  0  0
 75 85  1  0  0  0
 76 86  1  0  0  0
 77 78  1  0  0  0
 77147  1  0  0  0
 77148  1  0  0  0
 77149  1  0  0  0
 78150  1  0  0  0
 78151  1  0  0  0
 79 83  1  0  0  0
 79152  1  0  0  0
 79153  1  0  0  0
 80 84  1  0  0  0
 80154  1  0  0  0
 80155  1  0  0  0
 81 82  1  0  0  0
 81 84  1  0  0  0
 81156  1  0  0  0
 81157  1  0  0  0
 82158  1  0  0  0
 82159  1  0  0  0
 83160  1  0  0  0
 84161  1  0  0  0
 84162  1  0  0  0
M  CHG  1  84   1
M  ISO  4   1 100  68 101  82 101  83 100
M  END
> <chiral flag>
0

> <version>
0

> <s_m_source_file>
/data/baiqing/PycharmProjects/Reinvent-master-3.2/result/LINK_invent/BTK/process_docking_weight1_custom_sum_contain_oxygen_bond_distance_aromatic_linkinvent_7_9_3/rearranged_h_0028.sdf

> <i_m_source_file_index>
54

> <r_mmod_Potential_Energy-OPLS-2005>
-199.669494628906

> <r_mmod_Stretch_Energy-OPLS-2005>
40.5915184020996

> <r_mmod_Bend_Energy-OPLS-2005>
114.797622680664

> <r_mmod_Torsional_Energy-OPLS-2005>
206.73486328125

> <r_mmod_Improper_Torsional_Energy-OPLS-2005>
14.4875974655151

> <r_mmod_Van_der_Waal_Energy-OPLS-2005>
158.194931030273

> <r_mmod_Electrostatic_Energy-OPLS-2005>
-304.058410644531

> <r_mmod_Solvation_Energy-OPLS-2005>
-458.891693115234

> <b_mmod_Minimization_Converged-OPLS-2005>
0

> <r_mmod_RMS_Derivative-OPLS-2005>
7.87830066680908

$$$$
54
                    3D
 Structure written by MMmdl.
156164  0  0  1  0            999 V2000
  -30.6164  -14.6876   20.4733 C   0  0  0  0  0  0
  -30.4309  -12.4195   19.4666 C   0  0  0  0  0  0
  -29.5066  -12.5126   18.2329 C   0  0  0  0  0  0
  -28.0316  -12.3421   18.6468 C   0  0  0  0  0  0
  -27.6472  -13.2254   19.8643 C   0  0  2  0  0  0
  -28.6922  -13.1209   20.9976 C   0  0  0  0  0  0
  -25.2513  -13.8189   20.5708 C   0  0  0  0  0  0
  -24.1805  -13.0445   20.9227 C   0  0  0  0  0  0
  -24.6382  -11.6920   20.8763 C   0  0  0  0  0  0
  -23.9071  -10.4287   21.0406 C   0  0  0  0  0  0
  -24.3623   -9.4203   21.9189 C   0  0  0  0  0  0
  -23.6292   -8.2236   22.0760 C   0  0  0  0  0  0
  -22.4274   -8.0273   21.3544 C   0  0  0  0  0  0
  -21.9913   -9.0252   20.4647 C   0  0  0  0  0  0
  -22.7242  -10.2130   20.3050 C   0  0  0  0  0  0
  -21.6850   -6.0726   22.5281 C   0  0  0  0  0  0
  -21.4008   -6.5629   23.8214 C   0  0  0  0  0  0
  -21.3668   -5.6785   24.9179 C   0  0  0  0  0  0
  -21.6052   -4.3049   24.7227 C   0  0  0  0  0  0
  -21.8819   -3.8139   23.4344 C   0  0  0  0  0  0
  -21.9189   -4.6953   22.3396 C   0  0  0  0  0  0
  -22.7821  -13.5221   21.1861 C   0  0  0  0  0  0
  -22.1658   -4.2139   21.0972 F   0  0  0  0  0  0
  -21.5641   -3.4535   25.7739 F   0  0  0  0  0  0
  -29.9996  -13.4619   20.4231 N   0  0  0  0  0  0
  -26.2958  -12.9391   20.3358 N   0  0  0  0  0  0
  -25.9315  -11.6543   20.5796 N   0  0  0  0  0  0
  -22.0469  -12.8191   22.0411 N   0  0  0  0  0  0
  -25.4181  -15.1897   20.4056 N   0  0  0  0  0  0
  -31.7908  -14.8144   20.1200 O   0  0  0  0  0  0
  -21.6639   -6.8868   21.4243 O   0  0  0  0  0  0
  -22.3497  -14.5519   20.6706 O   0  0  0  0  0  0
  -24.6292  -31.8571   23.2003 C   0  0  0  0  0  0
  -25.9121  -32.4766   23.8352 C   0  0  1  0  0  0
  -27.2227  -27.2941   20.0971 C   0  0  0  0  0  0
  -25.5919  -33.8576   24.2262 N   0  0  0  0  0  0
  -23.4236  -30.4831   21.5444 C   0  0  2  0  0  0
  -24.8645  -28.9294   20.1085 C   0  0  0  0  0  0
  -22.7502  -29.4627   22.4930 C   0  0  0  0  0  0
  -18.0343  -28.1347   22.8527 C   0  0  0  0  0  0
  -24.1484  -36.7285   23.2647 C   0  0  0  0  0  0
  -25.9668  -30.7758   21.3759 C   0  0  0  0  0  0
  -26.0352  -29.4039   20.7110 C   0  0  0  0  0  0
  -27.2149  -28.5989   20.6904 C   0  0  0  0  0  0
  -26.0188  -26.8625   19.4985 C   0  0  0  0  0  0
  -24.8596  -27.6652   19.4965 C   0  0  0  0  0  0
  -23.6367  -29.8182   20.1585 C   0  0  0  0  0  0
  -25.4111  -36.3087   24.0334 C   0  0  1  0  0  0
  -20.5937  -28.3723   23.1337 C   0  0  2  0  0  0
  -20.6883  -26.9451   22.5484 C   0  0  0  0  0  0
  -19.5859  -26.6372   21.5306 C   0  0  0  0  0  0
  -18.2057  -26.7825   22.1809 C   0  0  0  0  0  0
  -19.1576  -28.8860   23.2877 C   0  0  0  0  0  0
  -18.9480  -30.1480   23.8833 C   0  0  0  0  0  0
  -17.6460  -30.6586   24.0480 C   0  0  0  0  0  0
  -25.9053  -34.9453   23.5104 C   0  0  0  0  0  0
  -16.5375  -29.9060   23.6277 C   0  0  0  0  0  0
  -16.7312  -28.6450   23.0345 C   0  0  0  0  0  0
  -26.4482  -31.6607   25.0744 C   0  0  0  0  0  0
  -25.3706  -31.3752   26.1469 C   0  0  0  0  0  0
  -27.0341  -30.3040   24.6211 C   0  0  0  0  0  0
  -27.6016  -32.4373   25.7514 C   0  0  0  0  0  0
  -27.5577  -37.1792   24.8467 C   0  0  0  0  0  0
  -21.4205  -29.3085   22.3708 N   0  0  0  0  0  0
  -26.4291  -37.3780   23.9410 N   0  0  0  0  0  0
  -24.6926  -31.0565   22.0963 N   0  0  0  0  0  0
  -23.4220  -28.8149   23.2997 O   0  0  0  0  0  0
  -28.3651  -26.4737   20.1414 O   0  0  0  0  0  0
  -26.5646  -34.8930   22.4683 O   0  0  0  0  0  0
  -23.5452  -32.1395   23.7314 O   0  0  0  0  0  0
  -28.4335  -20.9159   20.5307 C   0  0  0  0  0  0
  -29.1347  -18.4561   20.8311 C   0  0  0  0  0  0
  -27.1177  -19.3537   21.9403 C   0  0  0  0  0  0
  -29.3096  -19.7861   20.2723 C   0  0  0  0  0  0
  -27.3161  -20.6409   21.3696 C   0  0  0  0  0  0
  -28.0308  -18.2920   21.7075 C   0  0  0  0  0  0
  -25.8940  -19.1137   22.8314 C   0  0  0  0  0  0
  -28.6479  -22.3331   19.8055 C   0  0  0  0  0  0
  -30.1599  -17.2687   20.5275 C   0  0  0  0  0  0
  -28.2291  -23.7859   20.4075 C   0  0  0  0  0  0
  -28.4579  -25.1141   19.5332 C   0  0  0  0  0  0
  -29.8279  -15.7911   20.7132 N   0  0  0  0  0  0
  -30.3648  -19.9860   19.4443 F   0  0  0  0  0  0
  -26.1370  -21.8570   21.7274 Cl  0  0  0  0  0  0
  -27.7881  -16.7967   22.5540 Cl  0  0  0  0  0  0
  -31.4735  -12.5377   19.1667 H   0  0  0  0  0  0
  -30.3661  -11.4317   19.9250 H   0  0  0  0  0  0
  -29.7809  -11.7583   17.4961 H   0  0  0  0  0  0
  -29.6410  -13.4781   17.7400 H   0  0  0  0  0  0
  -27.8780  -11.2896   18.8902 H   0  0  0  0  0  0
  -27.3749  -12.5543   17.8029 H   0  0  0  0  0  0
  -27.6546  -14.2556   19.5082 H   0  0  0  0  0  0
  -28.7122  -12.1118   21.4107 H   0  0  0  0  0  0
  -28.4355  -13.7832   21.8268 H   0  0  0  0  0  0
  -25.2767   -9.5670   22.4781 H   0  0  0  0  0  0
  -24.0002   -7.4617   22.7469 H   0  0  0  0  0  0
  -21.0857   -8.8758   19.8946 H   0  0  0  0  0  0
  -22.3701  -10.9670   19.6155 H   0  0  0  0  0  0
  -21.1996   -7.6140   23.9707 H   0  0  0  0  0  0
  -21.1505   -6.0522   25.9079 H   0  0  0  0  0  0
  -22.0591   -2.7605   23.2847 H   0  0  0  0  0  0
  -22.4096  -11.9853   22.4788 H   0  0  0  0  0  0
  -21.1085  -13.1202   22.2623 H   0  0  0  0  0  0
  -24.6543  -15.8447   20.5263 H   0  0  0  0  0  0
  -26.2676  -15.6303   20.0800 H   0  0  0  0  0  0
  -26.7167  -32.5414   23.1082 H   0  0  0  0  0  0
  -25.0042  -33.9728   25.0391 H   0  0  0  0  0  0
  -22.7214  -31.3082   21.4045 H   0  0  0  0  0  0
  -23.3752  -35.9614   23.3325 H   0  0  0  0  0  0
  -24.3569  -36.8899   22.2060 H   0  0  0  0  0  0
  -23.7243  -37.6485   23.6672 H   0  0  0  0  0  0
  -26.1131  -31.5390   20.6104 H   0  0  0  0  0  0
  -26.8417  -30.8140   22.0133 H   0  0  0  0  0  0
  -28.1186  -28.9627   21.1583 H   0  0  0  0  0  0
  -25.9374  -25.8857   19.0477 H   0  0  0  0  0  0
  -23.9576  -27.2923   19.0324 H   0  0  0  0  0  0
  -23.7591  -30.5950   19.4027 H   0  0  0  0  0  0
  -22.7509  -29.2558   19.8588 H   0  0  0  0  0  0
  -25.1292  -36.1931   25.0826 H   0  0  0  0  0  0
  -21.0001  -28.3365   24.1469 H   0  0  0  0  0  0
  -20.5896  -26.2302   23.3676 H   0  0  0  0  0  0
  -21.6754  -26.7561   22.1280 H   0  0  0  0  0  0
  -19.7114  -25.6302   21.1300 H   0  0  0  0  0  0
  -19.6722  -27.3232   20.6869 H   0  0  0  0  0  0
  -18.0706  -26.0071   22.9365 H   0  0  0  0  0  0
  -17.4241  -26.6366   21.4360 H   0  0  0  0  0  0
  -19.7961  -30.7320   24.2171 H   0  0  0  0  0  0
  -17.5037  -31.6297   24.5019 H   0  0  0  0  0  0
  -15.5359  -30.2932   23.7568 H   0  0  0  0  0  0
  -15.8719  -28.0746   22.7099 H   0  0  0  0  0  0
  -24.5836  -30.7160   25.7786 H   0  0  0  0  0  0
  -24.8944  -32.2924   26.4940 H   0  0  0  0  0  0
  -25.8008  -30.8876   27.0228 H   0  0  0  0  0  0
  -26.2909  -29.6759   24.1275 H   0  0  0  0  0  0
  -27.4096  -29.7331   25.4712 H   0  0  0  0  0  0
  -27.8765  -30.4350   23.9415 H   0  0  0  0  0  0
  -27.2584  -33.3648   26.2120 H   0  0  0  0  0  0
  -28.3796  -32.6990   25.0328 H   0  0  0  0  0  0
  -28.0727  -31.8506   26.5410 H   0  0  0  0  0  0
  -28.2599  -38.0079   24.7498 H   0  0  0  0  0  0
  -28.1073  -36.2611   24.6309 H   0  0  0  0  0  0
  -27.2313  -37.1467   25.8877 H   0  0  0  0  0  0
  -20.9367  -29.8862   21.6969 H   0  0  0  0  0  0
  -26.0175  -38.2869   24.1367 H   0  0  0  0  0  0
  -25.0165  -19.6534   22.4775 H   0  0  0  0  0  0
  -26.1020  -19.4320   23.8538 H   0  0  0  0  0  0
  -25.5801  -18.0724   22.8570 H   0  0  0  0  0  0
  -28.1562  -22.2313   18.8373 H   0  0  0  0  0  0
  -29.7107  -22.3932   19.5676 H   0  0  0  0  0  0
  -31.0426  -17.4688   21.1367 H   0  0  0  0  0  0
  -30.4897  -17.3902   19.4950 H   0  0  0  0  0  0
  -28.7226  -23.9148   21.3687 H   0  0  0  0  0  0
  -27.1643  -23.8174   20.6030 H   0  0  0  0  0  0
  -27.8566  -25.0577   18.6262 H   0  0  0  0  0  0
  -29.4786  -25.0619   19.1517 H   0  0  0  0  0  0
  -28.8922  -15.5949   21.0403 H   0  0  0  0  0  0
  1 25  1  0  0  0
  1 30  2  0  0  0
  1 82  1  0  0  0
  2  3  1  0  0  0
  2 25  1  0  0  0
  2 86  1  0  0  0
  2 87  1  0  0  0
  3  4  1  0  0  0
  3 88  1  0  0  0
  3 89  1  0  0  0
  4  5  1  0  0  0
  4 90  1  0  0  0
  4 91  1  0  0  0
  5  6  1  0  0  0
  5 26  1  0  0  0
  5 92  1  0  0  0
  6 25  1  0  0  0
  6 93  1  0  0  0
  6 94  1  0  0  0
  7  8  2  0  0  0
  7 26  1  0  0  0
  7 29  1  0  0  0
  8  9  1  0  0  0
  8 22  1  0  0  0
  9 10  1  0  0  0
  9 27  2  0  0  0
 10 11  2  0  0  0
 10 15  1  0  0  0
 11 12  1  0  0  0
 11 95  1  0  0  0
 12 13  2  0  0  0
 12 96  1  0  0  0
 13 14  1  0  0  0
 13 31  1  0  0  0
 14 15  2  0  0  0
 14 97  1  0  0  0
 15 98  1  0  0  0
 16 17  2  0  0  0
 16 21  1  0  0  0
 16 31  1  0  0  0
 17 18  1  0  0  0
 17 99  1  0  0  0
 18 19  2  0  0  0
 18100  1  0  0  0
 19 20  1  0  0  0
 19 24  1  0  0  0
 20 21  2  0  0  0
 20101  1  0  0  0
 21 23  1  0  0  0
 22 28  1  0  0  0
 22 32  2  0  0  0
 26 27  1  0  0  0
 28102  1  0  0  0
 28103  1  0  0  0
 29104  1  0  0  0
 29105  1  0  0  0
 33 34  1  0  0  0
 33 66  1  0  0  0
 33 70  2  0  0  0
 34 36  1  0  0  0
 34 59  1  0  0  0
 34106  1  0  0  0
 35 44  2  0  0  0
 35 45  1  0  0  0
 35 68  1  0  0  0
 36 56  1  0  0  0
 36107  1  0  0  0
 37 39  1  0  0  0
 37 47  1  0  0  0
 37 66  1  0  0  0
 37108  1  0  0  0
 38 43  2  0  0  0
 38 46  1  0  0  0
 38 47  1  0  0  0
 39 64  1  0  0  0
 39 67  2  0  0  0
 40 52  1  0  0  0
 40 53  2  0  0  0
 40 58  1  0  0  0
 41109  1  0  0  0
 41110  1  0  0  0
 41111  1  0  0  0
 41 48  1  0  0  0
 42 43  1  0  0  0
 42 66  1  0  0  0
 42112  1  0  0  0
 42113  1  0  0  0
 43 44  1  0  0  0
 44114  1  0  0  0
 45 46  2  0  0  0
 45115  1  0  0  0
 46116  1  0  0  0
 47117  1  0  0  0
 47118  1  0  0  0
 48 56  1  0  0  0
 48 65  1  0  0  0
 48119  1  0  0  0
 49 50  1  0  0  0
 49 53  1  0  0  0
 49 64  1  0  0  0
 49120  1  0  0  0
 50 51  1  0  0  0
 50121  1  0  0  0
 50122  1  0  0  0
 51 52  1  0  0  0
 51123  1  0  0  0
 51124  1  0  0  0
 52125  1  0  0  0
 52126  1  0  0  0
 53 54  1  0  0  0
 54 55  2  0  0  0
 54127  1  0  0  0
 55 57  1  0  0  0
 55128  1  0  0  0
 56 69  2  0  0  0
 57 58  2  0  0  0
 57129  1  0  0  0
 58130  1  0  0  0
 59 60  1  0  0  0
 59 61  1  0  0  0
 59 62  1  0  0  0
 60131  1  0  0  0
 60132  1  0  0  0
 60133  1  0  0  0
 61134  1  0  0  0
 61135  1  0  0  0
 61136  1  0  0  0
 62137  1  0  0  0
 62138  1  0  0  0
 62139  1  0  0  0
 63 65  1  0  0  0
 63140  1  0  0  0
 63141  1  0  0  0
 63142  1  0  0  0
 64143  1  0  0  0
 65144  1  0  0  0
 68 81  1  0  0  0
 71 74  2  0  0  0
 71 75  1  0  0  0
 71 78  1  0  0  0
 72 74  1  0  0  0
 72 76  2  0  0  0
 72 79  1  0  0  0
 73 75  2  0  0  0
 73 76  1  0  0  0
 73 77  1  0  0  0
 74 83  1  0  0  0
 75 84  1  0  0  0
 76 85  1  0  0  0
 77145  1  0  0  0
 77146  1  0  0  0
 77147  1  0  0  0
 78 80  1  0  0  0
 78148  1  0  0  0
 78149  1  0  0  0
 79 82  1  0  0  0
 79150  1  0  0  0
 79151  1  0  0  0
 80 81  1  0  0  0
 80152  1  0  0  0
 80153  1  0  0  0
 81154  1  0  0  0
 81155  1  0  0  0
 82156  1  0  0  0
M  ISO  4   1 100  68 101  81 101  82 100
M  END
> <chiral flag>
0

> <version>
0

> <s_m_source_file>
/data/baiqing/PycharmProjects/Reinvent-master-3.2/result/LINK_invent/BTK/process_docking_weight1_custom_sum_contain_oxygen_bond_distance_aromatic_linkinvent_7_9_3/rearranged_h_0028.sdf

> <i_m_source_file_index>
55

> <r_mmod_Potential_Energy-OPLS-2005>
105.983329772949

> <r_mmod_Stretch_Energy-OPLS-2005>
115.679954528809

> <r_mmod_Bend_Energy-OPLS-2005>
171.500717163086

> <r_mmod_Torsional_Energy-OPLS-2005>
193.143371582031

> <r_mmod_Improper_Torsional_Energy-OPLS-2005>
5.31161737442017

> <r_mmod_Van_der_Waal_Energy-OPLS-2005>
156.680938720703

> <r_mmod_Electrostatic_Energy-OPLS-2005>
-399.858520507812

> <r_mmod_Solvation_Energy-OPLS-2005>
-197.181900024414

> <b_mmod_Minimization_Converged-OPLS-2005>
0

> <r_mmod_RMS_Derivative-OPLS-2005>
3.18142318725586

$$$$
55
                    3D
 Structure written by MMmdl.
155163  0  0  1  0            999 V2000
  -30.6788  -14.4781   20.4947 C   0  0  0  0  0  0
  -30.4262  -12.2826   19.4321 C   0  0  0  0  0  0
  -29.4921  -12.4422   18.2123 C   0  0  0  0  0  0
  -28.0117  -12.3346   18.6232 C   0  0  0  0  0  0
  -27.6592  -13.1984   19.8649 C   0  0  2  0  0  0
  -28.7015  -13.0006   20.9899 C   0  0  0  0  0  0
  -25.2598  -13.8152   20.5668 C   0  0  0  0  0  0
  -24.1845  -13.0440   20.9177 C   0  0  0  0  0  0
  -24.6384  -11.6903   20.8743 C   0  0  0  0  0  0
  -23.9058  -10.4293   21.0423 C   0  0  0  0  0  0
  -24.3607   -9.4207   21.9202 C   0  0  0  0  0  0
  -23.6283   -8.2240   22.0761 C   0  0  0  0  0  0
  -22.4272   -8.0273   21.3536 C   0  0  0  0  0  0
  -21.9899   -9.0260   20.4649 C   0  0  0  0  0  0
  -22.7226  -10.2140   20.3071 C   0  0  0  0  0  0
  -21.6857   -6.0724   22.5276 C   0  0  0  0  0  0
  -21.4007   -6.5636   23.8205 C   0  0  0  0  0  0
  -21.3653   -5.6783   24.9172 C   0  0  0  0  0  0
  -21.6046   -4.3045   24.7223 C   0  0  0  0  0  0
  -21.8822   -3.8134   23.4342 C   0  0  0  0  0  0
  -21.9191   -4.6952   22.3394 C   0  0  0  0  0  0
  -22.7874  -13.5257   21.1827 C   0  0  0  0  0  0
  -22.1664   -4.2135   21.0973 F   0  0  0  0  0  0
  -21.5631   -3.4531   25.7739 F   0  0  0  0  0  0
  -30.0335  -13.2848   20.4314 N   0  0  0  0  0  0
  -26.3015  -12.9305   20.3326 N   0  0  0  0  0  0
  -25.9301  -11.6475   20.5760 N   0  0  0  0  0  0
  -22.0500  -12.8261   22.0382 N   0  0  0  0  0  0
  -25.4339  -15.1873   20.4097 N   0  0  0  0  0  0
  -31.8601  -14.6252   20.1675 O   0  0  0  0  0  0
  -21.6642   -6.8869   21.4233 O   0  0  0  0  0  0
  -22.3566  -14.5567   20.6677 O   0  0  0  0  0  0
  -24.6112  -31.8709   23.2112 C   0  0  0  0  0  0
  -25.9012  -32.4841   23.8415 C   0  0  1  0  0  0
  -27.2377  -27.4653   20.1062 C   0  0  0  0  0  0
  -25.5887  -33.8639   24.2349 N   0  0  0  0  0  0
  -23.3989  -30.4920   21.5499 C   0  0  2  0  0  0
  -24.8491  -28.9605   20.1142 C   0  0  0  0  0  0
  -22.7401  -29.4668   22.4994 C   0  0  0  0  0  0
  -18.0278  -28.1373   22.8495 C   0  0  0  0  0  0
  -24.1486  -36.7316   23.2638 C   0  0  0  0  0  0
  -25.9232  -30.8480   21.3583 C   0  0  0  0  0  0
  -26.0048  -29.4835   20.7081 C   0  0  0  0  0  0
  -27.2056  -28.7434   20.6997 C   0  0  0  0  0  0
  -26.0723  -26.9465   19.5059 C   0  0  0  0  0  0
  -24.8764  -27.6905   19.5086 C   0  0  0  0  0  0
  -23.6070  -29.8216   20.1647 C   0  0  0  0  0  0
  -25.4105  -36.3122   24.0344 C   0  0  1  0  0  0
  -20.5864  -28.3661   23.1329 C   0  0  2  0  0  0
  -20.6772  -26.9398   22.5425 C   0  0  0  0  0  0
  -19.5752  -26.6384   21.5217 C   0  0  0  0  0  0
  -18.1926  -26.7923   22.1623 C   0  0  0  0  0  0
  -19.1522  -28.8832   23.2911 C   0  0  0  0  0  0
  -18.9450  -30.1436   23.8923 C   0  0  0  0  0  0
  -17.6451  -30.6578   24.0570 C   0  0  0  0  0  0
  -25.9027  -34.9488   23.5143 C   0  0  0  0  0  0
  -16.5345  -29.9080   23.6319 C   0  0  0  0  0  0
  -16.7266  -28.6497   23.0341 C   0  0  0  0  0  0
  -26.4456  -31.6604   25.0723 C   0  0  0  0  0  0
  -25.3736  -31.3700   26.1480 C   0  0  0  0  0  0
  -27.0281  -30.3059   24.6062 C   0  0  0  0  0  0
  -27.6047  -32.4315   25.7469 C   0  0  0  0  0  0
  -27.5584  -37.1811   24.8464 C   0  0  0  0  0  0
  -21.4128  -29.3028   22.3735 N   0  0  0  0  0  0
  -26.4297  -37.3800   23.9409 N   0  0  0  0  0  0
  -24.6622  -31.0841   22.0988 N   0  0  0  0  0  0
  -23.4186  -28.8218   23.3032 O   0  0  0  0  0  0
  -28.3931  -26.7268   20.1200 O   0  0  0  0  0  0
  -26.5585  -34.8930   22.4700 O   0  0  0  0  0  0
  -23.5315  -32.1438   23.7528 O   0  0  0  0  0  0
  -29.5219  -17.9447   20.9223 C   0  0  0  0  0  0
  -30.1986  -18.3927   18.3038 C   0  0  0  0  0  0
  -29.9306  -16.8297   20.1481 C   0  0  0  0  0  0
  -30.2552  -17.0734   18.7819 C   0  0  0  0  0  0
  -29.4842  -19.2332   20.3389 C   0  0  0  0  0  0
  -29.0048  -20.4572   21.1256 C   0  0  0  0  0  0
  -29.1367  -21.8010   20.3617 C   0  0  0  0  0  0
  -28.6888  -23.0528   21.1379 C   0  0  0  0  0  0
  -28.7433  -24.3212   20.2599 C   0  0  0  0  0  0
  -28.3496  -25.6047   21.0054 C   0  0  0  0  0  0
  -29.8226  -19.4462   19.0507 N   0  0  0  0  0  0
  -29.8790  -15.5299   20.7491 N   0  0  0  0  0  0
  -30.6530  -15.8516   17.6259 Cl  0  0  0  0  0  0
  -31.4682  -12.3869   19.1225 H   0  0  0  0  0  0
  -30.3400  -11.2813   19.8566 H   0  0  0  0  0  0
  -29.7256  -11.6836   17.4637 H   0  0  0  0  0  0
  -29.6601  -13.3979   17.7234 H   0  0  0  0  0  0
  -27.8110  -11.2842   18.8359 H   0  0  0  0  0  0
  -27.3706  -12.6017   17.7827 H   0  0  0  0  0  0
  -27.6955  -14.2395   19.5439 H   0  0  0  0  0  0
  -28.6740  -11.9741   21.3591 H   0  0  0  0  0  0
  -28.4752  -13.6329   21.8504 H   0  0  0  0  0  0
  -25.2754   -9.5677   22.4781 H   0  0  0  0  0  0
  -23.9974   -7.4630   22.7485 H   0  0  0  0  0  0
  -21.0823   -8.8785   19.8971 H   0  0  0  0  0  0
  -22.3684  -10.9683   19.6184 H   0  0  0  0  0  0
  -21.1999   -7.6140   23.9709 H   0  0  0  0  0  0
  -21.1482   -6.0517   25.9076 H   0  0  0  0  0  0
  -22.0611   -2.7594   23.2853 H   0  0  0  0  0  0
  -22.4084  -11.9927   22.4793 H   0  0  0  0  0  0
  -21.1141  -13.1347   22.2606 H   0  0  0  0  0  0
  -24.6661  -15.8410   20.5202 H   0  0  0  0  0  0
  -26.2814  -15.6249   20.0709 H   0  0  0  0  0  0
  -26.7096  -32.5572   23.1200 H   0  0  0  0  0  0
  -25.0061  -33.9815   25.0511 H   0  0  0  0  0  0
  -22.6859  -31.3071   21.4102 H   0  0  0  0  0  0
  -23.3749  -35.9648   23.3314 H   0  0  0  0  0  0
  -24.3586  -36.8913   22.2051 H   0  0  0  0  0  0
  -23.7239  -37.6527   23.6639 H   0  0  0  0  0  0
  -26.0306  -31.6155   20.5906 H   0  0  0  0  0  0
  -26.8137  -30.9058   21.9726 H   0  0  0  0  0  0
  -28.0996  -29.1421   21.1590 H   0  0  0  0  0  0
  -26.0917  -25.9703   19.0426 H   0  0  0  0  0  0
  -23.9879  -27.2822   19.0476 H   0  0  0  0  0  0
  -23.7115  -30.5963   19.4042 H   0  0  0  0  0  0
  -22.7331  -29.2372   19.8712 H   0  0  0  0  0  0
  -25.1278  -36.2000   25.0839 H   0  0  0  0  0  0
  -20.9959  -28.3226   24.1449 H   0  0  0  0  0  0
  -20.5679  -26.2267   23.3606 H   0  0  0  0  0  0
  -21.6645  -26.7442   22.1220 H   0  0  0  0  0  0
  -19.6916  -25.6302   21.1227 H   0  0  0  0  0  0
  -19.6692  -27.3212   20.6762 H   0  0  0  0  0  0
  -17.4202  -26.6685   21.4016 H   0  0  0  0  0  0
  -18.0313  -26.0056   22.9008 H   0  0  0  0  0  0
  -19.7923  -30.7246   24.2308 H   0  0  0  0  0  0
  -17.5003  -31.6261   24.5169 H   0  0  0  0  0  0
  -15.5344  -30.2990   23.7621 H   0  0  0  0  0  0
  -15.8671  -28.0822   22.7036 H   0  0  0  0  0  0
  -24.5900  -30.7055   25.7816 H   0  0  0  0  0  0
  -24.8932  -32.2854   26.4951 H   0  0  0  0  0  0
  -25.8099  -30.8853   27.0222 H   0  0  0  0  0  0
  -26.2813  -29.6829   24.1121 H   0  0  0  0  0  0
  -27.4084  -29.7282   25.4495 H   0  0  0  0  0  0
  -27.8632  -30.4404   23.9181 H   0  0  0  0  0  0
  -27.2680  -33.3599   26.2095 H   0  0  0  0  0  0
  -28.3820  -32.6903   25.0265 H   0  0  0  0  0  0
  -28.0756  -31.8410   26.5338 H   0  0  0  0  0  0
  -28.2612  -38.0099   24.7511 H   0  0  0  0  0  0
  -28.1071  -36.2635   24.6288 H   0  0  0  0  0  0
  -27.2306  -37.1460   25.8869 H   0  0  0  0  0  0
  -20.9284  -29.8738   21.6946 H   0  0  0  0  0  0
  -26.0191  -38.2885   24.1400 H   0  0  0  0  0  0
  -29.2272  -17.8182   21.9550 H   0  0  0  0  0  0
  -30.4346  -18.6060   17.2718 H   0  0  0  0  0  0
  -29.5671  -20.5090   22.0579 H   0  0  0  0  0  0
  -27.9623  -20.2977   21.4038 H   0  0  0  0  0  0
  -28.5490  -21.7387   19.4448 H   0  0  0  0  0  0
  -30.1744  -21.9336   20.0515 H   0  0  0  0  0  0
  -29.3218  -23.1872   22.0161 H   0  0  0  0  0  0
  -27.6728  -22.9111   21.5092 H   0  0  0  0  0  0
  -28.0845  -24.1939   19.4004 H   0  0  0  0  0  0
  -29.7494  -24.4431   19.8582 H   0  0  0  0  0  0
  -29.0485  -25.7876   21.8227 H   0  0  0  0  0  0
  -27.3680  -25.4750   21.4681 H   0  0  0  0  0  0
  -29.0110  -15.3021   21.2056 H   0  0  0  0  0  0
  1 25  1  0  0  0
  1 30  2  0  0  0
  1 82  1  0  0  0
  2  3  1  0  0  0
  2 25  1  0  0  0
  2 84  1  0  0  0
  2 85  1  0  0  0
  3  4  1  0  0  0
  3 86  1  0  0  0
  3 87  1  0  0  0
  4  5  1  0  0  0
  4 88  1  0  0  0
  4 89  1  0  0  0
  5  6  1  0  0  0
  5 26  1  0  0  0
  5 90  1  0  0  0
  6 25  1  0  0  0
  6 91  1  0  0  0
  6 92  1  0  0  0
  7  8  2  0  0  0
  7 26  1  0  0  0
  7 29  1  0  0  0
  8  9  1  0  0  0
  8 22  1  0  0  0
  9 10  1  0  0  0
  9 27  2  0  0  0
 10 11  2  0  0  0
 10 15  1  0  0  0
 11 12  1  0  0  0
 11 93  1  0  0  0
 12 13  2  0  0  0
 12 94  1  0  0  0
 13 14  1  0  0  0
 13 31  1  0  0  0
 14 15  2  0  0  0
 14 95  1  0  0  0
 15 96  1  0  0  0
 16 17  2  0  0  0
 16 21  1  0  0  0
 16 31  1  0  0  0
 17 18  1  0  0  0
 17 97  1  0  0  0
 18 19  2  0  0  0
 18 98  1  0  0  0
 19 20  1  0  0  0
 19 24  1  0  0  0
 20 21  2  0  0  0
 20 99  1  0  0  0
 21 23  1  0  0  0
 22 28  1  0  0  0
 22 32  2  0  0  0
 26 27  1  0  0  0
 28100  1  0  0  0
 28101  1  0  0  0
 29102  1  0  0  0
 29103  1  0  0  0
 33 34  1  0  0  0
 33 66  1  0  0  0
 33 70  2  0  0  0
 34 36  1  0  0  0
 34 59  1  0  0  0
 34104  1  0  0  0
 35 44  2  0  0  0
 35 45  1  0  0  0
 35 68  1  0  0  0
 36 56  1  0  0  0
 36105  1  0  0  0
 37 39  1  0  0  0
 37 47  1  0  0  0
 37 66  1  0  0  0
 37106  1  0  0  0
 38 43  2  0  0  0
 38 46  1  0  0  0
 38 47  1  0  0  0
 39 64  1  0  0  0
 39 67  2  0  0  0
 40 52  1  0  0  0
 40 53  2  0  0  0
 40 58  1  0  0  0
 41107  1  0  0  0
 41108  1  0  0  0
 41109  1  0  0  0
 41 48  1  0  0  0
 42 43  1  0  0  0
 42 66  1  0  0  0
 42110  1  0  0  0
 42111  1  0  0  0
 43 44  1  0  0  0
 44112  1  0  0  0
 45 46  2  0  0  0
 45113  1  0  0  0
 46114  1  0  0  0
 47115  1  0  0  0
 47116  1  0  0  0
 48 56  1  0  0  0
 48 65  1  0  0  0
 48117  1  0  0  0
 49 50  1  0  0  0
 49 53  1  0  0  0
 49 64  1  0  0  0
 49118  1  0  0  0
 50 51  1  0  0  0
 50119  1  0  0  0
 50120  1  0  0  0
 51 52  1  0  0  0
 51121  1  0  0  0
 51122  1  0  0  0
 52123  1  0  0  0
 52124  1  0  0  0
 53 54  1  0  0  0
 54 55  2  0  0  0
 54125  1  0  0  0
 55 57  1  0  0  0
 55126  1  0  0  0
 56 69  2  0  0  0
 57 58  2  0  0  0
 57127  1  0  0  0
 58128  1  0  0  0
 59 60  1  0  0  0
 59 61  1  0  0  0
 59 62  1  0  0  0
 60129  1  0  0  0
 60130  1  0  0  0
 60131  1  0  0  0
 61132  1  0  0  0
 61133  1  0  0  0
 61134  1  0  0  0
 62135  1  0  0  0
 62136  1  0  0  0
 62137  1  0  0  0
 63 65  1  0  0  0
 63138  1  0  0  0
 63139  1  0  0  0
 63140  1  0  0  0
 64141  1  0  0  0
 65142  1  0  0  0
 68 80  1  0  0  0
 71 73  2  0  0  0
 71 75  1  0  0  0
 71143  1  0  0  0
 72 74  2  0  0  0
 72 81  1  0  0  0
 72144  1  0  0  0
 73 74  1  0  0  0
 73 82  1  0  0  0
 74 83  1  0  0  0
 75 76  1  0  0  0
 75 81  2  0  0  0
 76 77  1  0  0  0
 76145  1  0  0  0
 76146  1  0  0  0
 77 78  1  0  0  0
 77147  1  0  0  0
 77148  1  0  0  0
 78 79  1  0  0  0
 78149  1  0  0  0
 78150  1  0  0  0
 79 80  1  0  0  0
 79151  1  0  0  0
 79152  1  0  0  0
 80153  1  0  0  0
 80154  1  0  0  0
 82155  1  0  0  0
M  ISO  4   1 100  68 101  80 101  82 100
M  END
> <chiral flag>
0

> <version>
0

> <s_m_source_file>
/data/baiqing/PycharmProjects/Reinvent-master-3.2/result/LINK_invent/BTK/process_docking_weight1_custom_sum_contain_oxygen_bond_distance_aromatic_linkinvent_7_9_3/rearranged_h_0028.sdf

> <i_m_source_file_index>
56

> <r_mmod_Potential_Energy-OPLS-2005>
-90.8718414306641

> <r_mmod_Stretch_Energy-OPLS-2005>
34.6162452697754

> <r_mmod_Bend_Energy-OPLS-2005>
91.0564422607422

> <r_mmod_Torsional_Energy-OPLS-2005>
266.135955810547

> <r_mmod_Improper_Torsional_Energy-OPLS-2005>
5.84506511688232

> <r_mmod_Van_der_Waal_Energy-OPLS-2005>
157.841735839844

> <r_mmod_Electrostatic_Energy-OPLS-2005>
-445.847778320312

> <r_mmod_Solvation_Energy-OPLS-2005>
-217.092559814453

> <b_mmod_Minimization_Converged-OPLS-2005>
0

> <r_mmod_RMS_Derivative-OPLS-2005>
1.75636672973633

$$$$
56
                    3D
 Structure written by MMmdl.
159167  0  0  1  0            999 V2000
  -30.1902  -16.0020   20.3319 C   0  0  0  0  0  0
  -30.3986  -13.3690   19.5355 C   0  0  0  0  0  0
  -29.5370  -12.7971   18.3546 C   0  0  0  0  0  0
  -28.1487  -12.3579   18.8325 C   0  0  0  0  0  0
  -27.5925  -13.3652   19.8523 C   0  0  2  0  0  0
  -28.6056  -13.8193   20.9451 C   0  0  0  0  0  0
  -25.2271  -13.8351   20.6021 C   0  0  0  0  0  0
  -24.1673  -13.0378   20.9305 C   0  0  0  0  0  0
  -24.6469  -11.6955   20.8701 C   0  0  0  0  0  0
  -23.9156  -10.4288   21.0331 C   0  0  0  0  0  0
  -24.3666   -9.4224   21.9147 C   0  0  0  0  0  0
  -23.6340   -8.2251   22.0746 C   0  0  0  0  0  0
  -22.4290   -8.0278   21.3565 C   0  0  0  0  0  0
  -21.9991   -9.0212   20.4602 C   0  0  0  0  0  0
  -22.7307  -10.2119   20.3012 C   0  0  0  0  0  0
  -21.6893   -6.0685   22.5216 C   0  0  0  0  0  0
  -21.4030   -6.5609   23.8115 C   0  0  0  0  0  0
  -21.3694   -5.6780   24.9099 C   0  0  0  0  0  0
  -21.6084   -4.3034   24.7188 C   0  0  0  0  0  0
  -21.8824   -3.8096   23.4308 C   0  0  0  0  0  0
  -21.9231   -4.6912   22.3365 C   0  0  0  0  0  0
  -22.7684  -13.5036   21.1926 C   0  0  0  0  0  0
  -22.1689   -4.2068   21.0942 F   0  0  0  0  0  0
  -21.5681   -3.4545   25.7732 F   0  0  0  0  0  0
  -29.7162  -14.5658   20.2751 N   0  0  0  0  0  0
  -26.2827  -12.9814   20.3621 N   0  0  0  0  0  0
  -25.9474  -11.6794   20.5775 N   0  0  0  0  0  0
  -22.0486  -12.7860   22.0506 N   0  0  0  0  0  0
  -25.3742  -15.2098   20.4513 N   0  0  0  0  0  0
  -31.4192  -15.8915   20.1025 O   0  0  0  0  0  0
  -21.6676   -6.8847   21.4207 O   0  0  0  0  0  0
  -22.3291  -14.5301   20.6790 O   0  0  0  0  0  0
  -24.7047  -31.7770   23.1369 C   0  0  0  0  0  0
  -25.9476  -32.4458   23.7999 C   0  0  1  0  0  0
  -27.2632  -26.4538   20.2825 C   0  0  0  0  0  0
  -25.6032  -33.8320   24.1874 N   0  0  0  0  0  0
  -23.5495  -30.3597   21.4933 C   0  0  2  0  0  0
  -25.0243  -28.6521   20.1369 C   0  0  0  0  0  0
  -22.7872  -29.4129   22.4630 C   0  0  0  0  0  0
  -18.0319  -28.1478   22.8445 C   0  0  0  0  0  0
  -24.1408  -36.7201   23.2642 C   0  0  0  0  0  0
  -26.1331  -30.4420   21.4266 C   0  0  0  0  0  0
  -26.2135  -28.9676   20.8023 C   0  0  0  0  0  0
  -27.3066  -27.9059   20.8274 C   0  0  0  0  0  0
  -26.0292  -26.4139   19.5548 C   0  0  0  0  0  0
  -24.9858  -27.4068   19.4846 C   0  0  0  0  0  0
  -23.8345  -29.6435   20.1368 C   0  0  0  0  0  0
  -25.4081  -36.2928   24.0227 C   0  0  1  0  0  0
  -20.5966  -28.3833   23.1124 C   0  0  2  0  0  0
  -20.6798  -26.9499   22.5406 C   0  0  0  0  0  0
  -19.5791  -26.6388   21.5225 C   0  0  0  0  0  0
  -18.1941  -26.8013   22.1592 C   0  0  0  0  0  0
  -19.1588  -28.8986   23.2774 C   0  0  0  0  0  0
  -18.9534  -30.1545   23.8848 C   0  0  0  0  0  0
  -17.6547  -30.6693   24.0545 C   0  0  0  0  0  0
  -25.9071  -34.9326   23.4883 C   0  0  0  0  0  0
  -16.5423  -29.9188   23.6364 C   0  0  0  0  0  0
  -16.7302  -28.6598   23.0398 C   0  0  0  0  0  0
  -26.4575  -31.6600   25.0704 C   0  0  0  0  0  0
  -25.3530  -31.4029   26.1232 C   0  0  0  0  0  0
  -27.0503  -30.2944   24.6622 C   0  0  0  0  0  0
  -27.5919  -32.4552   25.7625 C   0  0  0  0  0  0
  -27.5486  -37.1771   24.8465 C   0  0  0  0  0  0
  -21.4471  -29.3075   22.3431 N   0  0  0  0  0  0
  -26.4165  -37.3734   23.9433 N   0  0  0  0  0  0
  -24.8211  -30.8937   22.0794 N   0  0  0  0  0  0
  -23.4170  -28.7662   23.3004 O   0  0  0  0  0  0
  -28.2200  -25.1278   20.3323 O   0  0  0  0  0  0
  -26.5704  -34.8919   22.4488 O   0  0  0  0  0  0
  -23.5987  -32.0952   23.6116 O   0  0  0  0  0  0
  -30.0366  -22.6743   22.5697 C   0  0  0  0  0  0
  -29.5574  -21.2804   22.1444 C   0  0  0  0  0  0
  -27.6878  -23.5474   22.0100 C   0  0  0  0  0  0
  -28.0886  -23.2434   20.5309 C   0  0  2  0  0  0
  -28.8875  -23.6020   23.0248 C   0  0  0  0  0  0
  -28.7139  -21.2012   20.8304 C   0  0  2  0  0  0
  -29.4935  -25.0173   23.1652 C   0  0  0  0  0  0
  -28.3863  -23.1714   24.4280 C   0  0  0  0  0  0
  -27.3164  -20.5915   21.1879 C   0  0  0  0  0  0
  -29.4202  -19.3467   20.1588 C   0  0  0  0  0  0
  -29.4480  -17.4605   20.4588 N   0  0  0  0  0  0
  -31.3415  -13.6914   19.0949 H   0  0  0  0  0  0
  -30.6908  -12.5766   20.2296 H   0  0  0  0  0  0
  -30.0426  -11.9640   17.8667 H   0  0  0  0  0  0
  -29.4227  -13.5671   17.5880 H   0  0  0  0  0  0
  -28.2322  -11.3799   19.3015 H   0  0  0  0  0  0
  -27.4654  -12.2354   17.9919 H   0  0  0  0  0  0
  -27.4161  -14.2588   19.2535 H   0  0  0  0  0  0
  -28.9642  -12.9764   21.5403 H   0  0  0  0  0  0
  -28.1250  -14.4984   21.6504 H   0  0  0  0  0  0
  -25.2821   -9.5660   22.4692 H   0  0  0  0  0  0
  -24.0057   -7.4630   22.7446 H   0  0  0  0  0  0
  -21.0965   -8.8653   19.8826 H   0  0  0  0  0  0
  -22.3751  -10.9620   19.6070 H   0  0  0  0  0  0
  -21.1957   -7.6099   23.9557 H   0  0  0  0  0  0
  -21.1572   -6.0540   25.9006 H   0  0  0  0  0  0
  -22.0589   -2.7562   23.2797 H   0  0  0  0  0  0
  -22.4343  -11.9608   22.4831 H   0  0  0  0  0  0
  -21.1041  -13.0618   22.2698 H   0  0  0  0  0  0
  -24.5836  -15.8429   20.5194 H   0  0  0  0  0  0
  -26.2190  -15.6645   20.1352 H   0  0  0  0  0  0
  -26.7576  -32.4913   23.0723 H   0  0  0  0  0  0
  -25.0291  -33.9387   25.0103 H   0  0  0  0  0  0
  -22.8892  -31.2012   21.2791 H   0  0  0  0  0  0
  -23.3707  -35.9500   23.3235 H   0  0  0  0  0  0
  -24.3433  -36.8975   22.2079 H   0  0  0  0  0  0
  -23.7113  -37.6318   23.6796 H   0  0  0  0  0  0
  -26.2890  -31.1333   20.5962 H   0  0  0  0  0  0
  -27.0054  -30.5847   22.0511 H   0  0  0  0  0  0
  -28.2036  -28.1697   21.3673 H   0  0  0  0  0  0
  -25.8180  -25.4914   19.0348 H   0  0  0  0  0  0
  -24.0969  -27.1614   18.9174 H   0  0  0  0  0  0
  -24.0685  -30.4059   19.3921 H   0  0  0  0  0  0
  -22.9370  -29.1401   19.7726 H   0  0  0  0  0  0
  -25.1259  -36.1658   25.0703 H   0  0  0  0  0  0
  -21.0001  -28.3471   24.1274 H   0  0  0  0  0  0
  -20.5737  -26.2454   23.3651 H   0  0  0  0  0  0
  -21.6630  -26.7506   22.1173 H   0  0  0  0  0  0
  -19.6969  -25.6251   21.1369 H   0  0  0  0  0  0
  -19.6754  -27.3065   20.6649 H   0  0  0  0  0  0
  -17.4222  -26.6764   21.3965 H   0  0  0  0  0  0
  -18.0325  -26.0149   22.8994 H   0  0  0  0  0  0
  -19.8023  -30.7324   24.2224 H   0  0  0  0  0  0
  -17.5155  -31.6365   24.5152 H   0  0  0  0  0  0
  -15.5450  -30.3151   23.7748 H   0  0  0  0  0  0
  -15.8647  -28.0935   22.7216 H   0  0  0  0  0  0
  -24.5719  -30.7391   25.7502 H   0  0  0  0  0  0
  -24.8699  -32.3318   26.4306 H   0  0  0  0  0  0
  -25.7553  -30.9406   27.0254 H   0  0  0  0  0  0
  -26.3125  -29.6527   24.1786 H   0  0  0  0  0  0
  -27.4127  -29.7460   25.5326 H   0  0  0  0  0  0
  -27.9050  -30.4115   23.9959 H   0  0  0  0  0  0
  -27.2344  -33.3956   26.1876 H   0  0  0  0  0  0
  -28.3954  -32.7014   25.0664 H   0  0  0  0  0  0
  -28.0339  -31.8947   26.5881 H   0  0  0  0  0  0
  -28.2448  -38.0109   24.7516 H   0  0  0  0  0  0
  -28.0997  -36.2630   24.6244 H   0  0  0  0  0  0
  -27.2209  -37.1380   25.8864 H   0  0  0  0  0  0
  -20.9796  -29.8948   21.6652 H   0  0  0  0  0  0
  -25.9957  -38.2719   24.1644 H   0  0  0  0  0  0
  -30.6131  -23.1312   21.7632 H   0  0  0  0  0  0
  -30.7479  -22.5566   23.3960 H   0  0  0  0  0  0
  -29.0155  -20.8790   22.9984 H   0  0  0  0  0  0
  -30.4263  -20.6309   22.0665 H   0  0  0  0  0  0
  -26.9798  -22.8000   22.3470 H   0  0  0  0  0  0
  -27.0761  -24.4497   22.0885 H   0  0  0  0  0  0
  -27.2176  -23.0821   19.8917 H   0  0  0  0  0  0
  -29.8013  -25.4058   22.1967 H   0  0  0  0  0  0
  -30.3914  -25.0158   23.7920 H   0  0  0  0  0  0
  -28.7821  -25.7109   23.6173 H   0  0  0  0  0  0
  -27.9733  -22.1601   24.4373 H   0  0  0  0  0  0
  -27.6088  -23.8358   24.8044 H   0  0  0  0  0  0
  -29.1769  -23.1771   25.1807 H   0  0  0  0  0  0
  -27.0663  -20.6347   22.2492 H   0  0  0  0  0  0
  -27.2046  -19.5487   20.9022 H   0  0  0  0  0  0
  -26.5146  -21.0989   20.6552 H   0  0  0  0  0  0
  -30.4709  -19.5421   19.9275 H   0  0  0  0  0  0
  -28.9562  -19.3327   19.1741 H   0  0  0  0  0  0
  -28.4978  -17.2241   20.7155 H   0  0  0  0  0  0
  1 25  1  0  0  0
  1 30  2  0  0  0
  1 81  1  0  0  0
  2  3  1  0  0  0
  2 25  1  0  0  0
  2 82  1  0  0  0
  2 83  1  0  0  0
  3  4  1  0  0  0
  3 84  1  0  0  0
  3 85  1  0  0  0
  4  5  1  0  0  0
  4 86  1  0  0  0
  4 87  1  0  0  0
  5  6  1  0  0  0
  5 26  1  0  0  0
  5 88  1  0  0  0
  6 25  1  0  0  0
  6 89  1  0  0  0
  6 90  1  0  0  0
  7  8  2  0  0  0
  7 26  1  0  0  0
  7 29  1  0  0  0
  8  9  1  0  0  0
  8 22  1  0  0  0
  9 10  1  0  0  0
  9 27  2  0  0  0
 10 11  2  0  0  0
 10 15  1  0  0  0
 11 12  1  0  0  0
 11 91  1  0  0  0
 12 13  2  0  0  0
 12 92  1  0  0  0
 13 14  1  0  0  0
 13 31  1  0  0  0
 14 15  2  0  0  0
 14 93  1  0  0  0
 15 94  1  0  0  0
 16 17  2  0  0  0
 16 21  1  0  0  0
 16 31  1  0  0  0
 17 18  1  0  0  0
 17 95  1  0  0  0
 18 19  2  0  0  0
 18 96  1  0  0  0
 19 20  1  0  0  0
 19 24  1  0  0  0
 20 21  2  0  0  0
 20 97  1  0  0  0
 21 23  1  0  0  0
 22 28  1  0  0  0
 22 32  2  0  0  0
 26 27  1  0  0  0
 28 98  1  0  0  0
 28 99  1  0  0  0
 29100  1  0  0  0
 29101  1  0  0  0
 33 34  1  0  0  0
 33 66  1  0  0  0
 33 70  2  0  0  0
 34 36  1  0  0  0
 34 59  1  0  0  0
 34102  1  0  0  0
 35 44  2  0  0  0
 35 45  1  0  0  0
 35 68  1  0  0  0
 36 56  1  0  0  0
 36103  1  0  0  0
 37 39  1  0  0  0
 37 47  1  0  0  0
 37 66  1  0  0  0
 37104  1  0  0  0
 38 43  2  0  0  0
 38 46  1  0  0  0
 38 47  1  0  0  0
 39 64  1  0  0  0
 39 67  2  0  0  0
 40 52  1  0  0  0
 40 53  2  0  0  0
 40 58  1  0  0  0
 41105  1  0  0  0
 41106  1  0  0  0
 41107  1  0  0  0
 41 48  1  0  0  0
 42 43  1  0  0  0
 42 66  1  0  0  0
 42108  1  0  0  0
 42109  1  0  0  0
 43 44  1  0  0  0
 44110  1  0  0  0
 45 46  2  0  0  0
 45111  1  0  0  0
 46112  1  0  0  0
 47113  1  0  0  0
 47114  1  0  0  0
 48 56  1  0  0  0
 48 65  1  0  0  0
 48115  1  0  0  0
 49 50  1  0  0  0
 49 53  1  0  0  0
 49 64  1  0  0  0
 49116  1  0  0  0
 50 51  1  0  0  0
 50117  1  0  0  0
 50118  1  0  0  0
 51 52  1  0  0  0
 51119  1  0  0  0
 51120  1  0  0  0
 52121  1  0  0  0
 52122  1  0  0  0
 53 54  1  0  0  0
 54 55  2  0  0  0
 54123  1  0  0  0
 55 57  1  0  0  0
 55124  1  0  0  0
 56 69  2  0  0  0
 57 58  2  0  0  0
 57125  1  0  0  0
 58126  1  0  0  0
 59 60  1  0  0  0
 59 61  1  0  0  0
 59 62  1  0  0  0
 60127  1  0  0  0
 60128  1  0  0  0
 60129  1  0  0  0
 61130  1  0  0  0
 61131  1  0  0  0
 61132  1  0  0  0
 62133  1  0  0  0
 62134  1  0  0  0
 62135  1  0  0  0
 63 65  1  0  0  0
 63136  1  0  0  0
 63137  1  0  0  0
 63138  1  0  0  0
 64139  1  0  0  0
 65140  1  0  0  0
 68 74  1  0  0  0
 71 72  1  0  0  0
 71 75  1  0  0  0
 71141  1  0  0  0
 71142  1  0  0  0
 72 76  1  0  0  0
 72143  1  0  0  0
 72144  1  0  0  0
 73 74  1  0  0  0
 73 75  1  0  0  0
 73145  1  0  0  0
 73146  1  0  0  0
 74 76  1  0  0  0
 74147  1  0  0  0
 75 77  1  0  0  0
 75 78  1  0  0  0
 76 79  1  0  0  0
 76 80  1  0  0  0
 77148  1  0  0  0
 77149  1  0  0  0
 77150  1  0  0  0
 78151  1  0  0  0
 78152  1  0  0  0
 78153  1  0  0  0
 79154  1  0  0  0
 79155  1  0  0  0
 79156  1  0  0  0
 80 81  1  0  0  0
 80157  1  0  0  0
 80158  1  0  0  0
 81159  1  0  0  0
M  ISO  4   1 100  68 101  74 101  81 100
M  END
> <chiral flag>
0

> <version>
0

> <s_m_source_file>
/data/baiqing/PycharmProjects/Reinvent-master-3.2/result/LINK_invent/BTK/process_docking_weight1_custom_sum_contain_oxygen_bond_distance_aromatic_linkinvent_7_9_3/rearranged_h_0028.sdf

> <i_m_source_file_index>
57

> <r_mmod_Potential_Energy-OPLS-2005>
4373.89794921875

> <r_mmod_Stretch_Energy-OPLS-2005>
1985.72766113281

> <r_mmod_Bend_Energy-OPLS-2005>
1025.84411621094

> <r_mmod_Torsional_Energy-OPLS-2005>
295.202270507812

> <r_mmod_Improper_Torsional_Energy-OPLS-2005>
3.89794492721558

> <r_mmod_Van_der_Waal_Energy-OPLS-2005>
138.512451171875

> <r_mmod_Electrostatic_Energy-OPLS-2005>
-376.799652099609

> <r_mmod_Solvation_Energy-OPLS-2005>
-207.574951171875

> <b_mmod_Minimization_Converged-OPLS-2005>
0

> <r_mmod_RMS_Derivative-OPLS-2005>
8.84721374511719

$$$$
57
                    3D
 Structure written by MMmdl.
156164  0  0  1  0            999 V2000
  -30.6055  -14.6971   20.4719 C   0  0  0  0  0  0
  -30.4304  -12.4224   19.4721 C   0  0  0  0  0  0
  -29.5075  -12.5024   18.2364 C   0  0  0  0  0  0
  -28.0329  -12.3320   18.6493 C   0  0  0  0  0  0
  -27.6446  -13.2240   19.8584 C   0  0  2  0  0  0
  -28.6858  -13.1270   20.9948 C   0  0  0  0  0  0
  -25.2513  -13.8184   20.5667 C   0  0  0  0  0  0
  -24.1809  -13.0439   20.9209 C   0  0  0  0  0  0
  -24.6398  -11.6917   20.8768 C   0  0  0  0  0  0
  -23.9068  -10.4296   21.0428 C   0  0  0  0  0  0
  -24.3621   -9.4202   21.9196 C   0  0  0  0  0  0
  -23.6294   -8.2235   22.0757 C   0  0  0  0  0  0
  -22.4276   -8.0279   21.3540 C   0  0  0  0  0  0
  -21.9916   -9.0258   20.4645 C   0  0  0  0  0  0
  -22.7248  -10.2136   20.3065 C   0  0  0  0  0  0
  -21.6847   -6.0743   22.5279 C   0  0  0  0  0  0
  -21.4011   -6.5644   23.8213 C   0  0  0  0  0  0
  -21.3661   -5.6794   24.9174 C   0  0  0  0  0  0
  -21.6047   -4.3054   24.7224 C   0  0  0  0  0  0
  -21.8822   -3.8150   23.4343 C   0  0  0  0  0  0
  -21.9190   -4.6973   22.3401 C   0  0  0  0  0  0
  -22.7831  -13.5219   21.1875 C   0  0  0  0  0  0
  -22.1666   -4.2157   21.0978 F   0  0  0  0  0  0
  -21.5627   -3.4536   25.7734 F   0  0  0  0  0  0
  -29.9916  -13.4700   20.4198 N   0  0  0  0  0  0
  -26.2945  -12.9387   20.3313 N   0  0  0  0  0  0
  -25.9324  -11.6533   20.5788 N   0  0  0  0  0  0
  -22.0484  -12.8197   22.0433 N   0  0  0  0  0  0
  -25.4174  -15.1897   20.3994 N   0  0  0  0  0  0
  -31.7849  -14.8211   20.1307 O   0  0  0  0  0  0
  -21.6636   -6.8880   21.4234 O   0  0  0  0  0  0
  -22.3501  -14.5514   20.6716 O   0  0  0  0  0  0
  -24.6290  -31.8564   23.2012 C   0  0  0  0  0  0
  -25.9138  -32.4753   23.8319 C   0  0  1  0  0  0
  -27.2136  -27.2811   20.1109 C   0  0  0  0  0  0
  -25.5955  -33.8560   24.2240 N   0  0  0  0  0  0
  -23.4205  -30.4808   21.5480 C   0  0  2  0  0  0
  -24.8613  -28.9324   20.1123 C   0  0  0  0  0  0
  -22.7482  -29.4587   22.4953 C   0  0  0  0  0  0
  -18.0286  -28.1382   22.8500 C   0  0  0  0  0  0
  -24.1502  -36.7288   23.2635 C   0  0  0  0  0  0
  -25.9647  -30.7762   21.3751 C   0  0  0  0  0  0
  -26.0343  -29.4016   20.7137 C   0  0  0  0  0  0
  -27.2108  -28.5891   20.7011 C   0  0  0  0  0  0
  -26.0046  -26.8650   19.5057 C   0  0  0  0  0  0
  -24.8493  -27.6700   19.5020 C   0  0  0  0  0  0
  -23.6357  -29.8225   20.1605 C   0  0  0  0  0  0
  -25.4130  -36.3066   24.0311 C   0  0  1  0  0  0
  -20.5885  -28.3660   23.1274 C   0  0  2  0  0  0
  -20.6789  -26.9402   22.5354 C   0  0  0  0  0  0
  -19.5719  -26.6349   21.5214 C   0  0  0  0  0  0
  -18.1932  -26.7879   22.1716 C   0  0  0  0  0  0
  -19.1550  -28.8847   23.2875 C   0  0  0  0  0  0
  -18.9498  -30.1464   23.8871 C   0  0  0  0  0  0
  -17.6508  -30.6597   24.0563 C   0  0  0  0  0  0
  -25.9069  -34.9438   23.5071 C   0  0  0  0  0  0
  -16.5384  -29.9102   23.6347 C   0  0  0  0  0  0
  -16.7275  -28.6521   23.0360 C   0  0  0  0  0  0
  -26.4518  -31.6586   25.0710 C   0  0  0  0  0  0
  -25.3747  -31.3744   26.1432 C   0  0  0  0  0  0
  -27.0361  -30.3002   24.6191 C   0  0  0  0  0  0
  -27.6055  -32.4339   25.7516 C   0  0  0  0  0  0
  -27.5580  -37.1807   24.8460 C   0  0  0  0  0  0
  -21.4188  -29.3053   22.3721 N   0  0  0  0  0  0
  -26.4295  -37.3771   23.9399 N   0  0  0  0  0  0
  -24.6909  -31.0542   22.0977 N   0  0  0  0  0  0
  -23.4202  -28.8116   23.3021 O   0  0  0  0  0  0
  -28.3454  -26.4406   20.1693 O   0  0  0  0  0  0
  -26.5638  -34.8912   22.4639 O   0  0  0  0  0  0
  -23.5461  -32.1380   23.7334 O   0  0  0  0  0  0
  -29.3371  -19.7892   20.2787 C   0  0  0  0  0  0
  -28.4454  -20.9121   20.4959 C   0  0  0  0  0  0
  -29.1587  -18.4684   20.8518 C   0  0  0  0  0  0
  -27.2996  -20.6480   21.2953 C   0  0  0  0  0  0
  -28.0618  -18.3264   21.7423 C   0  0  0  0  0  0
  -27.1507  -19.3938   21.9471 C   0  0  0  0  0  0
  -26.1791  -21.6761   21.4326 C   0  0  0  0  0  0
  -28.6260  -22.3131   19.7581 C   0  0  0  0  0  0
  -30.1737  -17.2754   20.5499 C   0  0  0  0  0  0
  -28.5417  -23.7464   20.5074 C   0  0  0  0  0  0
  -28.3982  -25.0620   19.5902 C   0  0  0  0  0  0
  -29.8152  -15.8035   20.6997 N   0  0  0  0  0  0
  -27.7954  -16.8481   22.6104 Cl  0  0  0  0  0  0
  -25.8113  -19.1498   23.0258 Cl  0  0  0  0  0  0
  -31.4728  -12.5444   19.1721 H   0  0  0  0  0  0
  -30.3681  -11.4386   19.9401 H   0  0  0  0  0  0
  -29.7827  -11.7359   17.5101 H   0  0  0  0  0  0
  -29.6390  -13.4633   17.7368 H   0  0  0  0  0  0
  -27.8840  -11.2822   18.9046 H   0  0  0  0  0  0
  -27.3739  -12.5327   17.8036 H   0  0  0  0  0  0
  -27.6497  -14.2505   19.4913 H   0  0  0  0  0  0
  -28.7063  -12.1219   21.4199 H   0  0  0  0  0  0
  -28.4267  -13.7977   21.8151 H   0  0  0  0  0  0
  -25.2771   -9.5668   22.4775 H   0  0  0  0  0  0
  -24.0008   -7.4615   22.7469 H   0  0  0  0  0  0
  -21.0855   -8.8773   19.8941 H   0  0  0  0  0  0
  -22.3717  -10.9679   19.6173 H   0  0  0  0  0  0
  -21.2006   -7.6150   23.9715 H   0  0  0  0  0  0
  -21.1481   -6.0526   25.9072 H   0  0  0  0  0  0
  -22.0602   -2.7611   23.2841 H   0  0  0  0  0  0
  -22.4108  -11.9842   22.4785 H   0  0  0  0  0  0
  -21.1108  -13.1208   22.2673 H   0  0  0  0  0  0
  -24.6516  -15.8420   20.5201 H   0  0  0  0  0  0
  -26.2633  -15.6295   20.0643 H   0  0  0  0  0  0
  -26.7192  -32.5395   23.1048 H   0  0  0  0  0  0
  -25.0125  -33.9712   25.0397 H   0  0  0  0  0  0
  -22.7144  -31.3020   21.4101 H   0  0  0  0  0  0
  -23.3756  -35.9631   23.3301 H   0  0  0  0  0  0
  -24.3581  -36.8913   22.2046 H   0  0  0  0  0  0
  -23.7266  -37.6490   23.6674 H   0  0  0  0  0  0
  -26.1053  -31.5433   20.6117 H   0  0  0  0  0  0
  -26.8403  -30.8176   22.0096 H   0  0  0  0  0  0
  -28.1115  -28.9518   21.1755 H   0  0  0  0  0  0
  -25.8908  -25.8967   19.0486 H   0  0  0  0  0  0
  -23.9435  -27.2998   19.0413 H   0  0  0  0  0  0
  -23.7676  -30.6072   19.4138 H   0  0  0  0  0  0
  -22.7507  -29.2667   19.8467 H   0  0  0  0  0  0
  -25.1318  -36.1900   25.0802 H   0  0  0  0  0  0
  -20.9968  -28.3201   24.1402 H   0  0  0  0  0  0
  -20.5784  -26.2271   23.3555 H   0  0  0  0  0  0
  -21.6639  -26.7473   22.1092 H   0  0  0  0  0  0
  -19.6869  -25.6228   21.1298 H   0  0  0  0  0  0
  -19.6587  -27.3134   20.6710 H   0  0  0  0  0  0
  -17.4113  -26.6500   21.4234 H   0  0  0  0  0  0
  -18.0441  -26.0083   22.9203 H   0  0  0  0  0  0
  -19.7997  -30.7279   24.2206 H   0  0  0  0  0  0
  -17.5066  -31.6274   24.5152 H   0  0  0  0  0  0
  -15.5396  -30.3014   23.7715 H   0  0  0  0  0  0
  -15.8643  -28.0864   22.7100 H   0  0  0  0  0  0
  -24.5902  -30.7118   25.7762 H   0  0  0  0  0  0
  -24.8976  -32.2928   26.4866 H   0  0  0  0  0  0
  -25.8061  -30.8901   27.0200 H   0  0  0  0  0  0
  -26.2925  -29.6757   24.1222 H   0  0  0  0  0  0
  -27.4047  -29.7260   25.4702 H   0  0  0  0  0  0
  -27.8814  -30.4269   23.9421 H   0  0  0  0  0  0
  -27.2622  -33.3617   26.2115 H   0  0  0  0  0  0
  -28.3889  -32.6943   25.0385 H   0  0  0  0  0  0
  -28.0710  -31.8453   26.5433 H   0  0  0  0  0  0
  -28.2598  -38.0105   24.7498 H   0  0  0  0  0  0
  -28.1074  -36.2630   24.6302 H   0  0  0  0  0  0
  -27.2293  -37.1469   25.8863 H   0  0  0  0  0  0
  -20.9346  -29.8851   21.7007 H   0  0  0  0  0  0
  -26.0161  -38.2839   24.1405 H   0  0  0  0  0  0
  -30.1827  -19.9404   19.6217 H   0  0  0  0  0  0
  -26.1279  -22.3502   20.5796 H   0  0  0  0  0  0
  -26.2923  -22.2633   22.3436 H   0  0  0  0  0  0
  -25.2011  -21.1959   21.4633 H   0  0  0  0  0  0
  -27.8755  -22.3180   18.9662 H   0  0  0  0  0  0
  -29.5764  -22.2773   19.2251 H   0  0  0  0  0  0
  -31.0554  -17.4512   21.1678 H   0  0  0  0  0  0
  -30.5126  -17.4098   19.5223 H   0  0  0  0  0  0
  -29.4320  -23.8506   21.1269 H   0  0  0  0  0  0
  -27.7153  -23.7635   21.2118 H   0  0  0  0  0  0
  -27.6070  -24.8834   18.8704 H   0  0  0  0  0  0
  -29.2843  -25.0801   18.9557 H   0  0  0  0  0  0
  -28.8624  -15.6124   20.9695 H   0  0  0  0  0  0
  1 25  1  0  0  0
  1 30  2  0  0  0
  1 82  1  0  0  0
  2  3  1  0  0  0
  2 25  1  0  0  0
  2 85  1  0  0  0
  2 86  1  0  0  0
  3  4  1  0  0  0
  3 87  1  0  0  0
  3 88  1  0  0  0
  4  5  1  0  0  0
  4 89  1  0  0  0
  4 90  1  0  0  0
  5  6  1  0  0  0
  5 26  1  0  0  0
  5 91  1  0  0  0
  6 25  1  0  0  0
  6 92  1  0  0  0
  6 93  1  0  0  0
  7  8  2  0  0  0
  7 26  1  0  0  0
  7 29  1  0  0  0
  8  9  1  0  0  0
  8 22  1  0  0  0
  9 10  1  0  0  0
  9 27  2  0  0  0
 10 11  2  0  0  0
 10 15  1  0  0  0
 11 12  1  0  0  0
 11 94  1  0  0  0
 12 13  2  0  0  0
 12 95  1  0  0  0
 13 14  1  0  0  0
 13 31  1  0  0  0
 14 15  2  0  0  0
 14 96  1  0  0  0
 15 97  1  0  0  0
 16 17  2  0  0  0
 16 21  1  0  0  0
 16 31  1  0  0  0
 17 18  1  0  0  0
 17 98  1  0  0  0
 18 19  2  0  0  0
 18 99  1  0  0  0
 19 20  1  0  0  0
 19 24  1  0  0  0
 20 21  2  0  0  0
 20100  1  0  0  0
 21 23  1  0  0  0
 22 28  1  0  0  0
 22 32  2  0  0  0
 26 27  1  0  0  0
 28101  1  0  0  0
 28102  1  0  0  0
 29103  1  0  0  0
 29104  1  0  0  0
 33 34  1  0  0  0
 33 66  1  0  0  0
 33 70  2  0  0  0
 34 36  1  0  0  0
 34 59  1  0  0  0
 34105  1  0  0  0
 35 44  2  0  0  0
 35 45  1  0  0  0
 35 68  1  0  0  0
 36 56  1  0  0  0
 36106  1  0  0  0
 37 39  1  0  0  0
 37 47  1  0  0  0
 37 66  1  0  0  0
 37107  1  0  0  0
 38 43  2  0  0  0
 38 46  1  0  0  0
 38 47  1  0  0  0
 39 64  1  0  0  0
 39 67  2  0  0  0
 40 52  1  0  0  0
 40 53  2  0  0  0
 40 58  1  0  0  0
 41108  1  0  0  0
 41109  1  0  0  0
 41110  1  0  0  0
 41 48  1  0  0  0
 42 43  1  0  0  0
 42 66  1  0  0  0
 42111  1  0  0  0
 42112  1  0  0  0
 43 44  1  0  0  0
 44113  1  0  0  0
 45 46  2  0  0  0
 45114  1  0  0  0
 46115  1  0  0  0
 47116  1  0  0  0
 47117  1  0  0  0
 48 56  1  0  0  0
 48 65  1  0  0  0
 48118  1  0  0  0
 49 50  1  0  0  0
 49 53  1  0  0  0
 49 64  1  0  0  0
 49119  1  0  0  0
 50 51  1  0  0  0
 50120  1  0  0  0
 50121  1  0  0  0
 51 52  1  0  0  0
 51122  1  0  0  0
 51123  1  0  0  0
 52124  1  0  0  0
 52125  1  0  0  0
 53 54  1  0  0  0
 54 55  2  0  0  0
 54126  1  0  0  0
 55 57  1  0  0  0
 55127  1  0  0  0
 56 69  2  0  0  0
 57 58  2  0  0  0
 57128  1  0  0  0
 58129  1  0  0  0
 59 60  1  0  0  0
 59 61  1  0  0  0
 59 62  1  0  0  0
 60130  1  0  0  0
 60131  1  0  0  0
 60132  1  0  0  0
 61133  1  0  0  0
 61134  1  0  0  0
 61135  1  0  0  0
 62136  1  0  0  0
 62137  1  0  0  0
 62138  1  0  0  0
 63 65  1  0  0  0
 63139  1  0  0  0
 63140  1  0  0  0
 63141  1  0  0  0
 64142  1  0  0  0
 65143  1  0  0  0
 68 81  1  0  0  0
 71 72  2  0  0  0
 71 73  1  0  0  0
 71144  1  0  0  0
 72 74  1  0  0  0
 72 78  1  0  0  0
 73 75  2  0  0  0
 73 79  1  0  0  0
 74 76  2  0  0  0
 74 77  1  0  0  0
 75 76  1  0  0  0
 75 83  1  0  0  0
 76 84  1  0  0  0
 77145  1  0  0  0
 77146  1  0  0  0
 77147  1  0  0  0
 78 80  1  0  0  0
 78148  1  0  0  0
 78149  1  0  0  0
 79 82  1  0  0  0
 79150  1  0  0  0
 79151  1  0  0  0
 80 81  1  0  0  0
 80152  1  0  0  0
 80153  1  0  0  0
 81154  1  0  0  0
 81155  1  0  0  0
 82156  1  0  0  0
M  ISO  4   1 100  68 101  81 101  82 100
M  END
> <chiral flag>
0

> <version>
0

> <s_m_source_file>
/data/baiqing/PycharmProjects/Reinvent-master-3.2/result/LINK_invent/BTK/process_docking_weight1_custom_sum_contain_oxygen_bond_distance_aromatic_linkinvent_7_9_3/rearranged_h_0028.sdf

> <i_m_source_file_index>
58

> <r_mmod_Potential_Energy-OPLS-2005>
120.421485900879

> <r_mmod_Stretch_Energy-OPLS-2005>
111.040893554688

> <r_mmod_Bend_Energy-OPLS-2005>
162.925964355469

> <r_mmod_Torsional_Energy-OPLS-2005>
197.903610229492

> <r_mmod_Improper_Torsional_Energy-OPLS-2005>
5.48764085769653

> <r_mmod_Van_der_Waal_Energy-OPLS-2005>
150.166976928711

> <r_mmod_Electrostatic_Energy-OPLS-2005>
-374.701782226562

> <r_mmod_Solvation_Energy-OPLS-2005>
-199.250869750977

> <b_mmod_Minimization_Converged-OPLS-2005>
0

> <r_mmod_RMS_Derivative-OPLS-2005>
2.20389413833618

$$$$
58
                    3D
 Structure written by MMmdl.
156164  0  0  1  0            999 V2000
  -30.5387  -14.8499   20.4526 C   0  0  0  0  0  0
  -30.4515  -12.5212   19.4882 C   0  0  0  0  0  0
  -29.5240  -12.5288   18.2494 C   0  0  0  0  0  0
  -28.0512  -12.3317   18.6601 C   0  0  0  0  0  0
  -27.6439  -13.2346   19.8541 C   0  0  2  0  0  0
  -28.6877  -13.1785   20.9919 C   0  0  0  0  0  0
  -25.2508  -13.8185   20.5669 C   0  0  0  0  0  0
  -24.1808  -13.0434   20.9207 C   0  0  0  0  0  0
  -24.6404  -11.6914   20.8748 C   0  0  0  0  0  0
  -23.9076  -10.4292   21.0406 C   0  0  0  0  0  0
  -24.3623   -9.4207   21.9185 C   0  0  0  0  0  0
  -23.6296   -8.2244   22.0754 C   0  0  0  0  0  0
  -22.4279   -8.0283   21.3545 C   0  0  0  0  0  0
  -21.9913   -9.0258   20.4649 C   0  0  0  0  0  0
  -22.7245  -10.2137   20.3059 C   0  0  0  0  0  0
  -21.6855   -6.0738   22.5278 C   0  0  0  0  0  0
  -21.4014   -6.5640   23.8213 C   0  0  0  0  0  0
  -21.3657   -5.6792   24.9172 C   0  0  0  0  0  0
  -21.6045   -4.3055   24.7223 C   0  0  0  0  0  0
  -21.8818   -3.8149   23.4341 C   0  0  0  0  0  0
  -21.9192   -4.6965   22.3401 C   0  0  0  0  0  0
  -22.7827  -13.5220   21.1863 C   0  0  0  0  0  0
  -22.1662   -4.2152   21.0977 F   0  0  0  0  0  0
  -21.5627   -3.4537   25.7734 F   0  0  0  0  0  0
  -29.9817  -13.5801   20.4188 N   0  0  0  0  0  0
  -26.2949  -12.9403   20.3278 N   0  0  0  0  0  0
  -25.9341  -11.6544   20.5753 N   0  0  0  0  0  0
  -22.0466  -12.8219   22.0424 N   0  0  0  0  0  0
  -25.4163  -15.1901   20.4021 N   0  0  0  0  0  0
  -31.7099  -14.9979   20.0853 O   0  0  0  0  0  0
  -21.6641   -6.8882   21.4243 O   0  0  0  0  0  0
  -22.3510  -14.5524   20.6707 O   0  0  0  0  0  0
  -24.6389  -31.8483   23.1919 C   0  0  0  0  0  0
  -25.9182  -32.4714   23.8291 C   0  0  1  0  0  0
  -27.2209  -27.1850   20.1408 C   0  0  0  0  0  0
  -25.5949  -33.8519   24.2207 N   0  0  0  0  0  0
  -23.4403  -30.4693   21.5362 C   0  0  2  0  0  0
  -24.8901  -28.9060   20.1080 C   0  0  0  0  0  0
  -22.7543  -29.4570   22.4867 C   0  0  0  0  0  0
  -18.0300  -28.1400   22.8478 C   0  0  0  0  0  0
  -24.1492  -36.7265   23.2639 C   0  0  0  0  0  0
  -25.9927  -30.7367   21.3849 C   0  0  0  0  0  0
  -26.0646  -29.3528   20.7264 C   0  0  0  0  0  0
  -27.2304  -28.5063   20.7302 C   0  0  0  0  0  0
  -26.0228  -26.8334   19.4773 C   0  0  0  0  0  0
  -24.8793  -27.6576   19.4700 C   0  0  0  0  0  0
  -23.6642  -29.8020   20.1536 C   0  0  0  0  0  0
  -25.4122  -36.3040   24.0312 C   0  0  1  0  0  0
  -20.5911  -28.3722   23.1244 C   0  0  2  0  0  0
  -20.6787  -26.9430   22.5404 C   0  0  0  0  0  0
  -19.5759  -26.6386   21.5213 C   0  0  0  0  0  0
  -18.1940  -26.7938   22.1625 C   0  0  0  0  0  0
  -19.1556  -28.8877   23.2856 C   0  0  0  0  0  0
  -18.9474  -30.1473   23.8881 C   0  0  0  0  0  0
  -17.6472  -30.6595   24.0564 C   0  0  0  0  0  0
  -25.9070  -34.9415   23.5065 C   0  0  0  0  0  0
  -16.5363  -29.9090   23.6335 C   0  0  0  0  0  0
  -16.7286  -28.6511   23.0352 C   0  0  0  0  0  0
  -26.4519  -31.6569   25.0716 C   0  0  0  0  0  0
  -25.3712  -31.3755   26.1414 C   0  0  0  0  0  0
  -27.0382  -30.2969   24.6272 C   0  0  0  0  0  0
  -27.6050  -32.4332   25.7504 C   0  0  0  0  0  0
  -27.5576  -37.1785   24.8461 C   0  0  0  0  0  0
  -21.4240  -29.3053   22.3616 N   0  0  0  0  0  0
  -26.4287  -37.3750   23.9405 N   0  0  0  0  0  0
  -24.7100  -31.0382   22.0931 N   0  0  0  0  0  0
  -23.4204  -28.8113   23.2999 O   0  0  0  0  0  0
  -28.2847  -26.2265   20.2254 O   0  0  0  0  0  0
  -26.5652  -34.8907   22.4640 O   0  0  0  0  0  0
  -23.5518  -32.1341   23.7163 O   0  0  0  0  0  0
  -28.4298  -19.5943   21.2187 C   0  0  0  0  0  0
  -30.3804  -18.2675   19.7500 C   0  0  0  0  0  0
  -29.1117  -20.4250   20.2800 C   0  0  0  0  0  0
  -28.6711  -18.1798   21.3965 C   0  0  0  0  0  0
  -30.1274  -19.6914   19.5665 C   0  0  0  0  0  0
  -29.6400  -17.4300   20.6468 C   0  0  0  0  0  0
  -27.8172  -17.4477   22.4185 C   0  0  0  0  0  0
  -30.9381  -20.4219   18.5126 C   0  0  0  0  0  0
  -28.5368  -21.9048   19.8729 C   0  0  0  0  0  0
  -28.9390  -23.4172   20.4158 C   0  0  0  0  0  0
  -28.0269  -24.7334   19.9594 C   0  0  0  0  0  0
  -29.6988  -15.9207   20.7932 N   0  0  0  0  0  0
  -31.4867  -12.6804   19.1824 H   0  0  0  0  0  0
  -30.4336  -11.5468   19.9786 H   0  0  0  0  0  0
  -29.8248  -11.7497   17.5478 H   0  0  0  0  0  0
  -29.6311  -13.4761   17.7183 H   0  0  0  0  0  0
  -27.9236  -11.2834   18.9324 H   0  0  0  0  0  0
  -27.3924  -12.5069   17.8086 H   0  0  0  0  0  0
  -27.6334  -14.2541   19.4681 H   0  0  0  0  0  0
  -28.7475  -12.1742   21.4138 H   0  0  0  0  0  0
  -28.3993  -13.8327   21.8160 H   0  0  0  0  0  0
  -25.2767   -9.5686   22.4760 H   0  0  0  0  0  0
  -24.0006   -7.4635   22.7473 H   0  0  0  0  0  0
  -21.0844   -8.8780   19.8956 H   0  0  0  0  0  0
  -22.3703  -10.9677   19.6169 H   0  0  0  0  0  0
  -21.2010   -7.6150   23.9718 H   0  0  0  0  0  0
  -21.1479   -6.0520   25.9077 H   0  0  0  0  0  0
  -22.0599   -2.7612   23.2839 H   0  0  0  0  0  0
  -22.4081  -11.9889   22.4829 H   0  0  0  0  0  0
  -21.1084  -13.1253   22.2619 H   0  0  0  0  0  0
  -24.6406  -15.8360   20.4992 H   0  0  0  0  0  0
  -26.2471  -15.6254   20.0230 H   0  0  0  0  0  0
  -26.7247  -32.5337   23.1025 H   0  0  0  0  0  0
  -25.0075  -33.9643   25.0339 H   0  0  0  0  0  0
  -22.7411  -31.2943   21.3854 H   0  0  0  0  0  0
  -23.3754  -35.9598   23.3289 H   0  0  0  0  0  0
  -24.3584  -36.8907   22.2057 H   0  0  0  0  0  0
  -23.7248  -37.6458   23.6685 H   0  0  0  0  0  0
  -26.1433  -31.4933   20.6137 H   0  0  0  0  0  0
  -26.8654  -30.7864   22.0242 H   0  0  0  0  0  0
  -28.1238  -28.8408   21.2385 H   0  0  0  0  0  0
  -25.9328  -25.8838   18.9720 H   0  0  0  0  0  0
  -23.9837  -27.3120   18.9723 H   0  0  0  0  0  0
  -23.7964  -30.5784   19.3991 H   0  0  0  0  0  0
  -22.7808  -29.2410   19.8437 H   0  0  0  0  0  0
  -25.1308  -36.1873   25.0803 H   0  0  0  0  0  0
  -21.0010  -28.3314   24.1364 H   0  0  0  0  0  0
  -20.5690  -26.2335   23.3619 H   0  0  0  0  0  0
  -21.6652  -26.7441   22.1198 H   0  0  0  0  0  0
  -19.6921  -25.6292   21.1255 H   0  0  0  0  0  0
  -19.6696  -27.3184   20.6734 H   0  0  0  0  0  0
  -17.4207  -26.6678   21.4030 H   0  0  0  0  0  0
  -18.0344  -26.0090   22.9032 H   0  0  0  0  0  0
  -19.7950  -30.7293   24.2243 H   0  0  0  0  0  0
  -17.5026  -31.6274   24.5168 H   0  0  0  0  0  0
  -15.5364  -30.2988   23.7668 H   0  0  0  0  0  0
  -15.8686  -28.0827   22.7072 H   0  0  0  0  0  0
  -24.5891  -30.7106   25.7734 H   0  0  0  0  0  0
  -24.8902  -32.2940   26.4788 H   0  0  0  0  0  0
  -25.7995  -30.8959   27.0223 H   0  0  0  0  0  0
  -26.2994  -29.6697   24.1269 H   0  0  0  0  0  0
  -27.3997  -29.7261   25.4835 H   0  0  0  0  0  0
  -27.8900  -30.4211   23.9582 H   0  0  0  0  0  0
  -27.2636  -33.3641   26.2044 H   0  0  0  0  0  0
  -28.3884  -32.6876   25.0353 H   0  0  0  0  0  0
  -28.0694  -31.8484   26.5454 H   0  0  0  0  0  0
  -28.2575  -38.0097   24.7512 H   0  0  0  0  0  0
  -28.1085  -36.2622   24.6279 H   0  0  0  0  0  0
  -27.2294  -37.1423   25.8864 H   0  0  0  0  0  0
  -20.9441  -29.8773   21.6808 H   0  0  0  0  0  0
  -26.0152  -38.2814   24.1419 H   0  0  0  0  0  0
  -27.6289  -20.0481   21.7862 H   0  0  0  0  0  0
  -31.1343  -17.7960   19.1348 H   0  0  0  0  0  0
  -27.1518  -18.1272   22.9513 H   0  0  0  0  0  0
  -28.4482  -16.9561   23.1597 H   0  0  0  0  0  0
  -27.1986  -16.6918   21.9367 H   0  0  0  0  0  0
  -31.8415  -19.8702   18.2507 H   0  0  0  0  0  0
  -31.2441  -21.4044   18.8731 H   0  0  0  0  0  0
  -30.3486  -20.5579   17.6054 H   0  0  0  0  0  0
  -27.4628  -21.8230   20.0425 H   0  0  0  0  0  0
  -28.6131  -21.9509   18.7866 H   0  0  0  0  0  0
  -29.9739  -23.6067   20.1319 H   0  0  0  0  0  0
  -28.9405  -23.3868   21.5054 H   0  0  0  0  0  0
  -27.0378  -24.5203   20.3656 H   0  0  0  0  0  0
  -27.9143  -24.6557   18.8772 H   0  0  0  0  0  0
  -28.8507  -15.5545   21.1961 H   0  0  0  0  0  0
  1 25  1  0  0  0
  1 30  2  0  0  0
  1 82  1  0  0  0
  2  3  1  0  0  0
  2 25  1  0  0  0
  2 83  1  0  0  0
  2 84  1  0  0  0
  3  4  1  0  0  0
  3 85  1  0  0  0
  3 86  1  0  0  0
  4  5  1  0  0  0
  4 87  1  0  0  0
  4 88  1  0  0  0
  5  6  1  0  0  0
  5 26  1  0  0  0
  5 89  1  0  0  0
  6 25  1  0  0  0
  6 90  1  0  0  0
  6 91  1  0  0  0
  7  8  2  0  0  0
  7 26  1  0  0  0
  7 29  1  0  0  0
  8  9  1  0  0  0
  8 22  1  0  0  0
  9 10  1  0  0  0
  9 27  2  0  0  0
 10 11  2  0  0  0
 10 15  1  0  0  0
 11 12  1  0  0  0
 11 92  1  0  0  0
 12 13  2  0  0  0
 12 93  1  0  0  0
 13 14  1  0  0  0
 13 31  1  0  0  0
 14 15  2  0  0  0
 14 94  1  0  0  0
 15 95  1  0  0  0
 16 17  2  0  0  0
 16 21  1  0  0  0
 16 31  1  0  0  0
 17 18  1  0  0  0
 17 96  1  0  0  0
 18 19  2  0  0  0
 18 97  1  0  0  0
 19 20  1  0  0  0
 19 24  1  0  0  0
 20 21  2  0  0  0
 20 98  1  0  0  0
 21 23  1  0  0  0
 22 28  1  0  0  0
 22 32  2  0  0  0
 26 27  1  0  0  0
 28 99  1  0  0  0
 28100  1  0  0  0
 29101  1  0  0  0
 29102  1  0  0  0
 33 34  1  0  0  0
 33 66  1  0  0  0
 33 70  2  0  0  0
 34 36  1  0  0  0
 34 59  1  0  0  0
 34103  1  0  0  0
 35 44  2  0  0  0
 35 45  1  0  0  0
 35 68  1  0  0  0
 36 56  1  0  0  0
 36104  1  0  0  0
 37 39  1  0  0  0
 37 47  1  0  0  0
 37 66  1  0  0  0
 37105  1  0  0  0
 38 43  2  0  0  0
 38 46  1  0  0  0
 38 47  1  0  0  0
 39 64  1  0  0  0
 39 67  2  0  0  0
 40 52  1  0  0  0
 40 53  2  0  0  0
 40 58  1  0  0  0
 41106  1  0  0  0
 41107  1  0  0  0
 41108  1  0  0  0
 41 48  1  0  0  0
 42 43  1  0  0  0
 42 66  1  0  0  0
 42109  1  0  0  0
 42110  1  0  0  0
 43 44  1  0  0  0
 44111  1  0  0  0
 45 46  2  0  0  0
 45112  1  0  0  0
 46113  1  0  0  0
 47114  1  0  0  0
 47115  1  0  0  0
 48 56  1  0  0  0
 48 65  1  0  0  0
 48116  1  0  0  0
 49 50  1  0  0  0
 49 53  1  0  0  0
 49 64  1  0  0  0
 49117  1  0  0  0
 50 51  1  0  0  0
 50118  1  0  0  0
 50119  1  0  0  0
 51 52  1  0  0  0
 51120  1  0  0  0
 51121  1  0  0  0
 52122  1  0  0  0
 52123  1  0  0  0
 53 54  1  0  0  0
 54 55  2  0  0  0
 54124  1  0  0  0
 55 57  1  0  0  0
 55125  1  0  0  0
 56 69  2  0  0  0
 57 58  2  0  0  0
 57126  1  0  0  0
 58127  1  0  0  0
 59 60  1  0  0  0
 59 61  1  0  0  0
 59 62  1  0  0  0
 60128  1  0  0  0
 60129  1  0  0  0
 60130  1  0  0  0
 61131  1  0  0  0
 61132  1  0  0  0
 61133  1  0  0  0
 62134  1  0  0  0
 62135  1  0  0  0
 62136  1  0  0  0
 63 65  1  0  0  0
 63137  1  0  0  0
 63138  1  0  0  0
 63139  1  0  0  0
 64140  1  0  0  0
 65141  1  0  0  0
 68 81  1  0  0  0
 71 73  2  0  0  0
 71 74  1  0  0  0
 71142  1  0  0  0
 72 75  2  0  0  0
 72 76  1  0  0  0
 72143  1  0  0  0
 73 75  1  0  0  0
 73 79  1  0  0  0
 74 76  2  0  0  0
 74 77  1  0  0  0
 75 78  1  0  0  0
 76 82  1  0  0  0
 77144  1  0  0  0
 77145  1  0  0  0
 77146  1  0  0  0
 78147  1  0  0  0
 78148  1  0  0  0
 78149  1  0  0  0
 79 80  1  0  0  0
 79150  1  0  0  0
 79151  1  0  0  0
 80 81  1  0  0  0
 80152  1  0  0  0
 80153  1  0  0  0
 81154  1  0  0  0
 81155  1  0  0  0
 82156  1  0  0  0
M  ISO  4   1 100  68 101  81 101  82 100
M  END
> <chiral flag>
0

> <version>
0

> <s_m_source_file>
/data/baiqing/PycharmProjects/Reinvent-master-3.2/result/LINK_invent/BTK/process_docking_weight1_custom_sum_contain_oxygen_bond_distance_aromatic_linkinvent_7_9_3/rearranged_h_0028.sdf

> <i_m_source_file_index>
59

> <r_mmod_Potential_Energy-OPLS-2005>
323.449066162109

> <r_mmod_Stretch_Energy-OPLS-2005>
186.491333007812

> <r_mmod_Bend_Energy-OPLS-2005>
236.246704101562

> <r_mmod_Torsional_Energy-OPLS-2005>
220.607131958008

> <r_mmod_Improper_Torsional_Energy-OPLS-2005>
5.82401037216187

> <r_mmod_Van_der_Waal_Energy-OPLS-2005>
133.084808349609

> <r_mmod_Electrostatic_Energy-OPLS-2005>
-395.073272705078

> <r_mmod_Solvation_Energy-OPLS-2005>
-204.280395507812

> <b_mmod_Minimization_Converged-OPLS-2005>
0

> <r_mmod_RMS_Derivative-OPLS-2005>
0.552541315555573

$$$$
59
                    3D
 Structure written by MMmdl.
156164  0  0  1  0            999 V2000
  -30.7006  -14.4998   20.5294 C   0  0  0  0  0  0
  -30.4169  -12.3084   19.4312 C   0  0  0  0  0  0
  -29.4922  -12.4807   18.2083 C   0  0  0  0  0  0
  -28.0143  -12.3389   18.6243 C   0  0  0  0  0  0
  -27.6541  -13.1934   19.8710 C   0  0  2  0  0  0
  -28.7026  -13.0210   20.9937 C   0  0  0  0  0  0
  -25.2600  -13.8114   20.5705 C   0  0  0  0  0  0
  -24.1838  -13.0422   20.9216 C   0  0  0  0  0  0
  -24.6372  -11.6885   20.8770 C   0  0  0  0  0  0
  -23.9026  -10.4298   21.0451 C   0  0  0  0  0  0
  -24.3592   -9.4215   21.9216 C   0  0  0  0  0  0
  -23.6282   -8.2242   22.0776 C   0  0  0  0  0  0
  -22.4271   -8.0280   21.3556 C   0  0  0  0  0  0
  -21.9900   -9.0254   20.4663 C   0  0  0  0  0  0
  -22.7215  -10.2146   20.3085 C   0  0  0  0  0  0
  -21.6863   -6.0739   22.5284 C   0  0  0  0  0  0
  -21.4005   -6.5640   23.8218 C   0  0  0  0  0  0
  -21.3661   -5.6800   24.9178 C   0  0  0  0  0  0
  -21.6053   -4.3062   24.7230 C   0  0  0  0  0  0
  -21.8812   -3.8146   23.4348 C   0  0  0  0  0  0
  -21.9192   -4.6963   22.3410 C   0  0  0  0  0  0
  -22.7874  -13.5248   21.1856 C   0  0  0  0  0  0
  -22.1673   -4.2147   21.0989 F   0  0  0  0  0  0
  -21.5633   -3.4557   25.7745 F   0  0  0  0  0  0
  -30.0273  -13.3206   20.4273 N   0  0  0  0  0  0
  -26.2992  -12.9234   20.3361 N   0  0  0  0  0  0
  -25.9288  -11.6424   20.5797 N   0  0  0  0  0  0
  -22.0481  -12.8250   22.0383 N   0  0  0  0  0  0
  -25.4350  -15.1828   20.4066 N   0  0  0  0  0  0
  -31.8490  -14.6415   20.1042 O   0  0  0  0  0  0
  -21.6640   -6.8867   21.4246 O   0  0  0  0  0  0
  -22.3577  -14.5568   20.6712 O   0  0  0  0  0  0
  -24.6165  -31.8678   23.2128 C   0  0  0  0  0  0
  -25.9049  -32.4823   23.8445 C   0  0  1  0  0  0
  -27.2309  -27.4284   20.1078 C   0  0  0  0  0  0
  -25.5927  -33.8618   24.2382 N   0  0  0  0  0  0
  -23.4028  -30.4905   21.5562 C   0  0  2  0  0  0
  -24.8490  -28.9586   20.1162 C   0  0  0  0  0  0
  -22.7404  -29.4641   22.5048 C   0  0  0  0  0  0
  -18.0269  -28.1341   22.8407 C   0  0  0  0  0  0
  -24.1499  -36.7302   23.2641 C   0  0  0  0  0  0
  -25.9327  -30.8385   21.3607 C   0  0  0  0  0  0
  -26.0122  -29.4734   20.7033 C   0  0  0  0  0  0
  -27.2086  -28.7200   20.6860 C   0  0  0  0  0  0
  -26.0531  -26.9326   19.5046 C   0  0  0  0  0  0
  -24.8655  -27.6897   19.5096 C   0  0  0  0  0  0
  -23.6084  -29.8223   20.1720 C   0  0  0  0  0  0
  -25.4115  -36.3105   24.0357 C   0  0  1  0  0  0
  -20.5869  -28.3566   23.1291 C   0  0  2  0  0  0
  -20.6826  -26.9387   22.5142 C   0  0  0  0  0  0
  -19.5716  -26.6355   21.5043 C   0  0  0  0  0  0
  -18.1880  -26.7947   22.1406 C   0  0  0  0  0  0
  -19.1529  -28.8735   23.2918 C   0  0  0  0  0  0
  -18.9466  -30.1268   23.9076 C   0  0  0  0  0  0
  -17.6469  -30.6431   24.0698 C   0  0  0  0  0  0
  -25.9037  -34.9466   23.5153 C   0  0  0  0  0  0
  -16.5344  -29.9028   23.6323 C   0  0  0  0  0  0
  -16.7271  -28.6479   23.0273 C   0  0  0  0  0  0
  -26.4475  -31.6598   25.0762 C   0  0  0  0  0  0
  -25.3760  -31.3689   26.1531 C   0  0  0  0  0  0
  -27.0304  -30.3056   24.6097 C   0  0  0  0  0  0
  -27.6066  -32.4308   25.7501 C   0  0  0  0  0  0
  -27.5583  -37.1813   24.8472 C   0  0  0  0  0  0
  -21.4123  -29.3048   22.3809 N   0  0  0  0  0  0
  -26.4292  -37.3790   23.9420 N   0  0  0  0  0  0
  -24.6694  -31.0793   22.1014 N   0  0  0  0  0  0
  -23.4189  -28.8117   23.3014 O   0  0  0  0  0  0
  -28.3867  -26.6739   20.1292 O   0  0  0  0  0  0
  -26.5548  -34.8904   22.4690 O   0  0  0  0  0  0
  -23.5340  -32.1412   23.7500 O   0  0  0  0  0  0
  -29.6083  -19.3911   20.7275 C   0  0  0  0  0  0
  -27.9339  -20.1099   19.1207 C   0  0  0  0  0  0
  -28.8452  -20.4434   20.1482 C   0  0  0  0  0  0
  -29.5349  -18.0478   20.2529 C   0  0  0  0  0  0
  -27.8664  -18.8010   18.6133 C   0  0  0  0  0  0
  -28.6977  -17.7842   19.1311 C   0  0  0  0  0  0
  -30.4393  -16.9786   20.9207 C   0  0  0  0  0  0
  -29.0491  -21.9146   20.5893 C   0  0  0  0  0  0
  -28.5663  -24.2442   19.6103 C   0  0  0  0  0  0
  -28.2640  -25.3369   20.6645 C   0  0  0  0  0  0
  -29.9876  -15.5664   20.9556 N   0  0  0  0  0  0
  -28.0894  -22.8717   19.9679 N   0  3  0  0  0  0
  -26.7721  -18.4779   17.3127 Cl  0  0  0  0  0  0
  -28.7208  -16.2701   18.2953 Cl  0  0  0  0  0  0
  -31.4620  -12.3934   19.1320 H   0  0  0  0  0  0
  -30.3121  -11.3077   19.8509 H   0  0  0  0  0  0
  -29.7313  -11.7380   17.4461 H   0  0  0  0  0  0
  -29.6627  -13.4537   17.7454 H   0  0  0  0  0  0
  -27.8369  -11.2831   18.8355 H   0  0  0  0  0  0
  -27.3597  -12.5876   17.7876 H   0  0  0  0  0  0
  -27.6767  -14.2304   19.5560 H   0  0  0  0  0  0
  -28.6873  -11.9977   21.3723 H   0  0  0  0  0  0
  -28.4714  -13.6566   21.8490 H   0  0  0  0  0  0
  -25.2746   -9.5720   22.4757 H   0  0  0  0  0  0
  -24.0014   -7.4656   22.7508 H   0  0  0  0  0  0
  -21.0825   -8.8779   19.8963 H   0  0  0  0  0  0
  -22.3690  -10.9686   19.6183 H   0  0  0  0  0  0
  -21.1989   -7.6151   23.9720 H   0  0  0  0  0  0
  -21.1496   -6.0530   25.9083 H   0  0  0  0  0  0
  -22.0580   -2.7604   23.2861 H   0  0  0  0  0  0
  -22.4053  -11.9883   22.4729 H   0  0  0  0  0  0
  -21.1132  -13.1336   22.2623 H   0  0  0  0  0  0
  -24.6640  -15.8334   20.5007 H   0  0  0  0  0  0
  -26.2702  -15.6110   20.0277 H   0  0  0  0  0  0
  -26.7131  -32.5538   23.1221 H   0  0  0  0  0  0
  -25.0186  -33.9816   25.0592 H   0  0  0  0  0  0
  -22.6889  -31.3054   21.4169 H   0  0  0  0  0  0
  -23.3754  -35.9642   23.3309 H   0  0  0  0  0  0
  -24.3614  -36.8884   22.2056 H   0  0  0  0  0  0
  -23.7247  -37.6515   23.6621 H   0  0  0  0  0  0
  -26.0430  -31.6083   20.5951 H   0  0  0  0  0  0
  -26.8222  -30.8921   21.9754 H   0  0  0  0  0  0
  -28.1078  -29.1139   21.1376 H   0  0  0  0  0  0
  -26.0478  -25.9629   19.0302 H   0  0  0  0  0  0
  -23.9719  -27.2874   19.0531 H   0  0  0  0  0  0
  -23.7059  -30.5937   19.4082 H   0  0  0  0  0  0
  -22.7333  -29.2373   19.8861 H   0  0  0  0  0  0
  -25.1282  -36.1985   25.0847 H   0  0  0  0  0  0
  -20.9914  -28.2954   24.1404 H   0  0  0  0  0  0
  -20.6094  -26.2071   23.3203 H   0  0  0  0  0  0
  -21.6605  -26.7691   22.0622 H   0  0  0  0  0  0
  -19.6852  -25.6257   21.1065 H   0  0  0  0  0  0
  -19.6637  -27.3115   20.6524 H   0  0  0  0  0  0
  -17.4229  -26.6910   21.3687 H   0  0  0  0  0  0
  -18.0116  -25.9967   22.8636 H   0  0  0  0  0  0
  -19.7929  -30.6965   24.2663 H   0  0  0  0  0  0
  -17.5026  -31.6005   24.5508 H   0  0  0  0  0  0
  -15.5348  -30.2931   23.7691 H   0  0  0  0  0  0
  -15.8668  -28.0842   22.6922 H   0  0  0  0  0  0
  -24.5931  -30.7023   25.7897 H   0  0  0  0  0  0
  -24.8954  -32.2831   26.5024 H   0  0  0  0  0  0
  -25.8160  -30.8852   27.0265 H   0  0  0  0  0  0
  -26.2847  -29.6816   24.1156 H   0  0  0  0  0  0
  -27.4109  -29.7282   25.4537 H   0  0  0  0  0  0
  -27.8662  -30.4414   23.9228 H   0  0  0  0  0  0
  -27.2717  -33.3597   26.2128 H   0  0  0  0  0  0
  -28.3846  -32.6888   25.0304 H   0  0  0  0  0  0
  -28.0769  -31.8408   26.5374 H   0  0  0  0  0  0
  -28.2605  -38.0096   24.7494 H   0  0  0  0  0  0
  -28.1067  -36.2630   24.6324 H   0  0  0  0  0  0
  -27.2303  -37.1499   25.8871 H   0  0  0  0  0  0
  -20.9246  -29.8866   21.7139 H   0  0  0  0  0  0
  -26.0179  -38.2866   24.1409 H   0  0  0  0  0  0
  -30.2920  -19.6296   21.5309 H   0  0  0  0  0  0
  -27.2973  -20.8474   18.6575 H   0  0  0  0  0  0
  -30.5952  -17.2761   21.9576 H   0  0  0  0  0  0
  -31.4185  -17.0641   20.4462 H   0  0  0  0  0  0
  -30.0686  -22.1882   20.3133 H   0  0  0  0  0  0
  -28.9893  -21.9986   21.6760 H   0  0  0  0  0  0
  -29.6264  -24.2409   19.3529 H   0  0  0  0  0  0
  -28.0408  -24.5166   18.6936 H   0  0  0  0  0  0
  -28.9673  -25.2431   21.4917 H   0  0  0  0  0  0
  -27.2787  -25.1742   21.1025 H   0  0  0  0  0  0
  -29.0474  -15.3929   21.2735 H   0  0  0  0  0  0
  -27.8461  -22.4382   19.0941 H   0  0  0  0  0  0
  -27.2434  -22.9082   20.5165 H   0  0  0  0  0  0
  1 25  1  0  0  0
  1 30  2  0  0  0
  1 81  1  0  0  0
  2  3  1  0  0  0
  2 25  1  0  0  0
  2 85  1  0  0  0
  2 86  1  0  0  0
  3  4  1  0  0  0
  3 87  1  0  0  0
  3 88  1  0  0  0
  4  5  1  0  0  0
  4 89  1  0  0  0
  4 90  1  0  0  0
  5  6  1  0  0  0
  5 26  1  0  0  0
  5 91  1  0  0  0
  6 25  1  0  0  0
  6 92  1  0  0  0
  6 93  1  0  0  0
  7  8  2  0  0  0
  7 26  1  0  0  0
  7 29  1  0  0  0
  8  9  1  0  0  0
  8 22  1  0  0  0
  9 10  1  0  0  0
  9 27  2  0  0  0
 10 11  2  0  0  0
 10 15  1  0  0  0
 11 12  1  0  0  0
 11 94  1  0  0  0
 12 13  2  0  0  0
 12 95  1  0  0  0
 13 14  1  0  0  0
 13 31  1  0  0  0
 14 15  2  0  0  0
 14 96  1  0  0  0
 15 97  1  0  0  0
 16 17  2  0  0  0
 16 21  1  0  0  0
 16 31  1  0  0  0
 17 18  1  0  0  0
 17 98  1  0  0  0
 18 19  2  0  0  0
 18 99  1  0  0  0
 19 20  1  0  0  0
 19 24  1  0  0  0
 20 21  2  0  0  0
 20100  1  0  0  0
 21 23  1  0  0  0
 22 28  1  0  0  0
 22 32  2  0  0  0
 26 27  1  0  0  0
 28101  1  0  0  0
 28102  1  0  0  0
 29103  1  0  0  0
 29104  1  0  0  0
 33 34  1  0  0  0
 33 66  1  0  0  0
 33 70  2  0  0  0
 34 36  1  0  0  0
 34 59  1  0  0  0
 34105  1  0  0  0
 35 44  2  0  0  0
 35 45  1  0  0  0
 35 68  1  0  0  0
 36 56  1  0  0  0
 36106  1  0  0  0
 37 39  1  0  0  0
 37 47  1  0  0  0
 37 66  1  0  0  0
 37107  1  0  0  0
 38 43  2  0  0  0
 38 46  1  0  0  0
 38 47  1  0  0  0
 39 64  1  0  0  0
 39 67  2  0  0  0
 40 52  1  0  0  0
 40 53  2  0  0  0
 40 58  1  0  0  0
 41108  1  0  0  0
 41109  1  0  0  0
 41110  1  0  0  0
 41 48  1  0  0  0
 42 43  1  0  0  0
 42 66  1  0  0  0
 42111  1  0  0  0
 42112  1  0  0  0
 43 44  1  0  0  0
 44113  1  0  0  0
 45 46  2  0  0  0
 45114  1  0  0  0
 46115  1  0  0  0
 47116  1  0  0  0
 47117  1  0  0  0
 48 56  1  0  0  0
 48 65  1  0  0  0
 48118  1  0  0  0
 49 50  1  0  0  0
 49 53  1  0  0  0
 49 64  1  0  0  0
 49119  1  0  0  0
 50 51  1  0  0  0
 50120  1  0  0  0
 50121  1  0  0  0
 51 52  1  0  0  0
 51122  1  0  0  0
 51123  1  0  0  0
 52124  1  0  0  0
 52125  1  0  0  0
 53 54  1  0  0  0
 54 55  2  0  0  0
 54126  1  0  0  0
 55 57  1  0  0  0
 55127  1  0  0  0
 56 69  2  0  0  0
 57 58  2  0  0  0
 57128  1  0  0  0
 58129  1  0  0  0
 59 60  1  0  0  0
 59 61  1  0  0  0
 59 62  1  0  0  0
 60130  1  0  0  0
 60131  1  0  0  0
 60132  1  0  0  0
 61133  1  0  0  0
 61134  1  0  0  0
 61135  1  0  0  0
 62136  1  0  0  0
 62137  1  0  0  0
 62138  1  0  0  0
 63 65  1  0  0  0
 63139  1  0  0  0
 63140  1  0  0  0
 63141  1  0  0  0
 64142  1  0  0  0
 65143  1  0  0  0
 68 80  1  0  0  0
 71 73  2  0  0  0
 71 74  1  0  0  0
 71144  1  0  0  0
 72 73  1  0  0  0
 72 75  2  0  0  0
 72145  1  0  0  0
 73 78  1  0  0  0
 74 76  2  0  0  0
 74 77  1  0  0  0
 75 76  1  0  0  0
 75 83  1  0  0  0
 76 84  1  0  0  0
 77 81  1  0  0  0
 77146  1  0  0  0
 77147  1  0  0  0
 78 82  1  0  0  0
 78148  1  0  0  0
 78149  1  0  0  0
 79 80  1  0  0  0
 79 82  1  0  0  0
 79150  1  0  0  0
 79151  1  0  0  0
 80152  1  0  0  0
 80153  1  0  0  0
 81154  1  0  0  0
 82155  1  0  0  0
 82156  1  0  0  0
M  CHG  1  82   1
M  ISO  4   1 100  68 101  80 101  81 100
M  END
> <chiral flag>
0

> <version>
0

> <s_m_source_file>
/data/baiqing/PycharmProjects/Reinvent-master-3.2/result/LINK_invent/BTK/process_docking_weight1_custom_sum_contain_oxygen_bond_distance_aromatic_linkinvent_7_9_3/rearranged_h_0028.sdf

> <i_m_source_file_index>
60

> <r_mmod_Potential_Energy-OPLS-2005>
-200.832366943359

> <r_mmod_Stretch_Energy-OPLS-2005>
44.5595245361328

> <r_mmod_Bend_Energy-OPLS-2005>
104.511474609375

> <r_mmod_Torsional_Energy-OPLS-2005>
227.206161499023

> <r_mmod_Improper_Torsional_Energy-OPLS-2005>
4.57786750793457

> <r_mmod_Van_der_Waal_Energy-OPLS-2005>
149.146896362305

> <r_mmod_Electrostatic_Energy-OPLS-2005>
-262.426788330078

> <r_mmod_Solvation_Energy-OPLS-2005>
-485.829010009766

> <b_mmod_Minimization_Converged-OPLS-2005>
0

> <r_mmod_RMS_Derivative-OPLS-2005>
3.14869332313538

$$$$
60
                    3D
 Structure written by MMmdl.
149157  0  0  1  0            999 V2000
  -30.5864  -14.8620   20.4273 C   0  0  0  0  0  0
  -30.4297  -12.5289   19.4948 C   0  0  0  0  0  0
  -29.5149  -12.5144   18.2501 C   0  0  0  0  0  0
  -28.0443  -12.3222   18.6648 C   0  0  0  0  0  0
  -27.6314  -13.2459   19.8416 C   0  0  2  0  0  0
  -28.6736  -13.2490   20.9801 C   0  0  0  0  0  0
  -25.2459  -13.8218   20.5708 C   0  0  0  0  0  0
  -24.1774  -13.0441   20.9225 C   0  0  0  0  0  0
  -24.6391  -11.6928   20.8755 C   0  0  0  0  0  0
  -23.9078  -10.4294   21.0406 C   0  0  0  0  0  0
  -24.3627   -9.4206   21.9183 C   0  0  0  0  0  0
  -23.6298   -8.2243   22.0755 C   0  0  0  0  0  0
  -22.4279   -8.0282   21.3545 C   0  0  0  0  0  0
  -21.9916   -9.0258   20.4649 C   0  0  0  0  0  0
  -22.7249  -10.2135   20.3056 C   0  0  0  0  0  0
  -21.6853   -6.0735   22.5278 C   0  0  0  0  0  0
  -21.4018   -6.5639   23.8211 C   0  0  0  0  0  0
  -21.3661   -5.6793   24.9174 C   0  0  0  0  0  0
  -21.6044   -4.3054   24.7225 C   0  0  0  0  0  0
  -21.8820   -3.8146   23.4346 C   0  0  0  0  0  0
  -21.9191   -4.6962   22.3402 C   0  0  0  0  0  0
  -22.7792  -13.5209   21.1881 C   0  0  0  0  0  0
  -22.1660   -4.2147   21.0979 F   0  0  0  0  0  0
  -21.5624   -3.4539   25.7738 F   0  0  0  0  0  0
  -29.9596  -13.6256   20.3840 N   0  0  0  0  0  0
  -26.2888  -12.9451   20.3257 N   0  0  0  0  0  0
  -25.9323  -11.6581   20.5751 N   0  0  0  0  0  0
  -22.0447  -12.8197   22.0441 N   0  0  0  0  0  0
  -25.4116  -15.1947   20.4128 N   0  0  0  0  0  0
  -31.7878  -14.9072   20.1475 O   0  0  0  0  0  0
  -21.6643   -6.8879   21.4240 O   0  0  0  0  0  0
  -22.3470  -14.5508   20.6720 O   0  0  0  0  0  0
  -24.6386  -31.8484   23.1914 C   0  0  0  0  0  0
  -25.9178  -32.4718   23.8289 C   0  0  1  0  0  0
  -27.2146  -27.1823   20.1436 C   0  0  0  0  0  0
  -25.5938  -33.8522   24.2205 N   0  0  0  0  0  0
  -23.4394  -30.4689   21.5367 C   0  0  2  0  0  0
  -24.8870  -28.9027   20.1096 C   0  0  0  0  0  0
  -22.7544  -29.4569   22.4881 C   0  0  0  0  0  0
  -18.0300  -28.1395   22.8482 C   0  0  0  0  0  0
  -24.1489  -36.7269   23.2642 C   0  0  0  0  0  0
  -25.9917  -30.7370   21.3823 C   0  0  0  0  0  0
  -26.0628  -29.3526   20.7235 C   0  0  0  0  0  0
  -27.2290  -28.5079   20.7229 C   0  0  0  0  0  0
  -26.0139  -26.8199   19.4950 C   0  0  0  0  0  0
  -24.8728  -27.6486   19.4807 C   0  0  0  0  0  0
  -23.6617  -29.7994   20.1549 C   0  0  0  0  0  0
  -25.4120  -36.3048   24.0317 C   0  0  1  0  0  0
  -20.5911  -28.3716   23.1253 C   0  0  2  0  0  0
  -20.6787  -26.9424   22.5410 C   0  0  0  0  0  0
  -19.5757  -26.6384   21.5220 C   0  0  0  0  0  0
  -18.1939  -26.7935   22.1629 C   0  0  0  0  0  0
  -19.1557  -28.8874   23.2861 C   0  0  0  0  0  0
  -18.9471  -30.1472   23.8882 C   0  0  0  0  0  0
  -17.6467  -30.6592   24.0564 C   0  0  0  0  0  0
  -25.9066  -34.9421   23.5070 C   0  0  0  0  0  0
  -16.5359  -29.9086   23.6335 C   0  0  0  0  0  0
  -16.7286  -28.6506   23.0355 C   0  0  0  0  0  0
  -26.4512  -31.6575   25.0716 C   0  0  0  0  0  0
  -25.3706  -31.3755   26.1418 C   0  0  0  0  0  0
  -27.0376  -30.2977   24.6272 C   0  0  0  0  0  0
  -27.6040  -32.4345   25.7501 C   0  0  0  0  0  0
  -27.5576  -37.1791   24.8464 C   0  0  0  0  0  0
  -21.4242  -29.3047   22.3629 N   0  0  0  0  0  0
  -26.4288  -37.3756   23.9406 N   0  0  0  0  0  0
  -24.7096  -31.0382   22.0923 N   0  0  0  0  0  0
  -23.4212  -28.8117   23.3013 O   0  0  0  0  0  0
  -28.2837  -26.2329   20.2130 O   0  0  0  0  0  0
  -26.5656  -34.8910   22.4651 O   0  0  0  0  0  0
  -23.5517  -32.1339   23.7163 O   0  0  0  0  0  0
  -29.0630  -21.1182   21.6017 C   0  0  0  0  0  0
  -29.6602  -18.9908   20.3811 C   0  0  0  0  0  0
  -29.3562  -19.7045   21.5816 C   0  0  0  0  0  0
  -29.0599  -21.9326   20.4304 C   0  0  0  0  0  0
  -29.5579  -19.8739   19.2464 C   0  0  0  0  0  0
  -30.3891  -17.5120   20.3318 C   0  0  0  0  0  0
  -29.1614  -23.5702   20.4756 C   0  0  0  0  0  0
  -28.0319  -24.7159   20.0867 C   0  0  0  0  0  0
  -29.2851  -21.2389   19.2720 N   0  0  0  0  0  0
  -29.8527  -16.0620   20.5560 N   0  0  0  0  0  0
  -29.4491  -18.8722   23.0923 Cl  0  0  0  0  0  0
  -29.8752  -19.2399   17.6719 Cl  0  0  0  0  0  0
  -31.4694  -12.6584   19.1903 H   0  0  0  0  0  0
  -30.3919  -11.5708   20.0155 H   0  0  0  0  0  0
  -29.8174  -11.7204   17.5659 H   0  0  0  0  0  0
  -29.6243  -13.4515   17.7018 H   0  0  0  0  0  0
  -27.9212  -11.2786   18.9564 H   0  0  0  0  0  0
  -27.3853  -12.4783   17.8100 H   0  0  0  0  0  0
  -27.6043  -14.2542   19.4276 H   0  0  0  0  0  0
  -28.7369  -12.2710   21.4596 H   0  0  0  0  0  0
  -28.3904  -13.9589   21.7590 H   0  0  0  0  0  0
  -25.2771   -9.5676   22.4761 H   0  0  0  0  0  0
  -24.0003   -7.4632   22.7474 H   0  0  0  0  0  0
  -21.0846   -8.8780   19.8957 H   0  0  0  0  0  0
  -22.3706  -10.9676   19.6167 H   0  0  0  0  0  0
  -21.2018   -7.6149   23.9712 H   0  0  0  0  0  0
  -21.1479   -6.0525   25.9075 H   0  0  0  0  0  0
  -22.0598   -2.7609   23.2847 H   0  0  0  0  0  0
  -22.4080  -11.9871   22.4837 H   0  0  0  0  0  0
  -21.1060  -13.1208   22.2647 H   0  0  0  0  0  0
  -24.6406  -15.8443   20.5237 H   0  0  0  0  0  0
  -26.2514  -15.6369   20.0632 H   0  0  0  0  0  0
  -26.7243  -32.5339   23.1020 H   0  0  0  0  0  0
  -25.0053  -33.9641   25.0329 H   0  0  0  0  0  0
  -22.7391  -31.2932   21.3858 H   0  0  0  0  0  0
  -23.3751  -35.9602   23.3298 H   0  0  0  0  0  0
  -24.3573  -36.8909   22.2058 H   0  0  0  0  0  0
  -23.7243  -37.6463   23.6684 H   0  0  0  0  0  0
  -26.1417  -31.4938   20.6111 H   0  0  0  0  0  0
  -26.8650  -30.7862   22.0217 H   0  0  0  0  0  0
  -28.1268  -28.8466   21.2205 H   0  0  0  0  0  0
  -25.9263  -25.8600   19.0091 H   0  0  0  0  0  0
  -23.9739  -27.2999   18.9910 H   0  0  0  0  0  0
  -23.7922  -30.5742   19.3985 H   0  0  0  0  0  0
  -22.7776  -29.2380   19.8479 H   0  0  0  0  0  0
  -25.1306  -36.1881   25.0810 H   0  0  0  0  0  0
  -21.0005  -28.3303   24.1375 H   0  0  0  0  0  0
  -20.5693  -26.2326   23.3623 H   0  0  0  0  0  0
  -21.6651  -26.7441   22.1199 H   0  0  0  0  0  0
  -19.6916  -25.6293   21.1257 H   0  0  0  0  0  0
  -19.6691  -27.3190   20.6748 H   0  0  0  0  0  0
  -17.4209  -26.6686   21.4032 H   0  0  0  0  0  0
  -18.0333  -26.0082   22.9030 H   0  0  0  0  0  0
  -19.7946  -30.7299   24.2240 H   0  0  0  0  0  0
  -17.5018  -31.6270   24.5172 H   0  0  0  0  0  0
  -15.5357  -30.2982   23.7668 H   0  0  0  0  0  0
  -15.8688  -28.0821   22.7074 H   0  0  0  0  0  0
  -24.5885  -30.7101   25.7741 H   0  0  0  0  0  0
  -24.8891  -32.2934   26.4799 H   0  0  0  0  0  0
  -25.7995  -30.8957   27.0224 H   0  0  0  0  0  0
  -26.2987  -29.6705   24.1272 H   0  0  0  0  0  0
  -27.3996  -29.7271   25.4834 H   0  0  0  0  0  0
  -27.8889  -30.4224   23.9576 H   0  0  0  0  0  0
  -27.2624  -33.3657   26.2032 H   0  0  0  0  0  0
  -28.3873  -32.6890   25.0350 H   0  0  0  0  0  0
  -28.0684  -31.8505   26.5457 H   0  0  0  0  0  0
  -28.2589  -38.0092   24.7509 H   0  0  0  0  0  0
  -28.1075  -36.2620   24.6294 H   0  0  0  0  0  0
  -27.2292  -37.1445   25.8868 H   0  0  0  0  0  0
  -20.9444  -29.8752   21.6808 H   0  0  0  0  0  0
  -26.0157  -38.2826   24.1406 H   0  0  0  0  0  0
  -28.9333  -21.5965   22.5627 H   0  0  0  0  0  0
  -31.2062  -17.6035   21.0486 H   0  0  0  0  0  0
  -30.9115  -17.4618   19.3768 H   0  0  0  0  0  0
  -30.0415  -23.8080   19.8788 H   0  0  0  0  0  0
  -29.4676  -23.8004   21.4957 H   0  0  0  0  0  0
  -27.1455  -24.4939   20.6822 H   0  0  0  0  0  0
  -27.7459  -24.5288   19.0516 H   0  0  0  0  0  0
  -28.8672  -15.9630   20.7465 H   0  0  0  0  0  0
  1 25  1  0  0  0
  1 30  2  0  0  0
  1 80  1  0  0  0
  2  3  1  0  0  0
  2 25  1  0  0  0
  2 83  1  0  0  0
  2 84  1  0  0  0
  3  4  1  0  0  0
  3 85  1  0  0  0
  3 86  1  0  0  0
  4  5  1  0  0  0
  4 87  1  0  0  0
  4 88  1  0  0  0
  5  6  1  0  0  0
  5 26  1  0  0  0
  5 89  1  0  0  0
  6 25  1  0  0  0
  6 90  1  0  0  0
  6 91  1  0  0  0
  7  8  2  0  0  0
  7 26  1  0  0  0
  7 29  1  0  0  0
  8  9  1  0  0  0
  8 22  1  0  0  0
  9 10  1  0  0  0
  9 27  2  0  0  0
 10 11  2  0  0  0
 10 15  1  0  0  0
 11 12  1  0  0  0
 11 92  1  0  0  0
 12 13  2  0  0  0
 12 93  1  0  0  0
 13 14  1  0  0  0
 13 31  1  0  0  0
 14 15  2  0  0  0
 14 94  1  0  0  0
 15 95  1  0  0  0
 16 17  2  0  0  0
 16 21  1  0  0  0
 16 31  1  0  0  0
 17 18  1  0  0  0
 17 96  1  0  0  0
 18 19  2  0  0  0
 18 97  1  0  0  0
 19 20  1  0  0  0
 19 24  1  0  0  0
 20 21  2  0  0  0
 20 98  1  0  0  0
 21 23  1  0  0  0
 22 28  1  0  0  0
 22 32  2  0  0  0
 26 27  1  0  0  0
 28 99  1  0  0  0
 28100  1  0  0  0
 29101  1  0  0  0
 29102  1  0  0  0
 33 34  1  0  0  0
 33 66  1  0  0  0
 33 70  2  0  0  0
 34 36  1  0  0  0
 34 59  1  0  0  0
 34103  1  0  0  0
 35 44  2  0  0  0
 35 45  1  0  0  0
 35 68  1  0  0  0
 36 56  1  0  0  0
 36104  1  0  0  0
 37 39  1  0  0  0
 37 47  1  0  0  0
 37 66  1  0  0  0
 37105  1  0  0  0
 38 43  2  0  0  0
 38 46  1  0  0  0
 38 47  1  0  0  0
 39 64  1  0  0  0
 39 67  2  0  0  0
 40 52  1  0  0  0
 40 53  2  0  0  0
 40 58  1  0  0  0
 41106  1  0  0  0
 41107  1  0  0  0
 41108  1  0  0  0
 41 48  1  0  0  0
 42 43  1  0  0  0
 42 66  1  0  0  0
 42109  1  0  0  0
 42110  1  0  0  0
 43 44  1  0  0  0
 44111  1  0  0  0
 45 46  2  0  0  0
 45112  1  0  0  0
 46113  1  0  0  0
 47114  1  0  0  0
 47115  1  0  0  0
 48 56  1  0  0  0
 48 65  1  0  0  0
 48116  1  0  0  0
 49 50  1  0  0  0
 49 53  1  0  0  0
 49 64  1  0  0  0
 49117  1  0  0  0
 50 51  1  0  0  0
 50118  1  0  0  0
 50119  1  0  0  0
 51 52  1  0  0  0
 51120  1  0  0  0
 51121  1  0  0  0
 52122  1  0  0  0
 52123  1  0  0  0
 53 54  1  0  0  0
 54 55  2  0  0  0
 54124  1  0  0  0
 55 57  1  0  0  0
 55125  1  0  0  0
 56 69  2  0  0  0
 57 58  2  0  0  0
 57126  1  0  0  0
 58127  1  0  0  0
 59 60  1  0  0  0
 59 61  1  0  0  0
 59 62  1  0  0  0
 60128  1  0  0  0
 60129  1  0  0  0
 60130  1  0  0  0
 61131  1  0  0  0
 61132  1  0  0  0
 61133  1  0  0  0
 62134  1  0  0  0
 62135  1  0  0  0
 62136  1  0  0  0
 63 65  1  0  0  0
 63137  1  0  0  0
 63138  1  0  0  0
 63139  1  0  0  0
 64140  1  0  0  0
 65141  1  0  0  0
 68 78  1  0  0  0
 71 73  2  0  0  0
 71 74  1  0  0  0
 71142  1  0  0  0
 72 73  1  0  0  0
 72 75  2  0  0  0
 72 76  1  0  0  0
 73 81  1  0  0  0
 74 77  1  0  0  0
 74 79  2  0  0  0
 75 79  1  0  0  0
 75 82  1  0  0  0
 76 80  1  0  0  0
 76143  1  0  0  0
 76144  1  0  0  0
 77 78  1  0  0  0
 77145  1  0  0  0
 77146  1  0  0  0
 78147  1  0  0  0
 78148  1  0  0  0
 80149  1  0  0  0
M  ISO  4   1 100  68 101  78 101  80 100
M  END
> <chiral flag>
0

> <version>
0

> <s_m_source_file>
/data/baiqing/PycharmProjects/Reinvent-master-3.2/result/LINK_invent/BTK/process_docking_weight1_custom_sum_contain_oxygen_bond_distance_aromatic_linkinvent_7_9_3/rearranged_h_0028.sdf

> <i_m_source_file_index>
61

> <r_mmod_Potential_Energy-OPLS-2005>
209.431900024414

> <r_mmod_Stretch_Energy-OPLS-2005>
191.273513793945

> <r_mmod_Bend_Energy-OPLS-2005>
240.563140869141

> <r_mmod_Torsional_Energy-OPLS-2005>
216.428192138672

> <r_mmod_Improper_Torsional_Energy-OPLS-2005>
10.0410814285278

> <r_mmod_Van_der_Waal_Energy-OPLS-2005>
135.113479614258

> <r_mmod_Electrostatic_Energy-OPLS-2005>
-513.131530761719

> <r_mmod_Solvation_Energy-OPLS-2005>
-215.189407348633

> <b_mmod_Minimization_Converged-OPLS-2005>
0

> <r_mmod_RMS_Derivative-OPLS-2005>
0.514120519161224

$$$$
61
                    3D
 Structure written by MMmdl.
151160  0  0  1  0            999 V2000
  -30.4788  -15.1613   20.3656 C   0  0  0  0  0  0
  -30.4344  -12.7228   19.5363 C   0  0  0  0  0  0
  -29.5350  -12.5580   18.2861 C   0  0  0  0  0  0
  -28.0741  -12.3080   18.6998 C   0  0  0  0  0  0
  -27.6136  -13.2733   19.8212 C   0  0  2  0  0  0
  -28.6433  -13.4109   20.9599 C   0  0  0  0  0  0
  -25.2405  -13.8262   20.5738 C   0  0  0  0  0  0
  -24.1745  -13.0448   20.9223 C   0  0  0  0  0  0
  -24.6397  -11.6943   20.8735 C   0  0  0  0  0  0
  -23.9093  -10.4300   21.0394 C   0  0  0  0  0  0
  -24.3639   -9.4215   21.9176 C   0  0  0  0  0  0
  -23.6308   -8.2252   22.0752 C   0  0  0  0  0  0
  -22.4288   -8.0288   21.3545 C   0  0  0  0  0  0
  -21.9927   -9.0260   20.4644 C   0  0  0  0  0  0
  -22.7261  -10.2136   20.3048 C   0  0  0  0  0  0
  -21.6859   -6.0740   22.5279 C   0  0  0  0  0  0
  -21.4018   -6.5643   23.8213 C   0  0  0  0  0  0
  -21.3660   -5.6794   24.9174 C   0  0  0  0  0  0
  -21.6044   -4.3057   24.7224 C   0  0  0  0  0  0
  -21.8819   -3.8149   23.4345 C   0  0  0  0  0  0
  -21.9194   -4.6967   22.3402 C   0  0  0  0  0  0
  -22.7765  -13.5198   21.1890 C   0  0  0  0  0  0
  -22.1662   -4.2153   21.0979 F   0  0  0  0  0  0
  -21.5627   -3.4540   25.7736 F   0  0  0  0  0  0
  -29.9033  -13.8669   20.3582 N   0  0  0  0  0  0
  -26.2821  -12.9531   20.3188 N   0  0  0  0  0  0
  -25.9332  -11.6636   20.5692 N   0  0  0  0  0  0
  -22.0433  -12.8174   22.0450 N   0  0  0  0  0  0
  -25.4076  -15.2000   20.4259 N   0  0  0  0  0  0
  -31.6986  -15.1354   20.1365 O   0  0  0  0  0  0
  -21.6649   -6.8886   21.4243 O   0  0  0  0  0  0
  -22.3435  -14.5499   20.6740 O   0  0  0  0  0  0
  -24.6560  -31.8300   23.1749 C   0  0  0  0  0  0
  -25.9272  -32.4620   23.8191 C   0  0  1  0  0  0
  -27.2162  -26.9951   20.1816 C   0  0  0  0  0  0
  -25.5967  -33.8431   24.2104 N   0  0  0  0  0  0
  -23.4666  -30.4429   21.5231 C   0  0  2  0  0  0
  -24.9177  -28.8382   20.1135 C   0  0  0  0  0  0
  -22.7628  -29.4474   22.4810 C   0  0  0  0  0  0
  -18.0315  -28.1404   22.8471 C   0  0  0  0  0  0
  -24.1493  -36.7220   23.2646 C   0  0  0  0  0  0
  -26.0306  -30.6594   21.3928 C   0  0  0  0  0  0
  -26.0992  -29.2549   20.7391 C   0  0  0  0  0  0
  -27.2464  -28.3538   20.7459 C   0  0  0  0  0  0
  -26.0073  -26.7087   19.5127 C   0  0  0  0  0  0
  -24.8927  -27.5841   19.4806 C   0  0  0  0  0  0
  -23.7014  -29.7590   20.1482 C   0  0  0  0  0  0
  -25.4131  -36.2985   24.0304 C   0  0  1  0  0  0
  -20.5934  -28.3741   23.1207 C   0  0  2  0  0  0
  -20.6794  -26.9430   22.5405 C   0  0  0  0  0  0
  -19.5768  -26.6378   21.5215 C   0  0  0  0  0  0
  -18.1950  -26.7939   22.1623 C   0  0  0  0  0  0
  -19.1574  -28.8893   23.2828 C   0  0  0  0  0  0
  -18.9487  -30.1485   23.8859 C   0  0  0  0  0  0
  -17.6481  -30.6596   24.0556 C   0  0  0  0  0  0
  -25.9092  -34.9367   23.5022 C   0  0  0  0  0  0
  -16.5372  -29.9085   23.6341 C   0  0  0  0  0  0
  -16.7298  -28.6505   23.0361 C   0  0  0  0  0  0
  -26.4548  -31.6542   25.0693 C   0  0  0  0  0  0
  -25.3694  -31.3773   26.1363 C   0  0  0  0  0  0
  -27.0436  -30.2920   24.6376 C   0  0  0  0  0  0
  -27.6049  -32.4341   25.7493 C   0  0  0  0  0  0
  -27.5571  -37.1768   24.8465 C   0  0  0  0  0  0
  -21.4306  -29.3043   22.3562 N   0  0  0  0  0  0
  -26.4281  -37.3716   23.9408 N   0  0  0  0  0  0
  -24.7386  -31.0029   22.0845 N   0  0  0  0  0  0
  -23.4209  -28.8044   23.3027 O   0  0  0  0  0  0
  -28.2550  -25.9516   20.2408 O   0  0  0  0  0  0
  -26.5696  -34.8893   22.4614 O   0  0  0  0  0  0
  -23.5647  -32.1238   23.6888 O   0  0  0  0  0  0
  -30.2859  -18.0075   20.3030 C   0  0  0  0  0  0
  -29.7479  -16.6775   20.4480 C   0  0  0  0  0  0
  -29.2567  -19.1130   20.3891 C   0  0  0  0  0  0
  -28.7283  -21.7965   21.5099 C   0  0  0  0  0  0
  -28.4870  -21.6978   19.1513 C   0  0  0  0  0  0
  -28.8066  -23.4558   21.4266 C   0  0  0  0  0  0
  -28.5659  -23.3609   19.0724 C   0  0  0  0  0  0
  -29.2390  -20.8478   20.3059 C   0  0  2  0  0  0
  -28.0791  -24.3355   20.2743 C   0  0  2  0  0  0
  -28.1376  -18.3857   20.5773 N   0  0  0  0  0  0
  -28.4089  -16.9665   20.6101 O   0  0  0  0  0  0
  -31.4655  -12.8875   19.2212 H   0  0  0  0  0  0
  -30.4538  -11.8025   20.1224 H   0  0  0  0  0  0
  -29.8950  -11.7379   17.6636 H   0  0  0  0  0  0
  -29.5941  -13.4587   17.6731 H   0  0  0  0  0  0
  -28.0051  -11.2778   19.0512 H   0  0  0  0  0  0
  -27.4132  -12.3808   17.8352 H   0  0  0  0  0  0
  -27.5422  -14.2509   19.3427 H   0  0  0  0  0  0
  -28.7717  -12.4698   21.4967 H   0  0  0  0  0  0
  -28.3003  -14.1428   21.6929 H   0  0  0  0  0  0
  -25.2782   -9.5693   22.4754 H   0  0  0  0  0  0
  -24.0015   -7.4646   22.7475 H   0  0  0  0  0  0
  -21.0857   -8.8781   19.8951 H   0  0  0  0  0  0
  -22.3716  -10.9674   19.6158 H   0  0  0  0  0  0
  -21.2013   -7.6151   23.9718 H   0  0  0  0  0  0
  -21.1482   -6.0524   25.9077 H   0  0  0  0  0  0
  -22.0596   -2.7612   23.2844 H   0  0  0  0  0  0
  -22.4073  -11.9843   22.4833 H   0  0  0  0  0  0
  -21.1046  -13.1177   22.2664 H   0  0  0  0  0  0
  -24.6476  -15.8555   20.5707 H   0  0  0  0  0  0
  -26.2768  -15.6564   20.1746 H   0  0  0  0  0  0
  -26.7338  -32.5180   23.0908 H   0  0  0  0  0  0
  -25.0076  -33.9520   25.0227 H   0  0  0  0  0  0
  -22.7763  -31.2724   21.3562 H   0  0  0  0  0  0
  -23.3766  -35.9541   23.3283 H   0  0  0  0  0  0
  -24.3572  -36.8888   22.2066 H   0  0  0  0  0  0
  -23.7240  -37.6399   23.6714 H   0  0  0  0  0  0
  -26.2012  -31.4038   20.6140 H   0  0  0  0  0  0
  -26.8947  -30.7155   22.0431 H   0  0  0  0  0  0
  -28.1461  -28.6720   21.2537 H   0  0  0  0  0  0
  -25.9009  -25.7491   19.0272 H   0  0  0  0  0  0
  -23.9933  -27.2604   18.9750 H   0  0  0  0  0  0
  -23.8510  -30.5273   19.3889 H   0  0  0  0  0  0
  -22.8124  -29.2090   19.8344 H   0  0  0  0  0  0
  -25.1328  -36.1788   25.0796 H   0  0  0  0  0  0
  -21.0024  -28.3343   24.1330 H   0  0  0  0  0  0
  -20.5679  -26.2358   23.3638 H   0  0  0  0  0  0
  -21.6658  -26.7417   22.1208 H   0  0  0  0  0  0
  -19.6928  -25.6279   21.1269 H   0  0  0  0  0  0
  -19.6706  -27.3167   20.6728 H   0  0  0  0  0  0
  -17.4218  -26.6682   21.4028 H   0  0  0  0  0  0
  -18.0346  -26.0090   22.9029 H   0  0  0  0  0  0
  -19.7962  -30.7312   24.2211 H   0  0  0  0  0  0
  -17.5033  -31.6273   24.5165 H   0  0  0  0  0  0
  -15.5370  -30.2974   23.7688 H   0  0  0  0  0  0
  -15.8698  -28.0810   22.7099 H   0  0  0  0  0  0
  -24.5883  -30.7116   25.7673 H   0  0  0  0  0  0
  -24.8876  -32.2969   26.4694 H   0  0  0  0  0  0
  -25.7941  -30.9000   27.0203 H   0  0  0  0  0  0
  -26.3087  -29.6608   24.1368 H   0  0  0  0  0  0
  -27.3981  -29.7266   25.5004 H   0  0  0  0  0  0
  -27.9021  -30.4120   23.9764 H   0  0  0  0  0  0
  -27.2621  -33.3675   26.1970 H   0  0  0  0  0  0
  -28.3913  -32.6848   25.0362 H   0  0  0  0  0  0
  -28.0659  -31.8535   26.5493 H   0  0  0  0  0  0
  -28.2573  -38.0078   24.7511 H   0  0  0  0  0  0
  -28.1081  -36.2604   24.6294 H   0  0  0  0  0  0
  -27.2286  -37.1412   25.8868 H   0  0  0  0  0  0
  -20.9547  -29.8731   21.6698 H   0  0  0  0  0  0
  -26.0132  -38.2776   24.1415 H   0  0  0  0  0  0
  -31.3404  -18.1781   20.1401 H   0  0  0  0  0  0
  -27.6911  -21.5296   21.7165 H   0  0  0  0  0  0
  -29.2733  -21.4928   22.4041 H   0  0  0  0  0  0
  -28.8417  -21.3132   18.1948 H   0  0  0  0  0  0
  -27.4318  -21.4241   19.1827 H   0  0  0  0  0  0
  -29.8655  -23.7164   21.4020 H   0  0  0  0  0  0
  -28.4561  -23.8414   22.3843 H   0  0  0  0  0  0
  -28.0232  -23.6678   18.1780 H   0  0  0  0  0  0
  -29.6050  -23.6144   18.8593 H   0  0  0  0  0  0
  -30.2912  -21.1074   20.1867 H   0  0  0  0  0  0
  -27.0087  -24.1695   20.3977 H   0  0  0  0  0  0
  1 25  1  0  0  0
  1 30  2  0  0  0
  1 72  1  0  0  0
  2  3  1  0  0  0
  2 25  1  0  0  0
  2 82  1  0  0  0
  2 83  1  0  0  0
  3  4  1  0  0  0
  3 84  1  0  0  0
  3 85  1  0  0  0
  4  5  1  0  0  0
  4 86  1  0  0  0
  4 87  1  0  0  0
  5  6  1  0  0  0
  5 26  1  0  0  0
  5 88  1  0  0  0
  6 25  1  0  0  0
  6 89  1  0  0  0
  6 90  1  0  0  0
  7  8  2  0  0  0
  7 26  1  0  0  0
  7 29  1  0  0  0
  8  9  1  0  0  0
  8 22  1  0  0  0
  9 10  1  0  0  0
  9 27  2  0  0  0
 10 11  2  0  0  0
 10 15  1  0  0  0
 11 12  1  0  0  0
 11 91  1  0  0  0
 12 13  2  0  0  0
 12 92  1  0  0  0
 13 14  1  0  0  0
 13 31  1  0  0  0
 14 15  2  0  0  0
 14 93  1  0  0  0
 15 94  1  0  0  0
 16 17  2  0  0  0
 16 21  1  0  0  0
 16 31  1  0  0  0
 17 18  1  0  0  0
 17 95  1  0  0  0
 18 19  2  0  0  0
 18 96  1  0  0  0
 19 20  1  0  0  0
 19 24  1  0  0  0
 20 21  2  0  0  0
 20 97  1  0  0  0
 21 23  1  0  0  0
 22 28  1  0  0  0
 22 32  2  0  0  0
 26 27  1  0  0  0
 28 98  1  0  0  0
 28 99  1  0  0  0
 29100  1  0  0  0
 29101  1  0  0  0
 33 34  1  0  0  0
 33 66  1  0  0  0
 33 70  2  0  0  0
 34 36  1  0  0  0
 34 59  1  0  0  0
 34102  1  0  0  0
 35 44  2  0  0  0
 35 45  1  0  0  0
 35 68  1  0  0  0
 36 56  1  0  0  0
 36103  1  0  0  0
 37 39  1  0  0  0
 37 47  1  0  0  0
 37 66  1  0  0  0
 37104  1  0  0  0
 38 43  2  0  0  0
 38 46  1  0  0  0
 38 47  1  0  0  0
 39 64  1  0  0  0
 39 67  2  0  0  0
 40 52  1  0  0  0
 40 53  2  0  0  0
 40 58  1  0  0  0
 41105  1  0  0  0
 41106  1  0  0  0
 41107  1  0  0  0
 41 48  1  0  0  0
 42 43  1  0  0  0
 42 66  1  0  0  0
 42108  1  0  0  0
 42109  1  0  0  0
 43 44  1  0  0  0
 44110  1  0  0  0
 45 46  2  0  0  0
 45111  1  0  0  0
 46112  1  0  0  0
 47113  1  0  0  0
 47114  1  0  0  0
 48 56  1  0  0  0
 48 65  1  0  0  0
 48115  1  0  0  0
 49 50  1  0  0  0
 49 53  1  0  0  0
 49 64  1  0  0  0
 49116  1  0  0  0
 50 51  1  0  0  0
 50117  1  0  0  0
 50118  1  0  0  0
 51 52  1  0  0  0
 51119  1  0  0  0
 51120  1  0  0  0
 52121  1  0  0  0
 52122  1  0  0  0
 53 54  1  0  0  0
 54 55  2  0  0  0
 54123  1  0  0  0
 55 57  1  0  0  0
 55124  1  0  0  0
 56 69  2  0  0  0
 57 58  2  0  0  0
 57125  1  0  0  0
 58126  1  0  0  0
 59 60  1  0  0  0
 59 61  1  0  0  0
 59 62  1  0  0  0
 60127  1  0  0  0
 60128  1  0  0  0
 60129  1  0  0  0
 61130  1  0  0  0
 61131  1  0  0  0
 61132  1  0  0  0
 62133  1  0  0  0
 62134  1  0  0  0
 62135  1  0  0  0
 63 65  1  0  0  0
 63136  1  0  0  0
 63137  1  0  0  0
 63138  1  0  0  0
 64139  1  0  0  0
 65140  1  0  0  0
 68 79  1  0  0  0
 71 72  2  0  0  0
 71 73  1  0  0  0
 71141  1  0  0  0
 72 81  1  0  0  0
 73 80  2  0  0  0
 73 78  1  0  0  0
 74 76  1  0  0  0
 74 78  1  0  0  0
 74142  1  0  0  0
 74143  1  0  0  0
 75 77  1  0  0  0
 75 78  1  0  0  0
 75144  1  0  0  0
 75145  1  0  0  0
 76 79  1  0  0  0
 76146  1  0  0  0
 76147  1  0  0  0
 77 79  1  0  0  0
 77148  1  0  0  0
 77149  1  0  0  0
 78150  1  0  0  0
 79151  1  0  0  0
 80 81  1  0  0  0
M  ISO  4   1 100  68 101  72 100  79 101
M  END
> <chiral flag>
0

> <version>
0

> <s_m_source_file>
/data/baiqing/PycharmProjects/Reinvent-master-3.2/result/LINK_invent/BTK/process_docking_weight1_custom_sum_contain_oxygen_bond_distance_aromatic_linkinvent_7_9_3/rearranged_h_0028.sdf

> <i_m_source_file_index>
62

> <r_mmod_Potential_Energy-OPLS-2005>
990.516723632812

> <r_mmod_Stretch_Energy-OPLS-2005>
403.883575439453

> <r_mmod_Bend_Energy-OPLS-2005>
383.416595458984

> <r_mmod_Torsional_Energy-OPLS-2005>
209.175231933594

> <r_mmod_Improper_Torsional_Energy-OPLS-2005>
3.34680247306824

> <r_mmod_Van_der_Waal_Energy-OPLS-2005>
106.88151550293

> <r_mmod_Electrostatic_Energy-OPLS-2005>
-269.409790039062

> <r_mmod_Solvation_Energy-OPLS-2005>
-197.522323608398

> <b_mmod_Minimization_Converged-OPLS-2005>
0

> <r_mmod_RMS_Derivative-OPLS-2005>
0.129020020365715

$$$$
62
                    3D
 Structure written by MMmdl.
150158  0  0  1  0            999 V2000
  -30.2906  -15.6704   20.3037 C   0  0  0  0  0  0
  -30.4166  -13.0967   19.5688 C   0  0  0  0  0  0
  -29.5562  -12.6757   18.3417 C   0  0  0  0  0  0
  -28.1301  -12.3099   18.7728 C   0  0  0  0  0  0
  -27.5949  -13.3159   19.8160 C   0  0  2  0  0  0
  -28.5981  -13.6657   20.9436 C   0  0  0  0  0  0
  -25.2314  -13.8308   20.5785 C   0  0  0  0  0  0
  -24.1706  -13.0436   20.9264 C   0  0  0  0  0  0
  -24.6421  -11.6953   20.8739 C   0  0  0  0  0  0
  -23.9121  -10.4302   21.0383 C   0  0  0  0  0  0
  -24.3662   -9.4218   21.9167 C   0  0  0  0  0  0
  -23.6324   -8.2258   22.0748 C   0  0  0  0  0  0
  -22.4303   -8.0294   21.3542 C   0  0  0  0  0  0
  -21.9949   -9.0264   20.4637 C   0  0  0  0  0  0
  -22.7283  -10.2140   20.3038 C   0  0  0  0  0  0
  -21.6868   -6.0741   22.5275 C   0  0  0  0  0  0
  -21.4011   -6.5638   23.8210 C   0  0  0  0  0  0
  -21.3672   -5.6789   24.9177 C   0  0  0  0  0  0
  -21.6057   -4.3053   24.7216 C   0  0  0  0  0  0
  -21.8818   -3.8142   23.4337 C   0  0  0  0  0  0
  -21.9195   -4.6966   22.3396 C   0  0  0  0  0  0
  -22.7722  -13.5154   21.1903 C   0  0  0  0  0  0
  -22.1662   -4.2148   21.0972 F   0  0  0  0  0  0
  -21.5649   -3.4537   25.7732 F   0  0  0  0  0  0
  -29.7820  -14.2903   20.3086 N   0  0  0  0  0  0
  -26.2759  -12.9648   20.3213 N   0  0  0  0  0  0
  -25.9362  -11.6707   20.5654 N   0  0  0  0  0  0
  -22.0392  -12.8136   22.0466 N   0  0  0  0  0  0
  -25.3936  -15.2058   20.4287 N   0  0  0  0  0  0
  -31.5099  -15.5941   20.0552 O   0  0  0  0  0  0
  -21.6657   -6.8893   21.4243 O   0  0  0  0  0  0
  -22.3386  -14.5441   20.6738 O   0  0  0  0  0  0
  -24.6873  -31.7957   23.1473 C   0  0  0  0  0  0
  -25.9436  -32.4446   23.8041 C   0  0  1  0  0  0
  -27.2272  -26.6639   20.2148 C   0  0  0  0  0  0
  -25.6002  -33.8272   24.1932 N   0  0  0  0  0  0
  -23.5153  -30.3949   21.5020 C   0  0  2  0  0  0
  -24.9739  -28.7289   20.1122 C   0  0  0  0  0  0
  -22.7780  -29.4285   22.4690 C   0  0  0  0  0  0
  -18.0347  -28.1427   22.8458 C   0  0  0  0  0  0
  -24.1496  -36.7144   23.2656 C   0  0  0  0  0  0
  -26.0963  -30.5136   21.4198 C   0  0  0  0  0  0
  -26.1599  -29.0752   20.7684 C   0  0  0  0  0  0
  -27.2663  -28.0695   20.7902 C   0  0  0  0  0  0
  -26.0126  -26.5390   19.4908 C   0  0  0  0  0  0
  -24.9420  -27.4881   19.4494 C   0  0  0  0  0  0
  -23.7710  -29.6881   20.1374 C   0  0  0  0  0  0
  -25.4151  -36.2887   24.0282 C   0  0  1  0  0  0
  -20.5979  -28.3794   23.1133 C   0  0  2  0  0  0
  -20.6814  -26.9451   22.5411 C   0  0  0  0  0  0
  -19.5791  -26.6373   21.5225 C   0  0  0  0  0  0
  -18.1967  -26.7957   22.1621 C   0  0  0  0  0  0
  -19.1611  -28.8937   23.2779 C   0  0  0  0  0  0
  -18.9515  -30.1514   23.8830 C   0  0  0  0  0  0
  -17.6504  -30.6607   24.0546 C   0  0  0  0  0  0
  -25.9127  -34.9271   23.4945 C   0  0  0  0  0  0
  -16.5394  -29.9087   23.6350 C   0  0  0  0  0  0
  -16.7325  -28.6512   23.0370 C   0  0  0  0  0  0
  -26.4609  -31.6497   25.0681 C   0  0  0  0  0  0
  -25.3661  -31.3824   26.1288 C   0  0  0  0  0  0
  -27.0545  -30.2828   24.6608 C   0  0  0  0  0  0
  -27.6043  -32.4369   25.7507 C   0  0  0  0  0  0
  -27.5563  -37.1736   24.8470 C   0  0  0  0  0  0
  -21.4424  -29.3028   22.3444 N   0  0  0  0  0  0
  -26.4279  -37.3650   23.9398 N   0  0  0  0  0  0
  -24.7902  -30.9354   22.0755 N   0  0  0  0  0  0
  -23.4212  -28.7900   23.3054 O   0  0  0  0  0  0
  -28.1811  -25.4299   20.3460 O   0  0  0  0  0  0
  -26.5770  -34.8854   22.4564 O   0  0  0  0  0  0
  -23.5886  -32.1054   23.6398 O   0  0  0  0  0  0
  -29.8818  -20.9300   18.6119 C   0  0  0  0  0  0
  -29.2738  -20.2916   19.7227 C   0  0  0  0  0  0
  -29.5565  -18.1896   18.2873 C   0  0  0  0  0  0
  -29.4842  -18.6095   19.6670 C   0  0  0  0  0  0
  -30.3639  -20.3204   17.4592 C   0  0  0  0  0  0
  -30.1053  -18.9733   17.2518 C   0  0  0  0  0  0
  -28.9326  -16.8698   17.8095 C   0  0  0  0  0  0
  -28.7264  -21.8795   20.5436 C   0  0  0  0  0  0
  -28.1666  -23.6870   19.9622 C   0  0  0  0  0  0
  -29.5709  -17.0701   20.4543 N   0  0  0  0  0  0
  -31.1188  -21.2904   16.2415 Cl  0  0  0  0  0  0
  -30.4439  -18.2857   15.6940 Cl  0  0  0  0  0  0
  -31.4182  -13.3407   19.2134 H   0  0  0  0  0  0
  -30.5602  -12.2486   20.2410 H   0  0  0  0  0  0
  -30.0191  -11.8401   17.8173 H   0  0  0  0  0  0
  -29.5194  -13.5020   17.6300 H   0  0  0  0  0  0
  -28.1598  -11.3106   19.2086 H   0  0  0  0  0  0
  -27.4682  -12.2511   17.9080 H   0  0  0  0  0  0
  -27.4563  -14.2333   19.2416 H   0  0  0  0  0  0
  -28.8536  -12.7904   21.5430 H   0  0  0  0  0  0
  -28.1516  -14.3892   21.6269 H   0  0  0  0  0  0
  -25.2805   -9.5698   22.4742 H   0  0  0  0  0  0
  -24.0038   -7.4646   22.7470 H   0  0  0  0  0  0
  -21.0884   -8.8775   19.8939 H   0  0  0  0  0  0
  -22.3729  -10.9678   19.6153 H   0  0  0  0  0  0
  -21.1985   -7.6140   23.9710 H   0  0  0  0  0  0
  -21.1510   -6.0521   25.9083 H   0  0  0  0  0  0
  -22.0586   -2.7596   23.2832 H   0  0  0  0  0  0
  -22.4027  -11.9821   22.4874 H   0  0  0  0  0  0
  -21.0989  -13.1132   22.2630 H   0  0  0  0  0  0
  -24.6302  -15.8598   20.5628 H   0  0  0  0  0  0
  -26.2452  -15.6507   20.1119 H   0  0  0  0  0  0
  -26.7517  -32.4903   23.0755 H   0  0  0  0  0  0
  -25.0067  -33.9310   25.0030 H   0  0  0  0  0  0
  -22.8433  -31.2339   21.3088 H   0  0  0  0  0  0
  -23.3768  -35.9463   23.3292 H   0  0  0  0  0  0
  -24.3555  -36.8831   22.2073 H   0  0  0  0  0  0
  -23.7248  -37.6317   23.6749 H   0  0  0  0  0  0
  -26.3053  -31.2359   20.6294 H   0  0  0  0  0  0
  -26.9467  -30.5822   22.0869 H   0  0  0  0  0  0
  -28.1532  -28.3371   21.3476 H   0  0  0  0  0  0
  -25.8412  -25.6002   18.9824 H   0  0  0  0  0  0
  -24.0475  -27.2158   18.9047 H   0  0  0  0  0  0
  -23.9469  -30.4485   19.3757 H   0  0  0  0  0  0
  -22.8757  -29.1563   19.8134 H   0  0  0  0  0  0
  -25.1363  -36.1654   25.0774 H   0  0  0  0  0  0
  -21.0067  -28.3431   24.1255 H   0  0  0  0  0  0
  -20.5680  -26.2421   23.3680 H   0  0  0  0  0  0
  -21.6669  -26.7388   22.1219 H   0  0  0  0  0  0
  -19.6939  -25.6262   21.1306 H   0  0  0  0  0  0
  -19.6729  -27.3140   20.6716 H   0  0  0  0  0  0
  -17.4239  -26.6710   21.4017 H   0  0  0  0  0  0
  -18.0340  -26.0115   22.9032 H   0  0  0  0  0  0
  -19.7988  -30.7348   24.2170 H   0  0  0  0  0  0
  -17.5052  -31.6278   24.5165 H   0  0  0  0  0  0
  -15.5389  -30.2966   23.7711 H   0  0  0  0  0  0
  -15.8729  -28.0798   22.7131 H   0  0  0  0  0  0
  -24.5862  -30.7169   25.7586 H   0  0  0  0  0  0
  -24.8840  -32.3046   26.4530 H   0  0  0  0  0  0
  -25.7825  -30.9102   27.0192 H   0  0  0  0  0  0
  -26.3268  -29.6432   24.1610 H   0  0  0  0  0  0
  -27.3966  -29.7300   25.5369 H   0  0  0  0  0  0
  -27.9252  -30.3957   24.0145 H   0  0  0  0  0  0
  -27.2573  -33.3737   26.1883 H   0  0  0  0  0  0
  -28.3958  -32.6828   25.0414 H   0  0  0  0  0  0
  -28.0599  -31.8637   26.5596 H   0  0  0  0  0  0
  -28.2565  -38.0046   24.7486 H   0  0  0  0  0  0
  -28.1071  -36.2559   24.6336 H   0  0  0  0  0  0
  -27.2263  -37.1418   25.8871 H   0  0  0  0  0  0
  -20.9743  -29.8673   21.6490 H   0  0  0  0  0  0
  -26.0102  -38.2701   24.1392 H   0  0  0  0  0  0
  -29.9901  -22.0041   18.6040 H   0  0  0  0  0  0
  -28.1790  -16.4762   18.4906 H   0  0  0  0  0  0
  -29.6887  -16.1110   17.6113 H   0  0  0  0  0  0
  -28.3830  -17.0318   16.8818 H   0  0  0  0  0  0
  -29.5916  -22.0924   21.1716 H   0  0  0  0  0  0
  -27.9708  -21.5638   21.2622 H   0  0  0  0  0  0
  -27.1214  -23.5313   19.6932 H   0  0  0  0  0  0
  -28.6516  -23.7517   18.9896 H   0  0  0  0  0  0
  -28.7743  -16.9462   21.0637 H   0  0  0  0  0  0
  1 25  1  0  0  0
  1 30  2  0  0  0
  1 80  1  0  0  0
  2  3  1  0  0  0
  2 25  1  0  0  0
  2 83  1  0  0  0
  2 84  1  0  0  0
  3  4  1  0  0  0
  3 85  1  0  0  0
  3 86  1  0  0  0
  4  5  1  0  0  0
  4 87  1  0  0  0
  4 88  1  0  0  0
  5  6  1  0  0  0
  5 26  1  0  0  0
  5 89  1  0  0  0
  6 25  1  0  0  0
  6 90  1  0  0  0
  6 91  1  0  0  0
  7  8  2  0  0  0
  7 26  1  0  0  0
  7 29  1  0  0  0
  8  9  1  0  0  0
  8 22  1  0  0  0
  9 10  1  0  0  0
  9 27  2  0  0  0
 10 11  2  0  0  0
 10 15  1  0  0  0
 11 12  1  0  0  0
 11 92  1  0  0  0
 12 13  2  0  0  0
 12 93  1  0  0  0
 13 14  1  0  0  0
 13 31  1  0  0  0
 14 15  2  0  0  0
 14 94  1  0  0  0
 15 95  1  0  0  0
 16 17  2  0  0  0
 16 21  1  0  0  0
 16 31  1  0  0  0
 17 18  1  0  0  0
 17 96  1  0  0  0
 18 19  2  0  0  0
 18 97  1  0  0  0
 19 20  1  0  0  0
 19 24  1  0  0  0
 20 21  2  0  0  0
 20 98  1  0  0  0
 21 23  1  0  0  0
 22 28  1  0  0  0
 22 32  2  0  0  0
 26 27  1  0  0  0
 28 99  1  0  0  0
 28100  1  0  0  0
 29101  1  0  0  0
 29102  1  0  0  0
 33 34  1  0  0  0
 33 66  1  0  0  0
 33 70  2  0  0  0
 34 36  1  0  0  0
 34 59  1  0  0  0
 34103  1  0  0  0
 35 44  2  0  0  0
 35 45  1  0  0  0
 35 68  1  0  0  0
 36 56  1  0  0  0
 36104  1  0  0  0
 37 39  1  0  0  0
 37 47  1  0  0  0
 37 66  1  0  0  0
 37105  1  0  0  0
 38 43  2  0  0  0
 38 46  1  0  0  0
 38 47  1  0  0  0
 39 64  1  0  0  0
 39 67  2  0  0  0
 40 52  1  0  0  0
 40 53  2  0  0  0
 40 58  1  0  0  0
 41106  1  0  0  0
 41107  1  0  0  0
 41108  1  0  0  0
 41 48  1  0  0  0
 42 43  1  0  0  0
 42 66  1  0  0  0
 42109  1  0  0  0
 42110  1  0  0  0
 43 44  1  0  0  0
 44111  1  0  0  0
 45 46  2  0  0  0
 45112  1  0  0  0
 46113  1  0  0  0
 47114  1  0  0  0
 47115  1  0  0  0
 48 56  1  0  0  0
 48 65  1  0  0  0
 48116  1  0  0  0
 49 50  1  0  0  0
 49 53  1  0  0  0
 49 64  1  0  0  0
 49117  1  0  0  0
 50 51  1  0  0  0
 50118  1  0  0  0
 50119  1  0  0  0
 51 52  1  0  0  0
 51120  1  0  0  0
 51121  1  0  0  0
 52122  1  0  0  0
 52123  1  0  0  0
 53 54  1  0  0  0
 54 55  2  0  0  0
 54124  1  0  0  0
 55 57  1  0  0  0
 55125  1  0  0  0
 56 69  2  0  0  0
 57 58  2  0  0  0
 57126  1  0  0  0
 58127  1  0  0  0
 59 60  1  0  0  0
 59 61  1  0  0  0
 59 62  1  0  0  0
 60128  1  0  0  0
 60129  1  0  0  0
 60130  1  0  0  0
 61131  1  0  0  0
 61132  1  0  0  0
 61133  1  0  0  0
 62134  1  0  0  0
 62135  1  0  0  0
 62136  1  0  0  0
 63 65  1  0  0  0
 63137  1  0  0  0
 63138  1  0  0  0
 63139  1  0  0  0
 64140  1  0  0  0
 65141  1  0  0  0
 68 79  1  0  0  0
 71 72  2  0  0  0
 71 75  1  0  0  0
 71142  1  0  0  0
 72 74  1  0  0  0
 72 78  1  0  0  0
 73 74  2  0  0  0
 73 76  1  0  0  0
 73 77  1  0  0  0
 74 80  1  0  0  0
 75 76  2  0  0  0
 75 81  1  0  0  0
 76 82  1  0  0  0
 77143  1  0  0  0
 77144  1  0  0  0
 77145  1  0  0  0
 78 79  1  0  0  0
 78146  1  0  0  0
 78147  1  0  0  0
 79148  1  0  0  0
 79149  1  0  0  0
 80150  1  0  0  0
M  ISO  4   1 100  68 101  79 101  80 100
M  END
> <chiral flag>
0

> <version>
0

> <s_m_source_file>
/data/baiqing/PycharmProjects/Reinvent-master-3.2/result/LINK_invent/BTK/process_docking_weight1_custom_sum_contain_oxygen_bond_distance_aromatic_linkinvent_7_9_3/rearranged_h_0028.sdf

> <i_m_source_file_index>
63

> <r_mmod_Potential_Energy-OPLS-2005>
2954.30224609375

> <r_mmod_Stretch_Energy-OPLS-2005>
1270.94689941406

> <r_mmod_Bend_Energy-OPLS-2005>
808.441223144531

> <r_mmod_Torsional_Energy-OPLS-2005>
323.924530029297

> <r_mmod_Improper_Torsional_Energy-OPLS-2005>
4.42065525054932

> <r_mmod_Van_der_Waal_Energy-OPLS-2005>
146.504302978516

> <r_mmod_Electrostatic_Energy-OPLS-2005>
-346.714721679688

> <r_mmod_Solvation_Energy-OPLS-2005>
-220.848403930664

> <b_mmod_Minimization_Converged-OPLS-2005>
0

> <r_mmod_RMS_Derivative-OPLS-2005>
1.89265537261963

$$$$
63
                    3D
 Structure written by MMmdl.
159167  0  0  1  0            999 V2000
  -30.7705  -14.3361   20.7162 C   0  0  0  0  0  0
  -30.4195  -12.2900   19.3792 C   0  0  0  0  0  0
  -29.4833  -12.5415   18.1833 C   0  0  0  0  0  0
  -28.0077  -12.3921   18.5984 C   0  0  0  0  0  0
  -27.6677  -13.2006   19.8772 C   0  0  2  0  0  0
  -28.7036  -12.9171   20.9860 C   0  0  0  0  0  0
  -25.2622  -13.8161   20.5689 C   0  0  0  0  0  0
  -24.1853  -13.0440   20.9163 C   0  0  0  0  0  0
  -24.6391  -11.6902   20.8698 C   0  0  0  0  0  0
  -23.9053  -10.4293   21.0395 C   0  0  0  0  0  0
  -24.3605   -9.4213   21.9176 C   0  0  0  0  0  0
  -23.6287   -8.2242   22.0750 C   0  0  0  0  0  0
  -22.4267   -8.0278   21.3542 C   0  0  0  0  0  0
  -21.9896   -9.0254   20.4648 C   0  0  0  0  0  0
  -22.7223  -10.2136   20.3052 C   0  0  0  0  0  0
  -21.6853   -6.0735   22.5281 C   0  0  0  0  0  0
  -21.4014   -6.5637   23.8214 C   0  0  0  0  0  0
  -21.3666   -5.6790   24.9177 C   0  0  0  0  0  0
  -21.6044   -4.3051   24.7223 C   0  0  0  0  0  0
  -21.8821   -3.8139   23.4347 C   0  0  0  0  0  0
  -21.9193   -4.6961   22.3404 C   0  0  0  0  0  0
  -22.7871  -13.5244   21.1831 C   0  0  0  0  0  0
  -22.1660   -4.2145   21.0980 F   0  0  0  0  0  0
  -21.5632   -3.4536   25.7736 F   0  0  0  0  0  0
  -30.0512  -13.2145   20.4604 N   0  0  0  0  0  0
  -26.3044  -12.9320   20.3345 N   0  0  0  0  0  0
  -25.9310  -11.6483   20.5701 N   0  0  0  0  0  0
  -22.0501  -12.8255   22.0398 N   0  0  0  0  0  0
  -25.4376  -15.1878   20.4162 N   0  0  0  0  0  0
  -31.7702  -14.6701   20.0720 O   0  0  0  0  0  0
  -21.6638   -6.8871   21.4240 O   0  0  0  0  0  0
  -22.3559  -14.5554   20.6694 O   0  0  0  0  0  0
  -24.6140  -31.8698   23.2118 C   0  0  0  0  0  0
  -25.9039  -32.4834   23.8401 C   0  0  1  0  0  0
  -27.2302  -27.4467   20.0880 C   0  0  0  0  0  0
  -25.5906  -33.8628   24.2341 N   0  0  0  0  0  0
  -23.4007  -30.4950   21.5534 C   0  0  2  0  0  0
  -24.8447  -28.9681   20.1142 C   0  0  0  0  0  0
  -22.7402  -29.4674   22.5001 C   0  0  0  0  0  0
  -18.0276  -28.1361   22.8491 C   0  0  0  0  0  0
  -24.1491  -36.7317   23.2639 C   0  0  0  0  0  0
  -25.9293  -30.8399   21.3640 C   0  0  0  0  0  0
  -26.0065  -29.4773   20.7069 C   0  0  0  0  0  0
  -27.2041  -28.7259   20.6885 C   0  0  0  0  0  0
  -26.0491  -26.9579   19.4811 C   0  0  0  0  0  0
  -24.8612  -27.7076   19.4966 C   0  0  0  0  0  0
  -23.6082  -29.8329   20.1662 C   0  0  0  0  0  0
  -25.4106  -36.3110   24.0339 C   0  0  1  0  0  0
  -20.5862  -28.3648   23.1327 C   0  0  2  0  0  0
  -20.6763  -26.9383   22.5428 C   0  0  0  0  0  0
  -19.5734  -26.6351   21.5228 C   0  0  0  0  0  0
  -18.1922  -26.7900   22.1640 C   0  0  0  0  0  0
  -19.1527  -28.8823   23.2901 C   0  0  0  0  0  0
  -18.9452  -30.1445   23.8896 C   0  0  0  0  0  0
  -17.6455  -30.6579   24.0556 C   0  0  0  0  0  0
  -25.9031  -34.9483   23.5132 C   0  0  0  0  0  0
  -16.5345  -29.9075   23.6320 C   0  0  0  0  0  0
  -16.7266  -28.6492   23.0344 C   0  0  0  0  0  0
  -26.4470  -31.6601   25.0716 C   0  0  0  0  0  0
  -25.3740  -31.3689   26.1464 C   0  0  0  0  0  0
  -27.0295  -30.3045   24.6083 C   0  0  0  0  0  0
  -27.6056  -32.4309   25.7469 C   0  0  0  0  0  0
  -27.5575  -37.1820   24.8466 C   0  0  0  0  0  0
  -21.4135  -29.3028   22.3743 N   0  0  0  0  0  0
  -26.4294  -37.3788   23.9403 N   0  0  0  0  0  0
  -24.6658  -31.0817   22.1013 N   0  0  0  0  0  0
  -23.4189  -28.8206   23.3018 O   0  0  0  0  0  0
  -28.3902  -26.6983   20.1045 O   0  0  0  0  0  0
  -26.5586  -34.8930   22.4690 O   0  0  0  0  0  0
  -23.5340  -32.1439   23.7537 O   0  0  0  0  0  0
  -29.5199  -17.6727   20.7659 C   0  0  0  0  0  0
  -29.3895  -19.7715   22.6199 C   0  0  0  0  0  0
  -30.1752  -17.5323   22.0104 C   0  0  0  0  0  0
  -28.7044  -19.8924   21.3908 C   0  0  0  0  0  0
  -30.1229  -18.6083   22.9317 C   0  0  0  0  0  0
  -28.7910  -18.8361   20.4536 C   0  0  0  0  0  0
  -30.9340  -16.2445   22.3393 C   0  0  0  0  0  0
  -27.8232  -21.1139   21.1325 C   0  0  0  0  0  0
  -29.5147  -24.5320   20.5898 C   0  0  0  0  0  0
  -29.3242  -23.1286   21.2214 C   0  0  0  0  0  0
  -28.1981  -25.3165   20.4383 C   0  0  0  0  0  0
  -30.3395  -15.0359   21.7715 N   0  0  0  0  0  0
  -28.4891  -22.2166   20.3991 N   0  3  0  0  0  0
  -30.9316  -18.5281   24.4584 Cl  0  0  0  0  0  0
  -28.0016  -18.9259   18.9189 Cl  0  0  0  0  0  0
  -31.4612  -12.4039   19.0728 H   0  0  0  0  0  0
  -30.3220  -11.2589   19.7250 H   0  0  0  0  0  0
  -29.7126  -11.8508   17.3712 H   0  0  0  0  0  0
  -29.6549  -13.5448   17.7888 H   0  0  0  0  0  0
  -27.8148  -11.3319   18.7691 H   0  0  0  0  0  0
  -27.3536  -12.6920   17.7788 H   0  0  0  0  0  0
  -27.7326  -14.2580   19.6191 H   0  0  0  0  0  0
  -28.6589  -11.8666   21.2781 H   0  0  0  0  0  0
  -28.4415  -13.4717   21.8867 H   0  0  0  0  0  0
  -25.2758   -9.5690   22.4742 H   0  0  0  0  0  0
  -24.0006   -7.4637   22.7471 H   0  0  0  0  0  0
  -21.0822   -8.8774   19.8960 H   0  0  0  0  0  0
  -22.3681  -10.9674   19.6156 H   0  0  0  0  0  0
  -21.2003   -7.6144   23.9716 H   0  0  0  0  0  0
  -21.1488   -6.0519   25.9084 H   0  0  0  0  0  0
  -22.0592   -2.7599   23.2849 H   0  0  0  0  0  0
  -22.4103  -11.9921   22.4816 H   0  0  0  0  0  0
  -21.1121  -13.1302   22.2590 H   0  0  0  0  0  0
  -24.6776  -15.8490   20.5344 H   0  0  0  0  0  0
  -26.3015  -15.6257   20.1225 H   0  0  0  0  0  0
  -26.7107  -32.5552   23.1168 H   0  0  0  0  0  0
  -25.0059  -33.9780   25.0486 H   0  0  0  0  0  0
  -22.6876  -31.3104   21.4181 H   0  0  0  0  0  0
  -23.3734  -35.9669   23.3330 H   0  0  0  0  0  0
  -24.3576  -36.8893   22.2044 H   0  0  0  0  0  0
  -23.7276  -37.6548   23.6626 H   0  0  0  0  0  0
  -26.0408  -31.6101   20.5993 H   0  0  0  0  0  0
  -26.8158  -30.8903   21.9838 H   0  0  0  0  0  0
  -28.1003  -29.1192   21.1476 H   0  0  0  0  0  0
  -26.0248  -26.0031   18.9772 H   0  0  0  0  0  0
  -23.9715  -27.3147   19.0257 H   0  0  0  0  0  0
  -23.7157  -30.6114   19.4095 H   0  0  0  0  0  0
  -22.7304  -29.2556   19.8696 H   0  0  0  0  0  0
  -25.1291  -36.1975   25.0832 H   0  0  0  0  0  0
  -20.9947  -28.3226   24.1456 H   0  0  0  0  0  0
  -20.5637  -26.2278   23.3626 H   0  0  0  0  0  0
  -21.6652  -26.7411   22.1263 H   0  0  0  0  0  0
  -19.6865  -25.6255   21.1271 H   0  0  0  0  0  0
  -19.6677  -27.3149   20.6740 H   0  0  0  0  0  0
  -17.4173  -26.6592   21.4071 H   0  0  0  0  0  0
  -18.0332  -26.0062   22.9075 H   0  0  0  0  0  0
  -19.7921  -30.7271   24.2259 H   0  0  0  0  0  0
  -17.5007  -31.6258   24.5150 H   0  0  0  0  0  0
  -15.5340  -30.2974   23.7639 H   0  0  0  0  0  0
  -15.8673  -28.0803   22.7051 H   0  0  0  0  0  0
  -24.5908  -30.7046   25.7800 H   0  0  0  0  0  0
  -24.8925  -32.2830   26.4938 H   0  0  0  0  0  0
  -25.8089  -30.8840   27.0214 H   0  0  0  0  0  0
  -26.2837  -29.6803   24.1153 H   0  0  0  0  0  0
  -27.4085  -29.7288   25.4539 H   0  0  0  0  0  0
  -27.8662  -30.4355   23.9219 H   0  0  0  0  0  0
  -27.2678  -33.3598   26.2079 H   0  0  0  0  0  0
  -28.3834  -32.6885   25.0265 H   0  0  0  0  0  0
  -28.0753  -31.8410   26.5351 H   0  0  0  0  0  0
  -28.2624  -38.0087   24.7473 H   0  0  0  0  0  0
  -28.1051  -36.2625   24.6349 H   0  0  0  0  0  0
  -27.2292  -37.1528   25.8871 H   0  0  0  0  0  0
  -20.9283  -29.8771   21.6993 H   0  0  0  0  0  0
  -26.0193  -38.2879   24.1376 H   0  0  0  0  0  0
  -29.5598  -16.8814   20.0325 H   0  0  0  0  0  0
  -29.3334  -20.5657   23.3507 H   0  0  0  0  0  0
  -30.9518  -16.0856   23.4179 H   0  0  0  0  0  0
  -31.9751  -16.3545   22.0334 H   0  0  0  0  0  0
  -27.4158  -21.4790   22.0763 H   0  0  0  0  0  0
  -26.9502  -20.8027   20.5590 H   0  0  0  0  0  0
  -30.0143  -24.4506   19.6246 H   0  0  0  0  0  0
  -30.1887  -25.1028   21.2299 H   0  0  0  0  0  0
  -28.8818  -23.2519   22.2118 H   0  0  0  0  0  0
  -30.2957  -22.6591   21.3793 H   0  0  0  0  0  0
  -27.6338  -25.2595   21.3719 H   0  0  0  0  0  0
  -27.6094  -24.8127   19.6731 H   0  0  0  0  0  0
  -29.5401  -14.6560   22.2564 H   0  0  0  0  0  0
  -27.7393  -22.7579   20.0033 H   0  0  0  0  0  0
  -29.0219  -21.8450   19.6296 H   0  0  0  0  0  0
  1 25  1  0  0  0
  1 30  2  0  0  0
  1 82  1  0  0  0
  2  3  1  0  0  0
  2 25  1  0  0  0
  2 86  1  0  0  0
  2 87  1  0  0  0
  3  4  1  0  0  0
  3 88  1  0  0  0
  3 89  1  0  0  0
  4  5  1  0  0  0
  4 90  1  0  0  0
  4 91  1  0  0  0
  5  6  1  0  0  0
  5 26  1  0  0  0
  5 92  1  0  0  0
  6 25  1  0  0  0
  6 93  1  0  0  0
  6 94  1  0  0  0
  7  8  2  0  0  0
  7 26  1  0  0  0
  7 29  1  0  0  0
  8  9  1  0  0  0
  8 22  1  0  0  0
  9 10  1  0  0  0
  9 27  2  0  0  0
 10 11  2  0  0  0
 10 15  1  0  0  0
 11 12  1  0  0  0
 11 95  1  0  0  0
 12 13  2  0  0  0
 12 96  1  0  0  0
 13 14  1  0  0  0
 13 31  1  0  0  0
 14 15  2  0  0  0
 14 97  1  0  0  0
 15 98  1  0  0  0
 16 17  2  0  0  0
 16 21  1  0  0  0
 16 31  1  0  0  0
 17 18  1  0  0  0
 17 99  1  0  0  0
 18 19  2  0  0  0
 18100  1  0  0  0
 19 20  1  0  0  0
 19 24  1  0  0  0
 20 21  2  0  0  0
 20101  1  0  0  0
 21 23  1  0  0  0
 22 28  1  0  0  0
 22 32  2  0  0  0
 26 27  1  0  0  0
 28102  1  0  0  0
 28103  1  0  0  0
 29104  1  0  0  0
 29105  1  0  0  0
 33 34  1  0  0  0
 33 66  1  0  0  0
 33 70  2  0  0  0
 34 36  1  0  0  0
 34 59  1  0  0  0
 34106  1  0  0  0
 35 44  2  0  0  0
 35 45  1  0  0  0
 35 68  1  0  0  0
 36 56  1  0  0  0
 36107  1  0  0  0
 37 39  1  0  0  0
 37 47  1  0  0  0
 37 66  1  0  0  0
 37108  1  0  0  0
 38 43  2  0  0  0
 38 46  1  0  0  0
 38 47  1  0  0  0
 39 64  1  0  0  0
 39 67  2  0  0  0
 40 52  1  0  0  0
 40 53  2  0  0  0
 40 58  1  0  0  0
 41109  1  0  0  0
 41110  1  0  0  0
 41111  1  0  0  0
 41 48  1  0  0  0
 42 43  1  0  0  0
 42 66  1  0  0  0
 42112  1  0  0  0
 42113  1  0  0  0
 43 44  1  0  0  0
 44114  1  0  0  0
 45 46  2  0  0  0
 45115  1  0  0  0
 46116  1  0  0  0
 47117  1  0  0  0
 47118  1  0  0  0
 48 56  1  0  0  0
 48 65  1  0  0  0
 48119  1  0  0  0
 49 50  1  0  0  0
 49 53  1  0  0  0
 49 64  1  0  0  0
 49120  1  0  0  0
 50 51  1  0  0  0
 50121  1  0  0  0
 50122  1  0  0  0
 51 52  1  0  0  0
 51123  1  0  0  0
 51124  1  0  0  0
 52125  1  0  0  0
 52126  1  0  0  0
 53 54  1  0  0  0
 54 55  2  0  0  0
 54127  1  0  0  0
 55 57  1  0  0  0
 55128  1  0  0  0
 56 69  2  0  0  0
 57 58  2  0  0  0
 57129  1  0  0  0
 58130  1  0  0  0
 59 60  1  0  0  0
 59 61  1  0  0  0
 59 62  1  0  0  0
 60131  1  0  0  0
 60132  1  0  0  0
 60133  1  0  0  0
 61134  1  0  0  0
 61135  1  0  0  0
 61136  1  0  0  0
 62137  1  0  0  0
 62138  1  0  0  0
 62139  1  0  0  0
 63 65  1  0  0  0
 63140  1  0  0  0
 63141  1  0  0  0
 63142  1  0  0  0
 64143  1  0  0  0
 65144  1  0  0  0
 68 81  1  0  0  0
 71 73  2  0  0  0
 71 76  1  0  0  0
 71145  1  0  0  0
 72 74  1  0  0  0
 72 75  2  0  0  0
 72146  1  0  0  0
 73 75  1  0  0  0
 73 77  1  0  0  0
 74 76  2  0  0  0
 74 78  1  0  0  0
 75 84  1  0  0  0
 76 85  1  0  0  0
 77 82  1  0  0  0
 77147  1  0  0  0
 77148  1  0  0  0
 78 83  1  0  0  0
 78149  1  0  0  0
 78150  1  0  0  0
 79 80  1  0  0  0
 79 81  1  0  0  0
 79151  1  0  0  0
 79152  1  0  0  0
 80 83  1  0  0  0
 80153  1  0  0  0
 80154  1  0  0  0
 81155  1  0  0  0
 81156  1  0  0  0
 82157  1  0  0  0
 83158  1  0  0  0
 83159  1  0  0  0
M  CHG  1  83   1
M  ISO  4   1 100  68 101  81 101  82 100
M  END
> <chiral flag>
0

> <version>
0

> <s_m_source_file>
/data/baiqing/PycharmProjects/Reinvent-master-3.2/result/LINK_invent/BTK/process_docking_weight1_custom_sum_contain_oxygen_bond_distance_aromatic_linkinvent_7_9_3/rearranged_h_0028.sdf

> <i_m_source_file_index>
64

> <r_mmod_Potential_Energy-OPLS-2005>
-338.915008544922

> <r_mmod_Stretch_Energy-OPLS-2005>
34.2291793823242

> <r_mmod_Bend_Energy-OPLS-2005>
90.0460586547852

> <r_mmod_Torsional_Energy-OPLS-2005>
202.370178222656

> <r_mmod_Improper_Torsional_Energy-OPLS-2005>
1.98848819732666

> <r_mmod_Van_der_Waal_Energy-OPLS-2005>
153.71711730957

> <r_mmod_Electrostatic_Energy-OPLS-2005>
-348.312255859375

> <r_mmod_Solvation_Energy-OPLS-2005>
-481.584930419922

> <b_mmod_Minimization_Converged-OPLS-2005>
0

> <r_mmod_RMS_Derivative-OPLS-2005>
1.85295510292053

$$$$
64
                    3D
 Structure written by MMmdl.
156164  0  0  1  0            999 V2000
  -30.4069  -15.3419   20.3662 C   0  0  0  0  0  0
  -30.4406  -12.8706   19.5081 C   0  0  0  0  0  0
  -29.5352  -12.5831   18.2835 C   0  0  0  0  0  0
  -28.0909  -12.2875   18.7243 C   0  0  0  0  0  0
  -27.6069  -13.2760   19.8130 C   0  0  2  0  0  0
  -28.6430  -13.4879   20.9360 C   0  0  0  0  0  0
  -25.2386  -13.8237   20.5748 C   0  0  0  0  0  0
  -24.1739  -13.0428   20.9262 C   0  0  0  0  0  0
  -24.6396  -11.6928   20.8763 C   0  0  0  0  0  0
  -23.9092  -10.4289   21.0407 C   0  0  0  0  0  0
  -24.3637   -9.4202   21.9185 C   0  0  0  0  0  0
  -23.6300   -8.2242   22.0759 C   0  0  0  0  0  0
  -22.4280   -8.0283   21.3548 C   0  0  0  0  0  0
  -21.9923   -9.0259   20.4649 C   0  0  0  0  0  0
  -22.7261  -10.2133   20.3055 C   0  0  0  0  0  0
  -21.6855   -6.0734   22.5276 C   0  0  0  0  0  0
  -21.4016   -6.5636   23.8210 C   0  0  0  0  0  0
  -21.3660   -5.6789   24.9173 C   0  0  0  0  0  0
  -21.6043   -4.3053   24.7222 C   0  0  0  0  0  0
  -21.8820   -3.8145   23.4343 C   0  0  0  0  0  0
  -21.9192   -4.6962   22.3399 C   0  0  0  0  0  0
  -22.7759  -13.5189   21.1900 C   0  0  0  0  0  0
  -22.1662   -4.2148   21.0977 F   0  0  0  0  0  0
  -21.5628   -3.4534   25.7735 F   0  0  0  0  0  0
  -29.8532  -14.0249   20.2874 N   0  0  0  0  0  0
  -26.2808  -12.9512   20.3204 N   0  0  0  0  0  0
  -25.9332  -11.6618   20.5714 N   0  0  0  0  0  0
  -22.0414  -12.8177   22.0456 N   0  0  0  0  0  0
  -25.3999  -15.1971   20.4186 N   0  0  0  0  0  0
  -31.6423  -15.3286   20.2537 O   0  0  0  0  0  0
  -21.6641   -6.8880   21.4242 O   0  0  0  0  0  0
  -22.3442  -14.5488   20.6730 O   0  0  0  0  0  0
  -24.6676  -31.8188   23.1668 C   0  0  0  0  0  0
  -25.9335  -32.4565   23.8152 C   0  0  1  0  0  0
  -27.2186  -26.8790   20.1980 C   0  0  0  0  0  0
  -25.5980  -33.8381   24.2052 N   0  0  0  0  0  0
  -23.4845  -30.4278   21.5181 C   0  0  2  0  0  0
  -24.9377  -28.8018   20.1213 C   0  0  0  0  0  0
  -22.7690  -29.4407   22.4777 C   0  0  0  0  0  0
  -18.0328  -28.1401   22.8464 C   0  0  0  0  0  0
  -24.1492  -36.7193   23.2651 C   0  0  0  0  0  0
  -26.0570  -30.6101   21.4042 C   0  0  0  0  0  0
  -26.1249  -29.1929   20.7534 C   0  0  0  0  0  0
  -27.2617  -28.2564   20.7594 C   0  0  0  0  0  0
  -25.9989  -26.6493   19.5227 C   0  0  0  0  0  0
  -24.9024  -27.5512   19.4841 C   0  0  0  0  0  0
  -23.7279  -29.7380   20.1477 C   0  0  0  0  0  0
  -25.4136  -36.2953   24.0295 C   0  0  1  0  0  0
  -20.5955  -28.3752   23.1180 C   0  0  2  0  0  0
  -20.6804  -26.9428   22.5403 C   0  0  0  0  0  0
  -19.5777  -26.6370   21.5213 C   0  0  0  0  0  0
  -18.1958  -26.7936   22.1616 C   0  0  0  0  0  0
  -19.1590  -28.8899   23.2806 C   0  0  0  0  0  0
  -18.9501  -30.1489   23.8839 C   0  0  0  0  0  0
  -17.6496  -30.6595   24.0550 C   0  0  0  0  0  0
  -25.9105  -34.9337   23.4999 C   0  0  0  0  0  0
  -16.5384  -29.9079   23.6347 C   0  0  0  0  0  0
  -16.7310  -28.6498   23.0367 C   0  0  0  0  0  0
  -26.4566  -31.6530   25.0705 C   0  0  0  0  0  0
  -25.3681  -31.3789   26.1356 C   0  0  0  0  0  0
  -27.0479  -30.2891   24.6475 C   0  0  0  0  0  0
  -27.6044  -32.4363   25.7506 C   0  0  0  0  0  0
  -27.5570  -37.1751   24.8468 C   0  0  0  0  0  0
  -21.4356  -29.3033   22.3524 N   0  0  0  0  0  0
  -26.4277  -37.3693   23.9411 N   0  0  0  0  0  0
  -24.7584  -30.9806   22.0830 N   0  0  0  0  0  0
  -23.4218  -28.7986   23.3042 O   0  0  0  0  0  0
  -28.2231  -25.7585   20.1912 O   0  0  0  0  0  0
  -26.5727  -34.8883   22.4603 O   0  0  0  0  0  0
  -23.5734  -32.1179   23.6731 O   0  0  0  0  0  0
  -29.5355  -20.0075   18.6912 C   0  0  0  0  0  0
  -28.9661  -22.4749   18.6027 C   0  0  0  0  0  0
  -29.3118  -19.8473   20.0717 C   0  0  0  0  0  0
  -28.6581  -22.5956   19.9871 C   0  0  0  0  0  0
  -29.3883  -21.2469   17.9829 C   0  0  0  0  0  0
  -28.8643  -21.2124   20.6709 C   0  0  0  0  0  0
  -28.7641  -23.6716   17.7432 C   0  0  0  0  0  0
  -30.0218  -24.3544   17.2218 C   0  0  0  0  0  0
  -30.2314  -20.2022   15.9597 C   0  0  0  0  0  0
  -29.7646  -18.2717   20.7506 C   0  0  0  0  0  0
  -27.9842  -24.1426   20.5489 C   0  0  0  0  0  0
  -29.6266  -16.6241   20.3697 N   0  0  0  0  0  0
  -27.6534  -24.1325   17.4652 O   0  0  0  0  0  0
  -29.6464  -21.3167   16.6245 O   0  0  0  0  0  0
  -28.5451  -21.1868   22.3658 Cl  0  0  0  0  0  0
  -31.4478  -13.1034   19.1604 H   0  0  0  0  0  0
  -30.5449  -11.9841   20.1360 H   0  0  0  0  0  0
  -29.9308  -11.7478   17.7040 H   0  0  0  0  0  0
  -29.5411  -13.4489   17.6195 H   0  0  0  0  0  0
  -28.0693  -11.2714   19.1206 H   0  0  0  0  0  0
  -27.4172  -12.2966   17.8662 H   0  0  0  0  0  0
  -27.5074  -14.2303   19.2942 H   0  0  0  0  0  0
  -28.8389  -12.5637   21.4821 H   0  0  0  0  0  0
  -28.2695  -14.2081   21.6658 H   0  0  0  0  0  0
  -25.2777   -9.5675   22.4770 H   0  0  0  0  0  0
  -23.9998   -7.4635   22.7487 H   0  0  0  0  0  0
  -21.0850   -8.8788   19.8959 H   0  0  0  0  0  0
  -22.3719  -10.9678   19.6170 H   0  0  0  0  0  0
  -21.2010   -7.6145   23.9715 H   0  0  0  0  0  0
  -21.1481   -6.0516   25.9075 H   0  0  0  0  0  0
  -22.0597   -2.7605   23.2841 H   0  0  0  0  0  0
  -22.4044  -11.9848   22.4854 H   0  0  0  0  0  0
  -21.1030  -13.1198   22.2663 H   0  0  0  0  0  0
  -24.6263  -15.8431   20.5327 H   0  0  0  0  0  0
  -26.2374  -15.6429   20.0696 H   0  0  0  0  0  0
  -26.7406  -32.5087   23.0867 H   0  0  0  0  0  0
  -25.0060  -33.9448   25.0157 H   0  0  0  0  0  0
  -22.8001  -31.2607   21.3435 H   0  0  0  0  0  0
  -23.3770  -35.9508   23.3280 H   0  0  0  0  0  0
  -24.3560  -36.8880   22.2073 H   0  0  0  0  0  0
  -23.7235  -37.6361   23.6736 H   0  0  0  0  0  0
  -26.2417  -31.3467   20.6212 H   0  0  0  0  0  0
  -26.9148  -30.6703   22.0620 H   0  0  0  0  0  0
  -28.1663  -28.5611   21.2668 H   0  0  0  0  0  0
  -25.8695  -25.6986   19.0242 H   0  0  0  0  0  0
  -24.0028  -27.2463   18.9673 H   0  0  0  0  0  0
  -23.8909  -30.5044   19.3888 H   0  0  0  0  0  0
  -22.8360  -29.1969   19.8272 H   0  0  0  0  0  0
  -25.1333  -36.1741   25.0784 H   0  0  0  0  0  0
  -21.0034  -28.3366   24.1307 H   0  0  0  0  0  0
  -20.5685  -26.2368   23.3647 H   0  0  0  0  0  0
  -21.6666  -26.7401   22.1205 H   0  0  0  0  0  0
  -19.6936  -25.6268   21.1276 H   0  0  0  0  0  0
  -19.6719  -27.3153   20.6720 H   0  0  0  0  0  0
  -17.4230  -26.6683   21.4019 H   0  0  0  0  0  0
  -18.0344  -26.0088   22.9019 H   0  0  0  0  0  0
  -19.7979  -30.7312   24.2184 H   0  0  0  0  0  0
  -17.5053  -31.6270   24.5159 H   0  0  0  0  0  0
  -15.5380  -30.2965   23.7708 H   0  0  0  0  0  0
  -15.8710  -28.0799   22.7119 H   0  0  0  0  0  0
  -24.5879  -30.7123   25.7661 H   0  0  0  0  0  0
  -24.8855  -32.2993   26.4652 H   0  0  0  0  0  0
  -25.7907  -30.9042   27.0219 H   0  0  0  0  0  0
  -26.3160  -29.6547   24.1466 H   0  0  0  0  0  0
  -27.3973  -29.7279   25.5149 H   0  0  0  0  0  0
  -27.9112  -30.4060   23.9925 H   0  0  0  0  0  0
  -27.2598  -33.3717   26.1924 H   0  0  0  0  0  0
  -28.3926  -32.6839   25.0388 H   0  0  0  0  0  0
  -28.0628  -31.8603   26.5553 H   0  0  0  0  0  0
  -28.2560  -38.0072   24.7519 H   0  0  0  0  0  0
  -28.1090  -36.2594   24.6287 H   0  0  0  0  0  0
  -27.2284  -37.1381   25.8870 H   0  0  0  0  0  0
  -20.9626  -29.8723   21.6640 H   0  0  0  0  0  0
  -26.0121  -38.2744   24.1436 H   0  0  0  0  0  0
  -29.8700  -19.1199   18.1764 H   0  0  0  0  0  0
  -30.8575  -23.6563   17.1913 H   0  0  0  0  0  0
  -30.2890  -25.1874   17.8711 H   0  0  0  0  0  0
  -29.8547  -24.7375   16.2158 H   0  0  0  0  0  0
  -30.4497  -20.4730   14.9267 H   0  0  0  0  0  0
  -29.5539  -19.3483   15.9357 H   0  0  0  0  0  0
  -31.1737  -19.9056   16.4226 H   0  0  0  0  0  0
  -29.3458  -18.3180   21.7558 H   0  0  0  0  0  0
  -30.8351  -18.3881   20.9203 H   0  0  0  0  0  0
  -28.1231  -24.1035   21.6294 H   0  0  0  0  0  0
  -26.9107  -24.0013   20.4248 H   0  0  0  0  0  0
  -28.6501  -16.3930   20.2652 H   0  0  0  0  0  0
  1 25  1  0  0  0
  1 30  2  0  0  0
  1 82  1  0  0  0
  2  3  1  0  0  0
  2 25  1  0  0  0
  2 86  1  0  0  0
  2 87  1  0  0  0
  3  4  1  0  0  0
  3 88  1  0  0  0
  3 89  1  0  0  0
  4  5  1  0  0  0
  4 90  1  0  0  0
  4 91  1  0  0  0
  5  6  1  0  0  0
  5 26  1  0  0  0
  5 92  1  0  0  0
  6 25  1  0  0  0
  6 93  1  0  0  0
  6 94  1  0  0  0
  7  8  2  0  0  0
  7 26  1  0  0  0
  7 29  1  0  0  0
  8  9  1  0  0  0
  8 22  1  0  0  0
  9 10  1  0  0  0
  9 27  2  0  0  0
 10 11  2  0  0  0
 10 15  1  0  0  0
 11 12  1  0  0  0
 11 95  1  0  0  0
 12 13  2  0  0  0
 12 96  1  0  0  0
 13 14  1  0  0  0
 13 31  1  0  0  0
 14 15  2  0  0  0
 14 97  1  0  0  0
 15 98  1  0  0  0
 16 17  2  0  0  0
 16 21  1  0  0  0
 16 31  1  0  0  0
 17 18  1  0  0  0
 17 99  1  0  0  0
 18 19  2  0  0  0
 18100  1  0  0  0
 19 20  1  0  0  0
 19 24  1  0  0  0
 20 21  2  0  0  0
 20101  1  0  0  0
 21 23  1  0  0  0
 22 28  1  0  0  0
 22 32  2  0  0  0
 26 27  1  0  0  0
 28102  1  0  0  0
 28103  1  0  0  0
 29104  1  0  0  0
 29105  1  0  0  0
 33 34  1  0  0  0
 33 66  1  0  0  0
 33 70  2  0  0  0
 34 36  1  0  0  0
 34 59  1  0  0  0
 34106  1  0  0  0
 35 44  2  0  0  0
 35 45  1  0  0  0
 35 68  1  0  0  0
 36 56  1  0  0  0
 36107  1  0  0  0
 37 39  1  0  0  0
 37 47  1  0  0  0
 37 66  1  0  0  0
 37108  1  0  0  0
 38 43  2  0  0  0
 38 46  1  0  0  0
 38 47  1  0  0  0
 39 64  1  0  0  0
 39 67  2  0  0  0
 40 52  1  0  0  0
 40 53  2  0  0  0
 40 58  1  0  0  0
 41109  1  0  0  0
 41110  1  0  0  0
 41111  1  0  0  0
 41 48  1  0  0  0
 42 43  1  0  0  0
 42 66  1  0  0  0
 42112  1  0  0  0
 42113  1  0  0  0
 43 44  1  0  0  0
 44114  1  0  0  0
 45 46  2  0  0  0
 45115  1  0  0  0
 46116  1  0  0  0
 47117  1  0  0  0
 47118  1  0  0  0
 48 56  1  0  0  0
 48 65  1  0  0  0
 48119  1  0  0  0
 49 50  1  0  0  0
 49 53  1  0  0  0
 49 64  1  0  0  0
 49120  1  0  0  0
 50 51  1  0  0  0
 50121  1  0  0  0
 50122  1  0  0  0
 51 52  1  0  0  0
 51123  1  0  0  0
 51124  1  0  0  0
 52125  1  0  0  0
 52126  1  0  0  0
 53 54  1  0  0  0
 54 55  2  0  0  0
 54127  1  0  0  0
 55 57  1  0  0  0
 55128  1  0  0  0
 56 69  2  0  0  0
 57 58  2  0  0  0
 57129  1  0  0  0
 58130  1  0  0  0
 59 60  1  0  0  0
 59 61  1  0  0  0
 59 62  1  0  0  0
 60131  1  0  0  0
 60132  1  0  0  0
 60133  1  0  0  0
 61134  1  0  0  0
 61135  1  0  0  0
 61136  1  0  0  0
 62137  1  0  0  0
 62138  1  0  0  0
 62139  1  0  0  0
 63 65  1  0  0  0
 63140  1  0  0  0
 63141  1  0  0  0
 63142  1  0  0  0
 64143  1  0  0  0
 65144  1  0  0  0
 68 81  1  0  0  0
 71 73  2  0  0  0
 71 75  1  0  0  0
 71145  1  0  0  0
 72 74  1  0  0  0
 72 75  2  0  0  0
 72 77  1  0  0  0
 73 76  1  0  0  0
 73 80  1  0  0  0
 74 76  2  0  0  0
 74 81  1  0  0  0
 75 84  1  0  0  0
 76 85  1  0  0  0
 77 78  1  0  0  0
 77 83  2  0  0  0
 78146  1  0  0  0
 78147  1  0  0  0
 78148  1  0  0  0
 79 84  1  0  0  0
 79149  1  0  0  0
 79150  1  0  0  0
 79151  1  0  0  0
 80 82  1  0  0  0
 80152  1  0  0  0
 80153  1  0  0  0
 81154  1  0  0  0
 81155  1  0  0  0
 82156  1  0  0  0
M  ISO  4   1 100  68 101  81 101  82 100
M  END
> <chiral flag>
0

> <version>
0

> <s_m_source_file>
/data/baiqing/PycharmProjects/Reinvent-master-3.2/result/LINK_invent/BTK/process_docking_weight1_custom_sum_contain_oxygen_bond_distance_aromatic_linkinvent_7_9_3/rearranged_h_0028.sdf

> <i_m_source_file_index>
65

> <r_mmod_Potential_Energy-OPLS-2005>
1419.82043457031

> <r_mmod_Stretch_Energy-OPLS-2005>
652.887268066406

> <r_mmod_Bend_Energy-OPLS-2005>
457.205200195312

> <r_mmod_Torsional_Energy-OPLS-2005>
286.332489013672

> <r_mmod_Improper_Torsional_Energy-OPLS-2005>
6.18759727478027

> <r_mmod_Van_der_Waal_Energy-OPLS-2005>
128.825912475586

> <r_mmod_Electrostatic_Energy-OPLS-2005>
-422.994049072266

> <r_mmod_Solvation_Energy-OPLS-2005>
-226.450210571289

> <b_mmod_Minimization_Converged-OPLS-2005>
0

> <r_mmod_RMS_Derivative-OPLS-2005>
0.761677026748657

$$$$
65
                    3D
 Structure written by MMmdl.
158166  0  0  1  0            999 V2000
  -30.7101  -14.5019   20.5325 C   0  0  0  0  0  0
  -30.4154  -12.3150   19.4398 C   0  0  0  0  0  0
  -29.4936  -12.4900   18.2164 C   0  0  0  0  0  0
  -28.0169  -12.3515   18.6307 C   0  0  0  0  0  0
  -27.6570  -13.2135   19.8708 C   0  0  2  0  0  0
  -28.6994  -13.0398   20.9988 C   0  0  0  0  0  0
  -25.2569  -13.8177   20.5691 C   0  0  0  0  0  0
  -24.1824  -13.0446   20.9180 C   0  0  0  0  0  0
  -24.6385  -11.6913   20.8740 C   0  0  0  0  0  0
  -23.9050  -10.4295   21.0398 C   0  0  0  0  0  0
  -24.3602   -9.4212   21.9181 C   0  0  0  0  0  0
  -23.6281   -8.2242   22.0752 C   0  0  0  0  0  0
  -22.4266   -8.0274   21.3539 C   0  0  0  0  0  0
  -21.9901   -9.0244   20.4636 C   0  0  0  0  0  0
  -22.7223  -10.2128   20.3045 C   0  0  0  0  0  0
  -21.6856   -6.0731   22.5274 C   0  0  0  0  0  0
  -21.4008   -6.5635   23.8204 C   0  0  0  0  0  0
  -21.3658   -5.6791   24.9169 C   0  0  0  0  0  0
  -21.6046   -4.3053   24.7224 C   0  0  0  0  0  0
  -21.8823   -3.8139   23.4346 C   0  0  0  0  0  0
  -21.9191   -4.6957   22.3398 C   0  0  0  0  0  0
  -22.7847  -13.5243   21.1841 C   0  0  0  0  0  0
  -22.1665   -4.2141   21.0973 F   0  0  0  0  0  0
  -21.5632   -3.4535   25.7737 F   0  0  0  0  0  0
  -30.0268  -13.3279   20.4367 N   0  0  0  0  0  0
  -26.3007  -12.9358   20.3362 N   0  0  0  0  0  0
  -25.9317  -11.6514   20.5773 N   0  0  0  0  0  0
  -22.0481  -12.8226   22.0387 N   0  0  0  0  0  0
  -25.4293  -15.1896   20.4106 N   0  0  0  0  0  0
  -31.8529  -14.6344   20.0863 O   0  0  0  0  0  0
  -21.6636   -6.8866   21.4234 O   0  0  0  0  0  0
  -22.3525  -14.5544   20.6689 O   0  0  0  0  0  0
  -24.6181  -31.8668   23.2100 C   0  0  0  0  0  0
  -25.9061  -32.4820   23.8395 C   0  0  1  0  0  0
  -27.2220  -27.4003   20.0933 C   0  0  0  0  0  0
  -25.5899  -33.8617   24.2316 N   0  0  0  0  0  0
  -23.4066  -30.4933   21.5518 C   0  0  2  0  0  0
  -24.8507  -28.9651   20.1090 C   0  0  0  0  0  0
  -22.7423  -29.4653   22.4980 C   0  0  0  0  0  0
  -18.0270  -28.1386   22.8487 C   0  0  0  0  0  0
  -24.1482  -36.7295   23.2636 C   0  0  0  0  0  0
  -25.9413  -30.8220   21.3716 C   0  0  0  0  0  0
  -26.0165  -29.4585   20.7096 C   0  0  0  0  0  0
  -27.2060  -28.6853   20.6956 C   0  0  0  0  0  0
  -26.0337  -26.9434   19.4739 C   0  0  0  0  0  0
  -24.8551  -27.7085   19.4865 C   0  0  0  0  0  0
  -23.6151  -29.8336   20.1646 C   0  0  0  0  0  0
  -25.4104  -36.3105   24.0337 C   0  0  1  0  0  0
  -20.5865  -28.3659   23.1309 C   0  0  2  0  0  0
  -20.6764  -26.9399   22.5406 C   0  0  0  0  0  0
  -19.5739  -26.6395   21.5208 C   0  0  0  0  0  0
  -18.1911  -26.7938   22.1616 C   0  0  0  0  0  0
  -19.1527  -28.8843   23.2888 C   0  0  0  0  0  0
  -18.9458  -30.1444   23.8900 C   0  0  0  0  0  0
  -17.6466  -30.6596   24.0570 C   0  0  0  0  0  0
  -25.9034  -34.9472   23.5128 C   0  0  0  0  0  0
  -16.5349  -29.9091   23.6352 C   0  0  0  0  0  0
  -16.7264  -28.6509   23.0364 C   0  0  0  0  0  0
  -26.4482  -31.6616   25.0734 C   0  0  0  0  0  0
  -25.3738  -31.3712   26.1471 C   0  0  0  0  0  0
  -27.0344  -30.3063   24.6141 C   0  0  0  0  0  0
  -27.6035  -32.4355   25.7515 C   0  0  0  0  0  0
  -27.5575  -37.1797   24.8464 C   0  0  0  0  0  0
  -21.4150  -29.3029   22.3720 N   0  0  0  0  0  0
  -26.4293  -37.3798   23.9407 N   0  0  0  0  0  0
  -24.6741  -31.0744   22.1023 N   0  0  0  0  0  0
  -23.4183  -28.8188   23.3021 O   0  0  0  0  0  0
  -28.3659  -26.6110   20.1351 O   0  0  0  0  0  0
  -26.5607  -34.8924   22.4692 O   0  0  0  0  0  0
  -23.5370  -32.1430   23.7475 O   0  0  0  0  0  0
  -30.0649  -19.4470   20.9006 C   0  0  0  0  0  0
  -29.8503  -18.1696   21.4890 C   0  0  0  0  0  0
  -28.6447  -19.2985   23.3188 C   0  0  0  0  0  0
  -29.6308  -20.6469   21.5151 C   0  0  0  0  0  0
  -29.1295  -18.1055   22.7136 C   0  0  0  0  0  0
  -28.9203  -20.5606   22.7361 C   0  0  0  0  0  0
  -27.8725  -19.2609   24.6353 C   0  0  0  0  0  0
  -30.5467  -16.9617   20.8145 C   0  0  0  0  0  0
  -29.3099  -24.2716   20.4772 C   0  0  0  0  0  0
  -28.9789  -22.7480   20.3867 C   0  0  0  0  0  0
  -28.1721  -25.1852   19.9505 C   0  0  0  0  0  0
  -30.0206  -21.8993   20.9859 N   0  0  0  0  0  0
  -30.0269  -15.5841   20.9630 N   0  0  0  0  0  0
  -28.8906  -16.5899   23.5228 Cl  0  0  0  0  0  0
  -28.4484  -22.0139   23.5617 Cl  0  0  0  0  0  0
  -31.4611  -12.3977   19.1389 H   0  0  0  0  0  0
  -30.3096  -11.3148   19.8621 H   0  0  0  0  0  0
  -29.7370  -11.7479   17.4547 H   0  0  0  0  0  0
  -29.6616  -13.4658   17.7581 H   0  0  0  0  0  0
  -27.8381  -11.2989   18.8506 H   0  0  0  0  0  0
  -27.3641  -12.6009   17.7936 H   0  0  0  0  0  0
  -27.6887  -14.2537   19.5461 H   0  0  0  0  0  0
  -28.6778  -12.0193   21.3847 H   0  0  0  0  0  0
  -28.4661  -13.6847   21.8478 H   0  0  0  0  0  0
  -25.2743   -9.5697   22.4759 H   0  0  0  0  0  0
  -23.9990   -7.4640   22.7484 H   0  0  0  0  0  0
  -21.0832   -8.8752   19.8941 H   0  0  0  0  0  0
  -22.3676  -10.9658   19.6152 H   0  0  0  0  0  0
  -21.1999   -7.6136   23.9703 H   0  0  0  0  0  0
  -21.1482   -6.0517   25.9068 H   0  0  0  0  0  0
  -22.0603   -2.7600   23.2845 H   0  0  0  0  0  0
  -22.4081  -11.9877   22.4763 H   0  0  0  0  0  0
  -21.1098  -13.1248   22.2582 H   0  0  0  0  0  0
  -24.6660  -15.8480   20.5206 H   0  0  0  0  0  0
  -26.2870  -15.6275   20.0979 H   0  0  0  0  0  0
  -26.7129  -32.5532   23.1152 H   0  0  0  0  0  0
  -25.0055  -33.9775   25.0471 H   0  0  0  0  0  0
  -22.6969  -31.3121   21.4168 H   0  0  0  0  0  0
  -23.3760  -35.9616   23.3320 H   0  0  0  0  0  0
  -24.3566  -36.8901   22.2050 H   0  0  0  0  0  0
  -23.7222  -37.6488   23.6653 H   0  0  0  0  0  0
  -26.0633  -31.5925   20.6084 H   0  0  0  0  0  0
  -26.8262  -30.8671   21.9967 H   0  0  0  0  0  0
  -28.1038  -29.0578   21.1711 H   0  0  0  0  0  0
  -25.9827  -25.9882   18.9747 H   0  0  0  0  0  0
  -23.9606  -27.3257   19.0142 H   0  0  0  0  0  0
  -23.7211  -30.6125   19.4092 H   0  0  0  0  0  0
  -22.7387  -29.2538   19.8717 H   0  0  0  0  0  0
  -25.1285  -36.1967   25.0834 H   0  0  0  0  0  0
  -20.9938  -28.3240   24.1439 H   0  0  0  0  0  0
  -20.5690  -26.2268   23.3590 H   0  0  0  0  0  0
  -21.6632  -26.7469   22.1178 H   0  0  0  0  0  0
  -19.6912  -25.6312   21.1219 H   0  0  0  0  0  0
  -19.6698  -27.3229   20.6754 H   0  0  0  0  0  0
  -17.4188  -26.6693   21.4009 H   0  0  0  0  0  0
  -18.0293  -26.0078   22.9007 H   0  0  0  0  0  0
  -19.7941  -30.7234   24.2283 H   0  0  0  0  0  0
  -17.5042  -31.6291   24.5149 H   0  0  0  0  0  0
  -15.5352  -30.3000   23.7703 H   0  0  0  0  0  0
  -15.8649  -28.0840   22.7093 H   0  0  0  0  0  0
  -24.5922  -30.7054   25.7796 H   0  0  0  0  0  0
  -24.8904  -32.2856   26.4920 H   0  0  0  0  0  0
  -25.8063  -30.8877   27.0240 H   0  0  0  0  0  0
  -26.2913  -29.6798   24.1186 H   0  0  0  0  0  0
  -27.4117  -29.7318   25.4612 H   0  0  0  0  0  0
  -27.8746  -30.4391   23.9319 H   0  0  0  0  0  0
  -27.2646  -33.3665   26.2076 H   0  0  0  0  0  0
  -28.3856  -32.6906   25.0353 H   0  0  0  0  0  0
  -28.0696  -31.8500   26.5450 H   0  0  0  0  0  0
  -28.2577  -38.0106   24.7540 H   0  0  0  0  0  0
  -28.1084  -36.2638   24.6270 H   0  0  0  0  0  0
  -27.2284  -37.1427   25.8861 H   0  0  0  0  0  0
  -20.9309  -29.8769   21.6955 H   0  0  0  0  0  0
  -26.0180  -38.2866   24.1444 H   0  0  0  0  0  0
  -30.6418  -19.5119   19.9884 H   0  0  0  0  0  0
  -27.5186  -18.2717   24.9166 H   0  0  0  0  0  0
  -26.9858  -19.8921   24.5711 H   0  0  0  0  0  0
  -28.4994  -19.6374   25.4444 H   0  0  0  0  0  0
  -31.5798  -16.9780   21.1663 H   0  0  0  0  0  0
  -30.6005  -17.1622   19.7430 H   0  0  0  0  0  0
  -30.2239  -24.4831   19.9200 H   0  0  0  0  0  0
  -29.5113  -24.5368   21.5157 H   0  0  0  0  0  0
  -28.8574  -22.4675   19.3390 H   0  0  0  0  0  0
  -28.0167  -22.5526   20.8638 H   0  0  0  0  0  0
  -27.2655  -24.8717   20.4709 H   0  0  0  0  0  0
  -28.0223  -24.9826   18.8890 H   0  0  0  0  0  0
  -30.5001  -22.4298   21.7085 H   0  0  0  0  0  0
  -29.0948  -15.4594   21.3288 H   0  0  0  0  0  0
  1 25  1  0  0  0
  1 30  2  0  0  0
  1 83  1  0  0  0
  2  3  1  0  0  0
  2 25  1  0  0  0
  2 86  1  0  0  0
  2 87  1  0  0  0
  3  4  1  0  0  0
  3 88  1  0  0  0
  3 89  1  0  0  0
  4  5  1  0  0  0
  4 90  1  0  0  0
  4 91  1  0  0  0
  5  6  1  0  0  0
  5 26  1  0  0  0
  5 92  1  0  0  0
  6 25  1  0  0  0
  6 93  1  0  0  0
  6 94  1  0  0  0
  7  8  2  0  0  0
  7 26  1  0  0  0
  7 29  1  0  0  0
  8  9  1  0  0  0
  8 22  1  0  0  0
  9 10  1  0  0  0
  9 27  2  0  0  0
 10 11  2  0  0  0
 10 15  1  0  0  0
 11 12  1  0  0  0
 11 95  1  0  0  0
 12 13  2  0  0  0
 12 96  1  0  0  0
 13 14  1  0  0  0
 13 31  1  0  0  0
 14 15  2  0  0  0
 14 97  1  0  0  0
 15 98  1  0  0  0
 16 17  2  0  0  0
 16 21  1  0  0  0
 16 31  1  0  0  0
 17 18  1  0  0  0
 17 99  1  0  0  0
 18 19  2  0  0  0
 18100  1  0  0  0
 19 20  1  0  0  0
 19 24  1  0  0  0
 20 21  2  0  0  0
 20101  1  0  0  0
 21 23  1  0  0  0
 22 28  1  0  0  0
 22 32  2  0  0  0
 26 27  1  0  0  0
 28102  1  0  0  0
 28103  1  0  0  0
 29104  1  0  0  0
 29105  1  0  0  0
 33 34  1  0  0  0
 33 66  1  0  0  0
 33 70  2  0  0  0
 34 36  1  0  0  0
 34 59  1  0  0  0
 34106  1  0  0  0
 35 44  2  0  0  0
 35 45  1  0  0  0
 35 68  1  0  0  0
 36 56  1  0  0  0
 36107  1  0  0  0
 37 39  1  0  0  0
 37 47  1  0  0  0
 37 66  1  0  0  0
 37108  1  0  0  0
 38 43  2  0  0  0
 38 46  1  0  0  0
 38 47  1  0  0  0
 39 64  1  0  0  0
 39 67  2  0  0  0
 40 52  1  0  0  0
 40 53  2  0  0  0
 40 58  1  0  0  0
 41109  1  0  0  0
 41110  1  0  0  0
 41111  1  0  0  0
 41 48  1  0  0  0
 42 43  1  0  0  0
 42 66  1  0  0  0
 42112  1  0  0  0
 42113  1  0  0  0
 43 44  1  0  0  0
 44114  1  0  0  0
 45 46  2  0  0  0
 45115  1  0  0  0
 46116  1  0  0  0
 47117  1  0  0  0
 47118  1  0  0  0
 48 56  1  0  0  0
 48 65  1  0  0  0
 48119  1  0  0  0
 49 50  1  0  0  0
 49 53  1  0  0  0
 49 64  1  0  0  0
 49120  1  0  0  0
 50 51  1  0  0  0
 50121  1  0  0  0
 50122  1  0  0  0
 51 52  1  0  0  0
 51123  1  0  0  0
 51124  1  0  0  0
 52125  1  0  0  0
 52126  1  0  0  0
 53 54  1  0  0  0
 54 55  2  0  0  0
 54127  1  0  0  0
 55 57  1  0  0  0
 55128  1  0  0  0
 56 69  2  0  0  0
 57 58  2  0  0  0
 57129  1  0  0  0
 58130  1  0  0  0
 59 60  1  0  0  0
 59 61  1  0  0  0
 59 62  1  0  0  0
 60131  1  0  0  0
 60132  1  0  0  0
 60133  1  0  0  0
 61134  1  0  0  0
 61135  1  0  0  0
 61136  1  0  0  0
 62137  1  0  0  0
 62138  1  0  0  0
 62139  1  0  0  0
 63 65  1  0  0  0
 63140  1  0  0  0
 63141  1  0  0  0
 63142  1  0  0  0
 64143  1  0  0  0
 65144  1  0  0  0
 68 81  1  0  0  0
 71 72  2  0  0  0
 71 74  1  0  0  0
 71145  1  0  0  0
 72 75  1  0  0  0
 72 78  1  0  0  0
 73 75  2  0  0  0
 73 76  1  0  0  0
 73 77  1  0  0  0
 74 76  2  0  0  0
 74 82  1  0  0  0
 75 84  1  0  0  0
 76 85  1  0  0  0
 77146  1  0  0  0
 77147  1  0  0  0
 77148  1  0  0  0
 78 83  1  0  0  0
 78149  1  0  0  0
 78150  1  0  0  0
 79 80  1  0  0  0
 79 81  1  0  0  0
 79151  1  0  0  0
 79152  1  0  0  0
 80 82  1  0  0  0
 80153  1  0  0  0
 80154  1  0  0  0
 81155  1  0  0  0
 81156  1  0  0  0
 82157  1  0  0  0
 83158  1  0  0  0
M  ISO  4   1 100  68 101  81 101  83 100
M  END
> <chiral flag>
0

> <version>
0

> <s_m_source_file>
/data/baiqing/PycharmProjects/Reinvent-master-3.2/result/LINK_invent/BTK/process_docking_weight1_custom_sum_contain_oxygen_bond_distance_aromatic_linkinvent_7_9_3/rearranged_h_0028.sdf

> <i_m_source_file_index>
66

> <r_mmod_Potential_Energy-OPLS-2005>
-28.166934967041

> <r_mmod_Stretch_Energy-OPLS-2005>
46.173526763916

> <r_mmod_Bend_Energy-OPLS-2005>
109.034576416016

> <r_mmod_Torsional_Energy-OPLS-2005>
219.175598144531

> <r_mmod_Improper_Torsional_Energy-OPLS-2005>
10.8678798675537

> <r_mmod_Van_der_Waal_Energy-OPLS-2005>
167.019973754883

> <r_mmod_Electrostatic_Energy-OPLS-2005>
-391.928741455078

> <r_mmod_Solvation_Energy-OPLS-2005>
-209.134948730469

> <b_mmod_Minimization_Converged-OPLS-2005>
0

> <r_mmod_RMS_Derivative-OPLS-2005>
1.96400761604309

$$$$
66
                    3D
 Structure written by MMmdl.
150158  0  0  1  0            999 V2000
  -29.2868  -16.3848   20.3351 C   0  0  0  0  0  0
  -30.1660  -13.7452   19.5857 C   0  0  0  0  0  0
  -29.5086  -12.8914   18.4319 C   0  0  0  0  0  0
  -28.1595  -12.3049   18.8645 C   0  0  0  0  0  0
  -27.4731  -13.3172   19.7933 C   0  0  2  0  0  0
  -28.3349  -13.8654   20.9344 C   0  0  0  0  0  0
  -25.1757  -13.8192   20.5795 C   0  0  0  0  0  0
  -24.1284  -13.0308   20.9336 C   0  0  0  0  0  0
  -24.6056  -11.6837   20.8788 C   0  0  0  0  0  0
  -23.8887  -10.4215   21.0446 C   0  0  0  0  0  0
  -24.3523   -9.4157   21.9200 C   0  0  0  0  0  0
  -23.6248   -8.2166   22.0753 C   0  0  0  0  0  0
  -22.4228   -8.0202   21.3538 C   0  0  0  0  0  0
  -21.9823   -9.0144   20.4630 C   0  0  0  0  0  0
  -22.7104  -10.2038   20.3057 C   0  0  0  0  0  0
  -21.6826   -6.0701   22.5293 C   0  0  0  0  0  0
  -21.3998   -6.5626   23.8221 C   0  0  0  0  0  0
  -21.3654   -5.6784   24.9187 C   0  0  0  0  0  0
  -21.6041   -4.3047   24.7237 C   0  0  0  0  0  0
  -21.8820   -3.8129   23.4366 C   0  0  0  0  0  0
  -21.9187   -4.6937   22.3419 C   0  0  0  0  0  0
  -22.7372  -13.5073   21.2013 C   0  0  0  0  0  0
  -22.1656   -4.2137   21.0990 F   0  0  0  0  0  0
  -21.5632   -3.4533   25.7749 F   0  0  0  0  0  0
  -29.2118  -14.8387   20.2608 N   0  0  0  0  0  0
  -26.1968  -12.9420   20.2971 N   0  0  0  0  0  0
  -25.8914  -11.6506   20.5537 N   0  0  0  0  0  0
  -22.0080  -12.8076   22.0612 N   0  0  0  0  0  0
  -25.3426  -15.1963   20.4373 N   0  0  0  0  0  0
  -30.5615  -16.4050   20.2075 O   0  0  0  0  0  0
  -21.6599   -6.8813   21.4246 O   0  0  0  0  0  0
  -22.3096  -14.5396   20.6853 O   0  0  0  0  0  0
  -24.7345  -31.4396   22.6783 C   0  0  0  0  0  0
  -25.8791  -32.2804   23.5338 C   0  0  1  0  0  0
  -26.6126  -28.0758   21.5707 C   0  0  0  0  0  0
  -25.4562  -33.6708   23.9273 N   0  0  0  0  0  0
  -24.3951  -28.8641   20.6999 C   0  0  2  0  0  0
  -25.6608  -28.9777   19.2500 C   0  0  0  0  0  0
  -23.6586  -27.3182   22.6961 C   0  0  0  0  0  0
  -18.1767  -28.1231   22.7737 C   0  0  0  0  0  0
  -24.1387  -36.6600   23.2792 C   0  0  0  0  0  0
  -26.0094  -31.0468   20.6469 C   0  0  0  0  0  0
  -26.5448  -29.7809   20.0782 C   0  0  0  0  0  0
  -27.3616  -29.0984   20.9981 C   0  0  0  0  0  0
  -26.5369  -27.1071   20.4143 C   0  0  0  0  0  0
  -25.9822  -27.5901   19.1749 C   0  0  0  0  0  0
  -24.1661  -29.2383   19.2873 C   0  0  0  0  0  0
  -25.4093  -36.1900   24.0078 C   0  0  1  0  0  0
  -20.7756  -27.6598   23.5200 C   0  0  2  0  0  0
  -20.2468  -26.3191   23.0208 C   0  0  0  0  0  0
  -19.4958  -26.3763   21.6770 C   0  0  0  0  0  0
  -18.1061  -26.8249   22.0126 C   0  0  0  0  0  0
  -19.4363  -28.6489   23.2836 C   0  0  0  0  0  0
  -19.2513  -29.9275   23.9138 C   0  0  0  0  0  0
  -17.9796  -30.5699   24.0585 C   0  0  0  0  0  0
  -25.8967  -34.8378   23.4073 C   0  0  0  0  0  0
  -16.7929  -29.9652   23.6082 C   0  0  0  0  0  0
  -16.9105  -28.7344   22.9570 C   0  0  0  0  0  0
  -26.4084  -31.6240   24.9116 C   0  0  0  0  0  0
  -25.3179  -31.3972   25.9919 C   0  0  0  0  0  0
  -27.0711  -30.2649   24.6442 C   0  0  0  0  0  0
  -27.5192  -32.4877   25.5968 C   0  0  0  0  0  0
  -27.5381  -37.1308   24.8450 C   0  0  0  0  0  0
  -22.1272  -27.2529   22.8292 N   0  0  0  0  0  0
  -26.4028  -37.2945   23.9435 N   0  0  0  0  0  0
  -24.8629  -30.6275   21.3913 N   0  0  0  0  0  0
  -23.8961  -27.6703   23.8639 O   0  0  0  0  0  0
  -25.4227  -28.7519   22.5042 O   0  0  0  0  0  0
  -26.6583  -34.8642   22.4401 O   0  0  0  0  0  0
  -23.6519  -31.6560   23.2660 O   0  0  0  0  0  0
  -24.9983  -21.5663   20.9332 C   0  0  0  0  0  0
  -27.3915  -21.0998   20.0485 C   0  0  0  0  0  0
  -25.1359  -23.1031   20.5326 C   0  0  0  0  0  0
  -27.2288  -19.5605   20.4486 C   0  0  0  0  0  0
  -25.8135  -20.1321   20.8984 C   0  0  0  0  0  0
  -26.5586  -22.5374   20.0564 C   0  0  0  0  0  0
  -23.7657  -24.8443   20.5306 C   0  0  0  0  0  0
  -22.8045  -27.0086   20.5058 C   0  0  0  0  0  0
  -22.8904  -29.3302   22.0733 C   0  0  0  0  0  0
  -28.1625  -17.7637   20.4145 N   0  0  0  0  0  0
  -24.8272  -18.8542   21.5260 Cl  0  0  0  0  0  0
  -27.4767  -23.7786   19.2839 Cl  0  0  0  0  0  0
  -31.0326  -14.2488   19.1608 H   0  0  0  0  0  0
  -30.6058  -13.0895   20.3386 H   0  0  0  0  0  0
  -30.1838  -12.1048   18.0948 H   0  0  0  0  0  0
  -29.3431  -13.5436   17.5705 H   0  0  0  0  0  0
  -28.3241  -11.3680   19.3957 H   0  0  0  0  0  0
  -27.5378  -12.0678   17.9989 H   0  0  0  0  0  0
  -27.2523  -14.1426   19.1106 H   0  0  0  0  0  0
  -28.8333  -13.0771   21.5015 H   0  0  0  0  0  0
  -27.7372  -14.4156   21.6616 H   0  0  0  0  0  0
  -25.2662   -9.5684   22.4772 H   0  0  0  0  0  0
  -23.9976   -7.4568   22.7478 H   0  0  0  0  0  0
  -21.0753   -8.8627   19.8942 H   0  0  0  0  0  0
  -22.3544  -10.9569   19.6165 H   0  0  0  0  0  0
  -21.1980   -7.6135   23.9722 H   0  0  0  0  0  0
  -21.1478   -6.0516   25.9090 H   0  0  0  0  0  0
  -22.0606   -2.7598   23.2861 H   0  0  0  0  0  0
  -22.3738  -11.9741   22.4975 H   0  0  0  0  0  0
  -21.0693  -13.1087   22.2863 H   0  0  0  0  0  0
  -24.5988  -15.8548   20.6317 H   0  0  0  0  0  0
  -26.2042  -15.6524   20.1642 H   0  0  0  0  0  0
  -26.7712  -32.3955   22.9365 H   0  0  0  0  0  0
  -24.7792  -33.7183   24.6722 H   0  0  0  0  0  0
  -24.6163  -27.8726   20.8273 H   0  0  0  0  0  0
  -23.3577  -35.8983   23.3068 H   0  0  0  0  0  0
  -24.3405  -36.8802   22.2304 H   0  0  0  0  0  0
  -23.7233  -37.5591   23.7351 H   0  0  0  0  0  0
  -25.6613  -31.6804   19.8327 H   0  0  0  0  0  0
  -26.8079  -31.5952   21.1251 H   0  0  0  0  0  0
  -27.8128  -29.7449   21.7331 H   0  0  0  0  0  0
  -26.4007  -26.0506   20.6028 H   0  0  0  0  0  0
  -25.4432  -26.8954   18.5440 H   0  0  0  0  0  0
  -23.8920  -30.2844   19.1312 H   0  0  0  0  0  0
  -23.6816  -28.6350   18.5259 H   0  0  0  0  0  0
  -25.1459  -36.0205   25.0542 H   0  0  0  0  0  0
  -20.9462  -27.6154   24.5971 H   0  0  0  0  0  0
  -19.5315  -25.9881   23.7828 H   0  0  0  0  0  0
  -20.9194  -25.4511   23.0625 H   0  0  0  0  0  0
  -19.4648  -25.3970   21.1985 H   0  0  0  0  0  0
  -19.8892  -27.1000   20.9673 H   0  0  0  0  0  0
  -17.5523  -26.9819   21.0840 H   0  0  0  0  0  0
  -17.5501  -26.0799   22.5874 H   0  0  0  0  0  0
  -20.1089  -30.3886   24.3850 H   0  0  0  0  0  0
  -17.9211  -31.5125   24.5871 H   0  0  0  0  0  0
  -15.8319  -30.4403   23.7440 H   0  0  0  0  0  0
  -16.0176  -28.2585   22.5724 H   0  0  0  0  0  0
  -24.5449  -30.7095   25.6449 H   0  0  0  0  0  0
  -24.8282  -32.3316   26.2674 H   0  0  0  0  0  0
  -25.7404  -30.9743   26.9060 H   0  0  0  0  0  0
  -26.3288  -29.4922   24.4680 H   0  0  0  0  0  0
  -27.6385  -29.9219   25.5121 H   0  0  0  0  0  0
  -27.7670  -30.3082   23.8091 H   0  0  0  0  0  0
  -27.1424  -33.4542   25.9320 H   0  0  0  0  0  0
  -28.3506  -32.6835   24.9185 H   0  0  0  0  0  0
  -27.9278  -31.9992   26.4821 H   0  0  0  0  0  0
  -28.2170  -37.9791   24.7409 H   0  0  0  0  0  0
  -28.1050  -36.2238   24.6261 H   0  0  0  0  0  0
  -27.2138  -37.0913   25.8872 H   0  0  0  0  0  0
  -21.8410  -26.9168   21.9202 H   0  0  0  0  0  0
  -25.9575  -38.1828   24.1584 H   0  0  0  0  0  0
  -24.0120  -21.4093   21.3535 H   0  0  0  0  0  0
  -28.3586  -21.2614   19.5946 H   0  0  0  0  0  0
  -22.9443  -24.3452   21.0612 H   0  0  0  0  0  0
  -23.5603  -24.6820   19.4601 H   0  0  0  0  0  0
  -21.7707  -26.7103   20.4759 H   0  0  0  0  0  0
  -22.7595  -27.2308   19.4572 H   0  0  0  0  0  0
  -22.3581  -29.5228   23.0176 H   0  0  0  0  0  0
  -22.5428  -30.1757   21.4585 H   0  0  0  0  0  0
  -29.0351  -18.2457   20.2443 H   0  0  0  0  0  0
  1 25  1  0  0  0
  1 30  2  0  0  0
  1 80  1  0  0  0
  2  3  1  0  0  0
  2 25  1  0  0  0
  2 83  1  0  0  0
  2 84  1  0  0  0
  3  4  1  0  0  0
  3 85  1  0  0  0
  3 86  1  0  0  0
  4  5  1  0  0  0
  4 87  1  0  0  0
  4 88  1  0  0  0
  5  6  1  0  0  0
  5 26  1  0  0  0
  5 89  1  0  0  0
  6 25  1  0  0  0
  6 90  1  0  0  0
  6 91  1  0  0  0
  7  8  2  0  0  0
  7 26  1  0  0  0
  7 29  1  0  0  0
  8  9  1  0  0  0
  8 22  1  0  0  0
  9 10  1  0  0  0
  9 27  2  0  0  0
 10 11  2  0  0  0
 10 15  1  0  0  0
 11 12  1  0  0  0
 11 92  1  0  0  0
 12 13  2  0  0  0
 12 93  1  0  0  0
 13 14  1  0  0  0
 13 31  1  0  0  0
 14 15  2  0  0  0
 14 94  1  0  0  0
 15 95  1  0  0  0
 16 17  2  0  0  0
 16 21  1  0  0  0
 16 31  1  0  0  0
 17 18  1  0  0  0
 17 96  1  0  0  0
 18 19  2  0  0  0
 18 97  1  0  0  0
 19 20  1  0  0  0
 19 24  1  0  0  0
 20 21  2  0  0  0
 20 98  1  0  0  0
 21 23  1  0  0  0
 22 28  1  0  0  0
 22 32  2  0  0  0
 26 27  1  0  0  0
 28 99  1  0  0  0
 28100  1  0  0  0
 29101  1  0  0  0
 29102  1  0  0  0
 33 34  1  0  0  0
 33 66  1  0  0  0
 33 70  2  0  0  0
 34 36  1  0  0  0
 34 59  1  0  0  0
 34103  1  0  0  0
 35 44  2  0  0  0
 35 45  1  0  0  0
 35 68  1  0  0  0
 36 56  1  0  0  0
 36104  1  0  0  0
 37 39  1  0  0  0
 37 47  1  0  0  0
 37 66  1  0  0  0
 37105  1  0  0  0
 38 43  2  0  0  0
 38 46  1  0  0  0
 38 47  1  0  0  0
 39 64  1  0  0  0
 39 67  2  0  0  0
 40 52  1  0  0  0
 40 53  2  0  0  0
 40 58  1  0  0  0
 41106  1  0  0  0
 41107  1  0  0  0
 41108  1  0  0  0
 41 48  1  0  0  0
 42 43  1  0  0  0
 42 66  1  0  0  0
 42109  1  0  0  0
 42110  1  0  0  0
 43 44  1  0  0  0
 44111  1  0  0  0
 45 46  2  0  0  0
 45112  1  0  0  0
 46113  1  0  0  0
 47114  1  0  0  0
 47115  1  0  0  0
 48 56  1  0  0  0
 48 65  1  0  0  0
 48116  1  0  0  0
 49 50  1  0  0  0
 49 53  1  0  0  0
 49 64  1  0  0  0
 49117  1  0  0  0
 50 51  1  0  0  0
 50118  1  0  0  0
 50119  1  0  0  0
 51 52  1  0  0  0
 51120  1  0  0  0
 51121  1  0  0  0
 52122  1  0  0  0
 52123  1  0  0  0
 53 54  1  0  0  0
 54 55  2  0  0  0
 54124  1  0  0  0
 55 57  1  0  0  0
 55125  1  0  0  0
 56 69  2  0  0  0
 57 58  2  0  0  0
 57126  1  0  0  0
 58127  1  0  0  0
 59 60  1  0  0  0
 59 61  1  0  0  0
 59 62  1  0  0  0
 60128  1  0  0  0
 60129  1  0  0  0
 60130  1  0  0  0
 61131  1  0  0  0
 61132  1  0  0  0
 61133  1  0  0  0
 62134  1  0  0  0
 62135  1  0  0  0
 62136  1  0  0  0
 63 65  1  0  0  0
 63137  1  0  0  0
 63138  1  0  0  0
 63139  1  0  0  0
 64140  1  0  0  0
 65141  1  0  0  0
 68 79  1  0  0  0
 71 73  2  0  0  0
 71 75  1  0  0  0
 71142  1  0  0  0
 72 74  1  0  0  0
 72 76  2  0  0  0
 72143  1  0  0  0
 73 76  1  0  0  0
 73 77  1  0  0  0
 74 75  2  0  0  0
 74 80  1  0  0  0
 75 81  1  0  0  0
 76 82  1  0  0  0
 77 78  1  0  0  0
 77144  1  0  0  0
 77145  1  0  0  0
 78 79  1  0  0  0
 78146  1  0  0  0
 78147  1  0  0  0
 79148  1  0  0  0
 79149  1  0  0  0
 80150  1  0  0  0
M  ISO  4   1 100  68 101  79 101  80 100
M  END
> <chiral flag>
0

> <version>
0

> <s_m_source_file>
/data/baiqing/PycharmProjects/Reinvent-master-3.2/result/LINK_invent/BTK/process_docking_weight1_custom_sum_contain_oxygen_bond_distance_aromatic_linkinvent_7_9_3/rearranged_h_0028.sdf

> <i_m_source_file_index>
67

> <r_mmod_Potential_Energy-OPLS-2005>
21711.32421875

> <r_mmod_Stretch_Energy-OPLS-2005>
9433.552734375

> <r_mmod_Bend_Energy-OPLS-2005>
2627.18090820312

> <r_mmod_Torsional_Energy-OPLS-2005>
675.709655761719

> <r_mmod_Improper_Torsional_Energy-OPLS-2005>
130.000961303711

> <r_mmod_Van_der_Waal_Energy-OPLS-2005>
2656.11572265625

> <r_mmod_Electrostatic_Energy-OPLS-2005>
-379.788482666016

> <r_mmod_Solvation_Energy-OPLS-2005>
-214.983489990234

> <b_mmod_Minimization_Converged-OPLS-2005>
0

> <r_mmod_RMS_Derivative-OPLS-2005>
11.3256807327271

$$$$
67
                    3D
 Structure written by MMmdl.
159167  0  0  1  0            999 V2000
  -30.6360  -14.6011   20.5221 C   0  0  0  0  0  0
  -30.4366  -12.3716   19.4480 C   0  0  0  0  0  0
  -29.5072  -12.5092   18.2216 C   0  0  0  0  0  0
  -28.0293  -12.3511   18.6311 C   0  0  0  0  0  0
  -27.6567  -13.2125   19.8678 C   0  0  2  0  0  0
  -28.7001  -13.0429   20.9963 C   0  0  0  0  0  0
  -25.2569  -13.8158   20.5679 C   0  0  0  0  0  0
  -24.1833  -13.0431   20.9192 C   0  0  0  0  0  0
  -24.6396  -11.6903   20.8735 C   0  0  0  0  0  0
  -23.9064  -10.4288   21.0398 C   0  0  0  0  0  0
  -24.3613   -9.4204   21.9177 C   0  0  0  0  0  0
  -23.6284   -8.2242   22.0750 C   0  0  0  0  0  0
  -22.4264   -8.0286   21.3543 C   0  0  0  0  0  0
  -21.9898   -9.0260   20.4647 C   0  0  0  0  0  0
  -22.7232  -10.2135   20.3051 C   0  0  0  0  0  0
  -21.6856   -6.0732   22.5275 C   0  0  0  0  0  0
  -21.4020   -6.5634   23.8209 C   0  0  0  0  0  0
  -21.3654   -5.6786   24.9168 C   0  0  0  0  0  0
  -21.6042   -4.3051   24.7220 C   0  0  0  0  0  0
  -21.8824   -3.8142   23.4344 C   0  0  0  0  0  0
  -21.9194   -4.6957   22.3400 C   0  0  0  0  0  0
  -22.7857  -13.5234   21.1850 C   0  0  0  0  0  0
  -22.1662   -4.2143   21.0975 F   0  0  0  0  0  0
  -21.5619   -3.4535   25.7734 F   0  0  0  0  0  0
  -30.0211  -13.3807   20.4405 N   0  0  0  0  0  0
  -26.3001  -12.9339   20.3322 N   0  0  0  0  0  0
  -25.9325  -11.6497   20.5753 N   0  0  0  0  0  0
  -22.0496  -12.8235   22.0411 N   0  0  0  0  0  0
  -25.4274  -15.1878   20.4079 N   0  0  0  0  0  0
  -31.7814  -14.7740   20.0964 O   0  0  0  0  0  0
  -21.6639   -6.8876   21.4238 O   0  0  0  0  0  0
  -22.3541  -14.5539   20.6693 O   0  0  0  0  0  0
  -24.6222  -31.8605   23.2040 C   0  0  0  0  0  0
  -25.9076  -32.4785   23.8363 C   0  0  1  0  0  0
  -27.2329  -27.3537   20.1206 C   0  0  0  0  0  0
  -25.5903  -33.8581   24.2292 N   0  0  0  0  0  0
  -23.4157  -30.4827   21.5451 C   0  0  2  0  0  0
  -24.8644  -28.9377   20.1153 C   0  0  0  0  0  0
  -22.7450  -29.4625   22.4945 C   0  0  0  0  0  0
  -18.0283  -28.1378   22.8483 C   0  0  0  0  0  0
  -24.1485  -36.7301   23.2641 C   0  0  0  0  0  0
  -25.9519  -30.8045   21.3678 C   0  0  0  0  0  0
  -26.0304  -29.4323   20.7143 C   0  0  0  0  0  0
  -27.2203  -28.6522   20.7050 C   0  0  0  0  0  0
  -26.0494  -26.8997   19.4994 C   0  0  0  0  0  0
  -24.8734  -27.6747   19.5005 C   0  0  0  0  0  0
  -23.6296  -29.8135   20.1614 C   0  0  0  0  0  0
  -25.4105  -36.3087   24.0334 C   0  0  1  0  0  0
  -20.5878  -28.3674   23.1287 C   0  0  2  0  0  0
  -20.6767  -26.9397   22.5414 C   0  0  0  0  0  0
  -19.5753  -26.6378   21.5205 C   0  0  0  0  0  0
  -18.1929  -26.7924   22.1612 C   0  0  0  0  0  0
  -19.1534  -28.8843   23.2886 C   0  0  0  0  0  0
  -18.9459  -30.1440   23.8909 C   0  0  0  0  0  0
  -17.6462  -30.6579   24.0561 C   0  0  0  0  0  0
  -25.9038  -34.9452   23.5117 C   0  0  0  0  0  0
  -16.5353  -29.9080   23.6323 C   0  0  0  0  0  0
  -16.7272  -28.6496   23.0351 C   0  0  0  0  0  0
  -26.4484  -31.6587   25.0716 C   0  0  0  0  0  0
  -25.3735  -31.3721   26.1457 C   0  0  0  0  0  0
  -27.0316  -30.3017   24.6135 C   0  0  0  0  0  0
  -27.6059  -32.4312   25.7474 C   0  0  0  0  0  0
  -27.5575  -37.1805   24.8462 C   0  0  0  0  0  0
  -21.4169  -29.3032   22.3682 N   0  0  0  0  0  0
  -26.4291  -37.3772   23.9404 N   0  0  0  0  0  0
  -24.6820  -31.0644   22.0971 N   0  0  0  0  0  0
  -23.4181  -28.8163   23.3021 O   0  0  0  0  0  0
  -28.3655  -26.5397   20.1248 O   0  0  0  0  0  0
  -26.5613  -34.8916   22.4687 O   0  0  0  0  0  0
  -23.5392  -32.1386   23.7387 O   0  0  0  0  0  0
  -30.8614  -19.3318   20.8133 C   0  0  0  0  0  0
  -28.7366  -17.6649   20.1504 C   0  0  0  0  0  0
  -29.7239  -19.9363   20.2134 C   0  0  0  0  0  0
  -30.9531  -17.9297   21.0685 C   0  0  0  0  0  0
  -28.6467  -19.0641   19.8965 C   0  0  0  0  0  0
  -29.8903  -17.0539   20.7063 C   0  0  0  0  0  0
  -32.2028  -17.4046   21.7521 C   0  0  0  0  0  0
  -27.3817  -19.6037   19.2516 C   0  0  0  0  0  0
  -29.7636  -21.4444   19.7784 C   0  0  0  0  0  0
  -28.9324  -22.5538   20.5388 C   0  0  0  0  0  0
  -29.0337  -24.0223   19.9353 C   0  0  0  0  0  0
  -28.2135  -25.1719   20.6440 C   0  0  0  0  0  0
  -29.8508  -15.6225   20.9737 N   0  0  0  0  0  0
  -31.4794  -12.4909   19.1475 H   0  0  0  0  0  0
  -30.3647  -11.3714   19.8770 H   0  0  0  0  0  0
  -29.7671  -11.7658   17.4668 H   0  0  0  0  0  0
  -29.6561  -13.4842   17.7540 H   0  0  0  0  0  0
  -27.8590  -11.2964   18.8514 H   0  0  0  0  0  0
  -27.3774  -12.5937   17.7915 H   0  0  0  0  0  0
  -27.6830  -14.2516   19.5399 H   0  0  0  0  0  0
  -28.7033  -12.0154   21.3621 H   0  0  0  0  0  0
  -28.4455  -13.6584   21.8610 H   0  0  0  0  0  0
  -25.2762   -9.5673   22.4748 H   0  0  0  0  0  0
  -23.9994   -7.4633   22.7464 H   0  0  0  0  0  0
  -21.0827   -8.8787   19.8953 H   0  0  0  0  0  0
  -22.3700  -10.9675   19.6159 H   0  0  0  0  0  0
  -21.2025   -7.6146   23.9717 H   0  0  0  0  0  0
  -21.1461   -6.0511   25.9070 H   0  0  0  0  0  0
  -22.0606   -2.7603   23.2854 H   0  0  0  0  0  0
  -22.4112  -11.9898   22.4804 H   0  0  0  0  0  0
  -21.1116  -13.1268   22.2617 H   0  0  0  0  0  0
  -24.6598  -15.8415   20.5203 H   0  0  0  0  0  0
  -26.2684  -15.6215   20.0538 H   0  0  0  0  0  0
  -26.7142  -32.5474   23.1116 H   0  0  0  0  0  0
  -25.0043  -33.9724   25.0434 H   0  0  0  0  0  0
  -22.7096  -31.3028   21.4008 H   0  0  0  0  0  0
  -23.3729  -35.9654   23.3324 H   0  0  0  0  0  0
  -24.3573  -36.8895   22.2052 H   0  0  0  0  0  0
  -23.7262  -37.6520   23.6648 H   0  0  0  0  0  0
  -26.0726  -31.5682   20.5980 H   0  0  0  0  0  0
  -26.8363  -30.8592   21.9910 H   0  0  0  0  0  0
  -28.1198  -29.0288   21.1721 H   0  0  0  0  0  0
  -26.0297  -25.9345   19.0127 H   0  0  0  0  0  0
  -23.9796  -27.2908   19.0281 H   0  0  0  0  0  0
  -23.7454  -30.5882   19.4025 H   0  0  0  0  0  0
  -22.7516  -29.2390   19.8610 H   0  0  0  0  0  0
  -25.1287  -36.1950   25.0828 H   0  0  0  0  0  0
  -20.9976  -28.3249   24.1406 H   0  0  0  0  0  0
  -20.5642  -26.2284   23.3610 H   0  0  0  0  0  0
  -21.6641  -26.7414   22.1227 H   0  0  0  0  0  0
  -19.6915  -25.6288   21.1235 H   0  0  0  0  0  0
  -19.6703  -27.3183   20.6731 H   0  0  0  0  0  0
  -17.4199  -26.6668   21.4014 H   0  0  0  0  0  0
  -18.0335  -26.0063   22.9005 H   0  0  0  0  0  0
  -19.7932  -30.7250   24.2293 H   0  0  0  0  0  0
  -17.5015  -31.6259   24.5159 H   0  0  0  0  0  0
  -15.5356  -30.2990   23.7637 H   0  0  0  0  0  0
  -15.8667  -28.0814   22.7077 H   0  0  0  0  0  0
  -24.5907  -30.7067   25.7800 H   0  0  0  0  0  0
  -24.8930  -32.2887   26.4889 H   0  0  0  0  0  0
  -25.8075  -30.8902   27.0227 H   0  0  0  0  0  0
  -26.2870  -29.6774   24.1183 H   0  0  0  0  0  0
  -27.4057  -29.7268   25.4617 H   0  0  0  0  0  0
  -27.8722  -30.4319   23.9314 H   0  0  0  0  0  0
  -27.2680  -33.3605   26.2072 H   0  0  0  0  0  0
  -28.3852  -32.6878   25.0285 H   0  0  0  0  0  0
  -28.0743  -31.8420   26.5369 H   0  0  0  0  0  0
  -28.2612  -38.0081   24.7472 H   0  0  0  0  0  0
  -28.1052  -36.2613   24.6329 H   0  0  0  0  0  0
  -27.2291  -37.1499   25.8865 H   0  0  0  0  0  0
  -20.9340  -29.8758   21.6898 H   0  0  0  0  0  0
  -26.0177  -38.2852   24.1395 H   0  0  0  0  0  0
  -31.7056  -19.9591   21.0648 H   0  0  0  0  0  0
  -27.8954  -17.0381   19.8922 H   0  0  0  0  0  0
  -32.6864  -18.1849   22.3400 H   0  0  0  0  0  0
  -32.9185  -17.0482   21.0113 H   0  0  0  0  0  0
  -31.9696  -16.5841   22.4308 H   0  0  0  0  0  0
  -26.6852  -18.8024   19.0026 H   0  0  0  0  0  0
  -27.6083  -20.1380   18.3294 H   0  0  0  0  0  0
  -26.8680  -20.2839   19.9294 H   0  0  0  0  0  0
  -29.4902  -21.4789   18.7235 H   0  0  0  0  0  0
  -30.8090  -21.7546   19.7908 H   0  0  0  0  0  0
  -29.2547  -22.5756   21.5804 H   0  0  0  0  0  0
  -27.8829  -22.2643   20.5595 H   0  0  0  0  0  0
  -28.7232  -23.9854   18.8903 H   0  0  0  0  0  0
  -30.0842  -24.3144   19.9169 H   0  0  0  0  0  0
  -28.5244  -25.2109   21.6886 H   0  0  0  0  0  0
  -27.1675  -24.8684   20.6795 H   0  0  0  0  0  0
  -28.9480  -15.2850   21.2712 H   0  0  0  0  0  0
  1 25  1  0  0  0
  1 30  2  0  0  0
  1 83  1  0  0  0
  2  3  1  0  0  0
  2 25  1  0  0  0
  2 84  1  0  0  0
  2 85  1  0  0  0
  3  4  1  0  0  0
  3 86  1  0  0  0
  3 87  1  0  0  0
  4  5  1  0  0  0
  4 88  1  0  0  0
  4 89  1  0  0  0
  5  6  1  0  0  0
  5 26  1  0  0  0
  5 90  1  0  0  0
  6 25  1  0  0  0
  6 91  1  0  0  0
  6 92  1  0  0  0
  7  8  2  0  0  0
  7 26  1  0  0  0
  7 29  1  0  0  0
  8  9  1  0  0  0
  8 22  1  0  0  0
  9 10  1  0  0  0
  9 27  2  0  0  0
 10 11  2  0  0  0
 10 15  1  0  0  0
 11 12  1  0  0  0
 11 93  1  0  0  0
 12 13  2  0  0  0
 12 94  1  0  0  0
 13 14  1  0  0  0
 13 31  1  0  0  0
 14 15  2  0  0  0
 14 95  1  0  0  0
 15 96  1  0  0  0
 16 17  2  0  0  0
 16 21  1  0  0  0
 16 31  1  0  0  0
 17 18  1  0  0  0
 17 97  1  0  0  0
 18 19  2  0  0  0
 18 98  1  0  0  0
 19 20  1  0  0  0
 19 24  1  0  0  0
 20 21  2  0  0  0
 20 99  1  0  0  0
 21 23  1  0  0  0
 22 28  1  0  0  0
 22 32  2  0  0  0
 26 27  1  0  0  0
 28100  1  0  0  0
 28101  1  0  0  0
 29102  1  0  0  0
 29103  1  0  0  0
 33 34  1  0  0  0
 33 66  1  0  0  0
 33 70  2  0  0  0
 34 36  1  0  0  0
 34 59  1  0  0  0
 34104  1  0  0  0
 35 44  2  0  0  0
 35 45  1  0  0  0
 35 68  1  0  0  0
 36 56  1  0  0  0
 36105  1  0  0  0
 37 39  1  0  0  0
 37 47  1  0  0  0
 37 66  1  0  0  0
 37106  1  0  0  0
 38 43  2  0  0  0
 38 46  1  0  0  0
 38 47  1  0  0  0
 39 64  1  0  0  0
 39 67  2  0  0  0
 40 52  1  0  0  0
 40 53  2  0  0  0
 40 58  1  0  0  0
 41107  1  0  0  0
 41108  1  0  0  0
 41109  1  0  0  0
 41 48  1  0  0  0
 42 43  1  0  0  0
 42 66  1  0  0  0
 42110  1  0  0  0
 42111  1  0  0  0
 43 44  1  0  0  0
 44112  1  0  0  0
 45 46  2  0  0  0
 45113  1  0  0  0
 46114  1  0  0  0
 47115  1  0  0  0
 47116  1  0  0  0
 48 56  1  0  0  0
 48 65  1  0  0  0
 48117  1  0  0  0
 49 50  1  0  0  0
 49 53  1  0  0  0
 49 64  1  0  0  0
 49118  1  0  0  0
 50 51  1  0  0  0
 50119  1  0  0  0
 50120  1  0  0  0
 51 52  1  0  0  0
 51121  1  0  0  0
 51122  1  0  0  0
 52123  1  0  0  0
 52124  1  0  0  0
 53 54  1  0  0  0
 54 55  2  0  0  0
 54125  1  0  0  0
 55 57  1  0  0  0
 55126  1  0  0  0
 56 69  2  0  0  0
 57 58  2  0  0  0
 57127  1  0  0  0
 58128  1  0  0  0
 59 60  1  0  0  0
 59 61  1  0  0  0
 59 62  1  0  0  0
 60129  1  0  0  0
 60130  1  0  0  0
 60131  1  0  0  0
 61132  1  0  0  0
 61133  1  0  0  0
 61134  1  0  0  0
 62135  1  0  0  0
 62136  1  0  0  0
 62137  1  0  0  0
 63 65  1  0  0  0
 63138  1  0  0  0
 63139  1  0  0  0
 63140  1  0  0  0
 64141  1  0  0  0
 65142  1  0  0  0
 68 82  1  0  0  0
 71 73  2  0  0  0
 71 74  1  0  0  0
 71143  1  0  0  0
 72 75  2  0  0  0
 72 76  1  0  0  0
 72144  1  0  0  0
 73 75  1  0  0  0
 73 79  1  0  0  0
 74 76  2  0  0  0
 74 77  1  0  0  0
 75 78  1  0  0  0
 76 83  1  0  0  0
 77145  1  0  0  0
 77146  1  0  0  0
 77147  1  0  0  0
 78148  1  0  0  0
 78149  1  0  0  0
 78150  1  0  0  0
 79 80  1  0  0  0
 79151  1  0  0  0
 79152  1  0  0  0
 80 81  1  0  0  0
 80153  1  0  0  0
 80154  1  0  0  0
 81 82  1  0  0  0
 81155  1  0  0  0
 81156  1  0  0  0
 82157  1  0  0  0
 82158  1  0  0  0
 83159  1  0  0  0
M  ISO  4   1 100  68 101  82 101  83 100
M  END
> <chiral flag>
0

> <version>
0

> <s_m_source_file>
/data/baiqing/PycharmProjects/Reinvent-master-3.2/result/LINK_invent/BTK/process_docking_weight1_custom_sum_contain_oxygen_bond_distance_aromatic_linkinvent_7_9_3/rearranged_h_0028.sdf

> <i_m_source_file_index>
68

> <r_mmod_Potential_Energy-OPLS-2005>
22.9112968444824

> <r_mmod_Stretch_Energy-OPLS-2005>
67.1148223876953

> <r_mmod_Bend_Energy-OPLS-2005>
124.267807006836

> <r_mmod_Torsional_Energy-OPLS-2005>
242.70329284668

> <r_mmod_Improper_Torsional_Energy-OPLS-2005>
5.56216049194336

> <r_mmod_Van_der_Waal_Energy-OPLS-2005>
138.537933349609

> <r_mmod_Electrostatic_Energy-OPLS-2005>
-389.403381347656

> <r_mmod_Solvation_Energy-OPLS-2005>
-199.986465454102

> <b_mmod_Minimization_Converged-OPLS-2005>
0

> <r_mmod_RMS_Derivative-OPLS-2005>
1.15977764129639

$$$$
68
                    3D
 Structure written by MMmdl.
160169  0  0  1  0            999 V2000
  -30.5862  -14.8598   20.4478 C   0  0  0  0  0  0
  -30.4349  -12.5411   19.4932 C   0  0  0  0  0  0
  -29.5149  -12.5205   18.2524 C   0  0  0  0  0  0
  -28.0444  -12.3240   18.6646 C   0  0  0  0  0  0
  -27.6286  -13.2456   19.8415 C   0  0  2  0  0  0
  -28.6693  -13.2472   20.9791 C   0  0  0  0  0  0
  -25.2452  -13.8224   20.5729 C   0  0  0  0  0  0
  -24.1749  -13.0437   20.9220 C   0  0  0  0  0  0
  -24.6363  -11.6927   20.8745 C   0  0  0  0  0  0
  -23.9046  -10.4294   21.0400 C   0  0  0  0  0  0
  -24.3607   -9.4223   21.9186 C   0  0  0  0  0  0
  -23.6285   -8.2253   22.0767 C   0  0  0  0  0  0
  -22.4276   -8.0275   21.3557 C   0  0  0  0  0  0
  -21.9901   -9.0238   20.4661 C   0  0  0  0  0  0
  -22.7215  -10.2125   20.3066 C   0  0  0  0  0  0
  -21.6852   -6.0732   22.5280 C   0  0  0  0  0  0
  -21.4007   -6.5638   23.8213 C   0  0  0  0  0  0
  -21.3657   -5.6792   24.9172 C   0  0  0  0  0  0
  -21.6051   -4.3054   24.7226 C   0  0  0  0  0  0
  -21.8817   -3.8145   23.4342 C   0  0  0  0  0  0
  -21.9190   -4.6960   22.3396 C   0  0  0  0  0  0
  -22.7777  -13.5217   21.1851 C   0  0  0  0  0  0
  -22.1666   -4.2148   21.0977 F   0  0  0  0  0  0
  -21.5638   -3.4539   25.7742 F   0  0  0  0  0  0
  -29.9546  -13.6292   20.3838 N   0  0  0  0  0  0
  -26.2866  -12.9435   20.3259 N   0  0  0  0  0  0
  -25.9299  -11.6564   20.5740 N   0  0  0  0  0  0
  -22.0418  -12.8230   22.0424 N   0  0  0  0  0  0
  -25.4122  -15.1952   20.4171 N   0  0  0  0  0  0
  -31.7937  -14.9020   20.1934 O   0  0  0  0  0  0
  -21.6647   -6.8871   21.4240 O   0  0  0  0  0  0
  -22.3461  -14.5511   20.6670 O   0  0  0  0  0  0
  -24.6376  -31.8504   23.1939 C   0  0  0  0  0  0
  -25.9197  -32.4718   23.8302 C   0  0  1  0  0  0
  -27.2064  -27.1960   20.1559 C   0  0  0  0  0  0
  -25.5977  -33.8525   24.2229 N   0  0  0  0  0  0
  -23.4338  -30.4746   21.5376 C   0  0  2  0  0  0
  -24.8787  -28.9059   20.1142 C   0  0  0  0  0  0
  -22.7517  -29.4609   22.4883 C   0  0  0  0  0  0
  -18.0306  -28.1389   22.8486 C   0  0  0  0  0  0
  -24.1491  -36.7252   23.2639 C   0  0  0  0  0  0
  -25.9845  -30.7446   21.3817 C   0  0  0  0  0  0
  -26.0536  -29.3597   20.7287 C   0  0  0  0  0  0
  -27.2204  -28.5192   20.7344 C   0  0  0  0  0  0
  -26.0173  -26.8330   19.4929 C   0  0  0  0  0  0
  -24.8689  -27.6522   19.4835 C   0  0  0  0  0  0
  -23.6538  -29.8029   20.1558 C   0  0  0  0  0  0
  -25.4118  -36.3038   24.0322 C   0  0  1  0  0  0
  -20.5908  -28.3717   23.1238 C   0  0  2  0  0  0
  -20.6797  -26.9424   22.5397 C   0  0  0  0  0  0
  -19.5763  -26.6377   21.5215 C   0  0  0  0  0  0
  -18.1942  -26.7928   22.1624 C   0  0  0  0  0  0
  -19.1560  -28.8863   23.2857 C   0  0  0  0  0  0
  -18.9483  -30.1463   23.8867 C   0  0  0  0  0  0
  -17.6483  -30.6585   24.0559 C   0  0  0  0  0  0
  -25.9068  -34.9419   23.5069 C   0  0  0  0  0  0
  -16.5373  -29.9079   23.6338 C   0  0  0  0  0  0
  -16.7294  -28.6501   23.0357 C   0  0  0  0  0  0
  -26.4535  -31.6563   25.0717 C   0  0  0  0  0  0
  -25.3743  -31.3760   26.1432 C   0  0  0  0  0  0
  -27.0414  -30.2969   24.6267 C   0  0  0  0  0  0
  -27.6057  -32.4331   25.7510 C   0  0  0  0  0  0
  -27.5579  -37.1781   24.8465 C   0  0  0  0  0  0
  -21.4219  -29.3069   22.3627 N   0  0  0  0  0  0
  -26.4282  -37.3752   23.9418 N   0  0  0  0  0  0
  -24.7049  -31.0436   22.0926 N   0  0  0  0  0  0
  -23.4193  -28.8161   23.3013 O   0  0  0  0  0  0
  -28.2926  -26.2705   20.1630 O   0  0  0  0  0  0
  -26.5630  -34.8909   22.4632 O   0  0  0  0  0  0
  -23.5519  -32.1370   23.7209 O   0  0  0  0  0  0
  -29.6109  -21.4256   20.2034 C   0  0  0  0  0  0
  -30.3989  -20.1691   20.1428 C   0  0  0  0  0  0
  -28.3118  -21.1878   20.5559 C   0  0  0  0  0  0
  -29.7393  -18.9566   20.4331 C   0  0  0  0  0  0
  -30.0598  -22.8805   19.8602 C   0  0  0  0  0  0
  -27.2114  -22.2596   20.7448 C   0  0  0  0  0  0
  -29.6501  -24.1209   20.7891 C   0  0  0  0  0  0
  -27.2914  -23.7216   20.0751 C   0  0  0  0  0  0
  -28.2210  -24.8341   20.7225 C   0  0  2  0  0  0
  -31.8595  -20.1562   19.7713 C   0  0  0  0  0  0
  -27.7379  -25.0918   22.1698 C   0  0  0  0  0  0
  -30.4476  -17.4926   20.4614 C   0  0  0  0  0  0
  -29.8587  -16.0601   20.5744 N   0  0  0  0  0  0
  -28.0640  -19.4198   20.8053 S   0  0  0  0  0  0
  -31.4690  -12.6944   19.1797 H   0  0  0  0  0  0
  -30.4181  -11.5834   20.0172 H   0  0  0  0  0  0
  -29.8196  -11.7260   17.5706 H   0  0  0  0  0  0
  -29.6199  -13.4578   17.7023 H   0  0  0  0  0  0
  -27.9228  -11.2799   18.9535 H   0  0  0  0  0  0
  -27.3886  -12.4829   17.8080 H   0  0  0  0  0  0
  -27.6002  -14.2546   19.4278 H   0  0  0  0  0  0
  -28.7349  -12.2680   21.4534 H   0  0  0  0  0  0
  -28.3815  -13.9519   21.7618 H   0  0  0  0  0  0
  -25.2743   -9.5711   22.4767 H   0  0  0  0  0  0
  -24.0000   -7.4651   22.7492 H   0  0  0  0  0  0
  -21.0836   -8.8732   19.8962 H   0  0  0  0  0  0
  -22.3647  -10.9660   19.6185 H   0  0  0  0  0  0
  -21.1984   -7.6146   23.9707 H   0  0  0  0  0  0
  -21.1496   -6.0533   25.9080 H   0  0  0  0  0  0
  -22.0593   -2.7604   23.2847 H   0  0  0  0  0  0
  -22.4029  -11.9893   22.4828 H   0  0  0  0  0  0
  -21.1041  -13.1295   22.2617 H   0  0  0  0  0  0
  -24.6387  -15.8451   20.5133 H   0  0  0  0  0  0
  -26.2583  -15.6375   20.0832 H   0  0  0  0  0  0
  -26.7265  -32.5348   23.1038 H   0  0  0  0  0  0
  -25.0178  -33.9656   25.0414 H   0  0  0  0  0  0
  -22.7341  -31.3003   21.3872 H   0  0  0  0  0  0
  -23.3765  -35.9572   23.3277 H   0  0  0  0  0  0
  -24.3576  -36.8903   22.2058 H   0  0  0  0  0  0
  -23.7247  -37.6440   23.6687 H   0  0  0  0  0  0
  -26.1360  -31.5003   20.6096 H   0  0  0  0  0  0
  -26.8570  -30.7902   22.0220 H   0  0  0  0  0  0
  -28.1190  -28.8641   21.2258 H   0  0  0  0  0  0
  -25.9630  -25.8908   18.9712 H   0  0  0  0  0  0
  -23.9752  -27.3025   18.9849 H   0  0  0  0  0  0
  -23.7832  -30.5767   19.3974 H   0  0  0  0  0  0
  -22.7675  -29.2422   19.8511 H   0  0  0  0  0  0
  -25.1309  -36.1850   25.0817 H   0  0  0  0  0  0
  -21.0018  -28.3309   24.1353 H   0  0  0  0  0  0
  -20.5701  -26.2335   23.3624 H   0  0  0  0  0  0
  -21.6666  -26.7441   22.1191 H   0  0  0  0  0  0
  -19.6920  -25.6281   21.1261 H   0  0  0  0  0  0
  -19.6682  -27.3179   20.6736 H   0  0  0  0  0  0
  -17.4217  -26.6694   21.4016 H   0  0  0  0  0  0
  -18.0310  -26.0061   22.9004 H   0  0  0  0  0  0
  -19.7960  -30.7298   24.2206 H   0  0  0  0  0  0
  -17.5037  -31.6262   24.5170 H   0  0  0  0  0  0
  -15.5370  -30.2978   23.7669 H   0  0  0  0  0  0
  -15.8698  -28.0818   22.7072 H   0  0  0  0  0  0
  -24.5898  -30.7120   25.7784 H   0  0  0  0  0  0
  -24.8966  -32.2956   26.4820 H   0  0  0  0  0  0
  -25.8044  -30.8970   27.0235 H   0  0  0  0  0  0
  -26.3043  -29.6675   24.1261 H   0  0  0  0  0  0
  -27.4049  -29.7271   25.4830 H   0  0  0  0  0  0
  -27.8930  -30.4233   23.9577 H   0  0  0  0  0  0
  -27.2627  -33.3631   26.2059 H   0  0  0  0  0  0
  -28.3889  -32.6894   25.0364 H   0  0  0  0  0  0
  -28.0698  -31.8481   26.5461 H   0  0  0  0  0  0
  -28.2574  -38.0098   24.7526 H   0  0  0  0  0  0
  -28.1094  -36.2626   24.6261 H   0  0  0  0  0  0
  -27.2294  -37.1394   25.8867 H   0  0  0  0  0  0
  -20.9402  -29.8794   21.6839 H   0  0  0  0  0  0
  -26.0136  -38.2814   24.1428 H   0  0  0  0  0  0
  -29.7686  -23.1087   18.8346 H   0  0  0  0  0  0
  -31.1470  -22.9010   19.8195 H   0  0  0  0  0  0
  -27.0431  -22.3728   21.8152 H   0  0  0  0  0  0
  -26.2803  -21.8178   20.3891 H   0  0  0  0  0  0
  -30.3779  -24.9092   20.5918 H   0  0  0  0  0  0
  -29.8652  -23.8203   21.8149 H   0  0  0  0  0  0
  -26.2718  -24.1022   20.1130 H   0  0  0  0  0  0
  -27.5099  -23.6262   19.0115 H   0  0  0  0  0  0
  -32.3535  -21.1114   19.9340 H   0  0  0  0  0  0
  -31.9947  -19.8890   18.7233 H   0  0  0  0  0  0
  -32.4201  -19.4324   20.3630 H   0  0  0  0  0  0
  -27.8221  -24.2106   22.8051 H   0  0  0  0  0  0
  -26.6897  -25.3927   22.1924 H   0  0  0  0  0  0
  -28.3158  -25.8831   22.6491 H   0  0  0  0  0  0
  -31.1805  -17.5311   21.2686 H   0  0  0  0  0  0
  -31.0571  -17.4523   19.5569 H   0  0  0  0  0  0
  -28.8645  -15.9809   20.7236 H   0  0  0  0  0  0
  1 25  1  0  0  0
  1 30  2  0  0  0
  1 83  1  0  0  0
  2  3  1  0  0  0
  2 25  1  0  0  0
  2 85  1  0  0  0
  2 86  1  0  0  0
  3  4  1  0  0  0
  3 87  1  0  0  0
  3 88  1  0  0  0
  4  5  1  0  0  0
  4 89  1  0  0  0
  4 90  1  0  0  0
  5  6  1  0  0  0
  5 26  1  0  0  0
  5 91  1  0  0  0
  6 25  1  0  0  0
  6 92  1  0  0  0
  6 93  1  0  0  0
  7  8  2  0  0  0
  7 26  1  0  0  0
  7 29  1  0  0  0
  8  9  1  0  0  0
  8 22  1  0  0  0
  9 10  1  0  0  0
  9 27  2  0  0  0
 10 11  2  0  0  0
 10 15  1  0  0  0
 11 12  1  0  0  0
 11 94  1  0  0  0
 12 13  2  0  0  0
 12 95  1  0  0  0
 13 14  1  0  0  0
 13 31  1  0  0  0
 14 15  2  0  0  0
 14 96  1  0  0  0
 15 97  1  0  0  0
 16 17  2  0  0  0
 16 21  1  0  0  0
 16 31  1  0  0  0
 17 18  1  0  0  0
 17 98  1  0  0  0
 18 19  2  0  0  0
 18 99  1  0  0  0
 19 20  1  0  0  0
 19 24  1  0  0  0
 20 21  2  0  0  0
 20100  1  0  0  0
 21 23  1  0  0  0
 22 28  1  0  0  0
 22 32  2  0  0  0
 26 27  1  0  0  0
 28101  1  0  0  0
 28102  1  0  0  0
 29103  1  0  0  0
 29104  1  0  0  0
 33 34  1  0  0  0
 33 66  1  0  0  0
 33 70  2  0  0  0
 34 36  1  0  0  0
 34 59  1  0  0  0
 34105  1  0  0  0
 35 44  2  0  0  0
 35 45  1  0  0  0
 35 68  1  0  0  0
 36 56  1  0  0  0
 36106  1  0  0  0
 37 39  1  0  0  0
 37 47  1  0  0  0
 37 66  1  0  0  0
 37107  1  0  0  0
 38 43  2  0  0  0
 38 46  1  0  0  0
 38 47  1  0  0  0
 39 64  1  0  0  0
 39 67  2  0  0  0
 40 52  1  0  0  0
 40 53  2  0  0  0
 40 58  1  0  0  0
 41108  1  0  0  0
 41109  1  0  0  0
 41110  1  0  0  0
 41 48  1  0  0  0
 42 43  1  0  0  0
 42 66  1  0  0  0
 42111  1  0  0  0
 42112  1  0  0  0
 43 44  1  0  0  0
 44113  1  0  0  0
 45 46  2  0  0  0
 45114  1  0  0  0
 46115  1  0  0  0
 47116  1  0  0  0
 47117  1  0  0  0
 48 56  1  0  0  0
 48 65  1  0  0  0
 48118  1  0  0  0
 49 50  1  0  0  0
 49 53  1  0  0  0
 49 64  1  0  0  0
 49119  1  0  0  0
 50 51  1  0  0  0
 50120  1  0  0  0
 50121  1  0  0  0
 51 52  1  0  0  0
 51122  1  0  0  0
 51123  1  0  0  0
 52124  1  0  0  0
 52125  1  0  0  0
 53 54  1  0  0  0
 54 55  2  0  0  0
 54126  1  0  0  0
 55 57  1  0  0  0
 55127  1  0  0  0
 56 69  2  0  0  0
 57 58  2  0  0  0
 57128  1  0  0  0
 58129  1  0  0  0
 59 60  1  0  0  0
 59 61  1  0  0  0
 59 62  1  0  0  0
 60130  1  0  0  0
 60131  1  0  0  0
 60132  1  0  0  0
 61133  1  0  0  0
 61134  1  0  0  0
 61135  1  0  0  0
 62136  1  0  0  0
 62137  1  0  0  0
 62138  1  0  0  0
 63 65  1  0  0  0
 63139  1  0  0  0
 63140  1  0  0  0
 63141  1  0  0  0
 64142  1  0  0  0
 65143  1  0  0  0
 68 79  1  0  0  0
 71 72  1  0  0  0
 71 73  2  0  0  0
 71 75  1  0  0  0
 72 74  2  0  0  0
 72 80  1  0  0  0
 73 76  1  0  0  0
 73 84  1  0  0  0
 74 82  1  0  0  0
 74 84  1  0  0  0
 75 77  1  0  0  0
 75144  1  0  0  0
 75145  1  0  0  0
 76 78  1  0  0  0
 76146  1  0  0  0
 76147  1  0  0  0
 77 79  1  0  0  0
 77148  1  0  0  0
 77149  1  0  0  0
 78 79  1  0  0  0
 78150  1  0  0  0
 78151  1  0  0  0
 79 81  1  0  0  0
 80152  1  0  0  0
 80153  1  0  0  0
 80154  1  0  0  0
 81155  1  0  0  0
 81156  1  0  0  0
 81157  1  0  0  0
 82 83  1  0  0  0
 82158  1  0  0  0
 82159  1  0  0  0
 83160  1  0  0  0
M  ISO  4   1 100  68 101  79 101  83 100
M  END
> <chiral flag>
0

> <version>
0

> <s_m_source_file>
/data/baiqing/PycharmProjects/Reinvent-master-3.2/result/LINK_invent/BTK/process_docking_weight1_custom_sum_contain_oxygen_bond_distance_aromatic_linkinvent_7_9_3/rearranged_h_0028.sdf

> <i_m_source_file_index>
69

> <r_mmod_Potential_Energy-OPLS-2005>
301.322357177734

> <r_mmod_Stretch_Energy-OPLS-2005>
170.864395141602

> <r_mmod_Bend_Energy-OPLS-2005>
260.843078613281

> <r_mmod_Torsional_Energy-OPLS-2005>
241.24723815918

> <r_mmod_Improper_Torsional_Energy-OPLS-2005>
4.8150200843811

> <r_mmod_Van_der_Waal_Energy-OPLS-2005>
120.417533874512

> <r_mmod_Electrostatic_Energy-OPLS-2005>
-433.150207519531

> <r_mmod_Solvation_Energy-OPLS-2005>
-200.151351928711

> <b_mmod_Minimization_Converged-OPLS-2005>
0

> <r_mmod_RMS_Derivative-OPLS-2005>
2.44194316864014

$$$$
69
                    3D
 Structure written by MMmdl.
147155  0  0  1  0            999 V2000
  -30.4351  -15.1775   20.3865 C   0  0  0  0  0  0
  -30.4472  -12.7427   19.5177 C   0  0  0  0  0  0
  -29.5364  -12.5717   18.2757 C   0  0  0  0  0  0
  -28.0764  -12.3157   18.6934 C   0  0  0  0  0  0
  -27.6187  -13.2673   19.8278 C   0  0  2  0  0  0
  -28.6557  -13.3780   20.9653 C   0  0  0  0  0  0
  -25.2417  -13.8228   20.5728 C   0  0  0  0  0  0
  -24.1761  -13.0428   20.9240 C   0  0  0  0  0  0
  -24.6408  -11.6926   20.8739 C   0  0  0  0  0  0
  -23.9099  -10.4291   21.0392 C   0  0  0  0  0  0
  -24.3640   -9.4208   21.9175 C   0  0  0  0  0  0
  -23.6307   -8.2244   22.0746 C   0  0  0  0  0  0
  -22.4287   -8.0281   21.3539 C   0  0  0  0  0  0
  -21.9928   -9.0258   20.4642 C   0  0  0  0  0  0
  -22.7262  -10.2135   20.3049 C   0  0  0  0  0  0
  -21.6861   -6.0742   22.5277 C   0  0  0  0  0  0
  -21.4017   -6.5644   23.8214 C   0  0  0  0  0  0
  -21.3657   -5.6789   24.9172 C   0  0  0  0  0  0
  -21.6039   -4.3051   24.7220 C   0  0  0  0  0  0
  -21.8819   -3.8153   23.4342 C   0  0  0  0  0  0
  -21.9202   -4.6972   22.3401 C   0  0  0  0  0  0
  -22.7780  -13.5190   21.1900 C   0  0  0  0  0  0
  -22.1668   -4.2164   21.0978 F   0  0  0  0  0  0
  -21.5630   -3.4530   25.7732 F   0  0  0  0  0  0
  -29.9025  -13.8655   20.3553 N   0  0  0  0  0  0
  -26.2844  -12.9497   20.3202 N   0  0  0  0  0  0
  -25.9344  -11.6609   20.5692 N   0  0  0  0  0  0
  -22.0441  -12.8174   22.0458 N   0  0  0  0  0  0
  -25.4019  -15.1964   20.4186 N   0  0  0  0  0  0
  -31.6497  -15.2405   20.1501 O   0  0  0  0  0  0
  -21.6643   -6.8882   21.4239 O   0  0  0  0  0  0
  -22.3455  -14.5495   20.6752 O   0  0  0  0  0  0
  -24.6581  -31.8285   23.1743 C   0  0  0  0  0  0
  -25.9294  -32.4610   23.8177 C   0  0  1  0  0  0
  -27.2218  -26.9761   20.1804 C   0  0  0  0  0  0
  -25.5986  -33.8421   24.2093 N   0  0  0  0  0  0
  -23.4701  -30.4408   21.5223 C   0  0  2  0  0  0
  -24.9237  -28.8336   20.1131 C   0  0  0  0  0  0
  -22.7634  -29.4469   22.4806 C   0  0  0  0  0  0
  -18.0319  -28.1399   22.8469 C   0  0  0  0  0  0
  -24.1493  -36.7197   23.2646 C   0  0  0  0  0  0
  -26.0358  -30.6504   21.3979 C   0  0  0  0  0  0
  -26.1059  -29.2450   20.7405 C   0  0  0  0  0  0
  -27.2513  -28.3370   20.7484 C   0  0  0  0  0  0
  -26.0090  -26.7001   19.5105 C   0  0  0  0  0  0
  -24.8975  -27.5803   19.4790 C   0  0  0  0  0  0
  -23.7072  -29.7560   20.1480 C   0  0  0  0  0  0
  -25.4139  -36.2973   24.0298 C   0  0  1  0  0  0
  -20.5939  -28.3739   23.1205 C   0  0  2  0  0  0
  -20.6798  -26.9426   22.5404 C   0  0  0  0  0  0
  -19.5771  -26.6373   21.5213 C   0  0  0  0  0  0
  -18.1954  -26.7934   22.1622 C   0  0  0  0  0  0
  -19.1580  -28.8889   23.2823 C   0  0  0  0  0  0
  -18.9492  -30.1482   23.8850 C   0  0  0  0  0  0
  -17.6488  -30.6596   24.0548 C   0  0  0  0  0  0
  -25.9097  -34.9356   23.5008 C   0  0  0  0  0  0
  -16.5377  -29.9078   23.6343 C   0  0  0  0  0  0
  -16.7301  -28.6495   23.0364 C   0  0  0  0  0  0
  -26.4557  -31.6545   25.0691 C   0  0  0  0  0  0
  -25.3694  -31.3805   26.1355 C   0  0  0  0  0  0
  -27.0444  -30.2913   24.6407 C   0  0  0  0  0  0
  -27.6053  -32.4347   25.7495 C   0  0  0  0  0  0
  -27.5565  -37.1763   24.8468 C   0  0  0  0  0  0
  -21.4311  -29.3037   22.3554 N   0  0  0  0  0  0
  -26.4281  -37.3704   23.9400 N   0  0  0  0  0  0
  -24.7419  -30.9990   22.0853 N   0  0  0  0  0  0
  -23.4206  -28.8044   23.3032 O   0  0  0  0  0  0
  -28.2475  -25.9102   20.2565 O   0  0  0  0  0  0
  -26.5687  -34.8886   22.4591 O   0  0  0  0  0  0
  -23.5666  -32.1241   23.6870 O   0  0  0  0  0  0
  -28.1292  -20.2012   20.3978 C   0  0  0  0  0  0
  -30.5940  -18.9551   20.3634 C   0  0  0  0  0  0
  -29.1805  -21.2040   20.3492 C   0  0  0  0  0  0
  -29.5421  -17.9609   20.4168 C   0  0  0  0  0  0
  -28.2963  -18.7238   20.4276 C   0  0  0  0  0  0
  -30.4280  -20.4305   20.3387 C   0  0  0  0  0  0
  -29.1452  -22.9475   20.4158 C   0  0  0  0  0  0
  -28.0277  -24.2956   20.1366 C   0  0  0  0  0  0
  -29.5757  -16.3588   20.4898 N   0  0  0  0  0  0
  -27.1614  -17.9870   20.4812 F   0  0  0  0  0  0
  -31.9024  -21.3307   20.3250 Cl  0  0  0  0  0  0
  -31.4695  -12.9446   19.1958 H   0  0  0  0  0  0
  -30.4954  -11.8164   20.0926 H   0  0  0  0  0  0
  -29.8970  -11.7575   17.6452 H   0  0  0  0  0  0
  -29.5864  -13.4753   17.6663 H   0  0  0  0  0  0
  -28.0051  -11.2814   19.0317 H   0  0  0  0  0  0
  -27.4134  -12.4035   17.8316 H   0  0  0  0  0  0
  -27.5509  -14.2508   19.3611 H   0  0  0  0  0  0
  -28.7967  -12.4203   21.4684 H   0  0  0  0  0  0
  -28.3125  -14.0796   21.7268 H   0  0  0  0  0  0
  -25.2780   -9.5693   22.4758 H   0  0  0  0  0  0
  -24.0021   -7.4636   22.7463 H   0  0  0  0  0  0
  -21.0862   -8.8777   19.8947 H   0  0  0  0  0  0
  -22.3708  -10.9678   19.6166 H   0  0  0  0  0  0
  -21.1998   -7.6147   23.9717 H   0  0  0  0  0  0
  -21.1481   -6.0520   25.9077 H   0  0  0  0  0  0
  -22.0604   -2.7618   23.2835 H   0  0  0  0  0  0
  -22.4077  -11.9839   22.4842 H   0  0  0  0  0  0
  -21.1054  -13.1182   22.2667 H   0  0  0  0  0  0
  -24.6298  -15.8389   20.5537 H   0  0  0  0  0  0
  -26.2356  -15.6590   20.0821 H   0  0  0  0  0  0
  -26.7354  -32.5165   23.0885 H   0  0  0  0  0  0
  -25.0123  -33.9501   25.0236 H   0  0  0  0  0  0
  -22.7809  -31.2714   21.3543 H   0  0  0  0  0  0
  -23.3769  -35.9516   23.3301 H   0  0  0  0  0  0
  -24.3570  -36.8843   22.2062 H   0  0  0  0  0  0
  -23.7240  -37.6384   23.6698 H   0  0  0  0  0  0
  -26.2123  -31.3980   20.6239 H   0  0  0  0  0  0
  -26.8967  -30.7038   22.0521 H   0  0  0  0  0  0
  -28.1480  -28.6484   21.2653 H   0  0  0  0  0  0
  -25.8898  -25.7394   19.0306 H   0  0  0  0  0  0
  -23.9959  -27.2586   18.9751 H   0  0  0  0  0  0
  -23.8580  -30.5249   19.3894 H   0  0  0  0  0  0
  -22.8175  -29.2075   19.8332 H   0  0  0  0  0  0
  -25.1343  -36.1769   25.0790 H   0  0  0  0  0  0
  -21.0028  -28.3339   24.1328 H   0  0  0  0  0  0
  -20.5685  -26.2349   23.3636 H   0  0  0  0  0  0
  -21.6664  -26.7410   22.1205 H   0  0  0  0  0  0
  -19.6930  -25.6273   21.1270 H   0  0  0  0  0  0
  -19.6715  -27.3159   20.6724 H   0  0  0  0  0  0
  -17.4222  -26.6674   21.4026 H   0  0  0  0  0  0
  -18.0346  -26.0091   22.9031 H   0  0  0  0  0  0
  -19.7968  -30.7309   24.2198 H   0  0  0  0  0  0
  -17.5040  -31.6277   24.5149 H   0  0  0  0  0  0
  -15.5373  -30.2961   23.7704 H   0  0  0  0  0  0
  -15.8699  -28.0799   22.7111 H   0  0  0  0  0  0
  -24.5869  -30.7160   25.7672 H   0  0  0  0  0  0
  -24.8898  -32.3020   26.4667 H   0  0  0  0  0  0
  -25.7936  -30.9044   27.0203 H   0  0  0  0  0  0
  -26.3105  -29.6600   24.1388 H   0  0  0  0  0  0
  -27.3951  -29.7269   25.5057 H   0  0  0  0  0  0
  -27.9052  -30.4094   23.9825 H   0  0  0  0  0  0
  -27.2617  -33.3675   26.1977 H   0  0  0  0  0  0
  -28.3922  -32.6869   25.0374 H   0  0  0  0  0  0
  -28.0655  -31.8541   26.5500 H   0  0  0  0  0  0
  -28.2587  -38.0054   24.7493 H   0  0  0  0  0  0
  -28.1054  -36.2578   24.6329 H   0  0  0  0  0  0
  -27.2266  -37.1445   25.8867 H   0  0  0  0  0  0
  -20.9552  -29.8715   21.6684 H   0  0  0  0  0  0
  -26.0128  -38.2762   24.1415 H   0  0  0  0  0  0
  -27.1128  -20.5656   20.4329 H   0  0  0  0  0  0
  -31.6072  -18.5819   20.3594 H   0  0  0  0  0  0
  -29.9779  -23.2118   19.7652 H   0  0  0  0  0  0
  -29.5290  -23.1407   21.4173 H   0  0  0  0  0  0
  -27.1636  -24.0926   20.7695 H   0  0  0  0  0  0
  -27.6598  -24.1492   19.1215 H   0  0  0  0  0  0
  -28.6339  -16.0229   20.6239 H   0  0  0  0  0  0
  1 25  1  0  0  0
  1 30  2  0  0  0
  1 79  1  0  0  0
  2  3  1  0  0  0
  2 25  1  0  0  0
  2 82  1  0  0  0
  2 83  1  0  0  0
  3  4  1  0  0  0
  3 84  1  0  0  0
  3 85  1  0  0  0
  4  5  1  0  0  0
  4 86  1  0  0  0
  4 87  1  0  0  0
  5  6  1  0  0  0
  5 26  1  0  0  0
  5 88  1  0  0  0
  6 25  1  0  0  0
  6 89  1  0  0  0
  6 90  1  0  0  0
  7  8  2  0  0  0
  7 26  1  0  0  0
  7 29  1  0  0  0
  8  9  1  0  0  0
  8 22  1  0  0  0
  9 10  1  0  0  0
  9 27  2  0  0  0
 10 11  2  0  0  0
 10 15  1  0  0  0
 11 12  1  0  0  0
 11 91  1  0  0  0
 12 13  2  0  0  0
 12 92  1  0  0  0
 13 14  1  0  0  0
 13 31  1  0  0  0
 14 15  2  0  0  0
 14 93  1  0  0  0
 15 94  1  0  0  0
 16 17  2  0  0  0
 16 21  1  0  0  0
 16 31  1  0  0  0
 17 18  1  0  0  0
 17 95  1  0  0  0
 18 19  2  0  0  0
 18 96  1  0  0  0
 19 20  1  0  0  0
 19 24  1  0  0  0
 20 21  2  0  0  0
 20 97  1  0  0  0
 21 23  1  0  0  0
 22 28  1  0  0  0
 22 32  2  0  0  0
 26 27  1  0  0  0
 28 98  1  0  0  0
 28 99  1  0  0  0
 29100  1  0  0  0
 29101  1  0  0  0
 33 34  1  0  0  0
 33 66  1  0  0  0
 33 70  2  0  0  0
 34 36  1  0  0  0
 34 59  1  0  0  0
 34102  1  0  0  0
 35 44  2  0  0  0
 35 45  1  0  0  0
 35 68  1  0  0  0
 36 56  1  0  0  0
 36103  1  0  0  0
 37 39  1  0  0  0
 37 47  1  0  0  0
 37 66  1  0  0  0
 37104  1  0  0  0
 38 43  2  0  0  0
 38 46  1  0  0  0
 38 47  1  0  0  0
 39 64  1  0  0  0
 39 67  2  0  0  0
 40 52  1  0  0  0
 40 53  2  0  0  0
 40 58  1  0  0  0
 41105  1  0  0  0
 41106  1  0  0  0
 41107  1  0  0  0
 41 48  1  0  0  0
 42 43  1  0  0  0
 42 66  1  0  0  0
 42108  1  0  0  0
 42109  1  0  0  0
 43 44  1  0  0  0
 44110  1  0  0  0
 45 46  2  0  0  0
 45111  1  0  0  0
 46112  1  0  0  0
 47113  1  0  0  0
 47114  1  0  0  0
 48 56  1  0  0  0
 48 65  1  0  0  0
 48115  1  0  0  0
 49 50  1  0  0  0
 49 53  1  0  0  0
 49 64  1  0  0  0
 49116  1  0  0  0
 50 51  1  0  0  0
 50117  1  0  0  0
 50118  1  0  0  0
 51 52  1  0  0  0
 51119  1  0  0  0
 51120  1  0  0  0
 52121  1  0  0  0
 52122  1  0  0  0
 53 54  1  0  0  0
 54 55  2  0  0  0
 54123  1  0  0  0
 55 57  1  0  0  0
 55124  1  0  0  0
 56 69  2  0  0  0
 57 58  2  0  0  0
 57125  1  0  0  0
 58126  1  0  0  0
 59 60  1  0  0  0
 59 61  1  0  0  0
 59 62  1  0  0  0
 60127  1  0  0  0
 60128  1  0  0  0
 60129  1  0  0  0
 61130  1  0  0  0
 61131  1  0  0  0
 61132  1  0  0  0
 62133  1  0  0  0
 62134  1  0  0  0
 62135  1  0  0  0
 63 65  1  0  0  0
 63136  1  0  0  0
 63137  1  0  0  0
 63138  1  0  0  0
 64139  1  0  0  0
 65140  1  0  0  0
 68 78  1  0  0  0
 71 73  2  0  0  0
 71 75  1  0  0  0
 71141  1  0  0  0
 72 74  1  0  0  0
 72 76  2  0  0  0
 72142  1  0  0  0
 73 76  1  0  0  0
 73 77  1  0  0  0
 74 75  2  0  0  0
 74 79  1  0  0  0
 75 80  1  0  0  0
 76 81  1  0  0  0
 77 78  1  0  0  0
 77143  1  0  0  0
 77144  1  0  0  0
 78145  1  0  0  0
 78146  1  0  0  0
 79147  1  0  0  0
M  ISO  4   1 100  68 101  78 101  79 100
M  END
> <chiral flag>
0

> <version>
0

> <s_m_source_file>
/data/baiqing/PycharmProjects/Reinvent-master-3.2/result/LINK_invent/BTK/process_docking_weight1_custom_sum_contain_oxygen_bond_distance_aromatic_linkinvent_7_9_3/rearranged_h_0028.sdf

> <i_m_source_file_index>
70

> <r_mmod_Potential_Energy-OPLS-2005>
990.787719726562

> <r_mmod_Stretch_Energy-OPLS-2005>
454.509429931641

> <r_mmod_Bend_Energy-OPLS-2005>
416.723785400391

> <r_mmod_Torsional_Energy-OPLS-2005>
210.916961669922

> <r_mmod_Improper_Torsional_Energy-OPLS-2005>
4.2846736907959

> <r_mmod_Van_der_Waal_Energy-OPLS-2005>
125.343467712402

> <r_mmod_Electrostatic_Energy-OPLS-2005>
-396.494384765625

> <r_mmod_Solvation_Energy-OPLS-2005>
-202.860046386719

> <b_mmod_Minimization_Converged-OPLS-2005>
0

> <r_mmod_RMS_Derivative-OPLS-2005>
1.11258947849274

$$$$
70
                    3D
 Structure written by MMmdl.
175184  0  0  1  0            999 V2000
  -30.7295  -14.4425   20.5614 C   0  0  0  0  0  0
  -30.4117  -12.2803   19.4357 C   0  0  0  0  0  0
  -29.4984  -12.4911   18.2109 C   0  0  0  0  0  0
  -28.0172  -12.3596   18.6172 C   0  0  0  0  0  0
  -27.6597  -13.2069   19.8682 C   0  0  2  0  0  0
  -28.6978  -13.0065   20.9974 C   0  0  0  0  0  0
  -25.2579  -13.8149   20.5653 C   0  0  0  0  0  0
  -24.1831  -13.0435   20.9173 C   0  0  0  0  0  0
  -24.6378  -11.6896   20.8702 C   0  0  0  0  0  0
  -23.9031  -10.4287   21.0381 C   0  0  0  0  0  0
  -24.3594   -9.4204   21.9156 C   0  0  0  0  0  0
  -23.6287   -8.2235   22.0737 C   0  0  0  0  0  0
  -22.4255   -8.0281   21.3548 C   0  0  0  0  0  0
  -21.9881   -9.0237   20.4638 C   0  0  0  0  0  0
  -22.7203  -10.2118   20.3030 C   0  0  0  0  0  0
  -21.6857   -6.0737   22.5286 C   0  0  0  0  0  0
  -21.4037   -6.5641   23.8223 C   0  0  0  0  0  0
  -21.3638   -5.6784   24.9179 C   0  0  0  0  0  0
  -21.6026   -4.3044   24.7224 C   0  0  0  0  0  0
  -21.8820   -3.8146   23.4345 C   0  0  0  0  0  0
  -21.9198   -4.6968   22.3408 C   0  0  0  0  0  0
  -22.7848  -13.5235   21.1830 C   0  0  0  0  0  0
  -22.1667   -4.2151   21.0985 F   0  0  0  0  0  0
  -21.5596   -3.4529   25.7737 F   0  0  0  0  0  0
  -30.0338  -13.2805   20.4460 N   0  0  0  0  0  0
  -26.3012  -12.9323   20.3304 N   0  0  0  0  0  0
  -25.9300  -11.6480   20.5713 N   0  0  0  0  0  0
  -22.0488  -12.8237   22.0402 N   0  0  0  0  0  0
  -25.4306  -15.1869   20.4070 N   0  0  0  0  0  0
  -31.8830  -14.5680   20.1409 O   0  0  0  0  0  0
  -21.6639   -6.8871   21.4243 O   0  0  0  0  0  0
  -22.3521  -14.5534   20.6682 O   0  0  0  0  0  0
  -24.6118  -31.8710   23.2127 C   0  0  0  0  0  0
  -25.9022  -32.4837   23.8420 C   0  0  1  0  0  0
  -27.2343  -27.4756   20.0903 C   0  0  0  0  0  0
  -25.5888  -33.8631   24.2345 N   0  0  0  0  0  0
  -23.3982  -30.4944   21.5525 C   0  0  2  0  0  0
  -24.8450  -28.9625   20.1148 C   0  0  0  0  0  0
  -22.7398  -29.4677   22.5015 C   0  0  0  0  0  0
  -18.0271  -28.1389   22.8487 C   0  0  0  0  0  0
  -24.1490  -36.7326   23.2636 C   0  0  0  0  0  0
  -25.9214  -30.8478   21.3602 C   0  0  0  0  0  0
  -25.9991  -29.4816   20.7156 C   0  0  0  0  0  0
  -27.1962  -28.7379   20.7140 C   0  0  0  0  0  0
  -26.0709  -26.9563   19.4890 C   0  0  0  0  0  0
  -24.8721  -27.6951   19.5032 C   0  0  0  0  0  0
  -23.6058  -29.8265   20.1661 C   0  0  0  0  0  0
  -25.4099  -36.3118   24.0347 C   0  0  1  0  0  0
  -20.5857  -28.3672   23.1324 C   0  0  2  0  0  0
  -20.6759  -26.9416   22.5416 C   0  0  0  0  0  0
  -19.5747  -26.6403   21.5205 C   0  0  0  0  0  0
  -18.1921  -26.7938   22.1611 C   0  0  0  0  0  0
  -19.1517  -28.8846   23.2904 C   0  0  0  0  0  0
  -18.9447  -30.1445   23.8929 C   0  0  0  0  0  0
  -17.6448  -30.6591   24.0576 C   0  0  0  0  0  0
  -25.9027  -34.9478   23.5146 C   0  0  0  0  0  0
  -16.5340  -29.9098   23.6319 C   0  0  0  0  0  0
  -16.7261  -28.6512   23.0342 C   0  0  0  0  0  0
  -26.4461  -31.6590   25.0720 C   0  0  0  0  0  0
  -25.3739  -31.3682   26.1484 C   0  0  0  0  0  0
  -27.0272  -30.3042   24.6037 C   0  0  0  0  0  0
  -27.6069  -32.4291   25.7445 C   0  0  0  0  0  0
  -27.5586  -37.1811   24.8460 C   0  0  0  0  0  0
  -21.4128  -29.3044   22.3743 N   0  0  0  0  0  0
  -26.4291  -37.3794   23.9420 N   0  0  0  0  0  0
  -24.6619  -31.0845   22.1016 N   0  0  0  0  0  0
  -23.4175  -28.8232   23.3063 O   0  0  0  0  0  0
  -28.3904  -26.7457   20.1034 O   0  0  0  0  0  0
  -26.5591  -34.8922   22.4707 O   0  0  0  0  0  0
  -23.5318  -32.1448   23.7545 O   0  0  0  0  0  0
  -29.3720  -17.4052   19.6165 C   0  0  0  0  0  0
  -31.5121  -17.4822   20.7560 C   0  0  0  0  0  0
  -29.7171  -18.5529   18.8675 C   0  0  0  0  0  0
  -31.0028  -19.1498   19.0226 C   0  0  0  0  0  0
  -30.2990  -16.8140   20.4919 C   0  0  0  0  0  0
  -31.8717  -18.6320   20.0229 C   0  0  0  0  0  0
  -31.3623  -23.6811   19.8459 C   0  0  0  0  0  0
  -29.9710  -23.7640   17.6852 C   0  0  0  0  0  0
  -31.4809  -22.1477   19.6631 C   0  0  0  0  0  0
  -30.0933  -22.2309   17.6247 C   0  0  0  0  0  0
  -30.1632  -24.3307   19.1111 C   0  0  2  0  0  0
  -31.4406  -21.7019   18.1793 C   0  0  2  0  0  0
  -28.6912  -19.0422   17.8556 C   0  0  0  0  0  0
  -32.6816  -22.0660   15.8893 C   0  0  0  0  0  0
  -31.5423  -20.1494   17.9812 C   0  0  0  0  0  0
  -30.3377  -25.8685   19.0625 C   0  0  0  0  0  0
  -32.6518  -22.3251   17.4074 C   0  0  0  0  0  0
  -29.0394  -26.6589   18.8487 C   0  0  0  0  0  0
  -30.0344  -15.5085   20.9993 N   0  0  0  0  0  0
  -33.4453  -19.2972   20.3083 Cl  0  0  0  0  0  0
  -31.4616  -12.3506   19.1470 H   0  0  0  0  0  0
  -30.2824  -11.2748   19.8394 H   0  0  0  0  0  0
  -29.7377  -11.7658   17.4319 H   0  0  0  0  0  0
  -29.6768  -13.4754   17.7754 H   0  0  0  0  0  0
  -27.8186  -11.3053   18.8161 H   0  0  0  0  0  0
  -27.3725  -12.6322   17.7812 H   0  0  0  0  0  0
  -27.7003  -14.2503   19.5554 H   0  0  0  0  0  0
  -28.6617  -11.9809   21.3681 H   0  0  0  0  0  0
  -28.4675  -13.6391   21.8550 H   0  0  0  0  0  0
  -25.2741   -9.5694   22.4721 H   0  0  0  0  0  0
  -24.0012   -7.4614   22.7438 H   0  0  0  0  0  0
  -21.0815   -8.8745   19.8939 H   0  0  0  0  0  0
  -22.3656  -10.9651   19.6130 H   0  0  0  0  0  0
  -21.2080   -7.6152   23.9736 H   0  0  0  0  0  0
  -21.1431   -6.0509   25.9073 H   0  0  0  0  0  0
  -22.0622   -2.7613   23.2845 H   0  0  0  0  0  0
  -22.4125  -11.9946   22.4855 H   0  0  0  0  0  0
  -21.1092  -13.1249   22.2566 H   0  0  0  0  0  0
  -24.6615  -15.8410   20.5046 H   0  0  0  0  0  0
  -26.2824  -15.6217   20.0762 H   0  0  0  0  0  0
  -26.7105  -32.5568   23.1201 H   0  0  0  0  0  0
  -25.0029  -33.9792   25.0489 H   0  0  0  0  0  0
  -22.6857  -31.3102   21.4152 H   0  0  0  0  0  0
  -23.3738  -35.9675   23.3298 H   0  0  0  0  0  0
  -24.3601  -36.8935   22.2052 H   0  0  0  0  0  0
  -23.7252  -37.6540   23.6642 H   0  0  0  0  0  0
  -26.0205  -31.6101   20.5863 H   0  0  0  0  0  0
  -26.8149  -30.9107   21.9686 H   0  0  0  0  0  0
  -28.0881  -29.1313   21.1806 H   0  0  0  0  0  0
  -26.0931  -25.9814   19.0221 H   0  0  0  0  0  0
  -23.9835  -27.2881   19.0393 H   0  0  0  0  0  0
  -23.7140  -30.6019   19.4071 H   0  0  0  0  0  0
  -22.7302  -29.2454   19.8712 H   0  0  0  0  0  0
  -25.1265  -36.1987   25.0839 H   0  0  0  0  0  0
  -20.9940  -28.3243   24.1450 H   0  0  0  0  0  0
  -20.5660  -26.2289   23.3602 H   0  0  0  0  0  0
  -21.6637  -26.7474   22.1219 H   0  0  0  0  0  0
  -19.6914  -25.6319   21.1228 H   0  0  0  0  0  0
  -19.6686  -27.3221   20.6739 H   0  0  0  0  0  0
  -17.4194  -26.6697   21.4008 H   0  0  0  0  0  0
  -18.0323  -26.0074   22.9000 H   0  0  0  0  0  0
  -19.7918  -30.7252   24.2327 H   0  0  0  0  0  0
  -17.5004  -31.6272   24.5178 H   0  0  0  0  0  0
  -15.5344  -30.3015   23.7623 H   0  0  0  0  0  0
  -15.8657  -28.0846   22.7042 H   0  0  0  0  0  0
  -24.5909  -30.7030   25.7822 H   0  0  0  0  0  0
  -24.8926  -32.2830   26.4950 H   0  0  0  0  0  0
  -25.8102  -30.8836   27.0226 H   0  0  0  0  0  0
  -26.2786  -29.6811   24.1128 H   0  0  0  0  0  0
  -27.4117  -29.7257   25.4445 H   0  0  0  0  0  0
  -27.8588  -30.4382   23.9114 H   0  0  0  0  0  0
  -27.2726  -33.3585   26.2060 H   0  0  0  0  0  0
  -28.3827  -32.6858   25.0220 H   0  0  0  0  0  0
  -28.0792  -31.8390   26.5305 H   0  0  0  0  0  0
  -28.2596  -38.0115   24.7516 H   0  0  0  0  0  0
  -28.1089  -36.2649   24.6259 H   0  0  0  0  0  0
  -27.2324  -37.1434   25.8870 H   0  0  0  0  0  0
  -20.9299  -29.8759   21.6949 H   0  0  0  0  0  0
  -26.0182  -38.2879   24.1418 H   0  0  0  0  0  0
  -28.4224  -16.9197   19.4401 H   0  0  0  0  0  0
  -32.2243  -17.0629   21.4510 H   0  0  0  0  0  0
  -32.2896  -24.1585   19.5305 H   0  0  0  0  0  0
  -31.2878  -23.9040   20.9122 H   0  0  0  0  0  0
  -28.9910  -24.0547   17.3063 H   0  0  0  0  0  0
  -30.6858  -24.2152   16.9978 H   0  0  0  0  0  0
  -30.6781  -21.6621   20.2180 H   0  0  0  0  0  0
  -32.4090  -21.8212   20.1292 H   0  0  0  0  0  0
  -29.9302  -21.8930   16.6006 H   0  0  0  0  0  0
  -29.2769  -21.8103   18.2094 H   0  0  0  0  0  0
  -29.2686  -24.0944   19.6891 H   0  0  0  0  0  0
  -27.9487  -18.2703   17.6495 H   0  0  0  0  0  0
  -29.1270  -19.3063   16.8951 H   0  0  0  0  0  0
  -28.1513  -19.9012   18.2499 H   0  0  0  0  0  0
  -31.8009  -22.4727   15.3929 H   0  0  0  0  0  0
  -32.7414  -21.0047   15.6530 H   0  0  0  0  0  0
  -33.5495  -22.5437   15.4348 H   0  0  0  0  0  0
  -31.1661  -19.8773   16.9982 H   0  0  0  0  0  0
  -32.5968  -19.8961   17.8808 H   0  0  0  0  0  0
  -31.0432  -26.1288   18.2718 H   0  0  0  0  0  0
  -30.7995  -26.2245   19.9852 H   0  0  0  0  0  0
  -33.5818  -21.9548   17.8409 H   0  0  0  0  0  0
  -32.7014  -23.4039   17.5398 H   0  0  0  0  0  0
  -28.4028  -26.1969   18.0926 H   0  0  0  0  0  0
  -29.2747  -27.6677   18.5035 H   0  0  0  0  0  0
  -29.0823  -15.3071   21.2659 H   0  0  0  0  0  0
  1 25  1  0  0  0
  1 30  2  0  0  0
  1 89  1  0  0  0
  2  3  1  0  0  0
  2 25  1  0  0  0
  2 91  1  0  0  0
  2 92  1  0  0  0
  3  4  1  0  0  0
  3 93  1  0  0  0
  3 94  1  0  0  0
  4  5  1  0  0  0
  4 95  1  0  0  0
  4 96  1  0  0  0
  5  6  1  0  0  0
  5 26  1  0  0  0
  5 97  1  0  0  0
  6 25  1  0  0  0
  6 98  1  0  0  0
  6 99  1  0  0  0
  7  8  2  0  0  0
  7 26  1  0  0  0
  7 29  1  0  0  0
  8  9  1  0  0  0
  8 22  1  0  0  0
  9 10  1  0  0  0
  9 27  2  0  0  0
 10 11  2  0  0  0
 10 15  1  0  0  0
 11 12  1  0  0  0
 11100  1  0  0  0
 12 13  2  0  0  0
 12101  1  0  0  0
 13 14  1  0  0  0
 13 31  1  0  0  0
 14 15  2  0  0  0
 14102  1  0  0  0
 15103  1  0  0  0
 16 17  2  0  0  0
 16 21  1  0  0  0
 16 31  1  0  0  0
 17 18  1  0  0  0
 17104  1  0  0  0
 18 19  2  0  0  0
 18105  1  0  0  0
 19 20  1  0  0  0
 19 24  1  0  0  0
 20 21  2  0  0  0
 20106  1  0  0  0
 21 23  1  0  0  0
 22 28  1  0  0  0
 22 32  2  0  0  0
 26 27  1  0  0  0
 28107  1  0  0  0
 28108  1  0  0  0
 29109  1  0  0  0
 29110  1  0  0  0
 33 34  1  0  0  0
 33 66  1  0  0  0
 33 70  2  0  0  0
 34 36  1  0  0  0
 34 59  1  0  0  0
 34111  1  0  0  0
 35 44  2  0  0  0
 35 45  1  0  0  0
 35 68  1  0  0  0
 36 56  1  0  0  0
 36112  1  0  0  0
 37 39  1  0  0  0
 37 47  1  0  0  0
 37 66  1  0  0  0
 37113  1  0  0  0
 38 43  2  0  0  0
 38 46  1  0  0  0
 38 47  1  0  0  0
 39 64  1  0  0  0
 39 67  2  0  0  0
 40 52  1  0  0  0
 40 53  2  0  0  0
 40 58  1  0  0  0
 41114  1  0  0  0
 41115  1  0  0  0
 41116  1  0  0  0
 41 48  1  0  0  0
 42 43  1  0  0  0
 42 66  1  0  0  0
 42117  1  0  0  0
 42118  1  0  0  0
 43 44  1  0  0  0
 44119  1  0  0  0
 45 46  2  0  0  0
 45120  1  0  0  0
 46121  1  0  0  0
 47122  1  0  0  0
 47123  1  0  0  0
 48 56  1  0  0  0
 48 65  1  0  0  0
 48124  1  0  0  0
 49 50  1  0  0  0
 49 53  1  0  0  0
 49 64  1  0  0  0
 49125  1  0  0  0
 50 51  1  0  0  0
 50126  1  0  0  0
 50127  1  0  0  0
 51 52  1  0  0  0
 51128  1  0  0  0
 51129  1  0  0  0
 52130  1  0  0  0
 52131  1  0  0  0
 53 54  1  0  0  0
 54 55  2  0  0  0
 54132  1  0  0  0
 55 57  1  0  0  0
 55133  1  0  0  0
 56 69  2  0  0  0
 57 58  2  0  0  0
 57134  1  0  0  0
 58135  1  0  0  0
 59 60  1  0  0  0
 59 61  1  0  0  0
 59 62  1  0  0  0
 60136  1  0  0  0
 60137  1  0  0  0
 60138  1  0  0  0
 61139  1  0  0  0
 61140  1  0  0  0
 61141  1  0  0  0
 62142  1  0  0  0
 62143  1  0  0  0
 62144  1  0  0  0
 63 65  1  0  0  0
 63145  1  0  0  0
 63146  1  0  0  0
 63147  1  0  0  0
 64148  1  0  0  0
 65149  1  0  0  0
 68 88  1  0  0  0
 71 73  2  0  0  0
 71 75  1  0  0  0
 71150  1  0  0  0
 72 75  2  0  0  0
 72 76  1  0  0  0
 72151  1  0  0  0
 73 74  1  0  0  0
 73 83  1  0  0  0
 74 76  2  0  0  0
 74 85  1  0  0  0
 75 89  1  0  0  0
 76 90  1  0  0  0
 77 79  1  0  0  0
 77 81  1  0  0  0
 77152  1  0  0  0
 77153  1  0  0  0
 78 80  1  0  0  0
 78 81  1  0  0  0
 78154  1  0  0  0
 78155  1  0  0  0
 79 82  1  0  0  0
 79156  1  0  0  0
 79157  1  0  0  0
 80 82  1  0  0  0
 80158  1  0  0  0
 80159  1  0  0  0
 81 86  1  0  0  0
 81160  1  0  0  0
 82 85  1  0  0  0
 82 87  1  0  0  0
 83161  1  0  0  0
 83162  1  0  0  0
 83163  1  0  0  0
 84 87  1  0  0  0
 84164  1  0  0  0
 84165  1  0  0  0
 84166  1  0  0  0
 85167  1  0  0  0
 85168  1  0  0  0
 86 88  1  0  0  0
 86169  1  0  0  0
 86170  1  0  0  0
 87171  1  0  0  0
 87172  1  0  0  0
 88173  1  0  0  0
 88174  1  0  0  0
 89175  1  0  0  0
M  ISO  4   1 100  68 101  88 101  89 100
M  END
> <chiral flag>
0

> <version>
0

> <s_m_source_file>
/data/baiqing/PycharmProjects/Reinvent-master-3.2/result/LINK_invent/BTK/process_docking_weight1_custom_sum_contain_oxygen_bond_distance_aromatic_linkinvent_7_9_3/rearranged_h_0028.sdf

> <i_m_source_file_index>
71

> <r_mmod_Potential_Energy-OPLS-2005>
105.046043395996

> <r_mmod_Stretch_Energy-OPLS-2005>
39.7685470581055

> <r_mmod_Bend_Energy-OPLS-2005>
114.963096618652

> <r_mmod_Torsional_Energy-OPLS-2005>
313.622467041016

> <r_mmod_Improper_Torsional_Energy-OPLS-2005>
8.25400352478027

> <r_mmod_Van_der_Waal_Energy-OPLS-2005>
162.573715209961

> <r_mmod_Electrostatic_Energy-OPLS-2005>
-354.0341796875

> <r_mmod_Solvation_Energy-OPLS-2005>
-192.985931396484

> <b_mmod_Minimization_Converged-OPLS-2005>
0

> <r_mmod_RMS_Derivative-OPLS-2005>
2.41790628433228

$$$$
71
                    3D
 Structure written by MMmdl.
156164  0  0  1  0            999 V2000
  -30.6959  -14.4540   20.6051 C   0  0  0  0  0  0
  -30.4347  -12.3085   19.4070 C   0  0  0  0  0  0
  -29.4937  -12.5052   18.2002 C   0  0  0  0  0  0
  -28.0165  -12.3533   18.6162 C   0  0  0  0  0  0
  -27.6637  -13.1875   19.8750 C   0  0  2  0  0  0
  -28.7068  -12.9474   20.9898 C   0  0  0  0  0  0
  -25.2590  -13.8089   20.5665 C   0  0  0  0  0  0
  -24.1828  -13.0395   20.9161 C   0  0  0  0  0  0
  -24.6370  -11.6864   20.8725 C   0  0  0  0  0  0
  -23.9033  -10.4269   21.0403 C   0  0  0  0  0  0
  -24.3596   -9.4193   21.9184 C   0  0  0  0  0  0
  -23.6275   -8.2229   22.0756 C   0  0  0  0  0  0
  -22.4258   -8.0269   21.3542 C   0  0  0  0  0  0
  -21.9889   -9.0238   20.4644 C   0  0  0  0  0  0
  -22.7209  -10.2118   20.3051 C   0  0  0  0  0  0
  -21.6844   -6.0729   22.5277 C   0  0  0  0  0  0
  -21.4009   -6.5635   23.8210 C   0  0  0  0  0  0
  -21.3657   -5.6787   24.9174 C   0  0  0  0  0  0
  -21.6046   -4.3051   24.7225 C   0  0  0  0  0  0
  -21.8820   -3.8143   23.4345 C   0  0  0  0  0  0
  -21.9189   -4.6958   22.3401 C   0  0  0  0  0  0
  -22.7861  -13.5222   21.1836 C   0  0  0  0  0  0
  -22.1658   -4.2149   21.0978 F   0  0  0  0  0  0
  -21.5632   -3.4536   25.7738 F   0  0  0  0  0  0
  -30.0415  -13.2709   20.4459 N   0  0  0  0  0  0
  -26.3023  -12.9236   20.3355 N   0  0  0  0  0  0
  -25.9292  -11.6417   20.5755 N   0  0  0  0  0  0
  -22.0500  -12.8225   22.0402 N   0  0  0  0  0  0
  -25.4274  -15.1795   20.4095 N   0  0  0  0  0  0
  -31.7942  -14.6964   20.0969 O   0  0  0  0  0  0
  -21.6623   -6.8869   21.4239 O   0  0  0  0  0  0
  -22.3548  -14.5532   20.6689 O   0  0  0  0  0  0
  -24.6122  -31.8687   23.2106 C   0  0  0  0  0  0
  -25.9026  -32.4826   23.8396 C   0  0  1  0  0  0
  -27.2473  -27.4606   20.0943 C   0  0  0  0  0  0
  -25.5898  -33.8622   24.2334 N   0  0  0  0  0  0
  -23.4003  -30.4901   21.5503 C   0  0  2  0  0  0
  -24.8517  -28.9540   20.1200 C   0  0  0  0  0  0
  -22.7399  -29.4656   22.5000 C   0  0  0  0  0  0
  -18.0264  -28.1362   22.8483 C   0  0  0  0  0  0
  -24.1487  -36.7317   23.2638 C   0  0  0  0  0  0
  -25.9260  -30.8417   21.3606 C   0  0  0  0  0  0
  -26.0087  -29.4753   20.7138 C   0  0  0  0  0  0
  -27.2112  -28.7347   20.6998 C   0  0  0  0  0  0
  -26.0777  -26.9431   19.5023 C   0  0  0  0  0  0
  -24.8791  -27.6843   19.5144 C   0  0  0  0  0  0
  -23.6105  -29.8175   20.1665 C   0  0  0  0  0  0
  -25.4106  -36.3113   24.0340 C   0  0  1  0  0  0
  -20.5852  -28.3653   23.1316 C   0  0  2  0  0  0
  -20.6754  -26.9394   22.5413 C   0  0  0  0  0  0
  -19.5741  -26.6377   21.5198 C   0  0  0  0  0  0
  -18.1913  -26.7903   22.1608 C   0  0  0  0  0  0
  -19.1511  -28.8823   23.2892 C   0  0  0  0  0  0
  -18.9448  -30.1422   23.8912 C   0  0  0  0  0  0
  -17.6454  -30.6573   24.0561 C   0  0  0  0  0  0
  -25.9034  -34.9475   23.5131 C   0  0  0  0  0  0
  -16.5343  -29.9079   23.6318 C   0  0  0  0  0  0
  -16.7252  -28.6490   23.0346 C   0  0  0  0  0  0
  -26.4469  -31.6597   25.0710 C   0  0  0  0  0  0
  -25.3744  -31.3692   26.1467 C   0  0  0  0  0  0
  -27.0298  -30.3047   24.6056 C   0  0  0  0  0  0
  -27.6051  -32.4312   25.7473 C   0  0  0  0  0  0
  -27.5580  -37.1813   24.8467 C   0  0  0  0  0  0
  -21.4128  -29.3024   22.3735 N   0  0  0  0  0  0
  -26.4299  -37.3793   23.9404 N   0  0  0  0  0  0
  -24.6640  -31.0807   22.0994 N   0  0  0  0  0  0
  -23.4175  -28.8201   23.3041 O   0  0  0  0  0  0
  -28.4130  -26.7350   20.0413 O   0  0  0  0  0  0
  -26.5596  -34.8925   22.4691 O   0  0  0  0  0  0
  -23.5316  -32.1431   23.7509 O   0  0  0  0  0  0
  -31.2059  -18.7833   22.2967 C   0  0  0  0  0  0
  -30.2158  -19.6122   21.7191 C   0  0  0  0  0  0
  -30.1880  -16.7853   21.3146 C   0  0  0  0  0  0
  -31.1881  -17.3825   22.1184 C   0  0  0  0  0  0
  -29.2469  -19.0190   20.8726 C   0  0  0  0  0  0
  -29.2456  -17.6178   20.6617 C   0  0  0  0  0  0
  -30.1188  -21.0802   22.1632 C   0  0  0  0  0  0
  -29.2671  -24.4760   20.4940 C   0  0  0  0  0  0
  -29.4865  -23.4030   21.5877 C   0  0  0  0  0  0
  -28.5252  -25.7181   21.0381 C   0  0  0  0  0  0
  -29.9984  -15.3714   21.2905 N   0  0  0  0  0  0
  -30.0054  -22.0996   21.0898 N   0  3  0  0  0  0
  -32.3407  -16.4230   22.9806 Cl  0  0  0  0  0  0
  -28.0162  -19.9933   20.1355 Cl  0  0  0  0  0  0
  -28.0498  -16.9185   19.6248 Cl  0  0  0  0  0  0
  -31.4751  -12.4311   19.0997 H   0  0  0  0  0  0
  -30.3580  -11.2908   19.7931 H   0  0  0  0  0  0
  -29.7341  -11.7860   17.4164 H   0  0  0  0  0  0
  -29.6526  -13.4939   17.7667 H   0  0  0  0  0  0
  -27.8339  -11.2954   18.8114 H   0  0  0  0  0  0
  -27.3618  -12.6247   17.7873 H   0  0  0  0  0  0
  -27.7116  -14.2323   19.5804 H   0  0  0  0  0  0
  -28.6883  -11.9015   21.2991 H   0  0  0  0  0  0
  -28.4541  -13.5097   21.8893 H   0  0  0  0  0  0
  -25.2749   -9.5670   22.4744 H   0  0  0  0  0  0
  -23.9987   -7.4622   22.7475 H   0  0  0  0  0  0
  -21.0822   -8.8747   19.8951 H   0  0  0  0  0  0
  -22.3671  -10.9652   19.6152 H   0  0  0  0  0  0
  -21.1997   -7.6142   23.9713 H   0  0  0  0  0  0
  -21.1479   -6.0520   25.9077 H   0  0  0  0  0  0
  -22.0603   -2.7608   23.2842 H   0  0  0  0  0  0
  -22.4113  -11.9883   22.4786 H   0  0  0  0  0  0
  -21.1127  -13.1264   22.2621 H   0  0  0  0  0  0
  -24.6585  -15.8306   20.5159 H   0  0  0  0  0  0
  -26.2789  -15.6251   20.0874 H   0  0  0  0  0  0
  -26.7109  -32.5571   23.1176 H   0  0  0  0  0  0
  -25.0059  -33.9786   25.0488 H   0  0  0  0  0  0
  -22.6870  -31.3047   21.4081 H   0  0  0  0  0  0
  -23.3739  -35.9659   23.3315 H   0  0  0  0  0  0
  -24.3586  -36.8912   22.2051 H   0  0  0  0  0  0
  -23.7247  -37.6529   23.6642 H   0  0  0  0  0  0
  -26.0300  -31.6066   20.5896 H   0  0  0  0  0  0
  -26.8165  -30.9018   21.9745 H   0  0  0  0  0  0
  -28.1090  -29.1372   21.1480 H   0  0  0  0  0  0
  -26.0987  -25.9722   19.0271 H   0  0  0  0  0  0
  -23.9906  -27.2746   19.0539 H   0  0  0  0  0  0
  -23.7141  -30.5902   19.4030 H   0  0  0  0  0  0
  -22.7369  -29.2323   19.8749 H   0  0  0  0  0  0
  -25.1277  -36.1990   25.0834 H   0  0  0  0  0  0
  -20.9934  -28.3221   24.1440 H   0  0  0  0  0  0
  -20.5644  -26.2262   23.3595 H   0  0  0  0  0  0
  -21.6628  -26.7432   22.1217 H   0  0  0  0  0  0
  -19.6911  -25.6296   21.1212 H   0  0  0  0  0  0
  -19.6684  -27.3198   20.6736 H   0  0  0  0  0  0
  -17.4182  -26.6643   21.4012 H   0  0  0  0  0  0
  -18.0326  -26.0035   22.8998 H   0  0  0  0  0  0
  -19.7933  -30.7213   24.2301 H   0  0  0  0  0  0
  -17.5021  -31.6264   24.5148 H   0  0  0  0  0  0
  -15.5345  -30.2992   23.7635 H   0  0  0  0  0  0
  -15.8645  -28.0817   22.7060 H   0  0  0  0  0  0
  -24.5915  -30.7039   25.7809 H   0  0  0  0  0  0
  -24.8935  -32.2843   26.4932 H   0  0  0  0  0  0
  -25.8099  -30.8855   27.0216 H   0  0  0  0  0  0
  -26.2825  -29.6812   24.1129 H   0  0  0  0  0  0
  -27.4110  -29.7272   25.4484 H   0  0  0  0  0  0
  -27.8639  -30.4374   23.9158 H   0  0  0  0  0  0
  -27.2674  -33.3599   26.2079 H   0  0  0  0  0  0
  -28.3849  -32.6890   25.0298 H   0  0  0  0  0  0
  -28.0734  -31.8418   26.5367 H   0  0  0  0  0  0
  -28.2608  -38.0101   24.7509 H   0  0  0  0  0  0
  -28.1062  -36.2631   24.6299 H   0  0  0  0  0  0
  -27.2297  -37.1481   25.8871 H   0  0  0  0  0  0
  -20.9277  -29.8757   21.6976 H   0  0  0  0  0  0
  -26.0187  -38.2868   24.1400 H   0  0  0  0  0  0
  -31.9465  -19.2073   22.9601 H   0  0  0  0  0  0
  -30.9714  -21.3384   22.7931 H   0  0  0  0  0  0
  -29.2426  -21.1434   22.8102 H   0  0  0  0  0  0
  -28.6854  -24.0570   19.6733 H   0  0  0  0  0  0
  -30.2283  -24.7760   20.0753 H   0  0  0  0  0  0
  -28.5343  -23.2262   22.0908 H   0  0  0  0  0  0
  -30.1665  -23.7920   22.3477 H   0  0  0  0  0  0
  -29.0683  -26.1373   21.8859 H   0  0  0  0  0  0
  -27.5449  -25.4170   21.4142 H   0  0  0  0  0  0
  -29.0858  -15.0531   21.5760 H   0  0  0  0  0  0
  -29.3594  -21.7370   20.4040 H   0  0  0  0  0  0
  -30.9039  -22.2207   20.6493 H   0  0  0  0  0  0
  1 25  1  0  0  0
  1 30  2  0  0  0
  1 81  1  0  0  0
  2  3  1  0  0  0
  2 25  1  0  0  0
  2 86  1  0  0  0
  2 87  1  0  0  0
  3  4  1  0  0  0
  3 88  1  0  0  0
  3 89  1  0  0  0
  4  5  1  0  0  0
  4 90  1  0  0  0
  4 91  1  0  0  0
  5  6  1  0  0  0
  5 26  1  0  0  0
  5 92  1  0  0  0
  6 25  1  0  0  0
  6 93  1  0  0  0
  6 94  1  0  0  0
  7  8  2  0  0  0
  7 26  1  0  0  0
  7 29  1  0  0  0
  8  9  1  0  0  0
  8 22  1  0  0  0
  9 10  1  0  0  0
  9 27  2  0  0  0
 10 11  2  0  0  0
 10 15  1  0  0  0
 11 12  1  0  0  0
 11 95  1  0  0  0
 12 13  2  0  0  0
 12 96  1  0  0  0
 13 14  1  0  0  0
 13 31  1  0  0  0
 14 15  2  0  0  0
 14 97  1  0  0  0
 15 98  1  0  0  0
 16 17  2  0  0  0
 16 21  1  0  0  0
 16 31  1  0  0  0
 17 18  1  0  0  0
 17 99  1  0  0  0
 18 19  2  0  0  0
 18100  1  0  0  0
 19 20  1  0  0  0
 19 24  1  0  0  0
 20 21  2  0  0  0
 20101  1  0  0  0
 21 23  1  0  0  0
 22 28  1  0  0  0
 22 32  2  0  0  0
 26 27  1  0  0  0
 28102  1  0  0  0
 28103  1  0  0  0
 29104  1  0  0  0
 29105  1  0  0  0
 33 34  1  0  0  0
 33 66  1  0  0  0
 33 70  2  0  0  0
 34 36  1  0  0  0
 34 59  1  0  0  0
 34106  1  0  0  0
 35 44  2  0  0  0
 35 45  1  0  0  0
 35 68  1  0  0  0
 36 56  1  0  0  0
 36107  1  0  0  0
 37 39  1  0  0  0
 37 47  1  0  0  0
 37 66  1  0  0  0
 37108  1  0  0  0
 38 43  2  0  0  0
 38 46  1  0  0  0
 38 47  1  0  0  0
 39 64  1  0  0  0
 39 67  2  0  0  0
 40 52  1  0  0  0
 40 53  2  0  0  0
 40 58  1  0  0  0
 41109  1  0  0  0
 41110  1  0  0  0
 41111  1  0  0  0
 41 48  1  0  0  0
 42 43  1  0  0  0
 42 66  1  0  0  0
 42112  1  0  0  0
 42113  1  0  0  0
 43 44  1  0  0  0
 44114  1  0  0  0
 45 46  2  0  0  0
 45115  1  0  0  0
 46116  1  0  0  0
 47117  1  0  0  0
 47118  1  0  0  0
 48 56  1  0  0  0
 48 65  1  0  0  0
 48119  1  0  0  0
 49 50  1  0  0  0
 49 53  1  0  0  0
 49 64  1  0  0  0
 49120  1  0  0  0
 50 51  1  0  0  0
 50121  1  0  0  0
 50122  1  0  0  0
 51 52  1  0  0  0
 51123  1  0  0  0
 51124  1  0  0  0
 52125  1  0  0  0
 52126  1  0  0  0
 53 54  1  0  0  0
 54 55  2  0  0  0
 54127  1  0  0  0
 55 57  1  0  0  0
 55128  1  0  0  0
 56 69  2  0  0  0
 57 58  2  0  0  0
 57129  1  0  0  0
 58130  1  0  0  0
 59 60  1  0  0  0
 59 61  1  0  0  0
 59 62  1  0  0  0
 60131  1  0  0  0
 60132  1  0  0  0
 60133  1  0  0  0
 61134  1  0  0  0
 61135  1  0  0  0
 61136  1  0  0  0
 62137  1  0  0  0
 62138  1  0  0  0
 62139  1  0  0  0
 63 65  1  0  0  0
 63140  1  0  0  0
 63141  1  0  0  0
 63142  1  0  0  0
 64143  1  0  0  0
 65144  1  0  0  0
 68 80  1  0  0  0
 71 72  2  0  0  0
 71 74  1  0  0  0
 71145  1  0  0  0
 72 75  1  0  0  0
 72 77  1  0  0  0
 73 74  2  0  0  0
 73 76  1  0  0  0
 73 81  1  0  0  0
 74 83  1  0  0  0
 75 76  2  0  0  0
 75 84  1  0  0  0
 76 85  1  0  0  0
 77 82  1  0  0  0
 77146  1  0  0  0
 77147  1  0  0  0
 78 79  1  0  0  0
 78 80  1  0  0  0
 78148  1  0  0  0
 78149  1  0  0  0
 79 82  1  0  0  0
 79150  1  0  0  0
 79151  1  0  0  0
 80152  1  0  0  0
 80153  1  0  0  0
 81154  1  0  0  0
 82155  1  0  0  0
 82156  1  0  0  0
M  CHG  1  82   1
M  ISO  4   1 100  68 101  80 101  81 100
M  END
> <chiral flag>
0

> <version>
0

> <s_m_source_file>
/data/baiqing/PycharmProjects/Reinvent-master-3.2/result/LINK_invent/BTK/process_docking_weight1_custom_sum_contain_oxygen_bond_distance_aromatic_linkinvent_7_9_3/rearranged_h_0028.sdf

> <i_m_source_file_index>
72

> <r_mmod_Potential_Energy-OPLS-2005>
-298.853942871094

> <r_mmod_Stretch_Energy-OPLS-2005>
35.8246002197266

> <r_mmod_Bend_Energy-OPLS-2005>
91.2993927001953

> <r_mmod_Torsional_Energy-OPLS-2005>
256.425598144531

> <r_mmod_Improper_Torsional_Energy-OPLS-2005>
5.11520147323608

> <r_mmod_Van_der_Waal_Energy-OPLS-2005>
148.751922607422

> <r_mmod_Electrostatic_Energy-OPLS-2005>
-351.483581542969

> <r_mmod_Solvation_Energy-OPLS-2005>
-494.013488769531

> <b_mmod_Minimization_Converged-OPLS-2005>
0

> <r_mmod_RMS_Derivative-OPLS-2005>
1.00955665111542

$$$$
72
                    3D
 Structure written by MMmdl.
162170  0  0  1  0            999 V2000
  -30.7115  -14.4297   20.5503 C   0  0  0  0  0  0
  -30.4216  -12.2811   19.3861 C   0  0  0  0  0  0
  -29.4840  -12.5038   18.1826 C   0  0  0  0  0  0
  -28.0069  -12.3781   18.6037 C   0  0  0  0  0  0
  -27.6667  -13.2019   19.8745 C   0  0  2  0  0  0
  -28.7169  -12.9522   20.9820 C   0  0  0  0  0  0
  -25.2632  -13.8142   20.5700 C   0  0  0  0  0  0
  -24.1871  -13.0423   20.9217 C   0  0  0  0  0  0
  -24.6400  -11.6898   20.8744 C   0  0  0  0  0  0
  -23.9072  -10.4287   21.0401 C   0  0  0  0  0  0
  -24.3629   -9.4206   21.9175 C   0  0  0  0  0  0
  -23.6296   -8.2246   22.0744 C   0  0  0  0  0  0
  -22.4284   -8.0288   21.3532 C   0  0  0  0  0  0
  -21.9925   -9.0260   20.4640 C   0  0  0  0  0  0
  -22.7256  -10.2141   20.3042 C   0  0  0  0  0  0
  -21.6850   -6.0749   22.5277 C   0  0  0  0  0  0
  -21.4004   -6.5645   23.8214 C   0  0  0  0  0  0
  -21.3662   -5.6789   24.9178 C   0  0  0  0  0  0
  -21.6052   -4.3055   24.7218 C   0  0  0  0  0  0
  -21.8826   -3.8156   23.4339 C   0  0  0  0  0  0
  -21.9193   -4.6979   22.3397 C   0  0  0  0  0  0
  -22.7890  -13.5222   21.1864 C   0  0  0  0  0  0
  -22.1672   -4.2160   21.0972 F   0  0  0  0  0  0
  -21.5630   -3.4528   25.7731 F   0  0  0  0  0  0
  -30.0466  -13.2547   20.4198 N   0  0  0  0  0  0
  -26.3065  -12.9305   20.3385 N   0  0  0  0  0  0
  -25.9324  -11.6475   20.5776 N   0  0  0  0  0  0
  -22.0537  -12.8190   22.0406 N   0  0  0  0  0  0
  -25.4353  -15.1860   20.4119 N   0  0  0  0  0  0
  -31.8562  -14.6203   20.1362 O   0  0  0  0  0  0
  -21.6639   -6.8891   21.4241 O   0  0  0  0  0  0
  -22.3583  -14.5547   20.6747 O   0  0  0  0  0  0
  -24.6137  -31.8669   23.2130 C   0  0  0  0  0  0
  -25.9030  -32.4814   23.8432 C   0  0  1  0  0  0
  -27.2405  -27.4592   20.1014 C   0  0  0  0  0  0
  -25.5883  -33.8620   24.2325 N   0  0  0  0  0  0
  -23.4043  -30.4863   21.5556 C   0  0  2  0  0  0
  -24.8543  -28.9648   20.1101 C   0  0  0  0  0  0
  -22.7426  -29.4607   22.5037 C   0  0  0  0  0  0
  -18.0254  -28.1339   22.8501 C   0  0  0  0  0  0
  -24.1498  -36.7356   23.2622 C   0  0  0  0  0  0
  -25.9325  -30.8407   21.3635 C   0  0  0  0  0  0
  -26.0135  -29.4789   20.7087 C   0  0  0  0  0  0
  -27.2140  -28.7341   20.7008 C   0  0  0  0  0  0
  -26.0726  -26.9566   19.4909 C   0  0  0  0  0  0
  -24.8793  -27.7018   19.4951 C   0  0  0  0  0  0
  -23.6090  -29.8219   20.1691 C   0  0  0  0  0  0
  -25.4112  -36.3100   24.0315 C   0  0  1  0  0  0
  -20.5848  -28.3633   23.1338 C   0  0  2  0  0  0
  -20.6746  -26.9374   22.5425 C   0  0  0  0  0  0
  -19.5727  -26.6360   21.5209 C   0  0  0  0  0  0
  -18.1906  -26.7896   22.1610 C   0  0  0  0  0  0
  -19.1504  -28.8802   23.2908 C   0  0  0  0  0  0
  -18.9425  -30.1404   23.8920 C   0  0  0  0  0  0
  -17.6428  -30.6557   24.0554 C   0  0  0  0  0  0
  -25.9042  -34.9460   23.5112 C   0  0  0  0  0  0
  -16.5318  -29.9055   23.6323 C   0  0  0  0  0  0
  -16.7237  -28.6455   23.0374 C   0  0  0  0  0  0
  -26.4449  -31.6594   25.0752 C   0  0  0  0  0  0
  -25.3684  -31.3640   26.1476 C   0  0  0  0  0  0
  -27.0283  -30.3051   24.6072 C   0  0  0  0  0  0
  -27.6059  -32.4302   25.7487 C   0  0  0  0  0  0
  -27.5619  -37.1787   24.8420 C   0  0  0  0  0  0
  -21.4145  -29.2990   22.3756 N   0  0  0  0  0  0
  -26.4291  -37.3794   23.9405 N   0  0  0  0  0  0
  -24.6695  -31.0763   22.1027 N   0  0  0  0  0  0
  -23.4192  -28.8160   23.3077 O   0  0  0  0  0  0
  -28.3748  -26.6881   20.1420 O   0  0  0  0  0  0
  -26.5637  -34.8909   22.4706 O   0  0  0  0  0  0
  -23.5319  -32.1436   23.7482 O   0  0  0  0  0  0
  -28.7481  -19.7369   19.6266 C   0  0  0  0  0  0
  -30.5984  -19.8994   21.1925 C   0  0  0  0  0  0
  -29.8648  -19.1470   20.2501 C   0  0  0  0  0  0
  -28.3265  -21.0378   19.9707 C   0  0  0  0  0  0
  -29.0317  -21.7714   20.9606 C   0  0  0  0  0  0
  -30.1902  -21.2016   21.5472 C   0  0  0  0  0  0
  -27.0951  -21.6006   19.2733 C   0  0  0  0  0  0
  -31.5279  -17.6885   19.0574 C   0  0  0  0  0  0
  -28.5061  -23.1227   21.4386 C   0  0  0  0  0  0
  -28.9926  -24.3384   20.6236 C   0  0  0  0  0  0
  -30.3297  -16.8392   21.1966 C   0  0  0  0  0  0
  -28.2533  -25.6083   21.0735 C   0  0  0  0  0  0
  -30.2435  -17.7073   19.9086 C   0  0  1  0  0  0
  -29.9607  -15.4350   21.0166 N   0  0  0  0  0  0
  -31.1231  -22.0667   22.7193 Cl  0  0  0  0  0  0
  -31.4622  -12.3823   19.0753 H   0  0  0  0  0  0
  -30.3185  -11.2631   19.7672 H   0  0  0  0  0  0
  -29.7066  -11.7863   17.3906 H   0  0  0  0  0  0
  -29.6637  -13.4918   17.7523 H   0  0  0  0  0  0
  -27.8018  -11.3232   18.7840 H   0  0  0  0  0  0
  -27.3557  -12.6772   17.7818 H   0  0  0  0  0  0
  -27.7178  -14.2547   19.5954 H   0  0  0  0  0  0
  -28.6862  -11.9095   21.3031 H   0  0  0  0  0  0
  -28.4980  -13.5371   21.8769 H   0  0  0  0  0  0
  -25.2766   -9.5678   22.4756 H   0  0  0  0  0  0
  -24.0011   -7.4631   22.7444 H   0  0  0  0  0  0
  -21.0868   -8.8798   19.8924 H   0  0  0  0  0  0
  -22.3727  -10.9690   19.6171 H   0  0  0  0  0  0
  -21.1997   -7.6152   23.9722 H   0  0  0  0  0  0
  -21.1476   -6.0513   25.9074 H   0  0  0  0  0  0
  -22.0607   -2.7621   23.2832 H   0  0  0  0  0  0
  -22.4163  -11.9836   22.4767 H   0  0  0  0  0  0
  -21.1151  -13.1202   22.2616 H   0  0  0  0  0  0
  -24.6691  -15.8409   20.5239 H   0  0  0  0  0  0
  -26.2851  -15.6253   20.0816 H   0  0  0  0  0  0
  -26.7122  -32.5493   23.1234 H   0  0  0  0  0  0
  -24.9933  -33.9816   25.0392 H   0  0  0  0  0  0
  -22.6915  -31.3021   21.4223 H   0  0  0  0  0  0
  -23.3749  -35.9711   23.3223 H   0  0  0  0  0  0
  -24.3579  -36.9042   22.2052 H   0  0  0  0  0  0
  -23.7304  -37.6540   23.6728 H   0  0  0  0  0  0
  -26.0394  -31.6051   20.5931 H   0  0  0  0  0  0
  -26.8229  -30.8965   21.9773 H   0  0  0  0  0  0
  -28.1099  -29.1173   21.1679 H   0  0  0  0  0  0
  -26.0839  -25.9810   19.0245 H   0  0  0  0  0  0
  -23.9909  -27.3007   19.0243 H   0  0  0  0  0  0
  -23.7023  -30.5973   19.4055 H   0  0  0  0  0  0
  -22.7355  -29.2312   19.8876 H   0  0  0  0  0  0
  -25.1301  -36.1952   25.0805 H   0  0  0  0  0  0
  -20.9933  -28.3193   24.1457 H   0  0  0  0  0  0
  -20.5672  -26.2228   23.3595 H   0  0  0  0  0  0
  -21.6617  -26.7421   22.1221 H   0  0  0  0  0  0
  -19.6900  -25.6285   21.1207 H   0  0  0  0  0  0
  -19.6671  -27.3186   20.6751 H   0  0  0  0  0  0
  -17.4204  -26.6640   21.3988 H   0  0  0  0  0  0
  -18.0272  -26.0025   22.8980 H   0  0  0  0  0  0
  -19.7908  -30.7196   24.2318 H   0  0  0  0  0  0
  -17.5000  -31.6256   24.5134 H   0  0  0  0  0  0
  -15.5326  -30.2975   23.7634 H   0  0  0  0  0  0
  -15.8622  -28.0776   22.7110 H   0  0  0  0  0  0
  -24.5915  -30.6959   25.7749 H   0  0  0  0  0  0
  -24.8812  -32.2743   26.4960 H   0  0  0  0  0  0
  -25.8022  -30.8775   27.0217 H   0  0  0  0  0  0
  -26.2801  -29.6771   24.1207 H   0  0  0  0  0  0
  -27.4162  -29.7300   25.4482 H   0  0  0  0  0  0
  -27.8606  -30.4400   23.9160 H   0  0  0  0  0  0
  -27.2761  -33.3631   26.2074 H   0  0  0  0  0  0
  -28.3850  -32.6770   25.0275 H   0  0  0  0  0  0
  -28.0772  -31.8430   26.5367 H   0  0  0  0  0  0
  -28.2499  -38.0217   24.7651 H   0  0  0  0  0  0
  -28.1243  -36.2744   24.6030 H   0  0  0  0  0  0
  -27.2328  -37.1155   25.8805 H   0  0  0  0  0  0
  -20.9328  -29.8757   21.7005 H   0  0  0  0  0  0
  -26.0146  -38.2837   24.1517 H   0  0  0  0  0  0
  -28.1892  -19.1821   18.8841 H   0  0  0  0  0  0
  -31.4699  -19.4728   21.6693 H   0  0  0  0  0  0
  -26.8160  -20.9909   18.4146 H   0  0  0  0  0  0
  -27.2781  -22.6083   18.9054 H   0  0  0  0  0  0
  -26.2394  -21.6235   19.9467 H   0  0  0  0  0  0
  -31.4332  -18.3487   18.1934 H   0  0  0  0  0  0
  -31.7484  -16.6932   18.6736 H   0  0  0  0  0  0
  -32.3925  -18.0250   19.6331 H   0  0  0  0  0  0
  -28.7503  -23.2644   22.4918 H   0  0  0  0  0  0
  -27.4167  -23.0833   21.4261 H   0  0  0  0  0  0
  -28.8102  -24.1735   19.5610 H   0  0  0  0  0  0
  -30.0706  -24.4673   20.7381 H   0  0  0  0  0  0
  -29.6001  -17.2164   21.9135 H   0  0  0  0  0  0
  -31.3003  -16.9343   21.6826 H   0  0  0  0  0  0
  -28.6282  -25.9325   22.0456 H   0  0  0  0  0  0
  -27.2049  -25.3488   21.2345 H   0  0  0  0  0  0
  -29.4399  -17.3075   19.2845 H   0  0  0  0  0  0
  -29.0179  -15.1836   21.2702 H   0  0  0  0  0  0
  1 25  1  0  0  0
  1 30  2  0  0  0
  1 84  1  0  0  0
  2  3  1  0  0  0
  2 25  1  0  0  0
  2 86  1  0  0  0
  2 87  1  0  0  0
  3  4  1  0  0  0
  3 88  1  0  0  0
  3 89  1  0  0  0
  4  5  1  0  0  0
  4 90  1  0  0  0
  4 91  1  0  0  0
  5  6  1  0  0  0
  5 26  1  0  0  0
  5 92  1  0  0  0
  6 25  1  0  0  0
  6 93  1  0  0  0
  6 94  1  0  0  0
  7  8  2  0  0  0
  7 26  1  0  0  0
  7 29  1  0  0  0
  8  9  1  0  0  0
  8 22  1  0  0  0
  9 10  1  0  0  0
  9 27  2  0  0  0
 10 11  2  0  0  0
 10 15  1  0  0  0
 11 12  1  0  0  0
 11 95  1  0  0  0
 12 13  2  0  0  0
 12 96  1  0  0  0
 13 14  1  0  0  0
 13 31  1  0  0  0
 14 15  2  0  0  0
 14 97  1  0  0  0
 15 98  1  0  0  0
 16 17  2  0  0  0
 16 21  1  0  0  0
 16 31  1  0  0  0
 17 18  1  0  0  0
 17 99  1  0  0  0
 18 19  2  0  0  0
 18100  1  0  0  0
 19 20  1  0  0  0
 19 24  1  0  0  0
 20 21  2  0  0  0
 20101  1  0  0  0
 21 23  1  0  0  0
 22 28  1  0  0  0
 22 32  2  0  0  0
 26 27  1  0  0  0
 28102  1  0  0  0
 28103  1  0  0  0
 29104  1  0  0  0
 29105  1  0  0  0
 33 34  1  0  0  0
 33 66  1  0  0  0
 33 70  2  0  0  0
 34 36  1  0  0  0
 34 59  1  0  0  0
 34106  1  0  0  0
 35 44  2  0  0  0
 35 45  1  0  0  0
 35 68  1  0  0  0
 36 56  1  0  0  0
 36107  1  0  0  0
 37 39  1  0  0  0
 37 47  1  0  0  0
 37 66  1  0  0  0
 37108  1  0  0  0
 38 43  2  0  0  0
 38 46  1  0  0  0
 38 47  1  0  0  0
 39 64  1  0  0  0
 39 67  2  0  0  0
 40 52  1  0  0  0
 40 53  2  0  0  0
 40 58  1  0  0  0
 41109  1  0  0  0
 41110  1  0  0  0
 41111  1  0  0  0
 41 48  1  0  0  0
 42 43  1  0  0  0
 42 66  1  0  0  0
 42112  1  0  0  0
 42113  1  0  0  0
 43 44  1  0  0  0
 44114  1  0  0  0
 45 46  2  0  0  0
 45115  1  0  0  0
 46116  1  0  0  0
 47117  1  0  0  0
 47118  1  0  0  0
 48 56  1  0  0  0
 48 65  1  0  0  0
 48119  1  0  0  0
 49 50  1  0  0  0
 49 53  1  0  0  0
 49 64  1  0  0  0
 49120  1  0  0  0
 50 51  1  0  0  0
 50121  1  0  0  0
 50122  1  0  0  0
 51 52  1  0  0  0
 51123  1  0  0  0
 51124  1  0  0  0
 52125  1  0  0  0
 52126  1  0  0  0
 53 54  1  0  0  0
 54 55  2  0  0  0
 54127  1  0  0  0
 55 57  1  0  0  0
 55128  1  0  0  0
 56 69  2  0  0  0
 57 58  2  0  0  0
 57129  1  0  0  0
 58130  1  0  0  0
 59 60  1  0  0  0
 59 61  1  0  0  0
 59 62  1  0  0  0
 60131  1  0  0  0
 60132  1  0  0  0
 60133  1  0  0  0
 61134  1  0  0  0
 61135  1  0  0  0
 61136  1  0  0  0
 62137  1  0  0  0
 62138  1  0  0  0
 62139  1  0  0  0
 63 65  1  0  0  0
 63140  1  0  0  0
 63141  1  0  0  0
 63142  1  0  0  0
 64143  1  0  0  0
 65144  1  0  0  0
 68 82  1  0  0  0
 71 73  2  0  0  0
 71 74  1  0  0  0
 71145  1  0  0  0
 72 73  1  0  0  0
 72 76  2  0  0  0
 72146  1  0  0  0
 73 83  1  0  0  0
 74 75  2  0  0  0
 74 77  1  0  0  0
 75 76  1  0  0  0
 75 79  1  0  0  0
 76 85  1  0  0  0
 77147  1  0  0  0
 77148  1  0  0  0
 77149  1  0  0  0
 78150  1  0  0  0
 78151  1  0  0  0
 78152  1  0  0  0
 78 83  1  0  0  0
 79 80  1  0  0  0
 79153  1  0  0  0
 79154  1  0  0  0
 80 82  1  0  0  0
 80155  1  0  0  0
 80156  1  0  0  0
 81 83  1  0  0  0
 81 84  1  0  0  0
 81157  1  0  0  0
 81158  1  0  0  0
 82159  1  0  0  0
 82160  1  0  0  0
 83161  1  0  0  0
 84162  1  0  0  0
M  ISO  4   1 100  68 101  82 101  84 100
M  END
> <chiral flag>
0

> <version>
0

> <s_m_source_file>
/data/baiqing/PycharmProjects/Reinvent-master-3.2/result/LINK_invent/BTK/process_docking_weight1_custom_sum_contain_oxygen_bond_distance_aromatic_linkinvent_7_9_3/rearranged_h_0028.sdf

> <i_m_source_file_index>
73

> <r_mmod_Potential_Energy-OPLS-2005>
-75.335823059082

> <r_mmod_Stretch_Energy-OPLS-2005>
33.9008941650391

> <r_mmod_Bend_Energy-OPLS-2005>
90.582633972168

> <r_mmod_Torsional_Energy-OPLS-2005>
236.700942993164

> <r_mmod_Improper_Torsional_Energy-OPLS-2005>
3.94307541847229

> <r_mmod_Van_der_Waal_Energy-OPLS-2005>
152.205276489258

> <r_mmod_Electrostatic_Energy-OPLS-2005>
-405.880767822266

> <r_mmod_Solvation_Energy-OPLS-2005>
-198.974411010742

> <b_mmod_Minimization_Converged-OPLS-2005>
0

> <r_mmod_RMS_Derivative-OPLS-2005>
3.82787752151489

$$$$
73
                    3D
 Structure written by MMmdl.
159167  0  0  1  0            999 V2000
  -30.6236  -14.6101   20.5141 C   0  0  0  0  0  0
  -30.4414  -12.3775   19.4421 C   0  0  0  0  0  0
  -29.5065  -12.5091   18.2188 C   0  0  0  0  0  0
  -28.0290  -12.3476   18.6311 C   0  0  0  0  0  0
  -27.6558  -13.2103   19.8658 C   0  0  2  0  0  0
  -28.7008  -13.0405   20.9919 C   0  0  0  0  0  0
  -25.2568  -13.8153   20.5673 C   0  0  0  0  0  0
  -24.1829  -13.0423   20.9180 C   0  0  0  0  0  0
  -24.6388  -11.6894   20.8727 C   0  0  0  0  0  0
  -23.9057  -10.4282   21.0397 C   0  0  0  0  0  0
  -24.3612   -9.4201   21.9180 C   0  0  0  0  0  0
  -23.6287   -8.2235   22.0747 C   0  0  0  0  0  0
  -22.4270   -8.0274   21.3539 C   0  0  0  0  0  0
  -21.9904   -9.0244   20.4644 C   0  0  0  0  0  0
  -22.7227  -10.2126   20.3048 C   0  0  0  0  0  0
  -21.6853   -6.0731   22.5279 C   0  0  0  0  0  0
  -21.4010   -6.5632   23.8211 C   0  0  0  0  0  0
  -21.3659   -5.6785   24.9173 C   0  0  0  0  0  0
  -21.6044   -4.3049   24.7221 C   0  0  0  0  0  0
  -21.8821   -3.8144   23.4343 C   0  0  0  0  0  0
  -21.9190   -4.6961   22.3402 C   0  0  0  0  0  0
  -22.7853  -13.5223   21.1854 C   0  0  0  0  0  0
  -22.1663   -4.2146   21.0980 F   0  0  0  0  0  0
  -21.5630   -3.4534   25.7734 F   0  0  0  0  0  0
  -30.0198  -13.3840   20.4343 N   0  0  0  0  0  0
  -26.2998  -12.9328   20.3319 N   0  0  0  0  0  0
  -25.9318  -11.6486   20.5746 N   0  0  0  0  0  0
  -22.0505  -12.8210   22.0413 N   0  0  0  0  0  0
  -25.4249  -15.1871   20.4108 N   0  0  0  0  0  0
  -31.7815  -14.7939   20.1266 O   0  0  0  0  0  0
  -21.6634   -6.8874   21.4240 O   0  0  0  0  0  0
  -22.3529  -14.5528   20.6706 O   0  0  0  0  0  0
  -24.6227  -31.8622   23.2031 C   0  0  0  0  0  0
  -25.9088  -32.4791   23.8355 C   0  0  1  0  0  0
  -27.2295  -27.3520   20.1215 C   0  0  0  0  0  0
  -25.5914  -33.8589   24.2287 N   0  0  0  0  0  0
  -23.4150  -30.4847   21.5449 C   0  0  2  0  0  0
  -24.8631  -28.9398   20.1137 C   0  0  0  0  0  0
  -22.7454  -29.4630   22.4943 C   0  0  0  0  0  0
  -18.0283  -28.1386   22.8484 C   0  0  0  0  0  0
  -24.1489  -36.7295   23.2639 C   0  0  0  0  0  0
  -25.9519  -30.8045   21.3677 C   0  0  0  0  0  0
  -26.0288  -29.4327   20.7148 C   0  0  0  0  0  0
  -27.2173  -28.6502   20.7075 C   0  0  0  0  0  0
  -26.0468  -26.9025   19.4953 C   0  0  0  0  0  0
  -24.8716  -27.6787   19.4949 C   0  0  0  0  0  0
  -23.6285  -29.8159   20.1613 C   0  0  0  0  0  0
  -25.4112  -36.3087   24.0336 C   0  0  1  0  0  0
  -20.5881  -28.3681   23.1296 C   0  0  2  0  0  0
  -20.6772  -26.9407   22.5417 C   0  0  0  0  0  0
  -19.5749  -26.6390   21.5213 C   0  0  0  0  0  0
  -18.1928  -26.7931   22.1622 C   0  0  0  0  0  0
  -19.1535  -28.8850   23.2887 C   0  0  0  0  0  0
  -18.9460  -30.1456   23.8897 C   0  0  0  0  0  0
  -17.6461  -30.6587   24.0568 C   0  0  0  0  0  0
  -25.9044  -34.9458   23.5109 C   0  0  0  0  0  0
  -16.5350  -29.9089   23.6336 C   0  0  0  0  0  0
  -16.7271  -28.6510   23.0346 C   0  0  0  0  0  0
  -26.4490  -31.6586   25.0708 C   0  0  0  0  0  0
  -25.3738  -31.3725   26.1449 C   0  0  0  0  0  0
  -27.0326  -30.3012   24.6128 C   0  0  0  0  0  0
  -27.6059  -32.4315   25.7476 C   0  0  0  0  0  0
  -27.5583  -37.1798   24.8465 C   0  0  0  0  0  0
  -21.4171  -29.3039   22.3690 N   0  0  0  0  0  0
  -26.4293  -37.3777   23.9412 N   0  0  0  0  0  0
  -24.6817  -31.0667   22.0959 N   0  0  0  0  0  0
  -23.4192  -28.8173   23.3015 O   0  0  0  0  0  0
  -28.3606  -26.5353   20.1306 O   0  0  0  0  0  0
  -26.5608  -34.8923   22.4670 O   0  0  0  0  0  0
  -23.5401  -32.1397   23.7386 O   0  0  0  0  0  0
  -30.9309  -17.9090   20.9339 C   0  0  0  0  0  0
  -30.8650  -19.3175   20.7006 C   0  0  0  0  0  0
  -29.7153  -19.9300   20.1093 C   0  0  0  0  0  0
  -28.6268  -19.0612   19.7986 C   0  0  0  0  0  0
  -29.8529  -17.0518   20.6068 C   0  0  0  0  0  0
  -28.6990  -17.6601   20.0591 C   0  0  0  0  0  0
  -32.0742  -20.1569   21.0798 C   0  0  0  0  0  0
  -27.3701  -19.6161   19.1420 C   0  0  0  0  0  0
  -29.7144  -21.4418   19.6640 C   0  0  0  0  0  0
  -28.9656  -22.5528   20.5037 C   0  0  0  0  0  0
  -29.0551  -24.0302   19.9214 C   0  0  0  0  0  0
  -28.1986  -25.1578   20.6220 C   0  0  0  0  0  0
  -29.8070  -15.6300   20.8989 N   0  0  0  0  0  0
  -27.6428  -16.8641   19.7591 F   0  0  0  0  0  0
  -31.4815  -12.5088   19.1381 H   0  0  0  0  0  0
  -30.3789  -11.3754   19.8694 H   0  0  0  0  0  0
  -29.7667  -11.7659   17.4640 H   0  0  0  0  0  0
  -29.6504  -13.4843   17.7499 H   0  0  0  0  0  0
  -27.8633  -11.2933   18.8564 H   0  0  0  0  0  0
  -27.3731  -12.5857   17.7927 H   0  0  0  0  0  0
  -27.6799  -14.2481   19.5350 H   0  0  0  0  0  0
  -28.7067  -12.0106   21.3523 H   0  0  0  0  0  0
  -28.4469  -13.6523   21.8592 H   0  0  0  0  0  0
  -25.2762   -9.5675   22.4746 H   0  0  0  0  0  0
  -24.0000   -7.4623   22.7460 H   0  0  0  0  0  0
  -21.0837   -8.8756   19.8950 H   0  0  0  0  0  0
  -22.3684  -10.9659   19.6152 H   0  0  0  0  0  0
  -21.2003   -7.6141   23.9713 H   0  0  0  0  0  0
  -21.1482   -6.0517   25.9077 H   0  0  0  0  0  0
  -22.0602   -2.7606   23.2840 H   0  0  0  0  0  0
  -22.4131  -11.9870   22.4797 H   0  0  0  0  0  0
  -21.1124  -13.1230   22.2629 H   0  0  0  0  0  0
  -24.6563  -15.8370   20.5261 H   0  0  0  0  0  0
  -26.2755  -15.6438   20.0935 H   0  0  0  0  0  0
  -26.7158  -32.5478   23.1114 H   0  0  0  0  0  0
  -25.0080  -33.9738   25.0443 H   0  0  0  0  0  0
  -22.7068  -31.3039   21.4025 H   0  0  0  0  0  0
  -23.3753  -35.9626   23.3307 H   0  0  0  0  0  0
  -24.3577  -36.8898   22.2051 H   0  0  0  0  0  0
  -23.7246  -37.6503   23.6650 H   0  0  0  0  0  0
  -26.0774  -31.5678   20.5984 H   0  0  0  0  0  0
  -26.8347  -30.8563   21.9936 H   0  0  0  0  0  0
  -28.1153  -29.0258   21.1776 H   0  0  0  0  0  0
  -26.0266  -25.9402   19.0038 H   0  0  0  0  0  0
  -23.9794  -27.2985   19.0166 H   0  0  0  0  0  0
  -23.7421  -30.5900   19.4009 H   0  0  0  0  0  0
  -22.7506  -29.2398   19.8637 H   0  0  0  0  0  0
  -25.1295  -36.1939   25.0830 H   0  0  0  0  0  0
  -20.9982  -28.3255   24.1413 H   0  0  0  0  0  0
  -20.5677  -26.2286   23.3610 H   0  0  0  0  0  0
  -21.6640  -26.7444   22.1214 H   0  0  0  0  0  0
  -19.6912  -25.6304   21.1242 H   0  0  0  0  0  0
  -19.6699  -27.3205   20.6747 H   0  0  0  0  0  0
  -17.4207  -26.6688   21.4012 H   0  0  0  0  0  0
  -18.0317  -26.0070   22.9014 H   0  0  0  0  0  0
  -19.7936  -30.7273   24.2255 H   0  0  0  0  0  0
  -17.5020  -31.6263   24.5180 H   0  0  0  0  0  0
  -15.5354  -30.2993   23.7657 H   0  0  0  0  0  0
  -15.8670  -28.0839   22.7046 H   0  0  0  0  0  0
  -24.5906  -30.7073   25.7794 H   0  0  0  0  0  0
  -24.8939  -32.2896   26.4875 H   0  0  0  0  0  0
  -25.8074  -30.8912   27.0222 H   0  0  0  0  0  0
  -26.2878  -29.6763   24.1181 H   0  0  0  0  0  0
  -27.4074  -29.7260   25.4604 H   0  0  0  0  0  0
  -27.8728  -30.4314   23.9302 H   0  0  0  0  0  0
  -27.2677  -33.3617   26.2058 H   0  0  0  0  0  0
  -28.3867  -32.6869   25.0298 H   0  0  0  0  0  0
  -28.0733  -31.8437   26.5386 H   0  0  0  0  0  0
  -28.2607  -38.0091   24.7508 H   0  0  0  0  0  0
  -28.1069  -36.2619   24.6289 H   0  0  0  0  0  0
  -27.2300  -37.1458   25.8868 H   0  0  0  0  0  0
  -20.9336  -29.8757   21.6904 H   0  0  0  0  0  0
  -26.0175  -38.2853   24.1406 H   0  0  0  0  0  0
  -31.8170  -17.4829   21.3834 H   0  0  0  0  0  0
  -32.7659  -19.5994   21.7127 H   0  0  0  0  0  0
  -31.7720  -21.0475   21.6313 H   0  0  0  0  0  0
  -32.6193  -20.4711   20.1893 H   0  0  0  0  0  0
  -27.5951  -20.0062   18.1496 H   0  0  0  0  0  0
  -26.9399  -20.4162   19.7416 H   0  0  0  0  0  0
  -26.5975  -18.8567   19.0214 H   0  0  0  0  0  0
  -29.3199  -21.4733   18.6484 H   0  0  0  0  0  0
  -30.7450  -21.7677   19.5356 H   0  0  0  0  0  0
  -29.3628  -22.5520   21.5193 H   0  0  0  0  0  0
  -27.9150  -22.2822   20.5951 H   0  0  0  0  0  0
  -28.7700  -24.0037   18.8696 H   0  0  0  0  0  0
  -30.1007  -24.3393   19.9331 H   0  0  0  0  0  0
  -28.4634  -25.1786   21.6800 H   0  0  0  0  0  0
  -27.1552  -24.8430   20.6047 H   0  0  0  0  0  0
  -28.8812  -15.3023   21.1274 H   0  0  0  0  0  0
  1 25  1  0  0  0
  1 30  2  0  0  0
  1 83  1  0  0  0
  2  3  1  0  0  0
  2 25  1  0  0  0
  2 85  1  0  0  0
  2 86  1  0  0  0
  3  4  1  0  0  0
  3 87  1  0  0  0
  3 88  1  0  0  0
  4  5  1  0  0  0
  4 89  1  0  0  0
  4 90  1  0  0  0
  5  6  1  0  0  0
  5 26  1  0  0  0
  5 91  1  0  0  0
  6 25  1  0  0  0
  6 92  1  0  0  0
  6 93  1  0  0  0
  7  8  2  0  0  0
  7 26  1  0  0  0
  7 29  1  0  0  0
  8  9  1  0  0  0
  8 22  1  0  0  0
  9 10  1  0  0  0
  9 27  2  0  0  0
 10 11  2  0  0  0
 10 15  1  0  0  0
 11 12  1  0  0  0
 11 94  1  0  0  0
 12 13  2  0  0  0
 12 95  1  0  0  0
 13 14  1  0  0  0
 13 31  1  0  0  0
 14 15  2  0  0  0
 14 96  1  0  0  0
 15 97  1  0  0  0
 16 17  2  0  0  0
 16 21  1  0  0  0
 16 31  1  0  0  0
 17 18  1  0  0  0
 17 98  1  0  0  0
 18 19  2  0  0  0
 18 99  1  0  0  0
 19 20  1  0  0  0
 19 24  1  0  0  0
 20 21  2  0  0  0
 20100  1  0  0  0
 21 23  1  0  0  0
 22 28  1  0  0  0
 22 32  2  0  0  0
 26 27  1  0  0  0
 28101  1  0  0  0
 28102  1  0  0  0
 29103  1  0  0  0
 29104  1  0  0  0
 33 34  1  0  0  0
 33 66  1  0  0  0
 33 70  2  0  0  0
 34 36  1  0  0  0
 34 59  1  0  0  0
 34105  1  0  0  0
 35 44  2  0  0  0
 35 45  1  0  0  0
 35 68  1  0  0  0
 36 56  1  0  0  0
 36106  1  0  0  0
 37 39  1  0  0  0
 37 47  1  0  0  0
 37 66  1  0  0  0
 37107  1  0  0  0
 38 43  2  0  0  0
 38 46  1  0  0  0
 38 47  1  0  0  0
 39 64  1  0  0  0
 39 67  2  0  0  0
 40 52  1  0  0  0
 40 53  2  0  0  0
 40 58  1  0  0  0
 41108  1  0  0  0
 41109  1  0  0  0
 41110  1  0  0  0
 41 48  1  0  0  0
 42 43  1  0  0  0
 42 66  1  0  0  0
 42111  1  0  0  0
 42112  1  0  0  0
 43 44  1  0  0  0
 44113  1  0  0  0
 45 46  2  0  0  0
 45114  1  0  0  0
 46115  1  0  0  0
 47116  1  0  0  0
 47117  1  0  0  0
 48 56  1  0  0  0
 48 65  1  0  0  0
 48118  1  0  0  0
 49 50  1  0  0  0
 49 53  1  0  0  0
 49 64  1  0  0  0
 49119  1  0  0  0
 50 51  1  0  0  0
 50120  1  0  0  0
 50121  1  0  0  0
 51 52  1  0  0  0
 51122  1  0  0  0
 51123  1  0  0  0
 52124  1  0  0  0
 52125  1  0  0  0
 53 54  1  0  0  0
 54 55  2  0  0  0
 54126  1  0  0  0
 55 57  1  0  0  0
 55127  1  0  0  0
 56 69  2  0  0  0
 57 58  2  0  0  0
 57128  1  0  0  0
 58129  1  0  0  0
 59 60  1  0  0  0
 59 61  1  0  0  0
 59 62  1  0  0  0
 60130  1  0  0  0
 60131  1  0  0  0
 60132  1  0  0  0
 61133  1  0  0  0
 61134  1  0  0  0
 61135  1  0  0  0
 62136  1  0  0  0
 62137  1  0  0  0
 62138  1  0  0  0
 63 65  1  0  0  0
 63139  1  0  0  0
 63140  1  0  0  0
 63141  1  0  0  0
 64142  1  0  0  0
 65143  1  0  0  0
 68 82  1  0  0  0
 71 72  2  0  0  0
 71 75  1  0  0  0
 71144  1  0  0  0
 72 73  1  0  0  0
 72 77  1  0  0  0
 73 74  2  0  0  0
 73 79  1  0  0  0
 74 76  1  0  0  0
 74 78  1  0  0  0
 75 76  2  0  0  0
 75 83  1  0  0  0
 76 84  1  0  0  0
 77145  1  0  0  0
 77146  1  0  0  0
 77147  1  0  0  0
 78148  1  0  0  0
 78149  1  0  0  0
 78150  1  0  0  0
 79 80  1  0  0  0
 79151  1  0  0  0
 79152  1  0  0  0
 80 81  1  0  0  0
 80153  1  0  0  0
 80154  1  0  0  0
 81 82  1  0  0  0
 81155  1  0  0  0
 81156  1  0  0  0
 82157  1  0  0  0
 82158  1  0  0  0
 83159  1  0  0  0
M  ISO  4   1 100  68 101  82 101  83 100
M  END
> <chiral flag>
0

> <version>
0

> <s_m_source_file>
/data/baiqing/PycharmProjects/Reinvent-master-3.2/result/LINK_invent/BTK/process_docking_weight1_custom_sum_contain_oxygen_bond_distance_aromatic_linkinvent_7_9_3/rearranged_h_0028.sdf

> <i_m_source_file_index>
74

> <r_mmod_Potential_Energy-OPLS-2005>
12.5509357452393

> <r_mmod_Stretch_Energy-OPLS-2005>
68.3683395385742

> <r_mmod_Bend_Energy-OPLS-2005>
121.974266052246

> <r_mmod_Torsional_Energy-OPLS-2005>
240.615142822266

> <r_mmod_Improper_Torsional_Energy-OPLS-2005>
5.89347648620605

> <r_mmod_Van_der_Waal_Energy-OPLS-2005>
143.48258972168

> <r_mmod_Electrostatic_Energy-OPLS-2005>
-416.620025634766

> <r_mmod_Solvation_Energy-OPLS-2005>
-187.767013549805

> <b_mmod_Minimization_Converged-OPLS-2005>
0

> <r_mmod_RMS_Derivative-OPLS-2005>
1.09346687793732

$$$$
74
                    3D
 Structure written by MMmdl.
151159  0  0  1  0            999 V2000
  -30.5808  -14.7540   20.4605 C   0  0  0  0  0  0
  -30.4383  -12.4665   19.4605 C   0  0  0  0  0  0
  -29.5115  -12.5159   18.2261 C   0  0  0  0  0  0
  -28.0347  -12.3418   18.6353 C   0  0  0  0  0  0
  -27.6419  -13.2273   19.8493 C   0  0  2  0  0  0
  -28.6876  -13.1494   20.9812 C   0  0  0  0  0  0
  -25.2538  -13.8194   20.5700 C   0  0  0  0  0  0
  -24.1823  -13.0442   20.9210 C   0  0  0  0  0  0
  -24.6409  -11.6922   20.8753 C   0  0  0  0  0  0
  -23.9084  -10.4305   21.0417 C   0  0  0  0  0  0
  -24.3637   -9.4220   21.9191 C   0  0  0  0  0  0
  -23.6310   -8.2259   22.0762 C   0  0  0  0  0  0
  -22.4289   -8.0303   21.3554 C   0  0  0  0  0  0
  -21.9930   -9.0277   20.4649 C   0  0  0  0  0  0
  -22.7258  -10.2155   20.3062 C   0  0  0  0  0  0
  -21.6862   -6.0759   22.5289 C   0  0  0  0  0  0
  -21.4018   -6.5657   23.8224 C   0  0  0  0  0  0
  -21.3654   -5.6804   24.9181 C   0  0  0  0  0  0
  -21.6039   -4.3065   24.7227 C   0  0  0  0  0  0
  -21.8819   -3.8164   23.4346 C   0  0  0  0  0  0
  -21.9199   -4.6987   22.3405 C   0  0  0  0  0  0
  -22.7847  -13.5242   21.1858 C   0  0  0  0  0  0
  -22.1669   -4.2170   21.0983 F   0  0  0  0  0  0
  -21.5622   -3.4546   25.7737 F   0  0  0  0  0  0
  -29.9804  -13.5186   20.3946 N   0  0  0  0  0  0
  -26.2946  -12.9379   20.3270 N   0  0  0  0  0  0
  -25.9330  -11.6528   20.5740 N   0  0  0  0  0  0
  -22.0480  -12.8230   22.0402 N   0  0  0  0  0  0
  -25.4221  -15.1917   20.4135 N   0  0  0  0  0  0
  -31.7746  -14.8739   20.1733 O   0  0  0  0  0  0
  -21.6645   -6.8902   21.4255 O   0  0  0  0  0  0
  -22.3545  -14.5553   20.6709 O   0  0  0  0  0  0
  -24.6322  -31.8550   23.1977 C   0  0  0  0  0  0
  -25.9150  -32.4742   23.8330 C   0  0  1  0  0  0
  -27.2233  -27.2649   20.1446 C   0  0  0  0  0  0
  -25.5946  -33.8548   24.2262 N   0  0  0  0  0  0
  -23.4278  -30.4751   21.5428 C   0  0  2  0  0  0
  -24.8746  -28.9125   20.1190 C   0  0  0  0  0  0
  -22.7501  -29.4612   22.4952 C   0  0  0  0  0  0
  -18.0293  -28.1391   22.8487 C   0  0  0  0  0  0
  -24.1488  -36.7278   23.2635 C   0  0  0  0  0  0
  -25.9714  -30.7708   21.3736 C   0  0  0  0  0  0
  -26.0448  -29.3899   20.7234 C   0  0  0  0  0  0
  -27.2243  -28.5810   20.7176 C   0  0  0  0  0  0
  -26.0324  -26.8442   19.5216 C   0  0  0  0  0  0
  -24.8725  -27.6473   19.5064 C   0  0  0  0  0  0
  -23.6451  -29.8006   20.1617 C   0  0  0  0  0  0
  -25.4113  -36.3066   24.0331 C   0  0  1  0  0  0
  -20.5892  -28.3706   23.1283 C   0  0  2  0  0  0
  -20.6785  -26.9425   22.5419 C   0  0  0  0  0  0
  -19.5759  -26.6392   21.5223 C   0  0  0  0  0  0
  -18.1938  -26.7935   22.1630 C   0  0  0  0  0  0
  -19.1542  -28.8869   23.2876 C   0  0  0  0  0  0
  -18.9460  -30.1467   23.8895 C   0  0  0  0  0  0
  -17.6455  -30.6589   24.0565 C   0  0  0  0  0  0
  -25.9063  -34.9436   23.5100 C   0  0  0  0  0  0
  -16.5350  -29.9086   23.6324 C   0  0  0  0  0  0
  -16.7278  -28.6504   23.0353 C   0  0  0  0  0  0
  -26.4506  -31.6547   25.0709 C   0  0  0  0  0  0
  -25.3722  -31.3704   26.1427 C   0  0  0  0  0  0
  -27.0351  -30.2961   24.6180 C   0  0  0  0  0  0
  -27.6060  -32.4281   25.7485 C   0  0  0  0  0  0
  -27.5587  -37.1790   24.8460 C   0  0  0  0  0  0
  -21.4214  -29.3045   22.3681 N   0  0  0  0  0  0
  -26.4285  -37.3769   23.9423 N   0  0  0  0  0  0
  -24.6966  -31.0523   22.0946 N   0  0  0  0  0  0
  -23.4194  -28.8177   23.3075 O   0  0  0  0  0  0
  -28.3342  -26.3964   20.0924 O   0  0  0  0  0  0
  -26.5629  -34.8909   22.4665 O   0  0  0  0  0  0
  -23.5478  -32.1379   23.7277 O   0  0  0  0  0  0
  -28.4720  -23.8162   20.2669 C   0  0  0  0  0  0
  -28.8232  -24.1097   22.9896 C   0  0  0  0  0  0
  -28.4220  -25.1701   20.8229 C   0  0  0  0  0  0
  -28.6968  -22.5889   21.0391 C   0  0  0  0  0  0
  -28.6397  -25.2623   22.2136 C   0  0  0  0  0  0
  -28.8347  -22.8104   22.4490 C   0  0  0  0  0  0
  -29.1910  -18.5617   20.3195 C   0  0  0  0  0  0
  -30.1386  -17.3445   20.8510 C   0  0  0  0  0  0
  -29.4208  -20.0575   20.9180 C   0  0  0  0  0  0
  -29.7719  -15.8671   20.6589 N   0  0  0  0  0  0
  -28.7105  -21.2877   20.4104 O   0  0  0  0  0  0
  -28.7349  -26.7897   23.0180 Cl  0  0  0  0  0  0
  -28.9722  -21.5761   23.6510 Cl  0  0  0  0  0  0
  -31.4763  -12.6112   19.1563 H   0  0  0  0  0  0
  -30.4033  -11.4886   19.9419 H   0  0  0  0  0  0
  -29.7961  -11.7450   17.5080 H   0  0  0  0  0  0
  -29.6364  -13.4711   17.7134 H   0  0  0  0  0  0
  -27.8779  -11.2894   18.8730 H   0  0  0  0  0  0
  -27.3844  -12.5592   17.7867 H   0  0  0  0  0  0
  -27.6368  -14.2520   19.4784 H   0  0  0  0  0  0
  -28.7348  -12.1458   21.4078 H   0  0  0  0  0  0
  -28.4238  -13.8175   21.8026 H   0  0  0  0  0  0
  -25.2781   -9.5703   22.4758 H   0  0  0  0  0  0
  -24.0025   -7.4653   22.7476 H   0  0  0  0  0  0
  -21.0874   -8.8800   19.8938 H   0  0  0  0  0  0
  -22.3728  -10.9704   19.6175 H   0  0  0  0  0  0
  -21.2009   -7.6163   23.9738 H   0  0  0  0  0  0
  -21.1470   -6.0527   25.9086 H   0  0  0  0  0  0
  -22.0598   -2.7628   23.2836 H   0  0  0  0  0  0
  -22.4101  -11.9891   22.4781 H   0  0  0  0  0  0
  -21.1095  -13.1250   22.2588 H   0  0  0  0  0  0
  -24.6511  -15.8400   20.5315 H   0  0  0  0  0  0
  -26.2596  -15.6367   20.0612 H   0  0  0  0  0  0
  -26.7219  -32.5395   23.1080 H   0  0  0  0  0  0
  -25.0094  -33.9679   25.0410 H   0  0  0  0  0  0
  -22.7240  -31.2969   21.3949 H   0  0  0  0  0  0
  -23.3761  -35.9594   23.3267 H   0  0  0  0  0  0
  -24.3583  -36.8931   22.2054 H   0  0  0  0  0  0
  -23.7219  -37.6463   23.6678 H   0  0  0  0  0  0
  -26.1047  -31.5286   20.6001 H   0  0  0  0  0  0
  -26.8515  -30.8251   22.0026 H   0  0  0  0  0  0
  -28.1290  -28.9523   21.1773 H   0  0  0  0  0  0
  -25.9990  -25.8716   19.0500 H   0  0  0  0  0  0
  -23.9763  -27.2787   19.0267 H   0  0  0  0  0  0
  -23.7653  -30.5735   19.4018 H   0  0  0  0  0  0
  -22.7627  -29.2323   19.8615 H   0  0  0  0  0  0
  -25.1284  -36.1911   25.0822 H   0  0  0  0  0  0
  -20.9975  -28.3282   24.1409 H   0  0  0  0  0  0
  -20.5719  -26.2309   23.3623 H   0  0  0  0  0  0
  -21.6651  -26.7475   22.1192 H   0  0  0  0  0  0
  -19.6928  -25.6306   21.1251 H   0  0  0  0  0  0
  -19.6689  -27.3203   20.6755 H   0  0  0  0  0  0
  -17.4214  -26.6692   21.4024 H   0  0  0  0  0  0
  -18.0322  -26.0073   22.9019 H   0  0  0  0  0  0
  -19.7934  -30.7291   24.2261 H   0  0  0  0  0  0
  -17.5006  -31.6263   24.5174 H   0  0  0  0  0  0
  -15.5352  -30.2989   23.7647 H   0  0  0  0  0  0
  -15.8680  -28.0825   22.7066 H   0  0  0  0  0  0
  -24.5901  -30.7044   25.7759 H   0  0  0  0  0  0
  -24.8903  -32.2873   26.4829 H   0  0  0  0  0  0
  -25.8026  -30.8897   27.0220 H   0  0  0  0  0  0
  -26.2938  -29.6704   24.1189 H   0  0  0  0  0  0
  -27.4029  -29.7206   25.4687 H   0  0  0  0  0  0
  -27.8812  -30.4224   23.9419 H   0  0  0  0  0  0
  -27.2669  -33.3592   26.2036 H   0  0  0  0  0  0
  -28.3880  -32.6818   25.0316 H   0  0  0  0  0  0
  -28.0709  -31.8414   26.5417 H   0  0  0  0  0  0
  -28.2573  -38.0120   24.7552 H   0  0  0  0  0  0
  -28.1116  -36.2656   24.6222 H   0  0  0  0  0  0
  -27.2318  -37.1355   25.8864 H   0  0  0  0  0  0
  -20.9429  -29.8719   21.6824 H   0  0  0  0  0  0
  -26.0164  -38.2839   24.1435 H   0  0  0  0  0  0
  -28.3547  -23.7142   19.1979 H   0  0  0  0  0  0
  -28.9653  -24.2290   24.0529 H   0  0  0  0  0  0
  -28.1538  -18.2933   20.5234 H   0  0  0  0  0  0
  -29.2662  -18.6077   19.2324 H   0  0  0  0  0  0
  -30.2437  -17.4675   21.9298 H   0  0  0  0  0  0
  -31.1430  -17.5013   20.4555 H   0  0  0  0  0  0
  -30.4877  -20.2790   20.8871 H   0  0  0  0  0  0
  -29.1744  -19.8850   21.9519 H   0  0  0  0  0  0
  -28.7981  -15.6454   20.8012 H   0  0  0  0  0  0
  1 25  1  0  0  0
  1 30  2  0  0  0
  1 80  1  0  0  0
  2  3  1  0  0  0
  2 25  1  0  0  0
  2 84  1  0  0  0
  2 85  1  0  0  0
  3  4  1  0  0  0
  3 86  1  0  0  0
  3 87  1  0  0  0
  4  5  1  0  0  0
  4 88  1  0  0  0
  4 89  1  0  0  0
  5  6  1  0  0  0
  5 26  1  0  0  0
  5 90  1  0  0  0
  6 25  1  0  0  0
  6 91  1  0  0  0
  6 92  1  0  0  0
  7  8  2  0  0  0
  7 26  1  0  0  0
  7 29  1  0  0  0
  8  9  1  0  0  0
  8 22  1  0  0  0
  9 10  1  0  0  0
  9 27  2  0  0  0
 10 11  2  0  0  0
 10 15  1  0  0  0
 11 12  1  0  0  0
 11 93  1  0  0  0
 12 13  2  0  0  0
 12 94  1  0  0  0
 13 14  1  0  0  0
 13 31  1  0  0  0
 14 15  2  0  0  0
 14 95  1  0  0  0
 15 96  1  0  0  0
 16 17  2  0  0  0
 16 21  1  0  0  0
 16 31  1  0  0  0
 17 18  1  0  0  0
 17 97  1  0  0  0
 18 19  2  0  0  0
 18 98  1  0  0  0
 19 20  1  0  0  0
 19 24  1  0  0  0
 20 21  2  0  0  0
 20 99  1  0  0  0
 21 23  1  0  0  0
 22 28  1  0  0  0
 22 32  2  0  0  0
 26 27  1  0  0  0
 28100  1  0  0  0
 28101  1  0  0  0
 29102  1  0  0  0
 29103  1  0  0  0
 33 34  1  0  0  0
 33 66  1  0  0  0
 33 70  2  0  0  0
 34 36  1  0  0  0
 34 59  1  0  0  0
 34104  1  0  0  0
 35 44  2  0  0  0
 35 45  1  0  0  0
 35 68  1  0  0  0
 36 56  1  0  0  0
 36105  1  0  0  0
 37 39  1  0  0  0
 37 47  1  0  0  0
 37 66  1  0  0  0
 37106  1  0  0  0
 38 43  2  0  0  0
 38 46  1  0  0  0
 38 47  1  0  0  0
 39 64  1  0  0  0
 39 67  2  0  0  0
 40 52  1  0  0  0
 40 53  2  0  0  0
 40 58  1  0  0  0
 41107  1  0  0  0
 41108  1  0  0  0
 41109  1  0  0  0
 41 48  1  0  0  0
 42 43  1  0  0  0
 42 66  1  0  0  0
 42110  1  0  0  0
 42111  1  0  0  0
 43 44  1  0  0  0
 44112  1  0  0  0
 45 46  2  0  0  0
 45113  1  0  0  0
 46114  1  0  0  0
 47115  1  0  0  0
 47116  1  0  0  0
 48 56  1  0  0  0
 48 65  1  0  0  0
 48117  1  0  0  0
 49 50  1  0  0  0
 49 53  1  0  0  0
 49 64  1  0  0  0
 49118  1  0  0  0
 50 51  1  0  0  0
 50119  1  0  0  0
 50120  1  0  0  0
 51 52  1  0  0  0
 51121  1  0  0  0
 51122  1  0  0  0
 52123  1  0  0  0
 52124  1  0  0  0
 53 54  1  0  0  0
 54 55  2  0  0  0
 54125  1  0  0  0
 55 57  1  0  0  0
 55126  1  0  0  0
 56 69  2  0  0  0
 57 58  2  0  0  0
 57127  1  0  0  0
 58128  1  0  0  0
 59 60  1  0  0  0
 59 61  1  0  0  0
 59 62  1  0  0  0
 60129  1  0  0  0
 60130  1  0  0  0
 60131  1  0  0  0
 61132  1  0  0  0
 61133  1  0  0  0
 61134  1  0  0  0
 62135  1  0  0  0
 62136  1  0  0  0
 62137  1  0  0  0
 63 65  1  0  0  0
 63138  1  0  0  0
 63139  1  0  0  0
 63140  1  0  0  0
 64141  1  0  0  0
 65142  1  0  0  0
 68 73  1  0  0  0
 71 73  2  0  0  0
 71 74  1  0  0  0
 71143  1  0  0  0
 72 75  2  0  0  0
 72 76  1  0  0  0
 72144  1  0  0  0
 73 75  1  0  0  0
 74 76  2  0  0  0
 74 81  1  0  0  0
 75 82  1  0  0  0
 76 83  1  0  0  0
 77 78  1  0  0  0
 77 79  1  0  0  0
 77145  1  0  0  0
 77146  1  0  0  0
 78 80  1  0  0  0
 78147  1  0  0  0
 78148  1  0  0  0
 79 81  1  0  0  0
 79149  1  0  0  0
 79150  1  0  0  0
 80151  1  0  0  0
M  ISO  4   1 100  68 101  73 101  80 100
M  END
> <chiral flag>
0

> <version>
0

> <s_m_source_file>
/data/baiqing/PycharmProjects/Reinvent-master-3.2/result/LINK_invent/BTK/process_docking_weight1_custom_sum_contain_oxygen_bond_distance_aromatic_linkinvent_7_9_3/rearranged_h_0028.sdf

> <i_m_source_file_index>
75

> <r_mmod_Potential_Energy-OPLS-2005>
194.799896240234

> <r_mmod_Stretch_Energy-OPLS-2005>
133.584487915039

> <r_mmod_Bend_Energy-OPLS-2005>
188.475280761719

> <r_mmod_Torsional_Energy-OPLS-2005>
218.783401489258

> <r_mmod_Improper_Torsional_Energy-OPLS-2005>
5.12865924835205

> <r_mmod_Van_der_Waal_Energy-OPLS-2005>
138.902359008789

> <r_mmod_Electrostatic_Energy-OPLS-2005>
-362.165649414062

> <r_mmod_Solvation_Energy-OPLS-2005>
-211.336090087891

> <b_mmod_Minimization_Converged-OPLS-2005>
0

> <r_mmod_RMS_Derivative-OPLS-2005>
1.52687704563141

$$$$
75
                    3D
 Structure written by MMmdl.
150158  0  0  1  0            999 V2000
  -30.5862  -14.8909   20.4480 C   0  0  0  0  0  0
  -30.4361  -12.5754   19.4481 C   0  0  0  0  0  0
  -29.4882  -12.4926   18.2236 C   0  0  0  0  0  0
  -28.0372  -12.2695   18.6739 C   0  0  0  0  0  0
  -27.6198  -13.2346   19.8119 C   0  0  2  0  0  0
  -28.6748  -13.2932   20.9403 C   0  0  0  0  0  0
  -25.2491  -13.8256   20.5773 C   0  0  0  0  0  0
  -24.1784  -13.0452   20.9224 C   0  0  0  0  0  0
  -24.6350  -11.6954   20.8780 C   0  0  0  0  0  0
  -23.9053  -10.4300   21.0425 C   0  0  0  0  0  0
  -24.3589   -9.4217   21.9196 C   0  0  0  0  0  0
  -23.6274   -8.2251   22.0778 C   0  0  0  0  0  0
  -22.4283   -8.0272   21.3567 C   0  0  0  0  0  0
  -21.9875   -9.0260   20.4677 C   0  0  0  0  0  0
  -22.7205  -10.2135   20.3073 C   0  0  0  0  0  0
  -21.6821   -6.0708   22.5290 C   0  0  0  0  0  0
  -21.4034   -6.5639   23.8220 C   0  0  0  0  0  0
  -21.3634   -5.6790   24.9172 C   0  0  0  0  0  0
  -21.6069   -4.3064   24.7230 C   0  0  0  0  0  0
  -21.8796   -3.8133   23.4352 C   0  0  0  0  0  0
  -21.9216   -4.6947   22.3400 C   0  0  0  0  0  0
  -22.7774  -13.5231   21.1871 C   0  0  0  0  0  0
  -22.1669   -4.2141   21.0965 F   0  0  0  0  0  0
  -21.5624   -3.4530   25.7729 F   0  0  0  0  0  0
  -29.9490  -13.6673   20.3316 N   0  0  0  0  0  0
  -26.2855  -12.9409   20.3192 N   0  0  0  0  0  0
  -25.9286  -11.6603   20.5781 N   0  0  0  0  0  0
  -22.0415  -12.8267   22.0429 N   0  0  0  0  0  0
  -25.4190  -15.1926   20.4278 N   0  0  0  0  0  0
  -31.8065  -14.9282   20.2683 O   0  0  0  0  0  0
  -21.6644   -6.8864   21.4264 O   0  0  0  0  0  0
  -22.3483  -14.5530   20.6678 O   0  0  0  0  0  0
  -24.6442  -31.8464   23.1899 C   0  0  0  0  0  0
  -25.9226  -32.4725   23.8299 C   0  0  1  0  0  0
  -27.2460  -27.1847   20.2006 C   0  0  0  0  0  0
  -25.6005  -33.8524   24.2266 N   0  0  0  0  0  0
  -23.4445  -30.4670   21.5330 C   0  0  2  0  0  0
  -24.9017  -28.8904   20.1257 C   0  0  0  0  0  0
  -22.7540  -29.4615   22.4929 C   0  0  0  0  0  0
  -18.0299  -28.1391   22.8502 C   0  0  0  0  0  0
  -24.1471  -36.7212   23.2635 C   0  0  0  0  0  0
  -25.9916  -30.7488   21.3696 C   0  0  0  0  0  0
  -26.0779  -29.3590   20.7285 C   0  0  0  0  0  0
  -27.2548  -28.5316   20.7306 C   0  0  0  0  0  0
  -26.0416  -26.7907   19.5742 C   0  0  0  0  0  0
  -24.8892  -27.6110   19.5435 C   0  0  0  0  0  0
  -23.6713  -29.7854   20.1578 C   0  0  0  0  0  0
  -25.4109  -36.3034   24.0345 C   0  0  1  0  0  0
  -20.5912  -28.3727   23.1227 C   0  0  2  0  0  0
  -20.6792  -26.9436   22.5406 C   0  0  0  0  0  0
  -19.5748  -26.6405   21.5199 C   0  0  0  0  0  0
  -18.1936  -26.7951   22.1608 C   0  0  0  0  0  0
  -19.1551  -28.8882   23.2866 C   0  0  0  0  0  0
  -18.9461  -30.1473   23.8901 C   0  0  0  0  0  0
  -17.6454  -30.6596   24.0574 C   0  0  0  0  0  0
  -25.9061  -34.9442   23.5100 C   0  0  0  0  0  0
  -16.5359  -29.9086   23.6317 C   0  0  0  0  0  0
  -16.7278  -28.6488   23.0381 C   0  0  0  0  0  0
  -26.4574  -31.6569   25.0722 C   0  0  0  0  0  0
  -25.3819  -31.3735   26.1465 C   0  0  0  0  0  0
  -27.0456  -30.2986   24.6250 C   0  0  0  0  0  0
  -27.6111  -32.4334   25.7523 C   0  0  0  0  0  0
  -27.5563  -37.1767   24.8485 C   0  0  0  0  0  0
  -21.4245  -29.3066   22.3616 N   0  0  0  0  0  0
  -26.4269  -37.3747   23.9447 N   0  0  0  0  0  0
  -24.7117  -31.0424   22.0864 N   0  0  0  0  0  0
  -23.4197  -28.8176   23.3097 O   0  0  0  0  0  0
  -28.3587  -26.2836   20.2435 O   0  0  0  0  0  0
  -26.5581  -34.8911   22.4643 O   0  0  0  0  0  0
  -23.5570  -32.1333   23.7175 O   0  0  0  0  0  0
  -30.7670  -21.4141   20.5734 C   0  0  0  0  0  0
  -28.6594  -19.6490   20.8028 C   0  0  0  0  0  0
  -29.4868  -22.0571   20.5370 C   0  0  0  0  0  0
  -29.9523  -19.0171   20.8057 C   0  0  0  0  0  0
  -28.4275  -21.0935   20.6682 C   0  0  0  0  0  0
  -30.9967  -19.9958   20.7090 C   0  0  0  0  0  0
  -29.4057  -23.6771   20.2554 C   0  0  0  0  0  0
  -30.2667  -17.4440   21.2129 C   0  0  0  0  0  0
  -28.2191  -24.7863   20.5958 C   0  0  0  0  0  0
  -29.8468  -16.0855   20.5916 N   0  0  0  0  0  0
  -26.7967  -21.6616   20.7066 Cl  0  0  0  0  0  0
  -32.6491  -19.4932   20.8229 Cl  0  0  0  0  0  0
  -31.4574  -12.7428   19.1002 H   0  0  0  0  0  0
  -30.4450  -11.6317   20.0010 H   0  0  0  0  0  0
  -29.7995  -11.6841   17.5580 H   0  0  0  0  0  0
  -29.5507  -13.4086   17.6292 H   0  0  0  0  0  0
  -27.9644  -11.2404   19.0265 H   0  0  0  0  0  0
  -27.3507  -12.3514   17.8275 H   0  0  0  0  0  0
  -27.5698  -14.2193   19.3503 H   0  0  0  0  0  0
  -28.7726  -12.3385   21.4608 H   0  0  0  0  0  0
  -28.3792  -14.0393   21.6796 H   0  0  0  0  0  0
  -25.2711   -9.5694   22.4786 H   0  0  0  0  0  0
  -23.9987   -7.4639   22.7474 H   0  0  0  0  0  0
  -21.0796   -8.8761   19.8963 H   0  0  0  0  0  0
  -22.3647  -10.9689   19.6184 H   0  0  0  0  0  0
  -21.2022   -7.6148   23.9718 H   0  0  0  0  0  0
  -21.1476   -6.0517   25.9083 H   0  0  0  0  0  0
  -22.0591   -2.7598   23.2846 H   0  0  0  0  0  0
  -22.4065  -11.9928   22.4815 H   0  0  0  0  0  0
  -21.1033  -13.1332   22.2671 H   0  0  0  0  0  0
  -24.6575  -15.8488   20.5634 H   0  0  0  0  0  0
  -26.2803  -15.6415   20.1503 H   0  0  0  0  0  0
  -26.7347  -32.5370   23.1084 H   0  0  0  0  0  0
  -25.0316  -33.9634   25.0522 H   0  0  0  0  0  0
  -22.7473  -31.2951   21.3767 H   0  0  0  0  0  0
  -23.3751  -35.9512   23.3289 H   0  0  0  0  0  0
  -24.3564  -36.8800   22.2042 H   0  0  0  0  0  0
  -23.7188  -37.6417   23.6614 H   0  0  0  0  0  0
  -26.1279  -31.5040   20.5939 H   0  0  0  0  0  0
  -26.8658  -30.8113   22.0026 H   0  0  0  0  0  0
  -28.1527  -28.8989   21.2100 H   0  0  0  0  0  0
  -25.9723  -25.8028   19.1363 H   0  0  0  0  0  0
  -23.9819  -27.2330   19.0855 H   0  0  0  0  0  0
  -23.8025  -30.5548   19.3948 H   0  0  0  0  0  0
  -22.7811  -29.2278   19.8556 H   0  0  0  0  0  0
  -25.1280  -36.1864   25.0829 H   0  0  0  0  0  0
  -21.0022  -28.3287   24.1337 H   0  0  0  0  0  0
  -20.5648  -26.2341   23.3630 H   0  0  0  0  0  0
  -21.6668  -26.7442   22.1195 H   0  0  0  0  0  0
  -19.6904  -25.6299   21.1275 H   0  0  0  0  0  0
  -19.6676  -27.3197   20.6716 H   0  0  0  0  0  0
  -17.4220  -26.6743   21.3983 H   0  0  0  0  0  0
  -18.0278  -26.0075   22.8955 H   0  0  0  0  0  0
  -19.7937  -30.7275   24.2293 H   0  0  0  0  0  0
  -17.5013  -31.6266   24.5191 H   0  0  0  0  0  0
  -15.5359  -30.2999   23.7640 H   0  0  0  0  0  0
  -15.8678  -28.0796   22.7126 H   0  0  0  0  0  0
  -24.6000  -30.7046   25.7833 H   0  0  0  0  0  0
  -24.9014  -32.2913   26.4861 H   0  0  0  0  0  0
  -25.8184  -30.8972   27.0261 H   0  0  0  0  0  0
  -26.3064  -29.6709   24.1254 H   0  0  0  0  0  0
  -27.4113  -29.7270   25.4793 H   0  0  0  0  0  0
  -27.8942  -30.4252   23.9529 H   0  0  0  0  0  0
  -27.2686  -33.3622   26.2088 H   0  0  0  0  0  0
  -28.3941  -32.6922   25.0388 H   0  0  0  0  0  0
  -28.0778  -31.8500   26.5465 H   0  0  0  0  0  0
  -28.2625  -38.0004   24.7517 H   0  0  0  0  0  0
  -28.1008  -36.2580   24.6334 H   0  0  0  0  0  0
  -27.2303  -37.1457   25.8879 H   0  0  0  0  0  0
  -20.9435  -29.8706   21.6746 H   0  0  0  0  0  0
  -26.0142  -38.2815   24.1411 H   0  0  0  0  0  0
  -31.6385  -22.0557   20.5146 H   0  0  0  0  0  0
  -27.7918  -19.0172   20.9576 H   0  0  0  0  0  0
  -29.5652  -23.7572   19.1788 H   0  0  0  0  0  0
  -30.3070  -24.0834   20.7246 H   0  0  0  0  0  0
  -29.7315  -17.3742   22.1578 H   0  0  0  0  0  0
  -31.3208  -17.3437   21.4834 H   0  0  0  0  0  0
  -27.2978  -24.4074   20.1677 H   0  0  0  0  0  0
  -28.0951  -24.7705   21.6817 H   0  0  0  0  0  0
  -28.8428  -15.9410   20.5439 H   0  0  0  0  0  0
  1 25  1  0  0  0
  1 30  2  0  0  0
  1 80  1  0  0  0
  2  3  1  0  0  0
  2 25  1  0  0  0
  2 83  1  0  0  0
  2 84  1  0  0  0
  3  4  1  0  0  0
  3 85  1  0  0  0
  3 86  1  0  0  0
  4  5  1  0  0  0
  4 87  1  0  0  0
  4 88  1  0  0  0
  5  6  1  0  0  0
  5 26  1  0  0  0
  5 89  1  0  0  0
  6 25  1  0  0  0
  6 90  1  0  0  0
  6 91  1  0  0  0
  7  8  2  0  0  0
  7 26  1  0  0  0
  7 29  1  0  0  0
  8  9  1  0  0  0
  8 22  1  0  0  0
  9 10  1  0  0  0
  9 27  2  0  0  0
 10 11  2  0  0  0
 10 15  1  0  0  0
 11 12  1  0  0  0
 11 92  1  0  0  0
 12 13  2  0  0  0
 12 93  1  0  0  0
 13 14  1  0  0  0
 13 31  1  0  0  0
 14 15  2  0  0  0
 14 94  1  0  0  0
 15 95  1  0  0  0
 16 17  2  0  0  0
 16 21  1  0  0  0
 16 31  1  0  0  0
 17 18  1  0  0  0
 17 96  1  0  0  0
 18 19  2  0  0  0
 18 97  1  0  0  0
 19 20  1  0  0  0
 19 24  1  0  0  0
 20 21  2  0  0  0
 20 98  1  0  0  0
 21 23  1  0  0  0
 22 28  1  0  0  0
 22 32  2  0  0  0
 26 27  1  0  0  0
 28 99  1  0  0  0
 28100  1  0  0  0
 29101  1  0  0  0
 29102  1  0  0  0
 33 34  1  0  0  0
 33 66  1  0  0  0
 33 70  2  0  0  0
 34 36  1  0  0  0
 34 59  1  0  0  0
 34103  1  0  0  0
 35 44  2  0  0  0
 35 45  1  0  0  0
 35 68  1  0  0  0
 36 56  1  0  0  0
 36104  1  0  0  0
 37 39  1  0  0  0
 37 47  1  0  0  0
 37 66  1  0  0  0
 37105  1  0  0  0
 38 43  2  0  0  0
 38 46  1  0  0  0
 38 47  1  0  0  0
 39 64  1  0  0  0
 39 67  2  0  0  0
 40 52  1  0  0  0
 40 53  2  0  0  0
 40 58  1  0  0  0
 41106  1  0  0  0
 41107  1  0  0  0
 41108  1  0  0  0
 41 48  1  0  0  0
 42 43  1  0  0  0
 42 66  1  0  0  0
 42109  1  0  0  0
 42110  1  0  0  0
 43 44  1  0  0  0
 44111  1  0  0  0
 45 46  2  0  0  0
 45112  1  0  0  0
 46113  1  0  0  0
 47114  1  0  0  0
 47115  1  0  0  0
 48 56  1  0  0  0
 48 65  1  0  0  0
 48116  1  0  0  0
 49 50  1  0  0  0
 49 53  1  0  0  0
 49 64  1  0  0  0
 49117  1  0  0  0
 50 51  1  0  0  0
 50118  1  0  0  0
 50119  1  0  0  0
 51 52  1  0  0  0
 51120  1  0  0  0
 51121  1  0  0  0
 52122  1  0  0  0
 52123  1  0  0  0
 53 54  1  0  0  0
 54 55  2  0  0  0
 54124  1  0  0  0
 55 57  1  0  0  0
 55125  1  0  0  0
 56 69  2  0  0  0
 57 58  2  0  0  0
 57126  1  0  0  0
 58127  1  0  0  0
 59 60  1  0  0  0
 59 61  1  0  0  0
 59 62  1  0  0  0
 60128  1  0  0  0
 60129  1  0  0  0
 60130  1  0  0  0
 61131  1  0  0  0
 61132  1  0  0  0
 61133  1  0  0  0
 62134  1  0  0  0
 62135  1  0  0  0
 62136  1  0  0  0
 63 65  1  0  0  0
 63137  1  0  0  0
 63138  1  0  0  0
 63139  1  0  0  0
 64140  1  0  0  0
 65141  1  0  0  0
 68 79  1  0  0  0
 71 73  2  0  0  0
 71 76  1  0  0  0
 71142  1  0  0  0
 72 74  1  0  0  0
 72 75  2  0  0  0
 72143  1  0  0  0
 73 75  1  0  0  0
 73 77  1  0  0  0
 74 76  2  0  0  0
 74 78  1  0  0  0
 75 81  1  0  0  0
 76 82  1  0  0  0
 77 79  1  0  0  0
 77144  1  0  0  0
 77145  1  0  0  0
 78 80  1  0  0  0
 78146  1  0  0  0
 78147  1  0  0  0
 79148  1  0  0  0
 79149  1  0  0  0
 80150  1  0  0  0
M  ISO  4   1 100  68 101  79 101  80 100
M  END
> <chiral flag>
0

> <version>
0

> <s_m_source_file>
/data/baiqing/PycharmProjects/Reinvent-master-3.2/result/LINK_invent/BTK/process_docking_weight1_custom_sum_contain_oxygen_bond_distance_aromatic_linkinvent_7_9_3/rearranged_h_0028.sdf

> <i_m_source_file_index>
76

> <r_mmod_Potential_Energy-OPLS-2005>
374.754852294922

> <r_mmod_Stretch_Energy-OPLS-2005>
199.72770690918

> <r_mmod_Bend_Energy-OPLS-2005>
256.817016601562

> <r_mmod_Torsional_Energy-OPLS-2005>
230.235488891602

> <r_mmod_Improper_Torsional_Energy-OPLS-2005>
6.81293201446533

> <r_mmod_Van_der_Waal_Energy-OPLS-2005>
129.319915771484

> <r_mmod_Electrostatic_Energy-OPLS-2005>
-391.130706787109

> <r_mmod_Solvation_Energy-OPLS-2005>
-215.869079589844

> <b_mmod_Minimization_Converged-OPLS-2005>
0

> <r_mmod_RMS_Derivative-OPLS-2005>
12.9325256347656

$$$$
76
                    3D
 Structure written by MMmdl.
160167  0  0  1  0            999 V2000
  -30.8744  -14.2235   20.7768 C   0  0  0  0  0  0
  -30.4009  -12.2748   19.3594 C   0  0  0  0  0  0
  -29.4634  -12.5379   18.1744 C   0  0  0  0  0  0
  -27.9982  -12.3789   18.6088 C   0  0  0  0  0  0
  -27.6673  -13.2042   19.8781 C   0  0  2  0  0  0
  -28.7084  -12.9643   20.9942 C   0  0  0  0  0  0
  -25.2617  -13.8170   20.5686 C   0  0  0  0  0  0
  -24.1853  -13.0451   20.9150 C   0  0  0  0  0  0
  -24.6393  -11.6913   20.8714 C   0  0  0  0  0  0
  -23.9058  -10.4301   21.0390 C   0  0  0  0  0  0
  -24.3611   -9.4223   21.9179 C   0  0  0  0  0  0
  -23.6287   -8.2258   22.0764 C   0  0  0  0  0  0
  -22.4270   -8.0288   21.3555 C   0  0  0  0  0  0
  -21.9902   -9.0257   20.4655 C   0  0  0  0  0  0
  -22.7225  -10.2137   20.3050 C   0  0  0  0  0  0
  -21.6854   -6.0746   22.5291 C   0  0  0  0  0  0
  -21.4012   -6.5647   23.8223 C   0  0  0  0  0  0
  -21.3653   -5.6801   24.9182 C   0  0  0  0  0  0
  -21.6035   -4.3062   24.7230 C   0  0  0  0  0  0
  -21.8813   -3.8153   23.4354 C   0  0  0  0  0  0
  -21.9192   -4.6971   22.3412 C   0  0  0  0  0  0
  -22.7876  -13.5259   21.1812 C   0  0  0  0  0  0
  -22.1663   -4.2154   21.0987 F   0  0  0  0  0  0
  -21.5617   -3.4542   25.7744 F   0  0  0  0  0  0
  -30.0607  -13.1932   20.4524 N   0  0  0  0  0  0
  -26.3063  -12.9341   20.3403 N   0  0  0  0  0  0
  -25.9327  -11.6496   20.5768 N   0  0  0  0  0  0
  -22.0505  -12.8268   22.0369 N   0  0  0  0  0  0
  -25.4348  -15.1889   20.4098 N   0  0  0  0  0  0
  -31.7588  -14.6558   20.0316 O   0  0  0  0  0  0
  -21.6644   -6.8885   21.4251 O   0  0  0  0  0  0
  -22.3567  -14.5569   20.6664 O   0  0  0  0  0  0
  -24.6102  -31.8709   23.2127 C   0  0  0  0  0  0
  -25.9021  -32.4828   23.8403 C   0  0  1  0  0  0
  -27.2384  -27.4719   20.0693 C   0  0  0  0  0  0
  -25.5905  -33.8627   24.2348 N   0  0  0  0  0  0
  -23.3937  -30.4955   21.5527 C   0  0  2  0  0  0
  -24.8367  -28.9627   20.1156 C   0  0  0  0  0  0
  -22.7369  -29.4684   22.5014 C   0  0  0  0  0  0
  -18.0264  -28.1383   22.8488 C   0  0  0  0  0  0
  -24.1490  -36.7310   23.2640 C   0  0  0  0  0  0
  -25.9183  -30.8441   21.3597 C   0  0  0  0  0  0
  -25.9926  -29.4807   20.7088 C   0  0  0  0  0  0
  -27.1894  -28.7384   20.6878 C   0  0  0  0  0  0
  -26.0548  -26.9501   19.4908 C   0  0  0  0  0  0
  -24.8607  -27.6943   19.5112 C   0  0  0  0  0  0
  -23.5974  -29.8255   20.1670 C   0  0  0  0  0  0
  -25.4106  -36.3112   24.0345 C   0  0  1  0  0  0
  -20.5851  -28.3661   23.1326 C   0  0  2  0  0  0
  -20.6760  -26.9401   22.5415 C   0  0  0  0  0  0
  -19.5743  -26.6390   21.5206 C   0  0  0  0  0  0
  -18.1918  -26.7935   22.1609 C   0  0  0  0  0  0
  -19.1511  -28.8835   23.2911 C   0  0  0  0  0  0
  -18.9446  -30.1446   23.8914 C   0  0  0  0  0  0
  -17.6449  -30.6589   24.0568 C   0  0  0  0  0  0
  -25.9029  -34.9478   23.5138 C   0  0  0  0  0  0
  -16.5340  -29.9092   23.6333 C   0  0  0  0  0  0
  -16.7254  -28.6514   23.0343 C   0  0  0  0  0  0
  -26.4475  -31.6592   25.0711 C   0  0  0  0  0  0
  -25.3761  -31.3654   26.1469 C   0  0  0  0  0  0
  -27.0317  -30.3054   24.6039 C   0  0  0  0  0  0
  -27.6053  -32.4314   25.7471 C   0  0  0  0  0  0
  -27.5587  -37.1806   24.8469 C   0  0  0  0  0  0
  -21.4105  -29.3038   22.3743 N   0  0  0  0  0  0
  -26.4294  -37.3794   23.9419 N   0  0  0  0  0  0
  -24.6594  -31.0839   22.1008 N   0  0  0  0  0  0
  -23.4164  -28.8228   23.3037 O   0  0  0  0  0  0
  -28.4608  -26.8402   20.0803 O   0  0  0  0  0  0
  -26.5576  -34.8926   22.4688 O   0  0  0  0  0  0
  -23.5308  -32.1450   23.7547 O   0  0  0  0  0  0
  -28.9413  -24.6029   20.6303 C   0  0  0  0  0  0
  -29.7206  -23.3463   20.2435 C   0  0  0  0  0  0
  -29.5841  -22.2000   21.2568 C   0  0  0  0  0  0
  -30.5721  -21.0700   20.9663 C   0  0  0  0  0  0
  -30.3559  -19.8770   21.8981 C   0  0  0  0  0  0
  -31.4702  -18.8407   21.7599 C   0  0  0  0  0  0
  -31.1324  -17.5384   22.4876 C   0  0  0  0  0  0
  -32.3013  -16.5496   22.4362 C   0  0  0  0  0  0
  -31.9181  -15.1244   22.8669 C   0  0  0  0  0  0
  -28.6769  -25.6214   19.5125 C   0  0  2  0  0  0
  -30.8373  -14.5241   22.0813 N   0  0  0  0  0  0
  -28.5420  -24.7829   21.7890 O   0  0  0  0  0  0
  -29.7533  -25.7065   18.6881 F   0  0  0  0  0  0
  -31.4420  -12.3703   19.0444 H   0  0  0  0  0  0
  -30.2928  -11.2463   19.7069 H   0  0  0  0  0  0
  -29.6875  -11.8524   17.3558 H   0  0  0  0  0  0
  -29.6292  -13.5450   17.7882 H   0  0  0  0  0  0
  -27.8160  -11.3194   18.7948 H   0  0  0  0  0  0
  -27.3329  -12.6635   17.7932 H   0  0  0  0  0  0
  -27.7243  -14.2566   19.5971 H   0  0  0  0  0  0
  -28.6426  -11.9410   21.3669 H   0  0  0  0  0  0
  -28.4783  -13.6125   21.8405 H   0  0  0  0  0  0
  -25.2752   -9.5711   22.4748 H   0  0  0  0  0  0
  -23.9998   -7.4667   22.7497 H   0  0  0  0  0  0
  -21.0825   -8.8767   19.8970 H   0  0  0  0  0  0
  -22.3678  -10.9668   19.6157 H   0  0  0  0  0  0
  -21.2008   -7.6157   23.9726 H   0  0  0  0  0  0
  -21.1470   -6.0533   25.9084 H   0  0  0  0  0  0
  -22.0588   -2.7616   23.2858 H   0  0  0  0  0  0
  -22.4108  -11.9929   22.4771 H   0  0  0  0  0  0
  -21.1130  -13.1317   22.2567 H   0  0  0  0  0  0
  -24.6726  -15.8486   20.5233 H   0  0  0  0  0  0
  -26.2990  -15.6286   20.1157 H   0  0  0  0  0  0
  -26.7083  -32.5550   23.1162 H   0  0  0  0  0  0
  -25.0118  -33.9800   25.0536 H   0  0  0  0  0  0
  -22.6809  -31.3113   21.4151 H   0  0  0  0  0  0
  -23.3758  -35.9638   23.3294 H   0  0  0  0  0  0
  -24.3591  -36.8924   22.2058 H   0  0  0  0  0  0
  -23.7239  -37.6509   23.6657 H   0  0  0  0  0  0
  -26.0238  -31.6098   20.5899 H   0  0  0  0  0  0
  -26.8096  -30.8989   21.9732 H   0  0  0  0  0  0
  -28.0866  -29.1399   21.1381 H   0  0  0  0  0  0
  -26.0112  -25.9836   19.0145 H   0  0  0  0  0  0
  -23.9669  -27.2888   19.0577 H   0  0  0  0  0  0
  -23.6994  -30.5997   19.4060 H   0  0  0  0  0  0
  -22.7219  -29.2427   19.8741 H   0  0  0  0  0  0
  -25.1281  -36.1971   25.0839 H   0  0  0  0  0  0
  -20.9934  -28.3226   24.1449 H   0  0  0  0  0  0
  -20.5667  -26.2262   23.3596 H   0  0  0  0  0  0
  -21.6635  -26.7462   22.1198 H   0  0  0  0  0  0
  -19.6905  -25.6302   21.1229 H   0  0  0  0  0  0
  -19.6699  -27.3211   20.6745 H   0  0  0  0  0  0
  -17.4189  -26.6686   21.4012 H   0  0  0  0  0  0
  -18.0321  -26.0071   22.8995 H   0  0  0  0  0  0
  -19.7921  -30.7265   24.2284 H   0  0  0  0  0  0
  -17.5004  -31.6274   24.5166 H   0  0  0  0  0  0
  -15.5342  -30.2999   23.7670 H   0  0  0  0  0  0
  -15.8647  -28.0854   22.7038 H   0  0  0  0  0  0
  -24.5972  -30.6955   25.7814 H   0  0  0  0  0  0
  -24.8911  -32.2778   26.4936 H   0  0  0  0  0  0
  -25.8149  -30.8833   27.0211 H   0  0  0  0  0  0
  -26.2838  -29.6786   24.1166 H   0  0  0  0  0  0
  -27.4204  -29.7312   25.4459 H   0  0  0  0  0  0
  -27.8617  -30.4404   23.9098 H   0  0  0  0  0  0
  -27.2679  -33.3615   26.2059 H   0  0  0  0  0  0
  -28.3864  -32.6869   25.0296 H   0  0  0  0  0  0
  -28.0718  -31.8425   26.5378 H   0  0  0  0  0  0
  -28.2590  -38.0122   24.7540 H   0  0  0  0  0  0
  -28.1106  -36.2651   24.6268 H   0  0  0  0  0  0
  -27.2308  -37.1409   25.8874 H   0  0  0  0  0  0
  -20.9252  -29.8756   21.6965 H   0  0  0  0  0  0
  -26.0182  -38.2869   24.1426 H   0  0  0  0  0  0
  -30.7680  -23.6344   20.1522 H   0  0  0  0  0  0
  -29.3982  -23.0195   19.2544 H   0  0  0  0  0  0
  -28.5621  -21.8175   21.2357 H   0  0  0  0  0  0
  -29.7592  -22.5633   22.2711 H   0  0  0  0  0  0
  -31.5907  -21.4466   21.0760 H   0  0  0  0  0  0
  -30.4727  -20.7435   19.9296 H   0  0  0  0  0  0
  -29.3905  -19.4211   21.6737 H   0  0  0  0  0  0
  -30.3071  -20.2117   22.9355 H   0  0  0  0  0  0
  -32.4026  -19.2562   22.1462 H   0  0  0  0  0  0
  -31.6415  -18.6244   20.7039 H   0  0  0  0  0  0
  -30.2457  -17.1046   22.0242 H   0  0  0  0  0  0
  -30.8707  -17.7381   23.5276 H   0  0  0  0  0  0
  -33.1063  -16.9122   23.0768 H   0  0  0  0  0  0
  -32.7247  -16.5309   21.4319 H   0  0  0  0  0  0
  -31.6139  -15.1297   23.9143 H   0  0  0  0  0  0
  -32.7954  -14.4773   22.8112 H   0  0  0  0  0  0
  -27.8400  -25.2651   18.9220 H   0  0  0  0  0  0
  -30.1038  -14.0695   22.6060 H   0  0  0  0  0  0
  1 25  1  0  0  0
  1 30  2  0  0  0
  1 81  1  0  0  0
  2  3  1  0  0  0
  2 25  1  0  0  0
  2 84  1  0  0  0
  2 85  1  0  0  0
  3  4  1  0  0  0
  3 86  1  0  0  0
  3 87  1  0  0  0
  4  5  1  0  0  0
  4 88  1  0  0  0
  4 89  1  0  0  0
  5  6  1  0  0  0
  5 26  1  0  0  0
  5 90  1  0  0  0
  6 25  1  0  0  0
  6 91  1  0  0  0
  6 92  1  0  0  0
  7  8  2  0  0  0
  7 26  1  0  0  0
  7 29  1  0  0  0
  8  9  1  0  0  0
  8 22  1  0  0  0
  9 10  1  0  0  0
  9 27  2  0  0  0
 10 11  2  0  0  0
 10 15  1  0  0  0
 11 12  1  0  0  0
 11 93  1  0  0  0
 12 13  2  0  0  0
 12 94  1  0  0  0
 13 14  1  0  0  0
 13 31  1  0  0  0
 14 15  2  0  0  0
 14 95  1  0  0  0
 15 96  1  0  0  0
 16 17  2  0  0  0
 16 21  1  0  0  0
 16 31  1  0  0  0
 17 18  1  0  0  0
 17 97  1  0  0  0
 18 19  2  0  0  0
 18 98  1  0  0  0
 19 20  1  0  0  0
 19 24  1  0  0  0
 20 21  2  0  0  0
 20 99  1  0  0  0
 21 23  1  0  0  0
 22 28  1  0  0  0
 22 32  2  0  0  0
 26 27  1  0  0  0
 28100  1  0  0  0
 28101  1  0  0  0
 29102  1  0  0  0
 29103  1  0  0  0
 33 34  1  0  0  0
 33 66  1  0  0  0
 33 70  2  0  0  0
 34 36  1  0  0  0
 34 59  1  0  0  0
 34104  1  0  0  0
 35 44  2  0  0  0
 35 45  1  0  0  0
 35 68  1  0  0  0
 36 56  1  0  0  0
 36105  1  0  0  0
 37 39  1  0  0  0
 37 47  1  0  0  0
 37 66  1  0  0  0
 37106  1  0  0  0
 38 43  2  0  0  0
 38 46  1  0  0  0
 38 47  1  0  0  0
 39 64  1  0  0  0
 39 67  2  0  0  0
 40 52  1  0  0  0
 40 53  2  0  0  0
 40 58  1  0  0  0
 41107  1  0  0  0
 41108  1  0  0  0
 41109  1  0  0  0
 41 48  1  0  0  0
 42 43  1  0  0  0
 42 66  1  0  0  0
 42110  1  0  0  0
 42111  1  0  0  0
 43 44  1  0  0  0
 44112  1  0  0  0
 45 46  2  0  0  0
 45113  1  0  0  0
 46114  1  0  0  0
 47115  1  0  0  0
 47116  1  0  0  0
 48 56  1  0  0  0
 48 65  1  0  0  0
 48117  1  0  0  0
 49 50  1  0  0  0
 49 53  1  0  0  0
 49 64  1  0  0  0
 49118  1  0  0  0
 50 51  1  0  0  0
 50119  1  0  0  0
 50120  1  0  0  0
 51 52  1  0  0  0
 51121  1  0  0  0
 51122  1  0  0  0
 52123  1  0  0  0
 52124  1  0  0  0
 53 54  1  0  0  0
 54 55  2  0  0  0
 54125  1  0  0  0
 55 57  1  0  0  0
 55126  1  0  0  0
 56 69  2  0  0  0
 57 58  2  0  0  0
 57127  1  0  0  0
 58128  1  0  0  0
 59 60  1  0  0  0
 59 61  1  0  0  0
 59 62  1  0  0  0
 60129  1  0  0  0
 60130  1  0  0  0
 60131  1  0  0  0
 61132  1  0  0  0
 61133  1  0  0  0
 61134  1  0  0  0
 62135  1  0  0  0
 62136  1  0  0  0
 62137  1  0  0  0
 63 65  1  0  0  0
 63138  1  0  0  0
 63139  1  0  0  0
 63140  1  0  0  0
 64141  1  0  0  0
 65142  1  0  0  0
 68 80  1  0  0  0
 71 72  1  0  0  0
 71 80  1  0  0  0
 71 82  2  0  0  0
 72 73  1  0  0  0
 72143  1  0  0  0
 72144  1  0  0  0
 73 74  1  0  0  0
 73145  1  0  0  0
 73146  1  0  0  0
 74 75  1  0  0  0
 74147  1  0  0  0
 74148  1  0  0  0
 75 76  1  0  0  0
 75149  1  0  0  0
 75150  1  0  0  0
 76 77  1  0  0  0
 76151  1  0  0  0
 76152  1  0  0  0
 77 78  1  0  0  0
 77153  1  0  0  0
 77154  1  0  0  0
 78 79  1  0  0  0
 78155  1  0  0  0
 78156  1  0  0  0
 79 81  1  0  0  0
 79157  1  0  0  0
 79158  1  0  0  0
 80 83  1  0  0  0
 80159  1  0  0  0
 81160  1  0  0  0
M  ISO  4   1 100  68 101  80 101  81 100
M  END
> <chiral flag>
0

> <version>
0

> <s_m_source_file>
/data/baiqing/PycharmProjects/Reinvent-master-3.2/result/LINK_invent/BTK/process_docking_weight1_custom_sum_contain_oxygen_bond_distance_aromatic_linkinvent_7_9_3/rearranged_h_0028.sdf

> <i_m_source_file_index>
77

> <r_mmod_Potential_Energy-OPLS-2005>
-16.8661460876465

> <r_mmod_Stretch_Energy-OPLS-2005>
29.1634654998779

> <r_mmod_Bend_Energy-OPLS-2005>
95.9226989746094

> <r_mmod_Torsional_Energy-OPLS-2005>
202.805419921875

> <r_mmod_Improper_Torsional_Energy-OPLS-2005>
7.29250717163086

> <r_mmod_Van_der_Waal_Energy-OPLS-2005>
138.603622436523

> <r_mmod_Electrostatic_Energy-OPLS-2005>
-293.273101806641

> <r_mmod_Solvation_Energy-OPLS-2005>
-210.295349121094

> <b_mmod_Minimization_Converged-OPLS-2005>
0

> <r_mmod_RMS_Derivative-OPLS-2005>
1.05991756916046

$$$$
77
                    3D
 Structure written by MMmdl.
162170  0  0  1  0            999 V2000
  -30.6928  -14.4392   20.6221 C   0  0  0  0  0  0
  -30.4312  -12.3023   19.4068 C   0  0  0  0  0  0
  -29.4943  -12.5196   18.2000 C   0  0  0  0  0  0
  -28.0144  -12.3786   18.6114 C   0  0  0  0  0  0
  -27.6673  -13.1989   19.8823 C   0  0  2  0  0  0
  -28.7061  -12.9294   20.9935 C   0  0  0  0  0  0
  -25.2607  -13.8147   20.5665 C   0  0  0  0  0  0
  -24.1848  -13.0436   20.9163 C   0  0  0  0  0  0
  -24.6391  -11.6899   20.8726 C   0  0  0  0  0  0
  -23.9052  -10.4292   21.0403 C   0  0  0  0  0  0
  -24.3607   -9.4209   21.9182 C   0  0  0  0  0  0
  -23.6285   -8.2244   22.0753 C   0  0  0  0  0  0
  -22.4268   -8.0280   21.3543 C   0  0  0  0  0  0
  -21.9899   -9.0252   20.4645 C   0  0  0  0  0  0
  -22.7223  -10.2133   20.3052 C   0  0  0  0  0  0
  -21.6849   -6.0734   22.5279 C   0  0  0  0  0  0
  -21.4014   -6.5639   23.8213 C   0  0  0  0  0  0
  -21.3659   -5.6792   24.9174 C   0  0  0  0  0  0
  -21.6044   -4.3055   24.7225 C   0  0  0  0  0  0
  -21.8818   -3.8146   23.4346 C   0  0  0  0  0  0
  -21.9192   -4.6962   22.3403 C   0  0  0  0  0  0
  -22.7872  -13.5242   21.1832 C   0  0  0  0  0  0
  -22.1659   -4.2150   21.0980 F   0  0  0  0  0  0
  -21.5630   -3.4538   25.7738 F   0  0  0  0  0  0
  -30.0434  -13.2543   20.4587 N   0  0  0  0  0  0
  -26.3047  -12.9303   20.3381 N   0  0  0  0  0  0
  -25.9316  -11.6471   20.5761 N   0  0  0  0  0  0
  -22.0508  -12.8241   22.0392 N   0  0  0  0  0  0
  -25.4335  -15.1858   20.4060 N   0  0  0  0  0  0
  -31.7787  -14.6855   20.0867 O   0  0  0  0  0  0
  -21.6634   -6.8874   21.4240 O   0  0  0  0  0  0
  -22.3560  -14.5552   20.6684 O   0  0  0  0  0  0
  -24.6122  -31.8694   23.2101 C   0  0  0  0  0  0
  -25.9025  -32.4831   23.8397 C   0  0  1  0  0  0
  -27.2395  -27.4517   20.0981 C   0  0  0  0  0  0
  -25.5900  -33.8627   24.2335 N   0  0  0  0  0  0
  -23.4010  -30.4899   21.5499 C   0  0  2  0  0  0
  -24.8503  -28.9524   20.1199 C   0  0  0  0  0  0
  -22.7401  -29.4655   22.4997 C   0  0  0  0  0  0
  -18.0269  -28.1374   22.8484 C   0  0  0  0  0  0
  -24.1491  -36.7317   23.2638 C   0  0  0  0  0  0
  -25.9269  -30.8385   21.3616 C   0  0  0  0  0  0
  -26.0075  -29.4707   20.7164 C   0  0  0  0  0  0
  -27.2077  -28.7257   20.7057 C   0  0  0  0  0  0
  -26.0709  -26.9389   19.5022 C   0  0  0  0  0  0
  -24.8748  -27.6831   19.5132 C   0  0  0  0  0  0
  -23.6106  -29.8176   20.1661 C   0  0  0  0  0  0
  -25.4110  -36.3114   24.0343 C   0  0  1  0  0  0
  -20.5858  -28.3657   23.1322 C   0  0  2  0  0  0
  -20.6766  -26.9395   22.5418 C   0  0  0  0  0  0
  -19.5748  -26.6384   21.5211 C   0  0  0  0  0  0
  -18.1921  -26.7919   22.1619 C   0  0  0  0  0  0
  -19.1519  -28.8831   23.2898 C   0  0  0  0  0  0
  -18.9451  -30.1436   23.8908 C   0  0  0  0  0  0
  -17.6455  -30.6582   24.0560 C   0  0  0  0  0  0
  -25.9037  -34.9479   23.5135 C   0  0  0  0  0  0
  -16.5345  -29.9084   23.6321 C   0  0  0  0  0  0
  -16.7259  -28.6500   23.0338 C   0  0  0  0  0  0
  -26.4465  -31.6598   25.0711 C   0  0  0  0  0  0
  -25.3739  -31.3696   26.1462 C   0  0  0  0  0  0
  -27.0291  -30.3046   24.6057 C   0  0  0  0  0  0
  -27.6045  -32.4312   25.7471 C   0  0  0  0  0  0
  -27.5583  -37.1807   24.8464 C   0  0  0  0  0  0
  -21.4131  -29.3025   22.3733 N   0  0  0  0  0  0
  -26.4296  -37.3797   23.9410 N   0  0  0  0  0  0
  -24.6647  -31.0803   22.0996 N   0  0  0  0  0  0
  -23.4175  -28.8203   23.3040 O   0  0  0  0  0  0
  -28.4018  -26.7231   20.0391 O   0  0  0  0  0  0
  -26.5592  -34.8926   22.4692 O   0  0  0  0  0  0
  -23.5317  -32.1443   23.7503 O   0  0  0  0  0  0
  -29.1372  -18.7851   22.4661 C   0  0  0  0  0  0
  -31.0212  -17.5521   20.7959 C   0  0  0  0  0  0
  -30.0926  -19.5888   21.8078 C   0  0  0  0  0  0
  -29.1254  -17.3817   22.3129 C   0  0  0  0  0  0
  -31.0332  -18.9596   20.9502 C   0  0  0  0  0  0
  -30.0822  -16.7452   21.4847 C   0  0  0  0  0  0
  -28.0803  -16.5692   23.0630 C   0  0  0  0  0  0
  -32.0879  -19.7633   20.2056 C   0  0  0  0  0  0
  -30.1322  -21.0920   22.1226 C   0  0  0  0  0  0
  -28.7153  -24.3401   20.5743 C   0  0  0  0  0  0
  -29.2478  -23.3575   21.6475 C   0  0  0  0  0  0
  -28.5930  -25.7888   21.1038 C   0  0  0  0  0  0
  -30.0252  -15.3199   21.3915 N   0  0  0  0  0  0
  -29.3478  -21.9428   21.1959 N   0  3  0  0  0  0
  -31.4729  -12.4189   19.1028 H   0  0  0  0  0  0
  -30.3452  -11.2805   19.7787 H   0  0  0  0  0  0
  -29.7302  -11.8089   17.4067 H   0  0  0  0  0  0
  -29.6631  -13.5123   17.7791 H   0  0  0  0  0  0
  -27.8178  -11.3208   18.7897 H   0  0  0  0  0  0
  -27.3653  -12.6723   17.7858 H   0  0  0  0  0  0
  -27.7262  -14.2541   19.6136 H   0  0  0  0  0  0
  -28.6803  -11.8772   21.2809 H   0  0  0  0  0  0
  -28.4525  -13.4717   21.9046 H   0  0  0  0  0  0
  -25.2755   -9.5688   22.4749 H   0  0  0  0  0  0
  -23.9996   -7.4638   22.7474 H   0  0  0  0  0  0
  -21.0829   -8.8768   19.8953 H   0  0  0  0  0  0
  -22.3680  -10.9670   19.6158 H   0  0  0  0  0  0
  -21.2005   -7.6147   23.9715 H   0  0  0  0  0  0
  -21.1481   -6.0522   25.9077 H   0  0  0  0  0  0
  -22.0598   -2.7609   23.2846 H   0  0  0  0  0  0
  -22.4113  -11.9900   22.4781 H   0  0  0  0  0  0
  -21.1129  -13.1278   22.2595 H   0  0  0  0  0  0
  -24.6674  -15.8418   20.5110 H   0  0  0  0  0  0
  -26.2874  -15.6231   20.0827 H   0  0  0  0  0  0
  -26.7097  -32.5563   23.1168 H   0  0  0  0  0  0
  -25.0053  -33.9797   25.0483 H   0  0  0  0  0  0
  -22.6886  -31.3052   21.4083 H   0  0  0  0  0  0
  -23.3749  -35.9653   23.3312 H   0  0  0  0  0  0
  -24.3586  -36.8917   22.2049 H   0  0  0  0  0  0
  -23.7246  -37.6529   23.6643 H   0  0  0  0  0  0
  -26.0322  -31.6018   20.5892 H   0  0  0  0  0  0
  -26.8169  -30.8984   21.9758 H   0  0  0  0  0  0
  -28.1053  -29.1254   21.1565 H   0  0  0  0  0  0
  -26.0908  -25.9685   19.0263 H   0  0  0  0  0  0
  -23.9855  -27.2778   19.0498 H   0  0  0  0  0  0
  -23.7180  -30.5902   19.4036 H   0  0  0  0  0  0
  -22.7357  -29.2341   19.8728 H   0  0  0  0  0  0
  -25.1281  -36.1984   25.0836 H   0  0  0  0  0  0
  -20.9943  -28.3230   24.1446 H   0  0  0  0  0  0
  -20.5685  -26.2263   23.3603 H   0  0  0  0  0  0
  -21.6635  -26.7455   22.1203 H   0  0  0  0  0  0
  -19.6920  -25.6301   21.1226 H   0  0  0  0  0  0
  -19.6696  -27.3210   20.6753 H   0  0  0  0  0  0
  -17.4197  -26.6665   21.4016 H   0  0  0  0  0  0
  -18.0317  -26.0062   22.9015 H   0  0  0  0  0  0
  -19.7934  -30.7236   24.2294 H   0  0  0  0  0  0
  -17.5018  -31.6267   24.5153 H   0  0  0  0  0  0
  -15.5347  -30.2988   23.7645 H   0  0  0  0  0  0
  -15.8659  -28.0830   22.7041 H   0  0  0  0  0  0
  -24.5906  -30.7052   25.7797 H   0  0  0  0  0  0
  -24.8933  -32.2850   26.4926 H   0  0  0  0  0  0
  -25.8093  -30.8850   27.0209 H   0  0  0  0  0  0
  -26.2820  -29.6813   24.1123 H   0  0  0  0  0  0
  -27.4093  -29.7271   25.4494 H   0  0  0  0  0  0
  -27.8645  -30.4379   23.9175 H   0  0  0  0  0  0
  -27.2665  -33.3596   26.2087 H   0  0  0  0  0  0
  -28.3833  -32.6899   25.0285 H   0  0  0  0  0  0
  -28.0739  -31.8414   26.5356 H   0  0  0  0  0  0
  -28.2595  -38.0108   24.7513 H   0  0  0  0  0  0
  -28.1083  -36.2639   24.6285 H   0  0  0  0  0  0
  -27.2301  -37.1448   25.8866 H   0  0  0  0  0  0
  -20.9296  -29.8737   21.6945 H   0  0  0  0  0  0
  -26.0191  -38.2876   24.1413 H   0  0  0  0  0  0
  -28.4176  -19.2501   23.1267 H   0  0  0  0  0  0
  -31.7580  -17.1039   20.1463 H   0  0  0  0  0  0
  -27.4197  -17.2081   23.6495 H   0  0  0  0  0  0
  -28.5574  -15.8693   23.7496 H   0  0  0  0  0  0
  -27.4584  -16.0034   22.3687 H   0  0  0  0  0  0
  -32.6198  -19.1472   19.4801 H   0  0  0  0  0  0
  -32.8270  -20.1657   20.8989 H   0  0  0  0  0  0
  -31.6391  -20.5902   19.6565 H   0  0  0  0  0  0
  -31.1660  -21.4376   22.1493 H   0  0  0  0  0  0
  -29.7532  -21.2362   23.1359 H   0  0  0  0  0  0
  -27.7438  -24.0108   20.2044 H   0  0  0  0  0  0
  -29.3927  -24.3331   19.7199 H   0  0  0  0  0  0
  -28.6109  -23.3966   22.5326 H   0  0  0  0  0  0
  -30.2355  -23.6960   21.9658 H   0  0  0  0  0  0
  -29.5135  -26.0727   21.6147 H   0  0  0  0  0  0
  -27.7987  -25.8490   21.8516 H   0  0  0  0  0  0
  -29.2329  -14.9052   21.8554 H   0  0  0  0  0  0
  -28.4227  -21.5551   21.1119 H   0  0  0  0  0  0
  -29.7812  -21.9060   20.2891 H   0  0  0  0  0  0
  1 25  1  0  0  0
  1 30  2  0  0  0
  1 83  1  0  0  0
  2  3  1  0  0  0
  2 25  1  0  0  0
  2 85  1  0  0  0
  2 86  1  0  0  0
  3  4  1  0  0  0
  3 87  1  0  0  0
  3 88  1  0  0  0
  4  5  1  0  0  0
  4 89  1  0  0  0
  4 90  1  0  0  0
  5  6  1  0  0  0
  5 26  1  0  0  0
  5 91  1  0  0  0
  6 25  1  0  0  0
  6 92  1  0  0  0
  6 93  1  0  0  0
  7  8  2  0  0  0
  7 26  1  0  0  0
  7 29  1  0  0  0
  8  9  1  0  0  0
  8 22  1  0  0  0
  9 10  1  0  0  0
  9 27  2  0  0  0
 10 11  2  0  0  0
 10 15  1  0  0  0
 11 12  1  0  0  0
 11 94  1  0  0  0
 12 13  2  0  0  0
 12 95  1  0  0  0
 13 14  1  0  0  0
 13 31  1  0  0  0
 14 15  2  0  0  0
 14 96  1  0  0  0
 15 97  1  0  0  0
 16 17  2  0  0  0
 16 21  1  0  0  0
 16 31  1  0  0  0
 17 18  1  0  0  0
 17 98  1  0  0  0
 18 19  2  0  0  0
 18 99  1  0  0  0
 19 20  1  0  0  0
 19 24  1  0  0  0
 20 21  2  0  0  0
 20100  1  0  0  0
 21 23  1  0  0  0
 22 28  1  0  0  0
 22 32  2  0  0  0
 26 27  1  0  0  0
 28101  1  0  0  0
 28102  1  0  0  0
 29103  1  0  0  0
 29104  1  0  0  0
 33 34  1  0  0  0
 33 66  1  0  0  0
 33 70  2  0  0  0
 34 36  1  0  0  0
 34 59  1  0  0  0
 34105  1  0  0  0
 35 44  2  0  0  0
 35 45  1  0  0  0
 35 68  1  0  0  0
 36 56  1  0  0  0
 36106  1  0  0  0
 37 39  1  0  0  0
 37 47  1  0  0  0
 37 66  1  0  0  0
 37107  1  0  0  0
 38 43  2  0  0  0
 38 46  1  0  0  0
 38 47  1  0  0  0
 39 64  1  0  0  0
 39 67  2  0  0  0
 40 52  1  0  0  0
 40 53  2  0  0  0
 40 58  1  0  0  0
 41108  1  0  0  0
 41109  1  0  0  0
 41110  1  0  0  0
 41 48  1  0  0  0
 42 43  1  0  0  0
 42 66  1  0  0  0
 42111  1  0  0  0
 42112  1  0  0  0
 43 44  1  0  0  0
 44113  1  0  0  0
 45 46  2  0  0  0
 45114  1  0  0  0
 46115  1  0  0  0
 47116  1  0  0  0
 47117  1  0  0  0
 48 56  1  0  0  0
 48 65  1  0  0  0
 48118  1  0  0  0
 49 50  1  0  0  0
 49 53  1  0  0  0
 49 64  1  0  0  0
 49119  1  0  0  0
 50 51  1  0  0  0
 50120  1  0  0  0
 50121  1  0  0  0
 51 52  1  0  0  0
 51122  1  0  0  0
 51123  1  0  0  0
 52124  1  0  0  0
 52125  1  0  0  0
 53 54  1  0  0  0
 54 55  2  0  0  0
 54126  1  0  0  0
 55 57  1  0  0  0
 55127  1  0  0  0
 56 69  2  0  0  0
 57 58  2  0  0  0
 57128  1  0  0  0
 58129  1  0  0  0
 59 60  1  0  0  0
 59 61  1  0  0  0
 59 62  1  0  0  0
 60130  1  0  0  0
 60131  1  0  0  0
 60132  1  0  0  0
 61133  1  0  0  0
 61134  1  0  0  0
 61135  1  0  0  0
 62136  1  0  0  0
 62137  1  0  0  0
 62138  1  0  0  0
 63 65  1  0  0  0
 63139  1  0  0  0
 63140  1  0  0  0
 63141  1  0  0  0
 64142  1  0  0  0
 65143  1  0  0  0
 68 82  1  0  0  0
 71 73  2  0  0  0
 71 74  1  0  0  0
 71144  1  0  0  0
 72 75  2  0  0  0
 72 76  1  0  0  0
 72145  1  0  0  0
 73 75  1  0  0  0
 73 79  1  0  0  0
 74 76  2  0  0  0
 74 77  1  0  0  0
 75 78  1  0  0  0
 76 83  1  0  0  0
 77146  1  0  0  0
 77147  1  0  0  0
 77148  1  0  0  0
 78149  1  0  0  0
 78150  1  0  0  0
 78151  1  0  0  0
 79 84  1  0  0  0
 79152  1  0  0  0
 79153  1  0  0  0
 80 81  1  0  0  0
 80 82  1  0  0  0
 80154  1  0  0  0
 80155  1  0  0  0
 81 84  1  0  0  0
 81156  1  0  0  0
 81157  1  0  0  0
 82158  1  0  0  0
 82159  1  0  0  0
 83160  1  0  0  0
 84161  1  0  0  0
 84162  1  0  0  0
M  CHG  1  84   1
M  ISO  4   1 100  68 101  82 101  83 100
M  END
> <chiral flag>
0

> <version>
0

> <s_m_source_file>
/data/baiqing/PycharmProjects/Reinvent-master-3.2/result/LINK_invent/BTK/process_docking_weight1_custom_sum_contain_oxygen_bond_distance_aromatic_linkinvent_7_9_3/rearranged_h_0028.sdf

> <i_m_source_file_index>
78

> <r_mmod_Potential_Energy-OPLS-2005>
-269.372680664062

> <r_mmod_Stretch_Energy-OPLS-2005>
36.7651596069336

> <r_mmod_Bend_Energy-OPLS-2005>
99.2459182739258

> <r_mmod_Torsional_Energy-OPLS-2005>
224.465728759766

> <r_mmod_Improper_Torsional_Energy-OPLS-2005>
2.74643468856812

> <r_mmod_Van_der_Waal_Energy-OPLS-2005>
149.017501831055

> <r_mmod_Electrostatic_Energy-OPLS-2005>
-325.586975097656

> <r_mmod_Solvation_Energy-OPLS-2005>
-464.477478027344

> <b_mmod_Minimization_Converged-OPLS-2005>
0

> <r_mmod_RMS_Derivative-OPLS-2005>
0.693559885025024

$$$$
78
                    3D
 Structure written by MMmdl.
159167  0  0  1  0            999 V2000
  -30.7705  -14.3361   20.7162 C   0  0  0  0  0  0
  -30.4195  -12.2900   19.3792 C   0  0  0  0  0  0
  -29.4833  -12.5415   18.1833 C   0  0  0  0  0  0
  -28.0077  -12.3921   18.5984 C   0  0  0  0  0  0
  -27.6677  -13.2006   19.8772 C   0  0  2  0  0  0
  -28.7036  -12.9171   20.9860 C   0  0  0  0  0  0
  -25.2622  -13.8161   20.5689 C   0  0  0  0  0  0
  -24.1853  -13.0440   20.9163 C   0  0  0  0  0  0
  -24.6391  -11.6902   20.8698 C   0  0  0  0  0  0
  -23.9053  -10.4293   21.0395 C   0  0  0  0  0  0
  -24.3605   -9.4213   21.9176 C   0  0  0  0  0  0
  -23.6287   -8.2242   22.0750 C   0  0  0  0  0  0
  -22.4267   -8.0278   21.3542 C   0  0  0  0  0  0
  -21.9896   -9.0254   20.4648 C   0  0  0  0  0  0
  -22.7223  -10.2136   20.3052 C   0  0  0  0  0  0
  -21.6853   -6.0735   22.5281 C   0  0  0  0  0  0
  -21.4014   -6.5637   23.8214 C   0  0  0  0  0  0
  -21.3666   -5.6790   24.9177 C   0  0  0  0  0  0
  -21.6044   -4.3051   24.7223 C   0  0  0  0  0  0
  -21.8821   -3.8139   23.4347 C   0  0  0  0  0  0
  -21.9193   -4.6961   22.3404 C   0  0  0  0  0  0
  -22.7871  -13.5244   21.1831 C   0  0  0  0  0  0
  -22.1660   -4.2145   21.0980 F   0  0  0  0  0  0
  -21.5632   -3.4536   25.7736 F   0  0  0  0  0  0
  -30.0512  -13.2145   20.4604 N   0  0  0  0  0  0
  -26.3044  -12.9320   20.3345 N   0  0  0  0  0  0
  -25.9310  -11.6483   20.5701 N   0  0  0  0  0  0
  -22.0501  -12.8255   22.0398 N   0  0  0  0  0  0
  -25.4376  -15.1878   20.4162 N   0  0  0  0  0  0
  -31.7702  -14.6701   20.0720 O   0  0  0  0  0  0
  -21.6638   -6.8871   21.4240 O   0  0  0  0  0  0
  -22.3559  -14.5554   20.6694 O   0  0  0  0  0  0
  -24.6140  -31.8698   23.2118 C   0  0  0  0  0  0
  -25.9039  -32.4834   23.8401 C   0  0  1  0  0  0
  -27.2302  -27.4467   20.0880 C   0  0  0  0  0  0
  -25.5906  -33.8628   24.2341 N   0  0  0  0  0  0
  -23.4007  -30.4950   21.5534 C   0  0  2  0  0  0
  -24.8447  -28.9681   20.1142 C   0  0  0  0  0  0
  -22.7402  -29.4674   22.5001 C   0  0  0  0  0  0
  -18.0276  -28.1361   22.8491 C   0  0  0  0  0  0
  -24.1491  -36.7317   23.2639 C   0  0  0  0  0  0
  -25.9293  -30.8399   21.3640 C   0  0  0  0  0  0
  -26.0065  -29.4773   20.7069 C   0  0  0  0  0  0
  -27.2041  -28.7259   20.6885 C   0  0  0  0  0  0
  -26.0491  -26.9579   19.4811 C   0  0  0  0  0  0
  -24.8612  -27.7076   19.4966 C   0  0  0  0  0  0
  -23.6082  -29.8329   20.1662 C   0  0  0  0  0  0
  -25.4106  -36.3110   24.0339 C   0  0  1  0  0  0
  -20.5862  -28.3648   23.1327 C   0  0  2  0  0  0
  -20.6763  -26.9383   22.5428 C   0  0  0  0  0  0
  -19.5734  -26.6351   21.5228 C   0  0  0  0  0  0
  -18.1922  -26.7900   22.1640 C   0  0  0  0  0  0
  -19.1527  -28.8823   23.2901 C   0  0  0  0  0  0
  -18.9452  -30.1445   23.8896 C   0  0  0  0  0  0
  -17.6455  -30.6579   24.0556 C   0  0  0  0  0  0
  -25.9031  -34.9483   23.5132 C   0  0  0  0  0  0
  -16.5345  -29.9075   23.6320 C   0  0  0  0  0  0
  -16.7266  -28.6492   23.0344 C   0  0  0  0  0  0
  -26.4470  -31.6601   25.0716 C   0  0  0  0  0  0
  -25.3740  -31.3689   26.1464 C   0  0  0  0  0  0
  -27.0295  -30.3045   24.6083 C   0  0  0  0  0  0
  -27.6056  -32.4309   25.7469 C   0  0  0  0  0  0
  -27.5575  -37.1820   24.8466 C   0  0  0  0  0  0
  -21.4135  -29.3028   22.3743 N   0  0  0  0  0  0
  -26.4294  -37.3788   23.9403 N   0  0  0  0  0  0
  -24.6658  -31.0817   22.1013 N   0  0  0  0  0  0
  -23.4189  -28.8206   23.3018 O   0  0  0  0  0  0
  -28.3902  -26.6983   20.1045 O   0  0  0  0  0  0
  -26.5586  -34.8930   22.4690 O   0  0  0  0  0  0
  -23.5340  -32.1439   23.7537 O   0  0  0  0  0  0
  -29.5199  -17.6727   20.7659 C   0  0  0  0  0  0
  -29.3895  -19.7715   22.6199 C   0  0  0  0  0  0
  -30.1752  -17.5323   22.0104 C   0  0  0  0  0  0
  -28.7044  -19.8924   21.3908 C   0  0  0  0  0  0
  -30.1229  -18.6083   22.9317 C   0  0  0  0  0  0
  -28.7910  -18.8361   20.4536 C   0  0  0  0  0  0
  -30.9340  -16.2445   22.3393 C   0  0  0  0  0  0
  -27.8232  -21.1139   21.1325 C   0  0  0  0  0  0
  -29.5147  -24.5320   20.5898 C   0  0  0  0  0  0
  -29.3242  -23.1286   21.2214 C   0  0  0  0  0  0
  -28.1981  -25.3165   20.4383 C   0  0  0  0  0  0
  -30.3395  -15.0359   21.7715 N   0  0  0  0  0  0
  -28.4891  -22.2166   20.3991 N   0  3  0  0  0  0
  -30.9316  -18.5281   24.4584 Cl  0  0  0  0  0  0
  -28.0016  -18.9259   18.9189 Cl  0  0  0  0  0  0
  -31.4612  -12.4039   19.0728 H   0  0  0  0  0  0
  -30.3220  -11.2589   19.7250 H   0  0  0  0  0  0
  -29.7126  -11.8508   17.3712 H   0  0  0  0  0  0
  -29.6549  -13.5448   17.7888 H   0  0  0  0  0  0
  -27.8148  -11.3319   18.7691 H   0  0  0  0  0  0
  -27.3536  -12.6920   17.7788 H   0  0  0  0  0  0
  -27.7326  -14.2580   19.6191 H   0  0  0  0  0  0
  -28.6589  -11.8666   21.2781 H   0  0  0  0  0  0
  -28.4415  -13.4717   21.8867 H   0  0  0  0  0  0
  -25.2758   -9.5690   22.4742 H   0  0  0  0  0  0
  -24.0006   -7.4637   22.7471 H   0  0  0  0  0  0
  -21.0822   -8.8774   19.8960 H   0  0  0  0  0  0
  -22.3681  -10.9674   19.6156 H   0  0  0  0  0  0
  -21.2003   -7.6144   23.9716 H   0  0  0  0  0  0
  -21.1488   -6.0519   25.9084 H   0  0  0  0  0  0
  -22.0592   -2.7599   23.2849 H   0  0  0  0  0  0
  -22.4103  -11.9921   22.4816 H   0  0  0  0  0  0
  -21.1121  -13.1302   22.2590 H   0  0  0  0  0  0
  -24.6776  -15.8490   20.5344 H   0  0  0  0  0  0
  -26.3015  -15.6257   20.1225 H   0  0  0  0  0  0
  -26.7107  -32.5552   23.1168 H   0  0  0  0  0  0
  -25.0059  -33.9780   25.0486 H   0  0  0  0  0  0
  -22.6876  -31.3104   21.4181 H   0  0  0  0  0  0
  -23.3734  -35.9669   23.3330 H   0  0  0  0  0  0
  -24.3576  -36.8893   22.2044 H   0  0  0  0  0  0
  -23.7276  -37.6548   23.6626 H   0  0  0  0  0  0
  -26.0408  -31.6101   20.5993 H   0  0  0  0  0  0
  -26.8158  -30.8903   21.9838 H   0  0  0  0  0  0
  -28.1003  -29.1192   21.1476 H   0  0  0  0  0  0
  -26.0248  -26.0031   18.9772 H   0  0  0  0  0  0
  -23.9715  -27.3147   19.0257 H   0  0  0  0  0  0
  -23.7157  -30.6114   19.4095 H   0  0  0  0  0  0
  -22.7304  -29.2556   19.8696 H   0  0  0  0  0  0
  -25.1291  -36.1975   25.0832 H   0  0  0  0  0  0
  -20.9947  -28.3226   24.1456 H   0  0  0  0  0  0
  -20.5637  -26.2278   23.3626 H   0  0  0  0  0  0
  -21.6652  -26.7411   22.1263 H   0  0  0  0  0  0
  -19.6865  -25.6255   21.1271 H   0  0  0  0  0  0
  -19.6677  -27.3149   20.6740 H   0  0  0  0  0  0
  -17.4173  -26.6592   21.4071 H   0  0  0  0  0  0
  -18.0332  -26.0062   22.9075 H   0  0  0  0  0  0
  -19.7921  -30.7271   24.2259 H   0  0  0  0  0  0
  -17.5007  -31.6258   24.5150 H   0  0  0  0  0  0
  -15.5340  -30.2974   23.7639 H   0  0  0  0  0  0
  -15.8673  -28.0803   22.7051 H   0  0  0  0  0  0
  -24.5908  -30.7046   25.7800 H   0  0  0  0  0  0
  -24.8925  -32.2830   26.4938 H   0  0  0  0  0  0
  -25.8089  -30.8840   27.0214 H   0  0  0  0  0  0
  -26.2837  -29.6803   24.1153 H   0  0  0  0  0  0
  -27.4085  -29.7288   25.4539 H   0  0  0  0  0  0
  -27.8662  -30.4355   23.9219 H   0  0  0  0  0  0
  -27.2678  -33.3598   26.2079 H   0  0  0  0  0  0
  -28.3834  -32.6885   25.0265 H   0  0  0  0  0  0
  -28.0753  -31.8410   26.5351 H   0  0  0  0  0  0
  -28.2624  -38.0087   24.7473 H   0  0  0  0  0  0
  -28.1051  -36.2625   24.6349 H   0  0  0  0  0  0
  -27.2292  -37.1528   25.8871 H   0  0  0  0  0  0
  -20.9283  -29.8771   21.6993 H   0  0  0  0  0  0
  -26.0193  -38.2879   24.1376 H   0  0  0  0  0  0
  -29.5598  -16.8814   20.0325 H   0  0  0  0  0  0
  -29.3334  -20.5657   23.3507 H   0  0  0  0  0  0
  -30.9518  -16.0856   23.4179 H   0  0  0  0  0  0
  -31.9751  -16.3545   22.0334 H   0  0  0  0  0  0
  -27.4158  -21.4790   22.0763 H   0  0  0  0  0  0
  -26.9502  -20.8027   20.5590 H   0  0  0  0  0  0
  -30.0143  -24.4506   19.6246 H   0  0  0  0  0  0
  -30.1887  -25.1028   21.2299 H   0  0  0  0  0  0
  -28.8818  -23.2519   22.2118 H   0  0  0  0  0  0
  -30.2957  -22.6591   21.3793 H   0  0  0  0  0  0
  -27.6338  -25.2595   21.3719 H   0  0  0  0  0  0
  -27.6094  -24.8127   19.6731 H   0  0  0  0  0  0
  -29.5401  -14.6560   22.2564 H   0  0  0  0  0  0
  -27.7393  -22.7579   20.0033 H   0  0  0  0  0  0
  -29.0219  -21.8450   19.6296 H   0  0  0  0  0  0
  1 25  1  0  0  0
  1 30  2  0  0  0
  1 82  1  0  0  0
  2  3  1  0  0  0
  2 25  1  0  0  0
  2 86  1  0  0  0
  2 87  1  0  0  0
  3  4  1  0  0  0
  3 88  1  0  0  0
  3 89  1  0  0  0
  4  5  1  0  0  0
  4 90  1  0  0  0
  4 91  1  0  0  0
  5  6  1  0  0  0
  5 26  1  0  0  0
  5 92  1  0  0  0
  6 25  1  0  0  0
  6 93  1  0  0  0
  6 94  1  0  0  0
  7  8  2  0  0  0
  7 26  1  0  0  0
  7 29  1  0  0  0
  8  9  1  0  0  0
  8 22  1  0  0  0
  9 10  1  0  0  0
  9 27  2  0  0  0
 10 11  2  0  0  0
 10 15  1  0  0  0
 11 12  1  0  0  0
 11 95  1  0  0  0
 12 13  2  0  0  0
 12 96  1  0  0  0
 13 14  1  0  0  0
 13 31  1  0  0  0
 14 15  2  0  0  0
 14 97  1  0  0  0
 15 98  1  0  0  0
 16 17  2  0  0  0
 16 21  1  0  0  0
 16 31  1  0  0  0
 17 18  1  0  0  0
 17 99  1  0  0  0
 18 19  2  0  0  0
 18100  1  0  0  0
 19 20  1  0  0  0
 19 24  1  0  0  0
 20 21  2  0  0  0
 20101  1  0  0  0
 21 23  1  0  0  0
 22 28  1  0  0  0
 22 32  2  0  0  0
 26 27  1  0  0  0
 28102  1  0  0  0
 28103  1  0  0  0
 29104  1  0  0  0
 29105  1  0  0  0
 33 34  1  0  0  0
 33 66  1  0  0  0
 33 70  2  0  0  0
 34 36  1  0  0  0
 34 59  1  0  0  0
 34106  1  0  0  0
 35 44  2  0  0  0
 35 45  1  0  0  0
 35 68  1  0  0  0
 36 56  1  0  0  0
 36107  1  0  0  0
 37 39  1  0  0  0
 37 47  1  0  0  0
 37 66  1  0  0  0
 37108  1  0  0  0
 38 43  2  0  0  0
 38 46  1  0  0  0
 38 47  1  0  0  0
 39 64  1  0  0  0
 39 67  2  0  0  0
 40 52  1  0  0  0
 40 53  2  0  0  0
 40 58  1  0  0  0
 41109  1  0  0  0
 41110  1  0  0  0
 41111  1  0  0  0
 41 48  1  0  0  0
 42 43  1  0  0  0
 42 66  1  0  0  0
 42112  1  0  0  0
 42113  1  0  0  0
 43 44  1  0  0  0
 44114  1  0  0  0
 45 46  2  0  0  0
 45115  1  0  0  0
 46116  1  0  0  0
 47117  1  0  0  0
 47118  1  0  0  0
 48 56  1  0  0  0
 48 65  1  0  0  0
 48119  1  0  0  0
 49 50  1  0  0  0
 49 53  1  0  0  0
 49 64  1  0  0  0
 49120  1  0  0  0
 50 51  1  0  0  0
 50121  1  0  0  0
 50122  1  0  0  0
 51 52  1  0  0  0
 51123  1  0  0  0
 51124  1  0  0  0
 52125  1  0  0  0
 52126  1  0  0  0
 53 54  1  0  0  0
 54 55  2  0  0  0
 54127  1  0  0  0
 55 57  1  0  0  0
 55128  1  0  0  0
 56 69  2  0  0  0
 57 58  2  0  0  0
 57129  1  0  0  0
 58130  1  0  0  0
 59 60  1  0  0  0
 59 61  1  0  0  0
 59 62  1  0  0  0
 60131  1  0  0  0
 60132  1  0  0  0
 60133  1  0  0  0
 61134  1  0  0  0
 61135  1  0  0  0
 61136  1  0  0  0
 62137  1  0  0  0
 62138  1  0  0  0
 62139  1  0  0  0
 63 65  1  0  0  0
 63140  1  0  0  0
 63141  1  0  0  0
 63142  1  0  0  0
 64143  1  0  0  0
 65144  1  0  0  0
 68 81  1  0  0  0
 71 73  2  0  0  0
 71 76  1  0  0  0
 71145  1  0  0  0
 72 74  1  0  0  0
 72 75  2  0  0  0
 72146  1  0  0  0
 73 75  1  0  0  0
 73 77  1  0  0  0
 74 76  2  0  0  0
 74 78  1  0  0  0
 75 84  1  0  0  0
 76 85  1  0  0  0
 77 82  1  0  0  0
 77147  1  0  0  0
 77148  1  0  0  0
 78 83  1  0  0  0
 78149  1  0  0  0
 78150  1  0  0  0
 79 80  1  0  0  0
 79 81  1  0  0  0
 79151  1  0  0  0
 79152  1  0  0  0
 80 83  1  0  0  0
 80153  1  0  0  0
 80154  1  0  0  0
 81155  1  0  0  0
 81156  1  0  0  0
 82157  1  0  0  0
 83158  1  0  0  0
 83159  1  0  0  0
M  CHG  1  83   1
M  ISO  4   1 100  68 101  81 101  82 100
M  END
> <chiral flag>
0

> <version>
0

> <s_m_source_file>
/data/baiqing/PycharmProjects/Reinvent-master-3.2/result/LINK_invent/BTK/process_docking_weight1_custom_sum_contain_oxygen_bond_distance_aromatic_linkinvent_7_9_3/rearranged_h_0028.sdf

> <i_m_source_file_index>
79

> <r_mmod_Potential_Energy-OPLS-2005>
-338.915008544922

> <r_mmod_Stretch_Energy-OPLS-2005>
34.2291793823242

> <r_mmod_Bend_Energy-OPLS-2005>
90.0460586547852

> <r_mmod_Torsional_Energy-OPLS-2005>
202.370178222656

> <r_mmod_Improper_Torsional_Energy-OPLS-2005>
1.98848819732666

> <r_mmod_Van_der_Waal_Energy-OPLS-2005>
153.71711730957

> <r_mmod_Electrostatic_Energy-OPLS-2005>
-348.312255859375

> <r_mmod_Solvation_Energy-OPLS-2005>
-481.584930419922

> <b_mmod_Minimization_Converged-OPLS-2005>
0

> <r_mmod_RMS_Derivative-OPLS-2005>
1.85295510292053

$$$$
79
                    3D
 Structure written by MMmdl.
155163  0  0  1  0            999 V2000
  -30.5395  -14.8781   20.4335 C   0  0  0  0  0  0
  -30.4508  -12.5376   19.4908 C   0  0  0  0  0  0
  -29.5280  -12.5325   18.2486 C   0  0  0  0  0  0
  -28.0526  -12.3358   18.6538 C   0  0  0  0  0  0
  -27.6401  -13.2396   19.8458 C   0  0  2  0  0  0
  -28.6839  -13.2063   20.9844 C   0  0  0  0  0  0
  -25.2511  -13.8201   20.5701 C   0  0  0  0  0  0
  -24.1804  -13.0447   20.9227 C   0  0  0  0  0  0
  -24.6398  -11.6926   20.8732 C   0  0  0  0  0  0
  -23.9073  -10.4300   21.0385 C   0  0  0  0  0  0
  -24.3622   -9.4225   21.9170 C   0  0  0  0  0  0
  -23.6307   -8.2256   22.0744 C   0  0  0  0  0  0
  -22.4291   -8.0280   21.3543 C   0  0  0  0  0  0
  -21.9921   -9.0244   20.4641 C   0  0  0  0  0  0
  -22.7239  -10.2134   20.3044 C   0  0  0  0  0  0
  -21.6857   -6.0737   22.5274 C   0  0  0  0  0  0
  -21.4010   -6.5629   23.8212 C   0  0  0  0  0  0
  -21.3668   -5.6785   24.9174 C   0  0  0  0  0  0
  -21.6050   -4.3051   24.7220 C   0  0  0  0  0  0
  -21.8818   -3.8140   23.4342 C   0  0  0  0  0  0
  -21.9198   -4.6960   22.3402 C   0  0  0  0  0  0
  -22.7825  -13.5231   21.1871 C   0  0  0  0  0  0
  -22.1665   -4.2145   21.0983 F   0  0  0  0  0  0
  -21.5642   -3.4540   25.7736 F   0  0  0  0  0  0
  -29.9756  -13.6079   20.4070 N   0  0  0  0  0  0
  -26.2935  -12.9416   20.3241 N   0  0  0  0  0  0
  -25.9331  -11.6554   20.5702 N   0  0  0  0  0  0
  -22.0457  -12.8231   22.0420 N   0  0  0  0  0  0
  -25.4194  -15.1935   20.4132 N   0  0  0  0  0  0
  -31.7260  -14.9931   20.1026 O   0  0  0  0  0  0
  -21.6648   -6.8887   21.4237 O   0  0  0  0  0  0
  -22.3520  -14.5540   20.6712 O   0  0  0  0  0  0
  -24.6395  -31.8491   23.1937 C   0  0  0  0  0  0
  -25.9185  -32.4719   23.8317 C   0  0  1  0  0  0
  -27.2218  -27.1859   20.1314 C   0  0  0  0  0  0
  -25.5961  -33.8534   24.2233 N   0  0  0  0  0  0
  -23.4409  -30.4686   21.5408 C   0  0  2  0  0  0
  -24.8908  -28.9092   20.1075 C   0  0  0  0  0  0
  -22.7556  -29.4562   22.4919 C   0  0  0  0  0  0
  -18.0294  -28.1389   22.8476 C   0  0  0  0  0  0
  -24.1498  -36.7253   23.2638 C   0  0  0  0  0  0
  -25.9951  -30.7340   21.3912 C   0  0  0  0  0  0
  -26.0656  -29.3531   20.7266 C   0  0  0  0  0  0
  -27.2304  -28.5049   20.7270 C   0  0  0  0  0  0
  -26.0229  -26.8403   19.4647 C   0  0  0  0  0  0
  -24.8806  -27.6644   19.4631 C   0  0  0  0  0  0
  -23.6624  -29.8015   20.1585 C   0  0  0  0  0  0
  -25.4128  -36.3049   24.0321 C   0  0  1  0  0  0
  -20.5902  -28.3702   23.1266 C   0  0  2  0  0  0
  -20.6795  -26.9415   22.5414 C   0  0  0  0  0  0
  -19.5764  -26.6376   21.5231 C   0  0  0  0  0  0
  -18.1935  -26.7931   22.1621 C   0  0  0  0  0  0
  -19.1547  -28.8871   23.2860 C   0  0  0  0  0  0
  -18.9463  -30.1481   23.8864 C   0  0  0  0  0  0
  -17.6457  -30.6590   24.0556 C   0  0  0  0  0  0
  -25.9076  -34.9421   23.5079 C   0  0  0  0  0  0
  -16.5352  -29.9073   23.6350 C   0  0  0  0  0  0
  -16.7277  -28.6502   23.0354 C   0  0  0  0  0  0
  -26.4514  -31.6570   25.0750 C   0  0  0  0  0  0
  -25.3692  -31.3755   26.1440 C   0  0  0  0  0  0
  -27.0380  -30.2964   24.6324 C   0  0  0  0  0  0
  -27.6048  -32.4338   25.7526 C   0  0  0  0  0  0
  -27.5591  -37.1776   24.8454 C   0  0  0  0  0  0
  -21.4251  -29.3028   22.3650 N   0  0  0  0  0  0
  -26.4299  -37.3757   23.9411 N   0  0  0  0  0  0
  -24.7109  -31.0374   22.0958 N   0  0  0  0  0  0
  -23.4222  -28.8112   23.3057 O   0  0  0  0  0  0
  -28.2907  -26.2331   20.2161 O   0  0  0  0  0  0
  -26.5648  -34.8910   22.4652 O   0  0  0  0  0  0
  -23.5527  -32.1363   23.7175 O   0  0  0  0  0  0
  -28.5138  -18.1702   21.0423 C   0  0  0  0  0  0
  -28.2778  -19.5859   20.8926 C   0  0  0  0  0  0
  -29.1824  -20.4376   20.1846 C   0  0  0  0  0  0
  -30.3387  -19.6910   19.7489 C   0  0  0  0  0  0
  -29.6579  -17.4803   20.5327 C   0  0  0  0  0  0
  -26.9984  -20.1657   21.4685 C   0  0  0  0  0  0
  -31.4458  -20.4029   18.9932 C   0  0  0  0  0  0
  -28.7774  -21.9500   19.6769 C   0  0  0  0  0  0
  -28.9252  -23.4253   20.4210 C   0  0  0  0  0  0
  -28.1016  -24.7511   19.8414 C   0  0  0  0  0  0
  -30.5551  -18.3211   19.9159 N   0  0  0  0  0  0
  -29.6924  -15.9716   20.7016 N   0  0  0  0  0  0
  -31.4859  -12.6963   19.1847 H   0  0  0  0  0  0
  -30.4344  -11.5699   19.9921 H   0  0  0  0  0  0
  -29.8364  -11.7529   17.5513 H   0  0  0  0  0  0
  -29.6355  -13.4785   17.7144 H   0  0  0  0  0  0
  -27.9209  -11.2875   18.9229 H   0  0  0  0  0  0
  -27.3973  -12.5146   17.7992 H   0  0  0  0  0  0
  -27.6212  -14.2560   19.4527 H   0  0  0  0  0  0
  -28.7510  -12.2118   21.4257 H   0  0  0  0  0  0
  -28.3934  -13.8786   21.7934 H   0  0  0  0  0  0
  -25.2750   -9.5718   22.4757 H   0  0  0  0  0  0
  -24.0020   -7.4647   22.7457 H   0  0  0  0  0  0
  -21.0855   -8.8748   19.8943 H   0  0  0  0  0  0
  -22.3668  -10.9672   19.6161 H   0  0  0  0  0  0
  -21.1983   -7.6133   23.9718 H   0  0  0  0  0  0
  -21.1502   -6.0510   25.9085 H   0  0  0  0  0  0
  -22.0595   -2.7599   23.2835 H   0  0  0  0  0  0
  -22.4046  -11.9906   22.4851 H   0  0  0  0  0  0
  -21.1059  -13.1242   22.2563 H   0  0  0  0  0  0
  -24.6475  -15.8420   20.5232 H   0  0  0  0  0  0
  -26.2470  -15.6312   20.0306 H   0  0  0  0  0  0
  -26.7255  -32.5329   23.1056 H   0  0  0  0  0  0
  -25.0102  -33.9665   25.0371 H   0  0  0  0  0  0
  -22.7402  -31.2922   21.3920 H   0  0  0  0  0  0
  -23.3795  -35.9550   23.3259 H   0  0  0  0  0  0
  -24.3590  -36.8923   22.2063 H   0  0  0  0  0  0
  -23.7211  -37.6421   23.6695 H   0  0  0  0  0  0
  -26.1558  -31.4951   20.6269 H   0  0  0  0  0  0
  -26.8635  -30.7730   22.0377 H   0  0  0  0  0  0
  -28.1251  -28.8388   21.2344 H   0  0  0  0  0  0
  -25.9263  -25.8992   18.9466 H   0  0  0  0  0  0
  -23.9850  -27.3214   18.9631 H   0  0  0  0  0  0
  -23.7859  -30.5777   19.4035 H   0  0  0  0  0  0
  -22.7789  -29.2367   19.8549 H   0  0  0  0  0  0
  -25.1313  -36.1888   25.0815 H   0  0  0  0  0  0
  -20.9982  -28.3280   24.1399 H   0  0  0  0  0  0
  -20.5739  -26.2299   23.3619 H   0  0  0  0  0  0
  -21.6650  -26.7457   22.1174 H   0  0  0  0  0  0
  -19.6926  -25.6291   21.1264 H   0  0  0  0  0  0
  -19.6717  -27.3190   20.6770 H   0  0  0  0  0  0
  -17.4223  -26.6698   21.4011 H   0  0  0  0  0  0
  -18.0305  -26.0083   22.9017 H   0  0  0  0  0  0
  -19.7940  -30.7312   24.2203 H   0  0  0  0  0  0
  -17.5005  -31.6269   24.5154 H   0  0  0  0  0  0
  -15.5343  -30.2949   23.7718 H   0  0  0  0  0  0
  -15.8675  -28.0815   22.7071 H   0  0  0  0  0  0
  -24.5858  -30.7128   25.7738 H   0  0  0  0  0  0
  -24.8904  -32.2945   26.4837 H   0  0  0  0  0  0
  -25.7966  -30.8923   27.0235 H   0  0  0  0  0  0
  -26.3002  -29.6689   24.1314 H   0  0  0  0  0  0
  -27.3964  -29.7265   25.4905 H   0  0  0  0  0  0
  -27.8923  -30.4197   23.9665 H   0  0  0  0  0  0
  -27.2628  -33.3643   26.2076 H   0  0  0  0  0  0
  -28.3867  -32.6895   25.0358 H   0  0  0  0  0  0
  -28.0709  -31.8487   26.5467 H   0  0  0  0  0  0
  -28.2559  -38.0120   24.7567 H   0  0  0  0  0  0
  -28.1140  -36.2655   24.6204 H   0  0  0  0  0  0
  -27.2312  -37.1313   25.8853 H   0  0  0  0  0  0
  -20.9471  -29.8705   21.6789 H   0  0  0  0  0  0
  -26.0170  -38.2824   24.1441 H   0  0  0  0  0  0
  -27.7571  -17.5903   21.5529 H   0  0  0  0  0  0
  -26.6869  -19.6143   22.3571 H   0  0  0  0  0  0
  -26.1912  -20.1190   20.7363 H   0  0  0  0  0  0
  -27.1336  -21.2065   21.7656 H   0  0  0  0  0  0
  -31.2060  -20.4727   17.9324 H   0  0  0  0  0  0
  -32.3969  -19.8778   19.0939 H   0  0  0  0  0  0
  -31.5914  -21.4130   19.3760 H   0  0  0  0  0  0
  -27.7226  -21.8737   19.4084 H   0  0  0  0  0  0
  -29.2600  -22.0706   18.7068 H   0  0  0  0  0  0
  -29.9864  -23.6761   20.4520 H   0  0  0  0  0  0
  -28.6297  -23.3064   21.4637 H   0  0  0  0  0  0
  -27.0599  -24.4996   20.0371 H   0  0  0  0  0  0
  -28.2018  -24.7253   18.7557 H   0  0  0  0  0  0
  -28.8129  -15.6241   21.0459 H   0  0  0  0  0  0
  1 25  1  0  0  0
  1 30  2  0  0  0
  1 82  1  0  0  0
  2  3  1  0  0  0
  2 25  1  0  0  0
  2 83  1  0  0  0
  2 84  1  0  0  0
  3  4  1  0  0  0
  3 85  1  0  0  0
  3 86  1  0  0  0
  4  5  1  0  0  0
  4 87  1  0  0  0
  4 88  1  0  0  0
  5  6  1  0  0  0
  5 26  1  0  0  0
  5 89  1  0  0  0
  6 25  1  0  0  0
  6 90  1  0  0  0
  6 91  1  0  0  0
  7  8  2  0  0  0
  7 26  1  0  0  0
  7 29  1  0  0  0
  8  9  1  0  0  0
  8 22  1  0  0  0
  9 10  1  0  0  0
  9 27  2  0  0  0
 10 11  2  0  0  0
 10 15  1  0  0  0
 11 12  1  0  0  0
 11 92  1  0  0  0
 12 13  2  0  0  0
 12 93  1  0  0  0
 13 14  1  0  0  0
 13 31  1  0  0  0
 14 15  2  0  0  0
 14 94  1  0  0  0
 15 95  1  0  0  0
 16 17  2  0  0  0
 16 21  1  0  0  0
 16 31  1  0  0  0
 17 18  1  0  0  0
 17 96  1  0  0  0
 18 19  2  0  0  0
 18 97  1  0  0  0
 19 20  1  0  0  0
 19 24  1  0  0  0
 20 21  2  0  0  0
 20 98  1  0  0  0
 21 23  1  0  0  0
 22 28  1  0  0  0
 22 32  2  0  0  0
 26 27  1  0  0  0
 28 99  1  0  0  0
 28100  1  0  0  0
 29101  1  0  0  0
 29102  1  0  0  0
 33 34  1  0  0  0
 33 66  1  0  0  0
 33 70  2  0  0  0
 34 36  1  0  0  0
 34 59  1  0  0  0
 34103  1  0  0  0
 35 44  2  0  0  0
 35 45  1  0  0  0
 35 68  1  0  0  0
 36 56  1  0  0  0
 36104  1  0  0  0
 37 39  1  0  0  0
 37 47  1  0  0  0
 37 66  1  0  0  0
 37105  1  0  0  0
 38 43  2  0  0  0
 38 46  1  0  0  0
 38 47  1  0  0  0
 39 64  1  0  0  0
 39 67  2  0  0  0
 40 52  1  0  0  0
 40 53  2  0  0  0
 40 58  1  0  0  0
 41106  1  0  0  0
 41107  1  0  0  0
 41108  1  0  0  0
 41 48  1  0  0  0
 42 43  1  0  0  0
 42 66  1  0  0  0
 42109  1  0  0  0
 42110  1  0  0  0
 43 44  1  0  0  0
 44111  1  0  0  0
 45 46  2  0  0  0
 45112  1  0  0  0
 46113  1  0  0  0
 47114  1  0  0  0
 47115  1  0  0  0
 48 56  1  0  0  0
 48 65  1  0  0  0
 48116  1  0  0  0
 49 50  1  0  0  0
 49 53  1  0  0  0
 49 64  1  0  0  0
 49117  1  0  0  0
 50 51  1  0  0  0
 50118  1  0  0  0
 50119  1  0  0  0
 51 52  1  0  0  0
 51120  1  0  0  0
 51121  1  0  0  0
 52122  1  0  0  0
 52123  1  0  0  0
 53 54  1  0  0  0
 54 55  2  0  0  0
 54124  1  0  0  0
 55 57  1  0  0  0
 55125  1  0  0  0
 56 69  2  0  0  0
 57 58  2  0  0  0
 57126  1  0  0  0
 58127  1  0  0  0
 59 60  1  0  0  0
 59 61  1  0  0  0
 59 62  1  0  0  0
 60128  1  0  0  0
 60129  1  0  0  0
 60130  1  0  0  0
 61131  1  0  0  0
 61132  1  0  0  0
 61133  1  0  0  0
 62134  1  0  0  0
 62135  1  0  0  0
 62136  1  0  0  0
 63 65  1  0  0  0
 63137  1  0  0  0
 63138  1  0  0  0
 63139  1  0  0  0
 64140  1  0  0  0
 65141  1  0  0  0
 68 80  1  0  0  0
 71 72  2  0  0  0
 71 75  1  0  0  0
 71142  1  0  0  0
 72 73  1  0  0  0
 72 76  1  0  0  0
 73 74  2  0  0  0
 73 78  1  0  0  0
 74 77  1  0  0  0
 74 81  1  0  0  0
 75 81  2  0  0  0
 75 82  1  0  0  0
 76143  1  0  0  0
 76144  1  0  0  0
 76145  1  0  0  0
 77146  1  0  0  0
 77147  1  0  0  0
 77148  1  0  0  0
 78 79  1  0  0  0
 78149  1  0  0  0
 78150  1  0  0  0
 79 80  1  0  0  0
 79151  1  0  0  0
 79152  1  0  0  0
 80153  1  0  0  0
 80154  1  0  0  0
 82155  1  0  0  0
M  ISO  4   1 100  68 101  80 101  82 100
M  END
> <chiral flag>
0

> <version>
0

> <s_m_source_file>
/data/baiqing/PycharmProjects/Reinvent-master-3.2/result/LINK_invent/BTK/process_docking_weight1_custom_sum_contain_oxygen_bond_distance_aromatic_linkinvent_7_9_3/rearranged_h_0028.sdf

> <i_m_source_file_index>
80

> <r_mmod_Potential_Energy-OPLS-2005>
207.041976928711

> <r_mmod_Stretch_Energy-OPLS-2005>
193.555206298828

> <r_mmod_Bend_Energy-OPLS-2005>
245.827926635742

> <r_mmod_Torsional_Energy-OPLS-2005>
210.939575195312

> <r_mmod_Improper_Torsional_Energy-OPLS-2005>
5.59209632873535

> <r_mmod_Van_der_Waal_Energy-OPLS-2005>
136.005355834961

> <r_mmod_Electrostatic_Energy-OPLS-2005>
-496.820709228516

> <r_mmod_Solvation_Energy-OPLS-2005>
-235.522659301758

> <b_mmod_Minimization_Converged-OPLS-2005>
0

> <r_mmod_RMS_Derivative-OPLS-2005>
2.33862662315369

$$$$
80
                    3D
 Structure written by MMmdl.
168176  0  0  1  0            999 V2000
  -30.7206  -14.4622   20.5312 C   0  0  0  0  0  0
  -30.4397  -12.2744   19.4433 C   0  0  0  0  0  0
  -29.5239  -12.4160   18.2070 C   0  0  0  0  0  0
  -28.0317  -12.3497   18.6044 C   0  0  0  0  0  0
  -27.6706  -13.2066   19.8550 C   0  0  2  0  0  0
  -28.7138  -13.0260   20.9839 C   0  0  0  0  0  0
  -25.2707  -13.8197   20.5656 C   0  0  0  0  0  0
  -24.1934  -13.0502   20.9178 C   0  0  0  0  0  0
  -24.6507  -11.6967   20.8798 C   0  0  0  0  0  0
  -23.9176  -10.4374   21.0471 C   0  0  0  0  0  0
  -24.3707   -9.4251   21.9229 C   0  0  0  0  0  0
  -23.6358   -8.2300   22.0787 C   0  0  0  0  0  0
  -22.4302   -8.0388   21.3587 C   0  0  0  0  0  0
  -21.9991   -9.0405   20.4683 C   0  0  0  0  0  0
  -22.7380  -10.2242   20.3085 C   0  0  0  0  0  0
  -21.6875   -6.0820   22.5337 C   0  0  0  0  0  0
  -21.4015   -6.5683   23.8285 C   0  0  0  0  0  0
  -21.3622   -5.6810   24.9219 C   0  0  0  0  0  0
  -21.6036   -4.3079   24.7258 C   0  0  0  0  0  0
  -21.8820   -3.8210   23.4374 C   0  0  0  0  0  0
  -21.9196   -4.7042   22.3441 C   0  0  0  0  0  0
  -22.7930  -13.5334   21.1802 C   0  0  0  0  0  0
  -22.1645   -4.2231   21.1014 F   0  0  0  0  0  0
  -21.5615   -3.4546   25.7760 F   0  0  0  0  0  0
  -30.0447  -13.2935   20.4206 N   0  0  0  0  0  0
  -26.3137  -12.9360   20.3304 N   0  0  0  0  0  0
  -25.9419  -11.6541   20.5761 N   0  0  0  0  0  0
  -22.0482  -12.8427   22.0379 N   0  0  0  0  0  0
  -25.4525  -15.1915   20.4004 N   0  0  0  0  0  0
  -31.9047  -14.6006   20.2061 O   0  0  0  0  0  0
  -21.6627   -6.8998   21.4309 O   0  0  0  0  0  0
  -22.3640  -14.5645   20.6633 O   0  0  0  0  0  0
  -24.6069  -31.8756   23.2154 C   0  0  0  0  0  0
  -25.8999  -32.4864   23.8428 C   0  0  1  0  0  0
  -27.2536  -27.4771   20.1194 C   0  0  0  0  0  0
  -25.5906  -33.8659   24.2366 N   0  0  0  0  0  0
  -23.3908  -30.4977   21.5561 C   0  0  2  0  0  0
  -24.8441  -28.9639   20.1204 C   0  0  0  0  0  0
  -22.7349  -29.4710   22.5055 C   0  0  0  0  0  0
  -18.0263  -28.1375   22.8490 C   0  0  0  0  0  0
  -24.1469  -36.7293   23.2616 C   0  0  0  0  0  0
  -25.9113  -30.8547   21.3611 C   0  0  0  0  0  0
  -25.9943  -29.4843   20.7264 C   0  0  0  0  0  0
  -27.1943  -28.7454   20.7409 C   0  0  0  0  0  0
  -26.0950  -26.9714   19.4958 C   0  0  0  0  0  0
  -24.8861  -27.6976   19.5071 C   0  0  0  0  0  0
  -23.5980  -29.8219   20.1717 C   0  0  0  0  0  0
  -25.4068  -36.3119   24.0351 C   0  0  1  0  0  0
  -20.5844  -28.3652   23.1366 C   0  0  2  0  0  0
  -20.6744  -26.9387   22.5478 C   0  0  0  0  0  0
  -19.5747  -26.6383   21.5232 C   0  0  0  0  0  0
  -18.1895  -26.7945   22.1584 C   0  0  0  0  0  0
  -19.1502  -28.8823   23.2931 C   0  0  0  0  0  0
  -18.9446  -30.1434   23.8937 C   0  0  0  0  0  0
  -17.6442  -30.6594   24.0563 C   0  0  0  0  0  0
  -25.9025  -34.9504   23.5141 C   0  0  0  0  0  0
  -16.5336  -29.9102   23.6316 C   0  0  0  0  0  0
  -16.7244  -28.6517   23.0342 C   0  0  0  0  0  0
  -26.4443  -31.6618   25.0724 C   0  0  0  0  0  0
  -25.3750  -31.3802   26.1535 C   0  0  0  0  0  0
  -27.0150  -30.3024   24.6061 C   0  0  0  0  0  0
  -27.6086  -32.4293   25.7413 C   0  0  0  0  0  0
  -27.5640  -37.1682   24.8368 C   0  0  0  0  0  0
  -21.4100  -29.3032   22.3782 N   0  0  0  0  0  0
  -26.4213  -37.3857   23.9530 N   0  0  0  0  0  0
  -24.6529  -31.0910   22.1043 N   0  0  0  0  0  0
  -23.4168  -28.8252   23.3078 O   0  0  0  0  0  0
  -28.4005  -26.7171   20.0908 O   0  0  0  0  0  0
  -26.5569  -34.8951   22.4692 O   0  0  0  0  0  0
  -23.5271  -32.1502   23.7611 O   0  0  0  0  0  0
  -29.4134  -20.4126   21.9409 C   0  0  0  0  0  0
  -28.2618  -21.0431   21.4183 C   0  0  0  0  0  0
  -30.5730  -21.2258   21.9938 C   0  0  0  0  0  0
  -29.3989  -22.9958   21.1743 C   0  0  0  0  0  0
  -26.9174  -20.3641   21.2447 C   0  0  0  0  0  0
  -32.0708  -21.0942   24.0128 C   0  0  0  0  0  0
  -29.7174  -16.1337   19.1707 C   0  0  0  0  0  0
  -29.4028  -18.9551   22.4336 C   0  0  0  0  0  0
  -31.9081  -20.7374   22.5282 C   0  0  0  0  0  0
  -29.6623  -17.9584   21.2930 C   0  0  0  0  0  0
  -29.7609  -16.4493   21.6749 C   0  0  0  0  0  0
  -30.0579  -25.4098   21.2985 C   0  0  0  0  0  0
  -29.1416  -26.6514   21.3180 C   0  0  0  0  0  0
  -28.2758  -22.3324   21.0371 N   0  0  0  0  0  0
  -30.5475  -22.5248   21.6231 N   0  0  0  0  0  0
  -29.3291  -24.2849   20.7360 N   0  0  0  0  0  0
  -29.9183  -15.5491   20.5058 N   0  0  0  0  0  0
  -31.4966  -12.3573   19.1711 H   0  0  0  0  0  0
  -30.3198  -11.2862   19.8888 H   0  0  0  0  0  0
  -29.7459  -11.6093   17.5075 H   0  0  0  0  0  0
  -29.7407  -13.3318   17.6620 H   0  0  0  0  0  0
  -27.8027  -11.3013   18.7991 H   0  0  0  0  0  0
  -27.4103  -12.6391   17.7544 H   0  0  0  0  0  0
  -27.7007  -14.2438   19.5287 H   0  0  0  0  0  0
  -28.6690  -12.0153   21.3905 H   0  0  0  0  0  0
  -28.5113  -13.6957   21.8219 H   0  0  0  0  0  0
  -25.2868   -9.5730   22.4772 H   0  0  0  0  0  0
  -24.0079   -7.4684   22.7511 H   0  0  0  0  0  0
  -21.0909   -8.9042   19.8992 H   0  0  0  0  0  0
  -22.3956  -10.9809   19.6170 H   0  0  0  0  0  0
  -21.1995   -7.6179   23.9842 H   0  0  0  0  0  0
  -21.1379   -6.0488   25.9128 H   0  0  0  0  0  0
  -22.0606   -2.7674   23.2860 H   0  0  0  0  0  0
  -22.3950  -12.0116   22.4906 H   0  0  0  0  0  0
  -21.1150  -13.1645   22.2535 H   0  0  0  0  0  0
  -24.6953  -15.8629   20.4617 H   0  0  0  0  0  0
  -26.3323  -15.6100   20.1267 H   0  0  0  0  0  0
  -26.7073  -32.5626   23.1204 H   0  0  0  0  0  0
  -25.0094  -33.9833   25.0540 H   0  0  0  0  0  0
  -22.6742  -31.3124   21.4209 H   0  0  0  0  0  0
  -23.3834  -35.9501   23.3042 H   0  0  0  0  0  0
  -24.3647  -36.9157   22.2091 H   0  0  0  0  0  0
  -23.7060  -37.6353   23.6775 H   0  0  0  0  0  0
  -26.0129  -31.6139   20.5840 H   0  0  0  0  0  0
  -26.8023  -30.9212   21.9727 H   0  0  0  0  0  0
  -28.0670  -29.1624   21.2215 H   0  0  0  0  0  0
  -26.1251  -26.0031   19.0181 H   0  0  0  0  0  0
  -24.0016  -27.2845   19.0418 H   0  0  0  0  0  0
  -23.6881  -30.5915   19.4035 H   0  0  0  0  0  0
  -22.7229  -29.2314   19.8937 H   0  0  0  0  0  0
  -25.1184  -36.1925   25.0822 H   0  0  0  0  0  0
  -20.9944  -28.3227   24.1487 H   0  0  0  0  0  0
  -20.5606  -26.2253   23.3660 H   0  0  0  0  0  0
  -21.6636  -26.7416   22.1325 H   0  0  0  0  0  0
  -19.6901  -25.6294   21.1268 H   0  0  0  0  0  0
  -19.6721  -27.3182   20.6748 H   0  0  0  0  0  0
  -17.4218  -26.6783   21.3928 H   0  0  0  0  0  0
  -18.0189  -26.0065   22.8930 H   0  0  0  0  0  0
  -19.7922  -30.7228   24.2340 H   0  0  0  0  0  0
  -17.5010  -31.6273   24.5156 H   0  0  0  0  0  0
  -15.5330  -30.3005   23.7624 H   0  0  0  0  0  0
  -15.8658  -28.0833   22.7037 H   0  0  0  0  0  0
  -24.5911  -30.7111   25.7979 H   0  0  0  0  0  0
  -24.8941  -32.2985   26.4909 H   0  0  0  0  0  0
  -25.8163  -30.9094   27.0330 H   0  0  0  0  0  0
  -26.2615  -29.6891   24.1114 H   0  0  0  0  0  0
  -27.3858  -29.7183   25.4489 H   0  0  0  0  0  0
  -27.8507  -30.4258   23.9176 H   0  0  0  0  0  0
  -27.2772  -33.3623   26.1979 H   0  0  0  0  0  0
  -28.3857  -32.6806   25.0183 H   0  0  0  0  0  0
  -28.0776  -31.8415   26.5317 H   0  0  0  0  0  0
  -28.2360  -38.0261   24.7922 H   0  0  0  0  0  0
  -28.1418  -36.2873   24.5494 H   0  0  0  0  0  0
  -27.2502  -37.0536   25.8761 H   0  0  0  0  0  0
  -20.9227  -29.8729   21.7001 H   0  0  0  0  0  0
  -26.0077  -38.2851   24.1843 H   0  0  0  0  0  0
  -27.0189  -19.3332   20.9159 H   0  0  0  0  0  0
  -26.3309  -20.8771   20.4801 H   0  0  0  0  0  0
  -26.3517  -20.3908   22.1759 H   0  0  0  0  0  0
  -33.0201  -20.7221   24.3976 H   0  0  0  0  0  0
  -31.2721  -20.6666   24.6203 H   0  0  0  0  0  0
  -32.0462  -22.1734   24.1583 H   0  0  0  0  0  0
  -28.7160  -16.5496   19.0800 H   0  0  0  0  0  0
  -29.7971  -15.3978   18.3704 H   0  0  0  0  0  0
  -30.4600  -16.9024   18.9550 H   0  0  0  0  0  0
  -28.4497  -18.7432   22.9228 H   0  0  0  0  0  0
  -30.1581  -18.8119   23.2058 H   0  0  0  0  0  0
  -32.7185  -21.1917   21.9512 H   0  0  0  0  0  0
  -32.0193  -19.6644   22.3698 H   0  0  0  0  0  0
  -30.5923  -18.2461   20.8020 H   0  0  0  0  0  0
  -28.8598  -18.1123   20.5723 H   0  0  0  0  0  0
  -28.8629  -16.1301   22.2098 H   0  0  0  0  0  0
  -30.5767  -16.3034   22.3904 H   0  0  0  0  0  0
  -30.3980  -25.1704   22.3096 H   0  0  0  0  0  0
  -30.9463  -25.5904   20.6926 H   0  0  0  0  0  0
  -29.7276  -27.5607   21.4653 H   0  0  0  0  0  0
  -28.4500  -26.5699   22.1617 H   0  0  0  0  0  0
  -28.4100  -24.5412   20.4011 H   0  0  0  0  0  0
  1 25  1  0  0  0
  1 30  2  0  0  0
  1 87  1  0  0  0
  2  3  1  0  0  0
  2 25  1  0  0  0
  2 88  1  0  0  0
  2 89  1  0  0  0
  3  4  1  0  0  0
  3 90  1  0  0  0
  3 91  1  0  0  0
  4  5  1  0  0  0
  4 92  1  0  0  0
  4 93  1  0  0  0
  5  6  1  0  0  0
  5 26  1  0  0  0
  5 94  1  0  0  0
  6 25  1  0  0  0
  6 95  1  0  0  0
  6 96  1  0  0  0
  7  8  2  0  0  0
  7 26  1  0  0  0
  7 29  1  0  0  0
  8  9  1  0  0  0
  8 22  1  0  0  0
  9 10  1  0  0  0
  9 27  2  0  0  0
 10 11  2  0  0  0
 10 15  1  0  0  0
 11 12  1  0  0  0
 11 97  1  0  0  0
 12 13  2  0  0  0
 12 98  1  0  0  0
 13 14  1  0  0  0
 13 31  1  0  0  0
 14 15  2  0  0  0
 14 99  1  0  0  0
 15100  1  0  0  0
 16 17  2  0  0  0
 16 21  1  0  0  0
 16 31  1  0  0  0
 17 18  1  0  0  0
 17101  1  0  0  0
 18 19  2  0  0  0
 18102  1  0  0  0
 19 20  1  0  0  0
 19 24  1  0  0  0
 20 21  2  0  0  0
 20103  1  0  0  0
 21 23  1  0  0  0
 22 28  1  0  0  0
 22 32  2  0  0  0
 26 27  1  0  0  0
 28104  1  0  0  0
 28105  1  0  0  0
 29106  1  0  0  0
 29107  1  0  0  0
 33 34  1  0  0  0
 33 66  1  0  0  0
 33 70  2  0  0  0
 34 36  1  0  0  0
 34 59  1  0  0  0
 34108  1  0  0  0
 35 44  2  0  0  0
 35 45  1  0  0  0
 35 68  1  0  0  0
 36 56  1  0  0  0
 36109  1  0  0  0
 37 39  1  0  0  0
 37 47  1  0  0  0
 37 66  1  0  0  0
 37110  1  0  0  0
 38 43  2  0  0  0
 38 46  1  0  0  0
 38 47  1  0  0  0
 39 64  1  0  0  0
 39 67  2  0  0  0
 40 52  1  0  0  0
 40 53  2  0  0  0
 40 58  1  0  0  0
 41111  1  0  0  0
 41112  1  0  0  0
 41113  1  0  0  0
 41 48  1  0  0  0
 42 43  1  0  0  0
 42 66  1  0  0  0
 42114  1  0  0  0
 42115  1  0  0  0
 43 44  1  0  0  0
 44116  1  0  0  0
 45 46  2  0  0  0
 45117  1  0  0  0
 46118  1  0  0  0
 47119  1  0  0  0
 47120  1  0  0  0
 48 56  1  0  0  0
 48 65  1  0  0  0
 48121  1  0  0  0
 49 50  1  0  0  0
 49 53  1  0  0  0
 49 64  1  0  0  0
 49122  1  0  0  0
 50 51  1  0  0  0
 50123  1  0  0  0
 50124  1  0  0  0
 51 52  1  0  0  0
 51125  1  0  0  0
 51126  1  0  0  0
 52127  1  0  0  0
 52128  1  0  0  0
 53 54  1  0  0  0
 54 55  2  0  0  0
 54129  1  0  0  0
 55 57  1  0  0  0
 55130  1  0  0  0
 56 69  2  0  0  0
 57 58  2  0  0  0
 57131  1  0  0  0
 58132  1  0  0  0
 59 60  1  0  0  0
 59 61  1  0  0  0
 59 62  1  0  0  0
 60133  1  0  0  0
 60134  1  0  0  0
 60135  1  0  0  0
 61136  1  0  0  0
 61137  1  0  0  0
 61138  1  0  0  0
 62139  1  0  0  0
 62140  1  0  0  0
 62141  1  0  0  0
 63 65  1  0  0  0
 63142  1  0  0  0
 63143  1  0  0  0
 63144  1  0  0  0
 64145  1  0  0  0
 65146  1  0  0  0
 68 83  1  0  0  0
 71 72  2  0  0  0
 71 73  1  0  0  0
 71 78  1  0  0  0
 72 75  1  0  0  0
 72 84  1  0  0  0
 73 79  1  0  0  0
 73 85  2  0  0  0
 74 84  2  0  0  0
 74 85  1  0  0  0
 74 86  1  0  0  0
 75147  1  0  0  0
 75148  1  0  0  0
 75149  1  0  0  0
 76 79  1  0  0  0
 76150  1  0  0  0
 76151  1  0  0  0
 76152  1  0  0  0
 77 87  1  0  0  0
 77153  1  0  0  0
 77154  1  0  0  0
 77155  1  0  0  0
 78 80  1  0  0  0
 78156  1  0  0  0
 78157  1  0  0  0
 79158  1  0  0  0
 79159  1  0  0  0
 80 81  1  0  0  0
 80160  1  0  0  0
 80161  1  0  0  0
 81 87  1  0  0  0
 81162  1  0  0  0
 81163  1  0  0  0
 82 83  1  0  0  0
 82 86  1  0  0  0
 82164  1  0  0  0
 82165  1  0  0  0
 83166  1  0  0  0
 83167  1  0  0  0
 86168  1  0  0  0
M  ISO  4   1 100  68 101  83 101  87 100
M  END
> <chiral flag>
0

> <version>
0

> <s_m_source_file>
/data/baiqing/PycharmProjects/Reinvent-master-3.2/result/LINK_invent/BTK/process_docking_weight1_custom_sum_contain_oxygen_bond_distance_aromatic_linkinvent_7_9_3/rearranged_h_0028.sdf

> <i_m_source_file_index>
81

> <r_mmod_Potential_Energy-OPLS-2005>
-430.040985107422

> <r_mmod_Stretch_Energy-OPLS-2005>
37.3247337341309

> <r_mmod_Bend_Energy-OPLS-2005>
108.641792297363

> <r_mmod_Torsional_Energy-OPLS-2005>
315.510803222656

> <r_mmod_Improper_Torsional_Energy-OPLS-2005>
20.5147743225098

> <r_mmod_Van_der_Waal_Energy-OPLS-2005>
166.845001220703

> <r_mmod_Electrostatic_Energy-OPLS-2005>
-870.369384765625

> <r_mmod_Solvation_Energy-OPLS-2005>
-226.560440063477

> <b_mmod_Minimization_Converged-OPLS-2005>
0

> <r_mmod_RMS_Derivative-OPLS-2005>
6.20029973983765

$$$$
81
                    3D
 Structure written by MMmdl.
147155  0  0  1  0            999 V2000
  -30.2938  -15.5964   20.3488 C   0  0  0  0  0  0
  -30.4273  -13.0537   19.5440 C   0  0  0  0  0  0
  -29.5514  -12.6563   18.3210 C   0  0  0  0  0  0
  -28.1201  -12.3052   18.7562 C   0  0  0  0  0  0
  -27.5956  -13.3048   19.8125 C   0  0  2  0  0  0
  -28.6104  -13.6142   20.9377 C   0  0  0  0  0  0
  -25.2313  -13.8257   20.5784 C   0  0  0  0  0  0
  -24.1710  -13.0419   20.9285 C   0  0  0  0  0  0
  -24.6395  -11.6925   20.8739 C   0  0  0  0  0  0
  -23.9093  -10.4287   21.0379 C   0  0  0  0  0  0
  -24.3630   -9.4210   21.9165 C   0  0  0  0  0  0
  -23.6310   -8.2243   22.0737 C   0  0  0  0  0  0
  -22.4292   -8.0270   21.3530 C   0  0  0  0  0  0
  -21.9925   -9.0238   20.4628 C   0  0  0  0  0  0
  -22.7254  -10.2118   20.3039 C   0  0  0  0  0  0
  -21.6865   -6.0730   22.5275 C   0  0  0  0  0  0
  -21.4013   -6.5632   23.8205 C   0  0  0  0  0  0
  -21.3664   -5.6789   24.9174 C   0  0  0  0  0  0
  -21.6049   -4.3051   24.7228 C   0  0  0  0  0  0
  -21.8819   -3.8138   23.4348 C   0  0  0  0  0  0
  -21.9193   -4.6955   22.3403 C   0  0  0  0  0  0
  -22.7726  -13.5148   21.1941 C   0  0  0  0  0  0
  -22.1671   -4.2137   21.0986 F   0  0  0  0  0  0
  -21.5632   -3.4541   25.7743 F   0  0  0  0  0  0
  -29.7931  -14.2270   20.2921 N   0  0  0  0  0  0
  -26.2755  -12.9589   20.3192 N   0  0  0  0  0  0
  -25.9341  -11.6658   20.5659 N   0  0  0  0  0  0
  -22.0394  -12.8122   22.0488 N   0  0  0  0  0  0
  -25.3884  -15.2001   20.4240 N   0  0  0  0  0  0
  -31.5299  -15.5706   20.1913 O   0  0  0  0  0  0
  -21.6650   -6.8872   21.4237 O   0  0  0  0  0  0
  -22.3407  -14.5457   20.6791 O   0  0  0  0  0  0
  -24.6833  -31.8032   23.1539 C   0  0  0  0  0  0
  -25.9412  -32.4489   23.8091 C   0  0  1  0  0  0
  -27.2152  -26.7085   20.2286 C   0  0  0  0  0  0
  -25.5994  -33.8310   24.1985 N   0  0  0  0  0  0
  -23.5087  -30.4061   21.5088 C   0  0  2  0  0  0
  -24.9646  -28.7503   20.1234 C   0  0  0  0  0  0
  -22.7770  -29.4333   22.4730 C   0  0  0  0  0  0
  -18.0348  -28.1422   22.8473 C   0  0  0  0  0  0
  -24.1493  -36.7170   23.2650 C   0  0  0  0  0  0
  -26.0897  -30.5372   21.4190 C   0  0  0  0  0  0
  -26.1534  -29.1013   20.7752 C   0  0  0  0  0  0
  -27.2672  -28.1094   20.7948 C   0  0  0  0  0  0
  -26.0047  -26.5794   19.5000 C   0  0  0  0  0  0
  -24.9292  -27.5138   19.4612 C   0  0  0  0  0  0
  -23.7617  -29.7048   20.1437 C   0  0  0  0  0  0
  -25.4138  -36.2913   24.0290 C   0  0  1  0  0  0
  -20.5984  -28.3779   23.1156 C   0  0  2  0  0  0
  -20.6804  -26.9438   22.5408 C   0  0  0  0  0  0
  -19.5771  -26.6381   21.5223 C   0  0  0  0  0  0
  -18.1962  -26.7962   22.1634 C   0  0  0  0  0  0
  -19.1614  -28.8929   23.2800 C   0  0  0  0  0  0
  -18.9510  -30.1515   23.8845 C   0  0  0  0  0  0
  -17.6492  -30.6603   24.0554 C   0  0  0  0  0  0
  -25.9116  -34.9295   23.4970 C   0  0  0  0  0  0
  -16.5385  -29.9083   23.6338 C   0  0  0  0  0  0
  -16.7329  -28.6499   23.0375 C   0  0  0  0  0  0
  -26.4589  -31.6512   25.0703 C   0  0  0  0  0  0
  -25.3649  -31.3788   26.1304 C   0  0  0  0  0  0
  -27.0521  -30.2864   24.6564 C   0  0  0  0  0  0
  -27.6043  -32.4366   25.7515 C   0  0  0  0  0  0
  -27.5566  -37.1740   24.8469 C   0  0  0  0  0  0
  -21.4418  -29.3034   22.3481 N   0  0  0  0  0  0
  -26.4277  -37.3664   23.9405 N   0  0  0  0  0  0
  -24.7842  -30.9486   22.0795 N   0  0  0  0  0  0
  -23.4216  -28.7925   23.3062 O   0  0  0  0  0  0
  -28.1720  -25.4841   20.2320 O   0  0  0  0  0  0
  -26.5752  -34.8864   22.4582 O   0  0  0  0  0  0
  -23.5850  -32.1110   23.6481 O   0  0  0  0  0  0
  -27.7843  -20.8609   19.9980 C   0  0  0  0  0  0
  -30.1570  -19.8096   20.7092 C   0  0  0  0  0  0
  -28.5862  -22.0610   20.3588 C   0  0  0  0  0  0
  -29.3223  -18.6198   20.3482 C   0  0  0  0  0  0
  -28.0906  -19.3701   19.9911 C   0  0  0  0  0  0
  -29.8356  -21.3198   20.7317 C   0  0  0  0  0  0
  -26.4166  -23.6473   20.8223 C   0  0  0  0  0  0
  -27.9352  -23.7934   20.6385 C   0  0  1  0  0  0
  -29.4555  -16.9012   20.3751 N   0  0  0  0  0  0
  -27.0547  -18.5834   19.6142 F   0  0  0  0  0  0
  -31.1019  -22.3182   21.3459 Cl  0  0  0  0  0  0
  -31.4250  -13.3125   19.1890 H   0  0  0  0  0  0
  -30.5745  -12.2003   20.2083 H   0  0  0  0  0  0
  -30.0017  -11.8201   17.7852 H   0  0  0  0  0  0
  -29.5220  -13.4906   17.6178 H   0  0  0  0  0  0
  -28.1372  -11.3009   19.1808 H   0  0  0  0  0  0
  -27.4525  -12.2648   17.8939 H   0  0  0  0  0  0
  -27.4647  -14.2346   19.2568 H   0  0  0  0  0  0
  -28.8549  -12.7254   21.5219 H   0  0  0  0  0  0
  -28.1788  -14.3326   21.6366 H   0  0  0  0  0  0
  -25.2755   -9.5703   22.4754 H   0  0  0  0  0  0
  -24.0013   -7.4641   22.7460 H   0  0  0  0  0  0
  -21.0851   -8.8747   19.8944 H   0  0  0  0  0  0
  -22.3676  -10.9656   19.6163 H   0  0  0  0  0  0
  -21.1997   -7.6139   23.9705 H   0  0  0  0  0  0
  -21.1498   -6.0523   25.9076 H   0  0  0  0  0  0
  -22.0590   -2.7597   23.2855 H   0  0  0  0  0  0
  -22.4057  -11.9806   22.4884 H   0  0  0  0  0  0
  -21.0989  -13.1092   22.2680 H   0  0  0  0  0  0
  -24.6073  -15.8380   20.5350 H   0  0  0  0  0  0
  -26.2115  -15.6476   20.0450 H   0  0  0  0  0  0
  -26.7505  -32.4964   23.0814 H   0  0  0  0  0  0
  -25.0048  -33.9366   25.0078 H   0  0  0  0  0  0
  -22.8318  -31.2427   21.3214 H   0  0  0  0  0  0
  -23.3757  -35.9503   23.3310 H   0  0  0  0  0  0
  -24.3557  -36.8822   22.2065 H   0  0  0  0  0  0
  -23.7261  -37.6358   23.6718 H   0  0  0  0  0  0
  -26.2880  -31.2583   20.6249 H   0  0  0  0  0  0
  -26.9429  -30.6097   22.0805 H   0  0  0  0  0  0
  -28.1651  -28.3877   21.3284 H   0  0  0  0  0  0
  -25.8527  -25.6561   18.9602 H   0  0  0  0  0  0
  -24.0394  -27.2403   18.9103 H   0  0  0  0  0  0
  -23.9376  -30.4666   19.3835 H   0  0  0  0  0  0
  -22.8665  -29.1725   19.8180 H   0  0  0  0  0  0
  -25.1341  -36.1698   25.0784 H   0  0  0  0  0  0
  -21.0071  -28.3404   24.1278 H   0  0  0  0  0  0
  -20.5667  -26.2396   23.3666 H   0  0  0  0  0  0
  -21.6660  -26.7373   22.1218 H   0  0  0  0  0  0
  -19.6908  -25.6274   21.1295 H   0  0  0  0  0  0
  -19.6719  -27.3151   20.6722 H   0  0  0  0  0  0
  -17.4226  -26.6729   21.4043 H   0  0  0  0  0  0
  -18.0345  -26.0124   22.9045 H   0  0  0  0  0  0
  -19.7977  -30.7359   24.2191 H   0  0  0  0  0  0
  -17.5028  -31.6275   24.5167 H   0  0  0  0  0  0
  -15.5377  -30.2949   23.7690 H   0  0  0  0  0  0
  -15.8743  -28.0778   22.7125 H   0  0  0  0  0  0
  -24.5906  -30.7064   25.7594 H   0  0  0  0  0  0
  -24.8743  -32.2976   26.4517 H   0  0  0  0  0  0
  -25.7830  -30.9106   27.0220 H   0  0  0  0  0  0
  -26.3230  -29.6497   24.1539 H   0  0  0  0  0  0
  -27.3958  -29.7288   25.5284 H   0  0  0  0  0  0
  -27.9207  -30.4030   24.0081 H   0  0  0  0  0  0
  -27.2589  -33.3719   26.1927 H   0  0  0  0  0  0
  -28.3924  -32.6843   25.0395 H   0  0  0  0  0  0
  -28.0637  -31.8609   26.5559 H   0  0  0  0  0  0
  -28.2554  -38.0059   24.7496 H   0  0  0  0  0  0
  -28.1091  -36.2579   24.6321 H   0  0  0  0  0  0
  -27.2280  -37.1400   25.8871 H   0  0  0  0  0  0
  -20.9715  -29.8701   21.6565 H   0  0  0  0  0  0
  -26.0118  -38.2722   24.1396 H   0  0  0  0  0  0
  -26.7634  -21.0830   19.7260 H   0  0  0  0  0  0
  -31.1475  -19.5620   21.0618 H   0  0  0  0  0  0
  -25.9089  -23.5065   19.8688 H   0  0  0  0  0  0
  -25.9804  -24.5107   21.3234 H   0  0  0  0  0  0
  -26.1807  -22.7870   21.4505 H   0  0  0  0  0  0
  -28.3036  -23.8843   21.6603 H   0  0  0  0  0  0
  -28.5092  -16.5515   20.3674 H   0  0  0  0  0  0
  1 25  1  0  0  0
  1 30  2  0  0  0
  1 79  1  0  0  0
  2  3  1  0  0  0
  2 25  1  0  0  0
  2 82  1  0  0  0
  2 83  1  0  0  0
  3  4  1  0  0  0
  3 84  1  0  0  0
  3 85  1  0  0  0
  4  5  1  0  0  0
  4 86  1  0  0  0
  4 87  1  0  0  0
  5  6  1  0  0  0
  5 26  1  0  0  0
  5 88  1  0  0  0
  6 25  1  0  0  0
  6 89  1  0  0  0
  6 90  1  0  0  0
  7  8  2  0  0  0
  7 26  1  0  0  0
  7 29  1  0  0  0
  8  9  1  0  0  0
  8 22  1  0  0  0
  9 10  1  0  0  0
  9 27  2  0  0  0
 10 11  2  0  0  0
 10 15  1  0  0  0
 11 12  1  0  0  0
 11 91  1  0  0  0
 12 13  2  0  0  0
 12 92  1  0  0  0
 13 14  1  0  0  0
 13 31  1  0  0  0
 14 15  2  0  0  0
 14 93  1  0  0  0
 15 94  1  0  0  0
 16 17  2  0  0  0
 16 21  1  0  0  0
 16 31  1  0  0  0
 17 18  1  0  0  0
 17 95  1  0  0  0
 18 19  2  0  0  0
 18 96  1  0  0  0
 19 20  1  0  0  0
 19 24  1  0  0  0
 20 21  2  0  0  0
 20 97  1  0  0  0
 21 23  1  0  0  0
 22 28  1  0  0  0
 22 32  2  0  0  0
 26 27  1  0  0  0
 28 98  1  0  0  0
 28 99  1  0  0  0
 29100  1  0  0  0
 29101  1  0  0  0
 33 34  1  0  0  0
 33 66  1  0  0  0
 33 70  2  0  0  0
 34 36  1  0  0  0
 34 59  1  0  0  0
 34102  1  0  0  0
 35 44  2  0  0  0
 35 45  1  0  0  0
 35 68  1  0  0  0
 36 56  1  0  0  0
 36103  1  0  0  0
 37 39  1  0  0  0
 37 47  1  0  0  0
 37 66  1  0  0  0
 37104  1  0  0  0
 38 43  2  0  0  0
 38 46  1  0  0  0
 38 47  1  0  0  0
 39 64  1  0  0  0
 39 67  2  0  0  0
 40 52  1  0  0  0
 40 53  2  0  0  0
 40 58  1  0  0  0
 41105  1  0  0  0
 41106  1  0  0  0
 41107  1  0  0  0
 41 48  1  0  0  0
 42 43  1  0  0  0
 42 66  1  0  0  0
 42108  1  0  0  0
 42109  1  0  0  0
 43 44  1  0  0  0
 44110  1  0  0  0
 45 46  2  0  0  0
 45111  1  0  0  0
 46112  1  0  0  0
 47113  1  0  0  0
 47114  1  0  0  0
 48 56  1  0  0  0
 48 65  1  0  0  0
 48115  1  0  0  0
 49 50  1  0  0  0
 49 53  1  0  0  0
 49 64  1  0  0  0
 49116  1  0  0  0
 50 51  1  0  0  0
 50117  1  0  0  0
 50118  1  0  0  0
 51 52  1  0  0  0
 51119  1  0  0  0
 51120  1  0  0  0
 52121  1  0  0  0
 52122  1  0  0  0
 53 54  1  0  0  0
 54 55  2  0  0  0
 54123  1  0  0  0
 55 57  1  0  0  0
 55124  1  0  0  0
 56 69  2  0  0  0
 57 58  2  0  0  0
 57125  1  0  0  0
 58126  1  0  0  0
 59 60  1  0  0  0
 59 61  1  0  0  0
 59 62  1  0  0  0
 60127  1  0  0  0
 60128  1  0  0  0
 60129  1  0  0  0
 61130  1  0  0  0
 61131  1  0  0  0
 61132  1  0  0  0
 62133  1  0  0  0
 62134  1  0  0  0
 62135  1  0  0  0
 63 65  1  0  0  0
 63136  1  0  0  0
 63137  1  0  0  0
 63138  1  0  0  0
 64139  1  0  0  0
 65140  1  0  0  0
 68 78  1  0  0  0
 71 73  2  0  0  0
 71 75  1  0  0  0
 71141  1  0  0  0
 72 74  1  0  0  0
 72 76  2  0  0  0
 72142  1  0  0  0
 73 76  1  0  0  0
 73 78  1  0  0  0
 74 75  2  0  0  0
 74 79  1  0  0  0
 75 80  1  0  0  0
 76 81  1  0  0  0
 77143  1  0  0  0
 77144  1  0  0  0
 77145  1  0  0  0
 77 78  1  0  0  0
 78146  1  0  0  0
 79147  1  0  0  0
M  ISO  4   1 100  68 101  78 101  79 100
M  END
> <chiral flag>
0

> <version>
0

> <s_m_source_file>
/data/baiqing/PycharmProjects/Reinvent-master-3.2/result/LINK_invent/BTK/process_docking_weight1_custom_sum_contain_oxygen_bond_distance_aromatic_linkinvent_7_9_3/rearranged_h_0028.sdf

> <i_m_source_file_index>
82

> <r_mmod_Potential_Energy-OPLS-2005>
2253.3681640625

> <r_mmod_Stretch_Energy-OPLS-2005>
915.474914550781

> <r_mmod_Bend_Energy-OPLS-2005>
686.812194824219

> <r_mmod_Torsional_Energy-OPLS-2005>
252.921585083008

> <r_mmod_Improper_Torsional_Energy-OPLS-2005>
8.58638191223145

> <r_mmod_Van_der_Waal_Energy-OPLS-2005>
130.50341796875

> <r_mmod_Electrostatic_Energy-OPLS-2005>
-399.727600097656

> <r_mmod_Solvation_Energy-OPLS-2005>
-207.764205932617

> <b_mmod_Minimization_Converged-OPLS-2005>
0

> <r_mmod_RMS_Derivative-OPLS-2005>
1.90397155284882

$$$$
82
                    3D
 Structure written by MMmdl.
168176  0  0  1  0            999 V2000
  -30.8580  -14.2410   20.7636 C   0  0  0  0  0  0
  -30.4065  -12.2790   19.3585 C   0  0  0  0  0  0
  -29.4660  -12.5444   18.1756 C   0  0  0  0  0  0
  -28.0002  -12.3818   18.6086 C   0  0  0  0  0  0
  -27.6674  -13.2052   19.8789 C   0  0  2  0  0  0
  -28.7092  -12.9591   20.9935 C   0  0  0  0  0  0
  -25.2609  -13.8163   20.5683 C   0  0  0  0  0  0
  -24.1847  -13.0438   20.9155 C   0  0  0  0  0  0
  -24.6401  -11.6904   20.8717 C   0  0  0  0  0  0
  -23.9059  -10.4292   21.0387 C   0  0  0  0  0  0
  -24.3610   -9.4210   21.9167 C   0  0  0  0  0  0
  -23.6291   -8.2246   22.0749 C   0  0  0  0  0  0
  -22.4271   -8.0282   21.3545 C   0  0  0  0  0  0
  -21.9905   -9.0246   20.4641 C   0  0  0  0  0  0
  -22.7227  -10.2127   20.3043 C   0  0  0  0  0  0
  -21.6856   -6.0731   22.5276 C   0  0  0  0  0  0
  -21.4013   -6.5637   23.8207 C   0  0  0  0  0  0
  -21.3661   -5.6792   24.9173 C   0  0  0  0  0  0
  -21.6043   -4.3054   24.7221 C   0  0  0  0  0  0
  -21.8824   -3.8141   23.4344 C   0  0  0  0  0  0
  -21.9193   -4.6959   22.3396 C   0  0  0  0  0  0
  -22.7871  -13.5237   21.1822 C   0  0  0  0  0  0
  -22.1664   -4.2144   21.0976 F   0  0  0  0  0  0
  -21.5627   -3.4537   25.7733 F   0  0  0  0  0  0
  -30.0638  -13.1912   20.4548 N   0  0  0  0  0  0
  -26.3063  -12.9340   20.3411 N   0  0  0  0  0  0
  -25.9333  -11.6489   20.5760 N   0  0  0  0  0  0
  -22.0518  -12.8231   22.0391 N   0  0  0  0  0  0
  -25.4344  -15.1877   20.4102 N   0  0  0  0  0  0
  -31.7324  -14.6891   20.0158 O   0  0  0  0  0  0
  -21.6645   -6.8875   21.4238 O   0  0  0  0  0  0
  -22.3552  -14.5543   20.6676 O   0  0  0  0  0  0
  -24.6116  -31.8694   23.2105 C   0  0  0  0  0  0
  -25.9017  -32.4830   23.8396 C   0  0  1  0  0  0
  -27.2422  -27.4709   20.0862 C   0  0  0  0  0  0
  -25.5886  -33.8631   24.2332 N   0  0  0  0  0  0
  -23.3979  -30.4915   21.5509 C   0  0  2  0  0  0
  -24.8434  -28.9582   20.1168 C   0  0  0  0  0  0
  -22.7396  -29.4663   22.5008 C   0  0  0  0  0  0
  -18.0271  -28.1371   22.8499 C   0  0  0  0  0  0
  -24.1486  -36.7310   23.2643 C   0  0  0  0  0  0
  -25.9222  -30.8468   21.3560 C   0  0  0  0  0  0
  -26.0001  -29.4836   20.7043 C   0  0  0  0  0  0
  -27.2022  -28.7488   20.6806 C   0  0  0  0  0  0
  -26.0668  -26.9427   19.5065 C   0  0  0  0  0  0
  -24.8687  -27.6851   19.5188 C   0  0  0  0  0  0
  -23.6020  -29.8195   20.1655 C   0  0  0  0  0  0
  -25.4105  -36.3119   24.0350 C   0  0  1  0  0  0
  -20.5853  -28.3642   23.1337 C   0  0  2  0  0  0
  -20.6760  -26.9381   22.5426 C   0  0  0  0  0  0
  -19.5741  -26.6375   21.5221 C   0  0  0  0  0  0
  -18.1916  -26.7921   22.1618 C   0  0  0  0  0  0
  -19.1517  -28.8825   23.2913 C   0  0  0  0  0  0
  -18.9446  -30.1438   23.8910 C   0  0  0  0  0  0
  -17.6447  -30.6576   24.0571 C   0  0  0  0  0  0
  -25.9032  -34.9483   23.5140 C   0  0  0  0  0  0
  -16.5344  -29.9079   23.6330 C   0  0  0  0  0  0
  -16.7261  -28.6501   23.0347 C   0  0  0  0  0  0
  -26.4455  -31.6612   25.0721 C   0  0  0  0  0  0
  -25.3732  -31.3710   26.1481 C   0  0  0  0  0  0
  -27.0290  -30.3072   24.6064 C   0  0  0  0  0  0
  -27.6043  -32.4334   25.7471 C   0  0  0  0  0  0
  -27.5587  -37.1800   24.8467 C   0  0  0  0  0  0
  -21.4128  -29.3014   22.3749 N   0  0  0  0  0  0
  -26.4291  -37.3805   23.9428 N   0  0  0  0  0  0
  -24.6623  -31.0831   22.0981 N   0  0  0  0  0  0
  -23.4192  -28.8209   23.3033 O   0  0  0  0  0  0
  -28.4426  -26.8014   20.0734 O   0  0  0  0  0  0
  -26.5601  -34.8935   22.4704 O   0  0  0  0  0  0
  -23.5322  -32.1432   23.7523 O   0  0  0  0  0  0
  -30.4338  -21.2210   23.4258 C   0  0  0  0  0  0
  -29.0958  -21.3024   23.8614 C   0  0  0  0  0  0
  -28.2316  -20.1909   23.6648 C   0  0  0  0  0  0
  -30.0930  -18.9333   22.6569 C   0  0  0  0  0  0
  -30.9355  -20.0536   22.8310 C   0  0  0  0  0  0
  -28.7379  -19.0112   23.0626 C   0  0  0  0  0  0
  -26.7666  -20.2137   24.0929 C   0  0  0  0  0  0
  -30.6562  -17.6325   22.1014 C   0  0  0  0  0  0
  -28.6594  -22.5939   24.5517 C   0  0  0  0  0  0
  -31.1408  -16.7234   23.2429 C   0  0  0  0  0  0
  -27.9121  -25.1042   21.7551 C   0  0  0  0  0  0
  -31.7684  -15.4129   22.7613 C   0  0  0  0  0  0
  -28.5434  -23.8526   22.3873 C   0  0  0  0  0  0
  -28.4421  -25.4011   20.3394 C   0  0  0  0  0  0
  -30.7979  -14.5808   22.0542 N   0  0  0  0  0  0
  -27.8976  -23.5058   23.6733 N   0  3  0  0  0  0
  -32.6006  -20.0252   22.3630 Cl  0  0  0  0  0  0
  -27.6918  -17.6431   22.8514 Cl  0  0  0  0  0  0
  -31.4470  -12.3830   19.0416 H   0  0  0  0  0  0
  -30.3042  -11.2480   19.7001 H   0  0  0  0  0  0
  -29.6914  -11.8639   17.3532 H   0  0  0  0  0  0
  -29.6287  -13.5531   17.7941 H   0  0  0  0  0  0
  -27.8213  -11.3221   18.7947 H   0  0  0  0  0  0
  -27.3336  -12.6648   17.7934 H   0  0  0  0  0  0
  -27.7250  -14.2580   19.6015 H   0  0  0  0  0  0
  -28.6445  -11.9339   21.3602 H   0  0  0  0  0  0
  -28.4751  -13.6007   21.8446 H   0  0  0  0  0  0
  -25.2757   -9.5689   22.4735 H   0  0  0  0  0  0
  -23.9999   -7.4643   22.7474 H   0  0  0  0  0  0
  -21.0837   -8.8753   19.8951 H   0  0  0  0  0  0
  -22.3679  -10.9656   19.6148 H   0  0  0  0  0  0
  -21.2011   -7.6149   23.9709 H   0  0  0  0  0  0
  -21.1477   -6.0523   25.9077 H   0  0  0  0  0  0
  -22.0601   -2.7603   23.2841 H   0  0  0  0  0  0
  -22.4145  -11.9895   22.4777 H   0  0  0  0  0  0
  -21.1128  -13.1243   22.2578 H   0  0  0  0  0  0
  -24.6795  -15.8502   20.5465 H   0  0  0  0  0  0
  -26.3086  -15.6293   20.1544 H   0  0  0  0  0  0
  -26.7095  -32.5543   23.1175 H   0  0  0  0  0  0
  -25.0061  -33.9808   25.0491 H   0  0  0  0  0  0
  -22.6854  -31.3061   21.4110 H   0  0  0  0  0  0
  -23.3761  -35.9626   23.3308 H   0  0  0  0  0  0
  -24.3577  -36.8915   22.2053 H   0  0  0  0  0  0
  -23.7217  -37.6513   23.6647 H   0  0  0  0  0  0
  -26.0326  -31.6151   20.5889 H   0  0  0  0  0  0
  -26.8123  -30.8974   21.9720 H   0  0  0  0  0  0
  -28.1005  -29.1576   21.1224 H   0  0  0  0  0  0
  -26.0690  -25.9735   19.0307 H   0  0  0  0  0  0
  -23.9775  -27.2724   19.0677 H   0  0  0  0  0  0
  -23.7020  -30.5926   19.4023 H   0  0  0  0  0  0
  -22.7286  -29.2321   19.8752 H   0  0  0  0  0  0
  -25.1273  -36.1989   25.0843 H   0  0  0  0  0  0
  -20.9942  -28.3178   24.1453 H   0  0  0  0  0  0
  -20.5663  -26.2233   23.3596 H   0  0  0  0  0  0
  -21.6627  -26.7425   22.1202 H   0  0  0  0  0  0
  -19.6902  -25.6295   21.1223 H   0  0  0  0  0  0
  -19.6694  -27.3207   20.6771 H   0  0  0  0  0  0
  -17.4197  -26.6691   21.4011 H   0  0  0  0  0  0
  -18.0298  -26.0053   22.8998 H   0  0  0  0  0  0
  -19.7929  -30.7252   24.2265 H   0  0  0  0  0  0
  -17.5015  -31.6259   24.5166 H   0  0  0  0  0  0
  -15.5347  -30.2993   23.7656 H   0  0  0  0  0  0
  -15.8656  -28.0835   22.7050 H   0  0  0  0  0  0
  -24.5888  -30.7077   25.7820 H   0  0  0  0  0  0
  -24.8943  -32.2869   26.4957 H   0  0  0  0  0  0
  -25.8085  -30.8858   27.0226 H   0  0  0  0  0  0
  -26.2824  -29.6828   24.1150 H   0  0  0  0  0  0
  -27.4140  -29.7303   25.4479 H   0  0  0  0  0  0
  -27.8611  -30.4433   23.9155 H   0  0  0  0  0  0
  -27.2666  -33.3621   26.2089 H   0  0  0  0  0  0
  -28.3818  -32.6921   25.0269 H   0  0  0  0  0  0
  -28.0758  -31.8444   26.5354 H   0  0  0  0  0  0
  -28.2597  -38.0106   24.7541 H   0  0  0  0  0  0
  -28.1089  -36.2642   24.6253 H   0  0  0  0  0  0
  -27.2316  -37.1402   25.8872 H   0  0  0  0  0  0
  -20.9282  -29.8733   21.6974 H   0  0  0  0  0  0
  -26.0187  -38.2888   24.1433 H   0  0  0  0  0  0
  -31.1042  -22.0575   23.5654 H   0  0  0  0  0  0
  -26.4687  -21.1052   24.6381 H   0  0  0  0  0  0
  -26.5482  -19.3624   24.7388 H   0  0  0  0  0  0
  -26.1235  -20.1368   23.2152 H   0  0  0  0  0  0
  -31.4721  -17.8294   21.4061 H   0  0  0  0  0  0
  -29.9031  -17.1267   21.4989 H   0  0  0  0  0  0
  -29.5420  -23.1239   24.9148 H   0  0  0  0  0  0
  -28.0819  -22.3688   25.4486 H   0  0  0  0  0  0
  -30.3125  -16.5038   23.9178 H   0  0  0  0  0  0
  -31.8791  -17.2606   23.8402 H   0  0  0  0  0  0
  -28.1205  -25.9568   22.4027 H   0  0  0  0  0  0
  -26.8266  -25.0065   21.7109 H   0  0  0  0  0  0
  -32.1350  -14.8485   23.6188 H   0  0  0  0  0  0
  -32.6483  -15.6252   22.1498 H   0  0  0  0  0  0
  -29.6062  -24.0395   22.5494 H   0  0  0  0  0  0
  -28.4750  -23.0045   21.7041 H   0  0  0  0  0  0
  -27.9031  -24.8328   19.5810 H   0  0  0  0  0  0
  -29.4823  -25.0812   20.2654 H   0  0  0  0  0  0
  -30.1091  -14.0963   22.6120 H   0  0  0  0  0  0
  -27.7495  -24.3524   24.1981 H   0  0  0  0  0  0
  -26.9930  -23.1059   23.4892 H   0  0  0  0  0  0
  1 25  1  0  0  0
  1 30  2  0  0  0
  1 85  1  0  0  0
  2  3  1  0  0  0
  2 25  1  0  0  0
  2 89  1  0  0  0
  2 90  1  0  0  0
  3  4  1  0  0  0
  3 91  1  0  0  0
  3 92  1  0  0  0
  4  5  1  0  0  0
  4 93  1  0  0  0
  4 94  1  0  0  0
  5  6  1  0  0  0
  5 26  1  0  0  0
  5 95  1  0  0  0
  6 25  1  0  0  0
  6 96  1  0  0  0
  6 97  1  0  0  0
  7  8  2  0  0  0
  7 26  1  0  0  0
  7 29  1  0  0  0
  8  9  1  0  0  0
  8 22  1  0  0  0
  9 10  1  0  0  0
  9 27  2  0  0  0
 10 11  2  0  0  0
 10 15  1  0  0  0
 11 12  1  0  0  0
 11 98  1  0  0  0
 12 13  2  0  0  0
 12 99  1  0  0  0
 13 14  1  0  0  0
 13 31  1  0  0  0
 14 15  2  0  0  0
 14100  1  0  0  0
 15101  1  0  0  0
 16 17  2  0  0  0
 16 21  1  0  0  0
 16 31  1  0  0  0
 17 18  1  0  0  0
 17102  1  0  0  0
 18 19  2  0  0  0
 18103  1  0  0  0
 19 20  1  0  0  0
 19 24  1  0  0  0
 20 21  2  0  0  0
 20104  1  0  0  0
 21 23  1  0  0  0
 22 28  1  0  0  0
 22 32  2  0  0  0
 26 27  1  0  0  0
 28105  1  0  0  0
 28106  1  0  0  0
 29107  1  0  0  0
 29108  1  0  0  0
 33 34  1  0  0  0
 33 66  1  0  0  0
 33 70  2  0  0  0
 34 36  1  0  0  0
 34 59  1  0  0  0
 34109  1  0  0  0
 35 44  2  0  0  0
 35 45  1  0  0  0
 35 68  1  0  0  0
 36 56  1  0  0  0
 36110  1  0  0  0
 37 39  1  0  0  0
 37 47  1  0  0  0
 37 66  1  0  0  0
 37111  1  0  0  0
 38 43  2  0  0  0
 38 46  1  0  0  0
 38 47  1  0  0  0
 39 64  1  0  0  0
 39 67  2  0  0  0
 40 52  1  0  0  0
 40 53  2  0  0  0
 40 58  1  0  0  0
 41112  1  0  0  0
 41113  1  0  0  0
 41114  1  0  0  0
 41 48  1  0  0  0
 42 43  1  0  0  0
 42 66  1  0  0  0
 42115  1  0  0  0
 42116  1  0  0  0
 43 44  1  0  0  0
 44117  1  0  0  0
 45 46  2  0  0  0
 45118  1  0  0  0
 46119  1  0  0  0
 47120  1  0  0  0
 47121  1  0  0  0
 48 56  1  0  0  0
 48 65  1  0  0  0
 48122  1  0  0  0
 49 50  1  0  0  0
 49 53  1  0  0  0
 49 64  1  0  0  0
 49123  1  0  0  0
 50 51  1  0  0  0
 50124  1  0  0  0
 50125  1  0  0  0
 51 52  1  0  0  0
 51126  1  0  0  0
 51127  1  0  0  0
 52128  1  0  0  0
 52129  1  0  0  0
 53 54  1  0  0  0
 54 55  2  0  0  0
 54130  1  0  0  0
 55 57  1  0  0  0
 55131  1  0  0  0
 56 69  2  0  0  0
 57 58  2  0  0  0
 57132  1  0  0  0
 58133  1  0  0  0
 59 60  1  0  0  0
 59 61  1  0  0  0
 59 62  1  0  0  0
 60134  1  0  0  0
 60135  1  0  0  0
 60136  1  0  0  0
 61137  1  0  0  0
 61138  1  0  0  0
 61139  1  0  0  0
 62140  1  0  0  0
 62141  1  0  0  0
 62142  1  0  0  0
 63 65  1  0  0  0
 63143  1  0  0  0
 63144  1  0  0  0
 63145  1  0  0  0
 64146  1  0  0  0
 65147  1  0  0  0
 68 84  1  0  0  0
 71 72  2  0  0  0
 71 75  1  0  0  0
 71148  1  0  0  0
 72 73  1  0  0  0
 72 79  1  0  0  0
 73 76  2  0  0  0
 73 77  1  0  0  0
 74 75  2  0  0  0
 74 76  1  0  0  0
 74 78  1  0  0  0
 75 87  1  0  0  0
 76 88  1  0  0  0
 77149  1  0  0  0
 77150  1  0  0  0
 77151  1  0  0  0
 78 80  1  0  0  0
 78152  1  0  0  0
 78153  1  0  0  0
 79 86  1  0  0  0
 79154  1  0  0  0
 79155  1  0  0  0
 80 82  1  0  0  0
 80156  1  0  0  0
 80157  1  0  0  0
 81 83  1  0  0  0
 81 84  1  0  0  0
 81158  1  0  0  0
 81159  1  0  0  0
 82 85  1  0  0  0
 82160  1  0  0  0
 82161  1  0  0  0
 83 86  1  0  0  0
 83162  1  0  0  0
 83163  1  0  0  0
 84164  1  0  0  0
 84165  1  0  0  0
 85166  1  0  0  0
 86167  1  0  0  0
 86168  1  0  0  0
M  CHG  1  86   1
M  ISO  4   1 100  68 101  84 101  85 100
M  END
> <chiral flag>
0

> <version>
0

> <s_m_source_file>
/data/baiqing/PycharmProjects/Reinvent-master-3.2/result/LINK_invent/BTK/process_docking_weight1_custom_sum_contain_oxygen_bond_distance_aromatic_linkinvent_7_9_3/rearranged_h_0028.sdf

> <i_m_source_file_index>
83

> <r_mmod_Potential_Energy-OPLS-2005>
-290.287841796875

> <r_mmod_Stretch_Energy-OPLS-2005>
32.6739921569824

> <r_mmod_Bend_Energy-OPLS-2005>
91.8496170043945

> <r_mmod_Torsional_Energy-OPLS-2005>
207.989013671875

> <r_mmod_Improper_Torsional_Energy-OPLS-2005>
5.88394212722778

> <r_mmod_Van_der_Waal_Energy-OPLS-2005>
152.179870605469

> <r_mmod_Electrostatic_Energy-OPLS-2005>
-318.593994140625

> <r_mmod_Solvation_Energy-OPLS-2005>
-473.292663574219

> <b_mmod_Minimization_Converged-OPLS-2005>
0

> <r_mmod_RMS_Derivative-OPLS-2005>
1.67810463905334

$$$$
83
                    3D
 Structure written by MMmdl.
160168  0  0  1  0            999 V2000
  -30.6244  -14.5883   20.5368 C   0  0  0  0  0  0
  -30.4386  -12.3767   19.4335 C   0  0  0  0  0  0
  -29.5000  -12.5089   18.2129 C   0  0  0  0  0  0
  -28.0238  -12.3444   18.6272 C   0  0  0  0  0  0
  -27.6558  -13.1999   19.8679 C   0  0  2  0  0  0
  -28.6983  -13.0207   20.9938 C   0  0  0  0  0  0
  -25.2562  -13.8072   20.5588 C   0  0  0  0  0  0
  -24.1835  -13.0398   20.9196 C   0  0  0  0  0  0
  -24.6393  -11.6867   20.8789 C   0  0  0  0  0  0
  -23.9040  -10.4279   21.0452 C   0  0  0  0  0  0
  -24.3590   -9.4199   21.9229 C   0  0  0  0  0  0
  -23.6273   -8.2230   22.0764 C   0  0  0  0  0  0
  -22.4260   -8.0274   21.3545 C   0  0  0  0  0  0
  -21.9901   -9.0255   20.4645 C   0  0  0  0  0  0
  -22.7220  -10.2141   20.3084 C   0  0  0  0  0  0
  -21.6852   -6.0719   22.5277 C   0  0  0  0  0  0
  -21.4014   -6.5624   23.8209 C   0  0  0  0  0  0
  -21.3663   -5.6777   24.9169 C   0  0  0  0  0  0
  -21.6039   -4.3043   24.7228 C   0  0  0  0  0  0
  -21.8824   -3.8135   23.4354 C   0  0  0  0  0  0
  -21.9200   -4.6947   22.3404 C   0  0  0  0  0  0
  -22.7866  -13.5239   21.1847 C   0  0  0  0  0  0
  -22.1667   -4.2125   21.0984 F   0  0  0  0  0  0
  -21.5633   -3.4539   25.7748 F   0  0  0  0  0  0
  -30.0169  -13.3685   20.4373 N   0  0  0  0  0  0
  -26.2992  -12.9238   20.3327 N   0  0  0  0  0  0
  -25.9317  -11.6417   20.5795 N   0  0  0  0  0  0
  -22.0477  -12.8247   22.0384 N   0  0  0  0  0  0
  -25.4269  -15.1722   20.3757 N   0  0  0  0  0  0
  -31.7748  -14.7855   20.1314 O   0  0  0  0  0  0
  -21.6638   -6.8861   21.4231 O   0  0  0  0  0  0
  -22.3572  -14.5553   20.6687 O   0  0  0  0  0  0
  -24.6200  -31.8642   23.2055 C   0  0  0  0  0  0
  -25.9075  -32.4811   23.8362 C   0  0  1  0  0  0
  -27.2317  -27.3819   20.1028 C   0  0  0  0  0  0
  -25.5916  -33.8611   24.2302 N   0  0  0  0  0  0
  -23.4097  -30.4876   21.5480 C   0  0  2  0  0  0
  -24.8564  -28.9449   20.1129 C   0  0  0  0  0  0
  -22.7425  -29.4654   22.4966 C   0  0  0  0  0  0
  -18.0237  -28.1349   22.8503 C   0  0  0  0  0  0
  -24.1486  -36.7308   23.2638 C   0  0  0  0  0  0
  -25.9450  -30.8164   21.3624 C   0  0  0  0  0  0
  -26.0210  -29.4458   20.7090 C   0  0  0  0  0  0
  -27.2156  -28.6773   20.6894 C   0  0  0  0  0  0
  -26.0485  -26.9070   19.4991 C   0  0  0  0  0  0
  -24.8699  -27.6790   19.4981 C   0  0  0  0  0  0
  -23.6210  -29.8200   20.1616 C   0  0  0  0  0  0
  -25.4113  -36.3110   24.0327 C   0  0  1  0  0  0
  -20.5832  -28.3702   23.1247 C   0  0  2  0  0  0
  -20.6746  -26.9398   22.5384 C   0  0  0  0  0  0
  -19.5653  -26.6211   21.5305 C   0  0  0  0  0  0
  -18.1893  -26.7820   22.1807 C   0  0  0  0  0  0
  -19.1483  -28.8869   23.2846 C   0  0  0  0  0  0
  -18.9388  -30.1490   23.8821 C   0  0  0  0  0  0
  -17.6383  -30.6611   24.0489 C   0  0  0  0  0  0
  -25.9046  -34.9473   23.5117 C   0  0  0  0  0  0
  -16.5292  -29.9080   23.6254 C   0  0  0  0  0  0
  -16.7225  -28.6466   23.0345 C   0  0  0  0  0  0
  -26.4467  -31.6599   25.0700 C   0  0  0  0  0  0
  -25.3704  -31.3707   26.1425 C   0  0  0  0  0  0
  -27.0296  -30.3033   24.6101 C   0  0  0  0  0  0
  -27.6034  -32.4311   25.7487 C   0  0  0  0  0  0
  -27.5581  -37.1820   24.8463 C   0  0  0  0  0  0
  -21.4144  -29.3063   22.3658 N   0  0  0  0  0  0
  -26.4302  -37.3794   23.9395 N   0  0  0  0  0  0
  -24.6774  -31.0709   22.0967 N   0  0  0  0  0  0
  -23.4148  -28.8200   23.3054 O   0  0  0  0  0  0
  -28.3773  -26.5960   20.0787 O   0  0  0  0  0  0
  -26.5618  -34.8929   22.4686 O   0  0  0  0  0  0
  -23.5374  -32.1402   23.7415 O   0  0  0  0  0  0
  -27.1960  -19.8509   20.7954 C   0  0  0  0  0  0
  -27.6772  -17.3117   21.8327 C   0  0  0  0  0  0
  -26.1644  -19.1775   21.4706 C   0  0  0  0  0  0
  -28.7185  -17.9420   21.1008 C   0  0  0  0  0  0
  -28.4997  -19.3035   20.6536 C   0  0  0  0  0  0
  -26.4265  -17.9193   22.0375 C   0  0  0  0  0  0
  -24.7936  -19.8209   21.5974 C   0  0  0  0  0  0
  -30.0048  -17.0939   20.8453 C   0  0  0  0  0  0
  -28.7782  -24.0569   19.7401 C   0  0  0  0  0  0
  -28.9462  -22.6628   20.4661 C   0  0  0  0  0  0
  -28.2823  -25.2503   20.6379 C   0  0  0  0  0  0
  -29.2205  -21.4147   19.5369 C   0  0  0  0  0  0
  -29.8148  -15.6088   20.9216 N   0  0  0  0  0  0
  -29.5152  -20.1056   20.1303 O   0  0  0  0  0  0
  -25.2178  -17.1059   22.9696 Cl  0  0  0  0  0  0
  -31.4781  -12.5177   19.1280 H   0  0  0  0  0  0
  -30.3855  -11.3740   19.8590 H   0  0  0  0  0  0
  -29.7598  -11.7634   17.4609 H   0  0  0  0  0  0
  -29.6371  -13.4827   17.7375 H   0  0  0  0  0  0
  -27.8559  -11.2881   18.8388 H   0  0  0  0  0  0
  -27.3671  -12.5906   17.7913 H   0  0  0  0  0  0
  -27.6868  -14.2409   19.5461 H   0  0  0  0  0  0
  -28.7089  -11.9872   21.3466 H   0  0  0  0  0  0
  -28.4415  -13.6257   21.8659 H   0  0  0  0  0  0
  -25.2742   -9.5660   22.4798 H   0  0  0  0  0  0
  -23.9996   -7.4605   22.7474 H   0  0  0  0  0  0
  -21.0833   -8.8758   19.8939 H   0  0  0  0  0  0
  -22.3703  -10.9686   19.6189 H   0  0  0  0  0  0
  -21.2000   -7.6130   23.9710 H   0  0  0  0  0  0
  -21.1477   -6.0506   25.9068 H   0  0  0  0  0  0
  -22.0602   -2.7594   23.2868 H   0  0  0  0  0  0
  -22.4112  -11.9957   22.4833 H   0  0  0  0  0  0
  -21.1092  -13.1279   22.2574 H   0  0  0  0  0  0
  -24.6759  -15.8309   20.5470 H   0  0  0  0  0  0
  -26.2680  -15.6146   20.0335 H   0  0  0  0  0  0
  -26.7137  -32.5484   23.1120 H   0  0  0  0  0  0
  -25.0073  -33.9757   25.0455 H   0  0  0  0  0  0
  -22.6979  -31.3047   21.4102 H   0  0  0  0  0  0
  -23.3747  -35.9645   23.3318 H   0  0  0  0  0  0
  -24.3574  -36.8918   22.2050 H   0  0  0  0  0  0
  -23.7241  -37.6515   23.6650 H   0  0  0  0  0  0
  -26.0629  -31.5849   20.5965 H   0  0  0  0  0  0
  -26.8301  -30.8684   21.9833 H   0  0  0  0  0  0
  -28.1181  -29.0706   21.1368 H   0  0  0  0  0  0
  -26.0409  -25.9384   19.0168 H   0  0  0  0  0  0
  -23.9822  -27.2936   19.0161 H   0  0  0  0  0  0
  -23.7313  -30.5986   19.4047 H   0  0  0  0  0  0
  -22.7427  -29.2441   19.8628 H   0  0  0  0  0  0
  -25.1295  -36.1984   25.0819 H   0  0  0  0  0  0
  -20.9850  -28.3309   24.1404 H   0  0  0  0  0  0
  -20.5797  -26.2292   23.3618 H   0  0  0  0  0  0
  -21.6543  -26.7466   22.1024 H   0  0  0  0  0  0
  -19.6798  -25.6071   21.1448 H   0  0  0  0  0  0
  -19.6468  -27.2869   20.6703 H   0  0  0  0  0  0
  -17.4042  -26.6351   21.4366 H   0  0  0  0  0  0
  -18.0424  -26.0120   22.9402 H   0  0  0  0  0  0
  -19.7867  -30.7338   24.2120 H   0  0  0  0  0  0
  -17.4925  -31.6327   24.5034 H   0  0  0  0  0  0
  -15.5281  -30.2962   23.7501 H   0  0  0  0  0  0
  -15.8624  -28.0748   22.7137 H   0  0  0  0  0  0
  -24.5888  -30.7056   25.7730 H   0  0  0  0  0  0
  -24.8878  -32.2860   26.4866 H   0  0  0  0  0  0
  -25.8028  -30.8864   27.0191 H   0  0  0  0  0  0
  -26.2849  -29.6824   24.1107 H   0  0  0  0  0  0
  -27.3993  -29.7245   25.4580 H   0  0  0  0  0  0
  -27.8717  -30.4333   23.9295 H   0  0  0  0  0  0
  -27.2658  -33.3610   26.2078 H   0  0  0  0  0  0
  -28.3862  -32.6881   25.0332 H   0  0  0  0  0  0
  -28.0683  -31.8419   26.5407 H   0  0  0  0  0  0
  -28.2608  -38.0109   24.7507 H   0  0  0  0  0  0
  -28.1069  -36.2641   24.6308 H   0  0  0  0  0  0
  -27.2283  -37.1488   25.8862 H   0  0  0  0  0  0
  -20.9373  -29.8668   21.6742 H   0  0  0  0  0  0
  -26.0193  -38.2868   24.1422 H   0  0  0  0  0  0
  -26.9500  -20.8251   20.4058 H   0  0  0  0  0  0
  -27.8183  -16.3326   22.2638 H   0  0  0  0  0  0
  -24.0341  -19.1635   21.1714 H   0  0  0  0  0  0
  -24.7308  -20.7761   21.0727 H   0  0  0  0  0  0
  -24.5448  -19.9982   22.6435 H   0  0  0  0  0  0
  -30.7647  -17.3933   21.5685 H   0  0  0  0  0  0
  -30.4060  -17.3450   19.8636 H   0  0  0  0  0  0
  -28.0844  -23.9443   18.9050 H   0  0  0  0  0  0
  -29.7352  -24.3299   19.2960 H   0  0  0  0  0  0
  -28.0628  -22.4904   21.0795 H   0  0  0  0  0  0
  -29.7658  -22.7432   21.1812 H   0  0  0  0  0  0
  -28.8878  -25.2759   21.5439 H   0  0  0  0  0  0
  -27.2727  -25.0303   20.9879 H   0  0  0  0  0  0
  -30.0994  -21.6528   18.9367 H   0  0  0  0  0  0
  -28.4156  -21.3070   18.8086 H   0  0  0  0  0  0
  -28.8900  -15.3146   21.1933 H   0  0  0  0  0  0
  1 25  1  0  0  0
  1 30  2  0  0  0
  1 83  1  0  0  0
  2  3  1  0  0  0
  2 25  1  0  0  0
  2 86  1  0  0  0
  2 87  1  0  0  0
  3  4  1  0  0  0
  3 88  1  0  0  0
  3 89  1  0  0  0
  4  5  1  0  0  0
  4 90  1  0  0  0
  4 91  1  0  0  0
  5  6  1  0  0  0
  5 26  1  0  0  0
  5 92  1  0  0  0
  6 25  1  0  0  0
  6 93  1  0  0  0
  6 94  1  0  0  0
  7  8  2  0  0  0
  7 26  1  0  0  0
  7 29  1  0  0  0
  8  9  1  0  0  0
  8 22  1  0  0  0
  9 10  1  0  0  0
  9 27  2  0  0  0
 10 11  2  0  0  0
 10 15  1  0  0  0
 11 12  1  0  0  0
 11 95  1  0  0  0
 12 13  2  0  0  0
 12 96  1  0  0  0
 13 14  1  0  0  0
 13 31  1  0  0  0
 14 15  2  0  0  0
 14 97  1  0  0  0
 15 98  1  0  0  0
 16 17  2  0  0  0
 16 21  1  0  0  0
 16 31  1  0  0  0
 17 18  1  0  0  0
 17 99  1  0  0  0
 18 19  2  0  0  0
 18100  1  0  0  0
 19 20  1  0  0  0
 19 24  1  0  0  0
 20 21  2  0  0  0
 20101  1  0  0  0
 21 23  1  0  0  0
 22 28  1  0  0  0
 22 32  2  0  0  0
 26 27  1  0  0  0
 28102  1  0  0  0
 28103  1  0  0  0
 29104  1  0  0  0
 29105  1  0  0  0
 33 34  1  0  0  0
 33 66  1  0  0  0
 33 70  2  0  0  0
 34 36  1  0  0  0
 34 59  1  0  0  0
 34106  1  0  0  0
 35 44  2  0  0  0
 35 45  1  0  0  0
 35 68  1  0  0  0
 36 56  1  0  0  0
 36107  1  0  0  0
 37 39  1  0  0  0
 37 47  1  0  0  0
 37 66  1  0  0  0
 37108  1  0  0  0
 38 43  2  0  0  0
 38 46  1  0  0  0
 38 47  1  0  0  0
 39 64  1  0  0  0
 39 67  2  0  0  0
 40 52  1  0  0  0
 40 53  2  0  0  0
 40 58  1  0  0  0
 41109  1  0  0  0
 41110  1  0  0  0
 41111  1  0  0  0
 41 48  1  0  0  0
 42 43  1  0  0  0
 42 66  1  0  0  0
 42112  1  0  0  0
 42113  1  0  0  0
 43 44  1  0  0  0
 44114  1  0  0  0
 45 46  2  0  0  0
 45115  1  0  0  0
 46116  1  0  0  0
 47117  1  0  0  0
 47118  1  0  0  0
 48 56  1  0  0  0
 48 65  1  0  0  0
 48119  1  0  0  0
 49 50  1  0  0  0
 49 53  1  0  0  0
 49 64  1  0  0  0
 49120  1  0  0  0
 50 51  1  0  0  0
 50121  1  0  0  0
 50122  1  0  0  0
 51 52  1  0  0  0
 51123  1  0  0  0
 51124  1  0  0  0
 52125  1  0  0  0
 52126  1  0  0  0
 53 54  1  0  0  0
 54 55  2  0  0  0
 54127  1  0  0  0
 55 57  1  0  0  0
 55128  1  0  0  0
 56 69  2  0  0  0
 57 58  2  0  0  0
 57129  1  0  0  0
 58130  1  0  0  0
 59 60  1  0  0  0
 59 61  1  0  0  0
 59 62  1  0  0  0
 60131  1  0  0  0
 60132  1  0  0  0
 60133  1  0  0  0
 61134  1  0  0  0
 61135  1  0  0  0
 61136  1  0  0  0
 62137  1  0  0  0
 62138  1  0  0  0
 62139  1  0  0  0
 63 65  1  0  0  0
 63140  1  0  0  0
 63141  1  0  0  0
 63142  1  0  0  0
 64143  1  0  0  0
 65144  1  0  0  0
 68 81  1  0  0  0
 71 73  2  0  0  0
 71 75  1  0  0  0
 71145  1  0  0  0
 72 74  1  0  0  0
 72 76  2  0  0  0
 72146  1  0  0  0
 73 76  1  0  0  0
 73 77  1  0  0  0
 74 75  2  0  0  0
 74 78  1  0  0  0
 75 84  1  0  0  0
 76 85  1  0  0  0
 77147  1  0  0  0
 77148  1  0  0  0
 77149  1  0  0  0
 78 83  1  0  0  0
 78150  1  0  0  0
 78151  1  0  0  0
 79 80  1  0  0  0
 79 81  1  0  0  0
 79152  1  0  0  0
 79153  1  0  0  0
 80 82  1  0  0  0
 80154  1  0  0  0
 80155  1  0  0  0
 81156  1  0  0  0
 81157  1  0  0  0
 82 84  1  0  0  0
 82158  1  0  0  0
 82159  1  0  0  0
 83160  1  0  0  0
M  ISO  4   1 100  68 101  81 101  83 100
M  END
> <chiral flag>
0

> <version>
0

> <s_m_source_file>
/data/baiqing/PycharmProjects/Reinvent-master-3.2/result/LINK_invent/BTK/process_docking_weight1_custom_sum_contain_oxygen_bond_distance_aromatic_linkinvent_7_9_3/rearranged_h_0028.sdf

> <i_m_source_file_index>
84

> <r_mmod_Potential_Energy-OPLS-2005>
-33.9155731201172

> <r_mmod_Stretch_Energy-OPLS-2005>
66.0229415893555

> <r_mmod_Bend_Energy-OPLS-2005>
126.833587646484

> <r_mmod_Torsional_Energy-OPLS-2005>
218.989288330078

> <r_mmod_Improper_Torsional_Energy-OPLS-2005>
4.62967205047607

> <r_mmod_Van_der_Waal_Energy-OPLS-2005>
144.9482421875

> <r_mmod_Electrostatic_Energy-OPLS-2005>
-420.274505615234

> <r_mmod_Solvation_Energy-OPLS-2005>
-203.74089050293

> <b_mmod_Minimization_Converged-OPLS-2005>
0

> <r_mmod_RMS_Derivative-OPLS-2005>
3.68802809715271

$$$$
84
                    3D
 Structure written by MMmdl.
157165  0  0  1  0            999 V2000
  -30.6825  -14.4913   20.5878 C   0  0  0  0  0  0
  -30.4373  -12.3224   19.4219 C   0  0  0  0  0  0
  -29.5038  -12.5188   18.2077 C   0  0  0  0  0  0
  -28.0252  -12.3684   18.6191 C   0  0  0  0  0  0
  -27.6699  -13.2049   19.8763 C   0  0  2  0  0  0
  -28.7094  -12.9674   20.9961 C   0  0  0  0  0  0
  -25.2614  -13.8140   20.5643 C   0  0  0  0  0  0
  -24.1856  -13.0437   20.9144 C   0  0  0  0  0  0
  -24.6402  -11.6907   20.8713 C   0  0  0  0  0  0
  -23.9060  -10.4294   21.0393 C   0  0  0  0  0  0
  -24.3612   -9.4214   21.9172 C   0  0  0  0  0  0
  -23.6292   -8.2252   22.0764 C   0  0  0  0  0  0
  -22.4265   -8.0286   21.3560 C   0  0  0  0  0  0
  -21.9892   -9.0254   20.4655 C   0  0  0  0  0  0
  -22.7226  -10.2129   20.3053 C   0  0  0  0  0  0
  -21.6856   -6.0741   22.5282 C   0  0  0  0  0  0
  -21.4015   -6.5644   23.8217 C   0  0  0  0  0  0
  -21.3655   -5.6789   24.9176 C   0  0  0  0  0  0
  -21.6037   -4.3052   24.7221 C   0  0  0  0  0  0
  -21.8822   -3.8152   23.4333 C   0  0  0  0  0  0
  -21.9192   -4.6971   22.3399 C   0  0  0  0  0  0
  -22.7876  -13.5259   21.1802 C   0  0  0  0  0  0
  -22.1664   -4.2171   21.0974 F   0  0  0  0  0  0
  -21.5620   -3.4528   25.7720 F   0  0  0  0  0  0
  -30.0466  -13.2909   20.4598 N   0  0  0  0  0  0
  -26.3071  -12.9321   20.3341 N   0  0  0  0  0  0
  -25.9331  -11.6485   20.5731 N   0  0  0  0  0  0
  -22.0513  -12.8273   22.0373 N   0  0  0  0  0  0
  -25.4318  -15.1846   20.4033 N   0  0  0  0  0  0
  -31.7692  -14.7307   20.0542 O   0  0  0  0  0  0
  -21.6651   -6.8874   21.4245 O   0  0  0  0  0  0
  -22.3558  -14.5561   20.6644 O   0  0  0  0  0  0
  -24.6146  -31.8682   23.2105 C   0  0  0  0  0  0
  -25.9040  -32.4830   23.8392 C   0  0  1  0  0  0
  -27.2344  -27.4307   20.1043 C   0  0  0  0  0  0
  -25.5897  -33.8625   24.2332 N   0  0  0  0  0  0
  -23.4043  -30.4908   21.5498 C   0  0  2  0  0  0
  -24.8552  -28.9565   20.1144 C   0  0  0  0  0  0
  -22.7418  -29.4657   22.4987 C   0  0  0  0  0  0
  -18.0278  -28.1371   22.8507 C   0  0  0  0  0  0
  -24.1484  -36.7307   23.2631 C   0  0  0  0  0  0
  -25.9337  -30.8328   21.3665 C   0  0  0  0  0  0
  -26.0139  -29.4657   20.7158 C   0  0  0  0  0  0
  -27.2093  -28.7080   20.7105 C   0  0  0  0  0  0
  -26.0654  -26.9384   19.4911 C   0  0  0  0  0  0
  -24.8764  -27.6926   19.4976 C   0  0  0  0  0  0
  -23.6144  -29.8208   20.1649 C   0  0  0  0  0  0
  -25.4103  -36.3108   24.0338 C   0  0  1  0  0  0
  -20.5871  -28.3661   23.1326 C   0  0  2  0  0  0
  -20.6764  -26.9395   22.5428 C   0  0  0  0  0  0
  -19.5745  -26.6385   21.5217 C   0  0  0  0  0  0
  -18.1920  -26.7923   22.1624 C   0  0  0  0  0  0
  -19.1527  -28.8831   23.2919 C   0  0  0  0  0  0
  -18.9450  -30.1433   23.8935 C   0  0  0  0  0  0
  -17.6453  -30.6586   24.0563 C   0  0  0  0  0  0
  -25.9037  -34.9478   23.5137 C   0  0  0  0  0  0
  -16.5342  -29.9088   23.6314 C   0  0  0  0  0  0
  -16.7268  -28.6492   23.0360 C   0  0  0  0  0  0
  -26.4465  -31.6613   25.0721 C   0  0  0  0  0  0
  -25.3724  -31.3726   26.1468 C   0  0  0  0  0  0
  -27.0303  -30.3055   24.6109 C   0  0  0  0  0  0
  -27.6055  -32.4325   25.7470 C   0  0  0  0  0  0
  -27.5599  -37.1784   24.8446 C   0  0  0  0  0  0
  -21.4141  -29.3032   22.3729 N   0  0  0  0  0  0
  -26.4280  -37.3802   23.9434 N   0  0  0  0  0  0
  -24.6684  -31.0786   22.0997 N   0  0  0  0  0  0
  -23.4195  -28.8192   23.3016 O   0  0  0  0  0  0
  -28.3612  -26.6386   20.1074 O   0  0  0  0  0  0
  -26.5595  -34.8923   22.4697 O   0  0  0  0  0  0
  -23.5339  -32.1416   23.7502 O   0  0  0  0  0  0
  -30.5707  -17.6064   20.2178 C   0  0  0  0  0  0
  -28.6789  -17.4279   21.7418 C   0  0  0  0  0  0
  -29.7816  -16.8074   21.0874 C   0  0  0  0  0  0
  -29.1192  -19.5607   20.5761 C   0  0  0  0  0  0
  -30.2489  -18.9632   19.9698 C   0  0  0  0  0  0
  -28.3489  -18.7831   21.4688 C   0  0  0  0  0  0
  -27.8099  -16.6628   22.7370 C   0  0  0  0  0  0
  -29.3427  -24.5253   21.0710 C   0  0  0  0  0  0
  -28.6743  -23.2614   20.4679 C   0  0  0  0  0  0
  -28.4227  -25.7657   21.2453 C   0  0  0  0  0  0
  -29.4941  -21.9482   20.6302 C   0  0  0  0  0  0
  -30.0164  -15.4054   21.3254 N   0  0  0  0  0  0
  -28.6810  -20.8353   20.2486 O   0  0  0  0  0  0
  -31.0071  -19.6786   19.1041 F   0  0  0  0  0  0
  -26.9712  -19.5148   22.2247 Cl  0  0  0  0  0  0
  -31.4799  -12.4352   19.1198 H   0  0  0  0  0  0
  -30.3526  -11.3059   19.8094 H   0  0  0  0  0  0
  -29.7495  -11.7987   17.4262 H   0  0  0  0  0  0
  -29.6646  -13.5067   17.7728 H   0  0  0  0  0  0
  -27.8410  -11.3118   18.8180 H   0  0  0  0  0  0
  -27.3736  -12.6412   17.7879 H   0  0  0  0  0  0
  -27.7205  -14.2553   19.5864 H   0  0  0  0  0  0
  -28.6858  -11.9246   21.3170 H   0  0  0  0  0  0
  -28.4526  -13.5385   21.8864 H   0  0  0  0  0  0
  -25.2764   -9.5698   22.4730 H   0  0  0  0  0  0
  -24.0008   -7.4648   22.7483 H   0  0  0  0  0  0
  -21.0822   -8.8782   19.8952 H   0  0  0  0  0  0
  -22.3703  -10.9669   19.6153 H   0  0  0  0  0  0
  -21.2028   -7.6151   23.9721 H   0  0  0  0  0  0
  -21.1463   -6.0521   25.9078 H   0  0  0  0  0  0
  -22.0604   -2.7617   23.2831 H   0  0  0  0  0  0
  -22.4122  -11.9958   22.4799 H   0  0  0  0  0  0
  -21.1132  -13.1322   22.2548 H   0  0  0  0  0  0
  -24.6647  -15.8380   20.5116 H   0  0  0  0  0  0
  -26.2860  -15.6257   20.0887 H   0  0  0  0  0  0
  -26.7119  -32.5552   23.1165 H   0  0  0  0  0  0
  -25.0062  -33.9785   25.0486 H   0  0  0  0  0  0
  -22.6919  -31.3069   21.4104 H   0  0  0  0  0  0
  -23.3766  -35.9616   23.3250 H   0  0  0  0  0  0
  -24.3597  -36.8965   22.2056 H   0  0  0  0  0  0
  -23.7200  -37.6482   23.6676 H   0  0  0  0  0  0
  -26.0506  -31.5988   20.5986 H   0  0  0  0  0  0
  -26.8199  -30.8875   21.9867 H   0  0  0  0  0  0
  -28.1043  -29.0937   21.1779 H   0  0  0  0  0  0
  -26.0756  -25.9664   19.0187 H   0  0  0  0  0  0
  -23.9865  -27.2986   19.0257 H   0  0  0  0  0  0
  -23.7165  -30.5939   19.4022 H   0  0  0  0  0  0
  -22.7399  -29.2363   19.8736 H   0  0  0  0  0  0
  -25.1269  -36.1959   25.0825 H   0  0  0  0  0  0
  -20.9975  -28.3222   24.1442 H   0  0  0  0  0  0
  -20.5663  -26.2259   23.3609 H   0  0  0  0  0  0
  -21.6635  -26.7431   22.1223 H   0  0  0  0  0  0
  -19.6899  -25.6298   21.1240 H   0  0  0  0  0  0
  -19.6686  -27.3200   20.6748 H   0  0  0  0  0  0
  -17.4192  -26.6691   21.4016 H   0  0  0  0  0  0
  -18.0311  -26.0051   22.9006 H   0  0  0  0  0  0
  -19.7919  -30.7234   24.2335 H   0  0  0  0  0  0
  -17.5003  -31.6265   24.5156 H   0  0  0  0  0  0
  -15.5348  -30.3000   23.7606 H   0  0  0  0  0  0
  -15.8665  -28.0803   22.7091 H   0  0  0  0  0  0
  -24.5892  -30.7083   25.7798 H   0  0  0  0  0  0
  -24.8910  -32.2883   26.4913 H   0  0  0  0  0  0
  -25.8058  -30.8887   27.0231 H   0  0  0  0  0  0
  -26.2848  -29.6814   24.1165 H   0  0  0  0  0  0
  -27.4077  -29.7300   25.4574 H   0  0  0  0  0  0
  -27.8683  -30.4374   23.9257 H   0  0  0  0  0  0
  -27.2705  -33.3633   26.2056 H   0  0  0  0  0  0
  -28.3851  -32.6877   25.0281 H   0  0  0  0  0  0
  -28.0740  -31.8442   26.5368 H   0  0  0  0  0  0
  -28.2555  -38.0144   24.7618 H   0  0  0  0  0  0
  -28.1163  -36.2695   24.6113 H   0  0  0  0  0  0
  -27.2348  -37.1237   25.8848 H   0  0  0  0  0  0
  -20.9295  -29.8749   21.6950 H   0  0  0  0  0  0
  -26.0170  -38.2866   24.1499 H   0  0  0  0  0  0
  -31.4256  -17.1925   19.7036 H   0  0  0  0  0  0
  -28.1236  -15.6401   22.9291 H   0  0  0  0  0  0
  -26.7788  -16.6308   22.3853 H   0  0  0  0  0  0
  -27.8196  -17.1734   23.6999 H   0  0  0  0  0  0
  -30.2400  -24.7962   20.5128 H   0  0  0  0  0  0
  -29.6906  -24.2532   22.0686 H   0  0  0  0  0  0
  -28.4545  -23.4331   19.4133 H   0  0  0  0  0  0
  -27.7079  -23.1137   20.9535 H   0  0  0  0  0  0
  -28.8054  -26.3646   22.0730 H   0  0  0  0  0  0
  -27.4285  -25.4363   21.5575 H   0  0  0  0  0  0
  -29.7984  -21.8301   21.6721 H   0  0  0  0  0  0
  -30.4034  -21.9857   20.0284 H   0  0  0  0  0  0
  -29.3135  -14.9706   21.9028 H   0  0  0  0  0  0
  1 25  1  0  0  0
  1 30  2  0  0  0
  1 82  1  0  0  0
  2  3  1  0  0  0
  2 25  1  0  0  0
  2 86  1  0  0  0
  2 87  1  0  0  0
  3  4  1  0  0  0
  3 88  1  0  0  0
  3 89  1  0  0  0
  4  5  1  0  0  0
  4 90  1  0  0  0
  4 91  1  0  0  0
  5  6  1  0  0  0
  5 26  1  0  0  0
  5 92  1  0  0  0
  6 25  1  0  0  0
  6 93  1  0  0  0
  6 94  1  0  0  0
  7  8  2  0  0  0
  7 26  1  0  0  0
  7 29  1  0  0  0
  8  9  1  0  0  0
  8 22  1  0  0  0
  9 10  1  0  0  0
  9 27  2  0  0  0
 10 11  2  0  0  0
 10 15  1  0  0  0
 11 12  1  0  0  0
 11 95  1  0  0  0
 12 13  2  0  0  0
 12 96  1  0  0  0
 13 14  1  0  0  0
 13 31  1  0  0  0
 14 15  2  0  0  0
 14 97  1  0  0  0
 15 98  1  0  0  0
 16 17  2  0  0  0
 16 21  1  0  0  0
 16 31  1  0  0  0
 17 18  1  0  0  0
 17 99  1  0  0  0
 18 19  2  0  0  0
 18100  1  0  0  0
 19 20  1  0  0  0
 19 24  1  0  0  0
 20 21  2  0  0  0
 20101  1  0  0  0
 21 23  1  0  0  0
 22 28  1  0  0  0
 22 32  2  0  0  0
 26 27  1  0  0  0
 28102  1  0  0  0
 28103  1  0  0  0
 29104  1  0  0  0
 29105  1  0  0  0
 33 34  1  0  0  0
 33 66  1  0  0  0
 33 70  2  0  0  0
 34 36  1  0  0  0
 34 59  1  0  0  0
 34106  1  0  0  0
 35 44  2  0  0  0
 35 45  1  0  0  0
 35 68  1  0  0  0
 36 56  1  0  0  0
 36107  1  0  0  0
 37 39  1  0  0  0
 37 47  1  0  0  0
 37 66  1  0  0  0
 37108  1  0  0  0
 38 43  2  0  0  0
 38 46  1  0  0  0
 38 47  1  0  0  0
 39 64  1  0  0  0
 39 67  2  0  0  0
 40 52  1  0  0  0
 40 53  2  0  0  0
 40 58  1  0  0  0
 41109  1  0  0  0
 41110  1  0  0  0
 41111  1  0  0  0
 41 48  1  0  0  0
 42 43  1  0  0  0
 42 66  1  0  0  0
 42112  1  0  0  0
 42113  1  0  0  0
 43 44  1  0  0  0
 44114  1  0  0  0
 45 46  2  0  0  0
 45115  1  0  0  0
 46116  1  0  0  0
 47117  1  0  0  0
 47118  1  0  0  0
 48 56  1  0  0  0
 48 65  1  0  0  0
 48119  1  0  0  0
 49 50  1  0  0  0
 49 53  1  0  0  0
 49 64  1  0  0  0
 49120  1  0  0  0
 50 51  1  0  0  0
 50121  1  0  0  0
 50122  1  0  0  0
 51 52  1  0  0  0
 51123  1  0  0  0
 51124  1  0  0  0
 52125  1  0  0  0
 52126  1  0  0  0
 53 54  1  0  0  0
 54 55  2  0  0  0
 54127  1  0  0  0
 55 57  1  0  0  0
 55128  1  0  0  0
 56 69  2  0  0  0
 57 58  2  0  0  0
 57129  1  0  0  0
 58130  1  0  0  0
 59 60  1  0  0  0
 59 61  1  0  0  0
 59 62  1  0  0  0
 60131  1  0  0  0
 60132  1  0  0  0
 60133  1  0  0  0
 61134  1  0  0  0
 61135  1  0  0  0
 61136  1  0  0  0
 62137  1  0  0  0
 62138  1  0  0  0
 62139  1  0  0  0
 63 65  1  0  0  0
 63140  1  0  0  0
 63141  1  0  0  0
 63142  1  0  0  0
 64143  1  0  0  0
 65144  1  0  0  0
 68 80  1  0  0  0
 71 73  2  0  0  0
 71 75  1  0  0  0
 71145  1  0  0  0
 72 73  1  0  0  0
 72 76  2  0  0  0
 72 77  1  0  0  0
 73 82  1  0  0  0
 74 75  2  0  0  0
 74 76  1  0  0  0
 74 83  1  0  0  0
 75 84  1  0  0  0
 76 85  1  0  0  0
 77146  1  0  0  0
 77147  1  0  0  0
 77148  1  0  0  0
 78 79  1  0  0  0
 78 80  1  0  0  0
 78149  1  0  0  0
 78150  1  0  0  0
 79 81  1  0  0  0
 79151  1  0  0  0
 79152  1  0  0  0
 80153  1  0  0  0
 80154  1  0  0  0
 81 83  1  0  0  0
 81155  1  0  0  0
 81156  1  0  0  0
 82157  1  0  0  0
M  ISO  4   1 100  68 101  80 101  82 100
M  END
> <chiral flag>
0

> <version>
0

> <s_m_source_file>
/data/baiqing/PycharmProjects/Reinvent-master-3.2/result/LINK_invent/BTK/process_docking_weight1_custom_sum_contain_oxygen_bond_distance_aromatic_linkinvent_7_9_3/rearranged_h_0028.sdf

> <i_m_source_file_index>
85

> <r_mmod_Potential_Energy-OPLS-2005>
30.1636638641357

> <r_mmod_Stretch_Energy-OPLS-2005>
42.1871452331543

> <r_mmod_Bend_Energy-OPLS-2005>
104.72029876709

> <r_mmod_Torsional_Energy-OPLS-2005>
275.315521240234

> <r_mmod_Improper_Torsional_Energy-OPLS-2005>
4.12439107894897

> <r_mmod_Van_der_Waal_Energy-OPLS-2005>
144.073455810547

> <r_mmod_Electrostatic_Energy-OPLS-2005>
-352.988647460938

> <r_mmod_Solvation_Energy-OPLS-2005>
-201.415100097656

> <b_mmod_Minimization_Converged-OPLS-2005>
0

> <r_mmod_RMS_Derivative-OPLS-2005>
2.08635902404785

$$$$
85
                    3D
 Structure written by MMmdl.
153161  0  0  1  0            999 V2000
  -30.5187  -14.9614   20.4551 C   0  0  0  0  0  0
  -30.4381  -12.6158   19.4901 C   0  0  0  0  0  0
  -29.5186  -12.5433   18.2485 C   0  0  0  0  0  0
  -28.0386  -12.3556   18.6422 C   0  0  0  0  0  0
  -27.6237  -13.2618   19.8334 C   0  0  2  0  0  0
  -28.6610  -13.2530   20.9727 C   0  0  0  0  0  0
  -25.2394  -13.8231   20.5711 C   0  0  0  0  0  0
  -24.1699  -13.0431   20.9221 C   0  0  0  0  0  0
  -24.6361  -11.6924   20.8704 C   0  0  0  0  0  0
  -23.9039  -10.4265   21.0325 C   0  0  0  0  0  0
  -24.3599   -9.4202   21.9128 C   0  0  0  0  0  0
  -23.6297   -8.2224   22.0709 C   0  0  0  0  0  0
  -22.4269   -8.0242   21.3499 C   0  0  0  0  0  0
  -21.9864   -9.0218   20.4614 C   0  0  0  0  0  0
  -22.7193  -10.2098   20.3010 C   0  0  0  0  0  0
  -21.6848   -6.0718   22.5239 C   0  0  0  0  0  0
  -21.4040   -6.5616   23.8183 C   0  0  0  0  0  0
  -21.3660   -5.6766   24.9145 C   0  0  0  0  0  0
  -21.6036   -4.3024   24.7191 C   0  0  0  0  0  0
  -21.8820   -3.8127   23.4303 C   0  0  0  0  0  0
  -21.9190   -4.6953   22.3385 C   0  0  0  0  0  0
  -22.7717  -13.5148   21.1877 C   0  0  0  0  0  0
  -22.1661   -4.2140   21.0935 F   0  0  0  0  0  0
  -21.5649   -3.4524   25.7719 F   0  0  0  0  0  0
  -29.9314  -13.6948   20.3847 N   0  0  0  0  0  0
  -26.2808  -12.9505   20.3165 N   0  0  0  0  0  0
  -25.9277  -11.6619   20.5649 N   0  0  0  0  0  0
  -22.0388  -12.8164   22.0459 N   0  0  0  0  0  0
  -25.4065  -15.1960   20.4137 N   0  0  0  0  0  0
  -31.7185  -15.0238   20.1679 O   0  0  0  0  0  0
  -21.6634   -6.8842   21.4196 O   0  0  0  0  0  0
  -22.3347  -14.5452   20.6744 O   0  0  0  0  0  0
  -24.6484  -31.8403   23.1868 C   0  0  0  0  0  0
  -25.9245  -32.4669   23.8225 C   0  0  1  0  0  0
  -27.2150  -27.1113   20.1486 C   0  0  0  0  0  0
  -25.6024  -33.8485   24.2181 N   0  0  0  0  0  0
  -23.4497  -30.4636   21.5315 C   0  0  2  0  0  0
  -24.9032  -28.8911   20.1070 C   0  0  0  0  0  0
  -22.7586  -29.4511   22.4827 C   0  0  0  0  0  0
  -18.0312  -28.1367   22.8485 C   0  0  0  0  0  0
  -24.1506  -36.7204   23.2627 C   0  0  0  0  0  0
  -26.0072  -30.7060   21.3962 C   0  0  0  0  0  0
  -26.0794  -29.3168   20.7326 C   0  0  0  0  0  0
  -27.2373  -28.4470   20.7297 C   0  0  0  0  0  0
  -26.0146  -26.7934   19.4807 C   0  0  0  0  0  0
  -24.8891  -27.6470   19.4551 C   0  0  0  0  0  0
  -23.6796  -29.7992   20.1461 C   0  0  0  0  0  0
  -25.4150  -36.3022   24.0302 C   0  0  1  0  0  0
  -20.5929  -28.3699   23.1249 C   0  0  2  0  0  0
  -20.6813  -26.9410   22.5428 C   0  0  0  0  0  0
  -19.5782  -26.6374   21.5240 C   0  0  0  0  0  0
  -18.1947  -26.7910   22.1644 C   0  0  0  0  0  0
  -19.1567  -28.8858   23.2857 C   0  0  0  0  0  0
  -18.9491  -30.1460   23.8883 C   0  0  0  0  0  0
  -17.6495  -30.6582   24.0552 C   0  0  0  0  0  0
  -25.9111  -34.9395   23.5041 C   0  0  0  0  0  0
  -16.5380  -29.9068   23.6352 C   0  0  0  0  0  0
  -16.7303  -28.6479   23.0375 C   0  0  0  0  0  0
  -26.4537  -31.6537   25.0680 C   0  0  0  0  0  0
  -25.3725  -31.3756   26.1387 C   0  0  0  0  0  0
  -27.0408  -30.2931   24.6316 C   0  0  0  0  0  0
  -27.6070  -32.4266   25.7463 C   0  0  0  0  0  0
  -27.5581  -37.1799   24.8451 C   0  0  0  0  0  0
  -21.4276  -29.3026   22.3627 N   0  0  0  0  0  0
  -26.4298  -37.3761   23.9396 N   0  0  0  0  0  0
  -24.7207  -31.0264   22.0910 N   0  0  0  0  0  0
  -23.4253  -28.8093   23.2976 O   0  0  0  0  0  0
  -28.2608  -26.1092   20.1809 O   0  0  0  0  0  0
  -26.5676  -34.8889   22.4615 O   0  0  0  0  0  0
  -23.5621  -32.1276   23.7109 O   0  0  0  0  0  0
  -28.1007  -21.5617   21.9180 C   0  0  0  0  0  0
  -29.3891  -20.4092   20.2249 C   0  0  0  0  0  0
  -28.7970  -21.6939   20.6974 C   0  0  0  0  0  0
  -28.0090  -20.3351   22.6206 C   0  0  0  0  0  0
  -29.3082  -19.0767   20.8959 C   0  0  0  0  0  0
  -28.5798  -19.1236   22.1260 C   0  0  0  0  0  0
  -27.3338  -20.3516   23.9914 C   0  0  0  0  0  0
  -28.9616  -23.2202   20.0639 C   0  0  0  0  0  0
  -30.1134  -17.6869   20.4369 C   0  0  0  0  0  0
  -27.9708  -24.5711   20.3669 C   0  0  0  0  0  0
  -29.7516  -16.1493   20.6421 N   0  0  0  0  0  0
  -28.4250  -17.6946   23.0909 Cl  0  0  0  0  0  0
  -31.4567  -12.8192   19.1522 H   0  0  0  0  0  0
  -30.4930  -11.6597   20.0157 H   0  0  0  0  0  0
  -29.8412  -11.7401   17.5878 H   0  0  0  0  0  0
  -29.6281  -13.4682   17.6696 H   0  0  0  0  0  0
  -27.8695  -11.3048   18.8859 H   0  0  0  0  0  0
  -27.4027  -12.5772   17.7859 H   0  0  0  0  0  0
  -27.6033  -14.2793   19.4381 H   0  0  0  0  0  0
  -28.7442  -12.2583   21.4188 H   0  0  0  0  0  0
  -28.3548  -13.9264   21.7746 H   0  0  0  0  0  0
  -25.2766   -9.5753   22.4671 H   0  0  0  0  0  0
  -24.0040   -7.4627   22.7412 H   0  0  0  0  0  0
  -21.0817   -8.8724   19.8908 H   0  0  0  0  0  0
  -22.3630  -10.9635   19.6121 H   0  0  0  0  0  0
  -21.2043   -7.6139   23.9685 H   0  0  0  0  0  0
  -21.1491   -6.0492   25.9035 H   0  0  0  0  0  0
  -22.0607   -2.7601   23.2790 H   0  0  0  0  0  0
  -22.4032  -11.9912   22.4986 H   0  0  0  0  0  0
  -21.0961  -13.1087   22.2553 H   0  0  0  0  0  0
  -24.6683  -15.8667   20.5826 H   0  0  0  0  0  0
  -26.2424  -15.6203   20.0350 H   0  0  0  0  0  0
  -26.7283  -32.5259   23.0915 H   0  0  0  0  0  0
  -25.0254  -33.9572   25.0382 H   0  0  0  0  0  0
  -22.7569  -31.2939   21.3908 H   0  0  0  0  0  0
  -23.3804  -35.9497   23.3305 H   0  0  0  0  0  0
  -24.3582  -36.8844   22.2046 H   0  0  0  0  0  0
  -23.7245  -37.6400   23.6640 H   0  0  0  0  0  0
  -26.1943  -31.4722   20.6379 H   0  0  0  0  0  0
  -26.8597  -30.7371   22.0606 H   0  0  0  0  0  0
  -28.1347  -28.7812   21.2386 H   0  0  0  0  0  0
  -25.9194  -25.8489   18.9618 H   0  0  0  0  0  0
  -24.0016  -27.3317   18.9262 H   0  0  0  0  0  0
  -23.8233  -30.5793   19.3954 H   0  0  0  0  0  0
  -22.7908  -29.2496   19.8345 H   0  0  0  0  0  0
  -25.1366  -36.1822   25.0799 H   0  0  0  0  0  0
  -21.0049  -28.3256   24.1351 H   0  0  0  0  0  0
  -20.5781  -26.2271   23.3630 H   0  0  0  0  0  0
  -21.6679  -26.7441   22.1215 H   0  0  0  0  0  0
  -19.6952  -25.6286   21.1237 H   0  0  0  0  0  0
  -19.6716  -27.3196   20.6784 H   0  0  0  0  0  0
  -17.4266  -26.6684   21.3980 H   0  0  0  0  0  0
  -18.0320  -26.0013   22.9009 H   0  0  0  0  0  0
  -19.7953  -30.7259   24.2254 H   0  0  0  0  0  0
  -17.5046  -31.6261   24.5142 H   0  0  0  0  0  0
  -15.5381  -30.2986   23.7665 H   0  0  0  0  0  0
  -15.8693  -28.0800   22.7132 H   0  0  0  0  0  0
  -24.5892  -30.7110   25.7733 H   0  0  0  0  0  0
  -24.8927  -32.2975   26.4722 H   0  0  0  0  0  0
  -25.8044  -30.8999   27.0218 H   0  0  0  0  0  0
  -26.3041  -29.6652   24.1317 H   0  0  0  0  0  0
  -27.4010  -29.7243   25.4903 H   0  0  0  0  0  0
  -27.8954  -30.4150   23.9648 H   0  0  0  0  0  0
  -27.2671  -33.3576   26.1998 H   0  0  0  0  0  0
  -28.3912  -32.6834   25.0315 H   0  0  0  0  0  0
  -28.0688  -31.8416   26.5436 H   0  0  0  0  0  0
  -28.2622  -38.0081   24.7576 H   0  0  0  0  0  0
  -28.1085  -36.2658   24.6220 H   0  0  0  0  0  0
  -27.2293  -37.1386   25.8844 H   0  0  0  0  0  0
  -20.9488  -29.8736   21.6800 H   0  0  0  0  0  0
  -26.0156  -38.2816   24.1439 H   0  0  0  0  0  0
  -27.6505  -22.4427   22.3519 H   0  0  0  0  0  0
  -29.9672  -20.4491   19.3119 H   0  0  0  0  0  0
  -26.8985  -21.3222   24.2344 H   0  0  0  0  0  0
  -28.0617  -20.1417   24.7743 H   0  0  0  0  0  0
  -26.5361  -19.6101   24.0741 H   0  0  0  0  0  0
  -28.9833  -23.0864   18.9817 H   0  0  0  0  0  0
  -29.9890  -23.4990   20.2985 H   0  0  0  0  0  0
  -31.0922  -17.7748   20.9149 H   0  0  0  0  0  0
  -30.3362  -17.8086   19.3804 H   0  0  0  0  0  0
  -27.6978  -24.5006   21.4184 H   0  0  0  0  0  0
  -27.0463  -24.3436   19.8435 H   0  0  0  0  0  0
  -28.7828  -15.9878   20.8781 H   0  0  0  0  0  0
  1 25  1  0  0  0
  1 30  2  0  0  0
  1 81  1  0  0  0
  2  3  1  0  0  0
  2 25  1  0  0  0
  2 83  1  0  0  0
  2 84  1  0  0  0
  3  4  1  0  0  0
  3 85  1  0  0  0
  3 86  1  0  0  0
  4  5  1  0  0  0
  4 87  1  0  0  0
  4 88  1  0  0  0
  5  6  1  0  0  0
  5 26  1  0  0  0
  5 89  1  0  0  0
  6 25  1  0  0  0
  6 90  1  0  0  0
  6 91  1  0  0  0
  7  8  2  0  0  0
  7 26  1  0  0  0
  7 29  1  0  0  0
  8  9  1  0  0  0
  8 22  1  0  0  0
  9 10  1  0  0  0
  9 27  2  0  0  0
 10 11  2  0  0  0
 10 15  1  0  0  0
 11 12  1  0  0  0
 11 92  1  0  0  0
 12 13  2  0  0  0
 12 93  1  0  0  0
 13 14  1  0  0  0
 13 31  1  0  0  0
 14 15  2  0  0  0
 14 94  1  0  0  0
 15 95  1  0  0  0
 16 17  2  0  0  0
 16 21  1  0  0  0
 16 31  1  0  0  0
 17 18  1  0  0  0
 17 96  1  0  0  0
 18 19  2  0  0  0
 18 97  1  0  0  0
 19 20  1  0  0  0
 19 24  1  0  0  0
 20 21  2  0  0  0
 20 98  1  0  0  0
 21 23  1  0  0  0
 22 28  1  0  0  0
 22 32  2  0  0  0
 26 27  1  0  0  0
 28 99  1  0  0  0
 28100  1  0  0  0
 29101  1  0  0  0
 29102  1  0  0  0
 33 34  1  0  0  0
 33 66  1  0  0  0
 33 70  2  0  0  0
 34 36  1  0  0  0
 34 59  1  0  0  0
 34103  1  0  0  0
 35 44  2  0  0  0
 35 45  1  0  0  0
 35 68  1  0  0  0
 36 56  1  0  0  0
 36104  1  0  0  0
 37 39  1  0  0  0
 37 47  1  0  0  0
 37 66  1  0  0  0
 37105  1  0  0  0
 38 43  2  0  0  0
 38 46  1  0  0  0
 38 47  1  0  0  0
 39 64  1  0  0  0
 39 67  2  0  0  0
 40 52  1  0  0  0
 40 53  2  0  0  0
 40 58  1  0  0  0
 41106  1  0  0  0
 41107  1  0  0  0
 41108  1  0  0  0
 41 48  1  0  0  0
 42 43  1  0  0  0
 42 66  1  0  0  0
 42109  1  0  0  0
 42110  1  0  0  0
 43 44  1  0  0  0
 44111  1  0  0  0
 45 46  2  0  0  0
 45112  1  0  0  0
 46113  1  0  0  0
 47114  1  0  0  0
 47115  1  0  0  0
 48 56  1  0  0  0
 48 65  1  0  0  0
 48116  1  0  0  0
 49 50  1  0  0  0
 49 53  1  0  0  0
 49 64  1  0  0  0
 49117  1  0  0  0
 50 51  1  0  0  0
 50118  1  0  0  0
 50119  1  0  0  0
 51 52  1  0  0  0
 51120  1  0  0  0
 51121  1  0  0  0
 52122  1  0  0  0
 52123  1  0  0  0
 53 54  1  0  0  0
 54 55  2  0  0  0
 54124  1  0  0  0
 55 57  1  0  0  0
 55125  1  0  0  0
 56 69  2  0  0  0
 57 58  2  0  0  0
 57126  1  0  0  0
 58127  1  0  0  0
 59 60  1  0  0  0
 59 61  1  0  0  0
 59 62  1  0  0  0
 60128  1  0  0  0
 60129  1  0  0  0
 60130  1  0  0  0
 61131  1  0  0  0
 61132  1  0  0  0
 61133  1  0  0  0
 62134  1  0  0  0
 62135  1  0  0  0
 62136  1  0  0  0
 63 65  1  0  0  0
 63137  1  0  0  0
 63138  1  0  0  0
 63139  1  0  0  0
 64140  1  0  0  0
 65141  1  0  0  0
 68 80  1  0  0  0
 71 73  2  0  0  0
 71 74  1  0  0  0
 71142  1  0  0  0
 72 73  1  0  0  0
 72 75  2  0  0  0
 72143  1  0  0  0
 73 78  1  0  0  0
 74 76  2  0  0  0
 74 77  1  0  0  0
 75 76  1  0  0  0
 75 79  1  0  0  0
 76 82  1  0  0  0
 77144  1  0  0  0
 77145  1  0  0  0
 77146  1  0  0  0
 78 80  1  0  0  0
 78147  1  0  0  0
 78148  1  0  0  0
 79 81  1  0  0  0
 79149  1  0  0  0
 79150  1  0  0  0
 80151  1  0  0  0
 80152  1  0  0  0
 81153  1  0  0  0
M  ISO  4   1 100  68 101  80 101  81 100
M  END
> <chiral flag>
0

> <version>
0

> <s_m_source_file>
/data/baiqing/PycharmProjects/Reinvent-master-3.2/result/LINK_invent/BTK/process_docking_weight1_custom_sum_contain_oxygen_bond_distance_aromatic_linkinvent_7_9_3/rearranged_h_0028.sdf

> <i_m_source_file_index>
86

> <r_mmod_Potential_Energy-OPLS-2005>
519.219970703125

> <r_mmod_Stretch_Energy-OPLS-2005>
285.555572509766

> <r_mmod_Bend_Energy-OPLS-2005>
259.466461181641

> <r_mmod_Torsional_Energy-OPLS-2005>
216.214096069336

> <r_mmod_Improper_Torsional_Energy-OPLS-2005>
5.39691066741943

> <r_mmod_Van_der_Waal_Energy-OPLS-2005>
132.123092651367

> <r_mmod_Electrostatic_Energy-OPLS-2005>
-382.23876953125

> <r_mmod_Solvation_Energy-OPLS-2005>
-202.3466796875

> <b_mmod_Minimization_Converged-OPLS-2005>
0

> <r_mmod_RMS_Derivative-OPLS-2005>
8.49559497833252

$$$$
86
                    3D
 Structure written by MMmdl.
147155  0  0  1  0            999 V2000
  -30.4328  -15.1903   20.3868 C   0  0  0  0  0  0
  -30.4563  -12.7575   19.5130 C   0  0  0  0  0  0
  -29.5458  -12.5778   18.2713 C   0  0  0  0  0  0
  -28.0835  -12.3142   18.6869 C   0  0  0  0  0  0
  -27.6171  -13.2692   19.8163 C   0  0  2  0  0  0
  -28.6552  -13.3836   20.9528 C   0  0  0  0  0  0
  -25.2378  -13.8172   20.5692 C   0  0  0  0  0  0
  -24.1738  -13.0375   20.9233 C   0  0  0  0  0  0
  -24.6402  -11.6883   20.8719 C   0  0  0  0  0  0
  -23.9083  -10.4259   21.0387 C   0  0  0  0  0  0
  -24.3622   -9.4181   21.9173 C   0  0  0  0  0  0
  -23.6293   -8.2223   22.0754 C   0  0  0  0  0  0
  -22.4277   -8.0260   21.3541 C   0  0  0  0  0  0
  -21.9912   -9.0226   20.4640 C   0  0  0  0  0  0
  -22.7249  -10.2100   20.3041 C   0  0  0  0  0  0
  -21.6847   -6.0722   22.5274 C   0  0  0  0  0  0
  -21.4007   -6.5621   23.8209 C   0  0  0  0  0  0
  -21.3665   -5.6773   24.9165 C   0  0  0  0  0  0
  -21.6053   -4.3040   24.7214 C   0  0  0  0  0  0
  -21.8819   -3.8132   23.4334 C   0  0  0  0  0  0
  -21.9183   -4.6947   22.3388 C   0  0  0  0  0  0
  -22.7753  -13.5151   21.1863 C   0  0  0  0  0  0
  -22.1654   -4.2139   21.0964 F   0  0  0  0  0  0
  -21.5638   -3.4519   25.7727 F   0  0  0  0  0  0
  -29.8996  -13.8792   20.3434 N   0  0  0  0  0  0
  -26.2828  -12.9479   20.3121 N   0  0  0  0  0  0
  -25.9345  -11.6588   20.5661 N   0  0  0  0  0  0
  -22.0367  -12.8204   22.0437 N   0  0  0  0  0  0
  -25.3892  -15.1895   20.4155 N   0  0  0  0  0  0
  -31.6524  -15.2511   20.1830 O   0  0  0  0  0  0
  -21.6625   -6.8870   21.4246 O   0  0  0  0  0  0
  -22.3449  -14.5429   20.6642 O   0  0  0  0  0  0
  -24.6578  -31.8280   23.1739 C   0  0  0  0  0  0
  -25.9277  -32.4617   23.8199 C   0  0  1  0  0  0
  -27.2231  -26.9828   20.1846 C   0  0  0  0  0  0
  -25.5969  -33.8434   24.2110 N   0  0  0  0  0  0
  -23.4701  -30.4379   21.5226 C   0  0  2  0  0  0
  -24.9250  -28.8355   20.1100 C   0  0  0  0  0  0
  -22.7635  -29.4449   22.4806 C   0  0  0  0  0  0
  -18.0299  -28.1416   22.8463 C   0  0  0  0  0  0
  -24.1496  -36.7233   23.2642 C   0  0  0  0  0  0
  -26.0349  -30.6531   21.3951 C   0  0  0  0  0  0
  -26.1044  -29.2472   20.7428 C   0  0  0  0  0  0
  -27.2496  -28.3408   20.7553 C   0  0  0  0  0  0
  -26.0176  -26.7071   19.5034 C   0  0  0  0  0  0
  -24.9035  -27.5841   19.4712 C   0  0  0  0  0  0
  -23.7060  -29.7533   20.1478 C   0  0  0  0  0  0
  -25.4139  -36.3007   24.0302 C   0  0  1  0  0  0
  -20.5928  -28.3755   23.1211 C   0  0  2  0  0  0
  -20.6803  -26.9447   22.5409 C   0  0  0  0  0  0
  -19.5786  -26.6382   21.5219 C   0  0  0  0  0  0
  -18.1954  -26.7949   22.1616 C   0  0  0  0  0  0
  -19.1561  -28.8902   23.2820 C   0  0  0  0  0  0
  -18.9476  -30.1498   23.8837 C   0  0  0  0  0  0
  -17.6474  -30.6604   24.0560 C   0  0  0  0  0  0
  -25.9095  -34.9375   23.5030 C   0  0  0  0  0  0
  -16.5364  -29.9095   23.6353 C   0  0  0  0  0  0
  -16.7282  -28.6523   23.0359 C   0  0  0  0  0  0
  -26.4553  -31.6541   25.0703 C   0  0  0  0  0  0
  -25.3703  -31.3759   26.1371 C   0  0  0  0  0  0
  -27.0430  -30.2913   24.6395 C   0  0  0  0  0  0
  -27.6062  -32.4324   25.7500 C   0  0  0  0  0  0
  -27.5577  -37.1781   24.8464 C   0  0  0  0  0  0
  -21.4308  -29.3033   22.3548 N   0  0  0  0  0  0
  -26.4300  -37.3726   23.9389 N   0  0  0  0  0  0
  -24.7416  -30.9997   22.0842 N   0  0  0  0  0  0
  -23.4200  -28.8012   23.3027 O   0  0  0  0  0  0
  -28.2455  -25.9197   20.2818 O   0  0  0  0  0  0
  -26.5703  -34.8899   22.4623 O   0  0  0  0  0  0
  -23.5661  -32.1211   23.6876 O   0  0  0  0  0  0
  -28.1656  -20.2279   20.0456 C   0  0  0  0  0  0
  -30.5186  -18.9762   20.7710 C   0  0  0  0  0  0
  -29.1456  -21.2243   20.4335 C   0  0  0  0  0  0
  -29.5328  -17.9814   20.3966 C   0  0  0  0  0  0
  -28.3437  -18.7518   20.0302 C   0  0  0  0  0  0
  -30.3388  -20.4508   20.7935 C   0  0  0  0  0  0
  -29.0488  -22.9555   20.6067 C   0  0  0  0  0  0
  -28.0548  -24.3153   20.0654 C   0  0  0  0  0  0
  -29.5664  -16.3741   20.4343 N   0  0  0  0  0  0
  -26.9785  -17.8374   19.5079 Cl  0  0  0  0  0  0
  -31.7074  -21.3489   21.3468 Cl  0  0  0  0  0  0
  -31.4762  -12.9723   19.1895 H   0  0  0  0  0  0
  -30.5187  -11.8357   20.0946 H   0  0  0  0  0  0
  -29.9174  -11.7685   17.6411 H   0  0  0  0  0  0
  -29.5899  -13.4853   17.6664 H   0  0  0  0  0  0
  -28.0199  -11.2811   19.0319 H   0  0  0  0  0  0
  -27.4263  -12.3904   17.8192 H   0  0  0  0  0  0
  -27.5454  -14.2511   19.3460 H   0  0  0  0  0  0
  -28.8020  -12.4255   21.4539 H   0  0  0  0  0  0
  -28.3106  -14.0836   21.7150 H   0  0  0  0  0  0
  -25.2779   -9.5652   22.4733 H   0  0  0  0  0  0
  -23.9981   -7.4631   22.7502 H   0  0  0  0  0  0
  -21.0829   -8.8745   19.8973 H   0  0  0  0  0  0
  -22.3715  -10.9615   19.6126 H   0  0  0  0  0  0
  -21.2004   -7.6133   23.9711 H   0  0  0  0  0  0
  -21.1498   -6.0500   25.9074 H   0  0  0  0  0  0
  -22.0603   -2.7593   23.2822 H   0  0  0  0  0  0
  -22.3963  -11.9926   22.4950 H   0  0  0  0  0  0
  -21.0962  -13.1262   22.2521 H   0  0  0  0  0  0
  -24.5970  -15.8151   20.5118 H   0  0  0  0  0  0
  -26.2001  -15.6520   20.0249 H   0  0  0  0  0  0
  -26.7342  -32.5175   23.0917 H   0  0  0  0  0  0
  -25.0086  -33.9524   25.0242 H   0  0  0  0  0  0
  -22.7810  -31.2677   21.3532 H   0  0  0  0  0  0
  -23.3775  -35.9548   23.3302 H   0  0  0  0  0  0
  -24.3564  -36.8880   22.2055 H   0  0  0  0  0  0
  -23.7239  -37.6417   23.6696 H   0  0  0  0  0  0
  -26.2080  -31.3953   20.6145 H   0  0  0  0  0  0
  -26.8982  -30.7102   22.0465 H   0  0  0  0  0  0
  -28.1430  -28.6524   21.2787 H   0  0  0  0  0  0
  -25.9078  -25.7488   19.0178 H   0  0  0  0  0  0
  -24.0064  -27.2621   18.9589 H   0  0  0  0  0  0
  -23.8509  -30.5183   19.3842 H   0  0  0  0  0  0
  -22.8201  -29.1965   19.8375 H   0  0  0  0  0  0
  -25.1337  -36.1828   25.0795 H   0  0  0  0  0  0
  -20.9999  -28.3361   24.1348 H   0  0  0  0  0  0
  -20.5731  -26.2353   23.3630 H   0  0  0  0  0  0
  -21.6669  -26.7466   22.1197 H   0  0  0  0  0  0
  -19.6968  -25.6283   21.1284 H   0  0  0  0  0  0
  -19.6751  -27.3161   20.6730 H   0  0  0  0  0  0
  -17.4240  -26.6668   21.4011 H   0  0  0  0  0  0
  -18.0363  -26.0096   22.9018 H   0  0  0  0  0  0
  -19.7949  -30.7332   24.2172 H   0  0  0  0  0  0
  -17.5031  -31.6276   24.5185 H   0  0  0  0  0  0
  -15.5375  -30.2996   23.7715 H   0  0  0  0  0  0
  -15.8675  -28.0844   22.7112 H   0  0  0  0  0  0
  -24.5906  -30.7087   25.7672 H   0  0  0  0  0  0
  -24.8875  -32.2949   26.4706 H   0  0  0  0  0  0
  -25.7965  -30.8981   27.0205 H   0  0  0  0  0  0
  -26.3072  -29.6602   24.1401 H   0  0  0  0  0  0
  -27.3966  -29.7261   25.5029 H   0  0  0  0  0  0
  -27.9019  -30.4090   23.9787 H   0  0  0  0  0  0
  -27.2651  -33.3662   26.1982 H   0  0  0  0  0  0
  -28.3935  -32.6817   25.0373 H   0  0  0  0  0  0
  -28.0669  -31.8510   26.5498 H   0  0  0  0  0  0
  -28.2601  -38.0071   24.7512 H   0  0  0  0  0  0
  -28.1078  -36.2608   24.6317 H   0  0  0  0  0  0
  -27.2291  -37.1449   25.8864 H   0  0  0  0  0  0
  -20.9557  -29.8682   21.6647 H   0  0  0  0  0  0
  -26.0172  -38.2801   24.1368 H   0  0  0  0  0  0
  -27.1941  -20.5966   19.7496 H   0  0  0  0  0  0
  -31.4790  -18.6030   21.0951 H   0  0  0  0  0  0
  -30.0468  -23.2731   20.3109 H   0  0  0  0  0  0
  -29.0556  -23.0694   21.6903 H   0  0  0  0  0  0
  -27.0454  -24.0968   20.4138 H   0  0  0  0  0  0
  -27.9967  -24.2121   18.9822 H   0  0  0  0  0  0
  -28.6169  -16.0315   20.4408 H   0  0  0  0  0  0
  1 25  1  0  0  0
  1 30  2  0  0  0
  1 79  1  0  0  0
  2  3  1  0  0  0
  2 25  1  0  0  0
  2 82  1  0  0  0
  2 83  1  0  0  0
  3  4  1  0  0  0
  3 84  1  0  0  0
  3 85  1  0  0  0
  4  5  1  0  0  0
  4 86  1  0  0  0
  4 87  1  0  0  0
  5  6  1  0  0  0
  5 26  1  0  0  0
  5 88  1  0  0  0
  6 25  1  0  0  0
  6 89  1  0  0  0
  6 90  1  0  0  0
  7  8  2  0  0  0
  7 26  1  0  0  0
  7 29  1  0  0  0
  8  9  1  0  0  0
  8 22  1  0  0  0
  9 10  1  0  0  0
  9 27  2  0  0  0
 10 11  2  0  0  0
 10 15  1  0  0  0
 11 12  1  0  0  0
 11 91  1  0  0  0
 12 13  2  0  0  0
 12 92  1  0  0  0
 13 14  1  0  0  0
 13 31  1  0  0  0
 14 15  2  0  0  0
 14 93  1  0  0  0
 15 94  1  0  0  0
 16 17  2  0  0  0
 16 21  1  0  0  0
 16 31  1  0  0  0
 17 18  1  0  0  0
 17 95  1  0  0  0
 18 19  2  0  0  0
 18 96  1  0  0  0
 19 20  1  0  0  0
 19 24  1  0  0  0
 20 21  2  0  0  0
 20 97  1  0  0  0
 21 23  1  0  0  0
 22 28  1  0  0  0
 22 32  2  0  0  0
 26 27  1  0  0  0
 28 98  1  0  0  0
 28 99  1  0  0  0
 29100  1  0  0  0
 29101  1  0  0  0
 33 34  1  0  0  0
 33 66  1  0  0  0
 33 70  2  0  0  0
 34 36  1  0  0  0
 34 59  1  0  0  0
 34102  1  0  0  0
 35 44  2  0  0  0
 35 45  1  0  0  0
 35 68  1  0  0  0
 36 56  1  0  0  0
 36103  1  0  0  0
 37 39  1  0  0  0
 37 47  1  0  0  0
 37 66  1  0  0  0
 37104  1  0  0  0
 38 43  2  0  0  0
 38 46  1  0  0  0
 38 47  1  0  0  0
 39 64  1  0  0  0
 39 67  2  0  0  0
 40 52  1  0  0  0
 40 53  2  0  0  0
 40 58  1  0  0  0
 41105  1  0  0  0
 41106  1  0  0  0
 41107  1  0  0  0
 41 48  1  0  0  0
 42 43  1  0  0  0
 42 66  1  0  0  0
 42108  1  0  0  0
 42109  1  0  0  0
 43 44  1  0  0  0
 44110  1  0  0  0
 45 46  2  0  0  0
 45111  1  0  0  0
 46112  1  0  0  0
 47113  1  0  0  0
 47114  1  0  0  0
 48 56  1  0  0  0
 48 65  1  0  0  0
 48115  1  0  0  0
 49 50  1  0  0  0
 49 53  1  0  0  0
 49 64  1  0  0  0
 49116  1  0  0  0
 50 51  1  0  0  0
 50117  1  0  0  0
 50118  1  0  0  0
 51 52  1  0  0  0
 51119  1  0  0  0
 51120  1  0  0  0
 52121  1  0  0  0
 52122  1  0  0  0
 53 54  1  0  0  0
 54 55  2  0  0  0
 54123  1  0  0  0
 55 57  1  0  0  0
 55124  1  0  0  0
 56 69  2  0  0  0
 57 58  2  0  0  0
 57125  1  0  0  0
 58126  1  0  0  0
 59 60  1  0  0  0
 59 61  1  0  0  0
 59 62  1  0  0  0
 60127  1  0  0  0
 60128  1  0  0  0
 60129  1  0  0  0
 61130  1  0  0  0
 61131  1  0  0  0
 61132  1  0  0  0
 62133  1  0  0  0
 62134  1  0  0  0
 62135  1  0  0  0
 63 65  1  0  0  0
 63136  1  0  0  0
 63137  1  0  0  0
 63138  1  0  0  0
 64139  1  0  0  0
 65140  1  0  0  0
 68 78  1  0  0  0
 71 73  2  0  0  0
 71 75  1  0  0  0
 71141  1  0  0  0
 72 74  1  0  0  0
 72 76  2  0  0  0
 72142  1  0  0  0
 73 76  1  0  0  0
 73 77  1  0  0  0
 74 75  2  0  0  0
 74 79  1  0  0  0
 75 80  1  0  0  0
 76 81  1  0  0  0
 77 78  1  0  0  0
 77143  1  0  0  0
 77144  1  0  0  0
 78145  1  0  0  0
 78146  1  0  0  0
 79147  1  0  0  0
M  ISO  4   1 100  68 101  78 101  79 100
M  END
> <chiral flag>
0

> <version>
0

> <s_m_source_file>
/data/baiqing/PycharmProjects/Reinvent-master-3.2/result/LINK_invent/BTK/process_docking_weight1_custom_sum_contain_oxygen_bond_distance_aromatic_linkinvent_7_9_3/rearranged_h_0028.sdf

> <i_m_source_file_index>
87

> <r_mmod_Potential_Energy-OPLS-2005>
1002.19122314453

> <r_mmod_Stretch_Energy-OPLS-2005>
450.683197021484

> <r_mmod_Bend_Energy-OPLS-2005>
415.337677001953

> <r_mmod_Torsional_Energy-OPLS-2005>
216.207763671875

> <r_mmod_Improper_Torsional_Energy-OPLS-2005>
5.68010663986206

> <r_mmod_Van_der_Waal_Energy-OPLS-2005>
124.128570556641

> <r_mmod_Electrostatic_Energy-OPLS-2005>
-390.233703613281

> <r_mmod_Solvation_Energy-OPLS-2005>
-204.531982421875

> <b_mmod_Minimization_Converged-OPLS-2005>
0

> <r_mmod_RMS_Derivative-OPLS-2005>
2.39136981964111

$$$$
87
                    3D
 Structure written by MMmdl.
157165  0  0  1  0            999 V2000
  -30.6863  -14.6245   20.4994 C   0  0  0  0  0  0
  -30.4185  -12.3886   19.4548 C   0  0  0  0  0  0
  -29.4981  -12.4970   18.2223 C   0  0  0  0  0  0
  -28.0234  -12.3415   18.6387 C   0  0  0  0  0  0
  -27.6459  -13.2286   19.8560 C   0  0  2  0  0  0
  -28.6927  -13.1285   20.9873 C   0  0  0  0  0  0
  -25.2517  -13.8193   20.5691 C   0  0  0  0  0  0
  -24.1802  -13.0440   20.9193 C   0  0  0  0  0  0
  -24.6394  -11.6921   20.8746 C   0  0  0  0  0  0
  -23.9071  -10.4296   21.0405 C   0  0  0  0  0  0
  -24.3621   -9.4211   21.9184 C   0  0  0  0  0  0
  -23.6296   -8.2246   22.0754 C   0  0  0  0  0  0
  -22.4279   -8.0282   21.3544 C   0  0  0  0  0  0
  -21.9914   -9.0257   20.4647 C   0  0  0  0  0  0
  -22.7242  -10.2137   20.3057 C   0  0  0  0  0  0
  -21.6855   -6.0736   22.5278 C   0  0  0  0  0  0
  -21.4015   -6.5640   23.8212 C   0  0  0  0  0  0
  -21.3661   -5.6793   24.9173 C   0  0  0  0  0  0
  -21.6045   -4.3055   24.7224 C   0  0  0  0  0  0
  -21.8819   -3.8147   23.4345 C   0  0  0  0  0  0
  -21.9193   -4.6963   22.3401 C   0  0  0  0  0  0
  -22.7824  -13.5222   21.1857 C   0  0  0  0  0  0
  -22.1662   -4.2148   21.0978 F   0  0  0  0  0  0
  -21.5631   -3.4540   25.7738 F   0  0  0  0  0  0
  -30.0038  -13.4406   20.4053 N   0  0  0  0  0  0
  -26.2961  -12.9405   20.3324 N   0  0  0  0  0  0
  -25.9331  -11.6547   20.5778 N   0  0  0  0  0  0
  -22.0474  -12.8213   22.0417 N   0  0  0  0  0  0
  -25.4188  -15.1910   20.4105 N   0  0  0  0  0  0
  -31.8656  -14.6964   20.1486 O   0  0  0  0  0  0
  -21.6643   -6.8879   21.4239 O   0  0  0  0  0  0
  -22.3499  -14.5525   20.6707 O   0  0  0  0  0  0
  -24.6270  -31.8609   23.2052 C   0  0  0  0  0  0
  -25.9120  -32.4782   23.8368 C   0  0  1  0  0  0
  -27.2130  -27.3185   20.1079 C   0  0  0  0  0  0
  -25.5934  -33.8584   24.2293 N   0  0  0  0  0  0
  -23.4192  -30.4884   21.5489 C   0  0  2  0  0  0
  -24.8621  -28.9516   20.1092 C   0  0  0  0  0  0
  -22.7476  -29.4636   22.4945 C   0  0  0  0  0  0
  -18.0286  -28.1384   22.8492 C   0  0  0  0  0  0
  -24.1490  -36.7298   23.2639 C   0  0  0  0  0  0
  -25.9627  -30.7912   21.3779 C   0  0  0  0  0  0
  -26.0342  -29.4212   20.7158 C   0  0  0  0  0  0
  -27.2131  -28.6162   20.7081 C   0  0  0  0  0  0
  -26.0159  -26.9129   19.4684 C   0  0  0  0  0  0
  -24.8554  -27.7025   19.4770 C   0  0  0  0  0  0
  -23.6319  -29.8317   20.1617 C   0  0  0  0  0  0
  -25.4113  -36.3087   24.0332 C   0  0  1  0  0  0
  -20.5886  -28.3691   23.1289 C   0  0  2  0  0  0
  -20.6780  -26.9417   22.5412 C   0  0  0  0  0  0
  -19.5750  -26.6389   21.5219 C   0  0  0  0  0  0
  -18.1930  -26.7928   22.1631 C   0  0  0  0  0  0
  -19.1538  -28.8854   23.2885 C   0  0  0  0  0  0
  -18.9459  -30.1456   23.8902 C   0  0  0  0  0  0
  -17.6458  -30.6589   24.0565 C   0  0  0  0  0  0
  -25.9051  -34.9455   23.5110 C   0  0  0  0  0  0
  -16.5350  -29.9086   23.6332 C   0  0  0  0  0  0
  -16.7273  -28.6502   23.0358 C   0  0  0  0  0  0
  -26.4499  -31.6583   25.0734 C   0  0  0  0  0  0
  -25.3735  -31.3717   26.1463 C   0  0  0  0  0  0
  -27.0339  -30.3004   24.6190 C   0  0  0  0  0  0
  -27.6062  -32.4314   25.7499 C   0  0  0  0  0  0
  -27.5581  -37.1805   24.8466 C   0  0  0  0  0  0
  -21.4190  -29.3044   22.3684 N   0  0  0  0  0  0
  -26.4293  -37.3779   23.9409 N   0  0  0  0  0  0
  -24.6887  -31.0627   22.1004 N   0  0  0  0  0  0
  -23.4203  -28.8166   23.3015 O   0  0  0  0  0  0
  -28.3150  -26.4456   20.1667 O   0  0  0  0  0  0
  -26.5615  -34.8919   22.4674 O   0  0  0  0  0  0
  -23.5435  -32.1411   23.7379 O   0  0  0  0  0  0
  -30.7903  -19.5245   20.1719 C   0  0  0  0  0  0
  -30.3414  -20.8622   19.9624 C   0  0  0  0  0  0
  -29.9789  -18.4991   20.7252 C   0  0  0  0  0  0
  -28.1926  -20.2277   20.8695 C   0  0  0  0  0  0
  -29.0226  -21.2608   20.3277 C   0  0  0  0  0  0
  -28.6580  -18.8839   21.0710 C   0  0  0  0  0  0
  -31.3043  -21.8214   19.2888 C   0  0  0  0  0  0
  -26.7573  -20.5571   21.2604 C   0  0  0  0  0  0
  -30.6412  -17.1081   21.0613 C   0  0  0  0  0  0
  -28.0315  -25.0031   19.9630 C   0  0  0  0  0  0
  -29.0571  -23.8418   20.3111 C   0  0  0  0  0  0
  -30.0007  -15.7654   20.8253 N   0  0  0  0  0  0
  -28.4419  -22.5264   20.0797 O   0  0  0  0  0  0
  -27.6070  -17.7061   21.7828 Cl  0  0  0  0  0  0
  -31.4626  -12.4821   19.1517 H   0  0  0  0  0  0
  -30.3306  -11.4048   19.9184 H   0  0  0  0  0  0
  -29.7606  -11.7363   17.4860 H   0  0  0  0  0  0
  -29.6443  -13.4615   17.7329 H   0  0  0  0  0  0
  -27.8624  -11.2911   18.8838 H   0  0  0  0  0  0
  -27.3673  -12.5594   17.7952 H   0  0  0  0  0  0
  -27.6527  -14.2576   19.4956 H   0  0  0  0  0  0
  -28.7018  -12.1276   21.4209 H   0  0  0  0  0  0
  -28.4471  -13.8111   21.8023 H   0  0  0  0  0  0
  -25.2764   -9.5690   22.4762 H   0  0  0  0  0  0
  -24.0006   -7.4638   22.7474 H   0  0  0  0  0  0
  -21.0847   -8.8777   19.8952 H   0  0  0  0  0  0
  -22.3699  -10.9678   19.6171 H   0  0  0  0  0  0
  -21.2006   -7.6148   23.9715 H   0  0  0  0  0  0
  -21.1485   -6.0523   25.9076 H   0  0  0  0  0  0
  -22.0597   -2.7610   23.2847 H   0  0  0  0  0  0
  -22.4099  -11.9879   22.4806 H   0  0  0  0  0  0
  -21.1093  -13.1235   22.2631 H   0  0  0  0  0  0
  -24.6578  -15.8460   20.5501 H   0  0  0  0  0  0
  -26.2826  -15.6435   20.1420 H   0  0  0  0  0  0
  -26.7187  -32.5446   23.1116 H   0  0  0  0  0  0
  -25.0080  -33.9728   25.0437 H   0  0  0  0  0  0
  -22.7131  -31.3099   21.4106 H   0  0  0  0  0  0
  -23.3752  -35.9629   23.3296 H   0  0  0  0  0  0
  -24.3587  -36.8922   22.2055 H   0  0  0  0  0  0
  -23.7242  -37.6500   23.6661 H   0  0  0  0  0  0
  -26.0978  -31.5565   20.6123 H   0  0  0  0  0  0
  -26.8424  -30.8351   22.0082 H   0  0  0  0  0  0
  -28.1094  -28.9693   21.1987 H   0  0  0  0  0  0
  -25.9316  -25.9648   18.9604 H   0  0  0  0  0  0
  -23.9588  -27.3392   18.9936 H   0  0  0  0  0  0
  -23.7520  -30.6124   19.4095 H   0  0  0  0  0  0
  -22.7507  -29.2642   19.8567 H   0  0  0  0  0  0
  -25.1290  -36.1943   25.0824 H   0  0  0  0  0  0
  -20.9977  -28.3263   24.1410 H   0  0  0  0  0  0
  -20.5704  -26.2295   23.3606 H   0  0  0  0  0  0
  -21.6645  -26.7462   22.1191 H   0  0  0  0  0  0
  -19.6915  -25.6303   21.1242 H   0  0  0  0  0  0
  -19.6685  -27.3207   20.6754 H   0  0  0  0  0  0
  -17.4201  -26.6683   21.4030 H   0  0  0  0  0  0
  -18.0326  -26.0066   22.9023 H   0  0  0  0  0  0
  -19.7933  -30.7272   24.2277 H   0  0  0  0  0  0
  -17.5011  -31.6271   24.5164 H   0  0  0  0  0  0
  -15.5351  -30.2991   23.7651 H   0  0  0  0  0  0
  -15.8672  -28.0821   22.7078 H   0  0  0  0  0  0
  -24.5908  -30.7068   25.7794 H   0  0  0  0  0  0
  -24.8930  -32.2880   26.4900 H   0  0  0  0  0  0
  -25.8065  -30.8886   27.0232 H   0  0  0  0  0  0
  -26.2914  -29.6754   24.1217 H   0  0  0  0  0  0
  -27.4036  -29.7260   25.4694 H   0  0  0  0  0  0
  -27.8784  -30.4286   23.9416 H   0  0  0  0  0  0
  -27.2683  -33.3622   26.2068 H   0  0  0  0  0  0
  -28.3874  -32.6862   25.0324 H   0  0  0  0  0  0
  -28.0726  -31.8442   26.5420 H   0  0  0  0  0  0
  -28.2596  -38.0104   24.7515 H   0  0  0  0  0  0
  -28.1080  -36.2637   24.6287 H   0  0  0  0  0  0
  -27.2301  -37.1450   25.8869 H   0  0  0  0  0  0
  -20.9365  -29.8768   21.6897 H   0  0  0  0  0  0
  -26.0176  -38.2856   24.1403 H   0  0  0  0  0  0
  -31.8085  -19.2784   19.9039 H   0  0  0  0  0  0
  -32.1654  -21.2971   18.8733 H   0  0  0  0  0  0
  -31.6799  -22.5537   20.0032 H   0  0  0  0  0  0
  -30.8175  -22.3375   18.4612 H   0  0  0  0  0  0
  -26.4930  -21.6007   21.0972 H   0  0  0  0  0  0
  -26.5971  -20.3460   22.3178 H   0  0  0  0  0  0
  -26.0614  -19.9481   20.6832 H   0  0  0  0  0  0
  -30.8700  -17.1411   22.1270 H   0  0  0  0  0  0
  -31.6178  -17.1125   20.5759 H   0  0  0  0  0  0
  -27.1273  -24.7624   20.5247 H   0  0  0  0  0  0
  -27.7880  -24.8711   18.9082 H   0  0  0  0  0  0
  -29.3655  -23.9124   21.3544 H   0  0  0  0  0  0
  -29.9422  -23.9900   19.6995 H   0  0  0  0  0  0
  -29.0180  -15.6809   21.0369 H   0  0  0  0  0  0
  1 25  1  0  0  0
  1 30  2  0  0  0
  1 82  1  0  0  0
  2  3  1  0  0  0
  2 25  1  0  0  0
  2 85  1  0  0  0
  2 86  1  0  0  0
  3  4  1  0  0  0
  3 87  1  0  0  0
  3 88  1  0  0  0
  4  5  1  0  0  0
  4 89  1  0  0  0
  4 90  1  0  0  0
  5  6  1  0  0  0
  5 26  1  0  0  0
  5 91  1  0  0  0
  6 25  1  0  0  0
  6 92  1  0  0  0
  6 93  1  0  0  0
  7  8  2  0  0  0
  7 26  1  0  0  0
  7 29  1  0  0  0
  8  9  1  0  0  0
  8 22  1  0  0  0
  9 10  1  0  0  0
  9 27  2  0  0  0
 10 11  2  0  0  0
 10 15  1  0  0  0
 11 12  1  0  0  0
 11 94  1  0  0  0
 12 13  2  0  0  0
 12 95  1  0  0  0
 13 14  1  0  0  0
 13 31  1  0  0  0
 14 15  2  0  0  0
 14 96  1  0  0  0
 15 97  1  0  0  0
 16 17  2  0  0  0
 16 21  1  0  0  0
 16 31  1  0  0  0
 17 18  1  0  0  0
 17 98  1  0  0  0
 18 19  2  0  0  0
 18 99  1  0  0  0
 19 20  1  0  0  0
 19 24  1  0  0  0
 20 21  2  0  0  0
 20100  1  0  0  0
 21 23  1  0  0  0
 22 28  1  0  0  0
 22 32  2  0  0  0
 26 27  1  0  0  0
 28101  1  0  0  0
 28102  1  0  0  0
 29103  1  0  0  0
 29104  1  0  0  0
 33 34  1  0  0  0
 33 66  1  0  0  0
 33 70  2  0  0  0
 34 36  1  0  0  0
 34 59  1  0  0  0
 34105  1  0  0  0
 35 44  2  0  0  0
 35 45  1  0  0  0
 35 68  1  0  0  0
 36 56  1  0  0  0
 36106  1  0  0  0
 37 39  1  0  0  0
 37 47  1  0  0  0
 37 66  1  0  0  0
 37107  1  0  0  0
 38 43  2  0  0  0
 38 46  1  0  0  0
 38 47  1  0  0  0
 39 64  1  0  0  0
 39 67  2  0  0  0
 40 52  1  0  0  0
 40 53  2  0  0  0
 40 58  1  0  0  0
 41108  1  0  0  0
 41109  1  0  0  0
 41110  1  0  0  0
 41 48  1  0  0  0
 42 43  1  0  0  0
 42 66  1  0  0  0
 42111  1  0  0  0
 42112  1  0  0  0
 43 44  1  0  0  0
 44113  1  0  0  0
 45 46  2  0  0  0
 45114  1  0  0  0
 46115  1  0  0  0
 47116  1  0  0  0
 47117  1  0  0  0
 48 56  1  0  0  0
 48 65  1  0  0  0
 48118  1  0  0  0
 49 50  1  0  0  0
 49 53  1  0  0  0
 49 64  1  0  0  0
 49119  1  0  0  0
 50 51  1  0  0  0
 50120  1  0  0  0
 50121  1  0  0  0
 51 52  1  0  0  0
 51122  1  0  0  0
 51123  1  0  0  0
 52124  1  0  0  0
 52125  1  0  0  0
 53 54  1  0  0  0
 54 55  2  0  0  0
 54126  1  0  0  0
 55 57  1  0  0  0
 55127  1  0  0  0
 56 69  2  0  0  0
 57 58  2  0  0  0
 57128  1  0  0  0
 58129  1  0  0  0
 59 60  1  0  0  0
 59 61  1  0  0  0
 59 62  1  0  0  0
 60130  1  0  0  0
 60131  1  0  0  0
 60132  1  0  0  0
 61133  1  0  0  0
 61134  1  0  0  0
 61135  1  0  0  0
 62136  1  0  0  0
 62137  1  0  0  0
 62138  1  0  0  0
 63 65  1  0  0  0
 63139  1  0  0  0
 63140  1  0  0  0
 63141  1  0  0  0
 64142  1  0  0  0
 65143  1  0  0  0
 68 80  1  0  0  0
 71 72  2  0  0  0
 71 73  1  0  0  0
 71144  1  0  0  0
 72 75  1  0  0  0
 72 77  1  0  0  0
 73 76  2  0  0  0
 73 79  1  0  0  0
 74 75  2  0  0  0
 74 76  1  0  0  0
 74 78  1  0  0  0
 75 83  1  0  0  0
 76 84  1  0  0  0
 77145  1  0  0  0
 77146  1  0  0  0
 77147  1  0  0  0
 78148  1  0  0  0
 78149  1  0  0  0
 78150  1  0  0  0
 79 82  1  0  0  0
 79151  1  0  0  0
 79152  1  0  0  0
 80 81  1  0  0  0
 80153  1  0  0  0
 80154  1  0  0  0
 81 83  1  0  0  0
 81155  1  0  0  0
 81156  1  0  0  0
 82157  1  0  0  0
M  ISO  4   1 100  68 101  80 101  82 100
M  END
> <chiral flag>
0

> <version>
0

> <s_m_source_file>
/data/baiqing/PycharmProjects/Reinvent-master-3.2/result/LINK_invent/BTK/process_docking_weight1_custom_sum_contain_oxygen_bond_distance_aromatic_linkinvent_7_9_3/rearranged_h_0028.sdf

> <i_m_source_file_index>
88

> <r_mmod_Potential_Energy-OPLS-2005>
54.7912063598633

> <r_mmod_Stretch_Energy-OPLS-2005>
80.3965454101562

> <r_mmod_Bend_Energy-OPLS-2005>
164.399063110352

> <r_mmod_Torsional_Energy-OPLS-2005>
214.674377441406

> <r_mmod_Improper_Torsional_Energy-OPLS-2005>
4.63040399551392

> <r_mmod_Van_der_Waal_Energy-OPLS-2005>
156.429824829102

> <r_mmod_Electrostatic_Energy-OPLS-2005>
-417.902038574219

> <r_mmod_Solvation_Energy-OPLS-2005>
-199.063812255859

> <b_mmod_Minimization_Converged-OPLS-2005>
0

> <r_mmod_RMS_Derivative-OPLS-2005>
0.390588313341141

$$$$
88
                    3D
 Structure written by MMmdl.
169178  0  0  1  0            999 V2000
  -30.6360  -14.5502   20.5038 C   0  0  0  0  0  0
  -30.4154  -12.3331   19.4442 C   0  0  0  0  0  0
  -29.5009  -12.5221   18.2151 C   0  0  0  0  0  0
  -28.0141  -12.3959   18.6064 C   0  0  0  0  0  0
  -27.6521  -13.2173   19.8767 C   0  0  2  0  0  0
  -28.6920  -13.0189   21.0015 C   0  0  0  0  0  0
  -25.2555  -13.8181   20.5743 C   0  0  0  0  0  0
  -24.1815  -13.0450   20.9216 C   0  0  0  0  0  0
  -24.6364  -11.6918   20.8719 C   0  0  0  0  0  0
  -23.9017  -10.4319   21.0391 C   0  0  0  0  0  0
  -24.3602   -9.4273   21.9204 C   0  0  0  0  0  0
  -23.6314   -8.2279   22.0737 C   0  0  0  0  0  0
  -22.4312   -8.0264   21.3508 C   0  0  0  0  0  0
  -21.9911   -9.0229   20.4616 C   0  0  0  0  0  0
  -22.7176  -10.2150   20.3048 C   0  0  0  0  0  0
  -21.6887   -6.0760   22.5308 C   0  0  0  0  0  0
  -21.4007   -6.5662   23.8235 C   0  0  0  0  0  0
  -21.3659   -5.6815   24.9208 C   0  0  0  0  0  0
  -21.6052   -4.3080   24.7263 C   0  0  0  0  0  0
  -21.8811   -3.8168   23.4386 C   0  0  0  0  0  0
  -21.9210   -4.6994   22.3446 C   0  0  0  0  0  0
  -22.7855  -13.5241   21.1930 C   0  0  0  0  0  0
  -22.1674   -4.2193   21.1017 F   0  0  0  0  0  0
  -21.5645   -3.4538   25.7760 F   0  0  0  0  0  0
  -30.0177  -13.3361   20.4494 N   0  0  0  0  0  0
  -26.2970  -12.9355   20.3374 N   0  0  0  0  0  0
  -25.9289  -11.6498   20.5719 N   0  0  0  0  0  0
  -22.0501  -12.8156   22.0439 N   0  0  0  0  0  0
  -25.4305  -15.1897   20.4134 N   0  0  0  0  0  0
  -31.7846  -14.7242   20.0916 O   0  0  0  0  0  0
  -21.6675   -6.8871   21.4239 O   0  0  0  0  0  0
  -22.3528  -14.5588   20.6863 O   0  0  0  0  0  0
  -24.6198  -31.8646   23.2075 C   0  0  0  0  0  0
  -25.9074  -32.4795   23.8396 C   0  0  1  0  0  0
  -27.2467  -27.3992   20.1150 C   0  0  0  0  0  0
  -25.5904  -33.8593   24.2320 N   0  0  0  0  0  0
  -23.4117  -30.4857   21.5477 C   0  0  2  0  0  0
  -24.8637  -28.9429   20.1173 C   0  0  0  0  0  0
  -22.7452  -29.4626   22.4971 C   0  0  0  0  0  0
  -18.0282  -28.1361   22.8485 C   0  0  0  0  0  0
  -24.1487  -36.7304   23.2643 C   0  0  0  0  0  0
  -25.9433  -30.8159   21.3726 C   0  0  0  0  0  0
  -26.0233  -29.4456   20.7238 C   0  0  0  0  0  0
  -27.2173  -28.6813   20.7229 C   0  0  0  0  0  0
  -26.0740  -26.9211   19.4959 C   0  0  0  0  0  0
  -24.8868  -27.6799   19.4988 C   0  0  0  0  0  0
  -23.6270  -29.8149   20.1643 C   0  0  0  0  0  0
  -25.4103  -36.3094   24.0336 C   0  0  1  0  0  0
  -20.5875  -28.3651   23.1305 C   0  0  2  0  0  0
  -20.6759  -26.9379   22.5417 C   0  0  0  0  0  0
  -19.5741  -26.6366   21.5212 C   0  0  0  0  0  0
  -18.1920  -26.7916   22.1607 C   0  0  0  0  0  0
  -19.1533  -28.8820   23.2894 C   0  0  0  0  0  0
  -18.9458  -30.1429   23.8902 C   0  0  0  0  0  0
  -17.6453  -30.6565   24.0555 C   0  0  0  0  0  0
  -25.9039  -34.9457   23.5127 C   0  0  0  0  0  0
  -16.5347  -29.9062   23.6325 C   0  0  0  0  0  0
  -16.7266  -28.6481   23.0347 C   0  0  0  0  0  0
  -26.4493  -31.6569   25.0726 C   0  0  0  0  0  0
  -25.3756  -31.3637   26.1467 C   0  0  0  0  0  0
  -27.0351  -30.3015   24.6101 C   0  0  0  0  0  0
  -27.6035  -32.4300   25.7512 C   0  0  0  0  0  0
  -27.5580  -37.1813   24.8456 C   0  0  0  0  0  0
  -21.4173  -29.3021   22.3719 N   0  0  0  0  0  0
  -26.4282  -37.3788   23.9415 N   0  0  0  0  0  0
  -24.6752  -31.0705   22.1002 N   0  0  0  0  0  0
  -23.4195  -28.8160   23.3035 O   0  0  0  0  0  0
  -28.3848  -26.6102   20.0826 O   0  0  0  0  0  0
  -26.5601  -34.8913   22.4697 O   0  0  0  0  0  0
  -23.5370  -32.1405   23.7444 O   0  0  0  0  0  0
  -31.1387  -21.8927   20.8152 C   0  0  0  0  0  0
  -32.5768  -21.9113   20.9288 C   0  0  0  0  0  0
  -30.9211  -20.5804   20.3809 C   0  0  0  0  0  0
  -28.7855  -23.1310   20.6376 C   0  0  0  0  0  0
  -30.8079  -24.4722   20.8497 C   0  0  0  0  0  0
  -27.9320  -24.3314   21.1775 C   0  0  0  0  0  0
  -30.0913  -25.6366   21.5599 C   0  0  0  0  0  0
  -30.2181  -23.0804   21.2381 C   0  0  2  0  0  0
  -28.5929  -25.7504   21.2281 C   0  0  1  0  0  0
  -33.5173  -22.8496   21.6385 C   0  0  0  0  0  0
  -32.4727  -18.9645   19.1132 C   0  0  0  0  0  0
  -29.7400  -19.6128   20.2920 C   0  0  0  0  0  0
  -29.9361  -18.2127   21.0108 C   0  0  0  0  0  0
  -29.8597  -16.9332   20.1000 C   0  0  0  0  0  0
  -33.1533  -20.9215   20.2859 N   0  0  0  0  0  0
  -32.1453  -20.1375   19.8996 N   0  0  0  0  0  0
  -29.8221  -15.6053   20.7768 N   0  0  0  0  0  0
  -31.4648  -12.4247   19.1546 H   0  0  0  0  0  0
  -30.3029  -11.3293   19.8553 H   0  0  0  0  0  0
  -29.7412  -11.7891   17.4416 H   0  0  0  0  0  0
  -29.6826  -13.5005   17.7677 H   0  0  0  0  0  0
  -27.7856  -11.3415   18.7597 H   0  0  0  0  0  0
  -27.3913  -12.7195   17.7713 H   0  0  0  0  0  0
  -27.6801  -14.2658   19.5810 H   0  0  0  0  0  0
  -28.6789  -11.9894   21.3641 H   0  0  0  0  0  0
  -28.4570  -13.6372   21.8676 H   0  0  0  0  0  0
  -25.2760   -9.5835   22.4747 H   0  0  0  0  0  0
  -24.0114   -7.4690   22.7422 H   0  0  0  0  0  0
  -21.0887   -8.8643   19.8880 H   0  0  0  0  0  0
  -22.3575  -10.9662   19.6145 H   0  0  0  0  0  0
  -21.1924   -7.6156   23.9721 H   0  0  0  0  0  0
  -21.1501   -6.0572   25.9106 H   0  0  0  0  0  0
  -22.0578   -2.7627   23.2886 H   0  0  0  0  0  0
  -22.4118  -11.9806   22.4790 H   0  0  0  0  0  0
  -21.1063  -13.1070   22.2551 H   0  0  0  0  0  0
  -24.6660  -15.8511   20.5055 H   0  0  0  0  0  0
  -26.2892  -15.6214   20.0964 H   0  0  0  0  0  0
  -26.7132  -32.5498   23.1157 H   0  0  0  0  0  0
  -25.0084  -33.9758   25.0482 H   0  0  0  0  0  0
  -22.7014  -31.3009   21.4046 H   0  0  0  0  0  0
  -23.3753  -35.9635   23.3287 H   0  0  0  0  0  0
  -24.3588  -36.8947   22.2060 H   0  0  0  0  0  0
  -23.7232  -37.6495   23.6677 H   0  0  0  0  0  0
  -26.0664  -31.5777   20.6013 H   0  0  0  0  0  0
  -26.8278  -30.8709   21.9964 H   0  0  0  0  0  0
  -28.1130  -29.0626   21.1947 H   0  0  0  0  0  0
  -26.0808  -25.9529   19.0146 H   0  0  0  0  0  0
  -23.9986  -27.2894   19.0216 H   0  0  0  0  0  0
  -23.7407  -30.5895   19.4057 H   0  0  0  0  0  0
  -22.7519  -29.2381   19.8611 H   0  0  0  0  0  0
  -25.1292  -36.1962   25.0827 H   0  0  0  0  0  0
  -20.9964  -28.3209   24.1425 H   0  0  0  0  0  0
  -20.5666  -26.2252   23.3607 H   0  0  0  0  0  0
  -21.6635  -26.7411   22.1208 H   0  0  0  0  0  0
  -19.6904  -25.6285   21.1227 H   0  0  0  0  0  0
  -19.6694  -27.3197   20.6752 H   0  0  0  0  0  0
  -17.4204  -26.6698   21.3985 H   0  0  0  0  0  0
  -18.0290  -26.0039   22.8973 H   0  0  0  0  0  0
  -19.7925  -30.7254   24.2274 H   0  0  0  0  0  0
  -17.4999  -31.6253   24.5147 H   0  0  0  0  0  0
  -15.5356  -30.2958   23.7638 H   0  0  0  0  0  0
  -15.8665  -28.0800   22.7056 H   0  0  0  0  0  0
  -24.5942  -30.6981   25.7789 H   0  0  0  0  0  0
  -24.8950  -32.2774   26.4954 H   0  0  0  0  0  0
  -25.8130  -30.8771   27.0197 H   0  0  0  0  0  0
  -26.2912  -29.6745   24.1165 H   0  0  0  0  0  0
  -27.4153  -29.7261   25.4556 H   0  0  0  0  0  0
  -27.8729  -30.4345   23.9251 H   0  0  0  0  0  0
  -27.2619  -33.3570   26.2120 H   0  0  0  0  0  0
  -28.3841  -32.6902   25.0357 H   0  0  0  0  0  0
  -28.0705  -31.8412   26.5414 H   0  0  0  0  0  0
  -28.2572  -38.0132   24.7535 H   0  0  0  0  0  0
  -28.1103  -36.2671   24.6248 H   0  0  0  0  0  0
  -27.2307  -37.1413   25.8858 H   0  0  0  0  0  0
  -20.9346  -29.8748   21.6938 H   0  0  0  0  0  0
  -26.0168  -38.2863   24.1424 H   0  0  0  0  0  0
  -28.8375  -23.1888   19.5487 H   0  0  0  0  0  0
  -28.2488  -22.2106   20.8636 H   0  0  0  0  0  0
  -31.8503  -24.5814   21.1110 H   0  0  0  0  0  0
  -30.7787  -24.6098   19.7676 H   0  0  0  0  0  0
  -27.6814  -24.0794   22.2084 H   0  0  0  0  0  0
  -26.9745  -24.3773   20.6579 H   0  0  0  0  0  0
  -30.5988  -26.5787   21.3478 H   0  0  0  0  0  0
  -30.1969  -25.4841   22.6346 H   0  0  0  0  0  0
  -30.1163  -23.0496   22.3237 H   0  0  0  0  0  0
  -28.1483  -26.2765   22.0774 H   0  0  0  0  0  0
  -33.8587  -23.6433   20.9752 H   0  0  0  0  0  0
  -34.4096  -22.3309   21.9933 H   0  0  0  0  0  0
  -33.0573  -23.2958   22.5208 H   0  0  0  0  0  0
  -31.6547  -18.7395   18.4316 H   0  0  0  0  0  0
  -32.6502  -18.1153   19.7707 H   0  0  0  0  0  0
  -33.3713  -19.1401   18.5167 H   0  0  0  0  0  0
  -29.4911  -19.4549   19.2435 H   0  0  0  0  0  0
  -28.8559  -20.0881   20.7112 H   0  0  0  0  0  0
  -29.1831  -18.1333   21.7966 H   0  0  0  0  0  0
  -30.8896  -18.2078   21.5376 H   0  0  0  0  0  0
  -30.6708  -16.9419   19.3774 H   0  0  0  0  0  0
  -28.9541  -16.9905   19.4960 H   0  0  0  0  0  0
  -28.9300  -15.3508   21.1711 H   0  0  0  0  0  0
  1 25  1  0  0  0
  1 30  2  0  0  0
  1 87  1  0  0  0
  2  3  1  0  0  0
  2 25  1  0  0  0
  2 88  1  0  0  0
  2 89  1  0  0  0
  3  4  1  0  0  0
  3 90  1  0  0  0
  3 91  1  0  0  0
  4  5  1  0  0  0
  4 92  1  0  0  0
  4 93  1  0  0  0
  5  6  1  0  0  0
  5 26  1  0  0  0
  5 94  1  0  0  0
  6 25  1  0  0  0
  6 95  1  0  0  0
  6 96  1  0  0  0
  7  8  2  0  0  0
  7 26  1  0  0  0
  7 29  1  0  0  0
  8  9  1  0  0  0
  8 22  1  0  0  0
  9 10  1  0  0  0
  9 27  2  0  0  0
 10 11  2  0  0  0
 10 15  1  0  0  0
 11 12  1  0  0  0
 11 97  1  0  0  0
 12 13  2  0  0  0
 12 98  1  0  0  0
 13 14  1  0  0  0
 13 31  1  0  0  0
 14 15  2  0  0  0
 14 99  1  0  0  0
 15100  1  0  0  0
 16 17  2  0  0  0
 16 21  1  0  0  0
 16 31  1  0  0  0
 17 18  1  0  0  0
 17101  1  0  0  0
 18 19  2  0  0  0
 18102  1  0  0  0
 19 20  1  0  0  0
 19 24  1  0  0  0
 20 21  2  0  0  0
 20103  1  0  0  0
 21 23  1  0  0  0
 22 28  1  0  0  0
 22 32  2  0  0  0
 26 27  1  0  0  0
 28104  1  0  0  0
 28105  1  0  0  0
 29106  1  0  0  0
 29107  1  0  0  0
 33 34  1  0  0  0
 33 66  1  0  0  0
 33 70  2  0  0  0
 34 36  1  0  0  0
 34 59  1  0  0  0
 34108  1  0  0  0
 35 44  2  0  0  0
 35 45  1  0  0  0
 35 68  1  0  0  0
 36 56  1  0  0  0
 36109  1  0  0  0
 37 39  1  0  0  0
 37 47  1  0  0  0
 37 66  1  0  0  0
 37110  1  0  0  0
 38 43  2  0  0  0
 38 46  1  0  0  0
 38 47  1  0  0  0
 39 64  1  0  0  0
 39 67  2  0  0  0
 40 52  1  0  0  0
 40 53  2  0  0  0
 40 58  1  0  0  0
 41111  1  0  0  0
 41112  1  0  0  0
 41113  1  0  0  0
 41 48  1  0  0  0
 42 43  1  0  0  0
 42 66  1  0  0  0
 42114  1  0  0  0
 42115  1  0  0  0
 43 44  1  0  0  0
 44116  1  0  0  0
 45 46  2  0  0  0
 45117  1  0  0  0
 46118  1  0  0  0
 47119  1  0  0  0
 47120  1  0  0  0
 48 56  1  0  0  0
 48 65  1  0  0  0
 48121  1  0  0  0
 49 50  1  0  0  0
 49 53  1  0  0  0
 49 64  1  0  0  0
 49122  1  0  0  0
 50 51  1  0  0  0
 50123  1  0  0  0
 50124  1  0  0  0
 51 52  1  0  0  0
 51125  1  0  0  0
 51126  1  0  0  0
 52127  1  0  0  0
 52128  1  0  0  0
 53 54  1  0  0  0
 54 55  2  0  0  0
 54129  1  0  0  0
 55 57  1  0  0  0
 55130  1  0  0  0
 56 69  2  0  0  0
 57 58  2  0  0  0
 57131  1  0  0  0
 58132  1  0  0  0
 59 60  1  0  0  0
 59 61  1  0  0  0
 59 62  1  0  0  0
 60133  1  0  0  0
 60134  1  0  0  0
 60135  1  0  0  0
 61136  1  0  0  0
 61137  1  0  0  0
 61138  1  0  0  0
 62139  1  0  0  0
 62140  1  0  0  0
 62141  1  0  0  0
 63 65  1  0  0  0
 63142  1  0  0  0
 63143  1  0  0  0
 63144  1  0  0  0
 64145  1  0  0  0
 65146  1  0  0  0
 68 79  1  0  0  0
 71 72  1  0  0  0
 71 73  2  0  0  0
 71 78  1  0  0  0
 72 80  1  0  0  0
 72 85  2  0  0  0
 73 82  1  0  0  0
 73 86  1  0  0  0
 74 76  1  0  0  0
 74 78  1  0  0  0
 74147  1  0  0  0
 74148  1  0  0  0
 75 77  1  0  0  0
 75 78  1  0  0  0
 75149  1  0  0  0
 75150  1  0  0  0
 76 79  1  0  0  0
 76151  1  0  0  0
 76152  1  0  0  0
 77 79  1  0  0  0
 77153  1  0  0  0
 77154  1  0  0  0
 78155  1  0  0  0
 79156  1  0  0  0
 80157  1  0  0  0
 80158  1  0  0  0
 80159  1  0  0  0
 81 86  1  0  0  0
 81160  1  0  0  0
 81161  1  0  0  0
 81162  1  0  0  0
 82 83  1  0  0  0
 82163  1  0  0  0
 82164  1  0  0  0
 83 84  1  0  0  0
 83165  1  0  0  0
 83166  1  0  0  0
 84 87  1  0  0  0
 84167  1  0  0  0
 84168  1  0  0  0
 85 86  1  0  0  0
 87169  1  0  0  0
M  ISO  4   1 100  68 101  79 101  87 100
M  END
> <chiral flag>
0

> <version>
0

> <s_m_source_file>
/data/baiqing/PycharmProjects/Reinvent-master-3.2/result/LINK_invent/BTK/process_docking_weight1_custom_sum_contain_oxygen_bond_distance_aromatic_linkinvent_7_9_3/rearranged_h_0028.sdf

> <i_m_source_file_index>
89

> <r_mmod_Potential_Energy-OPLS-2005>
10.0381565093994

> <r_mmod_Stretch_Energy-OPLS-2005>
58.7846641540527

> <r_mmod_Bend_Energy-OPLS-2005>
133.559494018555

> <r_mmod_Torsional_Energy-OPLS-2005>
307.653289794922

> <r_mmod_Improper_Torsional_Energy-OPLS-2005>
8.75926208496094

> <r_mmod_Van_der_Waal_Energy-OPLS-2005>
127.776748657227

> <r_mmod_Electrostatic_Energy-OPLS-2005>
-423.426818847656

> <r_mmod_Solvation_Energy-OPLS-2005>
-225.495941162109

> <b_mmod_Minimization_Converged-OPLS-2005>
0

> <r_mmod_RMS_Derivative-OPLS-2005>
4.05307245254517

$$$$
89
                    3D
 Structure written by MMmdl.
178187  0  0  1  0            999 V2000
  -30.7219  -14.6341   20.4980 C   0  0  0  0  0  0
  -30.4221  -12.3959   19.4590 C   0  0  0  0  0  0
  -29.5069  -12.5099   18.2223 C   0  0  0  0  0  0
  -28.0304  -12.3516   18.6322 C   0  0  0  0  0  0
  -27.6542  -13.2274   19.8594 C   0  0  2  0  0  0
  -28.7077  -13.0917   20.9829 C   0  0  0  0  0  0
  -25.2595  -13.8193   20.5713 C   0  0  0  0  0  0
  -24.1873  -13.0433   20.9219 C   0  0  0  0  0  0
  -24.6462  -11.6908   20.8784 C   0  0  0  0  0  0
  -23.9124  -10.4299   21.0439 C   0  0  0  0  0  0
  -24.3663   -9.4212   21.9211 C   0  0  0  0  0  0
  -23.6331   -8.2241   22.0747 C   0  0  0  0  0  0
  -22.4307   -8.0297   21.3535 C   0  0  0  0  0  0
  -21.9970   -9.0285   20.4632 C   0  0  0  0  0  0
  -22.7314  -10.2162   20.3065 C   0  0  0  0  0  0
  -21.6853   -6.0775   22.5305 C   0  0  0  0  0  0
  -21.4007   -6.5668   23.8242 C   0  0  0  0  0  0
  -21.3643   -5.6816   24.9196 C   0  0  0  0  0  0
  -21.6046   -4.3079   24.7242 C   0  0  0  0  0  0
  -21.8806   -3.8183   23.4350 C   0  0  0  0  0  0
  -21.9192   -4.7008   22.3417 C   0  0  0  0  0  0
  -22.7898  -13.5234   21.1866 C   0  0  0  0  0  0
  -22.1662   -4.2201   21.0989 F   0  0  0  0  0  0
  -21.5616   -3.4546   25.7737 F   0  0  0  0  0  0
  -30.0132  -13.4536   20.4121 N   0  0  0  0  0  0
  -26.3028  -12.9386   20.3343 N   0  0  0  0  0  0
  -25.9384  -11.6525   20.5760 N   0  0  0  0  0  0
  -22.0516  -12.8222   22.0390 N   0  0  0  0  0  0
  -25.4358  -15.1906   20.4156 N   0  0  0  0  0  0
  -31.8809  -14.6623   20.0732 O   0  0  0  0  0  0
  -21.6633   -6.8924   21.4255 O   0  0  0  0  0  0
  -22.3595  -14.5552   20.6728 O   0  0  0  0  0  0
  -24.6218  -31.8600   23.2117 C   0  0  0  0  0  0
  -25.9036  -32.4811   23.8452 C   0  0  1  0  0  0
  -27.2045  -27.3267   20.0999 C   0  0  0  0  0  0
  -25.5907  -33.8623   24.2349 N   0  0  0  0  0  0
  -23.4157  -30.4910   21.5537 C   0  0  2  0  0  0
  -24.8619  -28.9622   20.1203 C   0  0  0  0  0  0
  -22.7472  -29.4579   22.4943 C   0  0  0  0  0  0
  -18.0266  -28.1340   22.8489 C   0  0  0  0  0  0
  -24.1475  -36.7286   23.2636 C   0  0  0  0  0  0
  -25.9613  -30.7983   21.3878 C   0  0  0  0  0  0
  -26.0348  -29.4274   20.7252 C   0  0  0  0  0  0
  -27.2113  -28.6159   20.7143 C   0  0  0  0  0  0
  -25.9973  -26.9203   19.4796 C   0  0  0  0  0  0
  -24.8425  -27.7151   19.4924 C   0  0  0  0  0  0
  -23.6361  -29.8424   20.1651 C   0  0  0  0  0  0
  -25.4103  -36.3097   24.0324 C   0  0  1  0  0  0
  -20.5872  -28.3613   23.1304 C   0  0  2  0  0  0
  -20.6735  -26.9339   22.5393 C   0  0  0  0  0  0
  -19.5714  -26.6347   21.5176 C   0  0  0  0  0  0
  -18.1900  -26.7880   22.1626 C   0  0  0  0  0  0
  -19.1521  -28.8795   23.2893 C   0  0  0  0  0  0
  -18.9469  -30.1414   23.8886 C   0  0  0  0  0  0
  -17.6464  -30.6547   24.0548 C   0  0  0  0  0  0
  -25.9049  -34.9471   23.5137 C   0  0  0  0  0  0
  -16.5346  -29.9045   23.6324 C   0  0  0  0  0  0
  -16.7258  -28.6460   23.0352 C   0  0  0  0  0  0
  -26.4466  -31.6616   25.0795 C   0  0  0  0  0  0
  -25.3684  -31.3739   26.1514 C   0  0  0  0  0  0
  -27.0299  -30.3055   24.6190 C   0  0  0  0  0  0
  -27.6052  -32.4340   25.7518 C   0  0  0  0  0  0
  -27.5573  -37.1791   24.8465 C   0  0  0  0  0  0
  -21.4175  -29.2984   22.3719 N   0  0  0  0  0  0
  -26.4285  -37.3778   23.9417 N   0  0  0  0  0  0
  -24.6851  -31.0597   22.1104 N   0  0  0  0  0  0
  -23.4233  -28.8049   23.2943 O   0  0  0  0  0  0
  -28.3202  -26.4730   20.1237 O   0  0  0  0  0  0
  -26.5594  -34.8902   22.4690 O   0  0  0  0  0  0
  -23.5371  -32.1372   23.7417 O   0  0  0  0  0  0
  -29.1810  -18.9910   19.0122 C   0  0  0  0  0  0
  -30.1004  -20.8993   20.8377 C   0  0  0  0  0  0
  -28.8549  -20.3657   18.8074 C   0  0  0  0  0  0
  -30.0218  -18.5324   20.0576 C   0  0  0  0  0  0
  -30.4619  -19.5278   20.9881 C   0  0  0  0  0  0
  -28.1429  -21.0579   17.7819 C   0  0  0  0  0  0
  -29.3402  -21.3425   19.7313 C   0  0  0  0  0  0
  -28.3045  -22.3996   18.0097 C   0  0  0  0  0  0
  -31.3763  -19.1962   22.1563 C   0  0  0  0  0  0
  -27.4339  -20.4392   16.6137 C   0  0  0  0  0  0
  -27.9122  -23.4769   17.0433 C   0  0  0  0  0  0
  -31.3465  -16.6991   25.4658 C   0  0  0  0  0  0
  -28.9381  -15.9451   25.2657 C   0  0  0  0  0  0
  -30.6002  -17.0631   19.9782 C   0  0  0  0  0  0
  -30.4771  -15.8402   23.2370 C   0  0  0  0  0  0
  -29.2376  -23.9707   19.8551 C   0  0  0  0  0  0
  -29.5213  -16.1750   22.0611 C   0  0  0  0  0  0
  -28.0645  -25.0373   19.8807 C   0  0  0  0  0  0
  -30.1246  -16.5877   24.5396 C   0  0  0  0  0  0
  -28.9295  -22.6209   19.2548 N   0  0  0  0  0  0
  -30.0859  -15.8492   20.7363 N   0  0  0  0  0  0
  -31.4668  -12.4757   19.1615 H   0  0  0  0  0  0
  -30.3301  -11.4070   19.9128 H   0  0  0  0  0  0
  -29.7742  -11.7562   17.4824 H   0  0  0  0  0  0
  -29.6574  -13.4781   17.7422 H   0  0  0  0  0  0
  -27.8756  -11.3002   18.8756 H   0  0  0  0  0  0
  -27.3740  -12.5658   17.7881 H   0  0  0  0  0  0
  -27.6680  -14.2619   19.5161 H   0  0  0  0  0  0
  -28.7295  -12.0596   21.3376 H   0  0  0  0  0  0
  -28.4567  -13.6737   21.8623 H   0  0  0  0  0  0
  -25.2795   -9.5675   22.4816 H   0  0  0  0  0  0
  -24.0030   -7.4625   22.7458 H   0  0  0  0  0  0
  -21.0906   -8.8853   19.8933 H   0  0  0  0  0  0
  -22.3811  -10.9726   19.6192 H   0  0  0  0  0  0
  -21.1990   -7.6174   23.9773 H   0  0  0  0  0  0
  -21.1466   -6.0527   25.9106 H   0  0  0  0  0  0
  -22.0595   -2.7644   23.2844 H   0  0  0  0  0  0
  -22.4071  -11.9861   22.4809 H   0  0  0  0  0  0
  -21.1126  -13.1271   22.2489 H   0  0  0  0  0  0
  -24.6829  -15.8592   20.5349 H   0  0  0  0  0  0
  -26.3015  -15.6268   20.1223 H   0  0  0  0  0  0
  -26.7079  -32.5490   23.1216 H   0  0  0  0  0  0
  -25.0063  -33.9828   25.0492 H   0  0  0  0  0  0
  -22.7055  -31.3098   21.4163 H   0  0  0  0  0  0
  -23.3741  -35.9612   23.3307 H   0  0  0  0  0  0
  -24.3547  -36.8901   22.2051 H   0  0  0  0  0  0
  -23.7244  -37.6497   23.6650 H   0  0  0  0  0  0
  -26.0853  -31.5723   20.6295 H   0  0  0  0  0  0
  -26.8401  -30.8515   22.0181 H   0  0  0  0  0  0
  -28.1122  -28.9543   21.2066 H   0  0  0  0  0  0
  -25.8798  -25.9790   18.9702 H   0  0  0  0  0  0
  -23.9354  -27.3673   19.0158 H   0  0  0  0  0  0
  -23.7664  -30.6208   19.4130 H   0  0  0  0  0  0
  -22.7569  -29.2766   19.8509 H   0  0  0  0  0  0
  -25.1282  -36.1955   25.0809 H   0  0  0  0  0  0
  -20.9979  -28.3146   24.1419 H   0  0  0  0  0  0
  -20.5606  -26.2183   23.3557 H   0  0  0  0  0  0
  -21.6601  -26.7313   22.1214 H   0  0  0  0  0  0
  -19.6858  -25.6249   21.1210 H   0  0  0  0  0  0
  -19.6691  -27.3153   20.6699 H   0  0  0  0  0  0
  -17.4162  -26.6619   21.4050 H   0  0  0  0  0  0
  -18.0353  -25.9978   22.8997 H   0  0  0  0  0  0
  -19.7944  -30.7236   24.2245 H   0  0  0  0  0  0
  -17.5003  -31.6232   24.5134 H   0  0  0  0  0  0
  -15.5338  -30.2965   23.7612 H   0  0  0  0  0  0
  -15.8659  -28.0781   22.7093 H   0  0  0  0  0  0
  -24.5872  -30.7080   25.7816 H   0  0  0  0  0  0
  -24.8856  -32.2912   26.4906 H   0  0  0  0  0  0
  -25.8010  -30.8938   27.0301 H   0  0  0  0  0  0
  -26.2895  -29.6854   24.1140 H   0  0  0  0  0  0
  -27.3959  -29.7255   25.4666 H   0  0  0  0  0  0
  -27.8776  -30.4347   23.9442 H   0  0  0  0  0  0
  -27.2699  -33.3640   26.2104 H   0  0  0  0  0  0
  -28.3855  -32.6905   25.0332 H   0  0  0  0  0  0
  -28.0713  -31.8456   26.5428 H   0  0  0  0  0  0
  -28.2576  -38.0092   24.7507 H   0  0  0  0  0  0
  -28.1098  -36.2641   24.6315 H   0  0  0  0  0  0
  -27.2292  -37.1444   25.8861 H   0  0  0  0  0  0
  -20.9290  -29.8826   21.7086 H   0  0  0  0  0  0
  -26.0175  -38.2843   24.1473 H   0  0  0  0  0  0
  -28.8423  -18.2872   18.2646 H   0  0  0  0  0  0
  -30.4711  -21.6313   21.5411 H   0  0  0  0  0  0
  -30.9026  -19.4852   23.0959 H   0  0  0  0  0  0
  -32.3132  -19.7472   22.0814 H   0  0  0  0  0  0
  -31.6269  -18.1426   22.2176 H   0  0  0  0  0  0
  -26.9700  -19.4914   16.8891 H   0  0  0  0  0  0
  -28.1227  -20.2352   15.7955 H   0  0  0  0  0  0
  -26.6541  -21.0984   16.2276 H   0  0  0  0  0  0
  -26.9029  -23.8365   17.2362 H   0  0  0  0  0  0
  -27.9197  -23.1105   16.0166 H   0  0  0  0  0  0
  -28.6068  -24.3145   17.0753 H   0  0  0  0  0  0
  -31.7024  -15.7187   25.7828 H   0  0  0  0  0  0
  -31.1178  -17.2768   26.3639 H   0  0  0  0  0  0
  -32.1747  -17.2026   24.9639 H   0  0  0  0  0  0
  -28.6949  -16.4893   26.1799 H   0  0  0  0  0  0
  -29.1591  -14.9148   25.5432 H   0  0  0  0  0  0
  -28.0447  -15.9387   24.6406 H   0  0  0  0  0  0
  -31.6714  -17.1535   20.1666 H   0  0  0  0  0  0
  -30.5489  -16.7958   18.9209 H   0  0  0  0  0  0
  -31.4976  -16.0997   22.9523 H   0  0  0  0  0  0
  -30.4991  -14.7646   23.4172 H   0  0  0  0  0  0
  -29.6112  -23.8265   20.8689 H   0  0  0  0  0  0
  -30.0771  -24.3842   19.2982 H   0  0  0  0  0  0
  -29.2803  -17.2356   22.1036 H   0  0  0  0  0  0
  -28.5500  -15.7108   22.1986 H   0  0  0  0  0  0
  -27.3000  -24.6815   20.5743 H   0  0  0  0  0  0
  -27.6197  -24.9989   18.9045 H   0  0  0  0  0  0
  -29.8292  -17.6061   24.2862 H   0  0  0  0  0  0
  1 25  1  0  0  0
  1 30  2  0  0  0
  1 91  1  0  0  0
  2  3  1  0  0  0
  2 25  1  0  0  0
  2 92  1  0  0  0
  2 93  1  0  0  0
  3  4  1  0  0  0
  3 94  1  0  0  0
  3 95  1  0  0  0
  4  5  1  0  0  0
  4 96  1  0  0  0
  4 97  1  0  0  0
  5  6  1  0  0  0
  5 26  1  0  0  0
  5 98  1  0  0  0
  6 25  1  0  0  0
  6 99  1  0  0  0
  6100  1  0  0  0
  7  8  2  0  0  0
  7 26  1  0  0  0
  7 29  1  0  0  0
  8  9  1  0  0  0
  8 22  1  0  0  0
  9 10  1  0  0  0
  9 27  2  0  0  0
 10 11  2  0  0  0
 10 15  1  0  0  0
 11 12  1  0  0  0
 11101  1  0  0  0
 12 13  2  0  0  0
 12102  1  0  0  0
 13 14  1  0  0  0
 13 31  1  0  0  0
 14 15  2  0  0  0
 14103  1  0  0  0
 15104  1  0  0  0
 16 17  2  0  0  0
 16 21  1  0  0  0
 16 31  1  0  0  0
 17 18  1  0  0  0
 17105  1  0  0  0
 18 19  2  0  0  0
 18106  1  0  0  0
 19 20  1  0  0  0
 19 24  1  0  0  0
 20 21  2  0  0  0
 20107  1  0  0  0
 21 23  1  0  0  0
 22 28  1  0  0  0
 22 32  2  0  0  0
 26 27  1  0  0  0
 28108  1  0  0  0
 28109  1  0  0  0
 29110  1  0  0  0
 29111  1  0  0  0
 33 34  1  0  0  0
 33 66  1  0  0  0
 33 70  2  0  0  0
 34 36  1  0  0  0
 34 59  1  0  0  0
 34112  1  0  0  0
 35 44  2  0  0  0
 35 45  1  0  0  0
 35 68  1  0  0  0
 36 56  1  0  0  0
 36113  1  0  0  0
 37 39  1  0  0  0
 37 47  1  0  0  0
 37 66  1  0  0  0
 37114  1  0  0  0
 38 43  2  0  0  0
 38 46  1  0  0  0
 38 47  1  0  0  0
 39 64  1  0  0  0
 39 67  2  0  0  0
 40 52  1  0  0  0
 40 53  2  0  0  0
 40 58  1  0  0  0
 41115  1  0  0  0
 41116  1  0  0  0
 41117  1  0  0  0
 41 48  1  0  0  0
 42 43  1  0  0  0
 42 66  1  0  0  0
 42118  1  0  0  0
 42119  1  0  0  0
 43 44  1  0  0  0
 44120  1  0  0  0
 45 46  2  0  0  0
 45121  1  0  0  0
 46122  1  0  0  0
 47123  1  0  0  0
 47124  1  0  0  0
 48 56  1  0  0  0
 48 65  1  0  0  0
 48125  1  0  0  0
 49 50  1  0  0  0
 49 53  1  0  0  0
 49 64  1  0  0  0
 49126  1  0  0  0
 50 51  1  0  0  0
 50127  1  0  0  0
 50128  1  0  0  0
 51 52  1  0  0  0
 51129  1  0  0  0
 51130  1  0  0  0
 52131  1  0  0  0
 52132  1  0  0  0
 53 54  1  0  0  0
 54 55  2  0  0  0
 54133  1  0  0  0
 55 57  1  0  0  0
 55134  1  0  0  0
 56 69  2  0  0  0
 57 58  2  0  0  0
 57135  1  0  0  0
 58136  1  0  0  0
 59 60  1  0  0  0
 59 61  1  0  0  0
 59 62  1  0  0  0
 60137  1  0  0  0
 60138  1  0  0  0
 60139  1  0  0  0
 61140  1  0  0  0
 61141  1  0  0  0
 61142  1  0  0  0
 62143  1  0  0  0
 62144  1  0  0  0
 62145  1  0  0  0
 63 65  1  0  0  0
 63146  1  0  0  0
 63147  1  0  0  0
 63148  1  0  0  0
 64149  1  0  0  0
 65150  1  0  0  0
 68 88  1  0  0  0
 71 73  2  0  0  0
 71 74  1  0  0  0
 71151  1  0  0  0
 72 75  1  0  0  0
 72 77  2  0  0  0
 72152  1  0  0  0
 73 76  1  0  0  0
 73 77  1  0  0  0
 74 75  2  0  0  0
 74 84  1  0  0  0
 75 79  1  0  0  0
 76 78  2  0  0  0
 76 80  1  0  0  0
 77 90  1  0  0  0
 78 81  1  0  0  0
 78 90  1  0  0  0
 79153  1  0  0  0
 79154  1  0  0  0
 79155  1  0  0  0
 80156  1  0  0  0
 80157  1  0  0  0
 80158  1  0  0  0
 81159  1  0  0  0
 81160  1  0  0  0
 81161  1  0  0  0
 82162  1  0  0  0
 82163  1  0  0  0
 82164  1  0  0  0
 82 89  1  0  0  0
 83 89  1  0  0  0
 83165  1  0  0  0
 83166  1  0  0  0
 83167  1  0  0  0
 84 91  1  0  0  0
 84168  1  0  0  0
 84169  1  0  0  0
 85 87  1  0  0  0
 85 89  1  0  0  0
 85170  1  0  0  0
 85171  1  0  0  0
 86 88  1  0  0  0
 86 90  1  0  0  0
 86172  1  0  0  0
 86173  1  0  0  0
 87 91  1  0  0  0
 87174  1  0  0  0
 87175  1  0  0  0
 88176  1  0  0  0
 88177  1  0  0  0
 89178  1  0  0  0
M  ISO  4   1 100  68 101  88 101  91 100
M  END
> <chiral flag>
0

> <version>
0

> <s_m_source_file>
/data/baiqing/PycharmProjects/Reinvent-master-3.2/result/LINK_invent/BTK/process_docking_weight1_custom_sum_contain_oxygen_bond_distance_aromatic_linkinvent_7_9_3/rearranged_h_0028.sdf

> <i_m_source_file_index>
90

> <r_mmod_Potential_Energy-OPLS-2005>
271.587921142578

> <r_mmod_Stretch_Energy-OPLS-2005>
89.3957290649414

> <r_mmod_Bend_Energy-OPLS-2005>
168.837387084961

> <r_mmod_Torsional_Energy-OPLS-2005>
290.927551269531

> <r_mmod_Improper_Torsional_Energy-OPLS-2005>
12.994517326355

> <r_mmod_Van_der_Waal_Energy-OPLS-2005>
161.432312011719

> <r_mmod_Electrostatic_Energy-OPLS-2005>
-318.059783935547

> <r_mmod_Solvation_Energy-OPLS-2005>
-181.275634765625

> <b_mmod_Minimization_Converged-OPLS-2005>
0

> <r_mmod_RMS_Derivative-OPLS-2005>
5.32261180877686

$$$$
90
                    3D
 Structure written by MMmdl.
152160  0  0  1  0            999 V2000
  -30.6346  -14.6887   20.4775 C   0  0  0  0  0  0
  -30.4285  -12.4217   19.4717 C   0  0  0  0  0  0
  -29.5051  -12.5055   18.2363 C   0  0  0  0  0  0
  -28.0323  -12.3333   18.6516 C   0  0  0  0  0  0
  -27.6463  -13.2269   19.8605 C   0  0  2  0  0  0
  -28.6897  -13.1382   20.9975 C   0  0  0  0  0  0
  -25.2516  -13.8191   20.5699 C   0  0  0  0  0  0
  -24.1802  -13.0441   20.9198 C   0  0  0  0  0  0
  -24.6389  -11.6916   20.8752 C   0  0  0  0  0  0
  -23.9069  -10.4291   21.0406 C   0  0  0  0  0  0
  -24.3619   -9.4207   21.9184 C   0  0  0  0  0  0
  -23.6293   -8.2241   22.0754 C   0  0  0  0  0  0
  -22.4278   -8.0275   21.3540 C   0  0  0  0  0  0
  -21.9911   -9.0255   20.4642 C   0  0  0  0  0  0
  -22.7241  -10.2134   20.3056 C   0  0  0  0  0  0
  -21.6853   -6.0732   22.5274 C   0  0  0  0  0  0
  -21.4009   -6.5640   23.8213 C   0  0  0  0  0  0
  -21.3660   -5.6791   24.9171 C   0  0  0  0  0  0
  -21.6046   -4.3054   24.7223 C   0  0  0  0  0  0
  -21.8818   -3.8149   23.4348 C   0  0  0  0  0  0
  -21.9191   -4.6962   22.3399 C   0  0  0  0  0  0
  -22.7823  -13.5224   21.1871 C   0  0  0  0  0  0
  -22.1664   -4.2151   21.0977 F   0  0  0  0  0  0
  -21.5631   -3.4544   25.7738 F   0  0  0  0  0  0
  -29.9991  -13.4726   20.4221 N   0  0  0  0  0  0
  -26.2955  -12.9394   20.3330 N   0  0  0  0  0  0
  -25.9323  -11.6538   20.5783 N   0  0  0  0  0  0
  -22.0478  -12.8199   22.0425 N   0  0  0  0  0  0
  -25.4189  -15.1913   20.4103 N   0  0  0  0  0  0
  -31.8079  -14.7946   20.1127 O   0  0  0  0  0  0
  -21.6638   -6.8877   21.4237 O   0  0  0  0  0  0
  -22.3505  -14.5535   20.6726 O   0  0  0  0  0  0
  -24.6295  -31.8573   23.2021 C   0  0  0  0  0  0
  -25.9133  -32.4763   23.8352 C   0  0  1  0  0  0
  -27.2189  -27.2891   20.1242 C   0  0  0  0  0  0
  -25.5953  -33.8571   24.2273 N   0  0  0  0  0  0
  -23.4242  -30.4808   21.5442 C   0  0  2  0  0  0
  -24.8715  -28.9357   20.1084 C   0  0  0  0  0  0
  -22.7488  -29.4609   22.4924 C   0  0  0  0  0  0
  -18.0287  -28.1380   22.8466 C   0  0  0  0  0  0
  -24.1488  -36.7274   23.2636 C   0  0  0  0  0  0
  -25.9681  -30.7775   21.3806 C   0  0  0  0  0  0
  -26.0410  -29.4045   20.7188 C   0  0  0  0  0  0
  -27.2176  -28.5929   20.7177 C   0  0  0  0  0  0
  -26.0297  -26.8901   19.4709 C   0  0  0  0  0  0
  -24.8699  -27.6861   19.4729 C   0  0  0  0  0  0
  -23.6408  -29.8181   20.1592 C   0  0  0  0  0  0
  -25.4117  -36.3069   24.0322 C   0  0  1  0  0  0
  -20.5887  -28.3686   23.1261 C   0  0  2  0  0  0
  -20.6774  -26.9409   22.5385 C   0  0  0  0  0  0
  -19.5749  -26.6364   21.5191 C   0  0  0  0  0  0
  -18.1928  -26.7917   22.1602 C   0  0  0  0  0  0
  -19.1541  -28.8851   23.2853 C   0  0  0  0  0  0
  -18.9474  -30.1453   23.8866 C   0  0  0  0  0  0
  -17.6481  -30.6582   24.0556 C   0  0  0  0  0  0
  -25.9063  -34.9444   23.5096 C   0  0  0  0  0  0
  -16.5365  -29.9072   23.6341 C   0  0  0  0  0  0
  -16.7278  -28.6498   23.0347 C   0  0  0  0  0  0
  -26.4518  -31.6593   25.0739 C   0  0  0  0  0  0
  -25.3749  -31.3729   26.1464 C   0  0  0  0  0  0
  -27.0390  -30.3022   24.6218 C   0  0  0  0  0  0
  -27.6073  -32.4346   25.7512 C   0  0  0  0  0  0
  -27.5577  -37.1790   24.8466 C   0  0  0  0  0  0
  -21.4200  -29.3049   22.3673 N   0  0  0  0  0  0
  -26.4285  -37.3772   23.9420 N   0  0  0  0  0  0
  -24.6926  -31.0561   22.0982 N   0  0  0  0  0  0
  -23.4196  -28.8136   23.3007 O   0  0  0  0  0  0
  -28.3161  -26.4056   20.2069 O   0  0  0  0  0  0
  -26.5618  -34.8911   22.4652 O   0  0  0  0  0  0
  -23.5454  -32.1398   23.7328 O   0  0  0  0  0  0
  -29.5206  -19.7983   20.3270 C   0  0  0  0  0  0
  -28.9767  -21.0319   20.8609 C   0  0  0  0  0  0
  -29.5642  -18.5351   21.0338 C   0  0  0  0  0  0
  -28.4035  -20.9398   22.1585 C   0  0  0  0  0  0
  -29.0403  -18.5458   22.3516 C   0  0  0  0  0  0
  -28.4605  -19.7237   22.8900 C   0  0  0  0  0  0
  -28.8927  -22.3239   19.9973 C   0  0  0  0  0  0
  -30.2646  -17.2533   20.4038 C   0  0  0  0  0  0
  -29.0725  -23.8157   20.5381 C   0  0  0  0  0  0
  -28.0771  -24.9460   19.9836 C   0  0  0  0  0  0
  -29.8791  -15.8160   20.7207 N   0  0  0  0  0  0
  -28.7479  -22.2119   18.7763 O   0  0  0  0  0  0
  -27.5531  -22.2750   22.8722 Cl  0  0  0  0  0  0
  -29.1078  -17.1261   23.3475 Cl  0  0  0  0  0  0
  -27.7889  -19.6713   24.4901 Cl  0  0  0  0  0  0
  -31.4708  -12.5349   19.1679 H   0  0  0  0  0  0
  -30.3607  -11.4380   19.9392 H   0  0  0  0  0  0
  -29.7784  -11.7421   17.5069 H   0  0  0  0  0  0
  -29.6360  -13.4676   17.7380 H   0  0  0  0  0  0
  -27.8863  -11.2832   18.9081 H   0  0  0  0  0  0
  -27.3724  -12.5322   17.8069 H   0  0  0  0  0  0
  -27.6499  -14.2527   19.4923 H   0  0  0  0  0  0
  -28.7101  -12.1366   21.4292 H   0  0  0  0  0  0
  -28.4335  -13.8158   21.8132 H   0  0  0  0  0  0
  -25.2760   -9.5680   22.4766 H   0  0  0  0  0  0
  -24.0002   -7.4633   22.7479 H   0  0  0  0  0  0
  -21.0843   -8.8771   19.8952 H   0  0  0  0  0  0
  -22.3698  -10.9672   19.6173 H   0  0  0  0  0  0
  -21.1997   -7.6148   23.9714 H   0  0  0  0  0  0
  -21.1487   -6.0522   25.9074 H   0  0  0  0  0  0
  -22.0598   -2.7611   23.2846 H   0  0  0  0  0  0
  -22.4112  -11.9854   22.4775 H   0  0  0  0  0  0
  -21.1105  -13.1217   22.2679 H   0  0  0  0  0  0
  -24.6438  -15.8368   20.5125 H   0  0  0  0  0  0
  -26.2613  -15.6366   20.0705 H   0  0  0  0  0  0
  -26.7193  -32.5420   23.1089 H   0  0  0  0  0  0
  -25.0166  -33.9730   25.0466 H   0  0  0  0  0  0
  -22.7181  -31.3014   21.3993 H   0  0  0  0  0  0
  -23.3765  -35.9589   23.3278 H   0  0  0  0  0  0
  -24.3581  -36.8922   22.2053 H   0  0  0  0  0  0
  -23.7226  -37.6455   23.6689 H   0  0  0  0  0  0
  -26.1082  -31.5412   20.6141 H   0  0  0  0  0  0
  -26.8453  -30.8217   22.0148 H   0  0  0  0  0  0
  -28.1108  -28.9435   21.2154 H   0  0  0  0  0  0
  -25.9601  -25.9393   18.9634 H   0  0  0  0  0  0
  -23.9766  -27.3247   18.9823 H   0  0  0  0  0  0
  -23.7617  -30.5953   19.4032 H   0  0  0  0  0  0
  -22.7596  -29.2495   19.8556 H   0  0  0  0  0  0
  -25.1296  -36.1913   25.0813 H   0  0  0  0  0  0
  -20.9973  -28.3261   24.1383 H   0  0  0  0  0  0
  -20.5667  -26.2304   23.3593 H   0  0  0  0  0  0
  -21.6645  -26.7426   22.1191 H   0  0  0  0  0  0
  -19.6920  -25.6272   21.1228 H   0  0  0  0  0  0
  -19.6687  -27.3160   20.6712 H   0  0  0  0  0  0
  -17.4200  -26.6668   21.3999 H   0  0  0  0  0  0
  -18.0322  -26.0052   22.8988 H   0  0  0  0  0  0
  -19.7959  -30.7267   24.2218 H   0  0  0  0  0  0
  -17.5037  -31.6262   24.5151 H   0  0  0  0  0  0
  -15.5367  -30.2960   23.7696 H   0  0  0  0  0  0
  -15.8675  -28.0819   22.7072 H   0  0  0  0  0  0
  -24.5921  -30.7088   25.7788 H   0  0  0  0  0  0
  -24.8946  -32.2883   26.4917 H   0  0  0  0  0  0
  -25.8053  -30.8879   27.0231 H   0  0  0  0  0  0
  -26.2986  -29.6726   24.1262 H   0  0  0  0  0  0
  -27.4119  -29.7328   25.4742 H   0  0  0  0  0  0
  -27.8825  -30.4325   23.9439 H   0  0  0  0  0  0
  -27.2709  -33.3683   26.2033 H   0  0  0  0  0  0
  -28.3902  -32.6845   25.0343 H   0  0  0  0  0  0
  -28.0705  -31.8504   26.5471 H   0  0  0  0  0  0
  -28.2574  -38.0108   24.7550 H   0  0  0  0  0  0
  -28.1093  -36.2640   24.6246 H   0  0  0  0  0  0
  -27.2297  -37.1384   25.8868 H   0  0  0  0  0  0
  -20.9399  -29.8804   21.6896 H   0  0  0  0  0  0
  -26.0153  -38.2835   24.1445 H   0  0  0  0  0  0
  -29.9329  -19.8279   19.3277 H   0  0  0  0  0  0
  -31.3280  -17.3631   20.6231 H   0  0  0  0  0  0
  -30.1871  -17.3533   19.3206 H   0  0  0  0  0  0
  -30.0815  -24.1010   20.2430 H   0  0  0  0  0  0
  -29.0870  -23.8360   21.6240 H   0  0  0  0  0  0
  -27.1045  -24.6886   20.4048 H   0  0  0  0  0  0
  -27.9864  -24.8121   18.9050 H   0  0  0  0  0  0
  -28.9278  -15.6618   21.0168 H   0  0  0  0  0  0
  1 25  1  0  0  0
  1 30  2  0  0  0
  1 81  1  0  0  0
  2  3  1  0  0  0
  2 25  1  0  0  0
  2 86  1  0  0  0
  2 87  1  0  0  0
  3  4  1  0  0  0
  3 88  1  0  0  0
  3 89  1  0  0  0
  4  5  1  0  0  0
  4 90  1  0  0  0
  4 91  1  0  0  0
  5  6  1  0  0  0
  5 26  1  0  0  0
  5 92  1  0  0  0
  6 25  1  0  0  0
  6 93  1  0  0  0
  6 94  1  0  0  0
  7  8  2  0  0  0
  7 26  1  0  0  0
  7 29  1  0  0  0
  8  9  1  0  0  0
  8 22  1  0  0  0
  9 10  1  0  0  0
  9 27  2  0  0  0
 10 11  2  0  0  0
 10 15  1  0  0  0
 11 12  1  0  0  0
 11 95  1  0  0  0
 12 13  2  0  0  0
 12 96  1  0  0  0
 13 14  1  0  0  0
 13 31  1  0  0  0
 14 15  2  0  0  0
 14 97  1  0  0  0
 15 98  1  0  0  0
 16 17  2  0  0  0
 16 21  1  0  0  0
 16 31  1  0  0  0
 17 18  1  0  0  0
 17 99  1  0  0  0
 18 19  2  0  0  0
 18100  1  0  0  0
 19 20  1  0  0  0
 19 24  1  0  0  0
 20 21  2  0  0  0
 20101  1  0  0  0
 21 23  1  0  0  0
 22 28  1  0  0  0
 22 32  2  0  0  0
 26 27  1  0  0  0
 28102  1  0  0  0
 28103  1  0  0  0
 29104  1  0  0  0
 29105  1  0  0  0
 33 34  1  0  0  0
 33 66  1  0  0  0
 33 70  2  0  0  0
 34 36  1  0  0  0
 34 59  1  0  0  0
 34106  1  0  0  0
 35 44  2  0  0  0
 35 45  1  0  0  0
 35 68  1  0  0  0
 36 56  1  0  0  0
 36107  1  0  0  0
 37 39  1  0  0  0
 37 47  1  0  0  0
 37 66  1  0  0  0
 37108  1  0  0  0
 38 43  2  0  0  0
 38 46  1  0  0  0
 38 47  1  0  0  0
 39 64  1  0  0  0
 39 67  2  0  0  0
 40 52  1  0  0  0
 40 53  2  0  0  0
 40 58  1  0  0  0
 41109  1  0  0  0
 41110  1  0  0  0
 41111  1  0  0  0
 41 48  1  0  0  0
 42 43  1  0  0  0
 42 66  1  0  0  0
 42112  1  0  0  0
 42113  1  0  0  0
 43 44  1  0  0  0
 44114  1  0  0  0
 45 46  2  0  0  0
 45115  1  0  0  0
 46116  1  0  0  0
 47117  1  0  0  0
 47118  1  0  0  0
 48 56  1  0  0  0
 48 65  1  0  0  0
 48119  1  0  0  0
 49 50  1  0  0  0
 49 53  1  0  0  0
 49 64  1  0  0  0
 49120  1  0  0  0
 50 51  1  0  0  0
 50121  1  0  0  0
 50122  1  0  0  0
 51 52  1  0  0  0
 51123  1  0  0  0
 51124  1  0  0  0
 52125  1  0  0  0
 52126  1  0  0  0
 53 54  1  0  0  0
 54 55  2  0  0  0
 54127  1  0  0  0
 55 57  1  0  0  0
 55128  1  0  0  0
 56 69  2  0  0  0
 57 58  2  0  0  0
 57129  1  0  0  0
 58130  1  0  0  0
 59 60  1  0  0  0
 59 61  1  0  0  0
 59 62  1  0  0  0
 60131  1  0  0  0
 60132  1  0  0  0
 60133  1  0  0  0
 61134  1  0  0  0
 61135  1  0  0  0
 61136  1  0  0  0
 62137  1  0  0  0
 62138  1  0  0  0
 62139  1  0  0  0
 63 65  1  0  0  0
 63140  1  0  0  0
 63141  1  0  0  0
 63142  1  0  0  0
 64143  1  0  0  0
 65144  1  0  0  0
 68 80  1  0  0  0
 71 72  2  0  0  0
 71 73  1  0  0  0
 71145  1  0  0  0
 72 74  1  0  0  0
 72 77  1  0  0  0
 73 75  2  0  0  0
 73 78  1  0  0  0
 74 76  2  0  0  0
 74 83  1  0  0  0
 75 76  1  0  0  0
 75 84  1  0  0  0
 76 85  1  0  0  0
 77 79  1  0  0  0
 77 82  2  0  0  0
 78 81  1  0  0  0
 78146  1  0  0  0
 78147  1  0  0  0
 79 80  1  0  0  0
 79148  1  0  0  0
 79149  1  0  0  0
 80150  1  0  0  0
 80151  1  0  0  0
 81152  1  0  0  0
M  ISO  4   1 100  68 101  80 101  81 100
M  END
> <chiral flag>
0

> <version>
0

> <s_m_source_file>
/data/baiqing/PycharmProjects/Reinvent-master-3.2/result/LINK_invent/BTK/process_docking_weight1_custom_sum_contain_oxygen_bond_distance_aromatic_linkinvent_7_9_3/rearranged_h_0028.sdf

> <i_m_source_file_index>
91

> <r_mmod_Potential_Energy-OPLS-2005>
113.855911254883

> <r_mmod_Stretch_Energy-OPLS-2005>
106.388931274414

> <r_mmod_Bend_Energy-OPLS-2005>
151.505752563477

> <r_mmod_Torsional_Energy-OPLS-2005>
232.886535644531

> <r_mmod_Improper_Torsional_Energy-OPLS-2005>
6.67916870117188

> <r_mmod_Van_der_Waal_Energy-OPLS-2005>
153.607498168945

> <r_mmod_Electrostatic_Energy-OPLS-2005>
-384.617553710938

> <r_mmod_Solvation_Energy-OPLS-2005>
-220.068222045898

> <b_mmod_Minimization_Converged-OPLS-2005>
0

> <r_mmod_RMS_Derivative-OPLS-2005>
1.49757564067841

$$$$
91
                    3D
 Structure written by MMmdl.
158166  0  0  1  0            999 V2000
  -30.7057  -14.4890   20.5464 C   0  0  0  0  0  0
  -30.4169  -12.3117   19.4246 C   0  0  0  0  0  0
  -29.4894  -12.4914   18.2060 C   0  0  0  0  0  0
  -28.0114  -12.3573   18.6209 C   0  0  0  0  0  0
  -27.6568  -13.2096   19.8680 C   0  0  2  0  0  0
  -28.7020  -13.0180   20.9895 C   0  0  0  0  0  0
  -25.2563  -13.8167   20.5669 C   0  0  0  0  0  0
  -24.1821  -13.0429   20.9175 C   0  0  0  0  0  0
  -24.6387  -11.6901   20.8741 C   0  0  0  0  0  0
  -23.9051  -10.4280   21.0407 C   0  0  0  0  0  0
  -24.3610   -9.4200   21.9185 C   0  0  0  0  0  0
  -23.6282   -8.2241   22.0758 C   0  0  0  0  0  0
  -22.4269   -8.0277   21.3537 C   0  0  0  0  0  0
  -21.9900   -9.0255   20.4645 C   0  0  0  0  0  0
  -22.7228  -10.2125   20.3057 C   0  0  0  0  0  0
  -21.6850   -6.0732   22.5274 C   0  0  0  0  0  0
  -21.4010   -6.5634   23.8209 C   0  0  0  0  0  0
  -21.3652   -5.6785   24.9176 C   0  0  0  0  0  0
  -21.6056   -4.3053   24.7223 C   0  0  0  0  0  0
  -21.8817   -3.8138   23.4349 C   0  0  0  0  0  0
  -21.9194   -4.6960   22.3400 C   0  0  0  0  0  0
  -22.7849  -13.5227   21.1843 C   0  0  0  0  0  0
  -22.1662   -4.2136   21.0980 F   0  0  0  0  0  0
  -21.5637   -3.4538   25.7740 F   0  0  0  0  0  0
  -30.0267  -13.3161   20.4249 N   0  0  0  0  0  0
  -26.3002  -12.9338   20.3345 N   0  0  0  0  0  0
  -25.9310  -11.6498   20.5772 N   0  0  0  0  0  0
  -22.0503  -12.8216   22.0414 N   0  0  0  0  0  0
  -25.4259  -15.1890   20.4074 N   0  0  0  0  0  0
  -31.8466  -14.6426   20.1023 O   0  0  0  0  0  0
  -21.6636   -6.8878   21.4232 O   0  0  0  0  0  0
  -22.3518  -14.5534   20.6706 O   0  0  0  0  0  0
  -24.6153  -31.8720   23.2115 C   0  0  0  0  0  0
  -25.9050  -32.4840   23.8426 C   0  0  1  0  0  0
  -27.2316  -27.4197   20.0885 C   0  0  0  0  0  0
  -25.5900  -33.8636   24.2357 N   0  0  0  0  0  0
  -23.4027  -30.4960   21.5524 C   0  0  2  0  0  0
  -24.8485  -28.9648   20.1140 C   0  0  0  0  0  0
  -22.7431  -29.4667   22.4984 C   0  0  0  0  0  0
  -18.0284  -28.1311   22.8500 C   0  0  0  0  0  0
  -24.1477  -36.7307   23.2648 C   0  0  0  0  0  0
  -25.9348  -30.8247   21.3739 C   0  0  0  0  0  0
  -26.0102  -29.4605   20.7175 C   0  0  0  0  0  0
  -27.2022  -28.6930   20.7111 C   0  0  0  0  0  0
  -26.0469  -26.9559   19.4656 C   0  0  0  0  0  0
  -24.8626  -27.7103   19.4879 C   0  0  0  0  0  0
  -23.6119  -29.8322   20.1668 C   0  0  0  0  0  0
  -25.4093  -36.3131   24.0360 C   0  0  1  0  0  0
  -20.5866  -28.3636   23.1278 C   0  0  2  0  0  0
  -20.6749  -26.9365   22.5397 C   0  0  0  0  0  0
  -19.5744  -26.6337   21.5182 C   0  0  0  0  0  0
  -18.1917  -26.7868   22.1598 C   0  0  0  0  0  0
  -19.1529  -28.8783   23.2891 C   0  0  0  0  0  0
  -18.9473  -30.1378   23.8915 C   0  0  0  0  0  0
  -17.6487  -30.6549   24.0531 C   0  0  0  0  0  0
  -25.9030  -34.9495   23.5161 C   0  0  0  0  0  0
  -16.5373  -29.9044   23.6310 C   0  0  0  0  0  0
  -16.7275  -28.6436   23.0385 C   0  0  0  0  0  0
  -26.4469  -31.6615   25.0755 C   0  0  0  0  0  0
  -25.3728  -31.3684   26.1501 C   0  0  0  0  0  0
  -27.0321  -30.3074   24.6110 C   0  0  0  0  0  0
  -27.6065  -32.4319   25.7487 C   0  0  0  0  0  0
  -27.5587  -37.1792   24.8473 C   0  0  0  0  0  0
  -21.4162  -29.3022   22.3713 N   0  0  0  0  0  0
  -26.4290  -37.3800   23.9425 N   0  0  0  0  0  0
  -24.6687  -31.0794   22.1025 N   0  0  0  0  0  0
  -23.4202  -28.8215   23.3030 O   0  0  0  0  0  0
  -28.3938  -26.6626   20.1129 O   0  0  0  0  0  0
  -26.5598  -34.8951   22.4732 O   0  0  0  0  0  0
  -23.5346  -32.1508   23.7494 O   0  0  0  0  0  0
  -28.5494  -17.7800   19.8773 C   0  0  0  0  0  0
  -29.6890  -18.0458   20.6600 C   0  0  0  0  0  0
  -30.0000  -19.4137   20.9205 C   0  0  0  0  0  0
  -29.1221  -20.4310   20.4484 C   0  0  0  0  0  0
  -27.7640  -18.8497   19.4177 C   0  0  0  0  0  0
  -31.2451  -19.8021   21.7111 C   0  0  0  0  0  0
  -30.5403  -16.8950   21.2279 C   0  0  0  0  0  0
  -29.2530  -21.9171   20.8442 C   0  0  0  0  0  0
  -29.3906  -22.9244   19.6749 C   0  0  0  0  0  0
  -29.5003  -24.4164   20.1185 C   0  0  0  0  0  0
  -28.2924  -25.2827   19.7035 C   0  0  0  0  0  0
  -28.0311  -20.1388   19.7122 N   0  0  0  0  0  0
  -30.0181  -15.5259   21.0554 N   0  0  0  0  0  0
  -26.3800  -18.5154   18.4460 Cl  0  0  0  0  0  0
  -31.4615  -12.3986   19.1219 H   0  0  0  0  0  0
  -30.3143  -11.3088   19.8423 H   0  0  0  0  0  0
  -29.7262  -11.7536   17.4379 H   0  0  0  0  0  0
  -29.6552  -13.4699   17.7528 H   0  0  0  0  0  0
  -27.8218  -11.3038   18.8285 H   0  0  0  0  0  0
  -27.3585  -12.6236   17.7881 H   0  0  0  0  0  0
  -27.6920  -14.2521   19.5507 H   0  0  0  0  0  0
  -28.6828  -11.9896   21.3524 H   0  0  0  0  0  0
  -28.4690  -13.6389   21.8556 H   0  0  0  0  0  0
  -25.2751   -9.5687   22.4756 H   0  0  0  0  0  0
  -23.9992   -7.4638   22.7484 H   0  0  0  0  0  0
  -21.0830   -8.8765   19.8954 H   0  0  0  0  0  0
  -22.3680  -10.9666   19.6171 H   0  0  0  0  0  0
  -21.1991   -7.6139   23.9707 H   0  0  0  0  0  0
  -21.1478   -6.0519   25.9076 H   0  0  0  0  0  0
  -22.0605   -2.7602   23.2850 H   0  0  0  0  0  0
  -22.4110  -11.9860   22.4769 H   0  0  0  0  0  0
  -21.1144  -13.1260   22.2684 H   0  0  0  0  0  0
  -24.6536  -15.8395   20.4993 H   0  0  0  0  0  0
  -26.2749  -15.6249   20.0725 H   0  0  0  0  0  0
  -26.7143  -32.5568   23.1207 H   0  0  0  0  0  0
  -25.0047  -33.9787   25.0505 H   0  0  0  0  0  0
  -22.6894  -31.3117   21.4159 H   0  0  0  0  0  0
  -23.3775  -35.9608   23.3299 H   0  0  0  0  0  0
  -24.3595  -36.8914   22.2067 H   0  0  0  0  0  0
  -23.7174  -37.6486   23.6669 H   0  0  0  0  0  0
  -26.0610  -31.5900   20.6076 H   0  0  0  0  0  0
  -26.8156  -30.8723   22.0016 H   0  0  0  0  0  0
  -28.0903  -29.0684   21.1988 H   0  0  0  0  0  0
  -26.0047  -26.0095   18.9475 H   0  0  0  0  0  0
  -23.9729  -27.3216   19.0099 H   0  0  0  0  0  0
  -23.7211  -30.6077   19.4090 H   0  0  0  0  0  0
  -22.7349  -29.2526   19.8730 H   0  0  0  0  0  0
  -25.1245  -36.2025   25.0845 H   0  0  0  0  0  0
  -20.9972  -28.3222   24.1387 H   0  0  0  0  0  0
  -20.5571  -26.2259   23.3600 H   0  0  0  0  0  0
  -21.6625  -26.7336   22.1235 H   0  0  0  0  0  0
  -19.6903  -25.6247   21.1209 H   0  0  0  0  0  0
  -19.6670  -27.3142   20.6707 H   0  0  0  0  0  0
  -17.4172  -26.6628   21.4017 H   0  0  0  0  0  0
  -18.0332  -25.9959   22.8939 H   0  0  0  0  0  0
  -19.7962  -30.7148   24.2320 H   0  0  0  0  0  0
  -17.5063  -31.6242   24.5116 H   0  0  0  0  0  0
  -15.5379  -30.2961   23.7605 H   0  0  0  0  0  0
  -15.8667  -28.0736   22.7137 H   0  0  0  0  0  0
  -24.5929  -30.6984   25.7840 H   0  0  0  0  0  0
  -24.8869  -32.2805   26.4979 H   0  0  0  0  0  0
  -25.8092  -30.8864   27.0258 H   0  0  0  0  0  0
  -26.2864  -29.6796   24.1207 H   0  0  0  0  0  0
  -27.4164  -29.7334   25.4550 H   0  0  0  0  0  0
  -27.8676  -30.4415   23.9230 H   0  0  0  0  0  0
  -27.2737  -33.3646   26.2070 H   0  0  0  0  0  0
  -28.3873  -32.6817   25.0279 H   0  0  0  0  0  0
  -28.0750  -31.8417   26.5382 H   0  0  0  0  0  0
  -28.2594  -38.0098   24.7562 H   0  0  0  0  0  0
  -28.1083  -36.2632   24.6255 H   0  0  0  0  0  0
  -27.2326  -37.1391   25.8878 H   0  0  0  0  0  0
  -20.9334  -29.8822   21.7002 H   0  0  0  0  0  0
  -26.0214  -38.2888   24.1430 H   0  0  0  0  0  0
  -28.2624  -16.7731   19.6196 H   0  0  0  0  0  0
  -31.9355  -18.9792   21.8781 H   0  0  0  0  0  0
  -30.9698  -20.2087   22.6857 H   0  0  0  0  0  0
  -31.8042  -20.5639   21.1658 H   0  0  0  0  0  0
  -30.6493  -17.0499   22.3019 H   0  0  0  0  0  0
  -31.5417  -16.9882   20.8054 H   0  0  0  0  0  0
  -30.0981  -22.0652   21.5115 H   0  0  0  0  0  0
  -28.3771  -22.1771   21.4394 H   0  0  0  0  0  0
  -28.5460  -22.8012   18.9966 H   0  0  0  0  0  0
  -30.2737  -22.6627   19.0931 H   0  0  0  0  0  0
  -30.4027  -24.8504   19.6861 H   0  0  0  0  0  0
  -29.6286  -24.4811   21.1994 H   0  0  0  0  0  0
  -27.4048  -24.8194   20.1410 H   0  0  0  0  0  0
  -28.1870  -25.2506   18.6182 H   0  0  0  0  0  0
  -29.0737  -15.3533   21.3631 H   0  0  0  0  0  0
  1 25  1  0  0  0
  1 30  2  0  0  0
  1 83  1  0  0  0
  2  3  1  0  0  0
  2 25  1  0  0  0
  2 85  1  0  0  0
  2 86  1  0  0  0
  3  4  1  0  0  0
  3 87  1  0  0  0
  3 88  1  0  0  0
  4  5  1  0  0  0
  4 89  1  0  0  0
  4 90  1  0  0  0
  5  6  1  0  0  0
  5 26  1  0  0  0
  5 91  1  0  0  0
  6 25  1  0  0  0
  6 92  1  0  0  0
  6 93  1  0  0  0
  7  8  2  0  0  0
  7 26  1  0  0  0
  7 29  1  0  0  0
  8  9  1  0  0  0
  8 22  1  0  0  0
  9 10  1  0  0  0
  9 27  2  0  0  0
 10 11  2  0  0  0
 10 15  1  0  0  0
 11 12  1  0  0  0
 11 94  1  0  0  0
 12 13  2  0  0  0
 12 95  1  0  0  0
 13 14  1  0  0  0
 13 31  1  0  0  0
 14 15  2  0  0  0
 14 96  1  0  0  0
 15 97  1  0  0  0
 16 17  2  0  0  0
 16 21  1  0  0  0
 16 31  1  0  0  0
 17 18  1  0  0  0
 17 98  1  0  0  0
 18 19  2  0  0  0
 18 99  1  0  0  0
 19 20  1  0  0  0
 19 24  1  0  0  0
 20 21  2  0  0  0
 20100  1  0  0  0
 21 23  1  0  0  0
 22 28  1  0  0  0
 22 32  2  0  0  0
 26 27  1  0  0  0
 28101  1  0  0  0
 28102  1  0  0  0
 29103  1  0  0  0
 29104  1  0  0  0
 33 34  1  0  0  0
 33 66  1  0  0  0
 33 70  2  0  0  0
 34 36  1  0  0  0
 34 59  1  0  0  0
 34105  1  0  0  0
 35 44  2  0  0  0
 35 45  1  0  0  0
 35 68  1  0  0  0
 36 56  1  0  0  0
 36106  1  0  0  0
 37 39  1  0  0  0
 37 47  1  0  0  0
 37 66  1  0  0  0
 37107  1  0  0  0
 38 43  2  0  0  0
 38 46  1  0  0  0
 38 47  1  0  0  0
 39 64  1  0  0  0
 39 67  2  0  0  0
 40 52  1  0  0  0
 40 53  2  0  0  0
 40 58  1  0  0  0
 41108  1  0  0  0
 41109  1  0  0  0
 41110  1  0  0  0
 41 48  1  0  0  0
 42 43  1  0  0  0
 42 66  1  0  0  0
 42111  1  0  0  0
 42112  1  0  0  0
 43 44  1  0  0  0
 44113  1  0  0  0
 45 46  2  0  0  0
 45114  1  0  0  0
 46115  1  0  0  0
 47116  1  0  0  0
 47117  1  0  0  0
 48 56  1  0  0  0
 48 65  1  0  0  0
 48118  1  0  0  0
 49 50  1  0  0  0
 49 53  1  0  0  0
 49 64  1  0  0  0
 49119  1  0  0  0
 50 51  1  0  0  0
 50120  1  0  0  0
 50121  1  0  0  0
 51 52  1  0  0  0
 51122  1  0  0  0
 51123  1  0  0  0
 52124  1  0  0  0
 52125  1  0  0  0
 53 54  1  0  0  0
 54 55  2  0  0  0
 54126  1  0  0  0
 55 57  1  0  0  0
 55127  1  0  0  0
 56 69  2  0  0  0
 57 58  2  0  0  0
 57128  1  0  0  0
 58129  1  0  0  0
 59 60  1  0  0  0
 59 61  1  0  0  0
 59 62  1  0  0  0
 60130  1  0  0  0
 60131  1  0  0  0
 60132  1  0  0  0
 61133  1  0  0  0
 61134  1  0  0  0
 61135  1  0  0  0
 62136  1  0  0  0
 62137  1  0  0  0
 62138  1  0  0  0
 63 65  1  0  0  0
 63139  1  0  0  0
 63140  1  0  0  0
 63141  1  0  0  0
 64142  1  0  0  0
 65143  1  0  0  0
 68 81  1  0  0  0
 71 72  2  0  0  0
 71 75  1  0  0  0
 71144  1  0  0  0
 72 73  1  0  0  0
 72 77  1  0  0  0
 73 74  2  0  0  0
 73 76  1  0  0  0
 74 78  1  0  0  0
 74 82  1  0  0  0
 75 82  2  0  0  0
 75 84  1  0  0  0
 76145  1  0  0  0
 76146  1  0  0  0
 76147  1  0  0  0
 77 83  1  0  0  0
 77148  1  0  0  0
 77149  1  0  0  0
 78 79  1  0  0  0
 78150  1  0  0  0
 78151  1  0  0  0
 79 80  1  0  0  0
 79152  1  0  0  0
 79153  1  0  0  0
 80 81  1  0  0  0
 80154  1  0  0  0
 80155  1  0  0  0
 81156  1  0  0  0
 81157  1  0  0  0
 83158  1  0  0  0
M  ISO  4   1 100  68 101  81 101  83 100
M  END
> <chiral flag>
0

> <version>
0

> <s_m_source_file>
/data/baiqing/PycharmProjects/Reinvent-master-3.2/result/LINK_invent/BTK/process_docking_weight1_custom_sum_contain_oxygen_bond_distance_aromatic_linkinvent_7_9_3/rearranged_h_0028.sdf

> <i_m_source_file_index>
92

> <r_mmod_Potential_Energy-OPLS-2005>
-333.588256835938

> <r_mmod_Stretch_Energy-OPLS-2005>
40.8048706054688

> <r_mmod_Bend_Energy-OPLS-2005>
98.1840667724609

> <r_mmod_Torsional_Energy-OPLS-2005>
192.627883911133

> <r_mmod_Improper_Torsional_Energy-OPLS-2005>
3.36299157142639

> <r_mmod_Van_der_Waal_Energy-OPLS-2005>
163.088363647461

> <r_mmod_Electrostatic_Energy-OPLS-2005>
-634.589294433594

> <r_mmod_Solvation_Energy-OPLS-2005>
-213.541870117188

> <b_mmod_Minimization_Converged-OPLS-2005>
0

> <r_mmod_RMS_Derivative-OPLS-2005>
2.94412159919739

$$$$
92
                    3D
 Structure written by MMmdl.
161169  0  0  1  0            999 V2000
  -30.6409  -14.5892   20.4611 C   0  0  0  0  0  0
  -30.4461  -12.3391   19.4631 C   0  0  0  0  0  0
  -29.5132  -12.4065   18.2344 C   0  0  0  0  0  0
  -28.0270  -12.3145   18.6466 C   0  0  0  0  0  0
  -27.6550  -13.1986   19.8690 C   0  0  2  0  0  0
  -28.7025  -13.0592   20.9947 C   0  0  0  0  0  0
  -25.2569  -13.8147   20.5651 C   0  0  0  0  0  0
  -24.1820  -13.0450   20.9192 C   0  0  0  0  0  0
  -24.6360  -11.6916   20.8801 C   0  0  0  0  0  0
  -23.9030  -10.4308   21.0447 C   0  0  0  0  0  0
  -24.3602   -9.4213   21.9205 C   0  0  0  0  0  0
  -23.6286   -8.2243   22.0739 C   0  0  0  0  0  0
  -22.4269   -8.0304   21.3535 C   0  0  0  0  0  0
  -21.9892   -9.0287   20.4639 C   0  0  0  0  0  0
  -22.7223  -10.2167   20.3075 C   0  0  0  0  0  0
  -21.6845   -6.0765   22.5277 C   0  0  0  0  0  0
  -21.4017   -6.5656   23.8223 C   0  0  0  0  0  0
  -21.3642   -5.6792   24.9168 C   0  0  0  0  0  0
  -21.6033   -4.3060   24.7203 C   0  0  0  0  0  0
  -21.8825   -3.8168   23.4315 C   0  0  0  0  0  0
  -21.9188   -4.6993   22.3385 C   0  0  0  0  0  0
  -22.7850  -13.5272   21.1858 C   0  0  0  0  0  0
  -22.1672   -4.2173   21.0961 F   0  0  0  0  0  0
  -21.5610   -3.4540   25.7712 F   0  0  0  0  0  0
  -30.0189  -13.3748   20.4203 N   0  0  0  0  0  0
  -26.2990  -12.9279   20.3377 N   0  0  0  0  0  0
  -25.9283  -11.6471   20.5845 N   0  0  0  0  0  0
  -22.0477  -12.8254   22.0399 N   0  0  0  0  0  0
  -25.4295  -15.1852   20.3895 N   0  0  0  0  0  0
  -31.8151  -14.7340   20.1124 O   0  0  0  0  0  0
  -21.6608   -6.8919   21.4249 O   0  0  0  0  0  0
  -22.3552  -14.5596   20.6731 O   0  0  0  0  0  0
  -24.6188  -31.8685   23.2079 C   0  0  0  0  0  0
  -25.9072  -32.4827   23.8403 C   0  0  1  0  0  0
  -27.2328  -27.4084   20.1061 C   0  0  0  0  0  0
  -25.5935  -33.8624   24.2342 N   0  0  0  0  0  0
  -23.4085  -30.4923   21.5481 C   0  0  2  0  0  0
  -24.8542  -28.9555   20.1153 C   0  0  0  0  0  0
  -22.7439  -29.4680   22.4963 C   0  0  0  0  0  0
  -18.0294  -28.1393   22.8469 C   0  0  0  0  0  0
  -24.1484  -36.7296   23.2637 C   0  0  0  0  0  0
  -25.9406  -30.8266   21.3662 C   0  0  0  0  0  0
  -26.0174  -29.4598   20.7115 C   0  0  0  0  0  0
  -27.2113  -28.6957   20.6999 C   0  0  0  0  0  0
  -26.0541  -26.9370   19.4858 C   0  0  0  0  0  0
  -24.8690  -27.6958   19.4953 C   0  0  0  0  0  0
  -23.6171  -29.8237   20.1647 C   0  0  0  0  0  0
  -25.4108  -36.3112   24.0344 C   0  0  1  0  0  0
  -20.5883  -28.3702   23.1284 C   0  0  2  0  0  0
  -20.6783  -26.9429   22.5414 C   0  0  0  0  0  0
  -19.5774  -26.6378   21.5209 C   0  0  0  0  0  0
  -18.1940  -26.7938   22.1590 C   0  0  0  0  0  0
  -19.1540  -28.8858   23.2869 C   0  0  0  0  0  0
  -18.9461  -30.1461   23.8888 C   0  0  0  0  0  0
  -17.6466  -30.6585   24.0570 C   0  0  0  0  0  0
  -25.9047  -34.9482   23.5135 C   0  0  0  0  0  0
  -16.5354  -29.9088   23.6340 C   0  0  0  0  0  0
  -16.7285  -28.6512   23.0332 C   0  0  0  0  0  0
  -26.4485  -31.6607   25.0741 C   0  0  0  0  0  0
  -25.3714  -31.3734   26.1461 C   0  0  0  0  0  0
  -27.0348  -30.3050   24.6151 C   0  0  0  0  0  0
  -27.6088  -32.4302   25.7494 C   0  0  0  0  0  0
  -27.5592  -37.1784   24.8454 C   0  0  0  0  0  0
  -21.4164  -29.3057   22.3679 N   0  0  0  0  0  0
  -26.4290  -37.3803   23.9425 N   0  0  0  0  0  0
  -24.6742  -31.0773   22.0986 N   0  0  0  0  0  0
  -23.4187  -28.8238   23.3030 O   0  0  0  0  0  0
  -28.3828  -26.6357   20.1167 O   0  0  0  0  0  0
  -26.5586  -34.8933   22.4685 O   0  0  0  0  0  0
  -23.5369  -32.1455   23.7436 O   0  0  0  0  0  0
  -30.2671  -18.1008   20.9770 C   0  0  0  0  0  0
  -29.5212  -17.2865   18.8322 C   0  0  0  0  0  0
  -29.9154  -16.9874   20.1653 C   0  0  0  0  0  0
  -30.2868  -19.4174   20.4348 C   0  0  0  0  0  0
  -29.5946  -18.6205   18.3715 C   0  0  0  0  0  0
  -28.9964  -16.2325   17.8705 C   0  0  0  0  0  0
  -32.2802  -20.4277   21.5742 C   0  0  0  0  0  0
  -29.3329  -22.8863   20.8012 C   0  0  0  0  0  0
  -29.4508  -24.3646   20.2960 C   0  0  0  0  0  0
  -30.6358  -22.0618   20.5839 C   0  0  0  0  0  0
  -28.2250  -25.2725   20.5859 C   0  0  0  0  0  0
  -30.7886  -20.6370   21.2462 C   0  0  1  0  0  0
  -29.9930  -19.6462   19.1424 N   0  0  0  0  0  0
  -29.8301  -15.6525   20.7175 N   0  0  0  0  0  0
  -29.1475  -19.0168   16.7490 Cl  0  0  0  0  0  0
  -31.4843  -12.4660   19.1508 H   0  0  0  0  0  0
  -30.3986  -11.3568   19.9337 H   0  0  0  0  0  0
  -29.7484  -11.5820   17.5587 H   0  0  0  0  0  0
  -29.7091  -13.3087   17.6598 H   0  0  0  0  0  0
  -27.8351  -11.2687   18.8900 H   0  0  0  0  0  0
  -27.3804  -12.5475   17.8003 H   0  0  0  0  0  0
  -27.6623  -14.2304   19.5299 H   0  0  0  0  0  0
  -28.7049  -12.0410   21.3854 H   0  0  0  0  0  0
  -28.4625  -13.7056   21.8420 H   0  0  0  0  0  0
  -25.2761   -9.5687   22.4759 H   0  0  0  0  0  0
  -24.0011   -7.4590   22.7408 H   0  0  0  0  0  0
  -21.0838   -8.8832   19.8910 H   0  0  0  0  0  0
  -22.3718  -10.9727   19.6185 H   0  0  0  0  0  0
  -21.2052   -7.6171   23.9762 H   0  0  0  0  0  0
  -21.1444   -6.0495   25.9076 H   0  0  0  0  0  0
  -22.0621   -2.7640   23.2774 H   0  0  0  0  0  0
  -22.4079  -11.9874   22.4704 H   0  0  0  0  0  0
  -21.1151  -13.1378   22.2749 H   0  0  0  0  0  0
  -24.6460  -15.8277   20.4397 H   0  0  0  0  0  0
  -26.2647  -15.6122   20.0122 H   0  0  0  0  0  0
  -26.7149  -32.5534   23.1177 H   0  0  0  0  0  0
  -25.0145  -33.9795   25.0527 H   0  0  0  0  0  0
  -22.7003  -31.3112   21.4070 H   0  0  0  0  0  0
  -23.3779  -35.9593   23.3270 H   0  0  0  0  0  0
  -24.3594  -36.8941   22.2060 H   0  0  0  0  0  0
  -23.7175  -37.6469   23.6659 H   0  0  0  0  0  0
  -26.0597  -31.5930   20.5989 H   0  0  0  0  0  0
  -26.8249  -30.8754   21.9903 H   0  0  0  0  0  0
  -28.1088  -29.0790   21.1646 H   0  0  0  0  0  0
  -26.0409  -25.9844   18.9776 H   0  0  0  0  0  0
  -23.9783  -27.3075   19.0194 H   0  0  0  0  0  0
  -23.7228  -30.5969   19.4026 H   0  0  0  0  0  0
  -22.7411  -29.2420   19.8731 H   0  0  0  0  0  0
  -25.1271  -36.1989   25.0834 H   0  0  0  0  0  0
  -20.9990  -28.3282   24.1399 H   0  0  0  0  0  0
  -20.5689  -26.2323   23.3619 H   0  0  0  0  0  0
  -21.6649  -26.7467   22.1207 H   0  0  0  0  0  0
  -19.6949  -25.6282   21.1251 H   0  0  0  0  0  0
  -19.6730  -27.3174   20.6730 H   0  0  0  0  0  0
  -17.4232  -26.6712   21.3964 H   0  0  0  0  0  0
  -18.0323  -26.0075   22.8978 H   0  0  0  0  0  0
  -19.7946  -30.7272   24.2230 H   0  0  0  0  0  0
  -17.5034  -31.6266   24.5176 H   0  0  0  0  0  0
  -15.5354  -30.2982   23.7679 H   0  0  0  0  0  0
  -15.8689  -28.0847   22.7016 H   0  0  0  0  0  0
  -24.5881  -30.7112   25.7752 H   0  0  0  0  0  0
  -24.8907  -32.2905   26.4882 H   0  0  0  0  0  0
  -25.8011  -30.8887   27.0238 H   0  0  0  0  0  0
  -26.2939  -29.6767   24.1190 H   0  0  0  0  0  0
  -27.4118  -29.7327   25.4639 H   0  0  0  0  0  0
  -27.8766  -30.4385   23.9346 H   0  0  0  0  0  0
  -27.2761  -33.3596   26.2125 H   0  0  0  0  0  0
  -28.3871  -32.6852   25.0288 H   0  0  0  0  0  0
  -28.0796  -31.8376   26.5352 H   0  0  0  0  0  0
  -28.2569  -38.0121   24.7570 H   0  0  0  0  0  0
  -28.1120  -36.2654   24.6180 H   0  0  0  0  0  0
  -27.2332  -37.1322   25.8860 H   0  0  0  0  0  0
  -20.9343  -29.8777   21.6890 H   0  0  0  0  0  0
  -26.0185  -38.2880   24.1446 H   0  0  0  0  0  0
  -30.5448  -17.9506   22.0114 H   0  0  0  0  0  0
  -27.9416  -16.4110   17.6603 H   0  0  0  0  0  0
  -29.0876  -15.2307   18.2560 H   0  0  0  0  0  0
  -29.5462  -16.2643   16.9305 H   0  0  0  0  0  0
  -32.4543  -19.4902   22.1000 H   0  0  0  0  0  0
  -32.6710  -21.2255   22.2079 H   0  0  0  0  0  0
  -32.8724  -20.4138   20.6587 H   0  0  0  0  0  0
  -28.4977  -22.3922   20.3019 H   0  0  0  0  0  0
  -29.0930  -22.8937   21.8653 H   0  0  0  0  0  0
  -29.6267  -24.3572   19.2201 H   0  0  0  0  0  0
  -30.3348  -24.8275   20.7365 H   0  0  0  0  0  0
  -31.4159  -22.6915   21.0144 H   0  0  0  0  0  0
  -30.8915  -22.0208   19.5251 H   0  0  0  0  0  0
  -28.0550  -25.3116   21.6632 H   0  0  0  0  0  0
  -27.3510  -24.7844   20.1577 H   0  0  0  0  0  0
  -30.2415  -20.6425   22.1902 H   0  0  0  0  0  0
  -28.9145  -15.3878   21.0451 H   0  0  0  0  0  0
  1 25  1  0  0  0
  1 30  2  0  0  0
  1 84  1  0  0  0
  2  3  1  0  0  0
  2 25  1  0  0  0
  2 86  1  0  0  0
  2 87  1  0  0  0
  3  4  1  0  0  0
  3 88  1  0  0  0
  3 89  1  0  0  0
  4  5  1  0  0  0
  4 90  1  0  0  0
  4 91  1  0  0  0
  5  6  1  0  0  0
  5 26  1  0  0  0
  5 92  1  0  0  0
  6 25  1  0  0  0
  6 93  1  0  0  0
  6 94  1  0  0  0
  7  8  2  0  0  0
  7 26  1  0  0  0
  7 29  1  0  0  0
  8  9  1  0  0  0
  8 22  1  0  0  0
  9 10  1  0  0  0
  9 27  2  0  0  0
 10 11  2  0  0  0
 10 15  1  0  0  0
 11 12  1  0  0  0
 11 95  1  0  0  0
 12 13  2  0  0  0
 12 96  1  0  0  0
 13 14  1  0  0  0
 13 31  1  0  0  0
 14 15  2  0  0  0
 14 97  1  0  0  0
 15 98  1  0  0  0
 16 17  2  0  0  0
 16 21  1  0  0  0
 16 31  1  0  0  0
 17 18  1  0  0  0
 17 99  1  0  0  0
 18 19  2  0  0  0
 18100  1  0  0  0
 19 20  1  0  0  0
 19 24  1  0  0  0
 20 21  2  0  0  0
 20101  1  0  0  0
 21 23  1  0  0  0
 22 28  1  0  0  0
 22 32  2  0  0  0
 26 27  1  0  0  0
 28102  1  0  0  0
 28103  1  0  0  0
 29104  1  0  0  0
 29105  1  0  0  0
 33 34  1  0  0  0
 33 66  1  0  0  0
 33 70  2  0  0  0
 34 36  1  0  0  0
 34 59  1  0  0  0
 34106  1  0  0  0
 35 44  2  0  0  0
 35 45  1  0  0  0
 35 68  1  0  0  0
 36 56  1  0  0  0
 36107  1  0  0  0
 37 39  1  0  0  0
 37 47  1  0  0  0
 37 66  1  0  0  0
 37108  1  0  0  0
 38 43  2  0  0  0
 38 46  1  0  0  0
 38 47  1  0  0  0
 39 64  1  0  0  0
 39 67  2  0  0  0
 40 52  1  0  0  0
 40 53  2  0  0  0
 40 58  1  0  0  0
 41109  1  0  0  0
 41110  1  0  0  0
 41111  1  0  0  0
 41 48  1  0  0  0
 42 43  1  0  0  0
 42 66  1  0  0  0
 42112  1  0  0  0
 42113  1  0  0  0
 43 44  1  0  0  0
 44114  1  0  0  0
 45 46  2  0  0  0
 45115  1  0  0  0
 46116  1  0  0  0
 47117  1  0  0  0
 47118  1  0  0  0
 48 56  1  0  0  0
 48 65  1  0  0  0
 48119  1  0  0  0
 49 50  1  0  0  0
 49 53  1  0  0  0
 49 64  1  0  0  0
 49120  1  0  0  0
 50 51  1  0  0  0
 50121  1  0  0  0
 50122  1  0  0  0
 51 52  1  0  0  0
 51123  1  0  0  0
 51124  1  0  0  0
 52125  1  0  0  0
 52126  1  0  0  0
 53 54  1  0  0  0
 54 55  2  0  0  0
 54127  1  0  0  0
 55 57  1  0  0  0
 55128  1  0  0  0
 56 69  2  0  0  0
 57 58  2  0  0  0
 57129  1  0  0  0
 58130  1  0  0  0
 59 60  1  0  0  0
 59 61  1  0  0  0
 59 62  1  0  0  0
 60131  1  0  0  0
 60132  1  0  0  0
 60133  1  0  0  0
 61134  1  0  0  0
 61135  1  0  0  0
 61136  1  0  0  0
 62137  1  0  0  0
 62138  1  0  0  0
 62139  1  0  0  0
 63 65  1  0  0  0
 63140  1  0  0  0
 63141  1  0  0  0
 63142  1  0  0  0
 64143  1  0  0  0
 65144  1  0  0  0
 68 81  1  0  0  0
 71 73  2  0  0  0
 71 74  1  0  0  0
 71145  1  0  0  0
 72 73  1  0  0  0
 72 75  2  0  0  0
 72 76  1  0  0  0
 73 84  1  0  0  0
 74 82  1  0  0  0
 74 83  2  0  0  0
 75 83  1  0  0  0
 75 85  1  0  0  0
 76146  1  0  0  0
 76147  1  0  0  0
 76148  1  0  0  0
 77149  1  0  0  0
 77150  1  0  0  0
 77151  1  0  0  0
 77 82  1  0  0  0
 78 79  1  0  0  0
 78 80  1  0  0  0
 78152  1  0  0  0
 78153  1  0  0  0
 79 81  1  0  0  0
 79154  1  0  0  0
 79155  1  0  0  0
 80 82  1  0  0  0
 80156  1  0  0  0
 80157  1  0  0  0
 81158  1  0  0  0
 81159  1  0  0  0
 82160  1  0  0  0
 84161  1  0  0  0
M  ISO  4   1 100  68 101  81 101  84 100
M  END
> <chiral flag>
0

> <version>
0

> <s_m_source_file>
/data/baiqing/PycharmProjects/Reinvent-master-3.2/result/LINK_invent/BTK/process_docking_weight1_custom_sum_contain_oxygen_bond_distance_aromatic_linkinvent_7_9_3/rearranged_h_0028.sdf

> <i_m_source_file_index>
93

> <r_mmod_Potential_Energy-OPLS-2005>
-97.2932281494141

> <r_mmod_Stretch_Energy-OPLS-2005>
49.4743309020996

> <r_mmod_Bend_Energy-OPLS-2005>
109.994567871094

> <r_mmod_Torsional_Energy-OPLS-2005>
269.094909667969

> <r_mmod_Improper_Torsional_Energy-OPLS-2005>
6.91312885284424

> <r_mmod_Van_der_Waal_Energy-OPLS-2005>
154.043106079102

> <r_mmod_Electrostatic_Energy-OPLS-2005>
-507.884399414062

> <r_mmod_Solvation_Energy-OPLS-2005>
-209.580200195312

> <b_mmod_Minimization_Converged-OPLS-2005>
0

> <r_mmod_RMS_Derivative-OPLS-2005>
3.00889801979065

$$$$
93
                    3D
 Structure written by MMmdl.
173181  0  0  1  0            999 V2000
  -30.7289  -14.5743   20.5654 C   0  0  0  0  0  0
  -30.4412  -12.3658   19.4596 C   0  0  0  0  0  0
  -29.5310  -12.5065   18.2211 C   0  0  0  0  0  0
  -28.0477  -12.3184   18.6018 C   0  0  0  0  0  0
  -27.6519  -13.1495   19.8459 C   0  0  2  0  0  0
  -28.7089  -13.0141   20.9867 C   0  0  0  0  0  0
  -25.2554  -13.7916   20.5594 C   0  0  0  0  0  0
  -24.1828  -13.0299   20.9201 C   0  0  0  0  0  0
  -24.6338  -11.6734   20.8791 C   0  0  0  0  0  0
  -23.9002  -10.4158   21.0437 C   0  0  0  0  0  0
  -24.3534   -9.4085   21.9222 C   0  0  0  0  0  0
  -23.6194   -8.2132   22.0767 C   0  0  0  0  0  0
  -22.4196   -8.0179   21.3521 C   0  0  0  0  0  0
  -21.9834   -9.0186   20.4657 C   0  0  0  0  0  0
  -22.7184  -10.2042   20.3084 C   0  0  0  0  0  0
  -21.6834   -6.0656   22.5243 C   0  0  0  0  0  0
  -21.4028   -6.5581   23.8179 C   0  0  0  0  0  0
  -21.3679   -5.6748   24.9161 C   0  0  0  0  0  0
  -21.6034   -4.3005   24.7232 C   0  0  0  0  0  0
  -21.8823   -3.8072   23.4372 C   0  0  0  0  0  0
  -21.9189   -4.6879   22.3404 C   0  0  0  0  0  0
  -22.7865  -13.5160   21.1869 C   0  0  0  0  0  0
  -22.1659   -4.2037   21.0999 F   0  0  0  0  0  0
  -21.5623   -3.4519   25.7775 F   0  0  0  0  0  0
  -30.0158  -13.3978   20.4330 N   0  0  0  0  0  0
  -26.2950  -12.8984   20.3168 N   0  0  0  0  0  0
  -25.9214  -11.6223   20.5681 N   0  0  0  0  0  0
  -22.0471  -12.8208   22.0446 N   0  0  0  0  0  0
  -25.4092  -15.1686   20.3998 N   0  0  0  0  0  0
  -31.9093  -14.5871   20.1948 O   0  0  0  0  0  0
  -21.6595   -6.8763   21.4197 O   0  0  0  0  0  0
  -22.3547  -14.5466   20.6663 O   0  0  0  0  0  0
  -24.6075  -31.8725   23.2174 C   0  0  0  0  0  0
  -25.8966  -32.4834   23.8498 C   0  0  1  0  0  0
  -27.2426  -27.4893   20.1066 C   0  0  0  0  0  0
  -25.5826  -33.8629   24.2371 N   0  0  0  0  0  0
  -23.3977  -30.5035   21.5510 C   0  0  2  0  0  0
  -24.8466  -28.9855   20.1174 C   0  0  0  0  0  0
  -22.7439  -29.4645   22.4891 C   0  0  0  0  0  0
  -18.0340  -28.1310   22.8602 C   0  0  0  0  0  0
  -24.1485  -36.7356   23.2651 C   0  0  0  0  0  0
  -25.9245  -30.8619   21.3633 C   0  0  0  0  0  0
  -26.0089  -29.5086   20.7040 C   0  0  0  0  0  0
  -27.2118  -28.7676   20.6952 C   0  0  0  0  0  0
  -26.0552  -26.9687   19.5583 C   0  0  0  0  0  0
  -24.8654  -27.7128   19.5313 C   0  0  0  0  0  0
  -23.6071  -29.8480   20.1641 C   0  0  0  0  0  0
  -25.4078  -36.3116   24.0353 C   0  0  1  0  0  0
  -20.5950  -28.3652   23.1338 C   0  0  2  0  0  0
  -20.6825  -26.9348   22.5498 C   0  0  0  0  0  0
  -19.5813  -26.6181   21.5334 C   0  0  0  0  0  0
  -18.2006  -26.7738   22.1820 C   0  0  0  0  0  0
  -19.1578  -28.8796   23.2915 C   0  0  0  0  0  0
  -18.9476  -30.1479   23.8775 C   0  0  0  0  0  0
  -17.6529  -30.6722   24.0350 C   0  0  0  0  0  0
  -25.9004  -34.9472   23.5147 C   0  0  0  0  0  0
  -16.5396  -29.9189   23.6243 C   0  0  0  0  0  0
  -16.7347  -28.6489   23.0434 C   0  0  0  0  0  0
  -26.4462  -31.6620   25.0823 C   0  0  0  0  0  0
  -25.3766  -31.3705   26.1603 C   0  0  0  0  0  0
  -27.0271  -30.3068   24.6143 C   0  0  0  0  0  0
  -27.6028  -32.4354   25.7585 C   0  0  0  0  0  0
  -27.5557  -37.1813   24.8464 C   0  0  0  0  0  0
  -21.4176  -29.3044   22.3724 N   0  0  0  0  0  0
  -26.4273  -37.3778   23.9414 N   0  0  0  0  0  0
  -24.6618  -31.0918   22.1031 N   0  0  0  0  0  0
  -23.4253  -28.8103   23.2828 O   0  0  0  0  0  0
  -28.3901  -26.7320   20.1739 O   0  0  0  0  0  0
  -26.5602  -34.8901   22.4729 O   0  0  0  0  0  0
  -23.5253  -32.1441   23.7603 O   0  0  0  0  0  0
  -27.6288  -18.2261   19.8717 C   0  0  0  0  0  0
  -26.8366  -18.7745   22.4431 C   0  0  0  0  0  0
  -28.0656  -17.3725   20.9067 C   0  0  0  0  0  0
  -27.6528  -17.6527   22.2272 C   0  0  0  0  0  0
  -26.7377  -19.2722   20.1769 C   0  0  0  0  0  0
  -31.9648  -19.0297   22.1362 C   0  0  0  0  0  0
  -28.7530  -16.0631   20.5506 C   0  0  0  0  0  0
  -31.0888  -17.7784   22.3109 C   0  0  0  0  0  0
  -26.6061  -23.7846   17.7356 C   0  0  0  0  0  0
  -27.9108  -24.2483   18.4255 C   0  0  0  0  0  0
  -26.3328  -22.2737   17.7090 C   0  0  0  0  0  0
  -28.3806  -25.6392   17.9357 C   0  0  0  0  0  0
  -26.6140  -21.5424   19.0337 C   0  0  0  0  0  0
  -30.9614  -17.0204   20.9668 C   0  0  0  0  0  0
  -29.1253  -26.4991   18.9766 C   0  0  0  0  0  0
  -26.0905  -20.0994   19.0690 C   0  0  1  0  0  0
  -26.3626  -19.5573   21.4454 N   0  0  0  0  0  0
  -30.1411  -15.7663   20.9487 N   0  0  0  0  0  0
  -26.2997  -19.5167   17.8832 F   0  0  0  0  0  0
  -28.0658  -16.6283   23.5582 Cl  0  0  0  0  0  0
  -31.4939  -12.4502   19.1743 H   0  0  0  0  0  0
  -30.3431  -11.3646   19.8824 H   0  0  0  0  0  0
  -29.8195  -11.7847   17.4574 H   0  0  0  0  0  0
  -29.6834  -13.4898   17.7730 H   0  0  0  0  0  0
  -27.8724  -11.2598   18.7915 H   0  0  0  0  0  0
  -27.4206  -12.5851   17.7519 H   0  0  0  0  0  0
  -27.6240  -14.1446   19.4316 H   0  0  0  0  0  0
  -28.7373  -11.9825   21.3369 H   0  0  0  0  0  0
  -28.4632  -13.5772   21.8862 H   0  0  0  0  0  0
  -25.2683   -9.5532   22.4808 H   0  0  0  0  0  0
  -23.9858   -7.4523   22.7532 H   0  0  0  0  0  0
  -21.0719   -8.8744   19.9003 H   0  0  0  0  0  0
  -22.3662  -10.9587   19.6170 H   0  0  0  0  0  0
  -21.2050   -7.6093   23.9649 H   0  0  0  0  0  0
  -21.1513   -6.0506   25.9057 H   0  0  0  0  0  0
  -22.0602   -2.7524   23.2936 H   0  0  0  0  0  0
  -22.4055  -11.9843   22.4807 H   0  0  0  0  0  0
  -21.1075  -13.1198   22.2651 H   0  0  0  0  0  0
  -24.6045  -15.7761   20.5241 H   0  0  0  0  0  0
  -26.1972  -15.6425   19.9801 H   0  0  0  0  0  0
  -26.6997  -32.5606   23.1238 H   0  0  0  0  0  0
  -24.9861  -33.9831   25.0420 H   0  0  0  0  0  0
  -22.6826  -31.3176   21.4176 H   0  0  0  0  0  0
  -23.3703  -35.9741   23.3319 H   0  0  0  0  0  0
  -24.3590  -36.8978   22.2077 H   0  0  0  0  0  0
  -23.7316  -37.6582   23.6663 H   0  0  0  0  0  0
  -26.0397  -31.6324   20.6042 H   0  0  0  0  0  0
  -26.8118  -30.9089   21.9769 H   0  0  0  0  0  0
  -28.1131  -29.1651   21.1412 H   0  0  0  0  0  0
  -26.0317  -25.9687   19.1848 H   0  0  0  0  0  0
  -23.9703  -27.2910   19.0966 H   0  0  0  0  0  0
  -23.7301  -30.6375   19.4194 H   0  0  0  0  0  0
  -22.7281  -29.2786   19.8486 H   0  0  0  0  0  0
  -25.1245  -36.1971   25.0843 H   0  0  0  0  0  0
  -21.0242  -28.3354   24.1391 H   0  0  0  0  0  0
  -20.5739  -26.2200   23.3657 H   0  0  0  0  0  0
  -21.6708  -26.7331   22.1280 H   0  0  0  0  0  0
  -19.7053  -25.6022   21.1422 H   0  0  0  0  0  0
  -19.6787  -27.2808   20.6724 H   0  0  0  0  0  0
  -17.4158  -26.6291   21.4368 H   0  0  0  0  0  0
  -18.0539  -25.9927   22.9306 H   0  0  0  0  0  0
  -19.7923  -30.7352   24.2136 H   0  0  0  0  0  0
  -17.5272  -31.6526   24.4707 H   0  0  0  0  0  0
  -15.5432  -30.3208   23.7525 H   0  0  0  0  0  0
  -15.8742  -28.0703   22.7369 H   0  0  0  0  0  0
  -24.5924  -30.7031   25.7993 H   0  0  0  0  0  0
  -24.8996  -32.2879   26.5076 H   0  0  0  0  0  0
  -25.8225  -30.8904   27.0328 H   0  0  0  0  0  0
  -26.2813  -29.6894   24.1116 H   0  0  0  0  0  0
  -27.3978  -29.7237   25.4588 H   0  0  0  0  0  0
  -27.8673  -30.4459   23.9328 H   0  0  0  0  0  0
  -27.2620  -33.3629   26.2184 H   0  0  0  0  0  0
  -28.3848  -32.6927   25.0434 H   0  0  0  0  0  0
  -28.0644  -31.8464   26.5507 H   0  0  0  0  0  0
  -28.2556  -38.0115   24.7431 H   0  0  0  0  0  0
  -28.1061  -36.2637   24.6324 H   0  0  0  0  0  0
  -27.2296  -37.1499   25.8875 H   0  0  0  0  0  0
  -20.9280  -29.8844   21.7054 H   0  0  0  0  0  0
  -26.0143  -38.2845   24.1395 H   0  0  0  0  0  0
  -27.8953  -18.0239   18.8436 H   0  0  0  0  0  0
  -26.5031  -19.0072   23.4447 H   0  0  0  0  0  0
  -32.9814  -18.7601   21.8462 H   0  0  0  0  0  0
  -31.5576  -19.6842   21.3591 H   0  0  0  0  0  0
  -32.0154  -19.6133   23.0588 H   0  0  0  0  0  0
  -28.0706  -15.3917   21.0487 H   0  0  0  0  0  0
  -28.6844  -15.9296   19.4707 H   0  0  0  0  0  0
  -31.4799  -17.1490   23.1138 H   0  0  0  0  0  0
  -30.1241  -18.1321   22.6539 H   0  0  0  0  0  0
  -26.5758  -24.1463   16.7065 H   0  0  0  0  0  0
  -25.7467  -24.2272   18.2348 H   0  0  0  0  0  0
  -28.7141  -23.5279   18.2662 H   0  0  0  0  0  0
  -27.7499  -24.2580   19.5058 H   0  0  0  0  0  0
  -26.9209  -21.8108   16.9156 H   0  0  0  0  0  0
  -25.2846  -22.1230   17.4320 H   0  0  0  0  0  0
  -27.5489  -26.2122   17.5396 H   0  0  0  0  0  0
  -29.0361  -25.5025   17.0751 H   0  0  0  0  0  0
  -26.1969  -22.0939   19.8792 H   0  0  0  0  0  0
  -27.6901  -21.5161   19.1717 H   0  0  0  0  0  0
  -30.5387  -17.7157   20.2414 H   0  0  0  0  0  0
  -31.9684  -16.8749   20.5777 H   0  0  0  0  0  0
  -29.4327  -27.4487   18.5339 H   0  0  0  0  0  0
  -30.0499  -25.9889   19.2572 H   0  0  0  0  0  0
  -25.0068  -20.0934   19.2017 H   0  0  0  0  0  0
  1 25  1  0  0  0
  1 30  2  0  0  0
  1 88  1  0  0  0
  2  3  1  0  0  0
  2 25  1  0  0  0
  2 91  1  0  0  0
  2 92  1  0  0  0
  3  4  1  0  0  0
  3 93  1  0  0  0
  3 94  1  0  0  0
  4  5  1  0  0  0
  4 95  1  0  0  0
  4 96  1  0  0  0
  5  6  1  0  0  0
  5 26  1  0  0  0
  5 97  1  0  0  0
  6 25  1  0  0  0
  6 98  1  0  0  0
  6 99  1  0  0  0
  7  8  2  0  0  0
  7 26  1  0  0  0
  7 29  1  0  0  0
  8  9  1  0  0  0
  8 22  1  0  0  0
  9 10  1  0  0  0
  9 27  2  0  0  0
 10 11  2  0  0  0
 10 15  1  0  0  0
 11 12  1  0  0  0
 11100  1  0  0  0
 12 13  2  0  0  0
 12101  1  0  0  0
 13 14  1  0  0  0
 13 31  1  0  0  0
 14 15  2  0  0  0
 14102  1  0  0  0
 15103  1  0  0  0
 16 17  2  0  0  0
 16 21  1  0  0  0
 16 31  1  0  0  0
 17 18  1  0  0  0
 17104  1  0  0  0
 18 19  2  0  0  0
 18105  1  0  0  0
 19 20  1  0  0  0
 19 24  1  0  0  0
 20 21  2  0  0  0
 20106  1  0  0  0
 21 23  1  0  0  0
 22 28  1  0  0  0
 22 32  2  0  0  0
 26 27  1  0  0  0
 28107  1  0  0  0
 28108  1  0  0  0
 29109  1  0  0  0
 29110  1  0  0  0
 33 34  1  0  0  0
 33 66  1  0  0  0
 33 70  2  0  0  0
 34 36  1  0  0  0
 34 59  1  0  0  0
 34111  1  0  0  0
 35 44  2  0  0  0
 35 45  1  0  0  0
 35 68  1  0  0  0
 36 56  1  0  0  0
 36112  1  0  0  0
 37 39  1  0  0  0
 37 47  1  0  0  0
 37 66  1  0  0  0
 37113  1  0  0  0
 38 43  2  0  0  0
 38 46  1  0  0  0
 38 47  1  0  0  0
 39 64  1  0  0  0
 39 67  2  0  0  0
 40 52  1  0  0  0
 40 53  2  0  0  0
 40 58  1  0  0  0
 41114  1  0  0  0
 41115  1  0  0  0
 41116  1  0  0  0
 41 48  1  0  0  0
 42 43  1  0  0  0
 42 66  1  0  0  0
 42117  1  0  0  0
 42118  1  0  0  0
 43 44  1  0  0  0
 44119  1  0  0  0
 45 46  2  0  0  0
 45120  1  0  0  0
 46121  1  0  0  0
 47122  1  0  0  0
 47123  1  0  0  0
 48 56  1  0  0  0
 48 65  1  0  0  0
 48124  1  0  0  0
 49 50  1  0  0  0
 49 53  1  0  0  0
 49 64  1  0  0  0
 49125  1  0  0  0
 50 51  1  0  0  0
 50126  1  0  0  0
 50127  1  0  0  0
 51 52  1  0  0  0
 51128  1  0  0  0
 51129  1  0  0  0
 52130  1  0  0  0
 52131  1  0  0  0
 53 54  1  0  0  0
 54 55  2  0  0  0
 54132  1  0  0  0
 55 57  1  0  0  0
 55133  1  0  0  0
 56 69  2  0  0  0
 57 58  2  0  0  0
 57134  1  0  0  0
 58135  1  0  0  0
 59 60  1  0  0  0
 59 61  1  0  0  0
 59 62  1  0  0  0
 60136  1  0  0  0
 60137  1  0  0  0
 60138  1  0  0  0
 61139  1  0  0  0
 61140  1  0  0  0
 61141  1  0  0  0
 62142  1  0  0  0
 62143  1  0  0  0
 62144  1  0  0  0
 63 65  1  0  0  0
 63145  1  0  0  0
 63146  1  0  0  0
 63147  1  0  0  0
 64148  1  0  0  0
 65149  1  0  0  0
 68 85  1  0  0  0
 71 73  2  0  0  0
 71 75  1  0  0  0
 71150  1  0  0  0
 72 74  2  0  0  0
 72 87  1  0  0  0
 72151  1  0  0  0
 73 74  1  0  0  0
 73 77  1  0  0  0
 74 90  1  0  0  0
 75 86  1  0  0  0
 75 87  2  0  0  0
 76 78  1  0  0  0
 76152  1  0  0  0
 76153  1  0  0  0
 76154  1  0  0  0
 77 88  1  0  0  0
 77155  1  0  0  0
 77156  1  0  0  0
 78 84  1  0  0  0
 78157  1  0  0  0
 78158  1  0  0  0
 79 80  1  0  0  0
 79 81  1  0  0  0
 79159  1  0  0  0
 79160  1  0  0  0
 80 82  1  0  0  0
 80161  1  0  0  0
 80162  1  0  0  0
 81 83  1  0  0  0
 81163  1  0  0  0
 81164  1  0  0  0
 82 85  1  0  0  0
 82165  1  0  0  0
 82166  1  0  0  0
 83 86  1  0  0  0
 83167  1  0  0  0
 83168  1  0  0  0
 84 88  1  0  0  0
 84169  1  0  0  0
 84170  1  0  0  0
 85171  1  0  0  0
 85172  1  0  0  0
 86 89  1  0  0  0
 86173  1  0  0  0
M  ISO  4   1 100  68 101  85 101  88 100
M  END
> <chiral flag>
0

> <version>
0

> <s_m_source_file>
/data/baiqing/PycharmProjects/Reinvent-master-3.2/result/LINK_invent/BTK/process_docking_weight1_custom_sum_contain_oxygen_bond_distance_aromatic_linkinvent_7_9_3/rearranged_h_0028.sdf

> <i_m_source_file_index>
94

> <r_mmod_Potential_Energy-OPLS-2005>
151.204498291016

> <r_mmod_Stretch_Energy-OPLS-2005>
47.3113861083984

> <r_mmod_Bend_Energy-OPLS-2005>
154.044921875

> <r_mmod_Torsional_Energy-OPLS-2005>
300.993835449219

> <r_mmod_Improper_Torsional_Energy-OPLS-2005>
8.3820972442627

> <r_mmod_Van_der_Waal_Energy-OPLS-2005>
185.756195068359

> <r_mmod_Electrostatic_Energy-OPLS-2005>
-385.613983154297

> <r_mmod_Solvation_Energy-OPLS-2005>
-187.617065429688

> <b_mmod_Minimization_Converged-OPLS-2005>
0

> <r_mmod_RMS_Derivative-OPLS-2005>
8.92314052581787

$$$$
94
                    3D
 Structure written by MMmdl.
147155  0  0  1  0            999 V2000
  -30.4712  -15.1825   20.3763 C   0  0  0  0  0  0
  -30.4350  -12.7495   19.5200 C   0  0  0  0  0  0
  -29.5287  -12.5586   18.2796 C   0  0  0  0  0  0
  -28.0730  -12.3010   18.7065 C   0  0  0  0  0  0
  -27.6137  -13.2685   19.8263 C   0  0  2  0  0  0
  -28.6503  -13.4131   20.9609 C   0  0  0  0  0  0
  -25.2396  -13.8244   20.5742 C   0  0  0  0  0  0
  -24.1742  -13.0441   20.9253 C   0  0  0  0  0  0
  -24.6390  -11.6937   20.8767 C   0  0  0  0  0  0
  -23.9082  -10.4295   21.0415 C   0  0  0  0  0  0
  -24.3635   -9.4207   21.9185 C   0  0  0  0  0  0
  -23.6312   -8.2242   22.0750 C   0  0  0  0  0  0
  -22.4289   -8.0284   21.3549 C   0  0  0  0  0  0
  -21.9932   -9.0253   20.4645 C   0  0  0  0  0  0
  -22.7257  -10.2132   20.3054 C   0  0  0  0  0  0
  -21.6851   -6.0742   22.5281 C   0  0  0  0  0  0
  -21.4014   -6.5644   23.8214 C   0  0  0  0  0  0
  -21.3659   -5.6795   24.9175 C   0  0  0  0  0  0
  -21.6044   -4.3058   24.7225 C   0  0  0  0  0  0
  -21.8821   -3.8150   23.4345 C   0  0  0  0  0  0
  -21.9197   -4.6971   22.3401 C   0  0  0  0  0  0
  -22.7766  -13.5196   21.1915 C   0  0  0  0  0  0
  -22.1664   -4.2160   21.0982 F   0  0  0  0  0  0
  -21.5631   -3.4538   25.7735 F   0  0  0  0  0  0
  -29.8920  -13.8908   20.3369 N   0  0  0  0  0  0
  -26.2828  -12.9508   20.3235 N   0  0  0  0  0  0
  -25.9321  -11.6617   20.5734 N   0  0  0  0  0  0
  -22.0432  -12.8160   22.0466 N   0  0  0  0  0  0
  -25.4025  -15.1974   20.4170 N   0  0  0  0  0  0
  -31.6897  -15.1858   20.1543 O   0  0  0  0  0  0
  -21.6643   -6.8883   21.4243 O   0  0  0  0  0  0
  -22.3442  -14.5502   20.6768 O   0  0  0  0  0  0
  -24.6596  -31.8275   23.1761 C   0  0  0  0  0  0
  -25.9302  -32.4619   23.8205 C   0  0  1  0  0  0
  -27.2127  -26.9758   20.1673 C   0  0  0  0  0  0
  -25.5987  -33.8429   24.2110 N   0  0  0  0  0  0
  -23.4711  -30.4440   21.5233 C   0  0  2  0  0  0
  -24.9235  -28.8454   20.1072 C   0  0  0  0  0  0
  -22.7646  -29.4473   22.4784 C   0  0  0  0  0  0
  -18.0316  -28.1419   22.8488 C   0  0  0  0  0  0
  -24.1476  -36.7180   23.2647 C   0  0  0  0  0  0
  -26.0386  -30.6500   21.3994 C   0  0  0  0  0  0
  -26.1065  -29.2463   20.7408 C   0  0  0  0  0  0
  -27.2480  -28.3297   20.7514 C   0  0  0  0  0  0
  -26.0038  -26.7239   19.4809 C   0  0  0  0  0  0
  -24.8953  -27.6035   19.4580 C   0  0  0  0  0  0
  -23.7078  -29.7672   20.1460 C   0  0  0  0  0  0
  -25.4116  -36.2970   24.0306 C   0  0  1  0  0  0
  -20.5948  -28.3747   23.1190 C   0  0  2  0  0  0
  -20.6793  -26.9430   22.5405 C   0  0  0  0  0  0
  -19.5763  -26.6394   21.5215 C   0  0  0  0  0  0
  -18.1945  -26.7951   22.1630 C   0  0  0  0  0  0
  -19.1583  -28.8901   23.2832 C   0  0  0  0  0  0
  -18.9496  -30.1490   23.8870 C   0  0  0  0  0  0
  -17.6495  -30.6616   24.0555 C   0  0  0  0  0  0
  -25.9096  -34.9362   23.5021 C   0  0  0  0  0  0
  -16.5377  -29.9108   23.6359 C   0  0  0  0  0  0
  -16.7303  -28.6521   23.0391 C   0  0  0  0  0  0
  -26.4564  -31.6554   25.0713 C   0  0  0  0  0  0
  -25.3725  -31.3810   26.1390 C   0  0  0  0  0  0
  -27.0447  -30.2924   24.6428 C   0  0  0  0  0  0
  -27.6053  -32.4362   25.7521 C   0  0  0  0  0  0
  -27.5545  -37.1747   24.8479 C   0  0  0  0  0  0
  -21.4316  -29.3041   22.3530 N   0  0  0  0  0  0
  -26.4255  -37.3710   23.9427 N   0  0  0  0  0  0
  -24.7439  -30.9993   22.0867 N   0  0  0  0  0  0
  -23.4210  -28.8039   23.3010 O   0  0  0  0  0  0
  -28.1997  -25.8710   20.2548 O   0  0  0  0  0  0
  -26.5683  -34.8896   22.4605 O   0  0  0  0  0  0
  -23.5680  -32.1207   23.6897 O   0  0  0  0  0  0
  -29.9068  -20.6623   19.3716 C   0  0  0  0  0  0
  -28.5020  -20.2729   21.1432 C   0  0  0  0  0  0
  -29.4465  -19.6053   20.2624 C   0  0  0  0  0  0
  -28.5583  -22.7556   20.2016 C   0  0  0  0  0  0
  -29.5066  -22.0891   19.3247 C   0  0  0  0  0  0
  -28.0871  -21.7044   21.1109 C   0  0  0  0  0  0
  -30.1686  -18.0255   20.3061 C   0  0  0  0  0  0
  -27.8276  -24.3156   19.9626 C   0  0  0  0  0  0
  -29.7279  -16.4493   20.4557 N   0  0  0  0  0  0
  -30.2181  -23.0409   18.0716 Cl  0  0  0  0  0  0
  -26.8878  -22.1557   22.2709 Cl  0  0  0  0  0  0
  -31.4578  -12.9387   19.1919 H   0  0  0  0  0  0
  -30.4808  -11.8345   20.1122 H   0  0  0  0  0  0
  -29.8922  -11.7330   17.6656 H   0  0  0  0  0  0
  -29.5759  -13.4500   17.6534 H   0  0  0  0  0  0
  -28.0147  -11.2725   19.0670 H   0  0  0  0  0  0
  -27.4059  -12.3637   17.8473 H   0  0  0  0  0  0
  -27.5386  -14.2428   19.3426 H   0  0  0  0  0  0
  -28.7975  -12.4715   21.4913 H   0  0  0  0  0  0
  -28.3046  -14.1380   21.7004 H   0  0  0  0  0  0
  -25.2777   -9.5686   22.4767 H   0  0  0  0  0  0
  -24.0022   -7.4627   22.7465 H   0  0  0  0  0  0
  -21.0865   -8.8777   19.8943 H   0  0  0  0  0  0
  -22.3719  -10.9677   19.6170 H   0  0  0  0  0  0
  -21.1994   -7.6155   23.9721 H   0  0  0  0  0  0
  -21.1481   -6.0523   25.9082 H   0  0  0  0  0  0
  -22.0599   -2.7615   23.2836 H   0  0  0  0  0  0
  -22.4072  -11.9815   22.4823 H   0  0  0  0  0  0
  -21.1048  -13.1162   22.2701 H   0  0  0  0  0  0
  -24.6280  -15.8448   20.5204 H   0  0  0  0  0  0
  -26.2433  -15.6410   20.0719 H   0  0  0  0  0  0
  -26.7372  -32.5171   23.0919 H   0  0  0  0  0  0
  -25.0138  -33.9531   25.0260 H   0  0  0  0  0  0
  -22.7820  -31.2744   21.3594 H   0  0  0  0  0  0
  -23.3757  -35.9499   23.3322 H   0  0  0  0  0  0
  -24.3544  -36.8811   22.2061 H   0  0  0  0  0  0
  -23.7226  -37.6374   23.6683 H   0  0  0  0  0  0
  -26.2167  -31.3965   20.6247 H   0  0  0  0  0  0
  -26.8984  -30.7017   22.0554 H   0  0  0  0  0  0
  -28.1406  -28.6304   21.2800 H   0  0  0  0  0  0
  -25.8668  -25.7789   18.9758 H   0  0  0  0  0  0
  -23.9987  -27.2911   18.9401 H   0  0  0  0  0  0
  -23.8615  -30.5392   19.3909 H   0  0  0  0  0  0
  -22.8177  -29.2226   19.8290 H   0  0  0  0  0  0
  -25.1320  -36.1746   25.0796 H   0  0  0  0  0  0
  -21.0051  -28.3355   24.1309 H   0  0  0  0  0  0
  -20.5662  -26.2374   23.3644 H   0  0  0  0  0  0
  -21.6651  -26.7420   22.1196 H   0  0  0  0  0  0
  -19.6914  -25.6296   21.1267 H   0  0  0  0  0  0
  -19.6689  -27.3181   20.6729 H   0  0  0  0  0  0
  -17.4205  -26.6701   21.4045 H   0  0  0  0  0  0
  -18.0337  -26.0101   22.9046 H   0  0  0  0  0  0
  -19.7971  -30.7313   24.2218 H   0  0  0  0  0  0
  -17.5054  -31.6294   24.5157 H   0  0  0  0  0  0
  -15.5377  -30.3002   23.7707 H   0  0  0  0  0  0
  -15.8699  -28.0826   22.7148 H   0  0  0  0  0  0
  -24.5895  -30.7155   25.7724 H   0  0  0  0  0  0
  -24.8920  -32.3019   26.4704 H   0  0  0  0  0  0
  -25.7974  -30.9063   27.0240 H   0  0  0  0  0  0
  -26.3107  -29.6620   24.1390 H   0  0  0  0  0  0
  -27.3940  -29.7269   25.5078 H   0  0  0  0  0  0
  -27.9074  -30.4119   23.9871 H   0  0  0  0  0  0
  -27.2616  -33.3707   26.1969 H   0  0  0  0  0  0
  -28.3935  -32.6847   25.0403 H   0  0  0  0  0  0
  -28.0634  -31.8572   26.5555 H   0  0  0  0  0  0
  -28.2567  -38.0035   24.7501 H   0  0  0  0  0  0
  -28.1030  -36.2564   24.6326 H   0  0  0  0  0  0
  -27.2269  -37.1422   25.8885 H   0  0  0  0  0  0
  -20.9547  -29.8742   21.6685 H   0  0  0  0  0  0
  -26.0092  -38.2760   24.1463 H   0  0  0  0  0  0
  -30.6520  -20.3677   18.6462 H   0  0  0  0  0  0
  -28.0601  -19.6602   21.9164 H   0  0  0  0  0  0
  -30.9296  -18.1356   21.0814 H   0  0  0  0  0  0
  -30.7474  -18.0055   19.3833 H   0  0  0  0  0  0
  -26.8341  -24.1988   20.3911 H   0  0  0  0  0  0
  -27.6454  -24.3133   18.8874 H   0  0  0  0  0  0
  -28.7370  -16.3195   20.5979 H   0  0  0  0  0  0
  1 25  1  0  0  0
  1 30  2  0  0  0
  1 79  1  0  0  0
  2  3  1  0  0  0
  2 25  1  0  0  0
  2 82  1  0  0  0
  2 83  1  0  0  0
  3  4  1  0  0  0
  3 84  1  0  0  0
  3 85  1  0  0  0
  4  5  1  0  0  0
  4 86  1  0  0  0
  4 87  1  0  0  0
  5  6  1  0  0  0
  5 26  1  0  0  0
  5 88  1  0  0  0
  6 25  1  0  0  0
  6 89  1  0  0  0
  6 90  1  0  0  0
  7  8  2  0  0  0
  7 26  1  0  0  0
  7 29  1  0  0  0
  8  9  1  0  0  0
  8 22  1  0  0  0
  9 10  1  0  0  0
  9 27  2  0  0  0
 10 11  2  0  0  0
 10 15  1  0  0  0
 11 12  1  0  0  0
 11 91  1  0  0  0
 12 13  2  0  0  0
 12 92  1  0  0  0
 13 14  1  0  0  0
 13 31  1  0  0  0
 14 15  2  0  0  0
 14 93  1  0  0  0
 15 94  1  0  0  0
 16 17  2  0  0  0
 16 21  1  0  0  0
 16 31  1  0  0  0
 17 18  1  0  0  0
 17 95  1  0  0  0
 18 19  2  0  0  0
 18 96  1  0  0  0
 19 20  1  0  0  0
 19 24  1  0  0  0
 20 21  2  0  0  0
 20 97  1  0  0  0
 21 23  1  0  0  0
 22 28  1  0  0  0
 22 32  2  0  0  0
 26 27  1  0  0  0
 28 98  1  0  0  0
 28 99  1  0  0  0
 29100  1  0  0  0
 29101  1  0  0  0
 33 34  1  0  0  0
 33 66  1  0  0  0
 33 70  2  0  0  0
 34 36  1  0  0  0
 34 59  1  0  0  0
 34102  1  0  0  0
 35 44  2  0  0  0
 35 45  1  0  0  0
 35 68  1  0  0  0
 36 56  1  0  0  0
 36103  1  0  0  0
 37 39  1  0  0  0
 37 47  1  0  0  0
 37 66  1  0  0  0
 37104  1  0  0  0
 38 43  2  0  0  0
 38 46  1  0  0  0
 38 47  1  0  0  0
 39 64  1  0  0  0
 39 67  2  0  0  0
 40 52  1  0  0  0
 40 53  2  0  0  0
 40 58  1  0  0  0
 41105  1  0  0  0
 41106  1  0  0  0
 41107  1  0  0  0
 41 48  1  0  0  0
 42 43  1  0  0  0
 42 66  1  0  0  0
 42108  1  0  0  0
 42109  1  0  0  0
 43 44  1  0  0  0
 44110  1  0  0  0
 45 46  2  0  0  0
 45111  1  0  0  0
 46112  1  0  0  0
 47113  1  0  0  0
 47114  1  0  0  0
 48 56  1  0  0  0
 48 65  1  0  0  0
 48115  1  0  0  0
 49 50  1  0  0  0
 49 53  1  0  0  0
 49 64  1  0  0  0
 49116  1  0  0  0
 50 51  1  0  0  0
 50117  1  0  0  0
 50118  1  0  0  0
 51 52  1  0  0  0
 51119  1  0  0  0
 51120  1  0  0  0
 52121  1  0  0  0
 52122  1  0  0  0
 53 54  1  0  0  0
 54 55  2  0  0  0
 54123  1  0  0  0
 55 57  1  0  0  0
 55124  1  0  0  0
 56 69  2  0  0  0
 57 58  2  0  0  0
 57125  1  0  0  0
 58126  1  0  0  0
 59 60  1  0  0  0
 59 61  1  0  0  0
 59 62  1  0  0  0
 60127  1  0  0  0
 60128  1  0  0  0
 60129  1  0  0  0
 61130  1  0  0  0
 61131  1  0  0  0
 61132  1  0  0  0
 62133  1  0  0  0
 62134  1  0  0  0
 62135  1  0  0  0
 63 65  1  0  0  0
 63136  1  0  0  0
 63137  1  0  0  0
 63138  1  0  0  0
 64139  1  0  0  0
 65140  1  0  0  0
 68 78  1  0  0  0
 71 73  2  0  0  0
 71 75  1  0  0  0
 71141  1  0  0  0
 72 73  1  0  0  0
 72 76  2  0  0  0
 72142  1  0  0  0
 73 77  1  0  0  0
 74 75  2  0  0  0
 74 76  1  0  0  0
 74 78  1  0  0  0
 75 80  1  0  0  0
 76 81  1  0  0  0
 77 79  1  0  0  0
 77143  1  0  0  0
 77144  1  0  0  0
 78145  1  0  0  0
 78146  1  0  0  0
 79147  1  0  0  0
M  ISO  4   1 100  68 101  78 101  79 100
M  END
> <chiral flag>
0

> <version>
0

> <s_m_source_file>
/data/baiqing/PycharmProjects/Reinvent-master-3.2/result/LINK_invent/BTK/process_docking_weight1_custom_sum_contain_oxygen_bond_distance_aromatic_linkinvent_7_9_3/rearranged_h_0028.sdf

> <i_m_source_file_index>
95

> <r_mmod_Potential_Energy-OPLS-2005>
1008.28540039062

> <r_mmod_Stretch_Energy-OPLS-2005>
446.37158203125

> <r_mmod_Bend_Energy-OPLS-2005>
416.642395019531

> <r_mmod_Torsional_Energy-OPLS-2005>
221.504730224609

> <r_mmod_Improper_Torsional_Energy-OPLS-2005>
8.73704242706299

> <r_mmod_Van_der_Waal_Energy-OPLS-2005>
130.715972900391

> <r_mmod_Electrostatic_Energy-OPLS-2005>
-384.324951171875

> <r_mmod_Solvation_Energy-OPLS-2005>
-217.722839355469

> <b_mmod_Minimization_Converged-OPLS-2005>
0

> <r_mmod_RMS_Derivative-OPLS-2005>
2.00076150894165

$$$$
95
                    3D
 Structure written by MMmdl.
170178  0  0  1  0            999 V2000
  -30.6492  -14.4845   20.5060 C   0  0  0  0  0  0
  -30.4228  -12.3003   19.4383 C   0  0  0  0  0  0
  -29.4985  -12.4975   18.2187 C   0  0  0  0  0  0
  -28.0146  -12.3673   18.6197 C   0  0  0  0  0  0
  -27.6517  -13.1840   19.8859 C   0  0  2  0  0  0
  -28.6941  -12.9813   21.0067 C   0  0  0  0  0  0
  -25.2539  -13.7972   20.5706 C   0  0  0  0  0  0
  -24.1752  -13.0322   20.9102 C   0  0  0  0  0  0
  -24.6272  -11.6767   20.8723 C   0  0  0  0  0  0
  -23.8935  -10.4203   21.0405 C   0  0  0  0  0  0
  -24.3523   -9.4126   21.9176 C   0  0  0  0  0  0
  -23.6251   -8.2138   22.0731 C   0  0  0  0  0  0
  -22.4225   -8.0171   21.3521 C   0  0  0  0  0  0
  -21.9834   -9.0124   20.4598 C   0  0  0  0  0  0
  -22.7115  -10.2028   20.3050 C   0  0  0  0  0  0
  -21.6808   -6.0653   22.5284 C   0  0  0  0  0  0
  -21.3971   -6.5572   23.8213 C   0  0  0  0  0  0
  -21.3683   -5.6753   24.9197 C   0  0  0  0  0  0
  -21.6058   -4.3017   24.7263 C   0  0  0  0  0  0
  -21.8816   -3.8087   23.4389 C   0  0  0  0  0  0
  -21.9171   -4.6885   22.3429 C   0  0  0  0  0  0
  -22.7783  -13.5167   21.1786 C   0  0  0  0  0  0
  -22.1650   -4.2053   21.1015 F   0  0  0  0  0  0
  -21.5659   -3.4522   25.7790 F   0  0  0  0  0  0
  -30.0177  -13.2853   20.4469 N   0  0  0  0  0  0
  -26.2937  -12.9111   20.3437 N   0  0  0  0  0  0
  -25.9192  -11.6292   20.5782 N   0  0  0  0  0  0
  -22.0441  -12.8301   22.0473 N   0  0  0  0  0  0
  -25.4418  -15.1653   20.4117 N   0  0  0  0  0  0
  -31.8191  -14.6551   20.1632 O   0  0  0  0  0  0
  -21.6605   -6.8756   21.4227 O   0  0  0  0  0  0
  -22.3519  -14.5482   20.6559 O   0  0  0  0  0  0
  -24.6075  -31.8790   23.2188 C   0  0  0  0  0  0
  -25.9018  -32.4845   23.8394 C   0  0  1  0  0  0
  -27.2230  -27.4724   20.0718 C   0  0  0  0  0  0
  -25.5967  -33.8640   24.2300 N   0  0  0  0  0  0
  -23.3844  -30.4954   21.5775 C   0  0  2  0  0  0
  -24.8171  -28.9725   20.1297 C   0  0  0  0  0  0
  -22.7374  -29.4675   22.5258 C   0  0  0  0  0  0
  -18.0287  -28.1477   22.8711 C   0  0  0  0  0  0
  -24.1527  -36.7306   23.2636 C   0  0  0  0  0  0
  -25.9105  -30.8499   21.3628 C   0  0  0  0  0  0
  -25.9851  -29.4897   20.7071 C   0  0  0  0  0  0
  -27.1859  -28.7466   20.6751 C   0  0  0  0  0  0
  -26.0309  -26.9752   19.4831 C   0  0  0  0  0  0
  -24.8334  -27.7068   19.5329 C   0  0  0  0  0  0
  -23.5806  -29.8364   20.1910 C   0  0  0  0  0  0
  -25.4142  -36.3117   24.0327 C   0  0  1  0  0  0
  -20.5894  -28.3633   23.1639 C   0  0  2  0  0  0
  -20.6843  -26.9474   22.5554 C   0  0  0  0  0  0
  -19.5877  -26.6988   21.5168 C   0  0  0  0  0  0
  -18.2033  -26.8147   22.1671 C   0  0  0  0  0  0
  -19.1541  -28.8881   23.3171 C   0  0  0  0  0  0
  -18.9455  -30.1558   23.9106 C   0  0  0  0  0  0
  -17.6485  -30.6810   24.0512 C   0  0  0  0  0  0
  -25.9046  -34.9491   23.5095 C   0  0  0  0  0  0
  -16.5345  -29.9222   23.6406 C   0  0  0  0  0  0
  -16.7256  -28.6535   23.0645 C   0  0  0  0  0  0
  -26.4489  -31.6574   25.0657 C   0  0  0  0  0  0
  -25.3692  -31.3701   26.1331 C   0  0  0  0  0  0
  -27.0347  -30.3049   24.6010 C   0  0  0  0  0  0
  -27.6098  -32.4248   25.7410 C   0  0  0  0  0  0
  -27.5598  -37.1811   24.8458 C   0  0  0  0  0  0
  -21.4105  -29.3044   22.4069 N   0  0  0  0  0  0
  -26.4333  -37.3785   23.9394 N   0  0  0  0  0  0
  -24.6533  -31.0899   22.1103 N   0  0  0  0  0  0
  -23.4254  -28.8261   23.3221 O   0  0  0  0  0  0
  -28.4379  -26.8275   19.9701 O   0  0  0  0  0  0
  -26.5620  -34.8950   22.4655 O   0  0  0  0  0  0
  -23.5304  -32.1601   23.7615 O   0  0  0  0  0  0
  -30.5578  -17.8256   22.9626 C   0  0  0  0  0  0
  -29.2775  -16.2227   21.6746 C   0  0  0  0  0  0
  -30.1757  -16.4830   22.7336 C   0  0  0  0  0  0
  -28.4685  -17.3251   21.3215 C   0  0  0  0  0  0
  -30.0825  -18.7916   22.0475 C   0  0  0  0  0  0
  -31.4677  -18.2010   24.1232 C   0  0  0  0  0  0
  -27.1617  -17.5232   22.1169 C   0  0  0  0  0  0
  -25.9704  -18.2584   21.4430 C   0  0  0  0  0  0
  -26.2554  -19.6652   20.9143 C   0  0  0  0  0  0
  -26.3502  -19.7224   19.3740 C   0  0  0  0  0  0
  -27.3402  -20.7943   18.9079 C   0  0  0  0  0  0
  -26.9357  -22.2023   19.3453 C   0  0  0  0  0  0
  -28.0957  -23.0227   19.9388 C   0  0  0  0  0  0
  -27.6991  -24.4906   19.8549 C   0  0  0  0  0  0
  -28.6035  -25.5241   20.5289 C   0  0  0  0  0  0
  -29.1014  -18.5040   21.1707 N   0  0  0  0  0  0
  -29.8437  -15.5631   20.5458 N   0  0  0  0  0  0
  -30.8776  -15.1915   23.6491 Cl  0  0  0  0  0  0
  -30.6653  -20.4176   22.0648 Cl  0  0  0  0  0  0
  -31.4676  -12.4079   19.1468 H   0  0  0  0  0  0
  -30.3310  -11.2906   19.8433 H   0  0  0  0  0  0
  -29.7485  -11.7819   17.4336 H   0  0  0  0  0  0
  -29.6729  -13.4848   17.7956 H   0  0  0  0  0  0
  -27.7962  -11.3097   18.7828 H   0  0  0  0  0  0
  -27.3846  -12.6863   17.7899 H   0  0  0  0  0  0
  -27.6744  -14.2311   19.5886 H   0  0  0  0  0  0
  -28.6773  -11.9505   21.3599 H   0  0  0  0  0  0
  -28.4701  -13.6134   21.8711 H   0  0  0  0  0  0
  -25.2611   -9.5620   22.4832 H   0  0  0  0  0  0
  -23.9890   -7.4524   22.7479 H   0  0  0  0  0  0
  -21.0751   -8.8624   19.8948 H   0  0  0  0  0  0
  -22.3499  -10.9587   19.6229 H   0  0  0  0  0  0
  -21.1944   -7.6074   23.9694 H   0  0  0  0  0  0
  -21.1528   -6.0489   25.9097 H   0  0  0  0  0  0
  -22.0599   -2.7547   23.2940 H   0  0  0  0  0  0
  -22.3902  -11.9854   22.4802 H   0  0  0  0  0  0
  -21.1121  -13.1430   22.2776 H   0  0  0  0  0  0
  -24.6774  -15.8303   20.4536 H   0  0  0  0  0  0
  -26.3304  -15.5907   20.1834 H   0  0  0  0  0  0
  -26.7018  -32.5586   23.1101 H   0  0  0  0  0  0
  -25.0045  -33.9807   25.0397 H   0  0  0  0  0  0
  -22.6634  -31.3041   21.4576 H   0  0  0  0  0  0
  -23.3781  -35.9648   23.3329 H   0  0  0  0  0  0
  -24.3547  -36.8903   22.2033 H   0  0  0  0  0  0
  -23.7307  -37.6545   23.6603 H   0  0  0  0  0  0
  -26.0120  -31.6186   20.5993 H   0  0  0  0  0  0
  -26.7979  -30.9036   21.9742 H   0  0  0  0  0  0
  -28.1008  -29.1640   21.0756 H   0  0  0  0  0  0
  -25.9827  -26.0534   18.9310 H   0  0  0  0  0  0
  -23.9306  -27.3031   19.0850 H   0  0  0  0  0  0
  -23.6866  -30.6219   19.4468 H   0  0  0  0  0  0
  -22.6995  -29.2691   19.8881 H   0  0  0  0  0  0
  -25.1333  -36.1993   25.0824 H   0  0  0  0  0  0
  -21.0008  -28.3224   24.1783 H   0  0  0  0  0  0
  -20.5960  -26.2083   23.3506 H   0  0  0  0  0  0
  -21.6805  -26.7823   22.1410 H   0  0  0  0  0  0
  -19.7169  -25.7320   21.0268 H   0  0  0  0  0  0
  -19.6749  -27.4581   20.7341 H   0  0  0  0  0  0
  -17.4281  -26.7073   21.4080 H   0  0  0  0  0  0
  -18.0435  -26.0152   22.8923 H   0  0  0  0  0  0
  -19.7854  -30.7473   24.2594 H   0  0  0  0  0  0
  -17.4980  -31.6532   24.4983 H   0  0  0  0  0  0
  -15.5378  -30.3204   23.7666 H   0  0  0  0  0  0
  -15.8649  -28.0769   22.7526 H   0  0  0  0  0  0
  -24.5867  -30.7112   25.7562 H   0  0  0  0  0  0
  -24.8868  -32.2887   26.4695 H   0  0  0  0  0  0
  -25.7930  -30.8839   27.0110 H   0  0  0  0  0  0
  -26.2931  -29.6776   24.1066 H   0  0  0  0  0  0
  -27.4195  -29.7319   25.4451 H   0  0  0  0  0  0
  -27.8698  -30.4424   23.9123 H   0  0  0  0  0  0
  -27.2787  -33.3539   26.2051 H   0  0  0  0  0  0
  -28.3881  -32.6812   25.0201 H   0  0  0  0  0  0
  -28.0772  -31.8279   26.5260 H   0  0  0  0  0  0
  -28.2641  -38.0089   24.7495 H   0  0  0  0  0  0
  -28.1101  -36.2632   24.6326 H   0  0  0  0  0  0
  -27.2269  -37.1471   25.8848 H   0  0  0  0  0  0
  -20.9259  -29.8615   21.7207 H   0  0  0  0  0  0
  -26.0245  -38.2893   24.1346 H   0  0  0  0  0  0
  -32.2544  -17.4623   24.2462 H   0  0  0  0  0  0
  -30.8868  -18.2255   25.0496 H   0  0  0  0  0  0
  -31.9603  -19.1626   23.9903 H   0  0  0  0  0  0
  -27.3948  -18.0784   23.0278 H   0  0  0  0  0  0
  -26.8130  -16.5481   22.4580 H   0  0  0  0  0  0
  -25.1798  -18.3411   22.1906 H   0  0  0  0  0  0
  -25.5438  -17.6812   20.6305 H   0  0  0  0  0  0
  -27.1608  -20.0522   21.3713 H   0  0  0  0  0  0
  -25.4764  -20.3387   21.2674 H   0  0  0  0  0  0
  -25.3561  -19.8741   18.9384 H   0  0  0  0  0  0
  -26.7087  -18.7628   18.9952 H   0  0  0  0  0  0
  -27.4359  -20.7661   17.8203 H   0  0  0  0  0  0
  -28.3304  -20.5402   19.2859 H   0  0  0  0  0  0
  -26.1303  -22.1805   20.0828 H   0  0  0  0  0  0
  -26.4973  -22.7073   18.4824 H   0  0  0  0  0  0
  -29.0201  -22.8461   19.3868 H   0  0  0  0  0  0
  -28.2884  -22.7191   20.9684 H   0  0  0  0  0  0
  -26.7134  -24.5771   20.3071 H   0  0  0  0  0  0
  -27.6222  -24.7349   18.7940 H   0  0  0  0  0  0
  -29.6496  -25.2540   20.3783 H   0  0  0  0  0  0
  -28.4451  -25.5672   21.6091 H   0  0  0  0  0  0
  -30.2056  -16.2549   19.9030 H   0  0  0  0  0  0
  1 25  1  0  0  0
  1 30  2  0  0  0
  1 87  1  0  0  0
  2  3  1  0  0  0
  2 25  1  0  0  0
  2 90  1  0  0  0
  2 91  1  0  0  0
  3  4  1  0  0  0
  3 92  1  0  0  0
  3 93  1  0  0  0
  4  5  1  0  0  0
  4 94  1  0  0  0
  4 95  1  0  0  0
  5  6  1  0  0  0
  5 26  1  0  0  0
  5 96  1  0  0  0
  6 25  1  0  0  0
  6 97  1  0  0  0
  6 98  1  0  0  0
  7  8  2  0  0  0
  7 26  1  0  0  0
  7 29  1  0  0  0
  8  9  1  0  0  0
  8 22  1  0  0  0
  9 10  1  0  0  0
  9 27  2  0  0  0
 10 11  2  0  0  0
 10 15  1  0  0  0
 11 12  1  0  0  0
 11 99  1  0  0  0
 12 13  2  0  0  0
 12100  1  0  0  0
 13 14  1  0  0  0
 13 31  1  0  0  0
 14 15  2  0  0  0
 14101  1  0  0  0
 15102  1  0  0  0
 16 17  2  0  0  0
 16 21  1  0  0  0
 16 31  1  0  0  0
 17 18  1  0  0  0
 17103  1  0  0  0
 18 19  2  0  0  0
 18104  1  0  0  0
 19 20  1  0  0  0
 19 24  1  0  0  0
 20 21  2  0  0  0
 20105  1  0  0  0
 21 23  1  0  0  0
 22 28  1  0  0  0
 22 32  2  0  0  0
 26 27  1  0  0  0
 28106  1  0  0  0
 28107  1  0  0  0
 29108  1  0  0  0
 29109  1  0  0  0
 33 34  1  0  0  0
 33 66  1  0  0  0
 33 70  2  0  0  0
 34 36  1  0  0  0
 34 59  1  0  0  0
 34110  1  0  0  0
 35 44  2  0  0  0
 35 45  1  0  0  0
 35 68  1  0  0  0
 36 56  1  0  0  0
 36111  1  0  0  0
 37 39  1  0  0  0
 37 47  1  0  0  0
 37 66  1  0  0  0
 37112  1  0  0  0
 38 43  2  0  0  0
 38 46  1  0  0  0
 38 47  1  0  0  0
 39 64  1  0  0  0
 39 67  2  0  0  0
 40 52  1  0  0  0
 40 53  2  0  0  0
 40 58  1  0  0  0
 41113  1  0  0  0
 41114  1  0  0  0
 41115  1  0  0  0
 41 48  1  0  0  0
 42 43  1  0  0  0
 42 66  1  0  0  0
 42116  1  0  0  0
 42117  1  0  0  0
 43 44  1  0  0  0
 44118  1  0  0  0
 45 46  2  0  0  0
 45119  1  0  0  0
 46120  1  0  0  0
 47121  1  0  0  0
 47122  1  0  0  0
 48 56  1  0  0  0
 48 65  1  0  0  0
 48123  1  0  0  0
 49 50  1  0  0  0
 49 53  1  0  0  0
 49 64  1  0  0  0
 49124  1  0  0  0
 50 51  1  0  0  0
 50125  1  0  0  0
 50126  1  0  0  0
 51 52  1  0  0  0
 51127  1  0  0  0
 51128  1  0  0  0
 52129  1  0  0  0
 52130  1  0  0  0
 53 54  1  0  0  0
 54 55  2  0  0  0
 54131  1  0  0  0
 55 57  1  0  0  0
 55132  1  0  0  0
 56 69  2  0  0  0
 57 58  2  0  0  0
 57133  1  0  0  0
 58134  1  0  0  0
 59 60  1  0  0  0
 59 61  1  0  0  0
 59 62  1  0  0  0
 60135  1  0  0  0
 60136  1  0  0  0
 60137  1  0  0  0
 61138  1  0  0  0
 61139  1  0  0  0
 61140  1  0  0  0
 62141  1  0  0  0
 62142  1  0  0  0
 62143  1  0  0  0
 63 65  1  0  0  0
 63144  1  0  0  0
 63145  1  0  0  0
 63146  1  0  0  0
 64147  1  0  0  0
 65148  1  0  0  0
 68 85  1  0  0  0
 71 73  2  0  0  0
 71 75  1  0  0  0
 71 76  1  0  0  0
 72 73  1  0  0  0
 72 74  2  0  0  0
 72 87  1  0  0  0
 73 88  1  0  0  0
 74 77  1  0  0  0
 74 86  1  0  0  0
 75 86  2  0  0  0
 75 89  1  0  0  0
 76149  1  0  0  0
 76150  1  0  0  0
 76151  1  0  0  0
 77 78  1  0  0  0
 77152  1  0  0  0
 77153  1  0  0  0
 78 79  1  0  0  0
 78154  1  0  0  0
 78155  1  0  0  0
 79 80  1  0  0  0
 79156  1  0  0  0
 79157  1  0  0  0
 80 81  1  0  0  0
 80158  1  0  0  0
 80159  1  0  0  0
 81 82  1  0  0  0
 81160  1  0  0  0
 81161  1  0  0  0
 82 83  1  0  0  0
 82162  1  0  0  0
 82163  1  0  0  0
 83 84  1  0  0  0
 83164  1  0  0  0
 83165  1  0  0  0
 84 85  1  0  0  0
 84166  1  0  0  0
 84167  1  0  0  0
 85168  1  0  0  0
 85169  1  0  0  0
 87170  1  0  0  0
M  ISO  4   1 100  68 101  85 101  87 100
M  END
> <chiral flag>
0

> <version>
0

> <s_m_source_file>
/data/baiqing/PycharmProjects/Reinvent-master-3.2/result/LINK_invent/BTK/process_docking_weight1_custom_sum_contain_oxygen_bond_distance_aromatic_linkinvent_7_9_3/rearranged_h_0028.sdf

> <i_m_source_file_index>
96

> <r_mmod_Potential_Energy-OPLS-2005>
115.330085754395

> <r_mmod_Stretch_Energy-OPLS-2005>
33.0866317749023

> <r_mmod_Bend_Energy-OPLS-2005>
144.725036621094

> <r_mmod_Torsional_Energy-OPLS-2005>
504.807098388672

> <r_mmod_Improper_Torsional_Energy-OPLS-2005>
50.235668182373

> <r_mmod_Van_der_Waal_Energy-OPLS-2005>
172.84098815918

> <r_mmod_Electrostatic_Energy-OPLS-2005>
-628.333984375

> <r_mmod_Solvation_Energy-OPLS-2005>
-180.873626708984

> <b_mmod_Minimization_Converged-OPLS-2005>
0

> <r_mmod_RMS_Derivative-OPLS-2005>
10.0491876602173

$$$$
96
                    3D
 Structure written by MMmdl.
161169  0  0  1  0            999 V2000
  -30.6959  -14.4933   20.5758 C   0  0  0  0  0  0
  -30.4245  -12.3239   19.4238 C   0  0  0  0  0  0
  -29.4950  -12.5124   18.2070 C   0  0  0  0  0  0
  -28.0157  -12.3721   18.6188 C   0  0  0  0  0  0
  -27.6600  -13.2121   19.8758 C   0  0  2  0  0  0
  -28.7032  -12.9979   20.9955 C   0  0  0  0  0  0
  -25.2536  -13.8148   20.5602 C   0  0  0  0  0  0
  -24.1816  -13.0423   20.9156 C   0  0  0  0  0  0
  -24.6395  -11.6901   20.8744 C   0  0  0  0  0  0
  -23.9064  -10.4286   21.0411 C   0  0  0  0  0  0
  -24.3616   -9.4201   21.9187 C   0  0  0  0  0  0
  -23.6292   -8.2238   22.0753 C   0  0  0  0  0  0
  -22.4275   -8.0279   21.3543 C   0  0  0  0  0  0
  -21.9911   -9.0251   20.4645 C   0  0  0  0  0  0
  -22.7238  -10.2129   20.3057 C   0  0  0  0  0  0
  -21.6850   -6.0735   22.5279 C   0  0  0  0  0  0
  -21.4014   -6.5638   23.8213 C   0  0  0  0  0  0
  -21.3659   -5.6791   24.9175 C   0  0  0  0  0  0
  -21.6045   -4.3055   24.7225 C   0  0  0  0  0  0
  -21.8819   -3.8146   23.4346 C   0  0  0  0  0  0
  -21.9194   -4.6963   22.3403 C   0  0  0  0  0  0
  -22.7845  -13.5225   21.1834 C   0  0  0  0  0  0
  -22.1663   -4.2149   21.0981 F   0  0  0  0  0  0
  -21.5629   -3.4538   25.7737 F   0  0  0  0  0  0
  -30.0314  -13.3116   20.4418 N   0  0  0  0  0  0
  -26.3015  -12.9347   20.3380 N   0  0  0  0  0  0
  -25.9332  -11.6499   20.5798 N   0  0  0  0  0  0
  -22.0500  -12.8218   22.0404 N   0  0  0  0  0  0
  -25.4158  -15.1842   20.3844 N   0  0  0  0  0  0
  -31.8213  -14.6825   20.1073 O   0  0  0  0  0  0
  -21.6639   -6.8877   21.4239 O   0  0  0  0  0  0
  -22.3516  -14.5530   20.6694 O   0  0  0  0  0  0
  -24.6170  -31.8671   23.2087 C   0  0  0  0  0  0
  -25.9061  -32.4818   23.8380 C   0  0  1  0  0  0
  -27.2298  -27.4115   20.0960 C   0  0  0  0  0  0
  -25.5916  -33.8615   24.2314 N   0  0  0  0  0  0
  -23.4052  -30.4917   21.5507 C   0  0  2  0  0  0
  -24.8497  -28.9561   20.1171 C   0  0  0  0  0  0
  -22.7428  -29.4656   22.4988 C   0  0  0  0  0  0
  -18.0278  -28.1378   22.8487 C   0  0  0  0  0  0
  -24.1492  -36.7303   23.2636 C   0  0  0  0  0  0
  -25.9376  -30.8264   21.3652 C   0  0  0  0  0  0
  -26.0147  -29.4604   20.7094 C   0  0  0  0  0  0
  -27.2096  -28.6984   20.6902 C   0  0  0  0  0  0
  -26.0407  -26.9295   19.5000 C   0  0  0  0  0  0
  -24.8590  -27.6910   19.5085 C   0  0  0  0  0  0
  -23.6147  -29.8273   20.1649 C   0  0  0  0  0  0
  -25.4113  -36.3103   24.0335 C   0  0  1  0  0  0
  -20.5870  -28.3670   23.1308 C   0  0  2  0  0  0
  -20.6774  -26.9407   22.5412 C   0  0  0  0  0  0
  -19.5749  -26.6388   21.5212 C   0  0  0  0  0  0
  -18.1925  -26.7923   22.1621 C   0  0  0  0  0  0
  -19.1526  -28.8839   23.2893 C   0  0  0  0  0  0
  -18.9460  -30.1447   23.8904 C   0  0  0  0  0  0
  -17.6462  -30.6585   24.0568 C   0  0  0  0  0  0
  -25.9045  -34.9474   23.5118 C   0  0  0  0  0  0
  -16.5351  -29.9088   23.6332 C   0  0  0  0  0  0
  -16.7267  -28.6508   23.0343 C   0  0  0  0  0  0
  -26.4477  -31.6601   25.0719 C   0  0  0  0  0  0
  -25.3733  -31.3723   26.1468 C   0  0  0  0  0  0
  -27.0304  -30.3037   24.6105 C   0  0  0  0  0  0
  -27.6053  -32.4320   25.7478 C   0  0  0  0  0  0
  -27.5580  -37.1804   24.8465 C   0  0  0  0  0  0
  -21.4154  -29.3037   22.3724 N   0  0  0  0  0  0
  -26.4294  -37.3789   23.9414 N   0  0  0  0  0  0
  -24.6715  -31.0760   22.0996 N   0  0  0  0  0  0
  -23.4194  -28.8195   23.3028 O   0  0  0  0  0  0
  -28.3904  -26.6486   20.0911 O   0  0  0  0  0  0
  -26.5599  -34.8926   22.4675 O   0  0  0  0  0  0
  -23.5359  -32.1433   23.7477 O   0  0  0  0  0  0
  -29.6530  -19.2302   20.5758 C   0  0  0  0  0  0
  -29.3199  -17.9893   21.1843 C   0  0  0  0  0  0
  -27.0138  -18.8126   21.4520 C   0  0  0  0  0  0
  -28.6917  -20.2528   20.3762 C   0  0  0  0  0  0
  -28.0021  -17.8205   21.6880 C   0  0  0  0  0  0
  -27.3503  -20.0028   20.7608 C   0  0  0  0  0  0
  -25.5725  -18.6036   21.9111 C   0  0  0  0  0  0
  -30.1204  -22.7533   21.5551 C   0  0  0  0  0  0
  -30.4149  -16.9031   21.3205 C   0  0  0  0  0  0
  -29.0289  -23.9751   19.5848 C   0  0  0  0  0  0
  -28.2004  -25.2143   20.0863 C   0  0  0  0  0  0
  -28.9950  -22.7112   20.5097 C   0  0  1  0  0  0
  -29.0644  -21.4575   19.7324 N   0  0  0  0  0  0
  -29.9959  -15.4969   21.1398 N   0  0  0  0  0  0
  -27.5924  -16.4120   22.6147 Cl  0  0  0  0  0  0
  -26.1030  -21.1390   20.3503 Cl  0  0  0  0  0  0
  -31.4685  -12.4275   19.1223 H   0  0  0  0  0  0
  -30.3299  -11.3140   19.8256 H   0  0  0  0  0  0
  -29.7370  -11.7846   17.4312 H   0  0  0  0  0  0
  -29.6609  -13.4964   17.7654 H   0  0  0  0  0  0
  -27.8247  -11.3158   18.8128 H   0  0  0  0  0  0
  -27.3661  -12.6485   17.7872 H   0  0  0  0  0  0
  -27.7008  -14.2607   19.5798 H   0  0  0  0  0  0
  -28.6840  -11.9617   21.3365 H   0  0  0  0  0  0
  -28.4619  -13.5957   21.8753 H   0  0  0  0  0  0
  -25.2760   -9.5679   22.4761 H   0  0  0  0  0  0
  -24.0003   -7.4627   22.7468 H   0  0  0  0  0  0
  -21.0846   -8.8766   19.8949 H   0  0  0  0  0  0
  -22.3697  -10.9668   19.6165 H   0  0  0  0  0  0
  -21.2003   -7.6146   23.9716 H   0  0  0  0  0  0
  -21.1482   -6.0521   25.9078 H   0  0  0  0  0  0
  -22.0600   -2.7608   23.2845 H   0  0  0  0  0  0
  -22.4126  -11.9881   22.4792 H   0  0  0  0  0  0
  -21.1117  -13.1237   22.2621 H   0  0  0  0  0  0
  -24.6480  -15.8338   20.5033 H   0  0  0  0  0  0
  -26.2827  -15.6323   20.1214 H   0  0  0  0  0  0
  -26.7133  -32.5525   23.1141 H   0  0  0  0  0  0
  -25.0098  -33.9779   25.0476 H   0  0  0  0  0  0
  -22.6945  -31.3090   21.4119 H   0  0  0  0  0  0
  -23.3754  -35.9635   23.3311 H   0  0  0  0  0  0
  -24.3583  -36.8901   22.2047 H   0  0  0  0  0  0
  -23.7248  -37.6513   23.6643 H   0  0  0  0  0  0
  -26.0554  -31.5938   20.5990 H   0  0  0  0  0  0
  -26.8230  -30.8754   21.9879 H   0  0  0  0  0  0
  -28.1101  -29.0865   21.1455 H   0  0  0  0  0  0
  -26.0120  -25.9643   19.0147 H   0  0  0  0  0  0
  -23.9643  -27.2979   19.0458 H   0  0  0  0  0  0
  -23.7272  -30.6035   19.4074 H   0  0  0  0  0  0
  -22.7363  -29.2522   19.8657 H   0  0  0  0  0  0
  -25.1290  -36.1960   25.0827 H   0  0  0  0  0  0
  -20.9956  -28.3239   24.1431 H   0  0  0  0  0  0
  -20.5684  -26.2279   23.3599 H   0  0  0  0  0  0
  -21.6644  -26.7449   22.1197 H   0  0  0  0  0  0
  -19.6914  -25.6304   21.1231 H   0  0  0  0  0  0
  -19.6689  -27.3213   20.6752 H   0  0  0  0  0  0
  -17.4197  -26.6672   21.4023 H   0  0  0  0  0  0
  -18.0321  -26.0057   22.9006 H   0  0  0  0  0  0
  -19.7941  -30.7262   24.2267 H   0  0  0  0  0  0
  -17.5026  -31.6267   24.5175 H   0  0  0  0  0  0
  -15.5356  -30.2998   23.7660 H   0  0  0  0  0  0
  -15.8663  -28.0847   22.7034 H   0  0  0  0  0  0
  -24.5918  -30.7047   25.7822 H   0  0  0  0  0  0
  -24.8906  -32.2885   26.4882 H   0  0  0  0  0  0
  -25.8081  -30.8929   27.0246 H   0  0  0  0  0  0
  -26.2850  -29.6808   24.1149 H   0  0  0  0  0  0
  -27.4062  -29.7267   25.4563 H   0  0  0  0  0  0
  -27.8689  -30.4349   23.9260 H   0  0  0  0  0  0
  -27.2677  -33.3618   26.2064 H   0  0  0  0  0  0
  -28.3855  -32.6880   25.0299 H   0  0  0  0  0  0
  -28.0728  -31.8437   26.5385 H   0  0  0  0  0  0
  -28.2599  -38.0098   24.7518 H   0  0  0  0  0  0
  -28.1074  -36.2635   24.6283 H   0  0  0  0  0  0
  -27.2303  -37.1445   25.8866 H   0  0  0  0  0  0
  -20.9322  -29.8766   21.6949 H   0  0  0  0  0  0
  -26.0182  -38.2863   24.1421 H   0  0  0  0  0  0
  -30.6658  -19.3963   20.2368 H   0  0  0  0  0  0
  -25.4730  -17.8840   22.7209 H   0  0  0  0  0  0
  -24.9633  -18.2561   21.0764 H   0  0  0  0  0  0
  -25.1394  -19.5315   22.2840 H   0  0  0  0  0  0
  -30.0809  -23.6702   22.1440 H   0  0  0  0  0  0
  -31.1035  -22.7085   21.0850 H   0  0  0  0  0  0
  -30.0485  -21.9207   22.2549 H   0  0  0  0  0  0
  -30.8564  -16.9970   22.3132 H   0  0  0  0  0  0
  -31.2141  -17.1333   20.6139 H   0  0  0  0  0  0
  -30.0662  -24.2591   19.3918 H   0  0  0  0  0  0
  -28.6354  -23.6664   18.6114 H   0  0  0  0  0  0
  -28.3825  -25.5411   19.0594 H   0  0  0  0  0  0
  -28.8555  -25.2963   20.9536 H   0  0  0  0  0  0
  -28.0493  -22.7322   21.0508 H   0  0  0  0  0  0
  -28.5166  -21.5628   18.8827 H   0  0  0  0  0  0
  -29.0783  -15.2627   21.4898 H   0  0  0  0  0  0
  1 25  1  0  0  0
  1 30  2  0  0  0
  1 84  1  0  0  0
  2  3  1  0  0  0
  2 25  1  0  0  0
  2 87  1  0  0  0
  2 88  1  0  0  0
  3  4  1  0  0  0
  3 89  1  0  0  0
  3 90  1  0  0  0
  4  5  1  0  0  0
  4 91  1  0  0  0
  4 92  1  0  0  0
  5  6  1  0  0  0
  5 26  1  0  0  0
  5 93  1  0  0  0
  6 25  1  0  0  0
  6 94  1  0  0  0
  6 95  1  0  0  0
  7  8  2  0  0  0
  7 26  1  0  0  0
  7 29  1  0  0  0
  8  9  1  0  0  0
  8 22  1  0  0  0
  9 10  1  0  0  0
  9 27  2  0  0  0
 10 11  2  0  0  0
 10 15  1  0  0  0
 11 12  1  0  0  0
 11 96  1  0  0  0
 12 13  2  0  0  0
 12 97  1  0  0  0
 13 14  1  0  0  0
 13 31  1  0  0  0
 14 15  2  0  0  0
 14 98  1  0  0  0
 15 99  1  0  0  0
 16 17  2  0  0  0
 16 21  1  0  0  0
 16 31  1  0  0  0
 17 18  1  0  0  0
 17100  1  0  0  0
 18 19  2  0  0  0
 18101  1  0  0  0
 19 20  1  0  0  0
 19 24  1  0  0  0
 20 21  2  0  0  0
 20102  1  0  0  0
 21 23  1  0  0  0
 22 28  1  0  0  0
 22 32  2  0  0  0
 26 27  1  0  0  0
 28103  1  0  0  0
 28104  1  0  0  0
 29105  1  0  0  0
 29106  1  0  0  0
 33 34  1  0  0  0
 33 66  1  0  0  0
 33 70  2  0  0  0
 34 36  1  0  0  0
 34 59  1  0  0  0
 34107  1  0  0  0
 35 44  2  0  0  0
 35 45  1  0  0  0
 35 68  1  0  0  0
 36 56  1  0  0  0
 36108  1  0  0  0
 37 39  1  0  0  0
 37 47  1  0  0  0
 37 66  1  0  0  0
 37109  1  0  0  0
 38 43  2  0  0  0
 38 46  1  0  0  0
 38 47  1  0  0  0
 39 64  1  0  0  0
 39 67  2  0  0  0
 40 52  1  0  0  0
 40 53  2  0  0  0
 40 58  1  0  0  0
 41110  1  0  0  0
 41111  1  0  0  0
 41112  1  0  0  0
 41 48  1  0  0  0
 42 43  1  0  0  0
 42 66  1  0  0  0
 42113  1  0  0  0
 42114  1  0  0  0
 43 44  1  0  0  0
 44115  1  0  0  0
 45 46  2  0  0  0
 45116  1  0  0  0
 46117  1  0  0  0
 47118  1  0  0  0
 47119  1  0  0  0
 48 56  1  0  0  0
 48 65  1  0  0  0
 48120  1  0  0  0
 49 50  1  0  0  0
 49 53  1  0  0  0
 49 64  1  0  0  0
 49121  1  0  0  0
 50 51  1  0  0  0
 50122  1  0  0  0
 50123  1  0  0  0
 51 52  1  0  0  0
 51124  1  0  0  0
 51125  1  0  0  0
 52126  1  0  0  0
 52127  1  0  0  0
 53 54  1  0  0  0
 54 55  2  0  0  0
 54128  1  0  0  0
 55 57  1  0  0  0
 55129  1  0  0  0
 56 69  2  0  0  0
 57 58  2  0  0  0
 57130  1  0  0  0
 58131  1  0  0  0
 59 60  1  0  0  0
 59 61  1  0  0  0
 59 62  1  0  0  0
 60132  1  0  0  0
 60133  1  0  0  0
 60134  1  0  0  0
 61135  1  0  0  0
 61136  1  0  0  0
 61137  1  0  0  0
 62138  1  0  0  0
 62139  1  0  0  0
 62140  1  0  0  0
 63 65  1  0  0  0
 63141  1  0  0  0
 63142  1  0  0  0
 63143  1  0  0  0
 64144  1  0  0  0
 65145  1  0  0  0
 68 81  1  0  0  0
 71 72  2  0  0  0
 71 74  1  0  0  0
 71146  1  0  0  0
 72 75  1  0  0  0
 72 79  1  0  0  0
 73 75  2  0  0  0
 73 76  1  0  0  0
 73 77  1  0  0  0
 74 76  2  0  0  0
 74 83  1  0  0  0
 75 85  1  0  0  0
 76 86  1  0  0  0
 77147  1  0  0  0
 77148  1  0  0  0
 77149  1  0  0  0
 78150  1  0  0  0
 78151  1  0  0  0
 78152  1  0  0  0
 78 82  1  0  0  0
 79 84  1  0  0  0
 79153  1  0  0  0
 79154  1  0  0  0
 80 81  1  0  0  0
 80 82  1  0  0  0
 80155  1  0  0  0
 80156  1  0  0  0
 81157  1  0  0  0
 81158  1  0  0  0
 82 83  1  0  0  0
 82159  1  0  0  0
 83160  1  0  0  0
 84161  1  0  0  0
M  ISO  4   1 100  68 101  81 101  84 100
M  END
> <chiral flag>
0

> <version>
0

> <s_m_source_file>
/data/baiqing/PycharmProjects/Reinvent-master-3.2/result/LINK_invent/BTK/process_docking_weight1_custom_sum_contain_oxygen_bond_distance_aromatic_linkinvent_7_9_3/rearranged_h_0028.sdf

> <i_m_source_file_index>
97

> <r_mmod_Potential_Energy-OPLS-2005>
179.380767822266

> <r_mmod_Stretch_Energy-OPLS-2005>
47.7135581970215

> <r_mmod_Bend_Energy-OPLS-2005>
321.215484619141

> <r_mmod_Torsional_Energy-OPLS-2005>
233.25862121582

> <r_mmod_Improper_Torsional_Energy-OPLS-2005>
8.64842796325684

> <r_mmod_Van_der_Waal_Energy-OPLS-2005>
166.587097167969

> <r_mmod_Electrostatic_Energy-OPLS-2005>
-412.074981689453

> <r_mmod_Solvation_Energy-OPLS-2005>
-201.315353393555

> <b_mmod_Minimization_Converged-OPLS-2005>
0

> <r_mmod_RMS_Derivative-OPLS-2005>
0.961984515190125

$$$$
97
                    3D
 Structure written by MMmdl.
159167  0  0  1  0            999 V2000
  -30.6121  -14.6294   20.4996 C   0  0  0  0  0  0
  -30.4472  -12.3887   19.4362 C   0  0  0  0  0  0
  -29.5100  -12.5056   18.2137 C   0  0  0  0  0  0
  -28.0312  -12.3436   18.6243 C   0  0  0  0  0  0
  -27.6554  -13.2104   19.8561 C   0  0  2  0  0  0
  -28.7016  -13.0507   20.9824 C   0  0  0  0  0  0
  -25.2577  -13.8155   20.5641 C   0  0  0  0  0  0
  -24.1846  -13.0424   20.9172 C   0  0  0  0  0  0
  -24.6407  -11.6895   20.8724 C   0  0  0  0  0  0
  -23.9080  -10.4275   21.0382 C   0  0  0  0  0  0
  -24.3639   -9.4190   21.9158 C   0  0  0  0  0  0
  -23.6311   -8.2227   22.0735 C   0  0  0  0  0  0
  -22.4282   -8.0267   21.3533 C   0  0  0  0  0  0
  -21.9920   -9.0237   20.4629 C   0  0  0  0  0  0
  -22.7250  -10.2112   20.3027 C   0  0  0  0  0  0
  -21.6852   -6.0728   22.5271 C   0  0  0  0  0  0
  -21.4020   -6.5627   23.8205 C   0  0  0  0  0  0
  -21.3666   -5.6776   24.9171 C   0  0  0  0  0  0
  -21.6053   -4.3042   24.7218 C   0  0  0  0  0  0
  -21.8825   -3.8133   23.4337 C   0  0  0  0  0  0
  -21.9203   -4.6957   22.3398 C   0  0  0  0  0  0
  -22.7869  -13.5215   21.1843 C   0  0  0  0  0  0
  -22.1655   -4.2143   21.0975 F   0  0  0  0  0  0
  -21.5645   -3.4525   25.7733 F   0  0  0  0  0  0
  -30.0170  -13.3996   20.4197 N   0  0  0  0  0  0
  -26.3004  -12.9320   20.3266 N   0  0  0  0  0  0
  -25.9334  -11.6484   20.5716 N   0  0  0  0  0  0
  -22.0519  -12.8205   22.0408 N   0  0  0  0  0  0
  -25.4282  -15.1887   20.4049 N   0  0  0  0  0  0
  -31.7801  -14.8117   20.1411 O   0  0  0  0  0  0
  -21.6633   -6.8866   21.4228 O   0  0  0  0  0  0
  -22.3549  -14.5512   20.6685 O   0  0  0  0  0  0
  -24.6270  -31.8586   23.2032 C   0  0  0  0  0  0
  -25.9123  -32.4788   23.8347 C   0  0  1  0  0  0
  -27.2273  -27.3212   20.1060 C   0  0  0  0  0  0
  -25.5938  -33.8581   24.2282 N   0  0  0  0  0  0
  -23.4197  -30.4855   21.5448 C   0  0  2  0  0  0
  -24.8643  -28.9409   20.1101 C   0  0  0  0  0  0
  -22.7476  -29.4626   22.4916 C   0  0  0  0  0  0
  -18.0278  -28.1365   22.8491 C   0  0  0  0  0  0
  -24.1476  -36.7285   23.2642 C   0  0  0  0  0  0
  -25.9619  -30.7905   21.3758 C   0  0  0  0  0  0
  -26.0341  -29.4172   20.7164 C   0  0  0  0  0  0
  -27.2134  -28.6169   20.7109 C   0  0  0  0  0  0
  -26.0341  -26.9054   19.4666 C   0  0  0  0  0  0
  -24.8667  -27.6887   19.4775 C   0  0  0  0  0  0
  -23.6354  -29.8230   20.1588 C   0  0  0  0  0  0
  -25.4103  -36.3081   24.0336 C   0  0  1  0  0  0
  -20.5889  -28.3666   23.1281 C   0  0  2  0  0  0
  -20.6768  -26.9390   22.5402 C   0  0  0  0  0  0
  -19.5746  -26.6380   21.5199 C   0  0  0  0  0  0
  -18.1927  -26.7917   22.1618 C   0  0  0  0  0  0
  -19.1532  -28.8829   23.2889 C   0  0  0  0  0  0
  -18.9461  -30.1436   23.8899 C   0  0  0  0  0  0
  -17.6463  -30.6576   24.0552 C   0  0  0  0  0  0
  -25.9040  -34.9459   23.5101 C   0  0  0  0  0  0
  -16.5355  -29.9082   23.6306 C   0  0  0  0  0  0
  -16.7272  -28.6490   23.0347 C   0  0  0  0  0  0
  -26.4521  -31.6592   25.0705 C   0  0  0  0  0  0
  -25.3770  -31.3715   26.1430 C   0  0  0  0  0  0
  -27.0370  -30.3032   24.6138 C   0  0  0  0  0  0
  -27.6085  -32.4329   25.7469 C   0  0  0  0  0  0
  -27.5573  -37.1791   24.8465 C   0  0  0  0  0  0
  -21.4189  -29.3038   22.3683 N   0  0  0  0  0  0
  -26.4279  -37.3784   23.9420 N   0  0  0  0  0  0
  -24.6888  -31.0606   22.0973 N   0  0  0  0  0  0
  -23.4198  -28.8155   23.2990 O   0  0  0  0  0  0
  -28.3605  -26.4893   20.1688 O   0  0  0  0  0  0
  -26.5592  -34.8924   22.4654 O   0  0  0  0  0  0
  -23.5443  -32.1358   23.7388 O   0  0  0  0  0  0
  -29.4407  -19.3181   19.7061 C   0  0  0  0  0  0
  -30.4573  -17.8295   21.8463 C   0  0  0  0  0  0
  -29.9615  -20.0491   20.8111 C   0  0  0  0  0  0
  -29.9406  -17.1058   20.7481 C   0  0  0  0  0  0
  -29.4171  -17.8865   19.6781 C   0  0  0  0  0  0
  -30.4714  -19.2529   21.8823 C   0  0  0  0  0  0
  -30.7107  -24.5650   20.5110 C   0  0  0  0  0  0
  -28.5162  -24.9629   18.2734 C   0  0  0  0  0  0
  -30.1224  -21.6214   20.8404 C   0  0  0  0  0  0
  -29.2480  -24.0601   20.5812 C   0  0  1  0  0  0
  -28.2800  -25.0553   19.7930 C   0  0  1  0  0  0
  -29.7739  -15.6583   20.8173 N   0  0  0  0  0  0
  -29.1134  -22.5699   20.2279 N   0  3  0  0  0  0
  -28.7202  -17.0947   18.3098 Cl  0  0  0  0  0  0
  -31.1635  -19.9898   23.2858 Cl  0  0  0  0  0  0
  -31.4846  -12.5326   19.1265 H   0  0  0  0  0  0
  -30.3981  -11.3883   19.8698 H   0  0  0  0  0  0
  -29.7734  -11.7560   17.4652 H   0  0  0  0  0  0
  -29.6519  -13.4781   17.7377 H   0  0  0  0  0  0
  -27.8652  -11.2886   18.8490 H   0  0  0  0  0  0
  -27.3795  -12.5796   17.7813 H   0  0  0  0  0  0
  -27.6741  -14.2469   19.5197 H   0  0  0  0  0  0
  -28.7159  -12.0216   21.3474 H   0  0  0  0  0  0
  -28.4508  -13.6708   21.8444 H   0  0  0  0  0  0
  -25.2783   -9.5668   22.4728 H   0  0  0  0  0  0
  -24.0024   -7.4621   22.7452 H   0  0  0  0  0  0
  -21.0848   -8.8753   19.8942 H   0  0  0  0  0  0
  -22.3707  -10.9651   19.6134 H   0  0  0  0  0  0
  -21.1987   -7.6129   23.9716 H   0  0  0  0  0  0
  -21.1495   -6.0496   25.9084 H   0  0  0  0  0  0
  -22.0608   -2.7593   23.2831 H   0  0  0  0  0  0
  -22.4139  -11.9888   22.4830 H   0  0  0  0  0  0
  -21.1122  -13.1200   22.2578 H   0  0  0  0  0  0
  -24.6562  -15.8380   20.5086 H   0  0  0  0  0  0
  -26.2661  -15.6299   20.0485 H   0  0  0  0  0  0
  -26.7197  -32.5445   23.1106 H   0  0  0  0  0  0
  -25.0135  -33.9714   25.0469 H   0  0  0  0  0  0
  -22.7154  -31.3076   21.4043 H   0  0  0  0  0  0
  -23.3742  -35.9612   23.3305 H   0  0  0  0  0  0
  -24.3580  -36.8895   22.2056 H   0  0  0  0  0  0
  -23.7216  -37.6485   23.6660 H   0  0  0  0  0  0
  -26.0919  -31.5564   20.6098 H   0  0  0  0  0  0
  -26.8450  -30.8386   22.0011 H   0  0  0  0  0  0
  -28.1083  -28.9727   21.2022 H   0  0  0  0  0  0
  -25.9630  -25.9625   18.9467 H   0  0  0  0  0  0
  -23.9757  -27.3211   18.9882 H   0  0  0  0  0  0
  -23.7602  -30.6003   19.4041 H   0  0  0  0  0  0
  -22.7550  -29.2559   19.8510 H   0  0  0  0  0  0
  -25.1292  -36.1942   25.0837 H   0  0  0  0  0  0
  -20.9979  -28.3234   24.1402 H   0  0  0  0  0  0
  -20.5638  -26.2275   23.3597 H   0  0  0  0  0  0
  -21.6649  -26.7415   22.1213 H   0  0  0  0  0  0
  -19.6894  -25.6291   21.1221 H   0  0  0  0  0  0
  -19.6683  -27.3202   20.6741 H   0  0  0  0  0  0
  -17.4195  -26.6650   21.4028 H   0  0  0  0  0  0
  -18.0339  -26.0063   22.9019 H   0  0  0  0  0  0
  -19.7948  -30.7238   24.2287 H   0  0  0  0  0  0
  -17.5025  -31.6261   24.5148 H   0  0  0  0  0  0
  -15.5352  -30.2987   23.7618 H   0  0  0  0  0  0
  -15.8669  -28.0801   22.7065 H   0  0  0  0  0  0
  -24.5940  -30.7071   25.7770 H   0  0  0  0  0  0
  -24.8946  -32.2856   26.4887 H   0  0  0  0  0  0
  -25.8094  -30.8874   27.0191 H   0  0  0  0  0  0
  -26.2931  -29.6752   24.1212 H   0  0  0  0  0  0
  -27.4157  -29.7324   25.4628 H   0  0  0  0  0  0
  -27.8764  -30.4350   23.9307 H   0  0  0  0  0  0
  -27.2708  -33.3645   26.2038 H   0  0  0  0  0  0
  -28.3891  -32.6859   25.0280 H   0  0  0  0  0  0
  -28.0743  -31.8432   26.5378 H   0  0  0  0  0  0
  -28.2594  -38.0083   24.7529 H   0  0  0  0  0  0
  -28.1065  -36.2621   24.6285 H   0  0  0  0  0  0
  -27.2291  -37.1429   25.8866 H   0  0  0  0  0  0
  -20.9338  -29.8794   21.6936 H   0  0  0  0  0  0
  -26.0157  -38.2857   24.1443 H   0  0  0  0  0  0
  -29.0526  -19.8519   18.8513 H   0  0  0  0  0  0
  -30.8383  -17.2902   22.7003 H   0  0  0  0  0  0
  -30.7669  -25.6246   20.7657 H   0  0  0  0  0  0
  -31.1437  -24.4483   19.5173 H   0  0  0  0  0  0
  -31.3614  -24.0517   21.2177 H   0  0  0  0  0  0
  -28.2211  -23.9888   17.8827 H   0  0  0  0  0  0
  -29.5647  -25.1172   18.0171 H   0  0  0  0  0  0
  -27.9430  -25.7149   17.7322 H   0  0  0  0  0  0
  -31.0905  -21.8374   20.3881 H   0  0  0  0  0  0
  -30.2082  -21.9402   21.8778 H   0  0  0  0  0  0
  -28.9536  -24.1310   21.6305 H   0  0  0  0  0  0
  -27.2778  -24.6897   20.0165 H   0  0  0  0  0  0
  -28.8293  -15.3496   20.9880 H   0  0  0  0  0  0
  -28.1971  -22.2590   20.5100 H   0  0  0  0  0  0
  -29.1655  -22.4555   19.2294 H   0  0  0  0  0  0
  1 25  1  0  0  0
  1 30  2  0  0  0
  1 82  1  0  0  0
  2  3  1  0  0  0
  2 25  1  0  0  0
  2 86  1  0  0  0
  2 87  1  0  0  0
  3  4  1  0  0  0
  3 88  1  0  0  0
  3 89  1  0  0  0
  4  5  1  0  0  0
  4 90  1  0  0  0
  4 91  1  0  0  0
  5  6  1  0  0  0
  5 26  1  0  0  0
  5 92  1  0  0  0
  6 25  1  0  0  0
  6 93  1  0  0  0
  6 94  1  0  0  0
  7  8  2  0  0  0
  7 26  1  0  0  0
  7 29  1  0  0  0
  8  9  1  0  0  0
  8 22  1  0  0  0
  9 10  1  0  0  0
  9 27  2  0  0  0
 10 11  2  0  0  0
 10 15  1  0  0  0
 11 12  1  0  0  0
 11 95  1  0  0  0
 12 13  2  0  0  0
 12 96  1  0  0  0
 13 14  1  0  0  0
 13 31  1  0  0  0
 14 15  2  0  0  0
 14 97  1  0  0  0
 15 98  1  0  0  0
 16 17  2  0  0  0
 16 21  1  0  0  0
 16 31  1  0  0  0
 17 18  1  0  0  0
 17 99  1  0  0  0
 18 19  2  0  0  0
 18100  1  0  0  0
 19 20  1  0  0  0
 19 24  1  0  0  0
 20 21  2  0  0  0
 20101  1  0  0  0
 21 23  1  0  0  0
 22 28  1  0  0  0
 22 32  2  0  0  0
 26 27  1  0  0  0
 28102  1  0  0  0
 28103  1  0  0  0
 29104  1  0  0  0
 29105  1  0  0  0
 33 34  1  0  0  0
 33 66  1  0  0  0
 33 70  2  0  0  0
 34 36  1  0  0  0
 34 59  1  0  0  0
 34106  1  0  0  0
 35 44  2  0  0  0
 35 45  1  0  0  0
 35 68  1  0  0  0
 36 56  1  0  0  0
 36107  1  0  0  0
 37 39  1  0  0  0
 37 47  1  0  0  0
 37 66  1  0  0  0
 37108  1  0  0  0
 38 43  2  0  0  0
 38 46  1  0  0  0
 38 47  1  0  0  0
 39 64  1  0  0  0
 39 67  2  0  0  0
 40 52  1  0  0  0
 40 53  2  0  0  0
 40 58  1  0  0  0
 41109  1  0  0  0
 41110  1  0  0  0
 41111  1  0  0  0
 41 48  1  0  0  0
 42 43  1  0  0  0
 42 66  1  0  0  0
 42112  1  0  0  0
 42113  1  0  0  0
 43 44  1  0  0  0
 44114  1  0  0  0
 45 46  2  0  0  0
 45115  1  0  0  0
 46116  1  0  0  0
 47117  1  0  0  0
 47118  1  0  0  0
 48 56  1  0  0  0
 48 65  1  0  0  0
 48119  1  0  0  0
 49 50  1  0  0  0
 49 53  1  0  0  0
 49 64  1  0  0  0
 49120  1  0  0  0
 50 51  1  0  0  0
 50121  1  0  0  0
 50122  1  0  0  0
 51 52  1  0  0  0
 51123  1  0  0  0
 51124  1  0  0  0
 52125  1  0  0  0
 52126  1  0  0  0
 53 54  1  0  0  0
 54 55  2  0  0  0
 54127  1  0  0  0
 55 57  1  0  0  0
 55128  1  0  0  0
 56 69  2  0  0  0
 57 58  2  0  0  0
 57129  1  0  0  0
 58130  1  0  0  0
 59 60  1  0  0  0
 59 61  1  0  0  0
 59 62  1  0  0  0
 60131  1  0  0  0
 60132  1  0  0  0
 60133  1  0  0  0
 61134  1  0  0  0
 61135  1  0  0  0
 61136  1  0  0  0
 62137  1  0  0  0
 62138  1  0  0  0
 62139  1  0  0  0
 63 65  1  0  0  0
 63140  1  0  0  0
 63141  1  0  0  0
 63142  1  0  0  0
 64143  1  0  0  0
 65144  1  0  0  0
 68 81  1  0  0  0
 71 73  2  0  0  0
 71 75  1  0  0  0
 71145  1  0  0  0
 72 74  1  0  0  0
 72 76  2  0  0  0
 72146  1  0  0  0
 73 76  1  0  0  0
 73 79  1  0  0  0
 74 75  2  0  0  0
 74 82  1  0  0  0
 75 84  1  0  0  0
 76 85  1  0  0  0
 77147  1  0  0  0
 77148  1  0  0  0
 77149  1  0  0  0
 77 80  1  0  0  0
 78150  1  0  0  0
 78151  1  0  0  0
 78152  1  0  0  0
 78 81  1  0  0  0
 79 83  1  0  0  0
 79153  1  0  0  0
 79154  1  0  0  0
 80 81  1  0  0  0
 80 83  1  0  0  0
 80155  1  0  0  0
 81156  1  0  0  0
 82157  1  0  0  0
 83158  1  0  0  0
 83159  1  0  0  0
M  CHG  1  83   1
M  ISO  4   1 100  68 101  81 101  82 100
M  END
> <chiral flag>
0

> <version>
0

> <s_m_source_file>
/data/baiqing/PycharmProjects/Reinvent-master-3.2/result/LINK_invent/BTK/process_docking_weight1_custom_sum_contain_oxygen_bond_distance_aromatic_linkinvent_7_9_3/rearranged_h_0028.sdf

> <i_m_source_file_index>
98

> <r_mmod_Potential_Energy-OPLS-2005>
-117.79370880127

> <r_mmod_Stretch_Energy-OPLS-2005>
80.9326400756836

> <r_mmod_Bend_Energy-OPLS-2005>
140.009292602539

> <r_mmod_Torsional_Energy-OPLS-2005>
247.860687255859

> <r_mmod_Improper_Torsional_Energy-OPLS-2005>
5.94680118560791

> <r_mmod_Van_der_Waal_Energy-OPLS-2005>
142.389434814453

> <r_mmod_Electrostatic_Energy-OPLS-2005>
-312.343322753906

> <r_mmod_Solvation_Energy-OPLS-2005>
-469.31201171875

> <b_mmod_Minimization_Converged-OPLS-2005>
0

> <r_mmod_RMS_Derivative-OPLS-2005>
2.99904084205627

$$$$
