0
                    3D
 Structure written by MMmdl.
168178  0  0  1  0            999 V2000
  -30.6990  -14.4671   20.5699 C   0  0  0  0  0  0
  -30.4263  -12.3031   19.4227 C   0  0  0  0  0  0
  -29.4978  -12.5106   18.2079 C   0  0  0  0  0  0
  -28.0173  -12.3733   18.6167 C   0  0  0  0  0  0
  -27.6653  -13.2062   19.8784 C   0  0  2  0  0  0
  -28.7069  -12.9762   20.9980 C   0  0  0  0  0  0
  -25.2606  -13.8159   20.5681 C   0  0  0  0  0  0
  -24.1845  -13.0438   20.9161 C   0  0  0  0  0  0
  -24.6393  -11.6905   20.8718 C   0  0  0  0  0  0
  -23.9057  -10.4293   21.0383 C   0  0  0  0  0  0
  -24.3608   -9.4213   21.9166 C   0  0  0  0  0  0
  -23.6290   -8.2245   22.0746 C   0  0  0  0  0  0
  -22.4272   -8.0273   21.3539 C   0  0  0  0  0  0
  -21.9900   -9.0243   20.4641 C   0  0  0  0  0  0
  -22.7224  -10.2128   20.3040 C   0  0  0  0  0  0
  -21.6852   -6.0729   22.5276 C   0  0  0  0  0  0
  -21.4010   -6.5634   23.8208 C   0  0  0  0  0  0
  -21.3665   -5.6789   24.9174 C   0  0  0  0  0  0
  -21.6047   -4.3050   24.7224 C   0  0  0  0  0  0
  -21.8823   -3.8139   23.4345 C   0  0  0  0  0  0
  -21.9193   -4.6957   22.3399 C   0  0  0  0  0  0
  -22.7869  -13.5235   21.1829 C   0  0  0  0  0  0
  -22.1663   -4.2137   21.0978 F   0  0  0  0  0  0
  -21.5635   -3.4538   25.7739 F   0  0  0  0  0  0
  -30.0427  -13.2800   20.4539 N   0  0  0  0  0  0
  -26.3048  -12.9328   20.3380 N   0  0  0  0  0  0
  -25.9323  -11.6493   20.5758 N   0  0  0  0  0  0
  -22.0507  -12.8234   22.0392 N   0  0  0  0  0  0
  -25.4344  -15.1877   20.4104 N   0  0  0  0  0  0
  -31.8090  -14.6736   20.0702 O   0  0  0  0  0  0
  -21.6640   -6.8868   21.4235 O   0  0  0  0  0  0
  -22.3553  -14.5539   20.6676 O   0  0  0  0  0  0
  -24.6161  -31.8675   23.2109 C   0  0  0  0  0  0
  -25.9054  -32.4817   23.8404 C   0  0  1  0  0  0
  -27.2357  -27.4355   20.0694 C   0  0  0  0  0  0
  -25.5904  -33.8622   24.2330 N   0  0  0  0  0  0
  -23.4038  -30.4924   21.5523 C   0  0  2  0  0  0
  -24.8487  -28.9643   20.1100 C   0  0  0  0  0  0
  -22.7420  -29.4655   22.5001 C   0  0  0  0  0  0
  -18.0266  -28.1368   22.8494 C   0  0  0  0  0  0
  -24.1492  -36.7322   23.2638 C   0  0  0  0  0  0
  -25.9352  -30.8323   21.3653 C   0  0  0  0  0  0
  -26.0117  -29.4707   20.7023 C   0  0  0  0  0  0
  -27.2062  -28.7106   20.6837 C   0  0  0  0  0  0
  -26.0417  -26.9337   19.5091 C   0  0  0  0  0  0
  -24.8583  -27.6929   19.5137 C   0  0  0  0  0  0
  -23.6101  -29.8290   20.1651 C   0  0  0  0  0  0
  -25.4112  -36.3117   24.0336 C   0  0  1  0  0  0
  -20.5858  -28.3658   23.1322 C   0  0  2  0  0  0
  -20.6759  -26.9400   22.5419 C   0  0  0  0  0  0
  -19.5735  -26.6379   21.5218 C   0  0  0  0  0  0
  -18.1913  -26.7918   22.1626 C   0  0  0  0  0  0
  -19.1516  -28.8831   23.2897 C   0  0  0  0  0  0
  -18.9446  -30.1437   23.8906 C   0  0  0  0  0  0
  -17.6449  -30.6578   24.0560 C   0  0  0  0  0  0
  -25.9037  -34.9480   23.5130 C   0  0  0  0  0  0
  -16.5335  -29.9078   23.6329 C   0  0  0  0  0  0
  -16.7256  -28.6490   23.0354 C   0  0  0  0  0  0
  -26.4474  -31.6594   25.0736 C   0  0  0  0  0  0
  -25.3742  -31.3697   26.1484 C   0  0  0  0  0  0
  -27.0294  -30.3033   24.6124 C   0  0  0  0  0  0
  -27.6052  -32.4307   25.7495 C   0  0  0  0  0  0
  -27.5584  -37.1816   24.8460 C   0  0  0  0  0  0
  -21.4147  -29.3025   22.3736 N   0  0  0  0  0  0
  -26.4301  -37.3795   23.9400 N   0  0  0  0  0  0
  -24.6701  -31.0775   22.1007 N   0  0  0  0  0  0
  -23.4193  -28.8204   23.3047 O   0  0  0  0  0  0
  -28.3800  -26.6649   20.1451 O   0  0  0  0  0  0
  -26.5604  -34.8926   22.4694 O   0  0  0  0  0  0
  -23.5353  -32.1432   23.7504 O   0  0  0  0  0  0
  -29.3113  -17.1699   19.6118 C   0  0  0  0  0  0
  -29.2029  -18.5194   19.2223 C   0  0  0  0  0  0
  -30.4612  -19.1900   21.1814 C   0  0  0  0  0  0
  -30.5959  -17.8336   21.5789 C   0  0  0  0  0  0
  -30.0088  -16.8123   20.7859 C   0  0  0  0  0  0
  -29.7658  -19.5509   19.9995 C   0  0  0  0  0  0
  -32.5967  -18.2476   23.2407 C   0  0  0  0  0  0
  -32.6749  -16.8019   22.8150 C   0  0  0  0  0  0
  -28.4384  -23.6266   19.1729 C   0  0  0  0  0  0
  -30.5433  -24.4927   20.2148 C   0  0  0  0  0  0
  -28.3665  -24.8949   18.2945 C   0  0  0  0  0  0
  -30.4483  -25.7839   19.3618 C   0  0  0  0  0  0
  -31.3368  -17.5069   22.8451 C   0  0  0  0  0  0
  -29.9013  -23.2736   19.5136 C   0  0  1  0  0  0
  -29.0011  -26.1464   18.9583 C   0  0  2  0  0  0
  -30.0520  -21.9534   20.3201 C   0  0  0  0  0  0
  -30.0166  -15.4449   21.1930 N   0  0  0  0  0  0
  -29.5945  -20.8456   19.5376 O   0  0  0  0  0  0
  -31.4707  -12.4016   19.1222 H   0  0  0  0  0  0
  -30.3269  -11.2889   19.8122 H   0  0  0  0  0  0
  -29.7372  -11.7906   17.4241 H   0  0  0  0  0  0
  -29.6688  -13.4995   17.7778 H   0  0  0  0  0  0
  -27.8235  -11.3168   18.8049 H   0  0  0  0  0  0
  -27.3682  -12.6566   17.7868 H   0  0  0  0  0  0
  -27.7114  -14.2557   19.5887 H   0  0  0  0  0  0
  -28.6801  -11.9371   21.3309 H   0  0  0  0  0  0
  -28.4660  -13.5665   21.8825 H   0  0  0  0  0  0
  -25.2756   -9.5698   22.4737 H   0  0  0  0  0  0
  -24.0006   -7.4637   22.7469 H   0  0  0  0  0  0
  -21.0828   -8.8752   19.8950 H   0  0  0  0  0  0
  -22.3672  -10.9657   19.6146 H   0  0  0  0  0  0
  -21.2000   -7.6141   23.9708 H   0  0  0  0  0  0
  -21.1487   -6.0519   25.9077 H   0  0  0  0  0  0
  -22.0600   -2.7600   23.2845 H   0  0  0  0  0  0
  -22.4120  -11.9895   22.4788 H   0  0  0  0  0  0
  -21.1120  -13.1258   22.2583 H   0  0  0  0  0  0
  -24.6731  -15.8478   20.5236 H   0  0  0  0  0  0
  -26.2954  -15.6261   20.1093 H   0  0  0  0  0  0
  -26.7131  -32.5524   23.1169 H   0  0  0  0  0  0
  -25.0035  -33.9781   25.0463 H   0  0  0  0  0  0
  -22.6917  -31.3090   21.4159 H   0  0  0  0  0  0
  -23.3747  -35.9661   23.3307 H   0  0  0  0  0  0
  -24.3586  -36.8934   22.2051 H   0  0  0  0  0  0
  -23.7252  -37.6532   23.6647 H   0  0  0  0  0  0
  -26.0538  -31.6049   20.6045 H   0  0  0  0  0  0
  -26.8196  -30.8763   21.9890 H   0  0  0  0  0  0
  -28.1026  -29.0932   21.1522 H   0  0  0  0  0  0
  -25.9781  -25.9328   19.1223 H   0  0  0  0  0  0
  -23.9547  -27.2819   19.0837 H   0  0  0  0  0  0
  -23.7151  -30.6055   19.4059 H   0  0  0  0  0  0
  -22.7341  -29.2476   19.8707 H   0  0  0  0  0  0
  -25.1291  -36.1986   25.0830 H   0  0  0  0  0  0
  -20.9933  -28.3217   24.1446 H   0  0  0  0  0  0
  -20.5665  -26.2271   23.3606 H   0  0  0  0  0  0
  -21.6630  -26.7448   22.1204 H   0  0  0  0  0  0
  -19.6895  -25.6291   21.1237 H   0  0  0  0  0  0
  -19.6673  -27.3198   20.6755 H   0  0  0  0  0  0
  -17.4190  -26.6672   21.4018 H   0  0  0  0  0  0
  -18.0303  -26.0049   22.9010 H   0  0  0  0  0  0
  -19.7920  -30.7243   24.2289 H   0  0  0  0  0  0
  -17.5002  -31.6262   24.5149 H   0  0  0  0  0  0
  -15.5332  -30.2982   23.7645 H   0  0  0  0  0  0
  -15.8652  -28.0803   22.7080 H   0  0  0  0  0  0
  -24.5904  -30.7061   25.7808 H   0  0  0  0  0  0
  -24.8950  -32.2855   26.4957 H   0  0  0  0  0  0
  -25.8097  -30.8835   27.0226 H   0  0  0  0  0  0
  -26.2839  -29.6805   24.1170 H   0  0  0  0  0  0
  -27.4035  -29.7259   25.4587 H   0  0  0  0  0  0
  -27.8690  -30.4321   23.9292 H   0  0  0  0  0  0
  -27.2664  -33.3586   26.2112 H   0  0  0  0  0  0
  -28.3841  -32.6903   25.0313 H   0  0  0  0  0  0
  -28.0745  -31.8415   26.5381 H   0  0  0  0  0  0
  -28.2608  -38.0109   24.7506 H   0  0  0  0  0  0
  -28.1077  -36.2644   24.6287 H   0  0  0  0  0  0
  -27.2304  -37.1467   25.8864 H   0  0  0  0  0  0
  -20.9316  -29.8761   21.6965 H   0  0  0  0  0  0
  -26.0198  -38.2880   24.1383 H   0  0  0  0  0  0
  -28.8455  -16.4115   18.9989 H   0  0  0  0  0  0
  -28.6652  -18.7658   18.3174 H   0  0  0  0  0  0
  -30.9005  -19.9514   21.8087 H   0  0  0  0  0  0
  -33.0090  -18.9842   22.5540 H   0  0  0  0  0  0
  -32.7511  -18.4569   24.2974 H   0  0  0  0  0  0
  -32.8827  -16.0719   23.5951 H   0  0  0  0  0  0
  -33.1243  -16.5927   21.8458 H   0  0  0  0  0  0
  -27.9711  -22.7942   18.6453 H   0  0  0  0  0  0
  -27.8623  -23.7749   20.0872 H   0  0  0  0  0  0
  -30.0592  -24.6573   21.1786 H   0  0  0  0  0  0
  -31.5913  -24.2835   20.4311 H   0  0  0  0  0  0
  -27.3572  -25.0695   17.9387 H   0  0  0  0  0  0
  -28.9213  -24.6912   17.3768 H   0  0  0  0  0  0
  -31.0459  -25.6512   18.4586 H   0  0  0  0  0  0
  -30.9018  -26.6186   19.8988 H   0  0  0  0  0  0
  -30.6435  -17.2368   23.6386 H   0  0  0  0  0  0
  -30.4355  -23.1225   18.5740 H   0  0  0  0  0  0
  -29.0376  -26.9545   18.2261 H   0  0  0  0  0  0
  -29.4946  -22.0075   21.2570 H   0  0  0  0  0  0
  -31.1053  -21.8157   20.5686 H   0  0  0  0  0  0
  -29.1749  -15.1271   21.6493 H   0  0  0  0  0  0
  1 25  1  0  0  0
  1 30  2  0  0  0
  1 87  1  0  0  0
  2  3  1  0  0  0
  2 25  1  0  0  0
  2 89  1  0  0  0
  2 90  1  0  0  0
  3  4  1  0  0  0
  3 91  1  0  0  0
  3 92  1  0  0  0
  4  5  1  0  0  0
  4 93  1  0  0  0
  4 94  1  0  0  0
  5  6  1  0  0  0
  5 26  1  0  0  0
  5 95  1  0  0  0
  6 25  1  0  0  0
  6 96  1  0  0  0
  6 97  1  0  0  0
  7  8  2  0  0  0
  7 26  1  0  0  0
  7 29  1  0  0  0
  8  9  1  0  0  0
  8 22  1  0  0  0
  9 10  1  0  0  0
  9 27  2  0  0  0
 10 11  2  0  0  0
 10 15  1  0  0  0
 11 12  1  0  0  0
 11 98  1  0  0  0
 12 13  2  0  0  0
 12 99  1  0  0  0
 13 14  1  0  0  0
 13 31  1  0  0  0
 14 15  2  0  0  0
 14100  1  0  0  0
 15101  1  0  0  0
 16 17  2  0  0  0
 16 21  1  0  0  0
 16 31  1  0  0  0
 17 18  1  0  0  0
 17102  1  0  0  0
 18 19  2  0  0  0
 18103  1  0  0  0
 19 20  1  0  0  0
 19 24  1  0  0  0
 20 21  2  0  0  0
 20104  1  0  0  0
 21 23  1  0  0  0
 22 28  1  0  0  0
 22 32  2  0  0  0
 26 27  1  0  0  0
 28105  1  0  0  0
 28106  1  0  0  0
 29107  1  0  0  0
 29108  1  0  0  0
 33 34  1  0  0  0
 33 66  1  0  0  0
 33 70  2  0  0  0
 34 36  1  0  0  0
 34 59  1  0  0  0
 34109  1  0  0  0
 35 44  2  0  0  0
 35 45  1  0  0  0
 35 68  1  0  0  0
 36 56  1  0  0  0
 36110  1  0  0  0
 37 39  1  0  0  0
 37 47  1  0  0  0
 37 66  1  0  0  0
 37111  1  0  0  0
 38 43  2  0  0  0
 38 46  1  0  0  0
 38 47  1  0  0  0
 39 64  1  0  0  0
 39 67  2  0  0  0
 40 52  1  0  0  0
 40 53  2  0  0  0
 40 58  1  0  0  0
 41112  1  0  0  0
 41113  1  0  0  0
 41114  1  0  0  0
 41 48  1  0  0  0
 42 43  1  0  0  0
 42 66  1  0  0  0
 42115  1  0  0  0
 42116  1  0  0  0
 43 44  1  0  0  0
 44117  1  0  0  0
 45 46  2  0  0  0
 45118  1  0  0  0
 46119  1  0  0  0
 47120  1  0  0  0
 47121  1  0  0  0
 48 56  1  0  0  0
 48 65  1  0  0  0
 48122  1  0  0  0
 49 50  1  0  0  0
 49 53  1  0  0  0
 49 64  1  0  0  0
 49123  1  0  0  0
 50 51  1  0  0  0
 50124  1  0  0  0
 50125  1  0  0  0
 51 52  1  0  0  0
 51126  1  0  0  0
 51127  1  0  0  0
 52128  1  0  0  0
 52129  1  0  0  0
 53 54  1  0  0  0
 54 55  2  0  0  0
 54130  1  0  0  0
 55 57  1  0  0  0
 55131  1  0  0  0
 56 69  2  0  0  0
 57 58  2  0  0  0
 57132  1  0  0  0
 58133  1  0  0  0
 59 60  1  0  0  0
 59 61  1  0  0  0
 59 62  1  0  0  0
 60134  1  0  0  0
 60135  1  0  0  0
 60136  1  0  0  0
 61137  1  0  0  0
 61138  1  0  0  0
 61139  1  0  0  0
 62140  1  0  0  0
 62141  1  0  0  0
 62142  1  0  0  0
 63 65  1  0  0  0
 63143  1  0  0  0
 63144  1  0  0  0
 63145  1  0  0  0
 64146  1  0  0  0
 65147  1  0  0  0
 68 85  1  0  0  0
 71 72  2  0  0  0
 71 75  1  0  0  0
 71148  1  0  0  0
 72 76  1  0  0  0
 72149  1  0  0  0
 73 74  1  0  0  0
 73 76  2  0  0  0
 73150  1  0  0  0
 74 75  2  0  0  0
 74 83  1  0  0  0
 75 87  1  0  0  0
 76 88  1  0  0  0
 77 78  1  0  0  0
 77 83  1  0  0  0
 77151  1  0  0  0
 77152  1  0  0  0
 78 83  1  0  0  0
 78153  1  0  0  0
 78154  1  0  0  0
 79 81  1  0  0  0
 79 84  1  0  0  0
 79155  1  0  0  0
 79156  1  0  0  0
 80 82  1  0  0  0
 80 84  1  0  0  0
 80157  1  0  0  0
 80158  1  0  0  0
 81 85  1  0  0  0
 81159  1  0  0  0
 81160  1  0  0  0
 82 85  1  0  0  0
 82161  1  0  0  0
 82162  1  0  0  0
 83163  1  0  0  0
 84 86  1  0  0  0
 84164  1  0  0  0
 85165  1  0  0  0
 86 88  1  0  0  0
 86166  1  0  0  0
 86167  1  0  0  0
 87168  1  0  0  0
M  ISO  4   1 100  68 101  85 101  87 100
M  END
> <chiral flag>
0

> <version>
0

> <s_m_source_file>
/data/baiqing/PycharmProjects/Reinvent-master-3.2/result/LINK_invent/BTK/process_docking_weight1_custom_sum_contain_oxygen_bond_distance_aromatic_linkinvent_7_9_3/rearranged_h_0143.sdf

> <i_m_source_file_index>
1

> <r_mmod_Potential_Energy-OPLS-2005>
36.5937347412109

> <r_mmod_Stretch_Energy-OPLS-2005>
39.6238098144531

> <r_mmod_Bend_Energy-OPLS-2005>
118.108673095703

> <r_mmod_Torsional_Energy-OPLS-2005>
306.758392333984

> <r_mmod_Improper_Torsional_Energy-OPLS-2005>
5.26944303512573

> <r_mmod_Van_der_Waal_Energy-OPLS-2005>
145.736831665039

> <r_mmod_Electrostatic_Energy-OPLS-2005>
-385.690734863281

> <r_mmod_Solvation_Energy-OPLS-2005>
-206.83332824707

> <b_mmod_Minimization_Converged-OPLS-2005>
0

> <r_mmod_RMS_Derivative-OPLS-2005>
1.2015643119812

$$$$
1
                    3D
 Structure written by MMmdl.
161170  0  0  1  0            999 V2000
  -30.6207  -14.7242   20.4570 C   0  0  0  0  0  0
  -30.4309  -12.4409   19.4724 C   0  0  0  0  0  0
  -29.5100  -12.5005   18.2342 C   0  0  0  0  0  0
  -28.0357  -12.3275   18.6480 C   0  0  0  0  0  0
  -27.6426  -13.2277   19.8494 C   0  0  2  0  0  0
  -28.6864  -13.1593   20.9852 C   0  0  0  0  0  0
  -25.2527  -13.8190   20.5691 C   0  0  0  0  0  0
  -24.1807  -13.0448   20.9206 C   0  0  0  0  0  0
  -24.6384  -11.6921   20.8749 C   0  0  0  0  0  0
  -23.9055  -10.4299   21.0412 C   0  0  0  0  0  0
  -24.3606   -9.4219   21.9191 C   0  0  0  0  0  0
  -23.6283   -8.2252   22.0760 C   0  0  0  0  0  0
  -22.4266   -8.0284   21.3552 C   0  0  0  0  0  0
  -21.9900   -9.0260   20.4654 C   0  0  0  0  0  0
  -22.7227  -10.2141   20.3065 C   0  0  0  0  0  0
  -21.6855   -6.0737   22.5277 C   0  0  0  0  0  0
  -21.4017   -6.5639   23.8212 C   0  0  0  0  0  0
  -21.3661   -5.6791   24.9169 C   0  0  0  0  0  0
  -21.6038   -4.3053   24.7220 C   0  0  0  0  0  0
  -21.8819   -3.8148   23.4342 C   0  0  0  0  0  0
  -21.9195   -4.6966   22.3401 C   0  0  0  0  0  0
  -22.7830  -13.5244   21.1849 C   0  0  0  0  0  0
  -22.1664   -4.2157   21.0977 F   0  0  0  0  0  0
  -21.5629   -3.4534   25.7733 F   0  0  0  0  0  0
  -29.9874  -13.5045   20.4015 N   0  0  0  0  0  0
  -26.2937  -12.9384   20.3266 N   0  0  0  0  0  0
  -25.9311  -11.6534   20.5738 N   0  0  0  0  0  0
  -22.0452  -12.8257   22.0397 N   0  0  0  0  0  0
  -25.4233  -15.1912   20.4112 N   0  0  0  0  0  0
  -31.8144  -14.8103   20.1562 O   0  0  0  0  0  0
  -21.6638   -6.8878   21.4239 O   0  0  0  0  0  0
  -22.3528  -14.5553   20.6684 O   0  0  0  0  0  0
  -24.6316  -31.8560   23.1994 C   0  0  0  0  0  0
  -25.9144  -32.4759   23.8342 C   0  0  1  0  0  0
  -27.2161  -27.2671   20.1285 C   0  0  0  0  0  0
  -25.5945  -33.8564   24.2268 N   0  0  0  0  0  0
  -23.4277  -30.4795   21.5424 C   0  0  2  0  0  0
  -24.8734  -28.9285   20.1084 C   0  0  0  0  0  0
  -22.7503  -29.4613   22.4914 C   0  0  0  0  0  0
  -18.0297  -28.1394   22.8481 C   0  0  0  0  0  0
  -24.1484  -36.7281   23.2637 C   0  0  0  0  0  0
  -25.9730  -30.7706   21.3789 C   0  0  0  0  0  0
  -26.0445  -29.3950   20.7181 C   0  0  0  0  0  0
  -27.2192  -28.5770   20.7157 C   0  0  0  0  0  0
  -26.0232  -26.8706   19.4820 C   0  0  0  0  0  0
  -24.8679  -27.6751   19.4785 C   0  0  0  0  0  0
  -23.6444  -29.8150   20.1576 C   0  0  0  0  0  0
  -25.4112  -36.3072   24.0325 C   0  0  1  0  0  0
  -20.5898  -28.3707   23.1262 C   0  0  2  0  0  0
  -20.6787  -26.9425   22.5401 C   0  0  0  0  0  0
  -19.5763  -26.6386   21.5208 C   0  0  0  0  0  0
  -18.1941  -26.7937   22.1617 C   0  0  0  0  0  0
  -19.1549  -28.8868   23.2867 C   0  0  0  0  0  0
  -18.9470  -30.1466   23.8891 C   0  0  0  0  0  0
  -17.6469  -30.6593   24.0562 C   0  0  0  0  0  0
  -25.9054  -34.9442   23.5095 C   0  0  0  0  0  0
  -16.5361  -29.9089   23.6331 C   0  0  0  0  0  0
  -16.7283  -28.6505   23.0355 C   0  0  0  0  0  0
  -26.4509  -31.6596   25.0742 C   0  0  0  0  0  0
  -25.3730  -31.3760   26.1464 C   0  0  0  0  0  0
  -27.0366  -30.3012   24.6244 C   0  0  0  0  0  0
  -27.6057  -32.4352   25.7516 C   0  0  0  0  0  0
  -27.5581  -37.1792   24.8460 C   0  0  0  0  0  0
  -21.4211  -29.3054   22.3650 N   0  0  0  0  0  0
  -26.4286  -37.3773   23.9413 N   0  0  0  0  0  0
  -24.6964  -31.0531   22.0966 N   0  0  0  0  0  0
  -23.4199  -28.8157   23.3021 O   0  0  0  0  0  0
  -28.3105  -26.3757   20.2032 O   0  0  0  0  0  0
  -26.5614  -34.8917   22.4658 O   0  0  0  0  0  0
  -23.5468  -32.1383   23.7290 O   0  0  0  0  0  0
  -31.9621  -21.6323   22.9629 C   0  0  0  0  0  0
  -31.0562  -22.1392   22.0274 C   0  0  0  0  0  0
  -31.9337  -20.2777   23.2730 C   0  0  0  0  0  0
  -30.1967  -19.8701   21.5389 C   0  0  0  0  0  0
  -30.1054  -21.3400   21.3323 C   0  0  0  0  0  0
  -31.0570  -19.4232   22.5925 C   0  0  0  0  0  0
  -29.7396  -18.1956   19.4273 C   0  0  0  0  0  0
  -29.5033  -18.6321   20.8496 C   0  0  1  0  0  0
  -30.3221  -17.2901   20.4994 C   0  0  1  0  0  0
  -30.1859  -17.8377   24.0694 C   0  0  0  0  0  0
  -29.0711  -22.2184   20.4902 C   0  0  0  0  0  0
  -29.1532  -23.8544   20.6320 C   0  0  0  0  0  0
  -28.0879  -24.8978   20.0277 C   0  0  0  0  0  0
  -29.8564  -15.8695   20.6140 N   0  0  0  0  0  0
  -31.0785  -18.1140   22.9989 O   0  0  0  0  0  0
  -31.4732  -12.5612   19.1720 H   0  0  0  0  0  0
  -30.3698  -11.4640   19.9547 H   0  0  0  0  0  0
  -29.7911  -11.7286   17.5166 H   0  0  0  0  0  0
  -29.6397  -13.4555   17.7224 H   0  0  0  0  0  0
  -27.8902  -11.2790   18.9113 H   0  0  0  0  0  0
  -27.3799  -12.5219   17.7988 H   0  0  0  0  0  0
  -27.6393  -14.2488   19.4680 H   0  0  0  0  0  0
  -28.7188  -12.1607   21.4244 H   0  0  0  0  0  0
  -28.4259  -13.8428   21.7945 H   0  0  0  0  0  0
  -25.2747   -9.5703   22.4769 H   0  0  0  0  0  0
  -23.9999   -7.4643   22.7477 H   0  0  0  0  0  0
  -21.0836   -8.8767   19.8958 H   0  0  0  0  0  0
  -22.3674  -10.9676   19.6178 H   0  0  0  0  0  0
  -21.2009   -7.6147   23.9714 H   0  0  0  0  0  0
  -21.1482   -6.0521   25.9073 H   0  0  0  0  0  0
  -22.0597   -2.7614   23.2835 H   0  0  0  0  0  0
  -22.4052  -11.9928   22.4818 H   0  0  0  0  0  0
  -21.1073  -13.1312   22.2579 H   0  0  0  0  0  0
  -24.6550  -15.8435   20.5180 H   0  0  0  0  0  0
  -26.2633  -15.6265   20.0525 H   0  0  0  0  0  0
  -26.7215  -32.5408   23.1088 H   0  0  0  0  0  0
  -25.0129  -33.9702   25.0439 H   0  0  0  0  0  0
  -22.7252  -31.3026   21.3975 H   0  0  0  0  0  0
  -23.3757  -35.9601   23.3285 H   0  0  0  0  0  0
  -24.3577  -36.8918   22.2054 H   0  0  0  0  0  0
  -23.7220  -37.6470   23.6674 H   0  0  0  0  0  0
  -26.1149  -31.5337   20.6123 H   0  0  0  0  0  0
  -26.8488  -30.8159   22.0144 H   0  0  0  0  0  0
  -28.1159  -28.9264   21.2080 H   0  0  0  0  0  0
  -25.9538  -25.9139   18.9861 H   0  0  0  0  0  0
  -23.9717  -27.3152   18.9919 H   0  0  0  0  0  0
  -23.7693  -30.5915   19.4022 H   0  0  0  0  0  0
  -22.7624  -29.2488   19.8525 H   0  0  0  0  0  0
  -25.1290  -36.1916   25.0816 H   0  0  0  0  0  0
  -20.9994  -28.3290   24.1382 H   0  0  0  0  0  0
  -20.5693  -26.2321   23.3608 H   0  0  0  0  0  0
  -21.6655  -26.7456   22.1196 H   0  0  0  0  0  0
  -19.6926  -25.6290   21.1256 H   0  0  0  0  0  0
  -19.6701  -27.3177   20.6722 H   0  0  0  0  0  0
  -17.4210  -26.6684   21.4019 H   0  0  0  0  0  0
  -18.0343  -26.0081   22.9016 H   0  0  0  0  0  0
  -19.7945  -30.7282   24.2261 H   0  0  0  0  0  0
  -17.5024  -31.6272   24.5167 H   0  0  0  0  0  0
  -15.5362  -30.2991   23.7659 H   0  0  0  0  0  0
  -15.8682  -28.0818   22.7084 H   0  0  0  0  0  0
  -24.5880  -30.7140   25.7791 H   0  0  0  0  0  0
  -24.8958  -32.2942   26.4901 H   0  0  0  0  0  0
  -25.8037  -30.8921   27.0238 H   0  0  0  0  0  0
  -26.2961  -29.6755   24.1249 H   0  0  0  0  0  0
  -27.4018  -29.7284   25.4779 H   0  0  0  0  0  0
  -27.8850  -30.4285   23.9518 H   0  0  0  0  0  0
  -27.2650  -33.3648   26.2090 H   0  0  0  0  0  0
  -28.3866  -32.6926   25.0349 H   0  0  0  0  0  0
  -28.0735  -31.8495   26.5439 H   0  0  0  0  0  0
  -28.2579  -38.0109   24.7533 H   0  0  0  0  0  0
  -28.1096  -36.2641   24.6248 H   0  0  0  0  0  0
  -27.2307  -37.1394   25.8863 H   0  0  0  0  0  0
  -20.9404  -29.8765   21.6837 H   0  0  0  0  0  0
  -26.0163  -38.2842   24.1434 H   0  0  0  0  0  0
  -32.6488  -22.2941   23.4722 H   0  0  0  0  0  0
  -31.1268  -23.2051   21.8933 H   0  0  0  0  0  0
  -32.5944  -19.8860   24.0342 H   0  0  0  0  0  0
  -30.4428  -18.7796   18.8360 H   0  0  0  0  0  0
  -28.8830  -17.8171   18.8724 H   0  0  0  0  0  0
  -28.4927  -18.5155   21.2361 H   0  0  0  0  0  0
  -31.4030  -17.3907   20.5935 H   0  0  0  0  0  0
  -30.2498  -16.7821   24.3341 H   0  0  0  0  0  0
  -29.1528  -18.0471   23.7893 H   0  0  0  0  0  0
  -30.4298  -18.4222   24.9576 H   0  0  0  0  0  0
  -28.0715  -21.8982   20.7857 H   0  0  0  0  0  0
  -29.1738  -21.9460   19.4396 H   0  0  0  0  0  0
  -30.1215  -24.1673   20.2410 H   0  0  0  0  0  0
  -29.1634  -24.0841   21.6980 H   0  0  0  0  0  0
  -27.1250  -24.6372   20.4688 H   0  0  0  0  0  0
  -27.9960  -24.7053   18.9583 H   0  0  0  0  0  0
  -28.8775  -15.7256   20.8093 H   0  0  0  0  0  0
  1 25  1  0  0  0
  1 30  2  0  0  0
  1 84  1  0  0  0
  2  3  1  0  0  0
  2 25  1  0  0  0
  2 86  1  0  0  0
  2 87  1  0  0  0
  3  4  1  0  0  0
  3 88  1  0  0  0
  3 89  1  0  0  0
  4  5  1  0  0  0
  4 90  1  0  0  0
  4 91  1  0  0  0
  5  6  1  0  0  0
  5 26  1  0  0  0
  5 92  1  0  0  0
  6 25  1  0  0  0
  6 93  1  0  0  0
  6 94  1  0  0  0
  7  8  2  0  0  0
  7 26  1  0  0  0
  7 29  1  0  0  0
  8  9  1  0  0  0
  8 22  1  0  0  0
  9 10  1  0  0  0
  9 27  2  0  0  0
 10 11  2  0  0  0
 10 15  1  0  0  0
 11 12  1  0  0  0
 11 95  1  0  0  0
 12 13  2  0  0  0
 12 96  1  0  0  0
 13 14  1  0  0  0
 13 31  1  0  0  0
 14 15  2  0  0  0
 14 97  1  0  0  0
 15 98  1  0  0  0
 16 17  2  0  0  0
 16 21  1  0  0  0
 16 31  1  0  0  0
 17 18  1  0  0  0
 17 99  1  0  0  0
 18 19  2  0  0  0
 18100  1  0  0  0
 19 20  1  0  0  0
 19 24  1  0  0  0
 20 21  2  0  0  0
 20101  1  0  0  0
 21 23  1  0  0  0
 22 28  1  0  0  0
 22 32  2  0  0  0
 26 27  1  0  0  0
 28102  1  0  0  0
 28103  1  0  0  0
 29104  1  0  0  0
 29105  1  0  0  0
 33 34  1  0  0  0
 33 66  1  0  0  0
 33 70  2  0  0  0
 34 36  1  0  0  0
 34 59  1  0  0  0
 34106  1  0  0  0
 35 44  2  0  0  0
 35 45  1  0  0  0
 35 68  1  0  0  0
 36 56  1  0  0  0
 36107  1  0  0  0
 37 39  1  0  0  0
 37 47  1  0  0  0
 37 66  1  0  0  0
 37108  1  0  0  0
 38 43  2  0  0  0
 38 46  1  0  0  0
 38 47  1  0  0  0
 39 64  1  0  0  0
 39 67  2  0  0  0
 40 52  1  0  0  0
 40 53  2  0  0  0
 40 58  1  0  0  0
 41109  1  0  0  0
 41110  1  0  0  0
 41111  1  0  0  0
 41 48  1  0  0  0
 42 43  1  0  0  0
 42 66  1  0  0  0
 42112  1  0  0  0
 42113  1  0  0  0
 43 44  1  0  0  0
 44114  1  0  0  0
 45 46  2  0  0  0
 45115  1  0  0  0
 46116  1  0  0  0
 47117  1  0  0  0
 47118  1  0  0  0
 48 56  1  0  0  0
 48 65  1  0  0  0
 48119  1  0  0  0
 49 50  1  0  0  0
 49 53  1  0  0  0
 49 64  1  0  0  0
 49120  1  0  0  0
 50 51  1  0  0  0
 50121  1  0  0  0
 50122  1  0  0  0
 51 52  1  0  0  0
 51123  1  0  0  0
 51124  1  0  0  0
 52125  1  0  0  0
 52126  1  0  0  0
 53 54  1  0  0  0
 54 55  2  0  0  0
 54127  1  0  0  0
 55 57  1  0  0  0
 55128  1  0  0  0
 56 69  2  0  0  0
 57 58  2  0  0  0
 57129  1  0  0  0
 58130  1  0  0  0
 59 60  1  0  0  0
 59 61  1  0  0  0
 59 62  1  0  0  0
 60131  1  0  0  0
 60132  1  0  0  0
 60133  1  0  0  0
 61134  1  0  0  0
 61135  1  0  0  0
 61136  1  0  0  0
 62137  1  0  0  0
 62138  1  0  0  0
 62139  1  0  0  0
 63 65  1  0  0  0
 63140  1  0  0  0
 63141  1  0  0  0
 63142  1  0  0  0
 64143  1  0  0  0
 65144  1  0  0  0
 68 83  1  0  0  0
 71 72  2  0  0  0
 71 73  1  0  0  0
 71145  1  0  0  0
 72 75  1  0  0  0
 72146  1  0  0  0
 73 76  2  0  0  0
 73147  1  0  0  0
 74 75  2  0  0  0
 74 76  1  0  0  0
 74 78  1  0  0  0
 75 81  1  0  0  0
 76 85  1  0  0  0
 77 78  1  0  0  0
 77 79  1  0  0  0
 77148  1  0  0  0
 77149  1  0  0  0
 78 79  1  0  0  0
 78150  1  0  0  0
 79 84  1  0  0  0
 79151  1  0  0  0
 80 85  1  0  0  0
 80152  1  0  0  0
 80153  1  0  0  0
 80154  1  0  0  0
 81 82  1  0  0  0
 81155  1  0  0  0
 81156  1  0  0  0
 82 83  1  0  0  0
 82157  1  0  0  0
 82158  1  0  0  0
 83159  1  0  0  0
 83160  1  0  0  0
 84161  1  0  0  0
M  ISO  4   1 100  68 101  83 101  84 100
M  END
> <chiral flag>
0

> <version>
0

> <s_m_source_file>
/data/baiqing/PycharmProjects/Reinvent-master-3.2/result/LINK_invent/BTK/process_docking_weight1_custom_sum_contain_oxygen_bond_distance_aromatic_linkinvent_7_9_3/rearranged_h_0143.sdf

> <i_m_source_file_index>
2

> <r_mmod_Potential_Energy-OPLS-2005>
263.753662109375

> <r_mmod_Stretch_Energy-OPLS-2005>
138.598785400391

> <r_mmod_Bend_Energy-OPLS-2005>
185.413543701172

> <r_mmod_Torsional_Energy-OPLS-2005>
300.688049316406

> <r_mmod_Improper_Torsional_Energy-OPLS-2005>
5.522047996521

> <r_mmod_Van_der_Waal_Energy-OPLS-2005>
151.484817504883

> <r_mmod_Electrostatic_Energy-OPLS-2005>
-383.35986328125

> <r_mmod_Solvation_Energy-OPLS-2005>
-215.522598266602

> <b_mmod_Minimization_Converged-OPLS-2005>
0

> <r_mmod_RMS_Derivative-OPLS-2005>
1.01713752746582

$$$$
2
                    3D
 Structure written by MMmdl.
160169  0  0  1  0            999 V2000
  -30.5723  -14.7771   20.4058 C   0  0  0  0  0  0
  -30.4273  -12.4437   19.5137 C   0  0  0  0  0  0
  -29.5307  -12.4100   18.2579 C   0  0  0  0  0  0
  -28.0350  -12.3168   18.6321 C   0  0  0  0  0  0
  -27.6278  -13.2242   19.8241 C   0  0  2  0  0  0
  -28.6583  -13.1872   20.9706 C   0  0  0  0  0  0
  -25.2487  -13.8165   20.5653 C   0  0  0  0  0  0
  -24.1770  -13.0453   20.9219 C   0  0  0  0  0  0
  -24.6305  -11.6904   20.8673 C   0  0  0  0  0  0
  -23.8984  -10.4285   21.0381 C   0  0  0  0  0  0
  -24.3576   -9.4244   21.9189 C   0  0  0  0  0  0
  -23.6254   -8.2282   22.0797 C   0  0  0  0  0  0
  -22.4240   -8.0286   21.3581 C   0  0  0  0  0  0
  -21.9832   -9.0243   20.4679 C   0  0  0  0  0  0
  -22.7138  -10.2128   20.3049 C   0  0  0  0  0  0
  -21.6869   -6.0699   22.5281 C   0  0  0  0  0  0
  -21.4007   -6.5619   23.8202 C   0  0  0  0  0  0
  -21.3638   -5.6796   24.9188 C   0  0  0  0  0  0
  -21.6027   -4.3059   24.7255 C   0  0  0  0  0  0
  -21.8817   -3.8129   23.4391 C   0  0  0  0  0  0
  -21.9210   -4.6925   22.3425 C   0  0  0  0  0  0
  -22.7819  -13.5337   21.1854 C   0  0  0  0  0  0
  -22.1713   -4.2113   21.1019 F   0  0  0  0  0  0
  -21.5599   -3.4559   25.7772 F   0  0  0  0  0  0
  -29.9628  -13.5386   20.4012 N   0  0  0  0  0  0
  -26.2823  -12.9322   20.3068 N   0  0  0  0  0  0
  -25.9203  -11.6482   20.5547 N   0  0  0  0  0  0
  -22.0317  -12.8430   22.0360 N   0  0  0  0  0  0
  -25.4343  -15.1876   20.4163 N   0  0  0  0  0  0
  -31.7657  -14.8576   20.0964 O   0  0  0  0  0  0
  -21.6656   -6.8854   21.4247 O   0  0  0  0  0  0
  -22.3621  -14.5674   20.6654 O   0  0  0  0  0  0
  -24.6389  -31.8531   23.1931 C   0  0  0  0  0  0
  -25.9177  -32.4745   23.8322 C   0  0  1  0  0  0
  -27.2196  -27.2360   20.1052 C   0  0  0  0  0  0
  -25.5963  -33.8543   24.2247 N   0  0  0  0  0  0
  -23.4350  -30.4776   21.5398 C   0  0  2  0  0  0
  -24.8779  -28.9173   20.1113 C   0  0  0  0  0  0
  -22.7540  -29.4641   22.4902 C   0  0  0  0  0  0
  -18.0308  -28.1455   22.8496 C   0  0  0  0  0  0
  -24.1478  -36.7270   23.2645 C   0  0  0  0  0  0
  -25.9854  -30.7544   21.3768 C   0  0  0  0  0  0
  -26.0562  -29.3733   20.7198 C   0  0  0  0  0  0
  -27.2261  -28.5427   20.7102 C   0  0  0  0  0  0
  -26.0166  -26.8633   19.4592 C   0  0  0  0  0  0
  -24.8648  -27.6688   19.4766 C   0  0  0  0  0  0
  -23.6511  -29.8063   20.1595 C   0  0  0  0  0  0
  -25.4105  -36.3064   24.0331 C   0  0  1  0  0  0
  -20.5913  -28.3775   23.1235 C   0  0  2  0  0  0
  -20.6799  -26.9474   22.5397 C   0  0  0  0  0  0
  -19.5753  -26.6423   21.5233 C   0  0  0  0  0  0
  -18.1937  -26.8002   22.1642 C   0  0  0  0  0  0
  -19.1561  -28.8915   23.2875 C   0  0  0  0  0  0
  -18.9481  -30.1517   23.8897 C   0  0  0  0  0  0
  -17.6469  -30.6625   24.0586 C   0  0  0  0  0  0
  -25.9065  -34.9436   23.5076 C   0  0  0  0  0  0
  -16.5360  -29.9123   23.6360 C   0  0  0  0  0  0
  -16.7290  -28.6558   23.0346 C   0  0  0  0  0  0
  -26.4510  -31.6587   25.0733 C   0  0  0  0  0  0
  -25.3691  -31.3746   26.1417 C   0  0  0  0  0  0
  -27.0363  -30.2995   24.6267 C   0  0  0  0  0  0
  -27.6059  -32.4339   25.7508 C   0  0  0  0  0  0
  -27.5574  -37.1782   24.8463 C   0  0  0  0  0  0
  -21.4239  -29.3097   22.3595 N   0  0  0  0  0  0
  -26.4289  -37.3760   23.9418 N   0  0  0  0  0  0
  -24.7068  -31.0471   22.0932 N   0  0  0  0  0  0
  -23.4204  -28.8186   23.3030 O   0  0  0  0  0  0
  -28.3023  -26.3165   20.1548 O   0  0  0  0  0  0
  -26.5628  -34.8918   22.4651 O   0  0  0  0  0  0
  -23.5522  -32.1376   23.7200 O   0  0  0  0  0  0
  -29.3989  -18.3571   17.6851 C   0  0  0  0  0  0
  -29.2261  -19.6092   18.2982 C   0  0  0  0  0  0
  -29.6346  -17.1827   18.4202 C   0  0  0  0  0  0
  -29.7153  -17.2170   19.8392 C   0  0  0  0  0  0
  -29.3179  -19.6601   19.7152 C   0  0  0  0  0  0
  -27.6588  -21.1890   16.8779 C   0  0  0  0  0  0
  -28.7267  -20.7489   15.9160 C   0  0  0  0  0  0
  -29.0339  -20.8183   17.4052 C   0  0  0  0  0  0
  -29.7288  -15.9053   17.6083 C   0  0  0  0  0  0
  -29.0339  -23.6167   20.2378 C   0  0  0  0  0  0
  -28.0542  -24.8527   19.8421 C   0  0  0  0  0  0
  -28.4627  -22.0910   20.1654 C   0  0  0  0  0  0
  -29.5537  -18.4776   20.4316 N   0  0  0  0  0  0
  -29.7821  -15.9184   20.5793 N   0  0  0  0  0  0
  -29.3219  -20.8908   20.4470 O   0  0  0  0  0  0
  -31.4713  -12.5634   19.2244 H   0  0  0  0  0  0
  -30.3811  -11.4906   20.0383 H   0  0  0  0  0  0
  -29.8031  -11.5498   17.6455 H   0  0  0  0  0  0
  -29.7362  -13.2691   17.6274 H   0  0  0  0  0  0
  -27.8343  -11.2757   18.8825 H   0  0  0  0  0  0
  -27.4173  -12.5376   17.7609 H   0  0  0  0  0  0
  -27.6042  -14.2367   19.4245 H   0  0  0  0  0  0
  -28.6962  -12.1936   21.4218 H   0  0  0  0  0  0
  -28.3654  -13.8748   21.7652 H   0  0  0  0  0  0
  -25.2719   -9.5774   22.4774 H   0  0  0  0  0  0
  -23.9934   -7.4704   22.7553 H   0  0  0  0  0  0
  -21.0740   -8.8729   19.9017 H   0  0  0  0  0  0
  -22.3548  -10.9661   19.6160 H   0  0  0  0  0  0
  -21.1996   -7.6121   23.9680 H   0  0  0  0  0  0
  -21.1465   -6.0561   25.9089 H   0  0  0  0  0  0
  -22.0602   -2.7591   23.2918 H   0  0  0  0  0  0
  -22.3756  -12.0134   22.4957 H   0  0  0  0  0  0
  -21.0860  -13.1507   22.2222 H   0  0  0  0  0  0
  -24.6945  -15.8622   20.5798 H   0  0  0  0  0  0
  -26.2968  -15.6127   20.0996 H   0  0  0  0  0  0
  -26.7267  -32.5368   23.1096 H   0  0  0  0  0  0
  -25.0129  -33.9684   25.0412 H   0  0  0  0  0  0
  -22.7396  -31.3066   21.3883 H   0  0  0  0  0  0
  -23.3768  -35.9570   23.3278 H   0  0  0  0  0  0
  -24.3587  -36.8922   22.2066 H   0  0  0  0  0  0
  -23.7180  -37.6447   23.6686 H   0  0  0  0  0  0
  -26.1242  -31.5079   20.5997 H   0  0  0  0  0  0
  -26.8663  -30.8077   22.0064 H   0  0  0  0  0  0
  -28.1256  -28.8804   21.2056 H   0  0  0  0  0  0
  -25.9297  -25.9202   18.9402 H   0  0  0  0  0  0
  -23.9622  -27.3119   18.9980 H   0  0  0  0  0  0
  -23.7761  -30.5778   19.3986 H   0  0  0  0  0  0
  -22.7677  -29.2384   19.8578 H   0  0  0  0  0  0
  -25.1288  -36.1905   25.0827 H   0  0  0  0  0  0
  -21.0054  -28.3377   24.1338 H   0  0  0  0  0  0
  -20.5742  -26.2389   23.3633 H   0  0  0  0  0  0
  -21.6654  -26.7512   22.1139 H   0  0  0  0  0  0
  -19.6888  -25.6323   21.1279 H   0  0  0  0  0  0
  -19.6680  -27.3231   20.6761 H   0  0  0  0  0  0
  -17.4204  -26.6796   21.4030 H   0  0  0  0  0  0
  -18.0299  -26.0142   22.9039 H   0  0  0  0  0  0
  -19.7937  -30.7362   24.2261 H   0  0  0  0  0  0
  -17.4994  -31.6293   24.5213 H   0  0  0  0  0  0
  -15.5354  -30.3004   23.7673 H   0  0  0  0  0  0
  -15.8708  -28.0868   22.7044 H   0  0  0  0  0  0
  -24.5898  -30.7083   25.7707 H   0  0  0  0  0  0
  -24.8861  -32.2910   26.4809 H   0  0  0  0  0  0
  -25.7960  -30.8931   27.0223 H   0  0  0  0  0  0
  -26.2960  -29.6721   24.1286 H   0  0  0  0  0  0
  -27.4008  -29.7287   25.4826 H   0  0  0  0  0  0
  -27.8854  -30.4272   23.9547 H   0  0  0  0  0  0
  -27.2682  -33.3658   26.2065 H   0  0  0  0  0  0
  -28.3873  -32.6866   25.0324 H   0  0  0  0  0  0
  -28.0728  -31.8476   26.5442 H   0  0  0  0  0  0
  -28.2557  -38.0117   24.7549 H   0  0  0  0  0  0
  -28.1111  -36.2639   24.6240 H   0  0  0  0  0  0
  -27.2311  -37.1361   25.8876 H   0  0  0  0  0  0
  -20.9448  -29.8781   21.6755 H   0  0  0  0  0  0
  -26.0160  -38.2829   24.1461 H   0  0  0  0  0  0
  -29.3593  -18.2777   16.6092 H   0  0  0  0  0  0
  -26.8408  -20.4932   17.0538 H   0  0  0  0  0  0
  -27.3726  -22.2395   16.8490 H   0  0  0  0  0  0
  -29.1516  -21.5212   15.2808 H   0  0  0  0  0  0
  -28.5359  -19.8044   15.4137 H   0  0  0  0  0  0
  -29.7123  -21.6184   17.6970 H   0  0  0  0  0  0
  -30.6924  -15.4249   17.7697 H   0  0  0  0  0  0
  -29.6421  -16.0731   16.5332 H   0  0  0  0  0  0
  -28.9119  -15.2447   17.8907 H   0  0  0  0  0  0
  -29.3921  -23.7783   21.2557 H   0  0  0  0  0  0
  -29.9239  -23.6744   19.6145 H   0  0  0  0  0  0
  -27.0846  -24.5805   20.2589 H   0  0  0  0  0  0
  -27.9335  -24.7928   18.7583 H   0  0  0  0  0  0
  -27.8777  -21.9692   19.2636 H   0  0  0  0  0  0
  -27.6913  -22.0357   20.9346 H   0  0  0  0  0  0
  -28.9568  -15.7489   21.1326 H   0  0  0  0  0  0
  1 25  1  0  0  0
  1 30  2  0  0  0
  1 84  1  0  0  0
  2  3  1  0  0  0
  2 25  1  0  0  0
  2 86  1  0  0  0
  2 87  1  0  0  0
  3  4  1  0  0  0
  3 88  1  0  0  0
  3 89  1  0  0  0
  4  5  1  0  0  0
  4 90  1  0  0  0
  4 91  1  0  0  0
  5  6  1  0  0  0
  5 26  1  0  0  0
  5 92  1  0  0  0
  6 25  1  0  0  0
  6 93  1  0  0  0
  6 94  1  0  0  0
  7  8  2  0  0  0
  7 26  1  0  0  0
  7 29  1  0  0  0
  8  9  1  0  0  0
  8 22  1  0  0  0
  9 10  1  0  0  0
  9 27  2  0  0  0
 10 11  2  0  0  0
 10 15  1  0  0  0
 11 12  1  0  0  0
 11 95  1  0  0  0
 12 13  2  0  0  0
 12 96  1  0  0  0
 13 14  1  0  0  0
 13 31  1  0  0  0
 14 15  2  0  0  0
 14 97  1  0  0  0
 15 98  1  0  0  0
 16 17  2  0  0  0
 16 21  1  0  0  0
 16 31  1  0  0  0
 17 18  1  0  0  0
 17 99  1  0  0  0
 18 19  2  0  0  0
 18100  1  0  0  0
 19 20  1  0  0  0
 19 24  1  0  0  0
 20 21  2  0  0  0
 20101  1  0  0  0
 21 23  1  0  0  0
 22 28  1  0  0  0
 22 32  2  0  0  0
 26 27  1  0  0  0
 28102  1  0  0  0
 28103  1  0  0  0
 29104  1  0  0  0
 29105  1  0  0  0
 33 34  1  0  0  0
 33 66  1  0  0  0
 33 70  2  0  0  0
 34 36  1  0  0  0
 34 59  1  0  0  0
 34106  1  0  0  0
 35 44  2  0  0  0
 35 45  1  0  0  0
 35 68  1  0  0  0
 36 56  1  0  0  0
 36107  1  0  0  0
 37 39  1  0  0  0
 37 47  1  0  0  0
 37 66  1  0  0  0
 37108  1  0  0  0
 38 43  2  0  0  0
 38 46  1  0  0  0
 38 47  1  0  0  0
 39 64  1  0  0  0
 39 67  2  0  0  0
 40 52  1  0  0  0
 40 53  2  0  0  0
 40 58  1  0  0  0
 41109  1  0  0  0
 41110  1  0  0  0
 41111  1  0  0  0
 41 48  1  0  0  0
 42 43  1  0  0  0
 42 66  1  0  0  0
 42112  1  0  0  0
 42113  1  0  0  0
 43 44  1  0  0  0
 44114  1  0  0  0
 45 46  2  0  0  0
 45115  1  0  0  0
 46116  1  0  0  0
 47117  1  0  0  0
 47118  1  0  0  0
 48 56  1  0  0  0
 48 65  1  0  0  0
 48119  1  0  0  0
 49 50  1  0  0  0
 49 53  1  0  0  0
 49 64  1  0  0  0
 49120  1  0  0  0
 50 51  1  0  0  0
 50121  1  0  0  0
 50122  1  0  0  0
 51 52  1  0  0  0
 51123  1  0  0  0
 51124  1  0  0  0
 52125  1  0  0  0
 52126  1  0  0  0
 53 54  1  0  0  0
 54 55  2  0  0  0
 54127  1  0  0  0
 55 57  1  0  0  0
 55128  1  0  0  0
 56 69  2  0  0  0
 57 58  2  0  0  0
 57129  1  0  0  0
 58130  1  0  0  0
 59 60  1  0  0  0
 59 61  1  0  0  0
 59 62  1  0  0  0
 60131  1  0  0  0
 60132  1  0  0  0
 60133  1  0  0  0
 61134  1  0  0  0
 61135  1  0  0  0
 61136  1  0  0  0
 62137  1  0  0  0
 62138  1  0  0  0
 62139  1  0  0  0
 63 65  1  0  0  0
 63140  1  0  0  0
 63141  1  0  0  0
 63142  1  0  0  0
 64143  1  0  0  0
 65144  1  0  0  0
 68 81  1  0  0  0
 71 72  2  0  0  0
 71 73  1  0  0  0
 71145  1  0  0  0
 72 75  1  0  0  0
 72 78  1  0  0  0
 73 74  2  0  0  0
 73 79  1  0  0  0
 74 83  1  0  0  0
 74 84  1  0  0  0
 75 83  2  0  0  0
 75 85  1  0  0  0
 76 77  1  0  0  0
 76 78  1  0  0  0
 76146  1  0  0  0
 76147  1  0  0  0
 77 78  1  0  0  0
 77148  1  0  0  0
 77149  1  0  0  0
 78150  1  0  0  0
 79151  1  0  0  0
 79152  1  0  0  0
 79153  1  0  0  0
 80 81  1  0  0  0
 80 82  1  0  0  0
 80154  1  0  0  0
 80155  1  0  0  0
 81156  1  0  0  0
 81157  1  0  0  0
 82 85  1  0  0  0
 82158  1  0  0  0
 82159  1  0  0  0
 84160  1  0  0  0
M  ISO  4   1 100  68 101  81 101  84 100
M  END
> <chiral flag>
0

> <version>
0

> <s_m_source_file>
/data/baiqing/PycharmProjects/Reinvent-master-3.2/result/LINK_invent/BTK/process_docking_weight1_custom_sum_contain_oxygen_bond_distance_aromatic_linkinvent_7_9_3/rearranged_h_0143.sdf

> <i_m_source_file_index>
3

> <r_mmod_Potential_Energy-OPLS-2005>
156.702041625977

> <r_mmod_Stretch_Energy-OPLS-2005>
144.407012939453

> <r_mmod_Bend_Energy-OPLS-2005>
199.243270874023

> <r_mmod_Torsional_Energy-OPLS-2005>
291.68115234375

> <r_mmod_Improper_Torsional_Energy-OPLS-2005>
6.18806648254395

> <r_mmod_Van_der_Waal_Energy-OPLS-2005>
153.737045288086

> <r_mmod_Electrostatic_Energy-OPLS-2005>
-516.856811523438

> <r_mmod_Solvation_Energy-OPLS-2005>
-227.611541748047

> <b_mmod_Minimization_Converged-OPLS-2005>
0

> <r_mmod_RMS_Derivative-OPLS-2005>
5.0841817855835

$$$$
3
                    3D
 Structure written by MMmdl.
155164  0  0  1  0            999 V2000
  -28.4197  -18.5473   20.6476 C   0  0  0  0  0  0
  -29.6156  -15.3941   19.6850 C   0  0  0  0  0  0
  -29.3977  -13.9995   18.7190 C   0  0  0  0  0  0
  -28.3894  -12.9577   19.1965 C   0  0  0  0  0  0
  -27.4571  -13.8650   19.9857 C   0  0  2  0  0  0
  -28.0399  -15.1157   20.9621 C   0  0  0  0  0  0
  -25.0981  -13.9267   20.6205 C   0  0  0  0  0  0
  -24.1134  -13.0592   20.9455 C   0  0  0  0  0  0
  -24.6729  -11.7440   20.8716 C   0  0  0  0  0  0
  -23.9634  -10.4467   21.0183 C   0  0  0  0  0  0
  -24.3989   -9.4363   21.9064 C   0  0  0  0  0  0
  -23.6535   -8.2436   22.0730 C   0  0  0  0  0  0
  -22.4502   -8.0434   21.3542 C   0  0  0  0  0  0
  -22.0249   -9.0421   20.4599 C   0  0  0  0  0  0
  -22.7718  -10.2235   20.2919 C   0  0  0  0  0  0
  -21.6956   -6.0825   22.5277 C   0  0  0  0  0  0
  -21.4083   -6.5691   23.8218 C   0  0  0  0  0  0
  -21.3679   -5.6820   24.9160 C   0  0  0  0  0  0
  -21.6043   -4.3085   24.7203 C   0  0  0  0  0  0
  -21.8811   -3.8195   23.4320 C   0  0  0  0  0  0
  -21.9223   -4.7028   22.3384 C   0  0  0  0  0  0
  -22.7028  -13.4778   21.1999 C   0  0  0  0  0  0
  -22.1673   -4.2206   21.0961 F   0  0  0  0  0  0
  -21.5613   -3.4556   25.7706 F   0  0  0  0  0  0
  -28.4861  -16.6344   20.3525 N   0  0  0  0  0  0
  -26.2317  -13.1915   20.4375 N   0  0  0  0  0  0
  -25.9924  -11.8351   20.5890 N   0  0  0  0  0  0
  -21.9955  -12.7639   22.0619 N   0  0  0  0  0  0
  -25.1137  -15.3061   20.4321 N   0  0  0  0  0  0
  -29.7188  -18.1403   20.5956 O   0  0  0  0  0  0
  -21.6800   -6.9041   21.4272 O   0  0  0  0  0  0
  -22.2466  -14.4983   20.6844 O   0  0  0  0  0  0
  -24.5293  -30.8402   23.1799 C   0  0  0  0  0  0
  -25.6902  -32.0031   23.8063 C   0  0  1  0  0  0
  -28.1040  -27.6395   18.5760 C   0  0  0  0  0  0
  -25.2788  -33.5017   23.9359 N   0  0  0  0  0  0
  -23.5696  -28.4136   22.0050 C   0  0  2  0  0  0
  -26.7537  -26.4179   20.4102 C   0  0  0  0  0  0
  -22.5878  -28.7621   22.9738 C   0  0  0  0  0  0
  -17.9191  -28.1461   22.8214 C   0  0  0  0  0  0
  -24.1263  -36.5806   23.2755 C   0  0  0  0  0  0
  -27.0402  -28.9312   21.0549 C   0  0  0  0  0  0
  -27.5887  -27.6770   20.5888 C   0  0  0  0  0  0
  -28.6233  -27.9692   19.8006 C   0  0  0  0  0  0
  -27.8593  -26.3566   18.3447 C   0  0  0  0  0  0
  -27.2026  -25.7495   19.2953 C   0  0  0  0  0  0
  -24.0828  -26.4568   21.6057 C   0  0  0  0  0  0
  -25.3841  -36.0833   24.0079 C   0  0  1  0  0  0
  -20.4073  -28.2388   23.2447 C   0  0  2  0  0  0
  -20.4721  -26.8108   22.6468 C   0  0  0  0  0  0
  -19.4664  -26.6050   21.5295 C   0  0  0  0  0  0
  -18.0655  -26.8060   22.1108 C   0  0  0  0  0  0
  -19.0421  -28.8588   23.2935 C   0  0  0  0  0  0
  -18.8899  -30.1260   23.8920 C   0  0  0  0  0  0
  -17.6069  -30.6742   24.0497 C   0  0  0  0  0  0
  -25.8300  -34.6742   23.4515 C   0  0  0  0  0  0
  -16.4812  -29.9480   23.6205 C   0  0  0  0  0  0
  -16.6368  -28.6904   23.0080 C   0  0  0  0  0  0
  -26.4207  -31.6590   25.1892 C   0  0  0  0  0  0
  -25.3576  -31.2891   26.2320 C   0  0  0  0  0  0
  -27.5111  -30.5801   25.1416 C   0  0  0  0  0  0
  -27.2961  -32.8128   25.7592 C   0  0  0  0  0  0
  -27.5133  -37.0699   24.8450 C   0  0  0  0  0  0
  -21.3631  -29.0739   22.5818 N   0  0  0  0  0  0
  -26.3968  -37.1804   23.9121 N   0  0  0  0  0  0
  -24.7518  -29.4890   22.2275 N   0  0  0  0  0  0
  -22.9862  -28.6214   24.1114 O   0  0  0  0  0  0
  -26.8904  -28.1539   18.3859 O   0  0  0  0  0  0
  -26.6561  -34.6771   22.5373 O   0  0  0  0  0  0
  -23.4419  -31.3772   23.4804 O   0  0  0  0  0  0
  -26.3398  -25.0415   22.2431 C   0  0  0  0  0  0
  -25.2283  -24.4095   20.0496 C   0  0  0  0  0  0
  -26.0033  -27.1981   22.3340 C   0  0  0  0  0  0
  -24.7246  -26.2203   19.4257 C   0  0  0  0  0  0
  -26.3996  -23.3059   21.0902 C   0  0  0  0  0  0
  -25.1219  -27.8984   20.3366 C   0  0  0  0  0  0
  -26.6578  -28.9308   23.2089 C   0  0  0  0  0  0
  -26.2162  -30.8899   21.3341 C   0  0  0  0  0  0
  -23.2649  -27.1482   17.6273 C   0  0  0  0  0  0
  -25.8042  -27.6562   17.4750 C   0  0  0  0  0  0
  -24.6673  -26.5917   17.9379 C   0  0  1  0  0  0
  -27.4019  -20.6804   20.8397 N   0  0  0  0  0  0
  -25.2137  -29.6243   20.0668 O   0  0  0  0  0  0
  -30.2106  -16.0251   19.0210 H   0  0  0  0  0  0
  -30.3739  -15.1617   20.4398 H   0  0  0  0  0  0
  -30.3640  -13.5273   18.5348 H   0  0  0  0  0  0
  -29.0701  -14.3477   17.7387 H   0  0  0  0  0  0
  -28.8596  -12.2327   19.8604 H   0  0  0  0  0  0
  -27.8987  -12.4313   18.3767 H   0  0  0  0  0  0
  -27.0667  -14.4516   19.1491 H   0  0  0  0  0  0
  -28.7456  -14.7210   21.7026 H   0  0  0  0  0  0
  -27.2485  -15.3948   21.6533 H   0  0  0  0  0  0
  -25.3075   -9.5832   22.4740 H   0  0  0  0  0  0
  -24.0169   -7.4870   22.7544 H   0  0  0  0  0  0
  -21.1155   -8.9002   19.8923 H   0  0  0  0  0  0
  -22.4142  -10.9749   19.6020 H   0  0  0  0  0  0
  -21.2103   -7.6203   23.9740 H   0  0  0  0  0  0
  -21.1493   -6.0539   25.9063 H   0  0  0  0  0  0
  -22.0555   -2.7658   23.2808 H   0  0  0  0  0  0
  -22.3860  -11.9454   22.5039 H   0  0  0  0  0  0
  -21.0490  -13.0375   22.2840 H   0  0  0  0  0  0
  -24.2670  -15.8623   20.4847 H   0  0  0  0  0  0
  -25.9267  -15.8334   20.1388 H   0  0  0  0  0  0
  -26.5834  -32.1087   23.2039 H   0  0  0  0  0  0
  -24.5187  -33.6434   24.5870 H   0  0  0  0  0  0
  -23.0685  -28.7721   21.0998 H   0  0  0  0  0  0
  -23.3286  -35.8386   23.3196 H   0  0  0  0  0  0
  -24.3262  -36.7773   22.2219 H   0  0  0  0  0  0
  -23.7352  -37.4956   23.7197 H   0  0  0  0  0  0
  -27.2540  -29.4893   20.1165 H   0  0  0  0  0  0
  -27.9594  -29.3647   21.5088 H   0  0  0  0  0  0
  -29.1966  -28.8891   19.8602 H   0  0  0  0  0  0
  -28.0548  -25.8980   17.3863 H   0  0  0  0  0  0
  -27.0450  -24.7568   18.9152 H   0  0  0  0  0  0
  -23.2452  -25.9447   21.1172 H   0  0  0  0  0  0
  -24.0250  -25.9073   22.5551 H   0  0  0  0  0  0
  -25.1223  -35.9452   25.0582 H   0  0  0  0  0  0
  -20.6405  -28.1426   24.3097 H   0  0  0  0  0  0
  -20.2139  -26.1121   23.4439 H   0  0  0  0  0  0
  -21.4624  -26.4952   22.3354 H   0  0  0  0  0  0
  -19.5598  -25.6016   21.1122 H   0  0  0  0  0  0
  -19.6519  -27.3094   20.7169 H   0  0  0  0  0  0
  -17.3264  -26.7325   21.3104 H   0  0  0  0  0  0
  -17.8333  -26.0086   22.8197 H   0  0  0  0  0  0
  -19.7541  -30.6667   24.2538 H   0  0  0  0  0  0
  -17.4819  -31.6407   24.5183 H   0  0  0  0  0  0
  -15.4916  -30.3629   23.7490 H   0  0  0  0  0  0
  -15.7616  -28.1489   22.6706 H   0  0  0  0  0  0
  -24.8044  -30.3924   25.9463 H   0  0  0  0  0  0
  -24.6303  -32.0931   26.3554 H   0  0  0  0  0  0
  -25.8035  -31.0924   27.2087 H   0  0  0  0  0  0
  -27.2167  -29.5986   25.4998 H   0  0  0  0  0  0
  -28.2876  -30.7282   25.8938 H   0  0  0  0  0  0
  -28.1088  -30.6173   24.2303 H   0  0  0  0  0  0
  -26.7040  -33.6974   25.9919 H   0  0  0  0  0  0
  -28.0779  -33.1268   25.0644 H   0  0  0  0  0  0
  -27.7685  -32.5740   26.7148 H   0  0  0  0  0  0
  -28.2095  -37.8967   24.7012 H   0  0  0  0  0  0
  -28.0672  -36.1416   24.6991 H   0  0  0  0  0  0
  -27.1697  -37.1037   25.8800 H   0  0  0  0  0  0
  -21.2059  -29.2580   21.6000 H   0  0  0  0  0  0
  -25.9605  -38.0879   24.0491 H   0  0  0  0  0  0
  -26.9007  -24.7968   23.1304 H   0  0  0  0  0  0
  -24.9316  -23.7648   19.2361 H   0  0  0  0  0  0
  -27.6949  -28.7181   23.4860 H   0  0  0  0  0  0
  -26.0326  -28.9106   24.1050 H   0  0  0  0  0  0
  -27.1392  -31.3224   20.9325 H   0  0  0  0  0  0
  -25.6254  -31.8141   21.3515 H   0  0  0  0  0  0
  -23.0676  -28.0499   18.2117 H   0  0  0  0  0  0
  -22.4851  -26.4255   17.8672 H   0  0  0  0  0  0
  -23.1611  -27.4083   16.5737 H   0  0  0  0  0  0
  -25.2759  -28.5737   17.2132 H   0  0  0  0  0  0
  -26.2409  -27.3429   16.5229 H   0  0  0  0  0  0
  -24.8033  -25.6704   17.3712 H   0  0  0  0  0  0
  -28.3281  -20.9536   21.1476 H   0  0  0  0  0  0
  1 25  1  0  0  0
  1 30  2  0  0  0
  1 82  1  0  0  0
  2  3  1  0  0  0
  2 25  1  0  0  0
  2 84  1  0  0  0
  2 85  1  0  0  0
  3  4  1  0  0  0
  3 86  1  0  0  0
  3 87  1  0  0  0
  4  5  1  0  0  0
  4 88  1  0  0  0
  4 89  1  0  0  0
  5  6  1  0  0  0
  5 26  1  0  0  0
  5 90  1  0  0  0
  6 25  1  0  0  0
  6 91  1  0  0  0
  6 92  1  0  0  0
  7  8  2  0  0  0
  7 26  1  0  0  0
  7 29  1  0  0  0
  8  9  1  0  0  0
  8 22  1  0  0  0
  9 10  1  0  0  0
  9 27  2  0  0  0
 10 11  2  0  0  0
 10 15  1  0  0  0
 11 12  1  0  0  0
 11 93  1  0  0  0
 12 13  2  0  0  0
 12 94  1  0  0  0
 13 14  1  0  0  0
 13 31  1  0  0  0
 14 15  2  0  0  0
 14 95  1  0  0  0
 15 96  1  0  0  0
 16 17  2  0  0  0
 16 21  1  0  0  0
 16 31  1  0  0  0
 17 18  1  0  0  0
 17 97  1  0  0  0
 18 19  2  0  0  0
 18 98  1  0  0  0
 19 20  1  0  0  0
 19 24  1  0  0  0
 20 21  2  0  0  0
 20 99  1  0  0  0
 21 23  1  0  0  0
 22 28  1  0  0  0
 22 32  2  0  0  0
 26 27  1  0  0  0
 28100  1  0  0  0
 28101  1  0  0  0
 29102  1  0  0  0
 29103  1  0  0  0
 33 34  1  0  0  0
 33 66  1  0  0  0
 33 70  2  0  0  0
 34 36  1  0  0  0
 34 59  1  0  0  0
 34104  1  0  0  0
 35 44  2  0  0  0
 35 45  1  0  0  0
 35 68  1  0  0  0
 36 56  1  0  0  0
 36105  1  0  0  0
 37 39  1  0  0  0
 37 47  1  0  0  0
 37 66  1  0  0  0
 37106  1  0  0  0
 38 43  2  0  0  0
 38 46  1  0  0  0
 38 47  1  0  0  0
 39 64  1  0  0  0
 39 67  2  0  0  0
 40 52  1  0  0  0
 40 53  2  0  0  0
 40 58  1  0  0  0
 41107  1  0  0  0
 41108  1  0  0  0
 41109  1  0  0  0
 41 48  1  0  0  0
 42 43  1  0  0  0
 42 66  1  0  0  0
 42110  1  0  0  0
 42111  1  0  0  0
 43 44  1  0  0  0
 44112  1  0  0  0
 45 46  2  0  0  0
 45113  1  0  0  0
 46114  1  0  0  0
 47115  1  0  0  0
 47116  1  0  0  0
 48 56  1  0  0  0
 48 65  1  0  0  0
 48117  1  0  0  0
 49 50  1  0  0  0
 49 53  1  0  0  0
 49 64  1  0  0  0
 49118  1  0  0  0
 50 51  1  0  0  0
 50119  1  0  0  0
 50120  1  0  0  0
 51 52  1  0  0  0
 51121  1  0  0  0
 51122  1  0  0  0
 52123  1  0  0  0
 52124  1  0  0  0
 53 54  1  0  0  0
 54 55  2  0  0  0
 54125  1  0  0  0
 55 57  1  0  0  0
 55126  1  0  0  0
 56 69  2  0  0  0
 57 58  2  0  0  0
 57127  1  0  0  0
 58128  1  0  0  0
 59 60  1  0  0  0
 59 61  1  0  0  0
 59 62  1  0  0  0
 60129  1  0  0  0
 60130  1  0  0  0
 60131  1  0  0  0
 61132  1  0  0  0
 61133  1  0  0  0
 61134  1  0  0  0
 62135  1  0  0  0
 62136  1  0  0  0
 62137  1  0  0  0
 63 65  1  0  0  0
 63138  1  0  0  0
 63139  1  0  0  0
 63140  1  0  0  0
 64141  1  0  0  0
 65142  1  0  0  0
 68 80  1  0  0  0
 71 73  2  0  0  0
 71 75  1  0  0  0
 71143  1  0  0  0
 72 74  1  0  0  0
 72 75  2  0  0  0
 72144  1  0  0  0
 73 76  1  0  0  0
 73 77  1  0  0  0
 74 76  2  0  0  0
 74 81  1  0  0  0
 75 82  1  0  0  0
 76 83  1  0  0  0
 77 78  1  0  0  0
 77145  1  0  0  0
 77146  1  0  0  0
 78 83  1  0  0  0
 78147  1  0  0  0
 78148  1  0  0  0
 79149  1  0  0  0
 79150  1  0  0  0
 79151  1  0  0  0
 79 81  1  0  0  0
 80 81  1  0  0  0
 80152  1  0  0  0
 80153  1  0  0  0
 81154  1  0  0  0
 82155  1  0  0  0
M  ISO  4   1 100  68 101  80 101  82 100
M  END
> <chiral flag>
0

> <version>
0

> <s_m_source_file>
/data/baiqing/PycharmProjects/Reinvent-master-3.2/result/LINK_invent/BTK/process_docking_weight1_custom_sum_contain_oxygen_bond_distance_aromatic_linkinvent_7_9_3/rearranged_h_0143.sdf

> <i_m_source_file_index>
4

> <r_mmod_Potential_Energy-OPLS-2005>
42571.75

> <r_mmod_Stretch_Energy-OPLS-2005>
20150.65234375

> <r_mmod_Bend_Energy-OPLS-2005>
2327.0546875

> <r_mmod_Torsional_Energy-OPLS-2005>
680.706115722656

> <r_mmod_Improper_Torsional_Energy-OPLS-2005>
77.0725402832031

> <r_mmod_Van_der_Waal_Energy-OPLS-2005>
5076.65478515625

> <r_mmod_Electrostatic_Energy-OPLS-2005>
-356.449768066406

> <r_mmod_Solvation_Energy-OPLS-2005>
-223.885208129883

> <b_mmod_Minimization_Converged-OPLS-2005>
0

> <r_mmod_RMS_Derivative-OPLS-2005>
6.89494848251343

$$$$
4
                    3D
 Structure written by MMmdl.
177187  0  0  1  0            999 V2000
  -30.7378  -14.3971   20.6266 C   0  0  0  0  0  0
  -30.4189  -12.2796   19.4052 C   0  0  0  0  0  0
  -29.4876  -12.5133   18.1981 C   0  0  0  0  0  0
  -28.0090  -12.3757   18.6111 C   0  0  0  0  0  0
  -27.6664  -13.1976   19.8816 C   0  0  2  0  0  0
  -28.7066  -12.9419   20.9957 C   0  0  0  0  0  0
  -25.2598  -13.8138   20.5683 C   0  0  0  0  0  0
  -24.1829  -13.0423   20.9146 C   0  0  0  0  0  0
  -24.6379  -11.6890   20.8725 C   0  0  0  0  0  0
  -23.9041  -10.4281   21.0404 C   0  0  0  0  0  0
  -24.3594   -9.4196   21.9182 C   0  0  0  0  0  0
  -23.6267   -8.2232   22.0761 C   0  0  0  0  0  0
  -22.4254   -8.0261   21.3542 C   0  0  0  0  0  0
  -21.9888   -9.0235   20.4648 C   0  0  0  0  0  0
  -22.7211  -10.2116   20.3056 C   0  0  0  0  0  0
  -21.6842   -6.0711   22.5269 C   0  0  0  0  0  0
  -21.4009   -6.5627   23.8195 C   0  0  0  0  0  0
  -21.3663   -5.6793   24.9168 C   0  0  0  0  0  0
  -21.6048   -4.3055   24.7226 C   0  0  0  0  0  0
  -21.8823   -3.8129   23.4354 C   0  0  0  0  0  0
  -21.9189   -4.6937   22.3402 C   0  0  0  0  0  0
  -22.7852  -13.5236   21.1793 C   0  0  0  0  0  0
  -22.1665   -4.2119   21.0984 F   0  0  0  0  0  0
  -21.5629   -3.4554   25.7746 F   0  0  0  0  0  0
  -30.0451  -13.2397   20.4537 N   0  0  0  0  0  0
  -26.3036  -12.9291   20.3398 N   0  0  0  0  0  0
  -25.9298  -11.6461   20.5766 N   0  0  0  0  0  0
  -22.0500  -12.8244   22.0370 N   0  0  0  0  0  0
  -25.4352  -15.1845   20.4121 N   0  0  0  0  0  0
  -31.8185  -14.6240   20.0717 O   0  0  0  0  0  0
  -21.6623   -6.8850   21.4231 O   0  0  0  0  0  0
  -22.3550  -14.5550   20.6643 O   0  0  0  0  0  0
  -24.6074  -31.8721   23.2133 C   0  0  0  0  0  0
  -25.8992  -32.4844   23.8409 C   0  0  1  0  0  0
  -27.2623  -27.4918   20.0954 C   0  0  0  0  0  0
  -25.5869  -33.8642   24.2345 N   0  0  0  0  0  0
  -23.3930  -30.4923   21.5521 C   0  0  2  0  0  0
  -24.8437  -28.9606   20.1200 C   0  0  0  0  0  0
  -22.7367  -29.4669   22.5026 C   0  0  0  0  0  0
  -18.0262  -28.1374   22.8499 C   0  0  0  0  0  0
  -24.1484  -36.7330   23.2638 C   0  0  0  0  0  0
  -25.9118  -30.8583   21.3539 C   0  0  0  0  0  0
  -25.9952  -29.4937   20.7092 C   0  0  0  0  0  0
  -27.2023  -28.7707   20.6982 C   0  0  0  0  0  0
  -26.0903  -26.9607   19.5183 C   0  0  0  0  0  0
  -24.8824  -27.6872   19.5238 C   0  0  0  0  0  0
  -23.5995  -29.8177   20.1679 C   0  0  0  0  0  0
  -25.4103  -36.3128   24.0342 C   0  0  1  0  0  0
  -20.5845  -28.3648   23.1350 C   0  0  2  0  0  0
  -20.6753  -26.9394   22.5428 C   0  0  0  0  0  0
  -19.5735  -26.6384   21.5219 C   0  0  0  0  0  0
  -18.1911  -26.7924   22.1624 C   0  0  0  0  0  0
  -19.1510  -28.8829   23.2920 C   0  0  0  0  0  0
  -18.9439  -30.1438   23.8923 C   0  0  0  0  0  0
  -17.6444  -30.6585   24.0568 C   0  0  0  0  0  0
  -25.9022  -34.9489   23.5142 C   0  0  0  0  0  0
  -16.5334  -29.9089   23.6319 C   0  0  0  0  0  0
  -16.7252  -28.6507   23.0342 C   0  0  0  0  0  0
  -26.4457  -31.6604   25.0708 C   0  0  0  0  0  0
  -25.3754  -31.3685   26.1479 C   0  0  0  0  0  0
  -27.0284  -30.3061   24.6026 C   0  0  0  0  0  0
  -27.6043  -32.4317   25.7464 C   0  0  0  0  0  0
  -27.5585  -37.1816   24.8461 C   0  0  0  0  0  0
  -21.4105  -29.3023   22.3763 N   0  0  0  0  0  0
  -26.4295  -37.3805   23.9407 N   0  0  0  0  0  0
  -24.6552  -31.0871   22.0997 N   0  0  0  0  0  0
  -23.4168  -28.8225   23.3056 O   0  0  0  0  0  0
  -28.4021  -26.7176   20.0208 O   0  0  0  0  0  0
  -26.5587  -34.8933   22.4703 O   0  0  0  0  0  0
  -23.5286  -32.1443   23.7569 O   0  0  0  0  0  0
  -33.8307  -18.5724   20.2515 C   0  0  0  0  0  0
  -33.8776  -19.9668   20.1022 C   0  0  0  0  0  0
  -32.7745  -17.9796   20.9657 C   0  0  0  0  0  0
  -32.8635  -20.7628   20.6615 C   0  0  0  0  0  0
  -31.7551  -18.7650   21.5561 C   0  0  0  0  0  0
  -31.7926  -20.1806   21.3833 C   0  0  0  0  0  0
  -31.1095  -23.4944   22.3436 C   0  0  0  0  0  0
  -29.8867  -25.7002   22.4804 C   0  0  0  0  0  0
  -30.8343  -24.9922   20.2380 C   0  0  0  0  0  0
  -29.8060  -27.1555   21.9927 C   0  0  0  0  0  0
  -30.7681  -26.4527   19.7541 C   0  0  0  0  0  0
  -29.4090  -17.8022   21.3909 C   0  0  0  0  0  0
  -30.9932  -16.8049   23.1207 C   0  0  0  0  0  0
  -29.6525  -16.5687   20.5053 C   0  0  0  0  0  0
  -30.1911  -15.5408   22.7251 C   0  0  0  0  0  0
  -30.6035  -18.0815   22.3199 C   0  0  0  0  0  0
  -31.0134  -24.9207   21.7735 C   0  0  2  0  0  0
  -29.6540  -27.2499   20.4574 C   0  0  1  0  0  0
  -30.6852  -21.0700   21.9595 C   0  0  0  0  0  0
  -30.0708  -15.3795   21.2678 N   0  0  0  0  0  0
  -30.7365  -22.4744   21.5622 N   0  0  0  0  0  0
  -31.5014  -23.3316   23.5006 O   0  0  0  0  0  0
  -31.4640  -12.3716   19.1030 H   0  0  0  0  0  0
  -30.3092  -11.2615   19.7796 H   0  0  0  0  0  0
  -29.7173  -11.8036   17.4017 H   0  0  0  0  0  0
  -29.6616  -13.5061   17.7804 H   0  0  0  0  0  0
  -27.8100  -11.3192   18.7900 H   0  0  0  0  0  0
  -27.3588  -12.6712   17.7864 H   0  0  0  0  0  0
  -27.7226  -14.2491   19.6043 H   0  0  0  0  0  0
  -28.6703  -11.8991   21.3142 H   0  0  0  0  0  0
  -28.4667  -13.5212   21.8868 H   0  0  0  0  0  0
  -25.2740   -9.5670   22.4753 H   0  0  0  0  0  0
  -23.9966   -7.4634   22.7498 H   0  0  0  0  0  0
  -21.0813   -8.8754   19.8963 H   0  0  0  0  0  0
  -22.3666  -10.9652   19.6168 H   0  0  0  0  0  0
  -21.2015   -7.6135   23.9692 H   0  0  0  0  0  0
  -21.1482   -6.0526   25.9070 H   0  0  0  0  0  0
  -22.0605   -2.7587   23.2866 H   0  0  0  0  0  0
  -22.4115  -11.9911   22.4762 H   0  0  0  0  0  0
  -21.1124  -13.1269   22.2586 H   0  0  0  0  0  0
  -24.6751  -15.8463   20.5244 H   0  0  0  0  0  0
  -26.3018  -15.6217   20.1246 H   0  0  0  0  0  0
  -26.7073  -32.5596   23.1195 H   0  0  0  0  0  0
  -25.0026  -33.9816   25.0493 H   0  0  0  0  0  0
  -22.6785  -31.3058   21.4125 H   0  0  0  0  0  0
  -23.3742  -35.9668   23.3312 H   0  0  0  0  0  0
  -24.3580  -36.8934   22.2050 H   0  0  0  0  0  0
  -23.7243  -37.6542   23.6644 H   0  0  0  0  0  0
  -26.0076  -31.6230   20.5817 H   0  0  0  0  0  0
  -26.8048  -30.9231   21.9628 H   0  0  0  0  0  0
  -28.0704  -29.2206   21.1544 H   0  0  0  0  0  0
  -26.1182  -25.9834   19.0570 H   0  0  0  0  0  0
  -23.9966  -27.2644   19.0702 H   0  0  0  0  0  0
  -23.6988  -30.5892   19.4034 H   0  0  0  0  0  0
  -22.7277  -29.2281   19.8787 H   0  0  0  0  0  0
  -25.1278  -36.2003   25.0837 H   0  0  0  0  0  0
  -20.9933  -28.3205   24.1473 H   0  0  0  0  0  0
  -20.5666  -26.2250   23.3603 H   0  0  0  0  0  0
  -21.6626  -26.7451   22.1219 H   0  0  0  0  0  0
  -19.6895  -25.6301   21.1237 H   0  0  0  0  0  0
  -19.6679  -27.3206   20.6761 H   0  0  0  0  0  0
  -17.4184  -26.6683   21.4020 H   0  0  0  0  0  0
  -18.0300  -26.0060   22.9013 H   0  0  0  0  0  0
  -19.7914  -30.7248   24.2304 H   0  0  0  0  0  0
  -17.4999  -31.6271   24.5160 H   0  0  0  0  0  0
  -15.5338  -30.3003   23.7626 H   0  0  0  0  0  0
  -15.8649  -28.0838   22.7037 H   0  0  0  0  0  0
  -24.5897  -30.7070   25.7814 H   0  0  0  0  0  0
  -24.8982  -32.2837   26.4994 H   0  0  0  0  0  0
  -25.8131  -30.8798   27.0193 H   0  0  0  0  0  0
  -26.2807  -29.6830   24.1107 H   0  0  0  0  0  0
  -27.4114  -29.7281   25.4446 H   0  0  0  0  0  0
  -27.8610  -30.4403   23.9115 H   0  0  0  0  0  0
  -27.2660  -33.3591   26.2099 H   0  0  0  0  0  0
  -28.3817  -32.6926   25.0270 H   0  0  0  0  0  0
  -28.0752  -31.8412   26.5333 H   0  0  0  0  0  0
  -28.2607  -38.0111   24.7516 H   0  0  0  0  0  0
  -28.1079  -36.2646   24.6275 H   0  0  0  0  0  0
  -27.2307  -37.1454   25.8866 H   0  0  0  0  0  0
  -20.9250  -29.8747   21.6998 H   0  0  0  0  0  0
  -26.0194  -38.2888   24.1409 H   0  0  0  0  0  0
  -34.6021  -17.9549   19.8124 H   0  0  0  0  0  0
  -34.6862  -20.4275   19.5514 H   0  0  0  0  0  0
  -32.7542  -16.9028   21.0406 H   0  0  0  0  0  0
  -32.9258  -21.8322   20.5199 H   0  0  0  0  0  0
  -28.9297  -25.2061   22.3035 H   0  0  0  0  0  0
  -30.0419  -25.6894   23.5603 H   0  0  0  0  0  0
  -31.6601  -24.4839   19.7385 H   0  0  0  0  0  0
  -29.9200  -24.4797   19.9336 H   0  0  0  0  0  0
  -30.7134  -27.6804   22.2934 H   0  0  0  0  0  0
  -28.9885  -27.6609   22.5057 H   0  0  0  0  0  0
  -30.6211  -26.4846   18.6740 H   0  0  0  0  0  0
  -31.7275  -26.9376   19.9413 H   0  0  0  0  0  0
  -28.5187  -17.6313   21.9973 H   0  0  0  0  0  0
  -29.1781  -18.6679   20.7718 H   0  0  0  0  0  0
  -32.0605  -16.5976   23.0695 H   0  0  0  0  0  0
  -30.8192  -16.9925   24.1812 H   0  0  0  0  0  0
  -30.4043  -16.8167   19.7520 H   0  0  0  0  0  0
  -28.7411  -16.3353   19.9544 H   0  0  0  0  0  0
  -29.1837  -15.6048   23.1374 H   0  0  0  0  0  0
  -30.6381  -14.6582   23.1890 H   0  0  0  0  0  0
  -30.2580  -18.7836   23.0767 H   0  0  0  0  0  0
  -31.9627  -25.4033   22.0159 H   0  0  0  0  0  0
  -29.7553  -28.2861   20.1329 H   0  0  0  0  0  0
  -30.6939  -20.9818   23.0472 H   0  0  0  0  0  0
  -29.7169  -20.6927   21.6329 H   0  0  0  0  0  0
  -30.4236  -22.6956   20.6269 H   0  0  0  0  0  0
  1 25  1  0  0  0
  1 30  2  0  0  0
  1 90  1  0  0  0
  2  3  1  0  0  0
  2 25  1  0  0  0
  2 93  1  0  0  0
  2 94  1  0  0  0
  3  4  1  0  0  0
  3 95  1  0  0  0
  3 96  1  0  0  0
  4  5  1  0  0  0
  4 97  1  0  0  0
  4 98  1  0  0  0
  5  6  1  0  0  0
  5 26  1  0  0  0
  5 99  1  0  0  0
  6 25  1  0  0  0
  6100  1  0  0  0
  6101  1  0  0  0
  7  8  2  0  0  0
  7 26  1  0  0  0
  7 29  1  0  0  0
  8  9  1  0  0  0
  8 22  1  0  0  0
  9 10  1  0  0  0
  9 27  2  0  0  0
 10 11  2  0  0  0
 10 15  1  0  0  0
 11 12  1  0  0  0
 11102  1  0  0  0
 12 13  2  0  0  0
 12103  1  0  0  0
 13 14  1  0  0  0
 13 31  1  0  0  0
 14 15  2  0  0  0
 14104  1  0  0  0
 15105  1  0  0  0
 16 17  2  0  0  0
 16 21  1  0  0  0
 16 31  1  0  0  0
 17 18  1  0  0  0
 17106  1  0  0  0
 18 19  2  0  0  0
 18107  1  0  0  0
 19 20  1  0  0  0
 19 24  1  0  0  0
 20 21  2  0  0  0
 20108  1  0  0  0
 21 23  1  0  0  0
 22 28  1  0  0  0
 22 32  2  0  0  0
 26 27  1  0  0  0
 28109  1  0  0  0
 28110  1  0  0  0
 29111  1  0  0  0
 29112  1  0  0  0
 33 34  1  0  0  0
 33 66  1  0  0  0
 33 70  2  0  0  0
 34 36  1  0  0  0
 34 59  1  0  0  0
 34113  1  0  0  0
 35 44  2  0  0  0
 35 45  1  0  0  0
 35 68  1  0  0  0
 36 56  1  0  0  0
 36114  1  0  0  0
 37 39  1  0  0  0
 37 47  1  0  0  0
 37 66  1  0  0  0
 37115  1  0  0  0
 38 43  2  0  0  0
 38 46  1  0  0  0
 38 47  1  0  0  0
 39 64  1  0  0  0
 39 67  2  0  0  0
 40 52  1  0  0  0
 40 53  2  0  0  0
 40 58  1  0  0  0
 41116  1  0  0  0
 41117  1  0  0  0
 41118  1  0  0  0
 41 48  1  0  0  0
 42 43  1  0  0  0
 42 66  1  0  0  0
 42119  1  0  0  0
 42120  1  0  0  0
 43 44  1  0  0  0
 44121  1  0  0  0
 45 46  2  0  0  0
 45122  1  0  0  0
 46123  1  0  0  0
 47124  1  0  0  0
 47125  1  0  0  0
 48 56  1  0  0  0
 48 65  1  0  0  0
 48126  1  0  0  0
 49 50  1  0  0  0
 49 53  1  0  0  0
 49 64  1  0  0  0
 49127  1  0  0  0
 50 51  1  0  0  0
 50128  1  0  0  0
 50129  1  0  0  0
 51 52  1  0  0  0
 51130  1  0  0  0
 51131  1  0  0  0
 52132  1  0  0  0
 52133  1  0  0  0
 53 54  1  0  0  0
 54 55  2  0  0  0
 54134  1  0  0  0
 55 57  1  0  0  0
 55135  1  0  0  0
 56 69  2  0  0  0
 57 58  2  0  0  0
 57136  1  0  0  0
 58137  1  0  0  0
 59 60  1  0  0  0
 59 61  1  0  0  0
 59 62  1  0  0  0
 60138  1  0  0  0
 60139  1  0  0  0
 60140  1  0  0  0
 61141  1  0  0  0
 61142  1  0  0  0
 61143  1  0  0  0
 62144  1  0  0  0
 62145  1  0  0  0
 62146  1  0  0  0
 63 65  1  0  0  0
 63147  1  0  0  0
 63148  1  0  0  0
 63149  1  0  0  0
 64150  1  0  0  0
 65151  1  0  0  0
 68 88  1  0  0  0
 71 72  2  0  0  0
 71 73  1  0  0  0
 71152  1  0  0  0
 72 74  1  0  0  0
 72153  1  0  0  0
 73 75  2  0  0  0
 73154  1  0  0  0
 74 76  2  0  0  0
 74155  1  0  0  0
 75 76  1  0  0  0
 75 86  1  0  0  0
 76 89  1  0  0  0
 77 91  1  0  0  0
 77 92  2  0  0  0
 77 87  1  0  0  0
 78 80  1  0  0  0
 78 87  1  0  0  0
 78156  1  0  0  0
 78157  1  0  0  0
 79 81  1  0  0  0
 79 87  1  0  0  0
 79158  1  0  0  0
 79159  1  0  0  0
 80 88  1  0  0  0
 80160  1  0  0  0
 80161  1  0  0  0
 81 88  1  0  0  0
 81162  1  0  0  0
 81163  1  0  0  0
 82 84  1  0  0  0
 82 86  1  0  0  0
 82164  1  0  0  0
 82165  1  0  0  0
 83 85  1  0  0  0
 83 86  1  0  0  0
 83166  1  0  0  0
 83167  1  0  0  0
 84 90  1  0  0  0
 84168  1  0  0  0
 84169  1  0  0  0
 85 90  1  0  0  0
 85170  1  0  0  0
 85171  1  0  0  0
 86172  1  0  0  0
 87173  1  0  0  0
 88174  1  0  0  0
 89 91  1  0  0  0
 89175  1  0  0  0
 89176  1  0  0  0
 91177  1  0  0  0
M  ISO  4   1 100  68 101  88 101  90 100
M  END
> <chiral flag>
0

> <version>
0

> <s_m_source_file>
/data/baiqing/PycharmProjects/Reinvent-master-3.2/result/LINK_invent/BTK/process_docking_weight1_custom_sum_contain_oxygen_bond_distance_aromatic_linkinvent_7_9_3/rearranged_h_0143.sdf

> <i_m_source_file_index>
5

> <r_mmod_Potential_Energy-OPLS-2005>
127.315650939941

> <r_mmod_Stretch_Energy-OPLS-2005>
39.2777709960938

> <r_mmod_Bend_Energy-OPLS-2005>
107.026062011719

> <r_mmod_Torsional_Energy-OPLS-2005>
364.786285400391

> <r_mmod_Improper_Torsional_Energy-OPLS-2005>
6.00011587142944

> <r_mmod_Van_der_Waal_Energy-OPLS-2005>
175.147094726562

> <r_mmod_Electrostatic_Energy-OPLS-2005>
-355.743255615234

> <r_mmod_Solvation_Energy-OPLS-2005>
-215.362106323242

> <b_mmod_Minimization_Converged-OPLS-2005>
0

> <r_mmod_RMS_Derivative-OPLS-2005>
1.47662365436554

$$$$
5
                    3D
 Structure written by MMmdl.
155164  0  0  1  0            999 V2000
  -30.4974  -15.0543   20.3769 C   0  0  0  0  0  0
  -30.4305  -12.6505   19.5181 C   0  0  0  0  0  0
  -29.5256  -12.5614   18.2674 C   0  0  0  0  0  0
  -28.0632  -12.3235   18.6807 C   0  0  0  0  0  0
  -27.6229  -13.2624   19.8351 C   0  0  2  0  0  0
  -28.6582  -13.3362   20.9769 C   0  0  0  0  0  0
  -25.2431  -13.8240   20.5699 C   0  0  0  0  0  0
  -24.1765  -13.0442   20.9208 C   0  0  0  0  0  0
  -24.6404  -11.6930   20.8746 C   0  0  0  0  0  0
  -23.9085  -10.4304   21.0417 C   0  0  0  0  0  0
  -24.3637   -9.4226   21.9194 C   0  0  0  0  0  0
  -23.6317   -8.2266   22.0761 C   0  0  0  0  0  0
  -22.4295   -8.0303   21.3560 C   0  0  0  0  0  0
  -21.9931   -9.0267   20.4652 C   0  0  0  0  0  0
  -22.7255  -10.2148   20.3066 C   0  0  0  0  0  0
  -21.6875   -6.0757   22.5292 C   0  0  0  0  0  0
  -21.4015   -6.5645   23.8227 C   0  0  0  0  0  0
  -21.3667   -5.6790   24.9182 C   0  0  0  0  0  0
  -21.6052   -4.3054   24.7235 C   0  0  0  0  0  0
  -21.8817   -3.8163   23.4350 C   0  0  0  0  0  0
  -21.9192   -4.6982   22.3405 C   0  0  0  0  0  0
  -22.7787  -13.5203   21.1888 C   0  0  0  0  0  0
  -22.1666   -4.2161   21.0986 F   0  0  0  0  0  0
  -21.5625   -3.4533   25.7746 F   0  0  0  0  0  0
  -29.9261  -13.7702   20.3778 N   0  0  0  0  0  0
  -26.2865  -12.9483   20.3227 N   0  0  0  0  0  0
  -25.9340  -11.6603   20.5723 N   0  0  0  0  0  0
  -22.0452  -12.8180   22.0442 N   0  0  0  0  0  0
  -25.4090  -15.1970   20.4141 N   0  0  0  0  0  0
  -31.7088  -15.0839   20.1203 O   0  0  0  0  0  0
  -21.6663   -6.8907   21.4262 O   0  0  0  0  0  0
  -22.3476  -14.5527   20.6749 O   0  0  0  0  0  0
  -24.6495  -31.8403   23.1819 C   0  0  0  0  0  0
  -25.9226  -32.4679   23.8241 C   0  0  1  0  0  0
  -27.2050  -27.0554   20.1633 C   0  0  0  0  0  0
  -25.5957  -33.8493   24.2166 N   0  0  0  0  0  0
  -23.4552  -30.4572   21.5324 C   0  0  2  0  0  0
  -24.9031  -28.8697   20.1145 C   0  0  0  0  0  0
  -22.7582  -29.4536   22.4858 C   0  0  0  0  0  0
  -18.0320  -28.1429   22.8478 C   0  0  0  0  0  0
  -24.1504  -36.7243   23.2639 C   0  0  0  0  0  0
  -26.0174  -30.6870   21.3924 C   0  0  0  0  0  0
  -26.0855  -29.2893   20.7373 C   0  0  0  0  0  0
  -27.2375  -28.4012   20.7385 C   0  0  0  0  0  0
  -25.9972  -26.7603   19.4951 C   0  0  0  0  0  0
  -24.8770  -27.6217   19.4757 C   0  0  0  0  0  0
  -23.6849  -29.7840   20.1544 C   0  0  0  0  0  0
  -25.4141  -36.3032   24.0307 C   0  0  1  0  0  0
  -20.5929  -28.3762   23.1245 C   0  0  2  0  0  0
  -20.6823  -26.9473   22.5416 C   0  0  0  0  0  0
  -19.5799  -26.6407   21.5243 C   0  0  0  0  0  0
  -18.1966  -26.7966   22.1629 C   0  0  0  0  0  0
  -19.1568  -28.8919   23.2851 C   0  0  0  0  0  0
  -18.9480  -30.1499   23.8895 C   0  0  0  0  0  0
  -17.6468  -30.6620   24.0577 C   0  0  0  0  0  0
  -25.9090  -34.9405   23.5052 C   0  0  0  0  0  0
  -16.5363  -29.9107   23.6338 C   0  0  0  0  0  0
  -16.7298  -28.6529   23.0363 C   0  0  0  0  0  0
  -26.4525  -31.6547   25.0684 C   0  0  0  0  0  0
  -25.3682  -31.3758   26.1348 C   0  0  0  0  0  0
  -27.0372  -30.2935   24.6284 C   0  0  0  0  0  0
  -27.6076  -32.4286   25.7467 C   0  0  0  0  0  0
  -27.5590  -37.1785   24.8464 C   0  0  0  0  0  0
  -21.4277  -29.3052   22.3584 N   0  0  0  0  0  0
  -26.4313  -37.3733   23.9390 N   0  0  0  0  0  0
  -24.7277  -31.0178   22.0903 N   0  0  0  0  0  0
  -23.4188  -28.8094   23.3047 O   0  0  0  0  0  0
  -28.2429  -26.0282   20.1943 O   0  0  0  0  0  0
  -26.5688  -34.8899   22.4642 O   0  0  0  0  0  0
  -23.5595  -32.1316   23.6994 O   0  0  0  0  0  0
  -29.6944  -20.2939   18.6064 C   0  0  0  0  0  0
  -30.0658  -19.1154   17.9200 C   0  0  0  0  0  0
  -30.0918  -17.8513   18.5743 C   0  0  0  0  0  0
  -29.2612  -20.2684   19.9346 C   0  0  0  0  0  0
  -29.7374  -17.7222   19.9550 C   0  0  0  0  0  0
  -29.5531  -20.0780   15.5276 C   0  0  0  0  0  0
  -29.6191  -18.5840   15.3546 C   0  0  0  0  0  0
  -30.4178  -19.2498   16.4583 C   0  0  0  0  0  0
  -28.9755  -23.0915   20.0397 C   0  0  0  0  0  0
  -27.9713  -24.4636   20.3701 C   0  0  0  0  0  0
  -29.2894  -18.9692   20.5623 N   0  0  0  0  0  0
  -29.7143  -16.2631   20.5325 N   0  0  0  0  0  0
  -28.7639  -21.5732   20.5012 N   0  0  0  0  0  0
  -30.4789  -16.4707   17.5937 Cl  0  0  0  0  0  0
  -31.4670  -12.8000   19.2121 H   0  0  0  0  0  0
  -30.4231  -11.7086   20.0688 H   0  0  0  0  0  0
  -29.8668  -11.7689   17.5992 H   0  0  0  0  0  0
  -29.5981  -13.4909   17.7008 H   0  0  0  0  0  0
  -27.9727  -11.2820   18.9923 H   0  0  0  0  0  0
  -27.4034  -12.4445   17.8208 H   0  0  0  0  0  0
  -27.5678  -14.2556   19.3893 H   0  0  0  0  0  0
  -28.7650  -12.3739   21.4790 H   0  0  0  0  0  0
  -28.3337  -14.0451   21.7394 H   0  0  0  0  0  0
  -25.2789   -9.5697   22.4753 H   0  0  0  0  0  0
  -24.0036   -7.4664   22.7459 H   0  0  0  0  0  0
  -21.0875   -8.8780   19.8945 H   0  0  0  0  0  0
  -22.3731  -10.9685   19.6169 H   0  0  0  0  0  0
  -21.2009   -7.6157   23.9717 H   0  0  0  0  0  0
  -21.1487   -6.0535   25.9074 H   0  0  0  0  0  0
  -22.0588   -2.7622   23.2851 H   0  0  0  0  0  0
  -22.4066  -11.9837   22.4824 H   0  0  0  0  0  0
  -21.1066  -13.1209   22.2638 H   0  0  0  0  0  0
  -24.6309  -15.8429   20.4972 H   0  0  0  0  0  0
  -26.2519  -15.6403   20.0702 H   0  0  0  0  0  0
  -26.7280  -32.5270   23.0960 H   0  0  0  0  0  0
  -25.0059  -33.9615   25.0281 H   0  0  0  0  0  0
  -22.7603  -31.2846   21.3750 H   0  0  0  0  0  0
  -23.3778  -35.9566   23.3308 H   0  0  0  0  0  0
  -24.3576  -36.8867   22.2049 H   0  0  0  0  0  0
  -23.7246  -37.6434   23.6674 H   0  0  0  0  0  0
  -26.1763  -31.4349   20.6145 H   0  0  0  0  0  0
  -26.8871  -30.7472   22.0341 H   0  0  0  0  0  0
  -28.1392  -28.7184   21.2431 H   0  0  0  0  0  0
  -25.8872  -25.8179   18.9804 H   0  0  0  0  0  0
  -23.9775  -27.2975   18.9695 H   0  0  0  0  0  0
  -23.8259  -30.5585   19.4000 H   0  0  0  0  0  0
  -22.7950  -29.2334   19.8411 H   0  0  0  0  0  0
  -25.1343  -36.1881   25.0803 H   0  0  0  0  0  0
  -21.0030  -28.3388   24.1367 H   0  0  0  0  0  0
  -20.5801  -26.2379   23.3630 H   0  0  0  0  0  0
  -21.6681  -26.7515   22.1179 H   0  0  0  0  0  0
  -19.6974  -25.6307   21.1299 H   0  0  0  0  0  0
  -19.6757  -27.3199   20.6759 H   0  0  0  0  0  0
  -17.4244  -26.6721   21.4014 H   0  0  0  0  0  0
  -18.0349  -26.0121   22.9042 H   0  0  0  0  0  0
  -19.7947  -30.7328   24.2271 H   0  0  0  0  0  0
  -17.5015  -31.6300   24.5171 H   0  0  0  0  0  0
  -15.5361  -30.3017   23.7659 H   0  0  0  0  0  0
  -15.8700  -28.0838   22.7102 H   0  0  0  0  0  0
  -24.5883  -30.7100   25.7620 H   0  0  0  0  0  0
  -24.8840  -32.2948   26.4667 H   0  0  0  0  0  0
  -25.7914  -30.8964   27.0186 H   0  0  0  0  0  0
  -26.2971  -29.6652   24.1310 H   0  0  0  0  0  0
  -27.3982  -29.7240   25.4855 H   0  0  0  0  0  0
  -27.8894  -30.4130   23.9595 H   0  0  0  0  0  0
  -27.2721  -33.3639   26.1963 H   0  0  0  0  0  0
  -28.3942  -32.6752   25.0318 H   0  0  0  0  0  0
  -28.0687  -31.8444   26.5442 H   0  0  0  0  0  0
  -28.2609  -38.0078   24.7499 H   0  0  0  0  0  0
  -28.1097  -36.2608   24.6342 H   0  0  0  0  0  0
  -27.2296  -37.1478   25.8863 H   0  0  0  0  0  0
  -20.9514  -29.8687   21.6679 H   0  0  0  0  0  0
  -26.0196  -38.2815   24.1366 H   0  0  0  0  0  0
  -29.7000  -21.2247   18.0593 H   0  0  0  0  0  0
  -28.6135  -20.4787   15.9053 H   0  0  0  0  0  0
  -30.0531  -20.6866   14.7768 H   0  0  0  0  0  0
  -30.1637  -18.2154   14.4863 H   0  0  0  0  0  0
  -28.7384  -18.0087   15.6358 H   0  0  0  0  0  0
  -31.4975  -19.3069   16.3273 H   0  0  0  0  0  0
  -29.9543  -23.3556   20.4400 H   0  0  0  0  0  0
  -29.1196  -23.0752   18.9615 H   0  0  0  0  0  0
  -27.7133  -24.3740   21.4247 H   0  0  0  0  0  0
  -27.0358  -24.2430   19.8585 H   0  0  0  0  0  0
  -28.8496  -16.0667   21.0098 H   0  0  0  0  0  0
  -28.3976  -21.4922   21.4432 H   0  0  0  0  0  0
  1 25  1  0  0  0
  1 30  2  0  0  0
  1 82  1  0  0  0
  2  3  1  0  0  0
  2 25  1  0  0  0
  2 85  1  0  0  0
  2 86  1  0  0  0
  3  4  1  0  0  0
  3 87  1  0  0  0
  3 88  1  0  0  0
  4  5  1  0  0  0
  4 89  1  0  0  0
  4 90  1  0  0  0
  5  6  1  0  0  0
  5 26  1  0  0  0
  5 91  1  0  0  0
  6 25  1  0  0  0
  6 92  1  0  0  0
  6 93  1  0  0  0
  7  8  2  0  0  0
  7 26  1  0  0  0
  7 29  1  0  0  0
  8  9  1  0  0  0
  8 22  1  0  0  0
  9 10  1  0  0  0
  9 27  2  0  0  0
 10 11  2  0  0  0
 10 15  1  0  0  0
 11 12  1  0  0  0
 11 94  1  0  0  0
 12 13  2  0  0  0
 12 95  1  0  0  0
 13 14  1  0  0  0
 13 31  1  0  0  0
 14 15  2  0  0  0
 14 96  1  0  0  0
 15 97  1  0  0  0
 16 17  2  0  0  0
 16 21  1  0  0  0
 16 31  1  0  0  0
 17 18  1  0  0  0
 17 98  1  0  0  0
 18 19  2  0  0  0
 18 99  1  0  0  0
 19 20  1  0  0  0
 19 24  1  0  0  0
 20 21  2  0  0  0
 20100  1  0  0  0
 21 23  1  0  0  0
 22 28  1  0  0  0
 22 32  2  0  0  0
 26 27  1  0  0  0
 28101  1  0  0  0
 28102  1  0  0  0
 29103  1  0  0  0
 29104  1  0  0  0
 33 34  1  0  0  0
 33 66  1  0  0  0
 33 70  2  0  0  0
 34 36  1  0  0  0
 34 59  1  0  0  0
 34105  1  0  0  0
 35 44  2  0  0  0
 35 45  1  0  0  0
 35 68  1  0  0  0
 36 56  1  0  0  0
 36106  1  0  0  0
 37 39  1  0  0  0
 37 47  1  0  0  0
 37 66  1  0  0  0
 37107  1  0  0  0
 38 43  2  0  0  0
 38 46  1  0  0  0
 38 47  1  0  0  0
 39 64  1  0  0  0
 39 67  2  0  0  0
 40 52  1  0  0  0
 40 53  2  0  0  0
 40 58  1  0  0  0
 41108  1  0  0  0
 41109  1  0  0  0
 41110  1  0  0  0
 41 48  1  0  0  0
 42 43  1  0  0  0
 42 66  1  0  0  0
 42111  1  0  0  0
 42112  1  0  0  0
 43 44  1  0  0  0
 44113  1  0  0  0
 45 46  2  0  0  0
 45114  1  0  0  0
 46115  1  0  0  0
 47116  1  0  0  0
 47117  1  0  0  0
 48 56  1  0  0  0
 48 65  1  0  0  0
 48118  1  0  0  0
 49 50  1  0  0  0
 49 53  1  0  0  0
 49 64  1  0  0  0
 49119  1  0  0  0
 50 51  1  0  0  0
 50120  1  0  0  0
 50121  1  0  0  0
 51 52  1  0  0  0
 51122  1  0  0  0
 51123  1  0  0  0
 52124  1  0  0  0
 52125  1  0  0  0
 53 54  1  0  0  0
 54 55  2  0  0  0
 54126  1  0  0  0
 55 57  1  0  0  0
 55127  1  0  0  0
 56 69  2  0  0  0
 57 58  2  0  0  0
 57128  1  0  0  0
 58129  1  0  0  0
 59 60  1  0  0  0
 59 61  1  0  0  0
 59 62  1  0  0  0
 60130  1  0  0  0
 60131  1  0  0  0
 60132  1  0  0  0
 61133  1  0  0  0
 61134  1  0  0  0
 61135  1  0  0  0
 62136  1  0  0  0
 62137  1  0  0  0
 62138  1  0  0  0
 63 65  1  0  0  0
 63139  1  0  0  0
 63140  1  0  0  0
 63141  1  0  0  0
 64142  1  0  0  0
 65143  1  0  0  0
 68 80  1  0  0  0
 71 72  2  0  0  0
 71 74  1  0  0  0
 71144  1  0  0  0
 72 73  1  0  0  0
 72 78  1  0  0  0
 73 75  2  0  0  0
 73 84  1  0  0  0
 74 81  2  0  0  0
 74 83  1  0  0  0
 75 81  1  0  0  0
 75 82  1  0  0  0
 76 77  1  0  0  0
 76 78  1  0  0  0
 76145  1  0  0  0
 76146  1  0  0  0
 77 78  1  0  0  0
 77147  1  0  0  0
 77148  1  0  0  0
 78149  1  0  0  0
 79 80  1  0  0  0
 79 83  1  0  0  0
 79150  1  0  0  0
 79151  1  0  0  0
 80152  1  0  0  0
 80153  1  0  0  0
 82154  1  0  0  0
 83155  1  0  0  0
M  ISO  4   1 100  68 101  80 101  82 100
M  END
> <chiral flag>
0

> <version>
0

> <s_m_source_file>
/data/baiqing/PycharmProjects/Reinvent-master-3.2/result/LINK_invent/BTK/process_docking_weight1_custom_sum_contain_oxygen_bond_distance_aromatic_linkinvent_7_9_3/rearranged_h_0143.sdf

> <i_m_source_file_index>
6

> <r_mmod_Potential_Energy-OPLS-2005>
536.274658203125

> <r_mmod_Stretch_Energy-OPLS-2005>
355.906555175781

> <r_mmod_Bend_Energy-OPLS-2005>
308.890808105469

> <r_mmod_Torsional_Energy-OPLS-2005>
266.9853515625

> <r_mmod_Improper_Torsional_Energy-OPLS-2005>
4.79984426498413

> <r_mmod_Van_der_Waal_Energy-OPLS-2005>
137.764556884766

> <r_mmod_Electrostatic_Energy-OPLS-2005>
-569.765197753906

> <r_mmod_Solvation_Energy-OPLS-2005>
-236.983428955078

> <b_mmod_Minimization_Converged-OPLS-2005>
0

> <r_mmod_RMS_Derivative-OPLS-2005>
2.88637447357178

$$$$
6
                    3D
 Structure written by MMmdl.
169179  0  0  1  0            999 V2000
  -30.6636  -14.5821   20.5002 C   0  0  0  0  0  0
  -30.4284  -12.3590   19.4311 C   0  0  0  0  0  0
  -29.5005  -12.5018   18.2051 C   0  0  0  0  0  0
  -28.0207  -12.3573   18.6160 C   0  0  0  0  0  0
  -27.6514  -13.2175   19.8550 C   0  0  2  0  0  0
  -28.7004  -13.0645   20.9780 C   0  0  0  0  0  0
  -25.2559  -13.8187   20.5640 C   0  0  0  0  0  0
  -24.1831  -13.0449   20.9144 C   0  0  0  0  0  0
  -24.6399  -11.6914   20.8684 C   0  0  0  0  0  0
  -23.9064  -10.4304   21.0376 C   0  0  0  0  0  0
  -24.3616   -9.4227   21.9164 C   0  0  0  0  0  0
  -23.6290   -8.2258   22.0760 C   0  0  0  0  0  0
  -22.4273   -8.0296   21.3550 C   0  0  0  0  0  0
  -21.9898   -9.0267   20.4650 C   0  0  0  0  0  0
  -22.7221  -10.2142   20.3047 C   0  0  0  0  0  0
  -21.6879   -6.0702   22.5250 C   0  0  0  0  0  0
  -21.4022   -6.5606   23.8182 C   0  0  0  0  0  0
  -21.3666   -5.6774   24.9146 C   0  0  0  0  0  0
  -21.6042   -4.3041   24.7207 C   0  0  0  0  0  0
  -21.8829   -3.8112   23.4339 C   0  0  0  0  0  0
  -21.9212   -4.6922   22.3384 C   0  0  0  0  0  0
  -22.7861  -13.5240   21.1815 C   0  0  0  0  0  0
  -22.1680   -4.2107   21.0962 F   0  0  0  0  0  0
  -21.5647   -3.4525   25.7724 F   0  0  0  0  0  0
  -30.0169  -13.3839   20.4041 N   0  0  0  0  0  0
  -26.2982  -12.9354   20.3279 N   0  0  0  0  0  0
  -25.9323  -11.6506   20.5689 N   0  0  0  0  0  0
  -22.0538  -12.8231   22.0385 N   0  0  0  0  0  0
  -25.4303  -15.1914   20.4040 N   0  0  0  0  0  0
  -31.8494  -14.7086   20.1902 O   0  0  0  0  0  0
  -21.6663   -6.8863   21.4219 O   0  0  0  0  0  0
  -22.3506  -14.5517   20.6644 O   0  0  0  0  0  0
  -24.6189  -31.8643   23.2059 C   0  0  0  0  0  0
  -25.9063  -32.4823   23.8360 C   0  0  1  0  0  0
  -27.2291  -27.3712   20.1183 C   0  0  0  0  0  0
  -25.5900  -33.8619   24.2279 N   0  0  0  0  0  0
  -23.4117  -30.4848   21.5501 C   0  0  2  0  0  0
  -24.8590  -28.9486   20.1113 C   0  0  0  0  0  0
  -22.7453  -29.4612   22.4988 C   0  0  0  0  0  0
  -18.0265  -28.1392   22.8476 C   0  0  0  0  0  0
  -24.1496  -36.7303   23.2640 C   0  0  0  0  0  0
  -25.9471  -30.8126   21.3708 C   0  0  0  0  0  0
  -26.0232  -29.4436   20.7123 C   0  0  0  0  0  0
  -27.2103  -28.6650   20.7081 C   0  0  0  0  0  0
  -26.0466  -26.9169   19.4902 C   0  0  0  0  0  0
  -24.8695  -27.6884   19.4920 C   0  0  0  0  0  0
  -23.6257  -29.8228   20.1634 C   0  0  0  0  0  0
  -25.4126  -36.3102   24.0326 C   0  0  1  0  0  0
  -20.5865  -28.3676   23.1322 C   0  0  2  0  0  0
  -20.6774  -26.9409   22.5430 C   0  0  0  0  0  0
  -19.5754  -26.6392   21.5225 C   0  0  0  0  0  0
  -18.1924  -26.7939   22.1619 C   0  0  0  0  0  0
  -19.1517  -28.8847   23.2886 C   0  0  0  0  0  0
  -18.9453  -30.1456   23.8892 C   0  0  0  0  0  0
  -17.6457  -30.6592   24.0567 C   0  0  0  0  0  0
  -25.9053  -34.9476   23.5101 C   0  0  0  0  0  0
  -16.5345  -29.9096   23.6339 C   0  0  0  0  0  0
  -16.7256  -28.6518   23.0338 C   0  0  0  0  0  0
  -26.4475  -31.6629   25.0705 C   0  0  0  0  0  0
  -25.3733  -31.3765   26.1454 C   0  0  0  0  0  0
  -27.0310  -30.3059   24.6124 C   0  0  0  0  0  0
  -27.6025  -32.4380   25.7474 C   0  0  0  0  0  0
  -27.5591  -37.1813   24.8456 C   0  0  0  0  0  0
  -21.4172  -29.3021   22.3731 N   0  0  0  0  0  0
  -26.4303  -37.3798   23.9402 N   0  0  0  0  0  0
  -24.6782  -31.0685   22.1009 N   0  0  0  0  0  0
  -23.4199  -28.8152   23.3054 O   0  0  0  0  0  0
  -28.3693  -26.5735   20.1806 O   0  0  0  0  0  0
  -26.5623  -34.8928   22.4664 O   0  0  0  0  0  0
  -23.5368  -32.1424   23.7412 O   0  0  0  0  0  0
  -31.3788  -17.5385   18.7593 C   0  0  0  0  0  0
  -31.1968  -19.7336   18.4226 C   0  0  0  0  0  0
  -30.6358  -18.0005   19.8186 C   0  0  0  0  0  0
  -30.4927  -19.4281   19.5590 C   0  0  0  0  0  0
  -29.5081  -21.7265   19.9694 C   0  0  0  0  0  0
  -30.9574  -24.5676   22.8545 C   0  0  0  0  0  0
  -30.7195  -25.9567   22.3038 C   0  0  0  0  0  0
  -33.7932  -19.4032   16.7598 C   0  0  0  0  0  0
  -32.6724  -19.5394   15.7487 C   0  0  0  0  0  0
  -29.6509  -24.8958   22.1698 C   0  0  0  0  0  0
  -32.6420  -18.4229   16.7715 C   0  0  0  0  0  0
  -30.1905  -17.1036   20.9973 C   0  0  0  0  0  0
  -28.9680  -22.7272   21.0284 C   0  0  0  0  0  0
  -28.1999  -25.1234   20.0984 C   0  0  0  0  0  0
  -29.2976  -24.2688   20.8265 C   0  0  1  0  0  0
  -31.7625  -18.5763   17.9312 N   0  0  0  0  0  0
  -29.8139  -20.4429   20.3437 N   0  0  0  0  0  0
  -29.8762  -15.6583   20.7600 N   0  0  0  0  0  0
  -29.6038  -22.1317   18.8081 O   0  0  0  0  0  0
  -31.4727  -12.4680   19.1327 H   0  0  0  0  0  0
  -30.3422  -11.3619   19.8661 H   0  0  0  0  0  0
  -29.7534  -11.7566   17.4496 H   0  0  0  0  0  0
  -29.6605  -13.4750   17.7370 H   0  0  0  0  0  0
  -27.8368  -11.3033   18.8270 H   0  0  0  0  0  0
  -27.3740  -12.6110   17.7749 H   0  0  0  0  0  0
  -27.6688  -14.2548   19.5193 H   0  0  0  0  0  0
  -28.6999  -12.0440   21.3633 H   0  0  0  0  0  0
  -28.4633  -13.7045   21.8294 H   0  0  0  0  0  0
  -25.2804   -9.5683   22.4685 H   0  0  0  0  0  0
  -24.0016   -7.4643   22.7467 H   0  0  0  0  0  0
  -21.0842   -8.8774   19.8941 H   0  0  0  0  0  0
  -22.3720  -10.9661   19.6120 H   0  0  0  0  0  0
  -21.2012   -7.6113   23.9653 H   0  0  0  0  0  0
  -21.1493   -6.0507   25.9035 H   0  0  0  0  0  0
  -22.0613   -2.7574   23.2845 H   0  0  0  0  0  0
  -22.4211  -11.9922   22.4787 H   0  0  0  0  0  0
  -21.1129  -13.1182   22.2568 H   0  0  0  0  0  0
  -24.6653  -15.8499   20.5020 H   0  0  0  0  0  0
  -26.2758  -15.6245   20.0545 H   0  0  0  0  0  0
  -26.7122  -32.5520   23.1108 H   0  0  0  0  0  0
  -25.0028  -33.9781   25.0411 H   0  0  0  0  0  0
  -22.7007  -31.3010   21.4105 H   0  0  0  0  0  0
  -23.3765  -35.9631   23.3311 H   0  0  0  0  0  0
  -24.3571  -36.8926   22.2050 H   0  0  0  0  0  0
  -23.7251  -37.6504   23.6667 H   0  0  0  0  0  0
  -26.0682  -31.5829   20.6069 H   0  0  0  0  0  0
  -26.8298  -30.8610   21.9963 H   0  0  0  0  0  0
  -28.1054  -29.0393   21.1849 H   0  0  0  0  0  0
  -26.0091  -25.9541   18.9999 H   0  0  0  0  0  0
  -23.9768  -27.3045   19.0172 H   0  0  0  0  0  0
  -23.7434  -30.6035   19.4099 H   0  0  0  0  0  0
  -22.7490  -29.2499   19.8587 H   0  0  0  0  0  0
  -25.1318  -36.1956   25.0827 H   0  0  0  0  0  0
  -20.9917  -28.3240   24.1456 H   0  0  0  0  0  0
  -20.5718  -26.2270   23.3615 H   0  0  0  0  0  0
  -21.6647  -26.7482   22.1199 H   0  0  0  0  0  0
  -19.6927  -25.6304   21.1246 H   0  0  0  0  0  0
  -19.6715  -27.3211   20.6763 H   0  0  0  0  0  0
  -17.4214  -26.6679   21.4001 H   0  0  0  0  0  0
  -18.0299  -26.0086   22.9012 H   0  0  0  0  0  0
  -19.7932  -30.7269   24.2264 H   0  0  0  0  0  0
  -17.5018  -31.6273   24.5171 H   0  0  0  0  0  0
  -15.5346  -30.3003   23.7681 H   0  0  0  0  0  0
  -15.8652  -28.0861   22.7045 H   0  0  0  0  0  0
  -24.5831  -30.7210   25.7769 H   0  0  0  0  0  0
  -24.9014  -32.2954   26.4956 H   0  0  0  0  0  0
  -25.8062  -30.8853   27.0180 H   0  0  0  0  0  0
  -26.2859  -29.6827   24.1160 H   0  0  0  0  0  0
  -27.4033  -29.7296   25.4606 H   0  0  0  0  0  0
  -27.8725  -30.4353   23.9306 H   0  0  0  0  0  0
  -27.2581  -33.3637   26.2103 H   0  0  0  0  0  0
  -28.3803  -32.7050   25.0302 H   0  0  0  0  0  0
  -28.0744  -31.8502   26.5358 H   0  0  0  0  0  0
  -28.2609  -38.0113   24.7519 H   0  0  0  0  0  0
  -28.1091  -36.2645   24.6277 H   0  0  0  0  0  0
  -27.2296  -37.1453   25.8855 H   0  0  0  0  0  0
  -20.9353  -29.8739   21.6938 H   0  0  0  0  0  0
  -26.0184  -38.2872   24.1425 H   0  0  0  0  0  0
  -31.7331  -16.5436   18.5363 H   0  0  0  0  0  0
  -31.3743  -20.6783   17.9308 H   0  0  0  0  0  0
  -30.9347  -24.4320   23.9343 H   0  0  0  0  0  0
  -31.6669  -23.9346   22.3236 H   0  0  0  0  0  0
  -31.2631  -26.2438   21.4059 H   0  0  0  0  0  0
  -30.5541  -26.7576   23.0228 H   0  0  0  0  0  0
  -33.8481  -20.1427   17.5561 H   0  0  0  0  0  0
  -34.7521  -19.0464   16.3936 H   0  0  0  0  0  0
  -32.9099  -19.2704   14.7214 H   0  0  0  0  0  0
  -31.9911  -20.3803   15.8468 H   0  0  0  0  0  0
  -28.7893  -25.0080   22.8273 H   0  0  0  0  0  0
  -32.8070  -17.3880   16.4760 H   0  0  0  0  0  0
  -29.3095  -17.5600   21.4476 H   0  0  0  0  0  0
  -30.9687  -17.1598   21.7591 H   0  0  0  0  0  0
  -29.3882  -22.3995   21.9800 H   0  0  0  0  0  0
  -27.8913  -22.5872   21.1310 H   0  0  0  0  0  0
  -27.2484  -24.8474   20.5554 H   0  0  0  0  0  0
  -28.1384  -24.8231   19.0516 H   0  0  0  0  0  0
  -30.1978  -24.3382   20.2161 H   0  0  0  0  0  0
  -29.5693  -20.1898   21.2919 H   0  0  0  0  0  0
  -28.9103  -15.4181   20.9184 H   0  0  0  0  0  0
  1 25  1  0  0  0
  1 30  2  0  0  0
  1 88  1  0  0  0
  2  3  1  0  0  0
  2 25  1  0  0  0
  2 90  1  0  0  0
  2 91  1  0  0  0
  3  4  1  0  0  0
  3 92  1  0  0  0
  3 93  1  0  0  0
  4  5  1  0  0  0
  4 94  1  0  0  0
  4 95  1  0  0  0
  5  6  1  0  0  0
  5 26  1  0  0  0
  5 96  1  0  0  0
  6 25  1  0  0  0
  6 97  1  0  0  0
  6 98  1  0  0  0
  7  8  2  0  0  0
  7 26  1  0  0  0
  7 29  1  0  0  0
  8  9  1  0  0  0
  8 22  1  0  0  0
  9 10  1  0  0  0
  9 27  2  0  0  0
 10 11  2  0  0  0
 10 15  1  0  0  0
 11 12  1  0  0  0
 11 99  1  0  0  0
 12 13  2  0  0  0
 12100  1  0  0  0
 13 14  1  0  0  0
 13 31  1  0  0  0
 14 15  2  0  0  0
 14101  1  0  0  0
 15102  1  0  0  0
 16 17  2  0  0  0
 16 21  1  0  0  0
 16 31  1  0  0  0
 17 18  1  0  0  0
 17103  1  0  0  0
 18 19  2  0  0  0
 18104  1  0  0  0
 19 20  1  0  0  0
 19 24  1  0  0  0
 20 21  2  0  0  0
 20105  1  0  0  0
 21 23  1  0  0  0
 22 28  1  0  0  0
 22 32  2  0  0  0
 26 27  1  0  0  0
 28106  1  0  0  0
 28107  1  0  0  0
 29108  1  0  0  0
 29109  1  0  0  0
 33 34  1  0  0  0
 33 66  1  0  0  0
 33 70  2  0  0  0
 34 36  1  0  0  0
 34 59  1  0  0  0
 34110  1  0  0  0
 35 44  2  0  0  0
 35 45  1  0  0  0
 35 68  1  0  0  0
 36 56  1  0  0  0
 36111  1  0  0  0
 37 39  1  0  0  0
 37 47  1  0  0  0
 37 66  1  0  0  0
 37112  1  0  0  0
 38 43  2  0  0  0
 38 46  1  0  0  0
 38 47  1  0  0  0
 39 64  1  0  0  0
 39 67  2  0  0  0
 40 52  1  0  0  0
 40 53  2  0  0  0
 40 58  1  0  0  0
 41113  1  0  0  0
 41114  1  0  0  0
 41115  1  0  0  0
 41 48  1  0  0  0
 42 43  1  0  0  0
 42 66  1  0  0  0
 42116  1  0  0  0
 42117  1  0  0  0
 43 44  1  0  0  0
 44118  1  0  0  0
 45 46  2  0  0  0
 45119  1  0  0  0
 46120  1  0  0  0
 47121  1  0  0  0
 47122  1  0  0  0
 48 56  1  0  0  0
 48 65  1  0  0  0
 48123  1  0  0  0
 49 50  1  0  0  0
 49 53  1  0  0  0
 49 64  1  0  0  0
 49124  1  0  0  0
 50 51  1  0  0  0
 50125  1  0  0  0
 50126  1  0  0  0
 51 52  1  0  0  0
 51127  1  0  0  0
 51128  1  0  0  0
 52129  1  0  0  0
 52130  1  0  0  0
 53 54  1  0  0  0
 54 55  2  0  0  0
 54131  1  0  0  0
 55 57  1  0  0  0
 55132  1  0  0  0
 56 69  2  0  0  0
 57 58  2  0  0  0
 57133  1  0  0  0
 58134  1  0  0  0
 59 60  1  0  0  0
 59 61  1  0  0  0
 59 62  1  0  0  0
 60135  1  0  0  0
 60136  1  0  0  0
 60137  1  0  0  0
 61138  1  0  0  0
 61139  1  0  0  0
 61140  1  0  0  0
 62141  1  0  0  0
 62142  1  0  0  0
 62143  1  0  0  0
 63 65  1  0  0  0
 63144  1  0  0  0
 63145  1  0  0  0
 63146  1  0  0  0
 64147  1  0  0  0
 65148  1  0  0  0
 68 84  1  0  0  0
 71 73  2  0  0  0
 71 86  1  0  0  0
 71149  1  0  0  0
 72 74  2  0  0  0
 72 86  1  0  0  0
 72150  1  0  0  0
 73 74  1  0  0  0
 73 82  1  0  0  0
 74 87  1  0  0  0
 75 83  1  0  0  0
 75 87  1  0  0  0
 75 89  2  0  0  0
 76 77  1  0  0  0
 76151  1  0  0  0
 76152  1  0  0  0
 76 80  1  0  0  0
 77 80  1  0  0  0
 77153  1  0  0  0
 77154  1  0  0  0
 78 79  1  0  0  0
 78 81  1  0  0  0
 78155  1  0  0  0
 78156  1  0  0  0
 79 81  1  0  0  0
 79157  1  0  0  0
 79158  1  0  0  0
 80 85  1  0  0  0
 80159  1  0  0  0
 81 86  1  0  0  0
 81160  1  0  0  0
 82 88  1  0  0  0
 82161  1  0  0  0
 82162  1  0  0  0
 83163  1  0  0  0
 83164  1  0  0  0
 83 85  1  0  0  0
 84 85  1  0  0  0
 84165  1  0  0  0
 84166  1  0  0  0
 85167  1  0  0  0
 87168  1  0  0  0
 88169  1  0  0  0
M  ISO  4   1 100  68 101  84 101  88 100
M  END
> <chiral flag>
0

> <version>
0

> <s_m_source_file>
/data/baiqing/PycharmProjects/Reinvent-master-3.2/result/LINK_invent/BTK/process_docking_weight1_custom_sum_contain_oxygen_bond_distance_aromatic_linkinvent_7_9_3/rearranged_h_0143.sdf

> <i_m_source_file_index>
7

> <r_mmod_Potential_Energy-OPLS-2005>
-0.5063596367836

> <r_mmod_Stretch_Energy-OPLS-2005>
60.1450157165527

> <r_mmod_Bend_Energy-OPLS-2005>
143.760757446289

> <r_mmod_Torsional_Energy-OPLS-2005>
308.131225585938

> <r_mmod_Improper_Torsional_Energy-OPLS-2005>
5.02409696578979

> <r_mmod_Van_der_Waal_Energy-OPLS-2005>
130.369277954102

> <r_mmod_Electrostatic_Energy-OPLS-2005>
-449.393280029297

> <r_mmod_Solvation_Energy-OPLS-2005>
-232.387786865234

> <b_mmod_Minimization_Converged-OPLS-2005>
0

> <r_mmod_RMS_Derivative-OPLS-2005>
3.14738583564758

$$$$
7
                    3D
 Structure written by MMmdl.
164173  0  0  1  0            999 V2000
  -30.6808  -14.4478   20.6301 C   0  0  0  0  0  0
  -30.4292  -12.3107   19.4202 C   0  0  0  0  0  0
  -29.4969  -12.5099   18.2093 C   0  0  0  0  0  0
  -28.0164  -12.3676   18.6201 C   0  0  0  0  0  0
  -27.6625  -13.2010   19.8800 C   0  0  2  0  0  0
  -28.6960  -12.9469   20.9953 C   0  0  0  0  0  0
  -25.2591  -13.8154   20.5745 C   0  0  0  0  0  0
  -24.1825  -13.0440   20.9165 C   0  0  0  0  0  0
  -24.6383  -11.6893   20.8720 C   0  0  0  0  0  0
  -23.9033  -10.4274   21.0382 C   0  0  0  0  0  0
  -24.3579   -9.4202   21.9176 C   0  0  0  0  0  0
  -23.6266   -8.2242   22.0738 C   0  0  0  0  0  0
  -22.4255   -8.0262   21.3540 C   0  0  0  0  0  0
  -21.9893   -9.0218   20.4657 C   0  0  0  0  0  0
  -22.7203  -10.2119   20.3049 C   0  0  0  0  0  0
  -21.6847   -6.0730   22.5275 C   0  0  0  0  0  0
  -21.4010   -6.5636   23.8212 C   0  0  0  0  0  0
  -21.3661   -5.6795   24.9179 C   0  0  0  0  0  0
  -21.6044   -4.3045   24.7235 C   0  0  0  0  0  0
  -21.8822   -3.8140   23.4357 C   0  0  0  0  0  0
  -21.9189   -4.6956   22.3411 C   0  0  0  0  0  0
  -22.7846  -13.5225   21.1850 C   0  0  0  0  0  0
  -22.1665   -4.2137   21.0988 F   0  0  0  0  0  0
  -21.5629   -3.4533   25.7751 F   0  0  0  0  0  0
  -30.0317  -13.2668   20.4610 N   0  0  0  0  0  0
  -26.2999  -12.9317   20.3347 N   0  0  0  0  0  0
  -25.9297  -11.6477   20.5736 N   0  0  0  0  0  0
  -22.0467  -12.8210   22.0408 N   0  0  0  0  0  0
  -25.4371  -15.1886   20.4295 N   0  0  0  0  0  0
  -31.7682  -14.7087   20.1038 O   0  0  0  0  0  0
  -21.6617   -6.8861   21.4241 O   0  0  0  0  0  0
  -22.3520  -14.5532   20.6683 O   0  0  0  0  0  0
  -24.6101  -31.8685   23.2051 C   0  0  0  0  0  0
  -25.9008  -32.4824   23.8318 C   0  0  1  0  0  0
  -27.2590  -27.4633   20.0936 C   0  0  0  0  0  0
  -25.5853  -33.8601   24.2260 N   0  0  0  0  0  0
  -23.3944  -30.4884   21.5486 C   0  0  2  0  0  0
  -24.8446  -28.9430   20.1227 C   0  0  0  0  0  0
  -22.7360  -29.4627   22.4971 C   0  0  0  0  0  0
  -18.0173  -28.1428   22.8306 C   0  0  0  0  0  0
  -24.1480  -36.7337   23.2643 C   0  0  0  0  0  0
  -25.9159  -30.8485   21.3445 C   0  0  0  0  0  0
  -26.0014  -29.4777   20.7022 C   0  0  0  0  0  0
  -27.2053  -28.7471   20.6807 C   0  0  0  0  0  0
  -26.0829  -26.9324   19.5119 C   0  0  0  0  0  0
  -24.8801  -27.6682   19.5214 C   0  0  0  0  0  0
  -23.6009  -29.8050   20.1668 C   0  0  0  0  0  0
  -25.4107  -36.3118   24.0322 C   0  0  1  0  0  0
  -20.5783  -28.3689   23.1311 C   0  0  2  0  0  0
  -20.6658  -26.9350   22.5669 C   0  0  0  0  0  0
  -19.5806  -26.6313   21.5271 C   0  0  0  0  0  0
  -18.1865  -26.8006   22.1390 C   0  0  0  0  0  0
  -19.1416  -28.8842   23.2808 C   0  0  0  0  0  0
  -18.9297  -30.1383   23.8923 C   0  0  0  0  0  0
  -17.6270  -30.6477   24.0584 C   0  0  0  0  0  0
  -25.9016  -34.9489   23.5080 C   0  0  0  0  0  0
  -16.5180  -29.9052   23.6199 C   0  0  0  0  0  0
  -16.7126  -28.6528   23.0135 C   0  0  0  0  0  0
  -26.4425  -31.6622   25.0663 C   0  0  0  0  0  0
  -25.3689  -31.3730   26.1422 C   0  0  0  0  0  0
  -27.0242  -30.3093   24.5987 C   0  0  0  0  0  0
  -27.5999  -32.4337   25.7425 C   0  0  0  0  0  0
  -27.5578  -37.1828   24.8467 C   0  0  0  0  0  0
  -21.4102  -29.2986   22.3678 N   0  0  0  0  0  0
  -26.4287  -37.3824   23.9406 N   0  0  0  0  0  0
  -24.6601  -31.0793   22.0930 N   0  0  0  0  0  0
  -23.4153  -28.8218   23.3039 O   0  0  0  0  0  0
  -28.4705  -26.7995   20.0935 O   0  0  0  0  0  0
  -26.5641  -34.8933   22.4695 O   0  0  0  0  0  0
  -23.5319  -32.1364   23.7518 O   0  0  0  0  0  0
  -29.2213  -21.7825   23.0143 C   0  0  0  0  0  0
  -29.1405  -20.3803   22.9020 C   0  0  0  0  0  0
  -28.1988  -22.0151   20.8261 C   0  0  0  0  0  0
  -28.1600  -20.6087   20.6836 C   0  0  0  0  0  0
  -28.7387  -22.6164   21.9893 C   0  0  0  0  0  0
  -28.6048  -19.7769   21.7482 C   0  0  0  0  0  0
  -29.0809  -21.4578   17.7973 C   0  0  0  0  0  0
  -29.8313  -20.1930   18.1594 C   0  0  0  0  0  0
  -28.3203  -20.2194   18.2384 C   0  0  0  0  0  0
  -30.2852  -16.7918   21.4472 C   0  0  0  0  0  0
  -29.2005  -17.6575   20.7699 C   0  0  0  0  0  0
  -28.5010  -25.3758   20.1633 C   0  0  0  0  0  0
  -27.9314  -24.8438   21.4975 C   0  0  0  0  0  0
  -27.6327  -20.0327   19.5222 N   0  0  0  0  0  0
  -29.9973  -15.3575   21.3416 N   0  0  0  0  0  0
  -28.8291  -23.9775   22.1937 O   0  0  0  0  0  0
  -28.4578  -18.4018   21.7409 O   0  0  0  0  0  0
  -31.4720  -12.4290   19.1229 H   0  0  0  0  0  0
  -30.3469  -11.2920   19.8030 H   0  0  0  0  0  0
  -29.7370  -11.7916   17.4246 H   0  0  0  0  0  0
  -29.6634  -13.4948   17.7745 H   0  0  0  0  0  0
  -27.8305  -11.3112   18.8156 H   0  0  0  0  0  0
  -27.3666  -12.6374   17.7892 H   0  0  0  0  0  0
  -27.7163  -14.2516   19.5925 H   0  0  0  0  0  0
  -28.6717  -11.9003   21.3031 H   0  0  0  0  0  0
  -28.4409  -13.5065   21.8957 H   0  0  0  0  0  0
  -25.2725   -9.5684   22.4753 H   0  0  0  0  0  0
  -23.9978   -7.4629   22.7460 H   0  0  0  0  0  0
  -21.0816   -8.8734   19.8952 H   0  0  0  0  0  0
  -22.3645  -10.9649   19.6152 H   0  0  0  0  0  0
  -21.1994   -7.6135   23.9719 H   0  0  0  0  0  0
  -21.1486   -6.0515   25.9087 H   0  0  0  0  0  0
  -22.0597   -2.7594   23.2862 H   0  0  0  0  0  0
  -22.4039  -11.9871   22.4799 H   0  0  0  0  0  0
  -21.1100  -13.1275   22.2617 H   0  0  0  0  0  0
  -24.6864  -15.8545   20.5736 H   0  0  0  0  0  0
  -26.3107  -15.6293   20.1683 H   0  0  0  0  0  0
  -26.7112  -32.5565   23.1117 H   0  0  0  0  0  0
  -24.9955  -33.9730   25.0364 H   0  0  0  0  0  0
  -22.6785  -31.3024   21.4108 H   0  0  0  0  0  0
  -23.3716  -35.9698   23.3327 H   0  0  0  0  0  0
  -24.3574  -36.8944   22.2053 H   0  0  0  0  0  0
  -23.7227  -37.6537   23.6657 H   0  0  0  0  0  0
  -25.9960  -31.6108   20.5692 H   0  0  0  0  0  0
  -26.8182  -30.9287   21.9387 H   0  0  0  0  0  0
  -28.0989  -29.1767   21.1124 H   0  0  0  0  0  0
  -26.0830  -25.9607   19.0416 H   0  0  0  0  0  0
  -23.9974  -27.2467   19.0609 H   0  0  0  0  0  0
  -23.6980  -30.5724   19.3994 H   0  0  0  0  0  0
  -22.7278  -29.2150   19.8777 H   0  0  0  0  0  0
  -25.1279  -36.1971   25.0809 H   0  0  0  0  0  0
  -20.9851  -28.3299   24.1450 H   0  0  0  0  0  0
  -20.5288  -26.2388   23.3944 H   0  0  0  0  0  0
  -21.6627  -26.7200   22.1760 H   0  0  0  0  0  0
  -19.6957  -25.6164   21.1444 H   0  0  0  0  0  0
  -19.6973  -27.3010   20.6757 H   0  0  0  0  0  0
  -17.4330  -26.6911   21.3565 H   0  0  0  0  0  0
  -18.0054  -26.0103   22.8676 H   0  0  0  0  0  0
  -19.7712  -30.7170   24.2446 H   0  0  0  0  0  0
  -17.4754  -31.6116   24.5242 H   0  0  0  0  0  0
  -15.5182  -30.2936   23.7497 H   0  0  0  0  0  0
  -15.8490  -28.0903   22.6772 H   0  0  0  0  0  0
  -24.5857  -30.7090   25.7769 H   0  0  0  0  0  0
  -24.8877  -32.2878   26.4882 H   0  0  0  0  0  0
  -25.8035  -30.8888   27.0178 H   0  0  0  0  0  0
  -26.2767  -29.6890   24.1049 H   0  0  0  0  0  0
  -27.4059  -29.7303   25.4404 H   0  0  0  0  0  0
  -27.8560  -30.4458   23.9083 H   0  0  0  0  0  0
  -27.2622  -33.3637   26.2024 H   0  0  0  0  0  0
  -28.3794  -32.6910   25.0237 H   0  0  0  0  0  0
  -28.0699  -31.8452   26.5321 H   0  0  0  0  0  0
  -28.2621  -38.0113   24.7515 H   0  0  0  0  0  0
  -28.1040  -36.2631   24.6284 H   0  0  0  0  0  0
  -27.2309  -37.1503   25.8884 H   0  0  0  0  0  0
  -20.9311  -29.8674   21.6841 H   0  0  0  0  0  0
  -26.0162  -38.2894   24.1432 H   0  0  0  0  0  0
  -29.6353  -22.2240   23.9108 H   0  0  0  0  0  0
  -29.4782  -19.7609   23.7188 H   0  0  0  0  0  0
  -27.7996  -22.6286   20.0340 H   0  0  0  0  0  0
  -29.0654  -21.7209   16.7408 H   0  0  0  0  0  0
  -29.2345  -22.3056   18.4595 H   0  0  0  0  0  0
  -30.4301  -20.2439   19.0696 H   0  0  0  0  0  0
  -30.2695  -19.6034   17.3568 H   0  0  0  0  0  0
  -27.7801  -19.6795   17.4615 H   0  0  0  0  0  0
  -30.3645  -17.0705   22.4955 H   0  0  0  0  0  0
  -31.2522  -17.0294   21.0013 H   0  0  0  0  0  0
  -28.4987  -17.0445   20.2006 H   0  0  0  0  0  0
  -29.6900  -18.3005   20.0448 H   0  0  0  0  0  0
  -28.0371  -24.9041   19.2976 H   0  0  0  0  0  0
  -29.5584  -25.1085   20.1020 H   0  0  0  0  0  0
  -26.9391  -24.4132   21.3574 H   0  0  0  0  0  0
  -27.7856  -25.6855   22.1777 H   0  0  0  0  0  0
  -27.4099  -19.0561   19.6872 H   0  0  0  0  0  0
  -29.1217  -15.0416   21.7366 H   0  0  0  0  0  0
  1 25  1  0  0  0
  1 30  2  0  0  0
  1 85  1  0  0  0
  2  3  1  0  0  0
  2 25  1  0  0  0
  2 88  1  0  0  0
  2 89  1  0  0  0
  3  4  1  0  0  0
  3 90  1  0  0  0
  3 91  1  0  0  0
  4  5  1  0  0  0
  4 92  1  0  0  0
  4 93  1  0  0  0
  5  6  1  0  0  0
  5 26  1  0  0  0
  5 94  1  0  0  0
  6 25  1  0  0  0
  6 95  1  0  0  0
  6 96  1  0  0  0
  7  8  2  0  0  0
  7 26  1  0  0  0
  7 29  1  0  0  0
  8  9  1  0  0  0
  8 22  1  0  0  0
  9 10  1  0  0  0
  9 27  2  0  0  0
 10 11  2  0  0  0
 10 15  1  0  0  0
 11 12  1  0  0  0
 11 97  1  0  0  0
 12 13  2  0  0  0
 12 98  1  0  0  0
 13 14  1  0  0  0
 13 31  1  0  0  0
 14 15  2  0  0  0
 14 99  1  0  0  0
 15100  1  0  0  0
 16 17  2  0  0  0
 16 21  1  0  0  0
 16 31  1  0  0  0
 17 18  1  0  0  0
 17101  1  0  0  0
 18 19  2  0  0  0
 18102  1  0  0  0
 19 20  1  0  0  0
 19 24  1  0  0  0
 20 21  2  0  0  0
 20103  1  0  0  0
 21 23  1  0  0  0
 22 28  1  0  0  0
 22 32  2  0  0  0
 26 27  1  0  0  0
 28104  1  0  0  0
 28105  1  0  0  0
 29106  1  0  0  0
 29107  1  0  0  0
 33 34  1  0  0  0
 33 66  1  0  0  0
 33 70  2  0  0  0
 34 36  1  0  0  0
 34 59  1  0  0  0
 34108  1  0  0  0
 35 44  2  0  0  0
 35 45  1  0  0  0
 35 68  1  0  0  0
 36 56  1  0  0  0
 36109  1  0  0  0
 37 39  1  0  0  0
 37 47  1  0  0  0
 37 66  1  0  0  0
 37110  1  0  0  0
 38 43  2  0  0  0
 38 46  1  0  0  0
 38 47  1  0  0  0
 39 64  1  0  0  0
 39 67  2  0  0  0
 40 52  1  0  0  0
 40 53  2  0  0  0
 40 58  1  0  0  0
 41111  1  0  0  0
 41112  1  0  0  0
 41113  1  0  0  0
 41 48  1  0  0  0
 42 43  1  0  0  0
 42 66  1  0  0  0
 42114  1  0  0  0
 42115  1  0  0  0
 43 44  1  0  0  0
 44116  1  0  0  0
 45 46  2  0  0  0
 45117  1  0  0  0
 46118  1  0  0  0
 47119  1  0  0  0
 47120  1  0  0  0
 48 56  1  0  0  0
 48 65  1  0  0  0
 48121  1  0  0  0
 49 50  1  0  0  0
 49 53  1  0  0  0
 49 64  1  0  0  0
 49122  1  0  0  0
 50 51  1  0  0  0
 50123  1  0  0  0
 50124  1  0  0  0
 51 52  1  0  0  0
 51125  1  0  0  0
 51126  1  0  0  0
 52127  1  0  0  0
 52128  1  0  0  0
 53 54  1  0  0  0
 54 55  2  0  0  0
 54129  1  0  0  0
 55 57  1  0  0  0
 55130  1  0  0  0
 56 69  2  0  0  0
 57 58  2  0  0  0
 57131  1  0  0  0
 58132  1  0  0  0
 59 60  1  0  0  0
 59 61  1  0  0  0
 59 62  1  0  0  0
 60133  1  0  0  0
 60134  1  0  0  0
 60135  1  0  0  0
 61136  1  0  0  0
 61137  1  0  0  0
 61138  1  0  0  0
 62139  1  0  0  0
 62140  1  0  0  0
 62141  1  0  0  0
 63 65  1  0  0  0
 63142  1  0  0  0
 63143  1  0  0  0
 63144  1  0  0  0
 64145  1  0  0  0
 65146  1  0  0  0
 68 82  1  0  0  0
 71 72  2  0  0  0
 71 75  1  0  0  0
 71147  1  0  0  0
 72 76  1  0  0  0
 72148  1  0  0  0
 73 74  1  0  0  0
 73 75  2  0  0  0
 73149  1  0  0  0
 74 76  2  0  0  0
 74 84  1  0  0  0
 75 86  1  0  0  0
 76 87  1  0  0  0
 77 78  1  0  0  0
 77 79  1  0  0  0
 77150  1  0  0  0
 77151  1  0  0  0
 78 79  1  0  0  0
 78152  1  0  0  0
 78153  1  0  0  0
 79 84  1  0  0  0
 79154  1  0  0  0
 80 81  1  0  0  0
 80 85  1  0  0  0
 80155  1  0  0  0
 80156  1  0  0  0
 81 87  1  0  0  0
 81157  1  0  0  0
 81158  1  0  0  0
 82 83  1  0  0  0
 82159  1  0  0  0
 82160  1  0  0  0
 83 86  1  0  0  0
 83161  1  0  0  0
 83162  1  0  0  0
 84163  1  0  0  0
 85164  1  0  0  0
M  ISO  4   1 100  68 101  82 101  85 100
M  END
> <chiral flag>
0

> <version>
0

> <s_m_source_file>
/data/baiqing/PycharmProjects/Reinvent-master-3.2/result/LINK_invent/BTK/process_docking_weight1_custom_sum_contain_oxygen_bond_distance_aromatic_linkinvent_7_9_3/rearranged_h_0143.sdf

> <i_m_source_file_index>
8

> <r_mmod_Potential_Energy-OPLS-2005>
-38.5893592834473

> <r_mmod_Stretch_Energy-OPLS-2005>
36.1596755981445

> <r_mmod_Bend_Energy-OPLS-2005>
125.175369262695

> <r_mmod_Torsional_Energy-OPLS-2005>
282.046600341797

> <r_mmod_Improper_Torsional_Energy-OPLS-2005>
7.52327108383179

> <r_mmod_Van_der_Waal_Energy-OPLS-2005>
156.948623657227

> <r_mmod_Electrostatic_Energy-OPLS-2005>
-435.324249267578

> <r_mmod_Solvation_Energy-OPLS-2005>
-222.403564453125

> <b_mmod_Minimization_Converged-OPLS-2005>
0

> <r_mmod_RMS_Derivative-OPLS-2005>
6.53790330886841

$$$$
8
                    3D
 Structure written by MMmdl.
173182  0  0  1  0            999 V2000
  -30.6269  -14.4646   20.6342 C   0  0  0  0  0  0
  -30.4535  -12.3248   19.3935 C   0  0  0  0  0  0
  -29.5088  -12.5502   18.1908 C   0  0  0  0  0  0
  -28.0232  -12.4033   18.5949 C   0  0  0  0  0  0
  -27.6757  -13.1900   19.8863 C   0  0  2  0  0  0
  -28.7172  -12.8589   20.9766 C   0  0  0  0  0  0
  -25.2660  -13.8105   20.5656 C   0  0  0  0  0  0
  -24.1867  -13.0447   20.9155 C   0  0  0  0  0  0
  -24.6372  -11.6894   20.8677 C   0  0  0  0  0  0
  -23.9021  -10.4301   21.0359 C   0  0  0  0  0  0
  -24.3579   -9.4246   21.9165 C   0  0  0  0  0  0
  -23.6273   -8.2272   22.0747 C   0  0  0  0  0  0
  -22.4261   -8.0279   21.3548 C   0  0  0  0  0  0
  -21.9889   -9.0251   20.4665 C   0  0  0  0  0  0
  -22.7184  -10.2134   20.3045 C   0  0  0  0  0  0
  -21.6868   -6.0714   22.5271 C   0  0  0  0  0  0
  -21.4011   -6.5614   23.8202 C   0  0  0  0  0  0
  -21.3668   -5.6761   24.9161 C   0  0  0  0  0  0
  -21.6056   -4.3027   24.7208 C   0  0  0  0  0  0
  -21.8826   -3.8129   23.4328 C   0  0  0  0  0  0
  -21.9202   -4.6947   22.3388 C   0  0  0  0  0  0
  -22.7901  -13.5308   21.1807 C   0  0  0  0  0  0
  -22.1675   -4.2137   21.0967 F   0  0  0  0  0  0
  -21.5658   -3.4513   25.7722 F   0  0  0  0  0  0
  -30.0451  -13.2441   20.4639 N   0  0  0  0  0  0
  -26.3085  -12.9251   20.3374 N   0  0  0  0  0  0
  -25.9291  -11.6423   20.5665 N   0  0  0  0  0  0
  -22.0476  -12.8319   22.0331 N   0  0  0  0  0  0
  -25.4450  -15.1786   20.4046 N   0  0  0  0  0  0
  -31.7077  -14.7719   20.1097 O   0  0  0  0  0  0
  -21.6649   -6.8856   21.4235 O   0  0  0  0  0  0
  -22.3623  -14.5627   20.6662 O   0  0  0  0  0  0
  -24.6166  -31.8680   23.2071 C   0  0  0  0  0  0
  -25.9073  -32.4797   23.8362 C   0  0  1  0  0  0
  -27.2335  -27.4335   20.0673 C   0  0  0  0  0  0
  -25.5903  -33.8594   24.2286 N   0  0  0  0  0  0
  -23.4008  -30.4951   21.5492 C   0  0  2  0  0  0
  -24.8416  -28.9601   20.1106 C   0  0  0  0  0  0
  -22.7402  -29.4667   22.4955 C   0  0  0  0  0  0
  -18.0250  -28.1372   22.8473 C   0  0  0  0  0  0
  -24.1483  -36.7312   23.2639 C   0  0  0  0  0  0
  -25.9329  -30.8308   21.3596 C   0  0  0  0  0  0
  -26.0053  -29.4666   20.7024 C   0  0  0  0  0  0
  -27.2013  -28.7122   20.6749 C   0  0  0  0  0  0
  -26.0462  -26.9429   19.4738 C   0  0  0  0  0  0
  -24.8585  -27.6972   19.4954 C   0  0  0  0  0  0
  -23.6086  -29.8353   20.1598 C   0  0  0  0  0  0
  -25.4100  -36.3084   24.0327 C   0  0  1  0  0  0
  -20.5850  -28.3672   23.1301 C   0  0  2  0  0  0
  -20.6738  -26.9400   22.5412 C   0  0  0  0  0  0
  -19.5721  -26.6387   21.5199 C   0  0  0  0  0  0
  -18.1898  -26.7917   22.1602 C   0  0  0  0  0  0
  -19.1510  -28.8829   23.2890 C   0  0  0  0  0  0
  -18.9437  -30.1433   23.8905 C   0  0  0  0  0  0
  -17.6455  -30.6589   24.0554 C   0  0  0  0  0  0
  -25.9048  -34.9460   23.5107 C   0  0  0  0  0  0
  -16.5339  -29.9101   23.6302 C   0  0  0  0  0  0
  -16.7255  -28.6510   23.0330 C   0  0  0  0  0  0
  -26.4493  -31.6569   25.0700 C   0  0  0  0  0  0
  -25.3777  -31.3681   26.1463 C   0  0  0  0  0  0
  -27.0300  -30.2987   24.6089 C   0  0  0  0  0  0
  -27.6041  -32.4306   25.7486 C   0  0  0  0  0  0
  -27.5571  -37.1797   24.8457 C   0  0  0  0  0  0
  -21.4129  -29.3058   22.3718 N   0  0  0  0  0  0
  -26.4267  -37.3786   23.9427 N   0  0  0  0  0  0
  -24.6683  -31.0787   22.0958 N   0  0  0  0  0  0
  -23.4187  -28.8193   23.2979 O   0  0  0  0  0  0
  -28.4181  -26.7166   20.0625 O   0  0  0  0  0  0
  -26.5624  -34.8928   22.4684 O   0  0  0  0  0  0
  -23.5362  -32.1430   23.7466 O   0  0  0  0  0  0
  -28.9431  -18.7417   21.8787 C   0  0  0  0  0  0
  -30.4073  -17.6324   20.5997 C   0  0  0  0  0  0
  -28.7963  -17.4284   22.2272 C   0  0  0  0  0  0
  -29.7405  -16.7263   21.3938 C   0  0  0  0  0  0
  -29.0013  -20.8503   19.6285 C   0  0  0  0  0  0
  -30.7760  -21.1535   21.4013 C   0  0  0  0  0  0
  -29.2212  -22.3279   19.2129 C   0  0  0  0  0  0
  -30.9347  -22.6107   20.9173 C   0  0  0  0  0  0
  -30.2384  -20.2010   20.3060 C   0  0  1  0  0  0
  -28.7654  -14.8628   24.3518 C   0  0  0  0  0  0
  -26.4037  -17.6351   23.0314 C   0  0  0  0  0  0
  -27.6235  -15.5010   23.5446 C   0  0  0  0  0  0
  -29.7090  -24.6337   20.1632 C   0  0  0  0  0  0
  -28.3694  -25.3078   19.7663 C   0  0  0  0  0  0
  -27.7872  -17.0088   23.3027 C   0  0  1  0  0  0
  -29.8921  -18.8939   20.8891 N   0  0  0  0  0  0
  -29.8931  -15.3036   21.3993 N   0  0  0  0  0  0
  -29.6558  -23.1492   20.3773 N   0  3  1  0  0  0
  -31.4947  -12.4703   19.0992 H   0  0  0  0  0  0
  -30.3878  -11.2918   19.7397 H   0  0  0  0  0  0
  -29.7539  -11.8577   17.3841 H   0  0  0  0  0  0
  -29.6744  -13.5497   17.7823 H   0  0  0  0  0  0
  -27.8191  -11.3428   18.7451 H   0  0  0  0  0  0
  -27.3817  -12.7262   17.7740 H   0  0  0  0  0  0
  -27.7512  -14.2527   19.6472 H   0  0  0  0  0  0
  -28.7034  -11.7852   21.1795 H   0  0  0  0  0  0
  -28.4789  -13.3002   21.9374 H   0  0  0  0  0  0
  -25.2727   -9.5763   22.4726 H   0  0  0  0  0  0
  -24.0022   -7.4678   22.7442 H   0  0  0  0  0  0
  -21.0844   -8.8749   19.8960 H   0  0  0  0  0  0
  -22.3635  -10.9667   19.6136 H   0  0  0  0  0  0
  -21.1985   -7.6112   23.9696 H   0  0  0  0  0  0
  -21.1496   -6.0488   25.9063 H   0  0  0  0  0  0
  -22.0599   -2.7593   23.2816 H   0  0  0  0  0  0
  -22.4018  -11.9988   22.4775 H   0  0  0  0  0  0
  -21.1095  -13.1419   22.2458 H   0  0  0  0  0  0
  -24.6968  -15.8459   20.5478 H   0  0  0  0  0  0
  -26.3223  -15.6138   20.1485 H   0  0  0  0  0  0
  -26.7148  -32.5487   23.1122 H   0  0  0  0  0  0
  -24.9998  -33.9744   25.0385 H   0  0  0  0  0  0
  -22.6896  -31.3130   21.4159 H   0  0  0  0  0  0
  -23.3723  -35.9666   23.3296 H   0  0  0  0  0  0
  -24.3579  -36.8945   22.2057 H   0  0  0  0  0  0
  -23.7264  -37.6523   23.6671 H   0  0  0  0  0  0
  -26.0574  -31.5998   20.5948 H   0  0  0  0  0  0
  -26.8172  -30.8713   21.9839 H   0  0  0  0  0  0
  -28.1020  -29.1123   21.1183 H   0  0  0  0  0  0
  -26.0169  -25.9882   18.9714 H   0  0  0  0  0  0
  -23.9662  -27.3026   19.0288 H   0  0  0  0  0  0
  -23.7284  -30.6218   19.4124 H   0  0  0  0  0  0
  -22.7273  -29.2716   19.8488 H   0  0  0  0  0  0
  -25.1272  -36.1916   25.0814 H   0  0  0  0  0  0
  -20.9944  -28.3244   24.1423 H   0  0  0  0  0  0
  -20.5607  -26.2290   23.3613 H   0  0  0  0  0  0
  -21.6613  -26.7421   22.1234 H   0  0  0  0  0  0
  -19.6885  -25.6299   21.1234 H   0  0  0  0  0  0
  -19.6664  -27.3198   20.6728 H   0  0  0  0  0  0
  -17.4167  -26.6653   21.4002 H   0  0  0  0  0  0
  -18.0305  -26.0065   22.9007 H   0  0  0  0  0  0
  -19.7931  -30.7221   24.2293 H   0  0  0  0  0  0
  -17.5026  -31.6269   24.5170 H   0  0  0  0  0  0
  -15.5347  -30.3024   23.7613 H   0  0  0  0  0  0
  -15.8642  -28.0861   22.7026 H   0  0  0  0  0  0
  -24.5933  -30.7034   25.7829 H   0  0  0  0  0  0
  -24.8995  -32.2838   26.4945 H   0  0  0  0  0  0
  -25.8166  -30.8839   27.0196 H   0  0  0  0  0  0
  -26.2814  -29.6758   24.1169 H   0  0  0  0  0  0
  -27.4066  -29.7218   25.4549 H   0  0  0  0  0  0
  -27.8674  -30.4253   23.9219 H   0  0  0  0  0  0
  -27.2598  -33.3575   26.2086 H   0  0  0  0  0  0
  -28.3843  -32.6919   25.0327 H   0  0  0  0  0  0
  -28.0719  -31.8429   26.5395 H   0  0  0  0  0  0
  -28.2562  -38.0117   24.7510 H   0  0  0  0  0  0
  -28.1075  -36.2640   24.6235 H   0  0  0  0  0  0
  -27.2305  -37.1414   25.8865 H   0  0  0  0  0  0
  -20.9257  -29.8845   21.7019 H   0  0  0  0  0  0
  -26.0133  -38.2852   24.1437 H   0  0  0  0  0  0
  -28.4209  -19.6065   22.2631 H   0  0  0  0  0  0
  -31.1829  -17.4960   19.8559 H   0  0  0  0  0  0
  -28.7056  -20.2605   18.7594 H   0  0  0  0  0  0
  -28.1461  -20.8189   20.3047 H   0  0  0  0  0  0
  -30.1098  -21.1582   22.2645 H   0  0  0  0  0  0
  -31.7330  -20.7818   21.7703 H   0  0  0  0  0  0
  -28.2880  -22.7133   18.8020 H   0  0  0  0  0  0
  -29.9617  -22.3889   18.4134 H   0  0  0  0  0  0
  -31.7118  -22.6675   20.1534 H   0  0  0  0  0  0
  -31.2763  -23.2274   21.7494 H   0  0  0  0  0  0
  -31.0169  -20.0507   19.5563 H   0  0  0  0  0  0
  -28.7062  -13.7749   24.3156 H   0  0  0  0  0  0
  -28.6967  -15.1547   25.3994 H   0  0  0  0  0  0
  -29.7520  -15.1637   24.0022 H   0  0  0  0  0  0
  -26.4468  -18.7234   22.9992 H   0  0  0  0  0  0
  -25.6876  -17.3826   23.8148 H   0  0  0  0  0  0
  -25.9942  -17.2933   22.0813 H   0  0  0  0  0  0
  -26.7164  -15.3303   24.1263 H   0  0  0  0  0  0
  -27.4322  -15.0090   22.5955 H   0  0  0  0  0  0
  -30.0048  -25.0767   21.1156 H   0  0  0  0  0  0
  -30.4910  -24.8962   19.4497 H   0  0  0  0  0  0
  -27.5510  -24.8450   20.3199 H   0  0  0  0  0  0
  -28.1789  -25.1583   18.7019 H   0  0  0  0  0  0
  -28.1494  -17.4518   24.2315 H   0  0  0  0  0  0
  -29.1645  -14.8234   21.9034 H   0  0  0  0  0  0
  -28.9654  -23.0055   21.1007 H   0  0  0  0  0  0
  1 25  1  0  0  0
  1 30  2  0  0  0
  1 87  1  0  0  0
  2  3  1  0  0  0
  2 25  1  0  0  0
  2 89  1  0  0  0
  2 90  1  0  0  0
  3  4  1  0  0  0
  3 91  1  0  0  0
  3 92  1  0  0  0
  4  5  1  0  0  0
  4 93  1  0  0  0
  4 94  1  0  0  0
  5  6  1  0  0  0
  5 26  1  0  0  0
  5 95  1  0  0  0
  6 25  1  0  0  0
  6 96  1  0  0  0
  6 97  1  0  0  0
  7  8  2  0  0  0
  7 26  1  0  0  0
  7 29  1  0  0  0
  8  9  1  0  0  0
  8 22  1  0  0  0
  9 10  1  0  0  0
  9 27  2  0  0  0
 10 11  2  0  0  0
 10 15  1  0  0  0
 11 12  1  0  0  0
 11 98  1  0  0  0
 12 13  2  0  0  0
 12 99  1  0  0  0
 13 14  1  0  0  0
 13 31  1  0  0  0
 14 15  2  0  0  0
 14100  1  0  0  0
 15101  1  0  0  0
 16 17  2  0  0  0
 16 21  1  0  0  0
 16 31  1  0  0  0
 17 18  1  0  0  0
 17102  1  0  0  0
 18 19  2  0  0  0
 18103  1  0  0  0
 19 20  1  0  0  0
 19 24  1  0  0  0
 20 21  2  0  0  0
 20104  1  0  0  0
 21 23  1  0  0  0
 22 28  1  0  0  0
 22 32  2  0  0  0
 26 27  1  0  0  0
 28105  1  0  0  0
 28106  1  0  0  0
 29107  1  0  0  0
 29108  1  0  0  0
 33 34  1  0  0  0
 33 66  1  0  0  0
 33 70  2  0  0  0
 34 36  1  0  0  0
 34 59  1  0  0  0
 34109  1  0  0  0
 35 44  2  0  0  0
 35 45  1  0  0  0
 35 68  1  0  0  0
 36 56  1  0  0  0
 36110  1  0  0  0
 37 39  1  0  0  0
 37 47  1  0  0  0
 37 66  1  0  0  0
 37111  1  0  0  0
 38 43  2  0  0  0
 38 46  1  0  0  0
 38 47  1  0  0  0
 39 64  1  0  0  0
 39 67  2  0  0  0
 40 52  1  0  0  0
 40 53  2  0  0  0
 40 58  1  0  0  0
 41112  1  0  0  0
 41113  1  0  0  0
 41114  1  0  0  0
 41 48  1  0  0  0
 42 43  1  0  0  0
 42 66  1  0  0  0
 42115  1  0  0  0
 42116  1  0  0  0
 43 44  1  0  0  0
 44117  1  0  0  0
 45 46  2  0  0  0
 45118  1  0  0  0
 46119  1  0  0  0
 47120  1  0  0  0
 47121  1  0  0  0
 48 56  1  0  0  0
 48 65  1  0  0  0
 48122  1  0  0  0
 49 50  1  0  0  0
 49 53  1  0  0  0
 49 64  1  0  0  0
 49123  1  0  0  0
 50 51  1  0  0  0
 50124  1  0  0  0
 50125  1  0  0  0
 51 52  1  0  0  0
 51126  1  0  0  0
 51127  1  0  0  0
 52128  1  0  0  0
 52129  1  0  0  0
 53 54  1  0  0  0
 54 55  2  0  0  0
 54130  1  0  0  0
 55 57  1  0  0  0
 55131  1  0  0  0
 56 69  2  0  0  0
 57 58  2  0  0  0
 57132  1  0  0  0
 58133  1  0  0  0
 59 60  1  0  0  0
 59 61  1  0  0  0
 59 62  1  0  0  0
 60134  1  0  0  0
 60135  1  0  0  0
 60136  1  0  0  0
 61137  1  0  0  0
 61138  1  0  0  0
 61139  1  0  0  0
 62140  1  0  0  0
 62141  1  0  0  0
 62142  1  0  0  0
 63 65  1  0  0  0
 63143  1  0  0  0
 63144  1  0  0  0
 63145  1  0  0  0
 64146  1  0  0  0
 65147  1  0  0  0
 68 84  1  0  0  0
 71 73  2  0  0  0
 71 86  1  0  0  0
 71148  1  0  0  0
 72 74  2  0  0  0
 72 86  1  0  0  0
 72149  1  0  0  0
 73 74  1  0  0  0
 73 85  1  0  0  0
 74 87  1  0  0  0
 75 77  1  0  0  0
 75 79  1  0  0  0
 75150  1  0  0  0
 75151  1  0  0  0
 76 78  1  0  0  0
 76 79  1  0  0  0
 76152  1  0  0  0
 76153  1  0  0  0
 77 88  1  0  0  0
 77154  1  0  0  0
 77155  1  0  0  0
 78 88  1  0  0  0
 78156  1  0  0  0
 78157  1  0  0  0
 79 86  1  0  0  0
 79158  1  0  0  0
 80 82  1  0  0  0
 80159  1  0  0  0
 80160  1  0  0  0
 80161  1  0  0  0
 81162  1  0  0  0
 81163  1  0  0  0
 81164  1  0  0  0
 81 85  1  0  0  0
 82 85  1  0  0  0
 82165  1  0  0  0
 82166  1  0  0  0
 83 84  1  0  0  0
 83167  1  0  0  0
 83168  1  0  0  0
 83 88  1  0  0  0
 84169  1  0  0  0
 84170  1  0  0  0
 85171  1  0  0  0
 87172  1  0  0  0
 88173  1  0  0  0
M  CHG  1  88   1
M  ISO  4   1 100  68 101  84 101  87 100
M  END
> <chiral flag>
0

> <version>
0

> <s_m_source_file>
/data/baiqing/PycharmProjects/Reinvent-master-3.2/result/LINK_invent/BTK/process_docking_weight1_custom_sum_contain_oxygen_bond_distance_aromatic_linkinvent_7_9_3/rearranged_h_0143.sdf

> <i_m_source_file_index>
9

> <r_mmod_Potential_Energy-OPLS-2005>
-104.163444519043

> <r_mmod_Stretch_Energy-OPLS-2005>
42.6212310791016

> <r_mmod_Bend_Energy-OPLS-2005>
137.111114501953

> <r_mmod_Torsional_Energy-OPLS-2005>
271.184753417969

> <r_mmod_Improper_Torsional_Energy-OPLS-2005>
2.9962306022644

> <r_mmod_Van_der_Waal_Energy-OPLS-2005>
131.928909301758

> <r_mmod_Electrostatic_Energy-OPLS-2005>
-273.879699707031

> <r_mmod_Solvation_Energy-OPLS-2005>
-431.634155273438

> <b_mmod_Minimization_Converged-OPLS-2005>
0

> <r_mmod_RMS_Derivative-OPLS-2005>
3.44801664352417

$$$$
9
                    3D
 Structure written by MMmdl.
173183  0  0  1  0            999 V2000
  -30.6771  -14.4614   20.4574 C   0  0  0  0  0  0
  -30.4229  -12.2437   19.4428 C   0  0  0  0  0  0
  -29.4829  -12.3571   18.2215 C   0  0  0  0  0  0
  -27.9982  -12.3175   18.6261 C   0  0  0  0  0  0
  -27.6573  -13.1878   19.8664 C   0  0  2  0  0  0
  -28.7026  -12.9903   20.9875 C   0  0  0  0  0  0
  -25.2595  -13.8126   20.5660 C   0  0  0  0  0  0
  -24.1822  -13.0429   20.9157 C   0  0  0  0  0  0
  -24.6346  -11.6894   20.8735 C   0  0  0  0  0  0
  -23.9026  -10.4281   21.0407 C   0  0  0  0  0  0
  -24.3596   -9.4192   21.9186 C   0  0  0  0  0  0
  -23.6275   -8.2222   22.0747 C   0  0  0  0  0  0
  -22.4257   -8.0264   21.3541 C   0  0  0  0  0  0
  -21.9872   -9.0239   20.4636 C   0  0  0  0  0  0
  -22.7201  -10.2120   20.3060 C   0  0  0  0  0  0
  -21.6851   -6.0714   22.5272 C   0  0  0  0  0  0
  -21.4015   -6.5621   23.8211 C   0  0  0  0  0  0
  -21.3652   -5.6775   24.9170 C   0  0  0  0  0  0
  -21.6047   -4.3041   24.7216 C   0  0  0  0  0  0
  -21.8823   -3.8132   23.4335 C   0  0  0  0  0  0
  -21.9193   -4.6942   22.3392 C   0  0  0  0  0  0
  -22.7858  -13.5254   21.1823 C   0  0  0  0  0  0
  -22.1668   -4.2143   21.0966 F   0  0  0  0  0  0
  -21.5634   -3.4523   25.7717 F   0  0  0  0  0  0
  -30.0331  -13.2662   20.4204 N   0  0  0  0  0  0
  -26.3007  -12.9259   20.3379 N   0  0  0  0  0  0
  -25.9266  -11.6441   20.5810 N   0  0  0  0  0  0
  -22.0498  -12.8264   22.0381 N   0  0  0  0  0  0
  -25.4358  -15.1830   20.4037 N   0  0  0  0  0  0
  -31.8552  -14.6173   20.1303 O   0  0  0  0  0  0
  -21.6636   -6.8853   21.4233 O   0  0  0  0  0  0
  -22.3564  -14.5590   20.6706 O   0  0  0  0  0  0
  -24.6077  -31.8704   23.2133 C   0  0  0  0  0  0
  -25.8989  -32.4837   23.8417 C   0  0  1  0  0  0
  -27.2428  -27.4863   20.0981 C   0  0  0  0  0  0
  -25.5854  -33.8633   24.2352 N   0  0  0  0  0  0
  -23.3957  -30.4918   21.5497 C   0  0  2  0  0  0
  -24.8475  -28.9637   20.1112 C   0  0  0  0  0  0
  -22.7381  -29.4650   22.4984 C   0  0  0  0  0  0
  -18.0262  -28.1376   22.8495 C   0  0  0  0  0  0
  -24.1479  -36.7322   23.2641 C   0  0  0  0  0  0
  -25.9173  -30.8516   21.3600 C   0  0  0  0  0  0
  -25.9991  -29.4884   20.7120 C   0  0  0  0  0  0
  -27.1977  -28.7493   20.7161 C   0  0  0  0  0  0
  -26.0833  -26.9577   19.4952 C   0  0  0  0  0  0
  -24.8814  -27.6940   19.5025 C   0  0  0  0  0  0
  -23.6037  -29.8216   20.1635 C   0  0  0  0  0  0
  -25.4096  -36.3123   24.0349 C   0  0  1  0  0  0
  -20.5846  -28.3653   23.1332 C   0  0  2  0  0  0
  -20.6750  -26.9389   22.5429 C   0  0  0  0  0  0
  -19.5732  -26.6388   21.5215 C   0  0  0  0  0  0
  -18.1904  -26.7929   22.1618 C   0  0  0  0  0  0
  -19.1510  -28.8830   23.2912 C   0  0  0  0  0  0
  -18.9445  -30.1433   23.8931 C   0  0  0  0  0  0
  -17.6450  -30.6582   24.0570 C   0  0  0  0  0  0
  -25.9014  -34.9485   23.5151 C   0  0  0  0  0  0
  -16.5343  -29.9093   23.6319 C   0  0  0  0  0  0
  -16.7251  -28.6506   23.0350 C   0  0  0  0  0  0
  -26.4446  -31.6605   25.0724 C   0  0  0  0  0  0
  -25.3747  -31.3694   26.1503 C   0  0  0  0  0  0
  -27.0264  -30.3059   24.6060 C   0  0  0  0  0  0
  -27.6042  -32.4319   25.7454 C   0  0  0  0  0  0
  -27.5579  -37.1807   24.8462 C   0  0  0  0  0  0
  -21.4109  -29.3027   22.3741 N   0  0  0  0  0  0
  -26.4287  -37.3803   23.9413 N   0  0  0  0  0  0
  -24.6578  -31.0845   22.1005 N   0  0  0  0  0  0
  -23.4168  -28.8211   23.3022 O   0  0  0  0  0  0
  -28.3915  -26.7499   20.1639 O   0  0  0  0  0  0
  -26.5588  -34.8927   22.4720 O   0  0  0  0  0  0
  -23.5282  -32.1425   23.7556 O   0  0  0  0  0  0
  -29.9027  -18.3216   18.1616 C   0  0  0  0  0  0
  -29.8537  -19.4158   19.0259 C   0  0  0  0  0  0
  -29.8906  -17.9165   20.9329 C   0  0  0  0  0  0
  -29.9794  -17.0055   18.6515 C   0  0  0  0  0  0
  -29.8624  -19.2343   20.4248 C   0  0  0  0  0  0
  -29.9542  -16.7983   20.0663 C   0  0  0  0  0  0
  -31.3533  -15.3329   17.1475 C   0  0  0  0  0  0
  -30.5059  -16.1284   16.1963 C   0  0  0  0  0  0
  -30.8105  -22.8271   21.6461 C   0  0  0  0  0  0
  -28.9488  -22.4434   20.0523 C   0  0  0  0  0  0
  -31.2051  -24.0920   20.8481 C   0  0  0  0  0  0
  -29.3846  -23.6595   19.2249 C   0  0  0  0  0  0
  -30.0301  -15.9054   17.6252 C   0  0  0  0  0  0
  -30.1778  -21.7852   20.7119 C   0  0  2  0  0  0
  -29.8426  -20.4303   21.3830 C   0  0  0  0  0  0
  -30.4289  -25.9104   19.3543 C   0  0  0  0  0  0
  -29.1887  -26.7426   18.9928 C   0  0  0  0  0  0
  -29.8641  -15.5088   20.6688 N   0  0  0  0  0  0
  -30.0624  -24.6653   20.0840 N   0  3  2  0  0  0
  -31.4625  -12.3435   19.1267 H   0  0  0  0  0  0
  -30.3411  -11.2543   19.8972 H   0  0  0  0  0  0
  -29.6916  -11.5473   17.5202 H   0  0  0  0  0  0
  -29.6779  -13.2588   17.6644 H   0  0  0  0  0  0
  -27.7525  -11.2736   18.8237 H   0  0  0  0  0  0
  -27.3732  -12.6187   17.7844 H   0  0  0  0  0  0
  -27.6941  -14.2265   19.5418 H   0  0  0  0  0  0
  -28.6661  -11.9654   21.3598 H   0  0  0  0  0  0
  -28.4827  -13.6243   21.8475 H   0  0  0  0  0  0
  -25.2729   -9.5687   22.4776 H   0  0  0  0  0  0
  -23.9991   -7.4595   22.7455 H   0  0  0  0  0  0
  -21.0816   -8.8749   19.8926 H   0  0  0  0  0  0
  -22.3648  -10.9665   19.6187 H   0  0  0  0  0  0
  -21.2026   -7.6130   23.9707 H   0  0  0  0  0  0
  -21.1480   -6.0508   25.9078 H   0  0  0  0  0  0
  -22.0618   -2.7590   23.2837 H   0  0  0  0  0  0
  -22.4093  -11.9903   22.4746 H   0  0  0  0  0  0
  -21.1128  -13.1330   22.2597 H   0  0  0  0  0  0
  -24.6713  -15.8402   20.5165 H   0  0  0  0  0  0
  -26.2965  -15.6222   20.1037 H   0  0  0  0  0  0
  -26.7070  -32.5578   23.1198 H   0  0  0  0  0  0
  -24.9990  -33.9811   25.0485 H   0  0  0  0  0  0
  -22.6810  -31.3050   21.4107 H   0  0  0  0  0  0
  -23.3734  -35.9662   23.3321 H   0  0  0  0  0  0
  -24.3575  -36.8916   22.2051 H   0  0  0  0  0  0
  -23.7244  -37.6539   23.6641 H   0  0  0  0  0  0
  -26.0205  -31.6162   20.5887 H   0  0  0  0  0  0
  -26.8090  -30.9115   21.9721 H   0  0  0  0  0  0
  -28.0824  -29.1401   21.1995 H   0  0  0  0  0  0
  -26.1041  -25.9756   19.0431 H   0  0  0  0  0  0
  -23.9935  -27.2794   19.0446 H   0  0  0  0  0  0
  -23.7040  -30.5947   19.4004 H   0  0  0  0  0  0
  -22.7313  -29.2328   19.8726 H   0  0  0  0  0  0
  -25.1266  -36.1993   25.0843 H   0  0  0  0  0  0
  -20.9936  -28.3226   24.1451 H   0  0  0  0  0  0
  -20.5628  -26.2262   23.3614 H   0  0  0  0  0  0
  -21.6630  -26.7414   22.1246 H   0  0  0  0  0  0
  -19.6889  -25.6304   21.1231 H   0  0  0  0  0  0
  -19.6674  -27.3212   20.6756 H   0  0  0  0  0  0
  -17.4173  -26.6676   21.4018 H   0  0  0  0  0  0
  -18.0288  -26.0062   22.9002 H   0  0  0  0  0  0
  -19.7921  -30.7233   24.2324 H   0  0  0  0  0  0
  -17.5008  -31.6270   24.5161 H   0  0  0  0  0  0
  -15.5344  -30.3012   23.7622 H   0  0  0  0  0  0
  -15.8647  -28.0836   22.7060 H   0  0  0  0  0  0
  -24.5918  -30.7027   25.7869 H   0  0  0  0  0  0
  -24.8934  -32.2839   26.4977 H   0  0  0  0  0  0
  -25.8137  -30.8866   27.0244 H   0  0  0  0  0  0
  -26.2785  -29.6821   24.1154 H   0  0  0  0  0  0
  -27.4097  -29.7287   25.4482 H   0  0  0  0  0  0
  -27.8588  -30.4391   23.9150 H   0  0  0  0  0  0
  -27.2678  -33.3601   26.2083 H   0  0  0  0  0  0
  -28.3800  -32.6914   25.0240 H   0  0  0  0  0  0
  -28.0771  -31.8423   26.5317 H   0  0  0  0  0  0
  -28.2611  -38.0092   24.7504 H   0  0  0  0  0  0
  -28.1060  -36.2627   24.6280 H   0  0  0  0  0  0
  -27.2306  -37.1457   25.8871 H   0  0  0  0  0  0
  -20.9253  -29.8743   21.6973 H   0  0  0  0  0  0
  -26.0178  -38.2879   24.1432 H   0  0  0  0  0  0
  -29.8719  -18.5234   17.1003 H   0  0  0  0  0  0
  -29.8176  -20.3860   18.5609 H   0  0  0  0  0  0
  -29.8698  -17.7603   22.0031 H   0  0  0  0  0  0
  -32.2647  -15.8014   17.5099 H   0  0  0  0  0  0
  -31.4421  -14.2721   16.9271 H   0  0  0  0  0  0
  -30.0173  -15.5642   15.4054 H   0  0  0  0  0  0
  -30.9259  -17.0822   15.8854 H   0  0  0  0  0  0
  -30.1204  -23.0804   22.4521 H   0  0  0  0  0  0
  -31.7003  -22.4134   22.1237 H   0  0  0  0  0  0
  -28.4087  -21.7478   19.4120 H   0  0  0  0  0  0
  -28.2280  -22.7487   20.8116 H   0  0  0  0  0  0
  -32.0115  -23.8512   20.1523 H   0  0  0  0  0  0
  -31.5998  -24.8423   21.5343 H   0  0  0  0  0  0
  -28.5030  -24.0857   18.7456 H   0  0  0  0  0  0
  -30.0545  -23.3441   18.4228 H   0  0  0  0  0  0
  -29.1435  -15.2856   17.7134 H   0  0  0  0  0  0
  -30.9477  -21.5958   19.9620 H   0  0  0  0  0  0
  -30.5732  -20.2255   22.1672 H   0  0  0  0  0  0
  -28.8761  -20.4774   21.8855 H   0  0  0  0  0  0
  -31.0627  -26.5220   19.9983 H   0  0  0  0  0  0
  -31.0189  -25.6852   18.4658 H   0  0  0  0  0  0
  -28.6427  -26.3134   18.1521 H   0  0  0  0  0  0
  -29.4775  -27.7578   18.7170 H   0  0  0  0  0  0
  -28.9728  -15.2762   21.0791 H   0  0  0  0  0  0
  -29.3761  -24.9589   20.7682 H   0  0  0  0  0  0
  1 25  1  0  0  0
  1 30  2  0  0  0
  1 88  1  0  0  0
  2  3  1  0  0  0
  2 25  1  0  0  0
  2 90  1  0  0  0
  2 91  1  0  0  0
  3  4  1  0  0  0
  3 92  1  0  0  0
  3 93  1  0  0  0
  4  5  1  0  0  0
  4 94  1  0  0  0
  4 95  1  0  0  0
  5  6  1  0  0  0
  5 26  1  0  0  0
  5 96  1  0  0  0
  6 25  1  0  0  0
  6 97  1  0  0  0
  6 98  1  0  0  0
  7  8  2  0  0  0
  7 26  1  0  0  0
  7 29  1  0  0  0
  8  9  1  0  0  0
  8 22  1  0  0  0
  9 10  1  0  0  0
  9 27  2  0  0  0
 10 11  2  0  0  0
 10 15  1  0  0  0
 11 12  1  0  0  0
 11 99  1  0  0  0
 12 13  2  0  0  0
 12100  1  0  0  0
 13 14  1  0  0  0
 13 31  1  0  0  0
 14 15  2  0  0  0
 14101  1  0  0  0
 15102  1  0  0  0
 16 17  2  0  0  0
 16 21  1  0  0  0
 16 31  1  0  0  0
 17 18  1  0  0  0
 17103  1  0  0  0
 18 19  2  0  0  0
 18104  1  0  0  0
 19 20  1  0  0  0
 19 24  1  0  0  0
 20 21  2  0  0  0
 20105  1  0  0  0
 21 23  1  0  0  0
 22 28  1  0  0  0
 22 32  2  0  0  0
 26 27  1  0  0  0
 28106  1  0  0  0
 28107  1  0  0  0
 29108  1  0  0  0
 29109  1  0  0  0
 33 34  1  0  0  0
 33 66  1  0  0  0
 33 70  2  0  0  0
 34 36  1  0  0  0
 34 59  1  0  0  0
 34110  1  0  0  0
 35 44  2  0  0  0
 35 45  1  0  0  0
 35 68  1  0  0  0
 36 56  1  0  0  0
 36111  1  0  0  0
 37 39  1  0  0  0
 37 47  1  0  0  0
 37 66  1  0  0  0
 37112  1  0  0  0
 38 43  2  0  0  0
 38 46  1  0  0  0
 38 47  1  0  0  0
 39 64  1  0  0  0
 39 67  2  0  0  0
 40 52  1  0  0  0
 40 53  2  0  0  0
 40 58  1  0  0  0
 41113  1  0  0  0
 41114  1  0  0  0
 41115  1  0  0  0
 41 48  1  0  0  0
 42 43  1  0  0  0
 42 66  1  0  0  0
 42116  1  0  0  0
 42117  1  0  0  0
 43 44  1  0  0  0
 44118  1  0  0  0
 45 46  2  0  0  0
 45119  1  0  0  0
 46120  1  0  0  0
 47121  1  0  0  0
 47122  1  0  0  0
 48 56  1  0  0  0
 48 65  1  0  0  0
 48123  1  0  0  0
 49 50  1  0  0  0
 49 53  1  0  0  0
 49 64  1  0  0  0
 49124  1  0  0  0
 50 51  1  0  0  0
 50125  1  0  0  0
 50126  1  0  0  0
 51 52  1  0  0  0
 51127  1  0  0  0
 51128  1  0  0  0
 52129  1  0  0  0
 52130  1  0  0  0
 53 54  1  0  0  0
 54 55  2  0  0  0
 54131  1  0  0  0
 55 57  1  0  0  0
 55132  1  0  0  0
 56 69  2  0  0  0
 57 58  2  0  0  0
 57133  1  0  0  0
 58134  1  0  0  0
 59 60  1  0  0  0
 59 61  1  0  0  0
 59 62  1  0  0  0
 60135  1  0  0  0
 60136  1  0  0  0
 60137  1  0  0  0
 61138  1  0  0  0
 61139  1  0  0  0
 61140  1  0  0  0
 62141  1  0  0  0
 62142  1  0  0  0
 62143  1  0  0  0
 63 65  1  0  0  0
 63144  1  0  0  0
 63145  1  0  0  0
 63146  1  0  0  0
 64147  1  0  0  0
 65148  1  0  0  0
 68 87  1  0  0  0
 71 72  2  0  0  0
 71 74  1  0  0  0
 71149  1  0  0  0
 72 75  1  0  0  0
 72150  1  0  0  0
 73 75  2  0  0  0
 73 76  1  0  0  0
 73151  1  0  0  0
 74 76  2  0  0  0
 74 83  1  0  0  0
 75 85  1  0  0  0
 76 88  1  0  0  0
 77 78  1  0  0  0
 77 83  1  0  0  0
 77152  1  0  0  0
 77153  1  0  0  0
 78 83  1  0  0  0
 78154  1  0  0  0
 78155  1  0  0  0
 79 81  1  0  0  0
 79 84  1  0  0  0
 79156  1  0  0  0
 79157  1  0  0  0
 80 82  1  0  0  0
 80 84  1  0  0  0
 80158  1  0  0  0
 80159  1  0  0  0
 81 89  1  0  0  0
 81160  1  0  0  0
 81161  1  0  0  0
 82 89  1  0  0  0
 82162  1  0  0  0
 82163  1  0  0  0
 83164  1  0  0  0
 84 85  1  0  0  0
 84165  1  0  0  0
 85166  1  0  0  0
 85167  1  0  0  0
 86 87  1  0  0  0
 86168  1  0  0  0
 86169  1  0  0  0
 86 89  1  0  0  0
 87170  1  0  0  0
 87171  1  0  0  0
 88172  1  0  0  0
 89173  1  0  0  0
M  CHG  1  89   1
M  ISO  4   1 100  68 101  87 101  88 100
M  END
> <chiral flag>
0

> <version>
0

> <s_m_source_file>
/data/baiqing/PycharmProjects/Reinvent-master-3.2/result/LINK_invent/BTK/process_docking_weight1_custom_sum_contain_oxygen_bond_distance_aromatic_linkinvent_7_9_3/rearranged_h_0143.sdf

> <i_m_source_file_index>
10

> <r_mmod_Potential_Energy-OPLS-2005>
5.30079650878906

> <r_mmod_Stretch_Energy-OPLS-2005>
35.6566200256348

> <r_mmod_Bend_Energy-OPLS-2005>
103.831733703613

> <r_mmod_Torsional_Energy-OPLS-2005>
347.489105224609

> <r_mmod_Improper_Torsional_Energy-OPLS-2005>
6.30950784683228

> <r_mmod_Van_der_Waal_Energy-OPLS-2005>
162.160491943359

> <r_mmod_Electrostatic_Energy-OPLS-2005>
-261.869262695312

> <r_mmod_Solvation_Energy-OPLS-2005>
-408.330688476562

> <b_mmod_Minimization_Converged-OPLS-2005>
0

> <r_mmod_RMS_Derivative-OPLS-2005>
2.63249683380127

$$$$
10
                    3D
 Structure written by MMmdl.
170178  0  0  1  0            999 V2000
  -30.5689  -14.7138   20.4588 C   0  0  0  0  0  0
  -30.4604  -12.4316   19.4899 C   0  0  0  0  0  0
  -29.5314  -12.4973   18.2564 C   0  0  0  0  0  0
  -28.0528  -12.3225   18.6591 C   0  0  0  0  0  0
  -27.6523  -13.2175   19.8561 C   0  0  2  0  0  0
  -28.6898  -13.1203   20.9981 C   0  0  0  0  0  0
  -25.2561  -13.8168   20.5639 C   0  0  0  0  0  0
  -24.1813  -13.0452   20.9143 C   0  0  0  0  0  0
  -24.6387  -11.6946   20.8685 C   0  0  0  0  0  0
  -23.9038  -10.4329   21.0357 C   0  0  0  0  0  0
  -24.3605   -9.4256   21.9125 C   0  0  0  0  0  0
  -23.6270   -8.2290   22.0742 C   0  0  0  0  0  0
  -22.4257   -8.0314   21.3543 C   0  0  0  0  0  0
  -21.9878   -9.0279   20.4656 C   0  0  0  0  0  0
  -22.7203  -10.2162   20.3015 C   0  0  0  0  0  0
  -21.6881   -6.0735   22.5284 C   0  0  0  0  0  0
  -21.4024   -6.5633   23.8222 C   0  0  0  0  0  0
  -21.3647   -5.6786   24.9169 C   0  0  0  0  0  0
  -21.6050   -4.3050   24.7236 C   0  0  0  0  0  0
  -21.8820   -3.8140   23.4346 C   0  0  0  0  0  0
  -21.9219   -4.6951   22.3415 C   0  0  0  0  0  0
  -22.7856  -13.5289   21.1811 C   0  0  0  0  0  0
  -22.1672   -4.2127   21.0981 F   0  0  0  0  0  0
  -21.5643   -3.4557   25.7739 F   0  0  0  0  0  0
  -30.0046  -13.4609   20.4441 N   0  0  0  0  0  0
  -26.2973  -12.9348   20.3254 N   0  0  0  0  0  0
  -25.9314  -11.6530   20.5727 N   0  0  0  0  0  0
  -22.0494  -12.8257   22.0370 N   0  0  0  0  0  0
  -25.4278  -15.1874   20.4136 N   0  0  0  0  0  0
  -31.7678  -14.8494   20.1861 O   0  0  0  0  0  0
  -21.6660   -6.8873   21.4256 O   0  0  0  0  0  0
  -22.3555  -14.5594   20.6683 O   0  0  0  0  0  0
  -24.6289  -31.8638   23.2071 C   0  0  0  0  0  0
  -25.9133  -32.4825   23.8383 C   0  0  1  0  0  0
  -27.2294  -27.3230   20.0879 C   0  0  0  0  0  0
  -25.5936  -33.8609   24.2299 N   0  0  0  0  0  0
  -23.4235  -30.4886   21.5508 C   0  0  2  0  0  0
  -24.8703  -28.9553   20.1140 C   0  0  0  0  0  0
  -22.7516  -29.4605   22.4920 C   0  0  0  0  0  0
  -18.0318  -28.1368   22.8460 C   0  0  0  0  0  0
  -24.1497  -36.7310   23.2629 C   0  0  0  0  0  0
  -25.9682  -30.7827   21.3928 C   0  0  0  0  0  0
  -26.0391  -29.4102   20.7398 C   0  0  0  0  0  0
  -27.2183  -28.6031   20.7289 C   0  0  0  0  0  0
  -26.0533  -26.9676   19.3964 C   0  0  0  0  0  0
  -24.8783  -27.7339   19.4336 C   0  0  0  0  0  0
  -23.6400  -29.8339   20.1646 C   0  0  0  0  0  0
  -25.4105  -36.3098   24.0329 C   0  0  1  0  0  0
  -20.5933  -28.3691   23.1301 C   0  0  2  0  0  0
  -20.6816  -26.9387   22.5464 C   0  0  0  0  0  0
  -19.5840  -26.6379   21.5208 C   0  0  0  0  0  0
  -18.1968  -26.7956   22.1505 C   0  0  0  0  0  0
  -19.1575  -28.8845   23.2854 C   0  0  0  0  0  0
  -18.9462  -30.1448   23.8886 C   0  0  0  0  0  0
  -17.6449  -30.6580   24.0511 C   0  0  0  0  0  0
  -25.9051  -34.9474   23.5099 C   0  0  0  0  0  0
  -16.5360  -29.9050   23.6268 C   0  0  0  0  0  0
  -16.7307  -28.6442   23.0356 C   0  0  0  0  0  0
  -26.4484  -31.6614   25.0750 C   0  0  0  0  0  0
  -25.3710  -31.3760   26.1471 C   0  0  0  0  0  0
  -27.0313  -30.3020   24.6257 C   0  0  0  0  0  0
  -27.6059  -32.4336   25.7516 C   0  0  0  0  0  0
  -27.5578  -37.1827   24.8451 C   0  0  0  0  0  0
  -21.4219  -29.3053   22.3669 N   0  0  0  0  0  0
  -26.4303  -37.3787   23.9409 N   0  0  0  0  0  0
  -24.6913  -31.0621   22.1056 N   0  0  0  0  0  0
  -23.4243  -28.8096   23.2968 O   0  0  0  0  0  0
  -28.3470  -26.4666   20.0441 O   0  0  0  0  0  0
  -26.5621  -34.8927   22.4681 O   0  0  0  0  0  0
  -23.5446  -32.1414   23.7398 O   0  0  0  0  0  0
  -27.2978  -23.7400   18.6897 C   0  0  0  0  0  0
  -26.6773  -22.3664   18.6488 C   0  0  0  0  0  0
  -28.4020  -23.7402   19.7575 C   0  0  1  0  0  0
  -26.9370  -21.8198   20.0542 C   0  0  2  0  0  0
  -25.3254  -23.3784   21.5028 C   0  0  0  0  0  0
  -24.5377  -21.1457   20.6710 C   0  0  0  0  0  0
  -30.7894  -21.6966   20.0768 C   0  0  0  0  0  0
  -29.6359  -16.0100   20.4532 C   0  0  0  0  0  0
  -28.2575  -25.0981   20.6361 C   0  0  0  0  0  0
  -30.0758  -17.4380   21.0316 C   0  0  0  0  0  0
  -29.2536  -19.8883   21.0774 C   0  0  0  0  0  0
  -25.7753  -21.9608   21.0952 C   0  0  0  0  0  0
  -29.3161  -21.2368   20.1775 C   0  0  1  0  0  0
  -28.2778  -22.3594   20.4691 N   0  3  1  0  0  0
  -29.4792  -18.6166   20.3555 O   0  0  0  0  0  0
  -31.4972  -12.5924   19.1863 H   0  0  0  0  0  0
  -30.4315  -11.4460   19.9558 H   0  0  0  0  0  0
  -29.8210  -11.7280   17.5416 H   0  0  0  0  0  0
  -29.6741  -13.4530   17.7481 H   0  0  0  0  0  0
  -27.9064  -11.2717   18.9180 H   0  0  0  0  0  0
  -27.3978  -12.5134   17.8069 H   0  0  0  0  0  0
  -27.6580  -14.2382   19.4767 H   0  0  0  0  0  0
  -28.7070  -12.1198   21.4335 H   0  0  0  0  0  0
  -28.4281  -13.7934   21.8173 H   0  0  0  0  0  0
  -25.2767   -9.5785   22.4660 H   0  0  0  0  0  0
  -24.0036   -7.4705   22.7439 H   0  0  0  0  0  0
  -21.0824   -8.8770   19.8956 H   0  0  0  0  0  0
  -22.3625  -10.9665   19.6117 H   0  0  0  0  0  0
  -21.1989   -7.6141   23.9713 H   0  0  0  0  0  0
  -21.1460   -6.0496   25.9064 H   0  0  0  0  0  0
  -22.0595   -2.7600   23.2861 H   0  0  0  0  0  0
  -22.4211  -11.9983   22.4794 H   0  0  0  0  0  0
  -21.1125  -13.1275   22.2593 H   0  0  0  0  0  0
  -24.6642  -15.8432   20.5508 H   0  0  0  0  0  0
  -26.2797  -15.6323   20.0971 H   0  0  0  0  0  0
  -26.7197  -32.5464   23.1118 H   0  0  0  0  0  0
  -25.0122  -33.9724   25.0477 H   0  0  0  0  0  0
  -22.7159  -31.3089   21.4174 H   0  0  0  0  0  0
  -23.3764  -35.9636   23.3305 H   0  0  0  0  0  0
  -24.3564  -36.8924   22.2036 H   0  0  0  0  0  0
  -23.7256  -37.6518   23.6648 H   0  0  0  0  0  0
  -26.1134  -31.5381   20.6196 H   0  0  0  0  0  0
  -26.8477  -30.8243   22.0237 H   0  0  0  0  0  0
  -28.1129  -28.9541   21.2201 H   0  0  0  0  0  0
  -26.0205  -26.1365   18.7296 H   0  0  0  0  0  0
  -24.0057  -27.4084   18.8831 H   0  0  0  0  0  0
  -23.7648  -30.6177   19.4173 H   0  0  0  0  0  0
  -22.7612  -29.2661   19.8545 H   0  0  0  0  0  0
  -25.1300  -36.1958   25.0824 H   0  0  0  0  0  0
  -21.0061  -28.3283   24.1415 H   0  0  0  0  0  0
  -20.5673  -26.2299   23.3679 H   0  0  0  0  0  0
  -21.6685  -26.7381   22.1252 H   0  0  0  0  0  0
  -19.6958  -25.6285   21.1264 H   0  0  0  0  0  0
  -19.6895  -27.3188   20.6756 H   0  0  0  0  0  0
  -18.0251  -26.0015   22.8782 H   0  0  0  0  0  0
  -17.4334  -26.6847   21.3783 H   0  0  0  0  0  0
  -19.7895  -30.7304   24.2257 H   0  0  0  0  0  0
  -17.4979  -31.6275   24.5069 H   0  0  0  0  0  0
  -15.5375  -30.2943   23.7555 H   0  0  0  0  0  0
  -15.8735  -28.0720   22.7102 H   0  0  0  0  0  0
  -24.5869  -30.7154   25.7780 H   0  0  0  0  0  0
  -24.8924  -32.2937   26.4897 H   0  0  0  0  0  0
  -25.7976  -30.8905   27.0259 H   0  0  0  0  0  0
  -26.2893  -29.6799   24.1261 H   0  0  0  0  0  0
  -27.3946  -29.7247   25.4773 H   0  0  0  0  0  0
  -27.8799  -30.4264   23.9528 H   0  0  0  0  0  0
  -27.2694  -33.3636   26.2081 H   0  0  0  0  0  0
  -28.3853  -32.6902   25.0347 H   0  0  0  0  0  0
  -28.0760  -31.8503   26.5425 H   0  0  0  0  0  0
  -28.2611  -38.0118   24.7502 H   0  0  0  0  0  0
  -28.1067  -36.2656   24.6288 H   0  0  0  0  0  0
  -27.2292  -37.1493   25.8852 H   0  0  0  0  0  0
  -20.9380  -29.8911   21.6998 H   0  0  0  0  0  0
  -26.0182  -38.2867   24.1420 H   0  0  0  0  0  0
  -26.4814  -24.3332   19.0471 H   0  0  0  0  0  0
  -27.5931  -24.1374   17.7177 H   0  0  0  0  0  0
  -27.1795  -21.7586   17.8943 H   0  0  0  0  0  0
  -25.6222  -22.4045   18.3770 H   0  0  0  0  0  0
  -29.3518  -23.8082   19.2389 H   0  0  0  0  0  0
  -27.0011  -20.7410   19.9176 H   0  0  0  0  0  0
  -26.0169  -23.8175   22.2193 H   0  0  0  0  0  0
  -24.3616  -23.3538   22.0123 H   0  0  0  0  0  0
  -25.1859  -24.0594   20.6661 H   0  0  0  0  0  0
  -24.7963  -20.1102   20.4503 H   0  0  0  0  0  0
  -24.0454  -21.5490   19.7858 H   0  0  0  0  0  0
  -23.7898  -21.1231   21.4656 H   0  0  0  0  0  0
  -31.3977  -20.8528   19.7467 H   0  0  0  0  0  0
  -31.2040  -22.0403   21.0246 H   0  0  0  0  0  0
  -30.9631  -22.4710   19.3320 H   0  0  0  0  0  0
  -29.4191  -16.1587   19.3921 H   0  0  0  0  0  0
  -28.6664  -15.7814   20.8872 H   0  0  0  0  0  0
  -29.0394  -25.0724   21.3960 H   0  0  0  0  0  0
  -27.3305  -25.0786   21.1963 H   0  0  0  0  0  0
  -31.1618  -17.5478   20.9921 H   0  0  0  0  0  0
  -29.8057  -17.4547   22.0916 H   0  0  0  0  0  0
  -28.2921  -19.7993   21.5909 H   0  0  0  0  0  0
  -29.9768  -19.9641   21.8915 H   0  0  0  0  0  0
  -26.1247  -21.4828   22.0139 H   0  0  0  0  0  0
  -29.0745  -20.9064   19.1653 H   0  0  0  0  0  0
  -28.2765  -22.5286   21.4657 H   0  0  0  0  0  0
  1 25  1  0  0  0
  1 30  2  0  0  0
  1 78  1  0  0  0
  2  3  1  0  0  0
  2 25  1  0  0  0
  2 86  1  0  0  0
  2 87  1  0  0  0
  3  4  1  0  0  0
  3 88  1  0  0  0
  3 89  1  0  0  0
  4  5  1  0  0  0
  4 90  1  0  0  0
  4 91  1  0  0  0
  5  6  1  0  0  0
  5 26  1  0  0  0
  5 92  1  0  0  0
  6 25  1  0  0  0
  6 93  1  0  0  0
  6 94  1  0  0  0
  7  8  2  0  0  0
  7 26  1  0  0  0
  7 29  1  0  0  0
  8  9  1  0  0  0
  8 22  1  0  0  0
  9 10  1  0  0  0
  9 27  2  0  0  0
 10 11  2  0  0  0
 10 15  1  0  0  0
 11 12  1  0  0  0
 11 95  1  0  0  0
 12 13  2  0  0  0
 12 96  1  0  0  0
 13 14  1  0  0  0
 13 31  1  0  0  0
 14 15  2  0  0  0
 14 97  1  0  0  0
 15 98  1  0  0  0
 16 17  2  0  0  0
 16 21  1  0  0  0
 16 31  1  0  0  0
 17 18  1  0  0  0
 17 99  1  0  0  0
 18 19  2  0  0  0
 18100  1  0  0  0
 19 20  1  0  0  0
 19 24  1  0  0  0
 20 21  2  0  0  0
 20101  1  0  0  0
 21 23  1  0  0  0
 22 28  1  0  0  0
 22 32  2  0  0  0
 26 27  1  0  0  0
 28102  1  0  0  0
 28103  1  0  0  0
 29104  1  0  0  0
 29105  1  0  0  0
 33 34  1  0  0  0
 33 66  1  0  0  0
 33 70  2  0  0  0
 34 36  1  0  0  0
 34 59  1  0  0  0
 34106  1  0  0  0
 35 44  2  0  0  0
 35 45  1  0  0  0
 35 68  1  0  0  0
 36 56  1  0  0  0
 36107  1  0  0  0
 37 39  1  0  0  0
 37 47  1  0  0  0
 37 66  1  0  0  0
 37108  1  0  0  0
 38 43  2  0  0  0
 38 46  1  0  0  0
 38 47  1  0  0  0
 39 64  1  0  0  0
 39 67  2  0  0  0
 40 52  1  0  0  0
 40 53  2  0  0  0
 40 58  1  0  0  0
 41109  1  0  0  0
 41110  1  0  0  0
 41111  1  0  0  0
 41 48  1  0  0  0
 42 43  1  0  0  0
 42 66  1  0  0  0
 42112  1  0  0  0
 42113  1  0  0  0
 43 44  1  0  0  0
 44114  1  0  0  0
 45 46  2  0  0  0
 45115  1  0  0  0
 46116  1  0  0  0
 47117  1  0  0  0
 47118  1  0  0  0
 48 56  1  0  0  0
 48 65  1  0  0  0
 48119  1  0  0  0
 49 50  1  0  0  0
 49 53  1  0  0  0
 49 64  1  0  0  0
 49120  1  0  0  0
 50 51  1  0  0  0
 50121  1  0  0  0
 50122  1  0  0  0
 51 52  1  0  0  0
 51123  1  0  0  0
 51124  1  0  0  0
 52125  1  0  0  0
 52126  1  0  0  0
 53 54  1  0  0  0
 54 55  2  0  0  0
 54127  1  0  0  0
 55 57  1  0  0  0
 55128  1  0  0  0
 56 69  2  0  0  0
 57 58  2  0  0  0
 57129  1  0  0  0
 58130  1  0  0  0
 59 60  1  0  0  0
 59 61  1  0  0  0
 59 62  1  0  0  0
 60131  1  0  0  0
 60132  1  0  0  0
 60133  1  0  0  0
 61134  1  0  0  0
 61135  1  0  0  0
 61136  1  0  0  0
 62137  1  0  0  0
 62138  1  0  0  0
 62139  1  0  0  0
 63 65  1  0  0  0
 63140  1  0  0  0
 63141  1  0  0  0
 63142  1  0  0  0
 64143  1  0  0  0
 65144  1  0  0  0
 68 79  1  0  0  0
 71 72  1  0  0  0
 71 73  1  0  0  0
 71145  1  0  0  0
 71146  1  0  0  0
 72147  1  0  0  0
 72148  1  0  0  0
 72 74  1  0  0  0
 73 79  1  0  0  0
 73 84  1  0  0  0
 73149  1  0  0  0
 74 82  1  0  0  0
 74 84  1  0  0  0
 74150  1  0  0  0
 75151  1  0  0  0
 75152  1  0  0  0
 75153  1  0  0  0
 75 82  1  0  0  0
 76 82  1  0  0  0
 76154  1  0  0  0
 76155  1  0  0  0
 76156  1  0  0  0
 77157  1  0  0  0
 77158  1  0  0  0
 77159  1  0  0  0
 77 83  1  0  0  0
 78 80  1  0  0  0
 78160  1  0  0  0
 78161  1  0  0  0
 79162  1  0  0  0
 79163  1  0  0  0
 80 85  1  0  0  0
 80164  1  0  0  0
 80165  1  0  0  0
 81 83  1  0  0  0
 81 85  1  0  0  0
 81166  1  0  0  0
 81167  1  0  0  0
 82168  1  0  0  0
 83169  1  0  0  0
 83 84  1  0  0  0
 84170  1  0  0  0
M  CHG  1  84   1
M  ISO  4   1 100  68 101  78 100  79 101
M  END
> <chiral flag>
0

> <version>
0

> <s_m_source_file>
/data/baiqing/PycharmProjects/Reinvent-master-3.2/result/LINK_invent/BTK/process_docking_weight1_custom_sum_contain_oxygen_bond_distance_aromatic_linkinvent_7_9_3/rearranged_h_0143.sdf

> <i_m_source_file_index>
11

> <r_mmod_Potential_Energy-OPLS-2005>
340.6591796875

> <r_mmod_Stretch_Energy-OPLS-2005>
122.981513977051

> <r_mmod_Bend_Energy-OPLS-2005>
217.45491027832

> <r_mmod_Torsional_Energy-OPLS-2005>
325.787719726562

> <r_mmod_Improper_Torsional_Energy-OPLS-2005>
8.67793369293213

> <r_mmod_Van_der_Waal_Energy-OPLS-2005>
133.824569702148

> <r_mmod_Electrostatic_Energy-OPLS-2005>
-150.157775878906

> <r_mmod_Solvation_Energy-OPLS-2005>
-384.522857666016

> <b_mmod_Minimization_Converged-OPLS-2005>
0

> <r_mmod_RMS_Derivative-OPLS-2005>
6.59570837020874

$$$$
11
                    3D
 Structure written by MMmdl.
153162  0  0  1  0            999 V2000
  -30.6163  -14.8636   20.5348 C   0  0  0  0  0  0
  -30.4290  -12.5488   19.5084 C   0  0  0  0  0  0
  -29.5215  -12.5434   18.2568 C   0  0  0  0  0  0
  -28.0509  -12.3291   18.6560 C   0  0  0  0  0  0
  -27.6334  -13.2415   19.8351 C   0  0  2  0  0  0
  -28.6623  -13.2216   20.9797 C   0  0  0  0  0  0
  -25.2477  -13.8199   20.5663 C   0  0  0  0  0  0
  -24.1788  -13.0436   20.9199 C   0  0  0  0  0  0
  -24.6393  -11.6918   20.8724 C   0  0  0  0  0  0
  -23.9075  -10.4293   21.0398 C   0  0  0  0  0  0
  -24.3625   -9.4210   21.9180 C   0  0  0  0  0  0
  -23.6298   -8.2247   22.0753 C   0  0  0  0  0  0
  -22.4279   -8.0283   21.3545 C   0  0  0  0  0  0
  -21.9914   -9.0255   20.4646 C   0  0  0  0  0  0
  -22.7245  -10.2132   20.3052 C   0  0  0  0  0  0
  -21.6855   -6.0737   22.5280 C   0  0  0  0  0  0
  -21.4016   -6.5640   23.8213 C   0  0  0  0  0  0
  -21.3660   -5.6793   24.9175 C   0  0  0  0  0  0
  -21.6044   -4.3055   24.7225 C   0  0  0  0  0  0
  -21.8819   -3.8147   23.4346 C   0  0  0  0  0  0
  -21.9193   -4.6964   22.3403 C   0  0  0  0  0  0
  -22.7813  -13.5214   21.1878 C   0  0  0  0  0  0
  -22.1662   -4.2150   21.0980 F   0  0  0  0  0  0
  -21.5628   -3.4539   25.7738 F   0  0  0  0  0  0
  -29.9660  -13.6304   20.4312 N   0  0  0  0  0  0
  -26.2883  -12.9419   20.3154 N   0  0  0  0  0  0
  -25.9315  -11.6555   20.5670 N   0  0  0  0  0  0
  -22.0469  -12.8199   22.0438 N   0  0  0  0  0  0
  -25.4175  -15.1921   20.4107 N   0  0  0  0  0  0
  -31.7390  -14.9261   20.0206 O   0  0  0  0  0  0
  -21.6643   -6.8880   21.4242 O   0  0  0  0  0  0
  -22.3491  -14.5519   20.6729 O   0  0  0  0  0  0
  -24.6405  -31.8476   23.1917 C   0  0  0  0  0  0
  -25.9192  -32.4713   23.8292 C   0  0  1  0  0  0
  -27.2145  -27.1711   20.1412 C   0  0  0  0  0  0
  -25.5953  -33.8518   24.2210 N   0  0  0  0  0  0
  -23.4417  -30.4693   21.5370 C   0  0  2  0  0  0
  -24.8898  -28.9047   20.1092 C   0  0  0  0  0  0
  -22.7551  -29.4566   22.4873 C   0  0  0  0  0  0
  -18.0302  -28.1394   22.8479 C   0  0  0  0  0  0
  -24.1492  -36.7263   23.2642 C   0  0  0  0  0  0
  -25.9960  -30.7323   21.3858 C   0  0  0  0  0  0
  -26.0670  -29.3477   20.7255 C   0  0  0  0  0  0
  -27.2313  -28.4965   20.7258 C   0  0  0  0  0  0
  -26.0109  -26.8244   19.4859 C   0  0  0  0  0  0
  -24.8727  -27.6551   19.4751 C   0  0  0  0  0  0
  -23.6654  -29.8027   20.1546 C   0  0  0  0  0  0
  -25.4123  -36.3043   24.0318 C   0  0  1  0  0  0
  -20.5913  -28.3717   23.1243 C   0  0  2  0  0  0
  -20.6788  -26.9424   22.5403 C   0  0  0  0  0  0
  -19.5761  -26.6383   21.5212 C   0  0  0  0  0  0
  -18.1942  -26.7933   22.1624 C   0  0  0  0  0  0
  -19.1558  -28.8873   23.2854 C   0  0  0  0  0  0
  -18.9476  -30.1470   23.8878 C   0  0  0  0  0  0
  -17.6472  -30.6591   24.0560 C   0  0  0  0  0  0
  -25.9070  -34.9417   23.5070 C   0  0  0  0  0  0
  -16.5363  -29.9084   23.6336 C   0  0  0  0  0  0
  -16.7287  -28.6503   23.0356 C   0  0  0  0  0  0
  -26.4523  -31.6570   25.0721 C   0  0  0  0  0  0
  -25.3715  -31.3749   26.1420 C   0  0  0  0  0  0
  -27.0387  -30.2971   24.6280 C   0  0  0  0  0  0
  -27.6056  -32.4332   25.7506 C   0  0  0  0  0  0
  -27.5575  -37.1791   24.8467 C   0  0  0  0  0  0
  -21.4247  -29.3049   22.3620 N   0  0  0  0  0  0
  -26.4290  -37.3752   23.9406 N   0  0  0  0  0  0
  -24.7124  -31.0365   22.0935 N   0  0  0  0  0  0
  -23.4210  -28.8109   23.3007 O   0  0  0  0  0  0
  -28.2705  -26.1997   20.2142 O   0  0  0  0  0  0
  -26.5651  -34.8908   22.4645 O   0  0  0  0  0  0
  -23.5532  -32.1337   23.7158 O   0  0  0  0  0  0
  -28.3656  -18.1241   20.5111 C   0  0  0  0  0  0
  -30.6063  -18.8092   20.7098 C   0  0  0  0  0  0
  -27.9797  -19.5055   20.3198 C   0  0  0  0  0  0
  -30.2196  -20.2036   20.5341 C   0  0  0  0  0  0
  -29.7047  -17.6804   20.7427 C   0  0  0  0  0  0
  -28.8660  -20.6321   20.3501 C   0  0  0  0  0  0
  -29.5544  -15.9025   22.7237 C   0  0  0  0  0  0
  -30.9624  -16.3502   22.5616 C   0  0  0  0  0  0
  -30.0850  -16.1866   21.3157 C   0  0  0  0  0  0
  -28.9191  -23.3571   20.3464 C   0  0  0  0  0  0
  -27.9633  -24.6950   20.0403 C   0  0  0  0  0  0
  -28.3129  -21.9690   20.1836 O   0  0  0  0  0  0
  -31.4703  -12.6691   19.2070 H   0  0  0  0  0  0
  -30.3893  -11.5812   20.0114 H   0  0  0  0  0  0
  -29.8384  -11.7650   17.5617 H   0  0  0  0  0  0
  -29.6252  -13.4913   17.7265 H   0  0  0  0  0  0
  -27.9333  -11.2824   18.9391 H   0  0  0  0  0  0
  -27.3956  -12.4893   17.7990 H   0  0  0  0  0  0
  -27.6161  -14.2567   19.4372 H   0  0  0  0  0  0
  -28.7252  -12.2318   21.4344 H   0  0  0  0  0  0
  -28.2991  -13.8856   21.7551 H   0  0  0  0  0  0
  -25.2771   -9.5688   22.4752 H   0  0  0  0  0  0
  -24.0007   -7.4639   22.7474 H   0  0  0  0  0  0
  -21.0845   -8.8774   19.8954 H   0  0  0  0  0  0
  -22.3702  -10.9670   19.6160 H   0  0  0  0  0  0
  -21.2009   -7.6148   23.9716 H   0  0  0  0  0  0
  -21.1482   -6.0523   25.9077 H   0  0  0  0  0  0
  -22.0597   -2.7609   23.2846 H   0  0  0  0  0  0
  -22.4094  -11.9861   22.4819 H   0  0  0  0  0  0
  -21.1088  -13.1218   22.2653 H   0  0  0  0  0  0
  -24.6522  -15.8480   20.5237 H   0  0  0  0  0  0
  -26.2652  -15.6246   20.0683 H   0  0  0  0  0  0
  -26.7257  -32.5330   23.1023 H   0  0  0  0  0  0
  -25.0085  -33.9639   25.0347 H   0  0  0  0  0  0
  -22.7426  -31.2945   21.3863 H   0  0  0  0  0  0
  -23.3756  -35.9593   23.3299 H   0  0  0  0  0  0
  -24.3576  -36.8897   22.2057 H   0  0  0  0  0  0
  -23.7245  -37.6459   23.6679 H   0  0  0  0  0  0
  -26.1487  -31.4896   20.6156 H   0  0  0  0  0  0
  -26.8678  -30.7800   22.0267 H   0  0  0  0  0  0
  -28.1279  -28.8297   21.2296 H   0  0  0  0  0  0
  -25.9081  -25.8718   18.9900 H   0  0  0  0  0  0
  -23.9740  -27.3113   18.9815 H   0  0  0  0  0  0
  -23.7993  -30.5789   19.4004 H   0  0  0  0  0  0
  -22.7808  -29.2435   19.8445 H   0  0  0  0  0  0
  -25.1310  -36.1876   25.0810 H   0  0  0  0  0  0
  -21.0006  -28.3304   24.1363 H   0  0  0  0  0  0
  -20.5685  -26.2330   23.3619 H   0  0  0  0  0  0
  -21.6654  -26.7435   22.1199 H   0  0  0  0  0  0
  -19.6923  -25.6288   21.1253 H   0  0  0  0  0  0
  -19.6697  -27.3183   20.6733 H   0  0  0  0  0  0
  -17.4211  -26.6677   21.4029 H   0  0  0  0  0  0
  -18.0344  -26.0080   22.9026 H   0  0  0  0  0  0
  -19.7951  -30.7292   24.2239 H   0  0  0  0  0  0
  -17.5025  -31.6269   24.5166 H   0  0  0  0  0  0
  -15.5363  -30.2980   23.7670 H   0  0  0  0  0  0
  -15.8688  -28.0816   22.7082 H   0  0  0  0  0  0
  -24.5902  -30.7086   25.7742 H   0  0  0  0  0  0
  -24.8894  -32.2927   26.4795 H   0  0  0  0  0  0
  -25.8005  -30.8958   27.0229 H   0  0  0  0  0  0
  -26.2999  -29.6697   24.1279 H   0  0  0  0  0  0
  -27.4003  -29.7263   25.4844 H   0  0  0  0  0  0
  -27.8905  -30.4216   23.9591 H   0  0  0  0  0  0
  -27.2649  -33.3648   26.2037 H   0  0  0  0  0  0
  -28.3893  -32.6867   25.0354 H   0  0  0  0  0  0
  -28.0696  -31.8488   26.5462 H   0  0  0  0  0  0
  -28.2592  -38.0087   24.7504 H   0  0  0  0  0  0
  -28.1072  -36.2616   24.6307 H   0  0  0  0  0  0
  -27.2290  -37.1454   25.8869 H   0  0  0  0  0  0
  -20.9451  -29.8767   21.6807 H   0  0  0  0  0  0
  -26.0159  -38.2822   24.1402 H   0  0  0  0  0  0
  -27.5765  -17.3867   20.5471 H   0  0  0  0  0  0
  -31.6528  -18.6153   20.8998 H   0  0  0  0  0  0
  -26.9272  -19.7078   20.1793 H   0  0  0  0  0  0
  -30.9951  -20.9559   20.5648 H   0  0  0  0  0  0
  -28.8256  -16.6036   23.1250 H   0  0  0  0  0  0
  -29.4874  -14.8973   23.1304 H   0  0  0  0  0  0
  -31.7305  -15.6064   22.7701 H   0  0  0  0  0  0
  -31.2024  -17.3498   22.9168 H   0  0  0  0  0  0
  -29.2852  -23.4258   21.3709 H   0  0  0  0  0  0
  -29.8036  -23.4082   19.7112 H   0  0  0  0  0  0
  -27.0549  -24.5221   20.6185 H   0  0  0  0  0  0
  -27.6668  -24.5813   18.9977 H   0  0  0  0  0  0
  1 25  1  0  0  0
  1 30  2  0  0  0
  1 79  1  0  0  0
  2  3  1  0  0  0
  2 25  1  0  0  0
  2 83  1  0  0  0
  2 84  1  0  0  0
  3  4  1  0  0  0
  3 85  1  0  0  0
  3 86  1  0  0  0
  4  5  1  0  0  0
  4 87  1  0  0  0
  4 88  1  0  0  0
  5  6  1  0  0  0
  5 26  1  0  0  0
  5 89  1  0  0  0
  6 25  1  0  0  0
  6 90  1  0  0  0
  6 91  1  0  0  0
  7  8  2  0  0  0
  7 26  1  0  0  0
  7 29  1  0  0  0
  8  9  1  0  0  0
  8 22  1  0  0  0
  9 10  1  0  0  0
  9 27  2  0  0  0
 10 11  2  0  0  0
 10 15  1  0  0  0
 11 12  1  0  0  0
 11 92  1  0  0  0
 12 13  2  0  0  0
 12 93  1  0  0  0
 13 14  1  0  0  0
 13 31  1  0  0  0
 14 15  2  0  0  0
 14 94  1  0  0  0
 15 95  1  0  0  0
 16 17  2  0  0  0
 16 21  1  0  0  0
 16 31  1  0  0  0
 17 18  1  0  0  0
 17 96  1  0  0  0
 18 19  2  0  0  0
 18 97  1  0  0  0
 19 20  1  0  0  0
 19 24  1  0  0  0
 20 21  2  0  0  0
 20 98  1  0  0  0
 21 23  1  0  0  0
 22 28  1  0  0  0
 22 32  2  0  0  0
 26 27  1  0  0  0
 28 99  1  0  0  0
 28100  1  0  0  0
 29101  1  0  0  0
 29102  1  0  0  0
 33 34  1  0  0  0
 33 66  1  0  0  0
 33 70  2  0  0  0
 34 36  1  0  0  0
 34 59  1  0  0  0
 34103  1  0  0  0
 35 44  2  0  0  0
 35 45  1  0  0  0
 35 68  1  0  0  0
 36 56  1  0  0  0
 36104  1  0  0  0
 37 39  1  0  0  0
 37 47  1  0  0  0
 37 66  1  0  0  0
 37105  1  0  0  0
 38 43  2  0  0  0
 38 46  1  0  0  0
 38 47  1  0  0  0
 39 64  1  0  0  0
 39 67  2  0  0  0
 40 52  1  0  0  0
 40 53  2  0  0  0
 40 58  1  0  0  0
 41106  1  0  0  0
 41107  1  0  0  0
 41108  1  0  0  0
 41 48  1  0  0  0
 42 43  1  0  0  0
 42 66  1  0  0  0
 42109  1  0  0  0
 42110  1  0  0  0
 43 44  1  0  0  0
 44111  1  0  0  0
 45 46  2  0  0  0
 45112  1  0  0  0
 46113  1  0  0  0
 47114  1  0  0  0
 47115  1  0  0  0
 48 56  1  0  0  0
 48 65  1  0  0  0
 48116  1  0  0  0
 49 50  1  0  0  0
 49 53  1  0  0  0
 49 64  1  0  0  0
 49117  1  0  0  0
 50 51  1  0  0  0
 50118  1  0  0  0
 50119  1  0  0  0
 51 52  1  0  0  0
 51120  1  0  0  0
 51121  1  0  0  0
 52122  1  0  0  0
 52123  1  0  0  0
 53 54  1  0  0  0
 54 55  2  0  0  0
 54124  1  0  0  0
 55 57  1  0  0  0
 55125  1  0  0  0
 56 69  2  0  0  0
 57 58  2  0  0  0
 57126  1  0  0  0
 58127  1  0  0  0
 59 60  1  0  0  0
 59 61  1  0  0  0
 59 62  1  0  0  0
 60128  1  0  0  0
 60129  1  0  0  0
 60130  1  0  0  0
 61131  1  0  0  0
 61132  1  0  0  0
 61133  1  0  0  0
 62134  1  0  0  0
 62135  1  0  0  0
 62136  1  0  0  0
 63 65  1  0  0  0
 63137  1  0  0  0
 63138  1  0  0  0
 63139  1  0  0  0
 64140  1  0  0  0
 65141  1  0  0  0
 68 81  1  0  0  0
 71 73  2  0  0  0
 71 75  1  0  0  0
 71142  1  0  0  0
 72 74  1  0  0  0
 72 75  2  0  0  0
 72143  1  0  0  0
 73 76  1  0  0  0
 73144  1  0  0  0
 74 76  2  0  0  0
 74145  1  0  0  0
 75 79  1  0  0  0
 76 82  1  0  0  0
 77 78  1  0  0  0
 77 79  1  0  0  0
 77146  1  0  0  0
 77147  1  0  0  0
 78 79  1  0  0  0
 78148  1  0  0  0
 78149  1  0  0  0
 80 81  1  0  0  0
 80 82  1  0  0  0
 80150  1  0  0  0
 80151  1  0  0  0
 81152  1  0  0  0
 81153  1  0  0  0
M  ISO  4   1 100  68 101  79 100  81 101
M  END
> <chiral flag>
0

> <version>
0

> <s_m_source_file>
/data/baiqing/PycharmProjects/Reinvent-master-3.2/result/LINK_invent/BTK/process_docking_weight1_custom_sum_contain_oxygen_bond_distance_aromatic_linkinvent_7_9_3/rearranged_h_0143.sdf

> <i_m_source_file_index>
12

> <r_mmod_Potential_Energy-OPLS-2005>
517.385986328125

> <r_mmod_Stretch_Energy-OPLS-2005>
216.221740722656

> <r_mmod_Bend_Energy-OPLS-2005>
277.868927001953

> <r_mmod_Torsional_Energy-OPLS-2005>
205.179229736328

> <r_mmod_Improper_Torsional_Energy-OPLS-2005>
4.45969772338867

> <r_mmod_Van_der_Waal_Energy-OPLS-2005>
139.637268066406

> <r_mmod_Electrostatic_Energy-OPLS-2005>
-276.188751220703

> <r_mmod_Solvation_Energy-OPLS-2005>
-195.40315246582

> <b_mmod_Minimization_Converged-OPLS-2005>
0

> <r_mmod_RMS_Derivative-OPLS-2005>
0.0877325385808945

$$$$
12
                    3D
 Structure written by MMmdl.
168177  0  0  1  0            999 V2000
  -30.7245  -14.5073   20.4778 C   0  0  0  0  0  0
  -30.4114  -12.3120   19.4322 C   0  0  0  0  0  0
  -29.4897  -12.5032   18.2153 C   0  0  0  0  0  0
  -28.0155  -12.3525   18.6372 C   0  0  0  0  0  0
  -27.6495  -13.2200   19.8709 C   0  0  2  0  0  0
  -28.7020  -13.0781   20.9929 C   0  0  0  0  0  0
  -25.2499  -13.8169   20.5748 C   0  0  0  0  0  0
  -24.1767  -13.0449   20.9208 C   0  0  0  0  0  0
  -24.6340  -11.6907   20.8746 C   0  0  0  0  0  0
  -23.9021  -10.4289   21.0419 C   0  0  0  0  0  0
  -24.3583   -9.4206   21.9182 C   0  0  0  0  0  0
  -23.6272   -8.2224   22.0735 C   0  0  0  0  0  0
  -22.4249   -8.0239   21.3526 C   0  0  0  0  0  0
  -21.9892   -9.0223   20.4634 C   0  0  0  0  0  0
  -22.7210  -10.2111   20.3062 C   0  0  0  0  0  0
  -21.6844   -6.0685   22.5261 C   0  0  0  0  0  0
  -21.4014   -6.5618   23.8186 C   0  0  0  0  0  0
  -21.3676   -5.6798   24.9163 C   0  0  0  0  0  0
  -21.6050   -4.3047   24.7240 C   0  0  0  0  0  0
  -21.8815   -3.8116   23.4371 C   0  0  0  0  0  0
  -21.9192   -4.6916   22.3411 C   0  0  0  0  0  0
  -22.7778  -13.5178   21.1942 C   0  0  0  0  0  0
  -22.1652   -4.2091   21.0991 F   0  0  0  0  0  0
  -21.5666   -3.4544   25.7771 F   0  0  0  0  0  0
  -30.0287  -13.3391   20.4098 N   0  0  0  0  0  0
  -26.2957  -12.9385   20.3405 N   0  0  0  0  0  0
  -25.9267  -11.6523   20.5745 N   0  0  0  0  0  0
  -22.0448  -12.8108   22.0482 N   0  0  0  0  0  0
  -25.4285  -15.1906   20.4255 N   0  0  0  0  0  0
  -31.9247  -14.5772   20.1995 O   0  0  0  0  0  0
  -21.6637   -6.8812   21.4205 O   0  0  0  0  0  0
  -22.3462  -14.5518   20.6848 O   0  0  0  0  0  0
  -24.6132  -31.8636   23.2110 C   0  0  0  0  0  0
  -25.9016  -32.4793   23.8400 C   0  0  1  0  0  0
  -27.2313  -27.3959   20.1040 C   0  0  0  0  0  0
  -25.5890  -33.8613   24.2311 N   0  0  0  0  0  0
  -23.4031  -30.4858   21.5527 C   0  0  2  0  0  0
  -24.8501  -28.9428   20.1234 C   0  0  0  0  0  0
  -22.7370  -29.4626   22.5041 C   0  0  0  0  0  0
  -18.0242  -28.1365   22.8461 C   0  0  0  0  0  0
  -24.1477  -36.7309   23.2646 C   0  0  0  0  0  0
  -25.9359  -30.8137   21.3732 C   0  0  0  0  0  0
  -26.0115  -29.4440   20.7238 C   0  0  0  0  0  0
  -27.1974  -28.6728   20.7225 C   0  0  0  0  0  0
  -26.0535  -26.9278   19.4707 C   0  0  0  0  0  0
  -24.8687  -27.6836   19.4981 C   0  0  0  0  0  0
  -23.6127  -29.8094   20.1698 C   0  0  0  0  0  0
  -25.4093  -36.3095   24.0336 C   0  0  1  0  0  0
  -20.5826  -28.3629   23.1341 C   0  0  2  0  0  0
  -20.6743  -26.9386   22.5398 C   0  0  0  0  0  0
  -19.5749  -26.6371   21.5181 C   0  0  0  0  0  0
  -18.1922  -26.7904   22.1586 C   0  0  0  0  0  0
  -19.1490  -28.8803   23.2894 C   0  0  0  0  0  0
  -18.9446  -30.1425   23.8876 C   0  0  0  0  0  0
  -17.6439  -30.6584   24.0526 C   0  0  0  0  0  0
  -25.9012  -34.9463   23.5103 C   0  0  0  0  0  0
  -16.5321  -29.9081   23.6346 C   0  0  0  0  0  0
  -16.7223  -28.6501   23.0345 C   0  0  0  0  0  0
  -26.4460  -31.6610   25.0753 C   0  0  0  0  0  0
  -25.3772  -31.3723   26.1544 C   0  0  0  0  0  0
  -27.0306  -30.3037   24.6174 C   0  0  0  0  0  0
  -27.6015  -32.4350   25.7529 C   0  0  0  0  0  0
  -27.5566  -37.1809   24.8471 C   0  0  0  0  0  0
  -21.4089  -29.3020   22.3765 N   0  0  0  0  0  0
  -26.4274  -37.3780   23.9422 N   0  0  0  0  0  0
  -24.6692  -31.0690   22.1024 N   0  0  0  0  0  0
  -23.4123  -28.8195   23.3121 O   0  0  0  0  0  0
  -28.4120  -26.6715   20.1479 O   0  0  0  0  0  0
  -26.5576  -34.8922   22.4659 O   0  0  0  0  0  0
  -23.5325  -32.1411   23.7482 O   0  0  0  0  0  0
  -29.7981  -20.9394   20.3879 C   0  0  0  0  0  0
  -28.4694  -21.9738   18.9390 C   0  0  0  0  0  0
  -29.4608  -22.2061   19.8439 C   0  0  0  0  0  0
  -29.0134  -19.9665   19.8149 C   0  0  0  0  0  0
  -30.1232  -17.8319   19.1062 C   0  0  0  0  0  0
  -29.4313  -17.9923   21.4488 C   0  0  0  0  0  0
  -29.9582  -16.3073   19.0673 C   0  0  0  0  0  0
  -29.8658  -16.4950   21.6125 C   0  0  0  0  0  0
  -29.0802  -18.4608   20.0239 C   0  0  0  0  0  0
  -27.4100  -18.7553   17.2630 C   0  0  0  0  0  0
  -26.4946  -21.0500   17.0319 C   0  0  0  0  0  0
  -28.4462  -25.2745   19.7705 C   0  0  0  0  0  0
  -29.3251  -24.4418   20.7349 C   0  0  0  0  0  0
  -27.0689  -20.0399   18.0567 C   0  0  0  0  0  0
  -28.1663  -20.6103   18.8885 N   0  0  0  0  0  0
  -29.9783  -15.6442   20.3970 N   0  0  0  0  0  0
  -30.0898  -23.4041   20.1055 O   0  0  0  0  0  0
  -31.4564  -12.3860   19.1294 H   0  0  0  0  0  0
  -30.2830  -11.3123   19.8539 H   0  0  0  0  0  0
  -29.7391  -11.7868   17.4290 H   0  0  0  0  0  0
  -29.6547  -13.4894   17.7817 H   0  0  0  0  0  0
  -27.8418  -11.3006   18.8635 H   0  0  0  0  0  0
  -27.3611  -12.5924   17.8008 H   0  0  0  0  0  0
  -27.6622  -14.2577   19.5423 H   0  0  0  0  0  0
  -28.6599  -12.0796   21.4309 H   0  0  0  0  0  0
  -28.4758  -13.7766   21.8026 H   0  0  0  0  0  0
  -25.2708   -9.5666   22.4789 H   0  0  0  0  0  0
  -23.9975   -7.4586   22.7448 H   0  0  0  0  0  0
  -21.0828   -8.8741   19.8926 H   0  0  0  0  0  0
  -22.3658  -10.9656   19.6194 H   0  0  0  0  0  0
  -21.1988   -7.6125   23.9656 H   0  0  0  0  0  0
  -21.1526   -6.0545   25.9060 H   0  0  0  0  0  0
  -22.0584   -2.7575   23.2912 H   0  0  0  0  0  0
  -22.4128  -11.9757   22.4802 H   0  0  0  0  0  0
  -21.1072  -13.1093   22.2785 H   0  0  0  0  0  0
  -24.6790  -15.8645   20.5391 H   0  0  0  0  0  0
  -26.3062  -15.6154   20.1550 H   0  0  0  0  0  0
  -26.7073  -32.5459   23.1168 H   0  0  0  0  0  0
  -25.0113  -33.9795   25.0503 H   0  0  0  0  0  0
  -22.6955  -31.3056   21.4050 H   0  0  0  0  0  0
  -23.3721  -35.9657   23.3304 H   0  0  0  0  0  0
  -24.3578  -36.8920   22.2065 H   0  0  0  0  0  0
  -23.7267  -37.6531   23.6649 H   0  0  0  0  0  0
  -26.0522  -31.5752   20.6021 H   0  0  0  0  0  0
  -26.8227  -30.8702   21.9936 H   0  0  0  0  0  0
  -28.0867  -29.0404   21.2158 H   0  0  0  0  0  0
  -26.0206  -25.9877   18.9398 H   0  0  0  0  0  0
  -23.9774  -27.2993   19.0239 H   0  0  0  0  0  0
  -23.7230  -30.5764   19.4039 H   0  0  0  0  0  0
  -22.7376  -29.2231   19.8721 H   0  0  0  0  0  0
  -25.1268  -36.1943   25.0825 H   0  0  0  0  0  0
  -20.9868  -28.3163   24.1484 H   0  0  0  0  0  0
  -20.5651  -26.2223   23.3562 H   0  0  0  0  0  0
  -21.6646  -26.7450   22.1229 H   0  0  0  0  0  0
  -19.6948  -25.6289   21.1245 H   0  0  0  0  0  0
  -19.6740  -27.3154   20.6706 H   0  0  0  0  0  0
  -17.4189  -26.6590   21.3992 H   0  0  0  0  0  0
  -18.0375  -26.0038   22.8991 H   0  0  0  0  0  0
  -19.7919  -30.7248   24.2265 H   0  0  0  0  0  0
  -17.4998  -31.6291   24.5108 H   0  0  0  0  0  0
  -15.5328  -30.2968   23.7732 H   0  0  0  0  0  0
  -15.8604  -28.0824   22.7094 H   0  0  0  0  0  0
  -24.5937  -30.7049   25.7948 H   0  0  0  0  0  0
  -24.8990  -32.2876   26.5013 H   0  0  0  0  0  0
  -25.8186  -30.8925   27.0288 H   0  0  0  0  0  0
  -26.2868  -29.6816   24.1176 H   0  0  0  0  0  0
  -27.4010  -29.7259   25.4660 H   0  0  0  0  0  0
  -27.8717  -30.4347   23.9369 H   0  0  0  0  0  0
  -27.2583  -33.3623   26.2121 H   0  0  0  0  0  0
  -28.3814  -32.6951   25.0368 H   0  0  0  0  0  0
  -28.0671  -31.8478   26.5455 H   0  0  0  0  0  0
  -28.2576  -38.0111   24.7476 H   0  0  0  0  0  0
  -28.1056  -36.2632   24.6291 H   0  0  0  0  0  0
  -27.2286  -37.1465   25.8880 H   0  0  0  0  0  0
  -20.9266  -29.8665   21.6927 H   0  0  0  0  0  0
  -26.0135  -38.2850   24.1414 H   0  0  0  0  0  0
  -30.5820  -20.7523   21.1084 H   0  0  0  0  0  0
  -27.9727  -22.6900   18.3036 H   0  0  0  0  0  0
  -30.0422  -18.2276   18.0953 H   0  0  0  0  0  0
  -31.1233  -18.1106   19.4401 H   0  0  0  0  0  0
  -30.2525  -18.6008   21.8259 H   0  0  0  0  0  0
  -28.5870  -18.2088   22.1053 H   0  0  0  0  0  0
  -29.0183  -16.0566   18.5728 H   0  0  0  0  0  0
  -30.7428  -15.9167   18.4126 H   0  0  0  0  0  0
  -29.1846  -16.0128   22.3121 H   0  0  0  0  0  0
  -30.8349  -16.4861   22.1188 H   0  0  0  0  0  0
  -28.1057  -18.0318   19.8220 H   0  0  0  0  0  0
  -26.6507  -18.5668   16.4999 H   0  0  0  0  0  0
  -27.4255  -17.8449   17.8571 H   0  0  0  0  0  0
  -28.3551  -18.8429   16.7292 H   0  0  0  0  0  0
  -25.6226  -20.6378   16.5274 H   0  0  0  0  0  0
  -27.2187  -21.2927   16.2531 H   0  0  0  0  0  0
  -26.1420  -21.9724   17.4910 H   0  0  0  0  0  0
  -27.4790  -24.7846   19.7240 H   0  0  0  0  0  0
  -28.8733  -25.2155   18.7705 H   0  0  0  0  0  0
  -30.0641  -25.1106   21.1738 H   0  0  0  0  0  0
  -28.7436  -24.0475   21.5710 H   0  0  0  0  0  0
  -26.2569  -19.8144   18.7463 H   0  0  0  0  0  0
  1 25  1  0  0  0
  1 30  2  0  0  0
  1 86  1  0  0  0
  2  3  1  0  0  0
  2 25  1  0  0  0
  2 88  1  0  0  0
  2 89  1  0  0  0
  3  4  1  0  0  0
  3 90  1  0  0  0
  3 91  1  0  0  0
  4  5  1  0  0  0
  4 92  1  0  0  0
  4 93  1  0  0  0
  5  6  1  0  0  0
  5 26  1  0  0  0
  5 94  1  0  0  0
  6 25  1  0  0  0
  6 95  1  0  0  0
  6 96  1  0  0  0
  7  8  2  0  0  0
  7 26  1  0  0  0
  7 29  1  0  0  0
  8  9  1  0  0  0
  8 22  1  0  0  0
  9 10  1  0  0  0
  9 27  2  0  0  0
 10 11  2  0  0  0
 10 15  1  0  0  0
 11 12  1  0  0  0
 11 97  1  0  0  0
 12 13  2  0  0  0
 12 98  1  0  0  0
 13 14  1  0  0  0
 13 31  1  0  0  0
 14 15  2  0  0  0
 14 99  1  0  0  0
 15100  1  0  0  0
 16 17  2  0  0  0
 16 21  1  0  0  0
 16 31  1  0  0  0
 17 18  1  0  0  0
 17101  1  0  0  0
 18 19  2  0  0  0
 18102  1  0  0  0
 19 20  1  0  0  0
 19 24  1  0  0  0
 20 21  2  0  0  0
 20103  1  0  0  0
 21 23  1  0  0  0
 22 28  1  0  0  0
 22 32  2  0  0  0
 26 27  1  0  0  0
 28104  1  0  0  0
 28105  1  0  0  0
 29106  1  0  0  0
 29107  1  0  0  0
 33 34  1  0  0  0
 33 66  1  0  0  0
 33 70  2  0  0  0
 34 36  1  0  0  0
 34 59  1  0  0  0
 34108  1  0  0  0
 35 44  2  0  0  0
 35 45  1  0  0  0
 35 68  1  0  0  0
 36 56  1  0  0  0
 36109  1  0  0  0
 37 39  1  0  0  0
 37 47  1  0  0  0
 37 66  1  0  0  0
 37110  1  0  0  0
 38 43  2  0  0  0
 38 46  1  0  0  0
 38 47  1  0  0  0
 39 64  1  0  0  0
 39 67  2  0  0  0
 40 52  1  0  0  0
 40 53  2  0  0  0
 40 58  1  0  0  0
 41111  1  0  0  0
 41112  1  0  0  0
 41113  1  0  0  0
 41 48  1  0  0  0
 42 43  1  0  0  0
 42 66  1  0  0  0
 42114  1  0  0  0
 42115  1  0  0  0
 43 44  1  0  0  0
 44116  1  0  0  0
 45 46  2  0  0  0
 45117  1  0  0  0
 46118  1  0  0  0
 47119  1  0  0  0
 47120  1  0  0  0
 48 56  1  0  0  0
 48 65  1  0  0  0
 48121  1  0  0  0
 49 50  1  0  0  0
 49 53  1  0  0  0
 49 64  1  0  0  0
 49122  1  0  0  0
 50 51  1  0  0  0
 50123  1  0  0  0
 50124  1  0  0  0
 51 52  1  0  0  0
 51125  1  0  0  0
 51126  1  0  0  0
 52127  1  0  0  0
 52128  1  0  0  0
 53 54  1  0  0  0
 54 55  2  0  0  0
 54129  1  0  0  0
 55 57  1  0  0  0
 55130  1  0  0  0
 56 69  2  0  0  0
 57 58  2  0  0  0
 57131  1  0  0  0
 58132  1  0  0  0
 59 60  1  0  0  0
 59 61  1  0  0  0
 59 62  1  0  0  0
 60133  1  0  0  0
 60134  1  0  0  0
 60135  1  0  0  0
 61136  1  0  0  0
 61137  1  0  0  0
 61138  1  0  0  0
 62139  1  0  0  0
 62140  1  0  0  0
 62141  1  0  0  0
 63 65  1  0  0  0
 63142  1  0  0  0
 63143  1  0  0  0
 63144  1  0  0  0
 64145  1  0  0  0
 65146  1  0  0  0
 68 82  1  0  0  0
 71 73  1  0  0  0
 71 74  2  0  0  0
 71147  1  0  0  0
 72 73  2  0  0  0
 72 85  1  0  0  0
 72148  1  0  0  0
 73 87  1  0  0  0
 74 85  1  0  0  0
 74 79  1  0  0  0
 75 77  1  0  0  0
 75 79  1  0  0  0
 75149  1  0  0  0
 75150  1  0  0  0
 76 78  1  0  0  0
 76 79  1  0  0  0
 76151  1  0  0  0
 76152  1  0  0  0
 77 86  1  0  0  0
 77153  1  0  0  0
 77154  1  0  0  0
 78 86  1  0  0  0
 78155  1  0  0  0
 78156  1  0  0  0
 79157  1  0  0  0
 80158  1  0  0  0
 80159  1  0  0  0
 80160  1  0  0  0
 80 84  1  0  0  0
 81 84  1  0  0  0
 81161  1  0  0  0
 81162  1  0  0  0
 81163  1  0  0  0
 82 83  1  0  0  0
 82164  1  0  0  0
 82165  1  0  0  0
 83 87  1  0  0  0
 83166  1  0  0  0
 83167  1  0  0  0
 84 85  1  0  0  0
 84168  1  0  0  0
M  ISO  4   1 100  68 101  82 101  86 100
M  END
> <chiral flag>
0

> <version>
0

> <s_m_source_file>
/data/baiqing/PycharmProjects/Reinvent-master-3.2/result/LINK_invent/BTK/process_docking_weight1_custom_sum_contain_oxygen_bond_distance_aromatic_linkinvent_7_9_3/rearranged_h_0143.sdf

> <i_m_source_file_index>
13

> <r_mmod_Potential_Energy-OPLS-2005>
241.805877685547

> <r_mmod_Stretch_Energy-OPLS-2005>
49.706729888916

> <r_mmod_Bend_Energy-OPLS-2005>
140.889038085938

> <r_mmod_Torsional_Energy-OPLS-2005>
388.147399902344

> <r_mmod_Improper_Torsional_Energy-OPLS-2005>
16.7232933044434

> <r_mmod_Van_der_Waal_Energy-OPLS-2005>
138.160415649414

> <r_mmod_Electrostatic_Energy-OPLS-2005>
-316.730926513672

> <r_mmod_Solvation_Energy-OPLS-2005>
-202.205490112305

> <b_mmod_Minimization_Converged-OPLS-2005>
0

> <r_mmod_RMS_Derivative-OPLS-2005>
6.33414316177368

$$$$
13
                    3D
 Structure written by MMmdl.
172182  0  0  1  0            999 V2000
  -30.5435  -14.9139   20.3287 C   0  0  0  0  0  0
  -30.4503  -12.5431   19.4887 C   0  0  0  0  0  0
  -29.5251  -12.4490   18.2532 C   0  0  0  0  0  0
  -28.0445  -12.2972   18.6646 C   0  0  0  0  0  0
  -27.6280  -13.2246   19.8411 C   0  0  2  0  0  0
  -28.6836  -13.2623   20.9650 C   0  0  0  0  0  0
  -25.2518  -13.8144   20.5734 C   0  0  0  0  0  0
  -24.1783  -13.0412   20.9206 C   0  0  0  0  0  0
  -24.6357  -11.6886   20.8753 C   0  0  0  0  0  0
  -23.9030  -10.4284   21.0414 C   0  0  0  0  0  0
  -24.3602   -9.4208   21.9192 C   0  0  0  0  0  0
  -23.6290   -8.2243   22.0760 C   0  0  0  0  0  0
  -22.4261   -8.0282   21.3551 C   0  0  0  0  0  0
  -21.9887   -9.0249   20.4649 C   0  0  0  0  0  0
  -22.7206  -10.2130   20.3053 C   0  0  0  0  0  0
  -21.6850   -6.0739   22.5276 C   0  0  0  0  0  0
  -21.4019   -6.5649   23.8210 C   0  0  0  0  0  0
  -21.3655   -5.6799   24.9170 C   0  0  0  0  0  0
  -21.6048   -4.3063   24.7219 C   0  0  0  0  0  0
  -21.8836   -3.8155   23.4336 C   0  0  0  0  0  0
  -21.9206   -4.6973   22.3400 C   0  0  0  0  0  0
  -22.7824  -13.5224   21.1857 C   0  0  0  0  0  0
  -22.1664   -4.2166   21.0962 F   0  0  0  0  0  0
  -21.5617   -3.4532   25.7717 F   0  0  0  0  0  0
  -29.9560  -13.6522   20.3428 N   0  0  0  0  0  0
  -26.2905  -12.9309   20.3327 N   0  0  0  0  0  0
  -25.9300  -11.6469   20.5801 N   0  0  0  0  0  0
  -22.0459  -12.8226   22.0407 N   0  0  0  0  0  0
  -25.4262  -15.1869   20.4187 N   0  0  0  0  0  0
  -31.7729  -14.9793   20.2227 O   0  0  0  0  0  0
  -21.6635   -6.8875   21.4240 O   0  0  0  0  0  0
  -22.3519  -14.5540   20.6694 O   0  0  0  0  0  0
  -24.6363  -31.8486   23.1916 C   0  0  0  0  0  0
  -25.9158  -32.4714   23.8298 C   0  0  1  0  0  0
  -27.2211  -27.1821   20.1641 C   0  0  0  0  0  0
  -25.5929  -33.8525   24.2201 N   0  0  0  0  0  0
  -23.4374  -30.4669   21.5343 C   0  0  2  0  0  0
  -24.8870  -28.8949   20.1147 C   0  0  0  0  0  0
  -22.7539  -29.4562   22.4876 C   0  0  0  0  0  0
  -18.0292  -28.1394   22.8485 C   0  0  0  0  0  0
  -24.1482  -36.7270   23.2643 C   0  0  0  0  0  0
  -25.9869  -30.7379   21.3833 C   0  0  0  0  0  0
  -26.0582  -29.3497   20.7332 C   0  0  0  0  0  0
  -27.2229  -28.5069   20.7433 C   0  0  0  0  0  0
  -26.0230  -26.8060   19.5201 C   0  0  0  0  0  0
  -24.8788  -27.6341   19.4969 C   0  0  0  0  0  0
  -23.6628  -29.7938   20.1534 C   0  0  0  0  0  0
  -25.4117  -36.3046   24.0314 C   0  0  1  0  0  0
  -20.5904  -28.3713   23.1255 C   0  0  2  0  0  0
  -20.6772  -26.9420   22.5416 C   0  0  0  0  0  0
  -19.5750  -26.6375   21.5222 C   0  0  0  0  0  0
  -18.1928  -26.7931   22.1630 C   0  0  0  0  0  0
  -19.1547  -28.8874   23.2858 C   0  0  0  0  0  0
  -18.9470  -30.1471   23.8881 C   0  0  0  0  0  0
  -17.6465  -30.6594   24.0558 C   0  0  0  0  0  0
  -25.9066  -34.9419   23.5062 C   0  0  0  0  0  0
  -16.5355  -29.9091   23.6331 C   0  0  0  0  0  0
  -16.7273  -28.6509   23.0353 C   0  0  0  0  0  0
  -26.4504  -31.6585   25.0729 C   0  0  0  0  0  0
  -25.3698  -31.3788   26.1437 C   0  0  0  0  0  0
  -27.0353  -30.2976   24.6291 C   0  0  0  0  0  0
  -27.6026  -32.4362   25.7519 C   0  0  0  0  0  0
  -27.5571  -37.1785   24.8452 C   0  0  0  0  0  0
  -21.4238  -29.3045   22.3637 N   0  0  0  0  0  0
  -26.4275  -37.3759   23.9410 N   0  0  0  0  0  0
  -24.7055  -31.0392   22.0918 N   0  0  0  0  0  0
  -23.4202  -28.8113   23.3006 O   0  0  0  0  0  0
  -28.3382  -26.2927   20.1938 O   0  0  0  0  0  0
  -26.5662  -34.8911   22.4648 O   0  0  0  0  0  0
  -23.5494  -32.1341   23.7174 O   0  0  0  0  0  0
  -27.7228  -18.2896   16.5757 C   0  0  0  0  0  0
  -30.1196  -18.7167   16.6736 C   0  0  0  0  0  0
  -27.6407  -18.9980   15.3633 C   0  0  0  0  0  0
  -30.0370  -19.4300   15.4610 C   0  0  0  0  0  0
  -27.9027  -23.9693   19.1783 C   0  0  0  0  0  0
  -29.0539  -24.0601   21.2106 C   0  0  0  0  0  0
  -28.9587  -18.1474   17.2419 C   0  0  0  0  0  0
  -28.7973  -19.5711   14.8005 C   0  0  0  0  0  0
  -28.1778  -22.5495   19.1358 C   0  0  0  0  0  0
  -28.3570  -24.8325   20.2189 C   0  0  0  0  0  0
  -28.9575  -21.8831   20.1415 C   0  0  0  0  0  0
  -29.5370  -15.9623   18.5339 C   0  0  0  0  0  0
  -29.0069  -17.3596   18.5429 C   0  0  1  0  0  0
  -29.9486  -17.6023   19.7179 C   0  0  1  0  0  0
  -28.6938  -20.3288   13.4911 C   0  0  0  0  0  0
  -27.6718  -21.7804   17.9255 C   0  0  0  0  0  0
  -31.2091  -20.6919   19.8507 C   0  0  0  0  0  0
  -29.4298  -18.9296   20.5784 C   0  0  0  0  0  0
  -29.6938  -20.4317   19.8934 C   0  0  1  0  0  0
  -29.3346  -22.6937   21.1833 N   0  0  0  0  0  0
  -29.7355  -16.0428   20.0065 N   0  0  0  0  0  0
  -31.4800  -12.7103   19.1692 H   0  0  0  0  0  0
  -30.4532  -11.6056   20.0467 H   0  0  0  0  0  0
  -29.8194  -11.5942   17.6433 H   0  0  0  0  0  0
  -29.6565  -13.3205   17.6133 H   0  0  0  0  0  0
  -27.8975  -11.2559   18.9560 H   0  0  0  0  0  0
  -27.3945  -12.4591   17.8024 H   0  0  0  0  0  0
  -27.5604  -14.2258   19.4343 H   0  0  0  0  0  0
  -28.7615  -12.2963   21.4666 H   0  0  0  0  0  0
  -28.4016  -13.9915   21.7263 H   0  0  0  0  0  0
  -25.2757   -9.5686   22.4751 H   0  0  0  0  0  0
  -24.0025   -7.4613   22.7451 H   0  0  0  0  0  0
  -21.0828   -8.8743   19.8929 H   0  0  0  0  0  0
  -22.3672  -10.9667   19.6148 H   0  0  0  0  0  0
  -21.2002   -7.6155   23.9728 H   0  0  0  0  0  0
  -21.1450   -6.0506   25.9078 H   0  0  0  0  0  0
  -22.0614   -2.7618   23.2811 H   0  0  0  0  0  0
  -22.4054  -11.9913   22.4850 H   0  0  0  0  0  0
  -21.1075  -13.1251   22.2560 H   0  0  0  0  0  0
  -24.6733  -15.8512   20.5535 H   0  0  0  0  0  0
  -26.3053  -15.6248   20.1723 H   0  0  0  0  0  0
  -26.7229  -32.5336   23.1038 H   0  0  0  0  0  0
  -25.0024  -33.9654   25.0313 H   0  0  0  0  0  0
  -22.7358  -31.2903   21.3817 H   0  0  0  0  0  0
  -23.3747  -35.9595   23.3273 H   0  0  0  0  0  0
  -24.3572  -36.8941   22.2064 H   0  0  0  0  0  0
  -23.7227  -37.6451   23.6710 H   0  0  0  0  0  0
  -26.1343  -31.4909   20.6080 H   0  0  0  0  0  0
  -26.8600  -30.7900   22.0217 H   0  0  0  0  0  0
  -28.1202  -28.8537   21.2369 H   0  0  0  0  0  0
  -25.9425  -25.8395   19.0515 H   0  0  0  0  0  0
  -23.9815  -27.2770   19.0091 H   0  0  0  0  0  0
  -23.7998  -30.5672   19.3965 H   0  0  0  0  0  0
  -22.7786  -29.2345   19.8445 H   0  0  0  0  0  0
  -25.1302  -36.1865   25.0806 H   0  0  0  0  0  0
  -20.9994  -28.3293   24.1372 H   0  0  0  0  0  0
  -20.5657  -26.2328   23.3634 H   0  0  0  0  0  0
  -21.6636  -26.7423   22.1209 H   0  0  0  0  0  0
  -19.6899  -25.6279   21.1265 H   0  0  0  0  0  0
  -19.6684  -27.3176   20.6748 H   0  0  0  0  0  0
  -17.4199  -26.6686   21.4026 H   0  0  0  0  0  0
  -18.0315  -26.0077   22.9032 H   0  0  0  0  0  0
  -19.7949  -30.7290   24.2234 H   0  0  0  0  0  0
  -17.5024  -31.6275   24.5166 H   0  0  0  0  0  0
  -15.5354  -30.2990   23.7671 H   0  0  0  0  0  0
  -15.8675  -28.0826   22.7072 H   0  0  0  0  0  0
  -24.5835  -30.7185   25.7767 H   0  0  0  0  0  0
  -24.8940  -32.2985   26.4853 H   0  0  0  0  0  0
  -25.7975  -30.8955   27.0228 H   0  0  0  0  0  0
  -26.2962  -29.6717   24.1268 H   0  0  0  0  0  0
  -27.3931  -29.7264   25.4870 H   0  0  0  0  0  0
  -27.8893  -30.4208   23.9622 H   0  0  0  0  0  0
  -27.2584  -33.3659   26.2070 H   0  0  0  0  0  0
  -28.3856  -32.6935   25.0373 H   0  0  0  0  0  0
  -28.0675  -31.8514   26.5466 H   0  0  0  0  0  0
  -28.2560  -38.0109   24.7521 H   0  0  0  0  0  0
  -28.1092  -36.2634   24.6242 H   0  0  0  0  0  0
  -27.2295  -37.1392   25.8857 H   0  0  0  0  0  0
  -20.9434  -29.8780   21.6844 H   0  0  0  0  0  0
  -26.0130  -38.2816   24.1442 H   0  0  0  0  0  0
  -26.8255  -17.8530   16.9912 H   0  0  0  0  0  0
  -31.0797  -18.6112   17.1598 H   0  0  0  0  0  0
  -26.6836  -19.0944   14.8692 H   0  0  0  0  0  0
  -30.9349  -19.8642   15.0405 H   0  0  0  0  0  0
  -27.3888  -24.4080   18.3366 H   0  0  0  0  0  0
  -29.4801  -24.5795   22.0557 H   0  0  0  0  0  0
  -30.4573  -15.8712   17.9486 H   0  0  0  0  0  0
  -28.7936  -15.2694   18.1553 H   0  0  0  0  0  0
  -27.9822  -17.3339   18.9274 H   0  0  0  0  0  0
  -30.9765  -17.7598   19.3848 H   0  0  0  0  0  0
  -28.0739  -21.2170   13.6160 H   0  0  0  0  0  0
  -28.2368  -19.7016   12.7240 H   0  0  0  0  0  0
  -29.6714  -20.6439   13.1264 H   0  0  0  0  0  0
  -26.8789  -22.3258   17.4134 H   0  0  0  0  0  0
  -27.2606  -20.8130   18.2190 H   0  0  0  0  0  0
  -28.4757  -21.6106   17.2068 H   0  0  0  0  0  0
  -31.4487  -21.5350   19.2022 H   0  0  0  0  0  0
  -31.7680  -19.8343   19.4814 H   0  0  0  0  0  0
  -31.5881  -20.9302   20.8451 H   0  0  0  0  0  0
  -29.8620  -18.9229   21.5786 H   0  0  0  0  0  0
  -28.3560  -18.8320   20.7399 H   0  0  0  0  0  0
  -29.4489  -20.2381   18.8571 H   0  0  0  0  0  0
  1 25  1  0  0  0
  1 30  2  0  0  0
  1 91  1  0  0  0
  2  3  1  0  0  0
  2 25  1  0  0  0
  2 92  1  0  0  0
  2 93  1  0  0  0
  3  4  1  0  0  0
  3 94  1  0  0  0
  3 95  1  0  0  0
  4  5  1  0  0  0
  4 96  1  0  0  0
  4 97  1  0  0  0
  5  6  1  0  0  0
  5 26  1  0  0  0
  5 98  1  0  0  0
  6 25  1  0  0  0
  6 99  1  0  0  0
  6100  1  0  0  0
  7  8  2  0  0  0
  7 26  1  0  0  0
  7 29  1  0  0  0
  8  9  1  0  0  0
  8 22  1  0  0  0
  9 10  1  0  0  0
  9 27  2  0  0  0
 10 11  2  0  0  0
 10 15  1  0  0  0
 11 12  1  0  0  0
 11101  1  0  0  0
 12 13  2  0  0  0
 12102  1  0  0  0
 13 14  1  0  0  0
 13 31  1  0  0  0
 14 15  2  0  0  0
 14103  1  0  0  0
 15104  1  0  0  0
 16 17  2  0  0  0
 16 21  1  0  0  0
 16 31  1  0  0  0
 17 18  1  0  0  0
 17105  1  0  0  0
 18 19  2  0  0  0
 18106  1  0  0  0
 19 20  1  0  0  0
 19 24  1  0  0  0
 20 21  2  0  0  0
 20107  1  0  0  0
 21 23  1  0  0  0
 22 28  1  0  0  0
 22 32  2  0  0  0
 26 27  1  0  0  0
 28108  1  0  0  0
 28109  1  0  0  0
 29110  1  0  0  0
 29111  1  0  0  0
 33 34  1  0  0  0
 33 66  1  0  0  0
 33 70  2  0  0  0
 34 36  1  0  0  0
 34 59  1  0  0  0
 34112  1  0  0  0
 35 44  2  0  0  0
 35 45  1  0  0  0
 35 68  1  0  0  0
 36 56  1  0  0  0
 36113  1  0  0  0
 37 39  1  0  0  0
 37 47  1  0  0  0
 37 66  1  0  0  0
 37114  1  0  0  0
 38 43  2  0  0  0
 38 46  1  0  0  0
 38 47  1  0  0  0
 39 64  1  0  0  0
 39 67  2  0  0  0
 40 52  1  0  0  0
 40 53  2  0  0  0
 40 58  1  0  0  0
 41115  1  0  0  0
 41116  1  0  0  0
 41117  1  0  0  0
 41 48  1  0  0  0
 42 43  1  0  0  0
 42 66  1  0  0  0
 42118  1  0  0  0
 42119  1  0  0  0
 43 44  1  0  0  0
 44120  1  0  0  0
 45 46  2  0  0  0
 45121  1  0  0  0
 46122  1  0  0  0
 47123  1  0  0  0
 47124  1  0  0  0
 48 56  1  0  0  0
 48 65  1  0  0  0
 48125  1  0  0  0
 49 50  1  0  0  0
 49 53  1  0  0  0
 49 64  1  0  0  0
 49126  1  0  0  0
 50 51  1  0  0  0
 50127  1  0  0  0
 50128  1  0  0  0
 51 52  1  0  0  0
 51129  1  0  0  0
 51130  1  0  0  0
 52131  1  0  0  0
 52132  1  0  0  0
 53 54  1  0  0  0
 54 55  2  0  0  0
 54133  1  0  0  0
 55 57  1  0  0  0
 55134  1  0  0  0
 56 69  2  0  0  0
 57 58  2  0  0  0
 57135  1  0  0  0
 58136  1  0  0  0
 59 60  1  0  0  0
 59 61  1  0  0  0
 59 62  1  0  0  0
 60137  1  0  0  0
 60138  1  0  0  0
 60139  1  0  0  0
 61140  1  0  0  0
 61141  1  0  0  0
 61142  1  0  0  0
 62143  1  0  0  0
 62144  1  0  0  0
 62145  1  0  0  0
 63 65  1  0  0  0
 63146  1  0  0  0
 63147  1  0  0  0
 63148  1  0  0  0
 64149  1  0  0  0
 65150  1  0  0  0
 68 80  1  0  0  0
 71 73  2  0  0  0
 71 77  1  0  0  0
 71151  1  0  0  0
 72 74  1  0  0  0
 72 77  2  0  0  0
 72152  1  0  0  0
 73 78  1  0  0  0
 73153  1  0  0  0
 74 78  2  0  0  0
 74154  1  0  0  0
 75 79  2  0  0  0
 75 80  1  0  0  0
 75155  1  0  0  0
 76 80  2  0  0  0
 76 90  1  0  0  0
 76156  1  0  0  0
 77 83  1  0  0  0
 78 85  1  0  0  0
 79 81  1  0  0  0
 79 86  1  0  0  0
 81 89  1  0  0  0
 81 90  2  0  0  0
 82 83  1  0  0  0
 82 91  1  0  0  0
 82157  1  0  0  0
 82158  1  0  0  0
 83 84  1  0  0  0
 83159  1  0  0  0
 84 88  1  0  0  0
 84 91  1  0  0  0
 84160  1  0  0  0
 85161  1  0  0  0
 85162  1  0  0  0
 85163  1  0  0  0
 86164  1  0  0  0
 86165  1  0  0  0
 86166  1  0  0  0
 87167  1  0  0  0
 87168  1  0  0  0
 87169  1  0  0  0
 87 89  1  0  0  0
 88 89  1  0  0  0
 88170  1  0  0  0
 88171  1  0  0  0
 89172  1  0  0  0
M  ISO  4   1 100  68 101  80 101  91 100
M  END
> <chiral flag>
0

> <version>
0

> <s_m_source_file>
/data/baiqing/PycharmProjects/Reinvent-master-3.2/result/LINK_invent/BTK/process_docking_weight1_custom_sum_contain_oxygen_bond_distance_aromatic_linkinvent_7_9_3/rearranged_h_0143.sdf

> <i_m_source_file_index>
14

> <r_mmod_Potential_Energy-OPLS-2005>
467.685974121094

> <r_mmod_Stretch_Energy-OPLS-2005>
214.913314819336

> <r_mmod_Bend_Energy-OPLS-2005>
298.948974609375

> <r_mmod_Torsional_Energy-OPLS-2005>
293.661468505859

> <r_mmod_Improper_Torsional_Energy-OPLS-2005>
23.9934825897217

> <r_mmod_Van_der_Waal_Energy-OPLS-2005>
148.025680541992

> <r_mmod_Electrostatic_Energy-OPLS-2005>
-459.745483398438

> <r_mmod_Solvation_Energy-OPLS-2005>
-214.09700012207

> <b_mmod_Minimization_Converged-OPLS-2005>
0

> <r_mmod_RMS_Derivative-OPLS-2005>
2.79088354110718

$$$$
14
                    3D
 Structure written by MMmdl.
166175  0  0  1  0            999 V2000
  -30.7651  -14.3509   20.6676 C   0  0  0  0  0  0
  -30.4138  -12.2674   19.3981 C   0  0  0  0  0  0
  -29.4848  -12.5186   18.1951 C   0  0  0  0  0  0
  -28.0076  -12.3822   18.6092 C   0  0  0  0  0  0
  -27.6686  -13.1996   19.8833 C   0  0  2  0  0  0
  -28.7045  -12.9279   20.9972 C   0  0  0  0  0  0
  -25.2616  -13.8153   20.5677 C   0  0  0  0  0  0
  -24.1852  -13.0441   20.9162 C   0  0  0  0  0  0
  -24.6390  -11.6904   20.8722 C   0  0  0  0  0  0
  -23.9053  -10.4294   21.0398 C   0  0  0  0  0  0
  -24.3609   -9.4211   21.9177 C   0  0  0  0  0  0
  -23.6289   -8.2244   22.0751 C   0  0  0  0  0  0
  -22.4270   -8.0280   21.3543 C   0  0  0  0  0  0
  -21.9901   -9.0250   20.4645 C   0  0  0  0  0  0
  -22.7225  -10.2131   20.3051 C   0  0  0  0  0  0
  -21.6852   -6.0734   22.5280 C   0  0  0  0  0  0
  -21.4013   -6.5639   23.8212 C   0  0  0  0  0  0
  -21.3660   -5.6793   24.9174 C   0  0  0  0  0  0
  -21.6045   -4.3056   24.7225 C   0  0  0  0  0  0
  -21.8820   -3.8146   23.4347 C   0  0  0  0  0  0
  -21.9192   -4.6962   22.3403 C   0  0  0  0  0  0
  -22.7877  -13.5246   21.1834 C   0  0  0  0  0  0
  -22.1662   -4.2148   21.0981 F   0  0  0  0  0  0
  -21.5630   -3.4540   25.7738 F   0  0  0  0  0  0
  -30.0518  -13.2123   20.4648 N   0  0  0  0  0  0
  -26.3054  -12.9312   20.3391 N   0  0  0  0  0  0
  -25.9317  -11.6476   20.5761 N   0  0  0  0  0  0
  -22.0517  -12.8237   22.0390 N   0  0  0  0  0  0
  -25.4366  -15.1869   20.4098 N   0  0  0  0  0  0
  -31.8030  -14.6005   20.0428 O   0  0  0  0  0  0
  -21.6638   -6.8875   21.4241 O   0  0  0  0  0  0
  -22.3563  -14.5557   20.6692 O   0  0  0  0  0  0
  -24.6091  -31.8713   23.2129 C   0  0  0  0  0  0
  -25.9006  -32.4840   23.8410 C   0  0  1  0  0  0
  -27.2368  -27.4804   20.0844 C   0  0  0  0  0  0
  -25.5881  -33.8637   24.2347 N   0  0  0  0  0  0
  -23.3941  -30.4949   21.5528 C   0  0  2  0  0  0
  -24.8388  -28.9642   20.1162 C   0  0  0  0  0  0
  -22.7376  -29.4673   22.5011 C   0  0  0  0  0  0
  -18.0264  -28.1371   22.8493 C   0  0  0  0  0  0
  -24.1487  -36.7324   23.2639 C   0  0  0  0  0  0
  -25.9172  -30.8509   21.3577 C   0  0  0  0  0  0
  -25.9948  -29.4879   20.7070 C   0  0  0  0  0  0
  -27.1956  -28.7529   20.6869 C   0  0  0  0  0  0
  -26.0643  -26.9582   19.4899 C   0  0  0  0  0  0
  -24.8659  -27.6964   19.5080 C   0  0  0  0  0  0
  -23.5985  -29.8256   20.1671 C   0  0  0  0  0  0
  -25.4105  -36.3123   24.0344 C   0  0  1  0  0  0
  -20.5849  -28.3646   23.1334 C   0  0  2  0  0  0
  -20.6754  -26.9389   22.5418 C   0  0  0  0  0  0
  -19.5737  -26.6381   21.5210 C   0  0  0  0  0  0
  -18.1914  -26.7919   22.1620 C   0  0  0  0  0  0
  -19.1512  -28.8824   23.2914 C   0  0  0  0  0  0
  -18.9445  -30.1431   23.8921 C   0  0  0  0  0  0
  -17.6451  -30.6579   24.0564 C   0  0  0  0  0  0
  -25.9024  -34.9486   23.5142 C   0  0  0  0  0  0
  -16.5339  -29.9086   23.6321 C   0  0  0  0  0  0
  -16.7256  -28.6502   23.0342 C   0  0  0  0  0  0
  -26.4454  -31.6604   25.0716 C   0  0  0  0  0  0
  -25.3743  -31.3699   26.1481 C   0  0  0  0  0  0
  -27.0278  -30.3060   24.6048 C   0  0  0  0  0  0
  -27.6041  -32.4312   25.7473 C   0  0  0  0  0  0
  -27.5583  -37.1815   24.8466 C   0  0  0  0  0  0
  -21.4109  -29.3026   22.3751 N   0  0  0  0  0  0
  -26.4298  -37.3801   23.9406 N   0  0  0  0  0  0
  -24.6584  -31.0855   22.1005 N   0  0  0  0  0  0
  -23.4176  -28.8213   23.3027 O   0  0  0  0  0  0
  -28.4361  -26.8140   20.0791 O   0  0  0  0  0  0
  -26.5585  -34.8928   22.4700 O   0  0  0  0  0  0
  -23.5300  -32.1441   23.7558 O   0  0  0  0  0  0
  -29.4681  -18.7038   22.2230 C   0  0  0  0  0  0
  -29.3767  -17.3038   22.1898 C   0  0  0  0  0  0
  -30.6699  -19.3219   21.8220 C   0  0  0  0  0  0
  -30.4763  -16.5504   21.7430 C   0  0  0  0  0  0
  -31.7497  -18.4939   21.4605 C   0  0  0  0  0  0
  -30.1252  -21.2713   20.3471 C   0  0  0  0  0  0
  -30.1574  -21.6346   22.8412 C   0  0  0  0  0  0
  -30.2205  -22.7887   20.1478 C   0  0  0  0  0  0
  -30.2615  -23.1488   22.5802 C   0  0  0  0  0  0
  -30.7697  -20.8365   21.6734 C   0  0  1  0  0  0
  -34.0035  -18.1980   20.6584 C   0  0  0  0  0  0
  -29.5632  -24.9828   21.0742 C   0  0  0  0  0  0
  -28.4031  -25.3966   20.1571 C   0  0  0  0  0  0
  -31.6495  -17.1494   21.4398 N   0  0  0  0  0  0
  -30.2573  -15.1623   21.6075 N   0  0  0  0  0  0
  -29.6132  -23.5163   21.2927 N   0  3  1  0  0  0
  -32.9434  -19.0598   21.0629 O   0  0  0  0  0  0
  -31.4585  -12.3542   19.0936 H   0  0  0  0  0  0
  -30.3001  -11.2439   19.7591 H   0  0  0  0  0  0
  -29.7124  -11.8171   17.3913 H   0  0  0  0  0  0
  -29.6637  -13.5162   17.7913 H   0  0  0  0  0  0
  -27.8075  -11.3244   18.7836 H   0  0  0  0  0  0
  -27.3570  -12.6817   17.7866 H   0  0  0  0  0  0
  -27.7318  -14.2553   19.6179 H   0  0  0  0  0  0
  -28.6589  -11.8814   21.3028 H   0  0  0  0  0  0
  -28.4528  -13.4928   21.8948 H   0  0  0  0  0  0
  -25.2757   -9.5690   22.4746 H   0  0  0  0  0  0
  -24.0003   -7.4637   22.7469 H   0  0  0  0  0  0
  -21.0833   -8.8765   19.8952 H   0  0  0  0  0  0
  -22.3682  -10.9667   19.6158 H   0  0  0  0  0  0
  -21.2003   -7.6146   23.9714 H   0  0  0  0  0  0
  -21.1483   -6.0523   25.9077 H   0  0  0  0  0  0
  -22.0598   -2.7609   23.2848 H   0  0  0  0  0  0
  -22.4130  -11.9891   22.4768 H   0  0  0  0  0  0
  -21.1138  -13.1264   22.2605 H   0  0  0  0  0  0
  -24.6737  -15.8463   20.5187 H   0  0  0  0  0  0
  -26.2954  -15.6234   20.0984 H   0  0  0  0  0  0
  -26.7077  -32.5568   23.1180 H   0  0  0  0  0  0
  -25.0042  -33.9808   25.0498 H   0  0  0  0  0  0
  -22.6806  -31.3101   21.4158 H   0  0  0  0  0  0
  -23.3742  -35.9666   23.3316 H   0  0  0  0  0  0
  -24.3584  -36.8919   22.2051 H   0  0  0  0  0  0
  -23.7246  -37.6539   23.6636 H   0  0  0  0  0  0
  -26.0204  -31.6181   20.5891 H   0  0  0  0  0  0
  -26.8089  -30.9066   21.9705 H   0  0  0  0  0  0
  -28.0921  -29.1582   21.1350 H   0  0  0  0  0  0
  -26.0666  -25.9968   18.9958 H   0  0  0  0  0  0
  -23.9768  -27.2893   19.0461 H   0  0  0  0  0  0
  -23.7005  -30.5993   19.4054 H   0  0  0  0  0  0
  -22.7242  -29.2411   19.8752 H   0  0  0  0  0  0
  -25.1281  -36.1999   25.0839 H   0  0  0  0  0  0
  -20.9941  -28.3202   24.1454 H   0  0  0  0  0  0
  -20.5650  -26.2253   23.3596 H   0  0  0  0  0  0
  -21.6627  -26.7434   22.1215 H   0  0  0  0  0  0
  -19.6901  -25.6301   21.1219 H   0  0  0  0  0  0
  -19.6682  -27.3206   20.6754 H   0  0  0  0  0  0
  -17.4184  -26.6663   21.4021 H   0  0  0  0  0  0
  -18.0316  -26.0057   22.9012 H   0  0  0  0  0  0
  -19.7926  -30.7233   24.2302 H   0  0  0  0  0  0
  -17.5013  -31.6264   24.5156 H   0  0  0  0  0  0
  -15.5344  -30.2999   23.7636 H   0  0  0  0  0  0
  -15.8651  -28.0832   22.7046 H   0  0  0  0  0  0
  -24.5903  -30.7057   25.7824 H   0  0  0  0  0  0
  -24.8948  -32.2854   26.4956 H   0  0  0  0  0  0
  -25.8112  -30.8850   27.0220 H   0  0  0  0  0  0
  -26.2804  -29.6830   24.1119 H   0  0  0  0  0  0
  -27.4094  -29.7278   25.4474 H   0  0  0  0  0  0
  -27.8616  -30.4401   23.9152 H   0  0  0  0  0  0
  -27.2661  -33.3591   26.2100 H   0  0  0  0  0  0
  -28.3823  -32.6906   25.0284 H   0  0  0  0  0  0
  -28.0738  -31.8407   26.5350 H   0  0  0  0  0  0
  -28.2608  -38.0105   24.7503 H   0  0  0  0  0  0
  -28.1070  -36.2634   24.6302 H   0  0  0  0  0  0
  -27.2299  -37.1480   25.8870 H   0  0  0  0  0  0
  -20.9247  -29.8765   21.7002 H   0  0  0  0  0  0
  -26.0195  -38.2886   24.1399 H   0  0  0  0  0  0
  -28.6012  -19.2834   22.5029 H   0  0  0  0  0  0
  -28.4401  -16.8297   22.4512 H   0  0  0  0  0  0
  -30.6163  -20.7697   19.5124 H   0  0  0  0  0  0
  -29.0790  -20.9634   20.3146 H   0  0  0  0  0  0
  -29.1081  -21.3802   22.9888 H   0  0  0  0  0  0
  -30.6688  -21.3870   23.7722 H   0  0  0  0  0  0
  -29.7229  -23.0512   19.2145 H   0  0  0  0  0  0
  -31.2648  -23.0848   20.0350 H   0  0  0  0  0  0
  -31.3077  -23.4588   22.5668 H   0  0  0  0  0  0
  -29.7881  -23.6846   23.4040 H   0  0  0  0  0  0
  -31.8258  -21.1089   21.6361 H   0  0  0  0  0  0
  -34.8685  -18.7968   20.3739 H   0  0  0  0  0  0
  -33.7215  -17.5954   19.7936 H   0  0  0  0  0  0
  -34.3119  -17.5364   21.4693 H   0  0  0  0  0  0
  -29.4190  -25.4879   22.0303 H   0  0  0  0  0  0
  -30.5147  -25.3417   20.6795 H   0  0  0  0  0  0
  -27.4686  -25.0259   20.5825 H   0  0  0  0  0  0
  -28.5038  -24.9830   19.1534 H   0  0  0  0  0  0
  -29.4383  -14.8009   22.0676 H   0  0  0  0  0  0
  -28.6542  -23.2080   21.3704 H   0  0  0  0  0  0
  1 25  1  0  0  0
  1 30  2  0  0  0
  1 85  1  0  0  0
  2  3  1  0  0  0
  2 25  1  0  0  0
  2 88  1  0  0  0
  2 89  1  0  0  0
  3  4  1  0  0  0
  3 90  1  0  0  0
  3 91  1  0  0  0
  4  5  1  0  0  0
  4 92  1  0  0  0
  4 93  1  0  0  0
  5  6  1  0  0  0
  5 26  1  0  0  0
  5 94  1  0  0  0
  6 25  1  0  0  0
  6 95  1  0  0  0
  6 96  1  0  0  0
  7  8  2  0  0  0
  7 26  1  0  0  0
  7 29  1  0  0  0
  8  9  1  0  0  0
  8 22  1  0  0  0
  9 10  1  0  0  0
  9 27  2  0  0  0
 10 11  2  0  0  0
 10 15  1  0  0  0
 11 12  1  0  0  0
 11 97  1  0  0  0
 12 13  2  0  0  0
 12 98  1  0  0  0
 13 14  1  0  0  0
 13 31  1  0  0  0
 14 15  2  0  0  0
 14 99  1  0  0  0
 15100  1  0  0  0
 16 17  2  0  0  0
 16 21  1  0  0  0
 16 31  1  0  0  0
 17 18  1  0  0  0
 17101  1  0  0  0
 18 19  2  0  0  0
 18102  1  0  0  0
 19 20  1  0  0  0
 19 24  1  0  0  0
 20 21  2  0  0  0
 20103  1  0  0  0
 21 23  1  0  0  0
 22 28  1  0  0  0
 22 32  2  0  0  0
 26 27  1  0  0  0
 28104  1  0  0  0
 28105  1  0  0  0
 29106  1  0  0  0
 29107  1  0  0  0
 33 34  1  0  0  0
 33 66  1  0  0  0
 33 70  2  0  0  0
 34 36  1  0  0  0
 34 59  1  0  0  0
 34108  1  0  0  0
 35 44  2  0  0  0
 35 45  1  0  0  0
 35 68  1  0  0  0
 36 56  1  0  0  0
 36109  1  0  0  0
 37 39  1  0  0  0
 37 47  1  0  0  0
 37 66  1  0  0  0
 37110  1  0  0  0
 38 43  2  0  0  0
 38 46  1  0  0  0
 38 47  1  0  0  0
 39 64  1  0  0  0
 39 67  2  0  0  0
 40 52  1  0  0  0
 40 53  2  0  0  0
 40 58  1  0  0  0
 41111  1  0  0  0
 41112  1  0  0  0
 41113  1  0  0  0
 41 48  1  0  0  0
 42 43  1  0  0  0
 42 66  1  0  0  0
 42114  1  0  0  0
 42115  1  0  0  0
 43 44  1  0  0  0
 44116  1  0  0  0
 45 46  2  0  0  0
 45117  1  0  0  0
 46118  1  0  0  0
 47119  1  0  0  0
 47120  1  0  0  0
 48 56  1  0  0  0
 48 65  1  0  0  0
 48121  1  0  0  0
 49 50  1  0  0  0
 49 53  1  0  0  0
 49 64  1  0  0  0
 49122  1  0  0  0
 50 51  1  0  0  0
 50123  1  0  0  0
 50124  1  0  0  0
 51 52  1  0  0  0
 51125  1  0  0  0
 51126  1  0  0  0
 52127  1  0  0  0
 52128  1  0  0  0
 53 54  1  0  0  0
 54 55  2  0  0  0
 54129  1  0  0  0
 55 57  1  0  0  0
 55130  1  0  0  0
 56 69  2  0  0  0
 57 58  2  0  0  0
 57131  1  0  0  0
 58132  1  0  0  0
 59 60  1  0  0  0
 59 61  1  0  0  0
 59 62  1  0  0  0
 60133  1  0  0  0
 60134  1  0  0  0
 60135  1  0  0  0
 61136  1  0  0  0
 61137  1  0  0  0
 61138  1  0  0  0
 62139  1  0  0  0
 62140  1  0  0  0
 62141  1  0  0  0
 63 65  1  0  0  0
 63142  1  0  0  0
 63143  1  0  0  0
 63144  1  0  0  0
 64145  1  0  0  0
 65146  1  0  0  0
 68 83  1  0  0  0
 71 72  2  0  0  0
 71 73  1  0  0  0
 71147  1  0  0  0
 72 74  1  0  0  0
 72148  1  0  0  0
 73 75  2  0  0  0
 73 80  1  0  0  0
 74 84  2  0  0  0
 74 85  1  0  0  0
 75 84  1  0  0  0
 75 87  1  0  0  0
 76 78  1  0  0  0
 76 80  1  0  0  0
 76149  1  0  0  0
 76150  1  0  0  0
 77 79  1  0  0  0
 77 80  1  0  0  0
 77151  1  0  0  0
 77152  1  0  0  0
 78 86  1  0  0  0
 78153  1  0  0  0
 78154  1  0  0  0
 79 86  1  0  0  0
 79155  1  0  0  0
 79156  1  0  0  0
 80157  1  0  0  0
 81 87  1  0  0  0
 81158  1  0  0  0
 81159  1  0  0  0
 81160  1  0  0  0
 82 83  1  0  0  0
 82161  1  0  0  0
 82162  1  0  0  0
 82 86  1  0  0  0
 83163  1  0  0  0
 83164  1  0  0  0
 85165  1  0  0  0
 86166  1  0  0  0
M  CHG  1  86   1
M  ISO  4   1 100  68 101  83 101  85 100
M  END
> <chiral flag>
0

> <version>
0

> <s_m_source_file>
/data/baiqing/PycharmProjects/Reinvent-master-3.2/result/LINK_invent/BTK/process_docking_weight1_custom_sum_contain_oxygen_bond_distance_aromatic_linkinvent_7_9_3/rearranged_h_0143.sdf

> <i_m_source_file_index>
15

> <r_mmod_Potential_Energy-OPLS-2005>
-278.579895019531

> <r_mmod_Stretch_Energy-OPLS-2005>
32.1683731079102

> <r_mmod_Bend_Energy-OPLS-2005>
103.293060302734

> <r_mmod_Torsional_Energy-OPLS-2005>
229.412414550781

> <r_mmod_Improper_Torsional_Energy-OPLS-2005>
3.20030903816223

> <r_mmod_Van_der_Waal_Energy-OPLS-2005>
178.5390625

> <r_mmod_Electrostatic_Energy-OPLS-2005>
-383.677703857422

> <r_mmod_Solvation_Energy-OPLS-2005>
-449.261566162109

> <b_mmod_Minimization_Converged-OPLS-2005>
0

> <r_mmod_RMS_Derivative-OPLS-2005>
0.456665337085724

$$$$
15
                    3D
 Structure written by MMmdl.
157166  0  0  1  0            999 V2000
  -30.5762  -14.7618   20.4701 C   0  0  0  0  0  0
  -30.4437  -12.4639   19.4582 C   0  0  0  0  0  0
  -29.5112  -12.4964   18.2271 C   0  0  0  0  0  0
  -28.0376  -12.3108   18.6479 C   0  0  0  0  0  0
  -27.6377  -13.2170   19.8419 C   0  0  2  0  0  0
  -28.6866  -13.1512   20.9725 C   0  0  0  0  0  0
  -25.2496  -13.8154   20.5699 C   0  0  0  0  0  0
  -24.1767  -13.0417   20.9212 C   0  0  0  0  0  0
  -24.6332  -11.6885   20.8728 C   0  0  0  0  0  0
  -23.8987  -10.4276   21.0383 C   0  0  0  0  0  0
  -24.3551   -9.4206   21.9159 C   0  0  0  0  0  0
  -23.6253   -8.2227   22.0748 C   0  0  0  0  0  0
  -22.4239   -8.0235   21.3538 C   0  0  0  0  0  0
  -21.9852   -9.0199   20.4634 C   0  0  0  0  0  0
  -22.7152  -10.2098   20.3035 C   0  0  0  0  0  0
  -21.6848   -6.0685   22.5259 C   0  0  0  0  0  0
  -21.4004   -6.5606   23.8186 C   0  0  0  0  0  0
  -21.3681   -5.6768   24.9161 C   0  0  0  0  0  0
  -21.6054   -4.3030   24.7229 C   0  0  0  0  0  0
  -21.8823   -3.8107   23.4352 C   0  0  0  0  0  0
  -21.9195   -4.6910   22.3395 C   0  0  0  0  0  0
  -22.7788  -13.5196   21.1869 C   0  0  0  0  0  0
  -22.1657   -4.2100   21.0971 F   0  0  0  0  0  0
  -21.5659   -3.4521   25.7749 F   0  0  0  0  0  0
  -29.9801  -13.5215   20.3837 N   0  0  0  0  0  0
  -26.2897  -12.9329   20.3238 N   0  0  0  0  0  0
  -25.9256  -11.6486   20.5726 N   0  0  0  0  0  0
  -22.0437  -12.8198   22.0444 N   0  0  0  0  0  0
  -25.4186  -15.1897   20.4136 N   0  0  0  0  0  0
  -31.7834  -14.8814   20.2386 O   0  0  0  0  0  0
  -21.6635   -6.8814   21.4208 O   0  0  0  0  0  0
  -22.3465  -14.5488   20.6707 O   0  0  0  0  0  0
  -24.6382  -31.8542   23.1982 C   0  0  0  0  0  0
  -25.9154  -32.4810   23.8319 C   0  0  1  0  0  0
  -27.2033  -27.2254   20.1399 C   0  0  0  0  0  0
  -25.5922  -33.8608   24.2238 N   0  0  0  0  0  0
  -23.4373  -30.4868   21.5378 C   0  0  2  0  0  0
  -24.8801  -28.9281   20.1127 C   0  0  0  0  0  0
  -22.7547  -29.4644   22.4809 C   0  0  0  0  0  0
  -18.0312  -28.1443   22.8494 C   0  0  0  0  0  0
  -24.1460  -36.7316   23.2633 C   0  0  0  0  0  0
  -25.9872  -30.7621   21.3799 C   0  0  0  0  0  0
  -26.0563  -29.3781   20.7262 C   0  0  0  0  0  0
  -27.2218  -28.5398   20.7294 C   0  0  0  0  0  0
  -26.0010  -26.8589   19.4911 C   0  0  0  0  0  0
  -24.8578  -27.6778   19.4845 C   0  0  0  0  0  0
  -23.6642  -29.8323   20.1509 C   0  0  0  0  0  0
  -25.4080  -36.3102   24.0333 C   0  0  1  0  0  0
  -20.5917  -28.3758   23.1224 C   0  0  2  0  0  0
  -20.6811  -26.9473   22.5388 C   0  0  0  0  0  0
  -19.5765  -26.6413   21.5236 C   0  0  0  0  0  0
  -18.1948  -26.7989   22.1643 C   0  0  0  0  0  0
  -19.1566  -28.8905   23.2884 C   0  0  0  0  0  0
  -18.9502  -30.1494   23.8928 C   0  0  0  0  0  0
  -17.6503  -30.6636   24.0587 C   0  0  0  0  0  0
  -25.9035  -34.9486   23.5079 C   0  0  0  0  0  0
  -16.5385  -29.9157   23.6343 C   0  0  0  0  0  0
  -16.7299  -28.6579   23.0353 C   0  0  0  0  0  0
  -26.4483  -31.6665   25.0752 C   0  0  0  0  0  0
  -25.3657  -31.3908   26.1465 C   0  0  0  0  0  0
  -27.0325  -30.3068   24.6275 C   0  0  0  0  0  0
  -27.6000  -32.4433   25.7540 C   0  0  0  0  0  0
  -27.5570  -37.1809   24.8454 C   0  0  0  0  0  0
  -21.4239  -29.3117   22.3612 N   0  0  0  0  0  0
  -26.4251  -37.3806   23.9443 N   0  0  0  0  0  0
  -24.7075  -31.0509   22.0961 N   0  0  0  0  0  0
  -23.4238  -28.8136   23.2871 O   0  0  0  0  0  0
  -28.2742  -26.2922   20.1944 O   0  0  0  0  0  0
  -26.5584  -34.8963   22.4637 O   0  0  0  0  0  0
  -23.5503  -32.1296   23.7282 O   0  0  0  0  0  0
  -29.8653  -17.3326   22.3882 C   0  0  0  0  0  0
  -29.4842  -19.7329   22.3002 C   0  0  0  0  0  0
  -29.6846  -18.5615   23.0544 C   0  0  0  0  0  0
  -29.8121  -17.2452   20.9842 C   0  0  0  0  0  0
  -29.4461  -19.6696   20.8969 C   0  0  0  0  0  0
  -30.3409  -19.6727   25.3579 C   0  0  0  0  0  0
  -30.8613  -18.2485   25.3797 C   0  0  0  0  0  0
  -29.6461  -18.5966   24.5521 C   0  0  0  0  0  0
  -29.0241  -23.5924   20.2906 C   0  0  0  0  0  0
  -27.9446  -24.8092   20.2504 C   0  0  0  0  0  0
  -28.5154  -22.0604   20.5319 C   0  0  0  0  0  0
  -29.5980  -18.4297   20.2669 N   0  0  0  0  0  0
  -29.7182  -15.8578   20.4735 N   0  0  0  0  0  0
  -29.3124  -20.8543   20.1096 O   0  0  0  0  0  0
  -31.4801  -12.6132   19.1518 H   0  0  0  0  0  0
  -30.4052  -11.4869   19.9453 H   0  0  0  0  0  0
  -29.7995  -11.7205   17.5164 H   0  0  0  0  0  0
  -29.6265  -13.4481   17.7096 H   0  0  0  0  0  0
  -27.9065  -11.2639   18.9239 H   0  0  0  0  0  0
  -27.3762  -12.4883   17.7988 H   0  0  0  0  0  0
  -27.6258  -14.2344   19.4524 H   0  0  0  0  0  0
  -28.7359  -12.1506   21.4036 H   0  0  0  0  0  0
  -28.4187  -13.8238   21.7895 H   0  0  0  0  0  0
  -25.2697   -9.5712   22.4725 H   0  0  0  0  0  0
  -23.9986   -7.4625   22.7463 H   0  0  0  0  0  0
  -21.0802   -8.8646   19.8937 H   0  0  0  0  0  0
  -22.3552  -10.9606   19.6140 H   0  0  0  0  0  0
  -21.1957   -7.6112   23.9662 H   0  0  0  0  0  0
  -21.1532   -6.0514   25.9064 H   0  0  0  0  0  0
  -22.0596   -2.7566   23.2862 H   0  0  0  0  0  0
  -22.4053  -11.9869   22.4850 H   0  0  0  0  0  0
  -21.1031  -13.1191   22.2618 H   0  0  0  0  0  0
  -24.6517  -15.8388   20.5495 H   0  0  0  0  0  0
  -26.2507  -15.6403   20.0570 H   0  0  0  0  0  0
  -26.7257  -32.5458   23.1075 H   0  0  0  0  0  0
  -25.0146  -33.9729   25.0436 H   0  0  0  0  0  0
  -22.7395  -31.3146   21.3907 H   0  0  0  0  0  0
  -23.3749  -35.9632   23.3278 H   0  0  0  0  0  0
  -24.3539  -36.8967   22.2056 H   0  0  0  0  0  0
  -23.7201  -37.6510   23.6656 H   0  0  0  0  0  0
  -26.1170  -31.5175   20.6041 H   0  0  0  0  0  0
  -26.8702  -30.8190   22.0060 H   0  0  0  0  0  0
  -28.1193  -28.8723   21.2325 H   0  0  0  0  0  0
  -25.8968  -25.9167   18.9793 H   0  0  0  0  0  0
  -23.9583  -27.3300   18.9942 H   0  0  0  0  0  0
  -23.8260  -30.6202   19.4136 H   0  0  0  0  0  0
  -22.7757  -29.2956   19.8165 H   0  0  0  0  0  0
  -25.1273  -36.1925   25.0836 H   0  0  0  0  0  0
  -21.0040  -28.3368   24.1323 H   0  0  0  0  0  0
  -20.5730  -26.2401   23.3622 H   0  0  0  0  0  0
  -21.6684  -26.7507   22.1162 H   0  0  0  0  0  0
  -19.6937  -25.6310   21.1308 H   0  0  0  0  0  0
  -19.6706  -27.3210   20.6755 H   0  0  0  0  0  0
  -17.4212  -26.6747   21.4058 H   0  0  0  0  0  0
  -18.0327  -26.0150   22.9042 H   0  0  0  0  0  0
  -19.7972  -30.7308   24.2326 H   0  0  0  0  0  0
  -17.5064  -31.6316   24.5194 H   0  0  0  0  0  0
  -15.5394  -30.3081   23.7656 H   0  0  0  0  0  0
  -15.8702  -28.0937   22.7016 H   0  0  0  0  0  0
  -24.5752  -30.7361   25.7795 H   0  0  0  0  0  0
  -24.8944  -32.3153   26.4834 H   0  0  0  0  0  0
  -25.7884  -30.9086   27.0285 H   0  0  0  0  0  0
  -26.2935  -29.6866   24.1206 H   0  0  0  0  0  0
  -27.3891  -29.7318   25.4828 H   0  0  0  0  0  0
  -27.8853  -30.4360   23.9612 H   0  0  0  0  0  0
  -27.2564  -33.3736   26.2069 H   0  0  0  0  0  0
  -28.3825  -32.7008   25.0401 H   0  0  0  0  0  0
  -28.0641  -31.8607   26.5510 H   0  0  0  0  0  0
  -28.2548  -38.0137   24.7547 H   0  0  0  0  0  0
  -28.1091  -36.2674   24.6188 H   0  0  0  0  0  0
  -27.2307  -37.1381   25.8856 H   0  0  0  0  0  0
  -20.9404  -29.8927   21.6913 H   0  0  0  0  0  0
  -26.0144  -38.2879   24.1483 H   0  0  0  0  0  0
  -29.9759  -16.4299   22.9730 H   0  0  0  0  0  0
  -29.3761  -20.6743   22.8177 H   0  0  0  0  0  0
  -30.9421  -20.4162   24.8386 H   0  0  0  0  0  0
  -29.8132  -20.0380   26.2368 H   0  0  0  0  0  0
  -30.6943  -17.6714   26.2868 H   0  0  0  0  0  0
  -31.7956  -18.0426   24.8571 H   0  0  0  0  0  0
  -28.6812  -18.2381   24.9134 H   0  0  0  0  0  0
  -29.7643  -23.8171   21.0568 H   0  0  0  0  0  0
  -29.5674  -23.6115   19.3466 H   0  0  0  0  0  0
  -27.3516  -24.5619   19.3728 H   0  0  0  0  0  0
  -27.2814  -24.6699   21.1068 H   0  0  0  0  0  0
  -27.5830  -21.9549   19.9760 H   0  0  0  0  0  0
  -28.2025  -21.9746   21.5707 H   0  0  0  0  0  0
  -28.7637  -15.5654   20.3570 H   0  0  0  0  0  0
  1 25  1  0  0  0
  1 30  2  0  0  0
  1 83  1  0  0  0
  2  3  1  0  0  0
  2 25  1  0  0  0
  2 85  1  0  0  0
  2 86  1  0  0  0
  3  4  1  0  0  0
  3 87  1  0  0  0
  3 88  1  0  0  0
  4  5  1  0  0  0
  4 89  1  0  0  0
  4 90  1  0  0  0
  5  6  1  0  0  0
  5 26  1  0  0  0
  5 91  1  0  0  0
  6 25  1  0  0  0
  6 92  1  0  0  0
  6 93  1  0  0  0
  7  8  2  0  0  0
  7 26  1  0  0  0
  7 29  1  0  0  0
  8  9  1  0  0  0
  8 22  1  0  0  0
  9 10  1  0  0  0
  9 27  2  0  0  0
 10 11  2  0  0  0
 10 15  1  0  0  0
 11 12  1  0  0  0
 11 94  1  0  0  0
 12 13  2  0  0  0
 12 95  1  0  0  0
 13 14  1  0  0  0
 13 31  1  0  0  0
 14 15  2  0  0  0
 14 96  1  0  0  0
 15 97  1  0  0  0
 16 17  2  0  0  0
 16 21  1  0  0  0
 16 31  1  0  0  0
 17 18  1  0  0  0
 17 98  1  0  0  0
 18 19  2  0  0  0
 18 99  1  0  0  0
 19 20  1  0  0  0
 19 24  1  0  0  0
 20 21  2  0  0  0
 20100  1  0  0  0
 21 23  1  0  0  0
 22 28  1  0  0  0
 22 32  2  0  0  0
 26 27  1  0  0  0
 28101  1  0  0  0
 28102  1  0  0  0
 29103  1  0  0  0
 29104  1  0  0  0
 33 34  1  0  0  0
 33 66  1  0  0  0
 33 70  2  0  0  0
 34 36  1  0  0  0
 34 59  1  0  0  0
 34105  1  0  0  0
 35 44  2  0  0  0
 35 45  1  0  0  0
 35 68  1  0  0  0
 36 56  1  0  0  0
 36106  1  0  0  0
 37 39  1  0  0  0
 37 47  1  0  0  0
 37 66  1  0  0  0
 37107  1  0  0  0
 38 43  2  0  0  0
 38 46  1  0  0  0
 38 47  1  0  0  0
 39 64  1  0  0  0
 39 67  2  0  0  0
 40 52  1  0  0  0
 40 53  2  0  0  0
 40 58  1  0  0  0
 41108  1  0  0  0
 41109  1  0  0  0
 41110  1  0  0  0
 41 48  1  0  0  0
 42 43  1  0  0  0
 42 66  1  0  0  0
 42111  1  0  0  0
 42112  1  0  0  0
 43 44  1  0  0  0
 44113  1  0  0  0
 45 46  2  0  0  0
 45114  1  0  0  0
 46115  1  0  0  0
 47116  1  0  0  0
 47117  1  0  0  0
 48 56  1  0  0  0
 48 65  1  0  0  0
 48118  1  0  0  0
 49 50  1  0  0  0
 49 53  1  0  0  0
 49 64  1  0  0  0
 49119  1  0  0  0
 50 51  1  0  0  0
 50120  1  0  0  0
 50121  1  0  0  0
 51 52  1  0  0  0
 51122  1  0  0  0
 51123  1  0  0  0
 52124  1  0  0  0
 52125  1  0  0  0
 53 54  1  0  0  0
 54 55  2  0  0  0
 54126  1  0  0  0
 55 57  1  0  0  0
 55127  1  0  0  0
 56 69  2  0  0  0
 57 58  2  0  0  0
 57128  1  0  0  0
 58129  1  0  0  0
 59 60  1  0  0  0
 59 61  1  0  0  0
 59 62  1  0  0  0
 60130  1  0  0  0
 60131  1  0  0  0
 60132  1  0  0  0
 61133  1  0  0  0
 61134  1  0  0  0
 61135  1  0  0  0
 62136  1  0  0  0
 62137  1  0  0  0
 62138  1  0  0  0
 63 65  1  0  0  0
 63139  1  0  0  0
 63140  1  0  0  0
 63141  1  0  0  0
 64142  1  0  0  0
 65143  1  0  0  0
 68 80  1  0  0  0
 71 73  2  0  0  0
 71 74  1  0  0  0
 71144  1  0  0  0
 72 73  1  0  0  0
 72 75  2  0  0  0
 72145  1  0  0  0
 73 78  1  0  0  0
 74 82  2  0  0  0
 74 83  1  0  0  0
 75 82  1  0  0  0
 75 84  1  0  0  0
 76 77  1  0  0  0
 76 78  1  0  0  0
 76146  1  0  0  0
 76147  1  0  0  0
 77 78  1  0  0  0
 77148  1  0  0  0
 77149  1  0  0  0
 78150  1  0  0  0
 79 80  1  0  0  0
 79 81  1  0  0  0
 79151  1  0  0  0
 79152  1  0  0  0
 80153  1  0  0  0
 80154  1  0  0  0
 81 84  1  0  0  0
 81155  1  0  0  0
 81156  1  0  0  0
 83157  1  0  0  0
M  ISO  4   1 100  68 101  80 101  83 100
M  END
> <chiral flag>
0

> <version>
0

> <s_m_source_file>
/data/baiqing/PycharmProjects/Reinvent-master-3.2/result/LINK_invent/BTK/process_docking_weight1_custom_sum_contain_oxygen_bond_distance_aromatic_linkinvent_7_9_3/rearranged_h_0143.sdf

> <i_m_source_file_index>
16

> <r_mmod_Potential_Energy-OPLS-2005>
105.212104797363

> <r_mmod_Stretch_Energy-OPLS-2005>
136.453216552734

> <r_mmod_Bend_Energy-OPLS-2005>
186.256637573242

> <r_mmod_Torsional_Energy-OPLS-2005>
291.95654296875

> <r_mmod_Improper_Torsional_Energy-OPLS-2005>
11.8949966430664

> <r_mmod_Van_der_Waal_Energy-OPLS-2005>
138.482727050781

> <r_mmod_Electrostatic_Energy-OPLS-2005>
-536.698669433594

> <r_mmod_Solvation_Energy-OPLS-2005>
-228.694351196289

> <b_mmod_Minimization_Converged-OPLS-2005>
0

> <r_mmod_RMS_Derivative-OPLS-2005>
3.84618616104126

$$$$
16
                    3D
 Structure written by MMmdl.
166174  0  0  1  0            999 V2000
  -30.7061  -14.5127   20.4833 C   0  0  0  0  0  0
  -30.4037  -12.3056   19.4475 C   0  0  0  0  0  0
  -29.4930  -12.4754   18.2150 C   0  0  0  0  0  0
  -28.0131  -12.3501   18.6258 C   0  0  0  0  0  0
  -27.6492  -13.2180   19.8619 C   0  0  2  0  0  0
  -28.6934  -13.0726   20.9930 C   0  0  0  0  0  0
  -25.2523  -13.8170   20.5651 C   0  0  0  0  0  0
  -24.1801  -13.0428   20.9187 C   0  0  0  0  0  0
  -24.6378  -11.6904   20.8747 C   0  0  0  0  0  0
  -23.9051  -10.4284   21.0405 C   0  0  0  0  0  0
  -24.3602   -9.4210   21.9192 C   0  0  0  0  0  0
  -23.6285   -8.2240   22.0761 C   0  0  0  0  0  0
  -22.4278   -8.0268   21.3535 C   0  0  0  0  0  0
  -21.9901   -9.0243   20.4641 C   0  0  0  0  0  0
  -22.7218  -10.2128   20.3057 C   0  0  0  0  0  0
  -21.6854   -6.0723   22.5271 C   0  0  0  0  0  0
  -21.4027   -6.5635   23.8205 C   0  0  0  0  0  0
  -21.3657   -5.6784   24.9171 C   0  0  0  0  0  0
  -21.6047   -4.3047   24.7221 C   0  0  0  0  0  0
  -21.8819   -3.8139   23.4343 C   0  0  0  0  0  0
  -21.9197   -4.6952   22.3402 C   0  0  0  0  0  0
  -22.7838  -13.5236   21.1861 C   0  0  0  0  0  0
  -22.1660   -4.2131   21.0980 F   0  0  0  0  0  0
  -21.5625   -3.4539   25.7743 F   0  0  0  0  0  0
  -30.0160  -13.3421   20.4196 N   0  0  0  0  0  0
  -26.2963  -12.9357   20.3321 N   0  0  0  0  0  0
  -25.9304  -11.6509   20.5775 N   0  0  0  0  0  0
  -22.0479  -12.8214   22.0404 N   0  0  0  0  0  0
  -25.4197  -15.1879   20.4001 N   0  0  0  0  0  0
  -31.8963  -14.5764   20.1715 O   0  0  0  0  0  0
  -21.6641   -6.8866   21.4237 O   0  0  0  0  0  0
  -22.3524  -14.5528   20.6700 O   0  0  0  0  0  0
  -24.6155  -31.8668   23.2101 C   0  0  0  0  0  0
  -25.9034  -32.4830   23.8425 C   0  0  1  0  0  0
  -27.2431  -27.4034   20.1257 C   0  0  0  0  0  0
  -25.5897  -33.8623   24.2352 N   0  0  0  0  0  0
  -23.4115  -30.4842   21.5477 C   0  0  2  0  0  0
  -24.8651  -28.9467   20.1197 C   0  0  0  0  0  0
  -22.7467  -29.4598   22.4985 C   0  0  0  0  0  0
  -18.0280  -28.1330   22.8444 C   0  0  0  0  0  0
  -24.1515  -36.7317   23.2641 C   0  0  0  0  0  0
  -25.9402  -30.8230   21.3703 C   0  0  0  0  0  0
  -26.0230  -29.4498   20.7300 C   0  0  0  0  0  0
  -27.2153  -28.6821   20.7398 C   0  0  0  0  0  0
  -26.0773  -26.9336   19.4910 C   0  0  0  0  0  0
  -24.8890  -27.6880   19.4958 C   0  0  0  0  0  0
  -23.6292  -29.8177   20.1629 C   0  0  0  0  0  0
  -25.4114  -36.3103   24.0352 C   0  0  1  0  0  0
  -20.5875  -28.3622   23.1294 C   0  0  2  0  0  0
  -20.6783  -26.9354   22.5406 C   0  0  0  0  0  0
  -19.5766  -26.6328   21.5184 C   0  0  0  0  0  0
  -18.1942  -26.7874   22.1568 C   0  0  0  0  0  0
  -19.1528  -28.8787   23.2853 C   0  0  0  0  0  0
  -18.9460  -30.1391   23.8861 C   0  0  0  0  0  0
  -17.6462  -30.6530   24.0524 C   0  0  0  0  0  0
  -25.9029  -34.9472   23.5145 C   0  0  0  0  0  0
  -16.5347  -29.9024   23.6310 C   0  0  0  0  0  0
  -16.7279  -28.6457   23.0311 C   0  0  0  0  0  0
  -26.4472  -31.6599   25.0740 C   0  0  0  0  0  0
  -25.3763  -31.3683   26.1521 C   0  0  0  0  0  0
  -27.0308  -30.3058   24.6050 C   0  0  0  0  0  0
  -27.6060  -32.4314   25.7496 C   0  0  0  0  0  0
  -27.5602  -37.1818   24.8464 C   0  0  0  0  0  0
  -21.4186  -29.3002   22.3733 N   0  0  0  0  0  0
  -26.4317  -37.3770   23.9412 N   0  0  0  0  0  0
  -24.6726  -31.0765   22.1006 N   0  0  0  0  0  0
  -23.4226  -28.8139   23.3028 O   0  0  0  0  0  0
  -28.3649  -26.5992   20.0677 O   0  0  0  0  0  0
  -26.5568  -34.8911   22.4692 O   0  0  0  0  0  0
  -23.5325  -32.1412   23.7475 O   0  0  0  0  0  0
  -28.5248  -20.3149   20.5580 C   0  0  0  0  0  0
  -28.7495  -18.9598   20.1921 C   0  0  0  0  0  0
  -29.9323  -18.2977   20.6380 C   0  0  0  0  0  0
  -30.7247  -19.0234   21.5731 C   0  0  0  0  0  0
  -29.4200  -20.9616   21.4269 C   0  0  0  0  0  0
  -27.6937  -18.2631   19.3514 C   0  0  0  0  0  0
  -31.9441  -18.4145   22.2443 C   0  0  0  0  0  0
  -30.4141  -16.9268   18.4882 C   0  0  0  0  0  0
  -27.0270  -24.5549   21.9766 C   0  0  0  0  0  0
  -29.1674  -23.4567   21.0654 C   0  0  0  0  0  0
  -28.9342  -26.1369   21.3080 C   0  0  0  0  0  0
  -30.4590  -16.9504   20.0355 C   0  0  2  0  0  0
  -28.5468  -24.6962   21.8047 C   0  0  1  0  0  0
  -30.4665  -20.3010   21.9539 N   0  0  0  0  0  0
  -29.2190  -22.2602   21.9332 N   0  0  0  0  0  0
  -29.9765  -15.6543   20.5870 N   0  0  0  0  0  0
  -31.4536  -12.3657   19.1558 H   0  0  0  0  0  0
  -30.2729  -11.3154   19.8846 H   0  0  0  0  0  0
  -29.7327  -11.7231   17.4627 H   0  0  0  0  0  0
  -29.6712  -13.4451   17.7488 H   0  0  0  0  0  0
  -27.8242  -11.2995   18.8440 H   0  0  0  0  0  0
  -27.3651  -12.6019   17.7848 H   0  0  0  0  0  0
  -27.6711  -14.2534   19.5240 H   0  0  0  0  0  0
  -28.6713  -12.0655   21.4119 H   0  0  0  0  0  0
  -28.4744  -13.7505   21.8197 H   0  0  0  0  0  0
  -25.2737   -9.5698   22.4767 H   0  0  0  0  0  0
  -23.9982   -7.4649   22.7489 H   0  0  0  0  0  0
  -21.0829   -8.8753   19.8953 H   0  0  0  0  0  0
  -22.3659  -10.9669   19.6164 H   0  0  0  0  0  0
  -21.2026   -7.6145   23.9702 H   0  0  0  0  0  0
  -21.1480   -6.0523   25.9068 H   0  0  0  0  0  0
  -22.0601   -2.7601   23.2854 H   0  0  0  0  0  0
  -22.4086  -11.9873   22.4786 H   0  0  0  0  0  0
  -21.1101  -13.1243   22.2616 H   0  0  0  0  0  0
  -24.6435  -15.8342   20.4879 H   0  0  0  0  0  0
  -26.2498  -15.6171   20.0158 H   0  0  0  0  0  0
  -26.7107  -32.5554   23.1207 H   0  0  0  0  0  0
  -25.0141  -33.9788   25.0552 H   0  0  0  0  0  0
  -22.6965  -31.2951   21.4052 H   0  0  0  0  0  0
  -23.3767  -35.9675   23.3295 H   0  0  0  0  0  0
  -24.3612  -36.8931   22.2065 H   0  0  0  0  0  0
  -23.7266  -37.6521   23.6642 H   0  0  0  0  0  0
  -26.0516  -31.5840   20.5973 H   0  0  0  0  0  0
  -26.8260  -30.8835   21.9907 H   0  0  0  0  0  0
  -28.1079  -29.0669   21.2126 H   0  0  0  0  0  0
  -26.0894  -25.9701   19.0030 H   0  0  0  0  0  0
  -24.0068  -27.2944   19.0110 H   0  0  0  0  0  0
  -23.7513  -30.5938   19.4058 H   0  0  0  0  0  0
  -22.7565  -29.2404   19.8561 H   0  0  0  0  0  0
  -25.1280  -36.2011   25.0844 H   0  0  0  0  0  0
  -20.9902  -28.3172   24.1434 H   0  0  0  0  0  0
  -20.5677  -26.2202   23.3575 H   0  0  0  0  0  0
  -21.6642  -26.7400   22.1189 H   0  0  0  0  0  0
  -19.6945  -25.6250   21.1195 H   0  0  0  0  0  0
  -19.6735  -27.3148   20.6723 H   0  0  0  0  0  0
  -17.4211  -26.6605   21.3961 H   0  0  0  0  0  0
  -18.0329  -26.0026   22.8967 H   0  0  0  0  0  0
  -19.7957  -30.7171   24.2246 H   0  0  0  0  0  0
  -17.5036  -31.6229   24.5104 H   0  0  0  0  0  0
  -15.5343  -30.2896   23.7666 H   0  0  0  0  0  0
  -15.8680  -28.0758   22.7023 H   0  0  0  0  0  0
  -24.5957  -30.6964   25.7904 H   0  0  0  0  0  0
  -24.8932  -32.2838   26.4974 H   0  0  0  0  0  0
  -25.8178  -30.8904   27.0278 H   0  0  0  0  0  0
  -26.2828  -29.6818   24.1139 H   0  0  0  0  0  0
  -27.4167  -29.7273   25.4450 H   0  0  0  0  0  0
  -27.8626  -30.4414   23.9123 H   0  0  0  0  0  0
  -27.2677  -33.3631   26.2030 H   0  0  0  0  0  0
  -28.3887  -32.6825   25.0321 H   0  0  0  0  0  0
  -28.0672  -31.8449   26.5461 H   0  0  0  0  0  0
  -28.2580  -38.0153   24.7492 H   0  0  0  0  0  0
  -28.1114  -36.2666   24.6283 H   0  0  0  0  0  0
  -27.2298  -37.1429   25.8857 H   0  0  0  0  0  0
  -20.9370  -29.8783   21.7001 H   0  0  0  0  0  0
  -26.0222  -38.2855   24.1417 H   0  0  0  0  0  0
  -27.6455  -20.8373   20.2022 H   0  0  0  0  0  0
  -26.6973  -18.6384   19.5900 H   0  0  0  0  0  0
  -27.6786  -17.1911   19.5447 H   0  0  0  0  0  0
  -27.8677  -18.4331   18.2894 H   0  0  0  0  0  0
  -32.8087  -18.4510   21.5824 H   0  0  0  0  0  0
  -31.7611  -17.3756   22.5194 H   0  0  0  0  0  0
  -32.1992  -18.9456   23.1617 H   0  0  0  0  0  0
  -30.8488  -17.8370   18.0717 H   0  0  0  0  0  0
  -29.4123  -16.8067   18.0842 H   0  0  0  0  0  0
  -30.9909  -16.0947   18.0837 H   0  0  0  0  0  0
  -26.7642  -23.6382   22.5032 H   0  0  0  0  0  0
  -26.5194  -24.5441   21.0130 H   0  0  0  0  0  0
  -26.6269  -25.3860   22.5569 H   0  0  0  0  0  0
  -30.1986  -23.6864   20.7898 H   0  0  0  0  0  0
  -28.6430  -23.2506   20.1319 H   0  0  0  0  0  0
  -30.0181  -26.1931   21.2048 H   0  0  0  0  0  0
  -28.6994  -26.8449   22.1042 H   0  0  0  0  0  0
  -31.5297  -16.9774   20.2319 H   0  0  0  0  0  0
  -28.9647  -24.6654   22.8123 H   0  0  0  0  0  0
  -29.8194  -22.4177   22.7349 H   0  0  0  0  0  0
  -28.9978  -15.5650   20.8074 H   0  0  0  0  0  0
  1 25  1  0  0  0
  1 30  2  0  0  0
  1 86  1  0  0  0
  2  3  1  0  0  0
  2 25  1  0  0  0
  2 87  1  0  0  0
  2 88  1  0  0  0
  3  4  1  0  0  0
  3 89  1  0  0  0
  3 90  1  0  0  0
  4  5  1  0  0  0
  4 91  1  0  0  0
  4 92  1  0  0  0
  5  6  1  0  0  0
  5 26  1  0  0  0
  5 93  1  0  0  0
  6 25  1  0  0  0
  6 94  1  0  0  0
  6 95  1  0  0  0
  7  8  2  0  0  0
  7 26  1  0  0  0
  7 29  1  0  0  0
  8  9  1  0  0  0
  8 22  1  0  0  0
  9 10  1  0  0  0
  9 27  2  0  0  0
 10 11  2  0  0  0
 10 15  1  0  0  0
 11 12  1  0  0  0
 11 96  1  0  0  0
 12 13  2  0  0  0
 12 97  1  0  0  0
 13 14  1  0  0  0
 13 31  1  0  0  0
 14 15  2  0  0  0
 14 98  1  0  0  0
 15 99  1  0  0  0
 16 17  2  0  0  0
 16 21  1  0  0  0
 16 31  1  0  0  0
 17 18  1  0  0  0
 17100  1  0  0  0
 18 19  2  0  0  0
 18101  1  0  0  0
 19 20  1  0  0  0
 19 24  1  0  0  0
 20 21  2  0  0  0
 20102  1  0  0  0
 21 23  1  0  0  0
 22 28  1  0  0  0
 22 32  2  0  0  0
 26 27  1  0  0  0
 28103  1  0  0  0
 28104  1  0  0  0
 29105  1  0  0  0
 29106  1  0  0  0
 33 34  1  0  0  0
 33 66  1  0  0  0
 33 70  2  0  0  0
 34 36  1  0  0  0
 34 59  1  0  0  0
 34107  1  0  0  0
 35 44  2  0  0  0
 35 45  1  0  0  0
 35 68  1  0  0  0
 36 56  1  0  0  0
 36108  1  0  0  0
 37 39  1  0  0  0
 37 47  1  0  0  0
 37 66  1  0  0  0
 37109  1  0  0  0
 38 43  2  0  0  0
 38 46  1  0  0  0
 38 47  1  0  0  0
 39 64  1  0  0  0
 39 67  2  0  0  0
 40 52  1  0  0  0
 40 53  2  0  0  0
 40 58  1  0  0  0
 41110  1  0  0  0
 41111  1  0  0  0
 41112  1  0  0  0
 41 48  1  0  0  0
 42 43  1  0  0  0
 42 66  1  0  0  0
 42113  1  0  0  0
 42114  1  0  0  0
 43 44  1  0  0  0
 44115  1  0  0  0
 45 46  2  0  0  0
 45116  1  0  0  0
 46117  1  0  0  0
 47118  1  0  0  0
 47119  1  0  0  0
 48 56  1  0  0  0
 48 65  1  0  0  0
 48120  1  0  0  0
 49 50  1  0  0  0
 49 53  1  0  0  0
 49 64  1  0  0  0
 49121  1  0  0  0
 50 51  1  0  0  0
 50122  1  0  0  0
 50123  1  0  0  0
 51 52  1  0  0  0
 51124  1  0  0  0
 51125  1  0  0  0
 52126  1  0  0  0
 52127  1  0  0  0
 53 54  1  0  0  0
 54 55  2  0  0  0
 54128  1  0  0  0
 55 57  1  0  0  0
 55129  1  0  0  0
 56 69  2  0  0  0
 57 58  2  0  0  0
 57130  1  0  0  0
 58131  1  0  0  0
 59 60  1  0  0  0
 59 61  1  0  0  0
 59 62  1  0  0  0
 60132  1  0  0  0
 60133  1  0  0  0
 60134  1  0  0  0
 61135  1  0  0  0
 61136  1  0  0  0
 61137  1  0  0  0
 62138  1  0  0  0
 62139  1  0  0  0
 62140  1  0  0  0
 63 65  1  0  0  0
 63141  1  0  0  0
 63142  1  0  0  0
 63143  1  0  0  0
 64144  1  0  0  0
 65145  1  0  0  0
 68 81  1  0  0  0
 71 72  2  0  0  0
 71 75  1  0  0  0
 71146  1  0  0  0
 72 73  1  0  0  0
 72 76  1  0  0  0
 73 74  2  0  0  0
 73 82  1  0  0  0
 74 77  1  0  0  0
 74 84  1  0  0  0
 75 84  2  0  0  0
 75 85  1  0  0  0
 76147  1  0  0  0
 76148  1  0  0  0
 76149  1  0  0  0
 77150  1  0  0  0
 77151  1  0  0  0
 77152  1  0  0  0
 78153  1  0  0  0
 78154  1  0  0  0
 78155  1  0  0  0
 78 82  1  0  0  0
 79156  1  0  0  0
 79157  1  0  0  0
 79158  1  0  0  0
 79 83  1  0  0  0
 80 83  1  0  0  0
 80 85  1  0  0  0
 80159  1  0  0  0
 80160  1  0  0  0
 81 83  1  0  0  0
 81161  1  0  0  0
 81162  1  0  0  0
 82 86  1  0  0  0
 82163  1  0  0  0
 83164  1  0  0  0
 85165  1  0  0  0
 86166  1  0  0  0
M  ISO  4   1 100  68 101  81 101  86 100
M  END
> <chiral flag>
0

> <version>
0

> <s_m_source_file>
/data/baiqing/PycharmProjects/Reinvent-master-3.2/result/LINK_invent/BTK/process_docking_weight1_custom_sum_contain_oxygen_bond_distance_aromatic_linkinvent_7_9_3/rearranged_h_0143.sdf

> <i_m_source_file_index>
17

> <r_mmod_Potential_Energy-OPLS-2005>
-166.722244262695

> <r_mmod_Stretch_Energy-OPLS-2005>
50.3126106262207

> <r_mmod_Bend_Energy-OPLS-2005>
133.344268798828

> <r_mmod_Torsional_Energy-OPLS-2005>
261.29248046875

> <r_mmod_Improper_Torsional_Energy-OPLS-2005>
14.4479360580444

> <r_mmod_Van_der_Waal_Energy-OPLS-2005>
146.343048095703

> <r_mmod_Electrostatic_Energy-OPLS-2005>
-575.660705566406

> <r_mmod_Solvation_Energy-OPLS-2005>
-221.676040649414

> <b_mmod_Minimization_Converged-OPLS-2005>
0

> <r_mmod_RMS_Derivative-OPLS-2005>
3.55372142791748

$$$$
17
                    3D
 Structure written by MMmdl.
164173  0  0  1  0            999 V2000
  -30.7337  -14.6016   20.4018 C   0  0  0  0  0  0
  -30.4069  -12.3575   19.4570 C   0  0  0  0  0  0
  -29.4927  -12.4485   18.2191 C   0  0  0  0  0  0
  -28.0211  -12.3024   18.6438 C   0  0  0  0  0  0
  -27.6391  -13.2321   19.8285 C   0  0  2  0  0  0
  -28.6887  -13.1987   20.9613 C   0  0  0  0  0  0
  -25.2498  -13.8198   20.5656 C   0  0  0  0  0  0
  -24.1803  -13.0455   20.9198 C   0  0  0  0  0  0
  -24.6381  -11.6921   20.8706 C   0  0  0  0  0  0
  -23.9072  -10.4319   21.0374 C   0  0  0  0  0  0
  -24.3621   -9.4235   21.9163 C   0  0  0  0  0  0
  -23.6267   -8.2300   22.0784 C   0  0  0  0  0  0
  -22.4265   -8.0289   21.3570 C   0  0  0  0  0  0
  -21.9916   -9.0268   20.4639 C   0  0  0  0  0  0
  -22.7229  -10.2163   20.3036 C   0  0  0  0  0  0
  -21.6860   -6.0718   22.5301 C   0  0  0  0  0  0
  -21.4019   -6.5615   23.8234 C   0  0  0  0  0  0
  -21.3667   -5.6787   24.9219 C   0  0  0  0  0  0
  -21.6057   -4.3055   24.7276 C   0  0  0  0  0  0
  -21.8803   -3.8120   23.4396 C   0  0  0  0  0  0
  -21.9189   -4.6943   22.3437 C   0  0  0  0  0  0
  -22.7827  -13.5220   21.1909 C   0  0  0  0  0  0
  -22.1646   -4.2089   21.1029 F   0  0  0  0  0  0
  -21.5674   -3.4544   25.7789 F   0  0  0  0  0  0
  -30.0060  -13.4470   20.3640 N   0  0  0  0  0  0
  -26.2936  -12.9425   20.3198 N   0  0  0  0  0  0
  -25.9319  -11.6557   20.5692 N   0  0  0  0  0  0
  -22.0443  -12.8162   22.0402 N   0  0  0  0  0  0
  -25.4190  -15.1898   20.4038 N   0  0  0  0  0  0
  -31.9504  -14.5840   20.2244 O   0  0  0  0  0  0
  -21.6612   -6.8863   21.4277 O   0  0  0  0  0  0
  -22.3537  -14.5579   20.6802 O   0  0  0  0  0  0
  -24.6200  -31.8618   23.2104 C   0  0  0  0  0  0
  -25.9063  -32.4804   23.8405 C   0  0  1  0  0  0
  -27.2098  -27.3675   20.1175 C   0  0  0  0  0  0
  -25.5879  -33.8602   24.2307 N   0  0  0  0  0  0
  -23.4088  -30.4893   21.5526 C   0  0  2  0  0  0
  -24.8538  -28.9520   20.1106 C   0  0  0  0  0  0
  -22.7443  -29.4621   22.4998 C   0  0  0  0  0  0
  -18.0287  -28.1381   22.8500 C   0  0  0  0  0  0
  -24.1506  -36.7332   23.2649 C   0  0  0  0  0  0
  -25.9484  -30.8084   21.3747 C   0  0  0  0  0  0
  -26.0208  -29.4417   20.7125 C   0  0  0  0  0  0
  -27.2054  -28.6607   20.7048 C   0  0  0  0  0  0
  -26.0298  -26.9181   19.4875 C   0  0  0  0  0  0
  -24.8552  -27.6900   19.4940 C   0  0  0  0  0  0
  -23.6190  -29.8258   20.1668 C   0  0  0  0  0  0
  -25.4121  -36.3099   24.0336 C   0  0  1  0  0  0
  -20.5877  -28.3662   23.1337 C   0  0  2  0  0  0
  -20.6779  -26.9398   22.5428 C   0  0  0  0  0  0
  -19.5751  -26.6381   21.5228 C   0  0  0  0  0  0
  -18.1926  -26.7929   22.1633 C   0  0  0  0  0  0
  -19.1538  -28.8844   23.2904 C   0  0  0  0  0  0
  -18.9454  -30.1466   23.8888 C   0  0  0  0  0  0
  -17.6448  -30.6585   24.0565 C   0  0  0  0  0  0
  -25.9038  -34.9461   23.5114 C   0  0  0  0  0  0
  -16.5342  -29.9072   23.6332 C   0  0  0  0  0  0
  -16.7266  -28.6493   23.0333 C   0  0  0  0  0  0
  -26.4482  -31.6601   25.0758 C   0  0  0  0  0  0
  -25.3734  -31.3726   26.1503 C   0  0  0  0  0  0
  -27.0351  -30.3032   24.6199 C   0  0  0  0  0  0
  -27.6031  -32.4387   25.7493 C   0  0  0  0  0  0
  -27.5576  -37.1823   24.8455 C   0  0  0  0  0  0
  -21.4174  -29.2995   22.3731 N   0  0  0  0  0  0
  -26.4290  -37.3775   23.9395 N   0  0  0  0  0  0
  -24.6781  -31.0702   22.1010 N   0  0  0  0  0  0
  -23.4186  -28.8137   23.3044 O   0  0  0  0  0  0
  -28.3262  -26.5405   20.1508 O   0  0  0  0  0  0
  -26.5638  -34.8909   22.4713 O   0  0  0  0  0  0
  -23.5390  -32.1370   23.7483 O   0  0  0  0  0  0
  -26.1036  -21.5512   19.3568 C   0  0  0  0  0  0
  -27.0728  -20.6721   19.8961 C   0  0  0  0  0  0
  -26.6513  -22.7964   19.3492 C   0  0  0  0  0  0
  -28.2142  -21.3802   20.1700 C   0  0  0  0  0  0
  -29.7462  -17.3507   17.4495 C   0  0  0  0  0  0
  -29.0657  -18.2802   18.4655 C   0  0  0  0  0  0
  -30.9816  -16.7683   18.1542 C   0  0  0  0  0  0
  -30.0723  -18.4085   19.6056 C   0  0  2  0  0  0
  -30.7664  -16.9970   19.6694 C   0  0  2  0  0  0
  -29.5192  -20.7994   20.6983 C   0  0  0  0  0  0
  -29.6260  -19.2223   20.8623 C   0  0  0  0  0  0
  -28.7725  -23.9731   19.9746 C   0  0  0  0  0  0
  -28.1075  -25.2015   20.7097 C   0  0  0  0  0  0
  -27.9337  -22.7457   19.8828 N   0  0  0  0  0  0
  -30.0815  -15.7948   20.2646 N   0  0  0  0  0  0
  -31.4507  -12.4264   19.1467 H   0  0  0  0  0  0
  -30.2982  -11.3958   19.9631 H   0  0  0  0  0  0
  -29.7556  -11.6762   17.4963 H   0  0  0  0  0  0
  -29.6398  -13.4032   17.7140 H   0  0  0  0  0  0
  -27.8716  -11.2631   18.9388 H   0  0  0  0  0  0
  -27.3552  -12.4713   17.7956 H   0  0  0  0  0  0
  -27.6310  -14.2425   19.4144 H   0  0  0  0  0  0
  -28.6780  -12.2398   21.4810 H   0  0  0  0  0  0
  -28.4578  -13.9632   21.7054 H   0  0  0  0  0  0
  -25.2814   -9.5682   22.4695 H   0  0  0  0  0  0
  -23.9952   -7.4679   22.7517 H   0  0  0  0  0  0
  -21.0860   -8.8787   19.8912 H   0  0  0  0  0  0
  -22.3724  -10.9682   19.6105 H   0  0  0  0  0  0
  -21.1990   -7.6128   23.9720 H   0  0  0  0  0  0
  -21.1513   -6.0540   25.9124 H   0  0  0  0  0  0
  -22.0570   -2.7548   23.2955 H   0  0  0  0  0  0
  -22.3952  -11.9650   22.4557 H   0  0  0  0  0  0
  -21.1082  -13.1217   22.2674 H   0  0  0  0  0  0
  -24.6475  -15.8417   20.4870 H   0  0  0  0  0  0
  -26.2744  -15.6275   20.0861 H   0  0  0  0  0  0
  -26.7118  -32.5477   23.1148 H   0  0  0  0  0  0
  -24.9939  -33.9758   25.0389 H   0  0  0  0  0  0
  -22.6979  -31.3102   21.4208 H   0  0  0  0  0  0
  -23.3750  -35.9672   23.3295 H   0  0  0  0  0  0
  -24.3584  -36.8968   22.2054 H   0  0  0  0  0  0
  -23.7264  -37.6537   23.6676 H   0  0  0  0  0  0
  -26.0864  -31.5804   20.6164 H   0  0  0  0  0  0
  -26.8276  -30.8487   22.0071 H   0  0  0  0  0  0
  -28.1021  -29.0300   21.1768 H   0  0  0  0  0  0
  -26.0125  -25.9576   18.9937 H   0  0  0  0  0  0
  -23.9553  -27.3131   19.0264 H   0  0  0  0  0  0
  -23.7281  -30.6065   19.4148 H   0  0  0  0  0  0
  -22.7399  -29.2552   19.8667 H   0  0  0  0  0  0
  -25.1308  -36.1942   25.0819 H   0  0  0  0  0  0
  -20.9974  -28.3224   24.1469 H   0  0  0  0  0  0
  -20.5723  -26.2260   23.3610 H   0  0  0  0  0  0
  -21.6644  -26.7449   22.1209 H   0  0  0  0  0  0
  -19.6912  -25.6296   21.1257 H   0  0  0  0  0  0
  -19.6710  -27.3206   20.6779 H   0  0  0  0  0  0
  -17.4211  -26.6685   21.4030 H   0  0  0  0  0  0
  -18.0307  -26.0070   22.9032 H   0  0  0  0  0  0
  -19.7921  -30.7304   24.2219 H   0  0  0  0  0  0
  -17.4983  -31.6259   24.5186 H   0  0  0  0  0  0
  -15.5334  -30.2951   23.7678 H   0  0  0  0  0  0
  -15.8661  -28.0820   22.7015 H   0  0  0  0  0  0
  -24.5826  -30.7168   25.7839 H   0  0  0  0  0  0
  -24.9045  -32.2906   26.5045 H   0  0  0  0  0  0
  -25.8084  -30.8773   27.0191 H   0  0  0  0  0  0
  -26.2911  -29.6756   24.1269 H   0  0  0  0  0  0
  -27.4119  -29.7301   25.4685 H   0  0  0  0  0  0
  -27.8745  -30.4379   23.9375 H   0  0  0  0  0  0
  -27.2564  -33.3637   26.2120 H   0  0  0  0  0  0
  -28.3754  -32.7065   25.0267 H   0  0  0  0  0  0
  -28.0785  -31.8507   26.5337 H   0  0  0  0  0  0
  -28.2618  -38.0111   24.7475 H   0  0  0  0  0  0
  -28.1071  -36.2635   24.6322 H   0  0  0  0  0  0
  -27.2305  -37.1507   25.8870 H   0  0  0  0  0  0
  -20.9324  -29.8680   21.6922 H   0  0  0  0  0  0
  -26.0196  -38.2869   24.1340 H   0  0  0  0  0  0
  -25.1120  -21.2958   19.0049 H   0  0  0  0  0  0
  -26.9509  -19.6091   20.0434 H   0  0  0  0  0  0
  -26.2293  -23.7257   18.9973 H   0  0  0  0  0  0
  -30.0432  -17.8981   16.5533 H   0  0  0  0  0  0
  -29.0668  -16.5586   17.1366 H   0  0  0  0  0  0
  -28.1354  -17.8349   18.8146 H   0  0  0  0  0  0
  -28.8298  -19.2476   18.0271 H   0  0  0  0  0  0
  -31.8595  -17.3349   17.8327 H   0  0  0  0  0  0
  -31.1739  -15.7346   17.8636 H   0  0  0  0  0  0
  -30.8608  -19.0442   19.1962 H   0  0  0  0  0  0
  -31.7354  -17.1076   20.1618 H   0  0  0  0  0  0
  -30.3495  -21.1574   20.0894 H   0  0  0  0  0  0
  -29.6820  -21.2379   21.6838 H   0  0  0  0  0  0
  -30.4129  -19.0613   21.6000 H   0  0  0  0  0  0
  -28.7319  -18.7993   21.3178 H   0  0  0  0  0  0
  -29.7246  -23.7264   20.4438 H   0  0  0  0  0  0
  -29.0045  -24.2755   18.9533 H   0  0  0  0  0  0
  -28.5057  -25.2239   21.7239 H   0  0  0  0  0  0
  -27.0456  -25.0103   20.8674 H   0  0  0  0  0  0
  -29.0759  -15.8036   20.3223 H   0  0  0  0  0  0
  1 25  1  0  0  0
  1 30  2  0  0  0
  1 85  1  0  0  0
  2  3  1  0  0  0
  2 25  1  0  0  0
  2 86  1  0  0  0
  2 87  1  0  0  0
  3  4  1  0  0  0
  3 88  1  0  0  0
  3 89  1  0  0  0
  4  5  1  0  0  0
  4 90  1  0  0  0
  4 91  1  0  0  0
  5  6  1  0  0  0
  5 26  1  0  0  0
  5 92  1  0  0  0
  6 25  1  0  0  0
  6 93  1  0  0  0
  6 94  1  0  0  0
  7  8  2  0  0  0
  7 26  1  0  0  0
  7 29  1  0  0  0
  8  9  1  0  0  0
  8 22  1  0  0  0
  9 10  1  0  0  0
  9 27  2  0  0  0
 10 11  2  0  0  0
 10 15  1  0  0  0
 11 12  1  0  0  0
 11 95  1  0  0  0
 12 13  2  0  0  0
 12 96  1  0  0  0
 13 14  1  0  0  0
 13 31  1  0  0  0
 14 15  2  0  0  0
 14 97  1  0  0  0
 15 98  1  0  0  0
 16 17  2  0  0  0
 16 21  1  0  0  0
 16 31  1  0  0  0
 17 18  1  0  0  0
 17 99  1  0  0  0
 18 19  2  0  0  0
 18100  1  0  0  0
 19 20  1  0  0  0
 19 24  1  0  0  0
 20 21  2  0  0  0
 20101  1  0  0  0
 21 23  1  0  0  0
 22 28  1  0  0  0
 22 32  2  0  0  0
 26 27  1  0  0  0
 28102  1  0  0  0
 28103  1  0  0  0
 29104  1  0  0  0
 29105  1  0  0  0
 33 34  1  0  0  0
 33 66  1  0  0  0
 33 70  2  0  0  0
 34 36  1  0  0  0
 34 59  1  0  0  0
 34106  1  0  0  0
 35 44  2  0  0  0
 35 45  1  0  0  0
 35 68  1  0  0  0
 36 56  1  0  0  0
 36107  1  0  0  0
 37 39  1  0  0  0
 37 47  1  0  0  0
 37 66  1  0  0  0
 37108  1  0  0  0
 38 43  2  0  0  0
 38 46  1  0  0  0
 38 47  1  0  0  0
 39 64  1  0  0  0
 39 67  2  0  0  0
 40 52  1  0  0  0
 40 53  2  0  0  0
 40 58  1  0  0  0
 41109  1  0  0  0
 41110  1  0  0  0
 41111  1  0  0  0
 41 48  1  0  0  0
 42 43  1  0  0  0
 42 66  1  0  0  0
 42112  1  0  0  0
 42113  1  0  0  0
 43 44  1  0  0  0
 44114  1  0  0  0
 45 46  2  0  0  0
 45115  1  0  0  0
 46116  1  0  0  0
 47117  1  0  0  0
 47118  1  0  0  0
 48 56  1  0  0  0
 48 65  1  0  0  0
 48119  1  0  0  0
 49 50  1  0  0  0
 49 53  1  0  0  0
 49 64  1  0  0  0
 49120  1  0  0  0
 50 51  1  0  0  0
 50121  1  0  0  0
 50122  1  0  0  0
 51 52  1  0  0  0
 51123  1  0  0  0
 51124  1  0  0  0
 52125  1  0  0  0
 52126  1  0  0  0
 53 54  1  0  0  0
 54 55  2  0  0  0
 54127  1  0  0  0
 55 57  1  0  0  0
 55128  1  0  0  0
 56 69  2  0  0  0
 57 58  2  0  0  0
 57129  1  0  0  0
 58130  1  0  0  0
 59 60  1  0  0  0
 59 61  1  0  0  0
 59 62  1  0  0  0
 60131  1  0  0  0
 60132  1  0  0  0
 60133  1  0  0  0
 61134  1  0  0  0
 61135  1  0  0  0
 61136  1  0  0  0
 62137  1  0  0  0
 62138  1  0  0  0
 62139  1  0  0  0
 63 65  1  0  0  0
 63140  1  0  0  0
 63141  1  0  0  0
 63142  1  0  0  0
 64143  1  0  0  0
 65144  1  0  0  0
 68 83  1  0  0  0
 71 72  1  0  0  0
 71 73  2  0  0  0
 71145  1  0  0  0
 72 74  2  0  0  0
 72146  1  0  0  0
 73 84  1  0  0  0
 73147  1  0  0  0
 74 80  1  0  0  0
 74 84  1  0  0  0
 75 76  1  0  0  0
 75 77  1  0  0  0
 75148  1  0  0  0
 75149  1  0  0  0
 76 78  1  0  0  0
 76150  1  0  0  0
 76151  1  0  0  0
 77 79  1  0  0  0
 77152  1  0  0  0
 77153  1  0  0  0
 78 79  1  0  0  0
 78 81  1  0  0  0
 78154  1  0  0  0
 79 85  1  0  0  0
 79155  1  0  0  0
 80 81  1  0  0  0
 80156  1  0  0  0
 80157  1  0  0  0
 81158  1  0  0  0
 81159  1  0  0  0
 82 83  1  0  0  0
 82 84  1  0  0  0
 82160  1  0  0  0
 82161  1  0  0  0
 83162  1  0  0  0
 83163  1  0  0  0
 85164  1  0  0  0
M  ISO  4   1 100  68 101  83 101  85 100
M  END
> <chiral flag>
0

> <version>
0

> <s_m_source_file>
/data/baiqing/PycharmProjects/Reinvent-master-3.2/result/LINK_invent/BTK/process_docking_weight1_custom_sum_contain_oxygen_bond_distance_aromatic_linkinvent_7_9_3/rearranged_h_0143.sdf

> <i_m_source_file_index>
18

> <r_mmod_Potential_Energy-OPLS-2005>
142.956451416016

> <r_mmod_Stretch_Energy-OPLS-2005>
62.1308631896973

> <r_mmod_Bend_Energy-OPLS-2005>
181.523803710938

> <r_mmod_Torsional_Energy-OPLS-2005>
301.108673095703

> <r_mmod_Improper_Torsional_Energy-OPLS-2005>
10.6773414611816

> <r_mmod_Van_der_Waal_Energy-OPLS-2005>
119.406478881836

> <r_mmod_Electrostatic_Energy-OPLS-2005>
-383.365203857422

> <r_mmod_Solvation_Energy-OPLS-2005>
-202.201446533203

> <b_mmod_Minimization_Converged-OPLS-2005>
0

> <r_mmod_RMS_Derivative-OPLS-2005>
5.40596961975098

$$$$
18
                    3D
 Structure written by MMmdl.
163172  0  0  1  0            999 V2000
  -30.6171  -14.6617   20.4835 C   0  0  0  0  0  0
  -30.4395  -12.4009   19.4561 C   0  0  0  0  0  0
  -29.5093  -12.5028   18.2259 C   0  0  0  0  0  0
  -28.0319  -12.3406   18.6375 C   0  0  0  0  0  0
  -27.6517  -13.2175   19.8599 C   0  0  2  0  0  0
  -28.6972  -13.0850   20.9908 C   0  0  0  0  0  0
  -25.2562  -13.8174   20.5685 C   0  0  0  0  0  0
  -24.1835  -13.0439   20.9202 C   0  0  0  0  0  0
  -24.6400  -11.6911   20.8744 C   0  0  0  0  0  0
  -23.9066  -10.4293   21.0407 C   0  0  0  0  0  0
  -24.3619   -9.4208   21.9184 C   0  0  0  0  0  0
  -23.6295   -8.2242   22.0754 C   0  0  0  0  0  0
  -22.4275   -8.0282   21.3543 C   0  0  0  0  0  0
  -21.9912   -9.0256   20.4643 C   0  0  0  0  0  0
  -22.7241  -10.2134   20.3055 C   0  0  0  0  0  0
  -21.6852   -6.0738   22.5279 C   0  0  0  0  0  0
  -21.4011   -6.5641   23.8214 C   0  0  0  0  0  0
  -21.3659   -5.6793   24.9177 C   0  0  0  0  0  0
  -21.6044   -4.3055   24.7224 C   0  0  0  0  0  0
  -21.8820   -3.8149   23.4345 C   0  0  0  0  0  0
  -21.9192   -4.6965   22.3402 C   0  0  0  0  0  0
  -22.7858  -13.5233   21.1862 C   0  0  0  0  0  0
  -22.1663   -4.2153   21.0978 F   0  0  0  0  0  0
  -21.5628   -3.4537   25.7737 F   0  0  0  0  0  0
  -30.0118  -13.4298   20.4266 N   0  0  0  0  0  0
  -26.2982  -12.9353   20.3298 N   0  0  0  0  0  0
  -25.9325  -11.6507   20.5750 N   0  0  0  0  0  0
  -22.0489  -12.8222   22.0409 N   0  0  0  0  0  0
  -25.4266  -15.1896   20.4090 N   0  0  0  0  0  0
  -31.7886  -14.8007   20.1153 O   0  0  0  0  0  0
  -21.6641   -6.8880   21.4242 O   0  0  0  0  0  0
  -22.3545  -14.5539   20.6709 O   0  0  0  0  0  0
  -24.6278  -31.8595   23.2013 C   0  0  0  0  0  0
  -25.9122  -32.4775   23.8344 C   0  0  1  0  0  0
  -27.2254  -27.3122   20.1141 C   0  0  0  0  0  0
  -25.5935  -33.8575   24.2276 N   0  0  0  0  0  0
  -23.4216  -30.4846   21.5437 C   0  0  2  0  0  0
  -24.8667  -28.9379   20.1121 C   0  0  0  0  0  0
  -22.7476  -29.4646   22.4924 C   0  0  0  0  0  0
  -18.0293  -28.1396   22.8496 C   0  0  0  0  0  0
  -24.1489  -36.7283   23.2638 C   0  0  0  0  0  0
  -25.9631  -30.7892   21.3720 C   0  0  0  0  0  0
  -26.0376  -29.4158   20.7137 C   0  0  0  0  0  0
  -27.2198  -28.6163   20.7022 C   0  0  0  0  0  0
  -26.0262  -26.8864   19.4965 C   0  0  0  0  0  0
  -24.8634  -27.6785   19.4948 C   0  0  0  0  0  0
  -23.6360  -29.8193   20.1595 C   0  0  0  0  0  0
  -25.4115  -36.3078   24.0331 C   0  0  1  0  0  0
  -20.5895  -28.3709   23.1276 C   0  0  2  0  0  0
  -20.6791  -26.9434   22.5405 C   0  0  0  0  0  0
  -19.5763  -26.6395   21.5214 C   0  0  0  0  0  0
  -18.1941  -26.7944   22.1624 C   0  0  0  0  0  0
  -19.1545  -28.8867   23.2888 C   0  0  0  0  0  0
  -18.9469  -30.1464   23.8913 C   0  0  0  0  0  0
  -17.6469  -30.6602   24.0571 C   0  0  0  0  0  0
  -25.9056  -34.9451   23.5101 C   0  0  0  0  0  0
  -16.5360  -29.9106   23.6330 C   0  0  0  0  0  0
  -16.7278  -28.6516   23.0362 C   0  0  0  0  0  0
  -26.4505  -31.6584   25.0714 C   0  0  0  0  0  0
  -25.3733  -31.3728   26.1430 C   0  0  0  0  0  0
  -27.0349  -30.3008   24.6170 C   0  0  0  0  0  0
  -27.6065  -32.4317   25.7488 C   0  0  0  0  0  0
  -27.5584  -37.1794   24.8465 C   0  0  0  0  0  0
  -21.4188  -29.3060   22.3657 N   0  0  0  0  0  0
  -26.4290  -37.3776   23.9419 N   0  0  0  0  0  0
  -24.6898  -31.0611   22.0957 N   0  0  0  0  0  0
  -23.4194  -28.8187   23.3010 O   0  0  0  0  0  0
  -28.3499  -26.4682   20.1505 O   0  0  0  0  0  0
  -26.5620  -34.8922   22.4665 O   0  0  0  0  0  0
  -23.5440  -32.1389   23.7345 O   0  0  0  0  0  0
  -28.6849  -17.9119   20.8587 C   0  0  0  0  0  0
  -29.7216  -20.0368   20.1125 C   0  0  0  0  0  0
  -28.5960  -19.3203   20.6190 C   0  0  0  0  0  0
  -30.8789  -19.2092   19.9106 C   0  0  0  0  0  0
  -29.8596  -17.1610   20.5918 C   0  0  0  0  0  0
  -29.6892  -21.5281   19.6586 C   0  0  0  0  0  0
  -31.8410  -24.2526   21.2182 C   0  0  0  0  0  0
  -31.3663  -25.6610   20.9324 C   0  0  0  0  0  0
  -30.3658  -24.5778   21.2643 C   0  0  0  0  0  0
  -27.2651  -20.0091   20.8771 C   0  0  0  0  0  0
  -32.1982  -19.7744   19.4045 C   0  0  0  0  0  0
  -28.1511  -24.9968   20.0525 C   0  0  0  0  0  0
  -29.4114  -24.0318   20.2155 C   0  0  2  0  0  0
  -30.9336  -17.8556   20.1379 N   0  0  0  0  0  0
  -29.7980  -15.7144   20.8155 N   0  0  0  0  0  0
  -29.1570  -22.5460   20.4091 N   0  0  0  0  0  0
  -30.2134  -21.7987   18.5782 O   0  0  0  0  0  0
  -31.4801  -12.5264   19.1524 H   0  0  0  0  0  0
  -30.3783  -11.4081   19.9046 H   0  0  0  0  0  0
  -29.7752  -11.7435   17.4891 H   0  0  0  0  0  0
  -29.6505  -13.4667   17.7346 H   0  0  0  0  0  0
  -27.8704  -11.2885   18.8748 H   0  0  0  0  0  0
  -27.3774  -12.5632   17.7938 H   0  0  0  0  0  0
  -27.6650  -14.2500   19.5105 H   0  0  0  0  0  0
  -28.7122  -12.0660   21.3810 H   0  0  0  0  0  0
  -28.4402  -13.7224   21.8382 H   0  0  0  0  0  0
  -25.2762   -9.5686   22.4758 H   0  0  0  0  0  0
  -24.0005   -7.4632   22.7471 H   0  0  0  0  0  0
  -21.0843   -8.8770   19.8947 H   0  0  0  0  0  0
  -22.3698  -10.9672   19.6163 H   0  0  0  0  0  0
  -21.2002   -7.6150   23.9718 H   0  0  0  0  0  0
  -21.1480   -6.0522   25.9079 H   0  0  0  0  0  0
  -22.0599   -2.7612   23.2841 H   0  0  0  0  0  0
  -22.4099  -11.9881   22.4798 H   0  0  0  0  0  0
  -21.1106  -13.1250   22.2604 H   0  0  0  0  0  0
  -24.6515  -15.8362   20.5083 H   0  0  0  0  0  0
  -26.2550  -15.6241   20.0242 H   0  0  0  0  0  0
  -26.7191  -32.5443   23.1095 H   0  0  0  0  0  0
  -25.0102  -33.9715   25.0435 H   0  0  0  0  0  0
  -22.7173  -31.3070   21.4006 H   0  0  0  0  0  0
  -23.3760  -35.9605   23.3287 H   0  0  0  0  0  0
  -24.3588  -36.8911   22.2055 H   0  0  0  0  0  0
  -23.7225  -37.6476   23.6662 H   0  0  0  0  0  0
  -26.0963  -31.5536   20.6053 H   0  0  0  0  0  0
  -26.8429  -30.8370   22.0019 H   0  0  0  0  0  0
  -28.1194  -28.9825   21.1773 H   0  0  0  0  0  0
  -25.9528  -25.9269   19.0092 H   0  0  0  0  0  0
  -23.9663  -27.3058   19.0195 H   0  0  0  0  0  0
  -23.7569  -30.5953   19.4025 H   0  0  0  0  0  0
  -22.7555  -29.2497   19.8564 H   0  0  0  0  0  0
  -25.1298  -36.1922   25.0823 H   0  0  0  0  0  0
  -21.0000  -28.3290   24.1391 H   0  0  0  0  0  0
  -20.5711  -26.2323   23.3606 H   0  0  0  0  0  0
  -21.6657  -26.7482   22.1183 H   0  0  0  0  0  0
  -19.6933  -25.6305   21.1247 H   0  0  0  0  0  0
  -19.6698  -27.3206   20.6743 H   0  0  0  0  0  0
  -17.4215  -26.6696   21.4021 H   0  0  0  0  0  0
  -18.0343  -26.0088   22.9019 H   0  0  0  0  0  0
  -19.7944  -30.7274   24.2292 H   0  0  0  0  0  0
  -17.5028  -31.6283   24.5172 H   0  0  0  0  0  0
  -15.5362  -30.3017   23.7645 H   0  0  0  0  0  0
  -15.8675  -28.0831   22.7084 H   0  0  0  0  0  0
  -24.5920  -30.7068   25.7750 H   0  0  0  0  0  0
  -24.8910  -32.2895   26.4832 H   0  0  0  0  0  0
  -25.8046  -30.8916   27.0216 H   0  0  0  0  0  0
  -26.2921  -29.6752   24.1204 H   0  0  0  0  0  0
  -27.4062  -29.7272   25.4674 H   0  0  0  0  0  0
  -27.8786  -30.4298   23.9387 H   0  0  0  0  0  0
  -27.2684  -33.3629   26.2048 H   0  0  0  0  0  0
  -28.3885  -32.6852   25.0317 H   0  0  0  0  0  0
  -28.0720  -31.8446   26.5415 H   0  0  0  0  0  0
  -28.2581  -38.0111   24.7540 H   0  0  0  0  0  0
  -28.1098  -36.2643   24.6252 H   0  0  0  0  0  0
  -27.2309  -37.1392   25.8868 H   0  0  0  0  0  0
  -20.9365  -29.8764   21.6849 H   0  0  0  0  0  0
  -26.0167  -38.2846   24.1433 H   0  0  0  0  0  0
  -27.8105  -17.3940   21.2304 H   0  0  0  0  0  0
  -32.3448  -24.0701   22.1657 H   0  0  0  0  0  0
  -32.2055  -23.6642   20.3777 H   0  0  0  0  0  0
  -31.4115  -26.0099   19.9020 H   0  0  0  0  0  0
  -31.5508  -26.4223   21.6879 H   0  0  0  0  0  0
  -29.9278  -24.6307   22.2597 H   0  0  0  0  0  0
  -26.4803  -19.2859   21.1002 H   0  0  0  0  0  0
  -26.9432  -20.5796   20.0057 H   0  0  0  0  0  0
  -27.3412  -20.6846   21.7288 H   0  0  0  0  0  0
  -32.4567  -20.6938   19.9299 H   0  0  0  0  0  0
  -32.1374  -19.9894   18.3376 H   0  0  0  0  0  0
  -33.0211  -19.0741   19.5525 H   0  0  0  0  0  0
  -27.4130  -24.7200   20.8066 H   0  0  0  0  0  0
  -27.7112  -24.7578   19.0846 H   0  0  0  0  0  0
  -29.9431  -24.1415   19.2691 H   0  0  0  0  0  0
  -28.9041  -15.3989   21.1531 H   0  0  0  0  0  0
  -28.7089  -22.2865   21.2762 H   0  0  0  0  0  0
  1 25  1  0  0  0
  1 30  2  0  0  0
  1 85  1  0  0  0
  2  3  1  0  0  0
  2 25  1  0  0  0
  2 88  1  0  0  0
  2 89  1  0  0  0
  3  4  1  0  0  0
  3 90  1  0  0  0
  3 91  1  0  0  0
  4  5  1  0  0  0
  4 92  1  0  0  0
  4 93  1  0  0  0
  5  6  1  0  0  0
  5 26  1  0  0  0
  5 94  1  0  0  0
  6 25  1  0  0  0
  6 95  1  0  0  0
  6 96  1  0  0  0
  7  8  2  0  0  0
  7 26  1  0  0  0
  7 29  1  0  0  0
  8  9  1  0  0  0
  8 22  1  0  0  0
  9 10  1  0  0  0
  9 27  2  0  0  0
 10 11  2  0  0  0
 10 15  1  0  0  0
 11 12  1  0  0  0
 11 97  1  0  0  0
 12 13  2  0  0  0
 12 98  1  0  0  0
 13 14  1  0  0  0
 13 31  1  0  0  0
 14 15  2  0  0  0
 14 99  1  0  0  0
 15100  1  0  0  0
 16 17  2  0  0  0
 16 21  1  0  0  0
 16 31  1  0  0  0
 17 18  1  0  0  0
 17101  1  0  0  0
 18 19  2  0  0  0
 18102  1  0  0  0
 19 20  1  0  0  0
 19 24  1  0  0  0
 20 21  2  0  0  0
 20103  1  0  0  0
 21 23  1  0  0  0
 22 28  1  0  0  0
 22 32  2  0  0  0
 26 27  1  0  0  0
 28104  1  0  0  0
 28105  1  0  0  0
 29106  1  0  0  0
 29107  1  0  0  0
 33 34  1  0  0  0
 33 66  1  0  0  0
 33 70  2  0  0  0
 34 36  1  0  0  0
 34 59  1  0  0  0
 34108  1  0  0  0
 35 44  2  0  0  0
 35 45  1  0  0  0
 35 68  1  0  0  0
 36 56  1  0  0  0
 36109  1  0  0  0
 37 39  1  0  0  0
 37 47  1  0  0  0
 37 66  1  0  0  0
 37110  1  0  0  0
 38 43  2  0  0  0
 38 46  1  0  0  0
 38 47  1  0  0  0
 39 64  1  0  0  0
 39 67  2  0  0  0
 40 52  1  0  0  0
 40 53  2  0  0  0
 40 58  1  0  0  0
 41111  1  0  0  0
 41112  1  0  0  0
 41113  1  0  0  0
 41 48  1  0  0  0
 42 43  1  0  0  0
 42 66  1  0  0  0
 42114  1  0  0  0
 42115  1  0  0  0
 43 44  1  0  0  0
 44116  1  0  0  0
 45 46  2  0  0  0
 45117  1  0  0  0
 46118  1  0  0  0
 47119  1  0  0  0
 47120  1  0  0  0
 48 56  1  0  0  0
 48 65  1  0  0  0
 48121  1  0  0  0
 49 50  1  0  0  0
 49 53  1  0  0  0
 49 64  1  0  0  0
 49122  1  0  0  0
 50 51  1  0  0  0
 50123  1  0  0  0
 50124  1  0  0  0
 51 52  1  0  0  0
 51125  1  0  0  0
 51126  1  0  0  0
 52127  1  0  0  0
 52128  1  0  0  0
 53 54  1  0  0  0
 54 55  2  0  0  0
 54129  1  0  0  0
 55 57  1  0  0  0
 55130  1  0  0  0
 56 69  2  0  0  0
 57 58  2  0  0  0
 57131  1  0  0  0
 58132  1  0  0  0
 59 60  1  0  0  0
 59 61  1  0  0  0
 59 62  1  0  0  0
 60133  1  0  0  0
 60134  1  0  0  0
 60135  1  0  0  0
 61136  1  0  0  0
 61137  1  0  0  0
 61138  1  0  0  0
 62139  1  0  0  0
 62140  1  0  0  0
 62141  1  0  0  0
 63 65  1  0  0  0
 63142  1  0  0  0
 63143  1  0  0  0
 63144  1  0  0  0
 64145  1  0  0  0
 65146  1  0  0  0
 68 82  1  0  0  0
 71 73  2  0  0  0
 71 75  1  0  0  0
 71147  1  0  0  0
 72 73  1  0  0  0
 72 74  2  0  0  0
 72 76  1  0  0  0
 73 80  1  0  0  0
 74 81  1  0  0  0
 74 84  1  0  0  0
 75 84  2  0  0  0
 75 85  1  0  0  0
 76 86  1  0  0  0
 76 87  2  0  0  0
 77 78  1  0  0  0
 77148  1  0  0  0
 77149  1  0  0  0
 77 79  1  0  0  0
 78 79  1  0  0  0
 78150  1  0  0  0
 78151  1  0  0  0
 79 83  1  0  0  0
 79152  1  0  0  0
 80153  1  0  0  0
 80154  1  0  0  0
 80155  1  0  0  0
 81156  1  0  0  0
 81157  1  0  0  0
 81158  1  0  0  0
 82159  1  0  0  0
 82160  1  0  0  0
 82 83  1  0  0  0
 83 86  1  0  0  0
 83161  1  0  0  0
 85162  1  0  0  0
 86163  1  0  0  0
M  ISO  4   1 100  68 101  82 101  85 100
M  END
> <chiral flag>
0

> <version>
0

> <s_m_source_file>
/data/baiqing/PycharmProjects/Reinvent-master-3.2/result/LINK_invent/BTK/process_docking_weight1_custom_sum_contain_oxygen_bond_distance_aromatic_linkinvent_7_9_3/rearranged_h_0143.sdf

> <i_m_source_file_index>
19

> <r_mmod_Potential_Energy-OPLS-2005>
-39.6210594177246

> <r_mmod_Stretch_Energy-OPLS-2005>
88.9049530029297

> <r_mmod_Bend_Energy-OPLS-2005>
152.209442138672

> <r_mmod_Torsional_Energy-OPLS-2005>
266.685882568359

> <r_mmod_Improper_Torsional_Energy-OPLS-2005>
5.27746343612671

> <r_mmod_Van_der_Waal_Energy-OPLS-2005>
145.700988769531

> <r_mmod_Electrostatic_Energy-OPLS-2005>
-497.304656982422

> <r_mmod_Solvation_Energy-OPLS-2005>
-253.503555297852

> <b_mmod_Minimization_Converged-OPLS-2005>
0

> <r_mmod_RMS_Derivative-OPLS-2005>
0.815225780010223

$$$$
19
                    3D
 Structure written by MMmdl.
167176  0  0  1  0            999 V2000
  -30.7353  -14.4252   20.6234 C   0  0  0  0  0  0
  -30.4174  -12.2986   19.4148 C   0  0  0  0  0  0
  -29.4911  -12.5162   18.2023 C   0  0  0  0  0  0
  -28.0126  -12.3785   18.6136 C   0  0  0  0  0  0
  -27.6637  -13.2082   19.8786 C   0  0  2  0  0  0
  -28.7028  -12.9732   20.9977 C   0  0  0  0  0  0
  -25.2592  -13.8169   20.5676 C   0  0  0  0  0  0
  -24.1840  -13.0443   20.9164 C   0  0  0  0  0  0
  -24.6398  -11.6911   20.8724 C   0  0  0  0  0  0
  -23.9064  -10.4299   21.0396 C   0  0  0  0  0  0
  -24.3615   -9.4216   21.9179 C   0  0  0  0  0  0
  -23.6291   -8.2249   22.0754 C   0  0  0  0  0  0
  -22.4273   -8.0284   21.3545 C   0  0  0  0  0  0
  -21.9909   -9.0256   20.4642 C   0  0  0  0  0  0
  -22.7237  -10.2134   20.3048 C   0  0  0  0  0  0
  -21.6851   -6.0736   22.5280 C   0  0  0  0  0  0
  -21.4013   -6.5640   23.8214 C   0  0  0  0  0  0
  -21.3660   -5.6792   24.9177 C   0  0  0  0  0  0
  -21.6040   -4.3055   24.7227 C   0  0  0  0  0  0
  -21.8822   -3.8149   23.4349 C   0  0  0  0  0  0
  -21.9196   -4.6964   22.3404 C   0  0  0  0  0  0
  -22.7862  -13.5240   21.1835 C   0  0  0  0  0  0
  -22.1661   -4.2150   21.0978 F   0  0  0  0  0  0
  -21.5631   -3.4540   25.7741 F   0  0  0  0  0  0
  -30.0393  -13.2697   20.4533 N   0  0  0  0  0  0
  -26.3034  -12.9343   20.3374 N   0  0  0  0  0  0
  -25.9324  -11.6498   20.5752 N   0  0  0  0  0  0
  -22.0504  -12.8228   22.0389 N   0  0  0  0  0  0
  -25.4327  -15.1886   20.4091 N   0  0  0  0  0  0
  -31.8187  -14.6379   20.0713 O   0  0  0  0  0  0
  -21.6639   -6.8878   21.4239 O   0  0  0  0  0  0
  -22.3546  -14.5552   20.6697 O   0  0  0  0  0  0
  -24.6143  -31.8696   23.2096 C   0  0  0  0  0  0
  -25.9042  -32.4830   23.8393 C   0  0  1  0  0  0
  -27.2334  -27.4435   20.0925 C   0  0  0  0  0  0
  -25.5894  -33.8621   24.2325 N   0  0  0  0  0  0
  -23.4001  -30.4941   21.5512 C   0  0  2  0  0  0
  -24.8448  -28.9597   20.1153 C   0  0  0  0  0  0
  -22.7402  -29.4676   22.5006 C   0  0  0  0  0  0
  -18.0265  -28.1383   22.8496 C   0  0  0  0  0  0
  -24.1485  -36.7316   23.2639 C   0  0  0  0  0  0
  -25.9276  -30.8384   21.3603 C   0  0  0  0  0  0
  -26.0046  -29.4733   20.7068 C   0  0  0  0  0  0
  -27.2019  -28.7237   20.6893 C   0  0  0  0  0  0
  -26.0506  -26.9377   19.5036 C   0  0  0  0  0  0
  -24.8619  -27.6903   19.5119 C   0  0  0  0  0  0
  -23.6063  -29.8258   20.1658 C   0  0  0  0  0  0
  -25.4106  -36.3113   24.0340 C   0  0  1  0  0  0
  -20.5859  -28.3665   23.1318 C   0  0  2  0  0  0
  -20.6759  -26.9408   22.5410 C   0  0  0  0  0  0
  -19.5738  -26.6396   21.5209 C   0  0  0  0  0  0
  -18.1910  -26.7929   22.1621 C   0  0  0  0  0  0
  -19.1517  -28.8840   23.2901 C   0  0  0  0  0  0
  -18.9451  -30.1446   23.8919 C   0  0  0  0  0  0
  -17.6460  -30.6593   24.0569 C   0  0  0  0  0  0
  -25.9034  -34.9478   23.5131 C   0  0  0  0  0  0
  -16.5349  -29.9102   23.6325 C   0  0  0  0  0  0
  -16.7260  -28.6513   23.0357 C   0  0  0  0  0  0
  -26.4470  -31.6604   25.0718 C   0  0  0  0  0  0
  -25.3734  -31.3698   26.1468 C   0  0  0  0  0  0
  -27.0297  -30.3051   24.6077 C   0  0  0  0  0  0
  -27.6045  -32.4321   25.7484 C   0  0  0  0  0  0
  -27.5581  -37.1809   24.8463 C   0  0  0  0  0  0
  -21.4132  -29.3041   22.3740 N   0  0  0  0  0  0
  -26.4290  -37.3800   23.9412 N   0  0  0  0  0  0
  -24.6656  -31.0810   22.0987 N   0  0  0  0  0  0
  -23.4176  -28.8221   23.3049 O   0  0  0  0  0  0
  -28.4186  -26.7386   20.0990 O   0  0  0  0  0  0
  -26.5604  -34.8932   22.4703 O   0  0  0  0  0  0
  -23.5343  -32.1445   23.7503 O   0  0  0  0  0  0
  -29.8285  -21.0026   21.3721 C   0  0  0  0  0  0
  -30.0175  -22.5391   19.0383 C   0  0  0  0  0  0
  -30.1128  -20.3607   20.1482 C   0  0  0  0  0  0
  -29.6487  -22.4017   21.4421 C   0  0  0  0  0  0
  -29.7792  -23.1856   20.2692 C   0  0  0  0  0  0
  -30.1788  -21.1315   18.9635 C   0  0  0  0  0  0
  -29.4469  -17.8766   19.5290 C   0  0  0  0  0  0
  -30.4182  -18.8831   20.0987 C   0  0  2  0  0  0
  -29.7785  -17.8392   21.0041 C   0  0  2  0  0  0
  -29.3423  -23.0370   22.7879 C   0  0  0  0  0  0
  -30.8530  -16.9615   23.1114 C   0  0  0  0  0  0
  -30.3921  -21.1865   16.5675 C   0  0  0  0  0  0
  -29.7297  -24.7153   20.3009 C   0  0  0  0  0  0
  -28.3455  -25.3124   20.0016 C   0  0  0  0  0  0
  -30.6391  -16.7308   21.6086 C   0  0  1  0  0  0
  -30.1391  -15.3669   21.3772 N   0  0  0  0  0  0
  -30.4338  -20.4571   17.7876 O   0  0  0  0  0  0
  -31.4624  -12.3909   19.1141 H   0  0  0  0  0  0
  -30.3109  -11.2836   19.8008 H   0  0  0  0  0  0
  -29.7279  -11.7999   17.4144 H   0  0  0  0  0  0
  -29.6641  -13.5061   17.7775 H   0  0  0  0  0  0
  -27.8175  -11.3217   18.7972 H   0  0  0  0  0  0
  -27.3646  -12.6670   17.7854 H   0  0  0  0  0  0
  -27.7145  -14.2596   19.5940 H   0  0  0  0  0  0
  -28.6717  -11.9342   21.3289 H   0  0  0  0  0  0
  -28.4588  -13.5637   21.8814 H   0  0  0  0  0  0
  -25.2760   -9.5691   22.4751 H   0  0  0  0  0  0
  -24.0004   -7.4640   22.7473 H   0  0  0  0  0  0
  -21.0845   -8.8771   19.8942 H   0  0  0  0  0  0
  -22.3701  -10.9669   19.6153 H   0  0  0  0  0  0
  -21.2002   -7.6150   23.9717 H   0  0  0  0  0  0
  -21.1475   -6.0523   25.9078 H   0  0  0  0  0  0
  -22.0600   -2.7610   23.2851 H   0  0  0  0  0  0
  -22.4119  -11.9884   22.4771 H   0  0  0  0  0  0
  -21.1119  -13.1245   22.2590 H   0  0  0  0  0  0
  -24.6696  -15.8478   20.5170 H   0  0  0  0  0  0
  -26.2948  -15.6260   20.1086 H   0  0  0  0  0  0
  -26.7121  -32.5550   23.1165 H   0  0  0  0  0  0
  -25.0019  -33.9775   25.0450 H   0  0  0  0  0  0
  -22.6889  -31.3109   21.4131 H   0  0  0  0  0  0
  -23.3746  -35.9648   23.3308 H   0  0  0  0  0  0
  -24.3573  -36.8927   22.2051 H   0  0  0  0  0  0
  -23.7231  -37.6519   23.6655 H   0  0  0  0  0  0
  -26.0375  -31.6056   20.5923 H   0  0  0  0  0  0
  -26.8159  -30.8908   21.9787 H   0  0  0  0  0  0
  -28.0991  -29.1184   21.1459 H   0  0  0  0  0  0
  -26.0251  -25.9695   19.0263 H   0  0  0  0  0  0
  -23.9700  -27.2873   19.0524 H   0  0  0  0  0  0
  -23.7118  -30.6009   19.4056 H   0  0  0  0  0  0
  -22.7297  -29.2453   19.8725 H   0  0  0  0  0  0
  -25.1277  -36.1984   25.0834 H   0  0  0  0  0  0
  -20.9939  -28.3244   24.1446 H   0  0  0  0  0  0
  -20.5665  -26.2285   23.3605 H   0  0  0  0  0  0
  -21.6628  -26.7462   22.1206 H   0  0  0  0  0  0
  -19.6900  -25.6309   21.1235 H   0  0  0  0  0  0
  -19.6677  -27.3214   20.6745 H   0  0  0  0  0  0
  -17.4182  -26.6686   21.4026 H   0  0  0  0  0  0
  -18.0301  -26.0068   22.9010 H   0  0  0  0  0  0
  -19.7934  -30.7235   24.2321 H   0  0  0  0  0  0
  -17.5025  -31.6283   24.5163 H   0  0  0  0  0  0
  -15.5352  -30.3020   23.7641 H   0  0  0  0  0  0
  -15.8649  -28.0841   22.7077 H   0  0  0  0  0  0
  -24.5905  -30.7054   25.7792 H   0  0  0  0  0  0
  -24.8928  -32.2847   26.4940 H   0  0  0  0  0  0
  -25.8082  -30.8844   27.0215 H   0  0  0  0  0  0
  -26.2824  -29.6818   24.1145 H   0  0  0  0  0  0
  -27.4087  -29.7282   25.4524 H   0  0  0  0  0  0
  -27.8656  -30.4369   23.9200 H   0  0  0  0  0  0
  -27.2657  -33.3605   26.2098 H   0  0  0  0  0  0
  -28.3841  -32.6912   25.0304 H   0  0  0  0  0  0
  -28.0737  -31.8427   26.5378 H   0  0  0  0  0  0
  -28.2598  -38.0109   24.7528 H   0  0  0  0  0  0
  -28.1082  -36.2644   24.6269 H   0  0  0  0  0  0
  -27.2301  -37.1431   25.8866 H   0  0  0  0  0  0
  -20.9297  -29.8768   21.6966 H   0  0  0  0  0  0
  -26.0191  -38.2881   24.1420 H   0  0  0  0  0  0
  -29.7762  -20.4111   22.2754 H   0  0  0  0  0  0
  -30.1049  -23.1547   18.1551 H   0  0  0  0  0  0
  -29.8485  -17.0769   18.9101 H   0  0  0  0  0  0
  -28.4531  -18.2259   19.2563 H   0  0  0  0  0  0
  -31.4657  -18.7455   19.8364 H   0  0  0  0  0  0
  -28.9636  -18.1667   21.6477 H   0  0  0  0  0  0
  -29.0685  -22.2844   23.5275 H   0  0  0  0  0  0
  -28.5070  -23.7333   22.7086 H   0  0  0  0  0  0
  -30.2092  -23.5796   23.1650 H   0  0  0  0  0  0
  -31.2725  -17.9513   23.2975 H   0  0  0  0  0  0
  -31.5472  -16.2314   23.5297 H   0  0  0  0  0  0
  -29.9176  -16.8927   23.6682 H   0  0  0  0  0  0
  -30.5525  -20.5050   15.7320 H   0  0  0  0  0  0
  -31.1759  -21.9447   16.5279 H   0  0  0  0  0  0
  -29.4217  -21.6626   16.4189 H   0  0  0  0  0  0
  -30.4429  -25.0977   19.5701 H   0  0  0  0  0  0
  -30.0869  -25.0809   21.2623 H   0  0  0  0  0  0
  -27.6177  -24.9236   20.7164 H   0  0  0  0  0  0
  -28.0298  -25.0111   19.0026 H   0  0  0  0  0  0
  -31.6260  -16.8240   21.1513 H   0  0  0  0  0  0
  -29.2431  -15.1256   21.7736 H   0  0  0  0  0  0
  1 25  1  0  0  0
  1 30  2  0  0  0
  1 86  1  0  0  0
  2  3  1  0  0  0
  2 25  1  0  0  0
  2 88  1  0  0  0
  2 89  1  0  0  0
  3  4  1  0  0  0
  3 90  1  0  0  0
  3 91  1  0  0  0
  4  5  1  0  0  0
  4 92  1  0  0  0
  4 93  1  0  0  0
  5  6  1  0  0  0
  5 26  1  0  0  0
  5 94  1  0  0  0
  6 25  1  0  0  0
  6 95  1  0  0  0
  6 96  1  0  0  0
  7  8  2  0  0  0
  7 26  1  0  0  0
  7 29  1  0  0  0
  8  9  1  0  0  0
  8 22  1  0  0  0
  9 10  1  0  0  0
  9 27  2  0  0  0
 10 11  2  0  0  0
 10 15  1  0  0  0
 11 12  1  0  0  0
 11 97  1  0  0  0
 12 13  2  0  0  0
 12 98  1  0  0  0
 13 14  1  0  0  0
 13 31  1  0  0  0
 14 15  2  0  0  0
 14 99  1  0  0  0
 15100  1  0  0  0
 16 17  2  0  0  0
 16 21  1  0  0  0
 16 31  1  0  0  0
 17 18  1  0  0  0
 17101  1  0  0  0
 18 19  2  0  0  0
 18102  1  0  0  0
 19 20  1  0  0  0
 19 24  1  0  0  0
 20 21  2  0  0  0
 20103  1  0  0  0
 21 23  1  0  0  0
 22 28  1  0  0  0
 22 32  2  0  0  0
 26 27  1  0  0  0
 28104  1  0  0  0
 28105  1  0  0  0
 29106  1  0  0  0
 29107  1  0  0  0
 33 34  1  0  0  0
 33 66  1  0  0  0
 33 70  2  0  0  0
 34 36  1  0  0  0
 34 59  1  0  0  0
 34108  1  0  0  0
 35 44  2  0  0  0
 35 45  1  0  0  0
 35 68  1  0  0  0
 36 56  1  0  0  0
 36109  1  0  0  0
 37 39  1  0  0  0
 37 47  1  0  0  0
 37 66  1  0  0  0
 37110  1  0  0  0
 38 43  2  0  0  0
 38 46  1  0  0  0
 38 47  1  0  0  0
 39 64  1  0  0  0
 39 67  2  0  0  0
 40 52  1  0  0  0
 40 53  2  0  0  0
 40 58  1  0  0  0
 41111  1  0  0  0
 41112  1  0  0  0
 41113  1  0  0  0
 41 48  1  0  0  0
 42 43  1  0  0  0
 42 66  1  0  0  0
 42114  1  0  0  0
 42115  1  0  0  0
 43 44  1  0  0  0
 44116  1  0  0  0
 45 46  2  0  0  0
 45117  1  0  0  0
 46118  1  0  0  0
 47119  1  0  0  0
 47120  1  0  0  0
 48 56  1  0  0  0
 48 65  1  0  0  0
 48121  1  0  0  0
 49 50  1  0  0  0
 49 53  1  0  0  0
 49 64  1  0  0  0
 49122  1  0  0  0
 50 51  1  0  0  0
 50123  1  0  0  0
 50124  1  0  0  0
 51 52  1  0  0  0
 51125  1  0  0  0
 51126  1  0  0  0
 52127  1  0  0  0
 52128  1  0  0  0
 53 54  1  0  0  0
 54 55  2  0  0  0
 54129  1  0  0  0
 55 57  1  0  0  0
 55130  1  0  0  0
 56 69  2  0  0  0
 57 58  2  0  0  0
 57131  1  0  0  0
 58132  1  0  0  0
 59 60  1  0  0  0
 59 61  1  0  0  0
 59 62  1  0  0  0
 60133  1  0  0  0
 60134  1  0  0  0
 60135  1  0  0  0
 61136  1  0  0  0
 61137  1  0  0  0
 61138  1  0  0  0
 62139  1  0  0  0
 62140  1  0  0  0
 62141  1  0  0  0
 63 65  1  0  0  0
 63142  1  0  0  0
 63143  1  0  0  0
 63144  1  0  0  0
 64145  1  0  0  0
 65146  1  0  0  0
 68 84  1  0  0  0
 71 73  2  0  0  0
 71 74  1  0  0  0
 71147  1  0  0  0
 72 75  1  0  0  0
 72 76  2  0  0  0
 72148  1  0  0  0
 73 76  1  0  0  0
 73 78  1  0  0  0
 74 75  2  0  0  0
 74 80  1  0  0  0
 75 83  1  0  0  0
 76 87  1  0  0  0
 77 78  1  0  0  0
 77149  1  0  0  0
 77150  1  0  0  0
 77 79  1  0  0  0
 78 79  1  0  0  0
 78151  1  0  0  0
 79 85  1  0  0  0
 79152  1  0  0  0
 80153  1  0  0  0
 80154  1  0  0  0
 80155  1  0  0  0
 81156  1  0  0  0
 81157  1  0  0  0
 81158  1  0  0  0
 81 85  1  0  0  0
 82 87  1  0  0  0
 82159  1  0  0  0
 82160  1  0  0  0
 82161  1  0  0  0
 83 84  1  0  0  0
 83162  1  0  0  0
 83163  1  0  0  0
 84164  1  0  0  0
 84165  1  0  0  0
 85 86  1  0  0  0
 85166  1  0  0  0
 86167  1  0  0  0
M  ISO  4   1 100  68 101  84 101  86 100
M  END
> <chiral flag>
0

> <version>
0

> <s_m_source_file>
/data/baiqing/PycharmProjects/Reinvent-master-3.2/result/LINK_invent/BTK/process_docking_weight1_custom_sum_contain_oxygen_bond_distance_aromatic_linkinvent_7_9_3/rearranged_h_0143.sdf

> <i_m_source_file_index>
20

> <r_mmod_Potential_Energy-OPLS-2005>
-50.4060249328613

> <r_mmod_Stretch_Energy-OPLS-2005>
35.7030868530273

> <r_mmod_Bend_Energy-OPLS-2005>
99.6277465820312

> <r_mmod_Torsional_Energy-OPLS-2005>
241.319442749023

> <r_mmod_Improper_Torsional_Energy-OPLS-2005>
2.33171772956848

> <r_mmod_Van_der_Waal_Energy-OPLS-2005>
154.863082885742

> <r_mmod_Electrostatic_Energy-OPLS-2005>
-389.069976806641

> <r_mmod_Solvation_Energy-OPLS-2005>
-204.504440307617

> <b_mmod_Minimization_Converged-OPLS-2005>
0

> <r_mmod_RMS_Derivative-OPLS-2005>
1.34560346603394

$$$$
20
                    3D
 Structure written by MMmdl.
157166  0  0  1  0            999 V2000
  -30.6514  -14.7428   20.4514 C   0  0  0  0  0  0
  -30.4226  -12.4531   19.4799 C   0  0  0  0  0  0
  -29.5057  -12.5048   18.2400 C   0  0  0  0  0  0
  -28.0335  -12.3312   18.6563 C   0  0  0  0  0  0
  -27.6386  -13.2396   19.8519 C   0  0  2  0  0  0
  -28.6857  -13.2009   20.9877 C   0  0  0  0  0  0
  -25.2485  -13.8226   20.5721 C   0  0  0  0  0  0
  -24.1791  -13.0450   20.9212 C   0  0  0  0  0  0
  -24.6408  -11.6935   20.8759 C   0  0  0  0  0  0
  -23.9101  -10.4295   21.0408 C   0  0  0  0  0  0
  -24.3637   -9.4204   21.9195 C   0  0  0  0  0  0
  -23.6298   -8.2242   22.0766 C   0  0  0  0  0  0
  -22.4283   -8.0279   21.3552 C   0  0  0  0  0  0
  -21.9928   -9.0267   20.4660 C   0  0  0  0  0  0
  -22.7269  -10.2135   20.3069 C   0  0  0  0  0  0
  -21.6857   -6.0739   22.5270 C   0  0  0  0  0  0
  -21.4026   -6.5642   23.8207 C   0  0  0  0  0  0
  -21.3661   -5.6794   24.9167 C   0  0  0  0  0  0
  -21.6033   -4.3057   24.7217 C   0  0  0  0  0  0
  -21.8824   -3.8148   23.4342 C   0  0  0  0  0  0
  -21.9197   -4.6964   22.3398 C   0  0  0  0  0  0
  -22.7807  -13.5207   21.1862 C   0  0  0  0  0  0
  -22.1658   -4.2147   21.0978 F   0  0  0  0  0  0
  -21.5624   -3.4547   25.7737 F   0  0  0  0  0  0
  -29.9873  -13.5360   20.3958 N   0  0  0  0  0  0
  -26.2926  -12.9443   20.3321 N   0  0  0  0  0  0
  -25.9340  -11.6580   20.5804 N   0  0  0  0  0  0
  -22.0467  -12.8188   22.0428 N   0  0  0  0  0  0
  -25.4170  -15.1946   20.4124 N   0  0  0  0  0  0
  -31.8487  -14.7587   20.1501 O   0  0  0  0  0  0
  -21.6634   -6.8881   21.4240 O   0  0  0  0  0  0
  -22.3485  -14.5521   20.6731 O   0  0  0  0  0  0
  -24.6291  -31.8559   23.2000 C   0  0  0  0  0  0
  -25.9124  -32.4761   23.8327 C   0  0  1  0  0  0
  -27.2178  -27.2573   20.1353 C   0  0  0  0  0  0
  -25.5925  -33.8561   24.2248 N   0  0  0  0  0  0
  -23.4261  -30.4774   21.5449 C   0  0  2  0  0  0
  -24.8774  -28.9310   20.1078 C   0  0  0  0  0  0
  -22.7490  -29.4585   22.4936 C   0  0  0  0  0  0
  -18.0281  -28.1393   22.8491 C   0  0  0  0  0  0
  -24.1500  -36.7279   23.2639 C   0  0  0  0  0  0
  -25.9720  -30.7690   21.3819 C   0  0  0  0  0  0
  -26.0469  -29.3916   20.7228 C   0  0  0  0  0  0
  -27.2178  -28.5658   20.7299 C   0  0  0  0  0  0
  -26.0288  -26.8769   19.4720 C   0  0  0  0  0  0
  -24.8742  -27.6821   19.4701 C   0  0  0  0  0  0
  -23.6449  -29.8125   20.1599 C   0  0  0  0  0  0
  -25.4126  -36.3071   24.0329 C   0  0  1  0  0  0
  -20.5884  -28.3683   23.1302 C   0  0  2  0  0  0
  -20.6785  -26.9407   22.5430 C   0  0  0  0  0  0
  -19.5767  -26.6381   21.5231 C   0  0  0  0  0  0
  -18.1933  -26.7944   22.1620 C   0  0  0  0  0  0
  -19.1536  -28.8862   23.2890 C   0  0  0  0  0  0
  -18.9461  -30.1463   23.8910 C   0  0  0  0  0  0
  -17.6465  -30.6604   24.0558 C   0  0  0  0  0  0
  -25.9072  -34.9440   23.5088 C   0  0  0  0  0  0
  -16.5351  -29.9086   23.6359 C   0  0  0  0  0  0
  -16.7271  -28.6507   23.0370 C   0  0  0  0  0  0
  -26.4499  -31.6594   25.0718 C   0  0  0  0  0  0
  -25.3702  -31.3735   26.1422 C   0  0  0  0  0  0
  -27.0371  -30.3016   24.6220 C   0  0  0  0  0  0
  -27.6073  -32.4328   25.7473 C   0  0  0  0  0  0
  -27.5587  -37.1780   24.8460 C   0  0  0  0  0  0
  -21.4200  -29.3007   22.3681 N   0  0  0  0  0  0
  -26.4303  -37.3767   23.9419 N   0  0  0  0  0  0
  -24.6946  -31.0520   22.0982 N   0  0  0  0  0  0
  -23.4196  -28.8111   23.3023 O   0  0  0  0  0  0
  -28.3057  -26.3532   20.2312 O   0  0  0  0  0  0
  -26.5627  -34.8909   22.4653 O   0  0  0  0  0  0
  -23.5442  -32.1391   23.7301 O   0  0  0  0  0  0
  -29.4657  -18.4840   20.7454 C   0  0  0  0  0  0
  -32.0500  -18.9125   20.0679 C   0  0  0  0  0  0
  -31.2724  -20.0521   20.3485 C   0  0  0  0  0  0
  -29.8983  -19.8719   20.6367 C   0  0  0  0  0  0
  -30.3468  -17.3478   20.5124 C   0  0  0  0  0  0
  -33.2629  -21.5567   21.1613 C   0  0  0  0  0  0
  -32.0083  -22.2361   21.6439 C   0  0  0  0  0  0
  -31.9669  -21.3872   20.3895 C   0  0  0  0  0  0
  -28.9844  -23.7090   20.6361 C   0  0  0  0  0  0
  -28.0990  -24.8833   19.9572 C   0  0  0  0  0  0
  -28.8966  -22.1872   20.0712 C   0  0  0  0  0  0
  -31.6137  -17.6405   20.1460 N   0  0  0  0  0  0
  -29.9293  -15.9218   20.6495 N   0  0  0  0  0  0
  -29.0712  -20.9905   20.9514 O   0  0  0  0  0  0
  -31.4662  -12.5527   19.1755 H   0  0  0  0  0  0
  -30.3497  -11.4848   19.9773 H   0  0  0  0  0  0
  -29.7849  -11.7268   17.5296 H   0  0  0  0  0  0
  -29.6309  -13.4567   17.7220 H   0  0  0  0  0  0
  -27.8918  -11.2847   18.9292 H   0  0  0  0  0  0
  -27.3735  -12.5134   17.8080 H   0  0  0  0  0  0
  -27.6248  -14.2558   19.4587 H   0  0  0  0  0  0
  -28.7162  -12.2170   21.4571 H   0  0  0  0  0  0
  -28.4261  -13.9093   21.7760 H   0  0  0  0  0  0
  -25.2785   -9.5661   22.4781 H   0  0  0  0  0  0
  -24.0002   -7.4627   22.7489 H   0  0  0  0  0  0
  -21.0858   -8.8783   19.8966 H   0  0  0  0  0  0
  -22.3729  -10.9677   19.6172 H   0  0  0  0  0  0
  -21.2030   -7.6151   23.9709 H   0  0  0  0  0  0
  -21.1475   -6.0527   25.9066 H   0  0  0  0  0  0
  -22.0608   -2.7613   23.2845 H   0  0  0  0  0  0
  -22.4088  -11.9838   22.4783 H   0  0  0  0  0  0
  -21.1100  -13.1215   22.2672 H   0  0  0  0  0  0
  -24.6486  -15.8496   20.5151 H   0  0  0  0  0  0
  -26.2631  -15.6320   20.0716 H   0  0  0  0  0  0
  -26.7170  -32.5434   23.1050 H   0  0  0  0  0  0
  -25.0036  -33.9705   25.0362 H   0  0  0  0  0  0
  -22.7208  -31.2996   21.3979 H   0  0  0  0  0  0
  -23.3780  -35.9592   23.3291 H   0  0  0  0  0  0
  -24.3573  -36.8921   22.2055 H   0  0  0  0  0  0
  -23.7249  -37.6469   23.6680 H   0  0  0  0  0  0
  -26.1095  -31.5334   20.6162 H   0  0  0  0  0  0
  -26.8468  -30.8185   22.0179 H   0  0  0  0  0  0
  -28.1072  -28.9042   21.2428 H   0  0  0  0  0  0
  -25.9559  -25.9283   18.9622 H   0  0  0  0  0  0
  -23.9791  -27.3308   18.9760 H   0  0  0  0  0  0
  -23.7583  -30.5911   19.4053 H   0  0  0  0  0  0
  -22.7645  -29.2410   19.8604 H   0  0  0  0  0  0
  -25.1305  -36.1907   25.0823 H   0  0  0  0  0  0
  -20.9958  -28.3275   24.1431 H   0  0  0  0  0  0
  -20.5758  -26.2265   23.3613 H   0  0  0  0  0  0
  -21.6642  -26.7486   22.1168 H   0  0  0  0  0  0
  -19.6950  -25.6294   21.1249 H   0  0  0  0  0  0
  -19.6744  -27.3205   20.6778 H   0  0  0  0  0  0
  -17.4208  -26.6703   21.4004 H   0  0  0  0  0  0
  -18.0325  -26.0087   22.9019 H   0  0  0  0  0  0
  -19.7935  -30.7267   24.2289 H   0  0  0  0  0  0
  -17.5013  -31.6302   24.5117 H   0  0  0  0  0  0
  -15.5352  -30.2966   23.7712 H   0  0  0  0  0  0
  -15.8665  -28.0825   22.7090 H   0  0  0  0  0  0
  -24.5886  -30.7095   25.7705 H   0  0  0  0  0  0
  -24.8876  -32.2895   26.4840 H   0  0  0  0  0  0
  -25.7971  -30.8888   27.0208 H   0  0  0  0  0  0
  -26.2974  -29.6724   24.1251 H   0  0  0  0  0  0
  -27.4062  -29.7324   25.4762 H   0  0  0  0  0  0
  -27.8831  -30.4296   23.9465 H   0  0  0  0  0  0
  -27.2726  -33.3653   26.2022 H   0  0  0  0  0  0
  -28.3877  -32.6838   25.0281 H   0  0  0  0  0  0
  -28.0737  -31.8461   26.5401 H   0  0  0  0  0  0
  -28.2567  -38.0102   24.7529 H   0  0  0  0  0  0
  -28.1108  -36.2631   24.6255 H   0  0  0  0  0  0
  -27.2291  -37.1385   25.8852 H   0  0  0  0  0  0
  -20.9401  -29.8678   21.6826 H   0  0  0  0  0  0
  -26.0184  -38.2840   24.1428 H   0  0  0  0  0  0
  -28.4399  -18.2975   21.0334 H   0  0  0  0  0  0
  -33.0965  -19.0168   19.8188 H   0  0  0  0  0  0
  -33.6358  -20.7336   21.7719 H   0  0  0  0  0  0
  -34.0313  -22.1960   20.7294 H   0  0  0  0  0  0
  -31.9930  -23.3209   21.5442 H   0  0  0  0  0  0
  -31.5434  -21.8453   22.5476 H   0  0  0  0  0  0
  -31.9079  -21.8895   19.4264 H   0  0  0  0  0  0
  -28.7407  -23.6846   21.6982 H   0  0  0  0  0  0
  -30.0263  -24.0194   20.5836 H   0  0  0  0  0  0
  -27.0766  -24.6180   20.2279 H   0  0  0  0  0  0
  -28.1627  -24.7592   18.8755 H   0  0  0  0  0  0
  -29.5379  -22.0968   19.1949 H   0  0  0  0  0  0
  -27.8847  -22.0710   19.6800 H   0  0  0  0  0  0
  -28.9590  -15.7783   20.8781 H   0  0  0  0  0  0
  1 25  1  0  0  0
  1 30  2  0  0  0
  1 83  1  0  0  0
  2  3  1  0  0  0
  2 25  1  0  0  0
  2 85  1  0  0  0
  2 86  1  0  0  0
  3  4  1  0  0  0
  3 87  1  0  0  0
  3 88  1  0  0  0
  4  5  1  0  0  0
  4 89  1  0  0  0
  4 90  1  0  0  0
  5  6  1  0  0  0
  5 26  1  0  0  0
  5 91  1  0  0  0
  6 25  1  0  0  0
  6 92  1  0  0  0
  6 93  1  0  0  0
  7  8  2  0  0  0
  7 26  1  0  0  0
  7 29  1  0  0  0
  8  9  1  0  0  0
  8 22  1  0  0  0
  9 10  1  0  0  0
  9 27  2  0  0  0
 10 11  2  0  0  0
 10 15  1  0  0  0
 11 12  1  0  0  0
 11 94  1  0  0  0
 12 13  2  0  0  0
 12 95  1  0  0  0
 13 14  1  0  0  0
 13 31  1  0  0  0
 14 15  2  0  0  0
 14 96  1  0  0  0
 15 97  1  0  0  0
 16 17  2  0  0  0
 16 21  1  0  0  0
 16 31  1  0  0  0
 17 18  1  0  0  0
 17 98  1  0  0  0
 18 19  2  0  0  0
 18 99  1  0  0  0
 19 20  1  0  0  0
 19 24  1  0  0  0
 20 21  2  0  0  0
 20100  1  0  0  0
 21 23  1  0  0  0
 22 28  1  0  0  0
 22 32  2  0  0  0
 26 27  1  0  0  0
 28101  1  0  0  0
 28102  1  0  0  0
 29103  1  0  0  0
 29104  1  0  0  0
 33 34  1  0  0  0
 33 66  1  0  0  0
 33 70  2  0  0  0
 34 36  1  0  0  0
 34 59  1  0  0  0
 34105  1  0  0  0
 35 44  2  0  0  0
 35 45  1  0  0  0
 35 68  1  0  0  0
 36 56  1  0  0  0
 36106  1  0  0  0
 37 39  1  0  0  0
 37 47  1  0  0  0
 37 66  1  0  0  0
 37107  1  0  0  0
 38 43  2  0  0  0
 38 46  1  0  0  0
 38 47  1  0  0  0
 39 64  1  0  0  0
 39 67  2  0  0  0
 40 52  1  0  0  0
 40 53  2  0  0  0
 40 58  1  0  0  0
 41108  1  0  0  0
 41109  1  0  0  0
 41110  1  0  0  0
 41 48  1  0  0  0
 42 43  1  0  0  0
 42 66  1  0  0  0
 42111  1  0  0  0
 42112  1  0  0  0
 43 44  1  0  0  0
 44113  1  0  0  0
 45 46  2  0  0  0
 45114  1  0  0  0
 46115  1  0  0  0
 47116  1  0  0  0
 47117  1  0  0  0
 48 56  1  0  0  0
 48 65  1  0  0  0
 48118  1  0  0  0
 49 50  1  0  0  0
 49 53  1  0  0  0
 49 64  1  0  0  0
 49119  1  0  0  0
 50 51  1  0  0  0
 50120  1  0  0  0
 50121  1  0  0  0
 51 52  1  0  0  0
 51122  1  0  0  0
 51123  1  0  0  0
 52124  1  0  0  0
 52125  1  0  0  0
 53 54  1  0  0  0
 54 55  2  0  0  0
 54126  1  0  0  0
 55 57  1  0  0  0
 55127  1  0  0  0
 56 69  2  0  0  0
 57 58  2  0  0  0
 57128  1  0  0  0
 58129  1  0  0  0
 59 60  1  0  0  0
 59 61  1  0  0  0
 59 62  1  0  0  0
 60130  1  0  0  0
 60131  1  0  0  0
 60132  1  0  0  0
 61133  1  0  0  0
 61134  1  0  0  0
 61135  1  0  0  0
 62136  1  0  0  0
 62137  1  0  0  0
 62138  1  0  0  0
 63 65  1  0  0  0
 63139  1  0  0  0
 63140  1  0  0  0
 63141  1  0  0  0
 64142  1  0  0  0
 65143  1  0  0  0
 68 80  1  0  0  0
 71 74  2  0  0  0
 71 75  1  0  0  0
 71144  1  0  0  0
 72 73  2  0  0  0
 72 82  1  0  0  0
 72145  1  0  0  0
 73 74  1  0  0  0
 73 78  1  0  0  0
 74 84  1  0  0  0
 75 82  2  0  0  0
 75 83  1  0  0  0
 76 77  1  0  0  0
 76 78  1  0  0  0
 76146  1  0  0  0
 76147  1  0  0  0
 77 78  1  0  0  0
 77148  1  0  0  0
 77149  1  0  0  0
 78150  1  0  0  0
 79 80  1  0  0  0
 79 81  1  0  0  0
 79151  1  0  0  0
 79152  1  0  0  0
 80153  1  0  0  0
 80154  1  0  0  0
 81 84  1  0  0  0
 81155  1  0  0  0
 81156  1  0  0  0
 83157  1  0  0  0
M  ISO  4   1 100  68 101  80 101  83 100
M  END
> <chiral flag>
0

> <version>
0

> <s_m_source_file>
/data/baiqing/PycharmProjects/Reinvent-master-3.2/result/LINK_invent/BTK/process_docking_weight1_custom_sum_contain_oxygen_bond_distance_aromatic_linkinvent_7_9_3/rearranged_h_0143.sdf

> <i_m_source_file_index>
21

> <r_mmod_Potential_Energy-OPLS-2005>
100.591804504395

> <r_mmod_Stretch_Energy-OPLS-2005>
127.711227416992

> <r_mmod_Bend_Energy-OPLS-2005>
179.203155517578

> <r_mmod_Torsional_Energy-OPLS-2005>
260.466827392578

> <r_mmod_Improper_Torsional_Energy-OPLS-2005>
4.99535989761353

> <r_mmod_Van_der_Waal_Energy-OPLS-2005>
145.114379882812

> <r_mmod_Electrostatic_Energy-OPLS-2005>
-468.005523681641

> <r_mmod_Solvation_Energy-OPLS-2005>
-238.059722900391

> <b_mmod_Minimization_Converged-OPLS-2005>
0

> <r_mmod_RMS_Derivative-OPLS-2005>
2.68912553787231

$$$$
21
                    3D
 Structure written by MMmdl.
162171  0  0  1  0            999 V2000
  -30.6307  -14.6893   20.4620 C   0  0  0  0  0  0
  -30.4265  -12.4187   19.4693 C   0  0  0  0  0  0
  -29.5095  -12.5031   18.2301 C   0  0  0  0  0  0
  -28.0309  -12.3436   18.6379 C   0  0  0  0  0  0
  -27.6428  -13.2306   19.8523 C   0  0  2  0  0  0
  -28.6858  -13.1414   20.9872 C   0  0  0  0  0  0
  -25.2502  -13.8190   20.5681 C   0  0  0  0  0  0
  -24.1796  -13.0436   20.9203 C   0  0  0  0  0  0
  -24.6388  -11.6914   20.8728 C   0  0  0  0  0  0
  -23.9065  -10.4291   21.0396 C   0  0  0  0  0  0
  -24.3613   -9.4205   21.9172 C   0  0  0  0  0  0
  -23.6288   -8.2240   22.0743 C   0  0  0  0  0  0
  -22.4272   -8.0275   21.3537 C   0  0  0  0  0  0
  -21.9907   -9.0245   20.4636 C   0  0  0  0  0  0
  -22.7234  -10.2127   20.3046 C   0  0  0  0  0  0
  -21.6857   -6.0729   22.5276 C   0  0  0  0  0  0
  -21.4019   -6.5633   23.8207 C   0  0  0  0  0  0
  -21.3660   -5.6786   24.9168 C   0  0  0  0  0  0
  -21.6051   -4.3051   24.7220 C   0  0  0  0  0  0
  -21.8819   -3.8142   23.4338 C   0  0  0  0  0  0
  -21.9192   -4.6957   22.3398 C   0  0  0  0  0  0
  -22.7818  -13.5214   21.1863 C   0  0  0  0  0  0
  -22.1663   -4.2145   21.0976 F   0  0  0  0  0  0
  -21.5626   -3.4536   25.7731 F   0  0  0  0  0  0
  -29.9912  -13.4751   20.4076 N   0  0  0  0  0  0
  -26.2932  -12.9403   20.3268 N   0  0  0  0  0  0
  -25.9320  -11.6543   20.5727 N   0  0  0  0  0  0
  -22.0471  -12.8196   22.0418 N   0  0  0  0  0  0
  -25.4178  -15.1918   20.4104 N   0  0  0  0  0  0
  -31.8189  -14.7802   20.1460 O   0  0  0  0  0  0
  -21.6642   -6.8871   21.4235 O   0  0  0  0  0  0
  -22.3497  -14.5516   20.6709 O   0  0  0  0  0  0
  -24.6270  -31.8592   23.2017 C   0  0  0  0  0  0
  -25.9120  -32.4774   23.8332 C   0  0  1  0  0  0
  -27.2113  -27.2947   20.1130 C   0  0  0  0  0  0
  -25.5926  -33.8577   24.2260 N   0  0  0  0  0  0
  -23.4209  -30.4852   21.5429 C   0  0  2  0  0  0
  -24.8643  -28.9389   20.1031 C   0  0  0  0  0  0
  -22.7476  -29.4630   22.4900 C   0  0  0  0  0  0
  -18.0295  -28.1420   22.8505 C   0  0  0  0  0  0
  -24.1483  -36.7276   23.2638 C   0  0  0  0  0  0
  -25.9633  -30.7795   21.3774 C   0  0  0  0  0  0
  -26.0330  -29.4056   20.7178 C   0  0  0  0  0  0
  -27.2062  -28.5932   20.7182 C   0  0  0  0  0  0
  -26.0263  -26.8970   19.4533 C   0  0  0  0  0  0
  -24.8649  -27.6907   19.4617 C   0  0  0  0  0  0
  -23.6358  -29.8243   20.1558 C   0  0  0  0  0  0
  -25.4113  -36.3078   24.0330 C   0  0  1  0  0  0
  -20.5895  -28.3722   23.1287 C   0  0  2  0  0  0
  -20.6782  -26.9445   22.5422 C   0  0  0  0  0  0
  -19.5744  -26.6414   21.5235 C   0  0  0  0  0  0
  -18.1928  -26.7964   22.1648 C   0  0  0  0  0  0
  -19.1550  -28.8884   23.2895 C   0  0  0  0  0  0
  -18.9473  -30.1493   23.8907 C   0  0  0  0  0  0
  -17.6477  -30.6619   24.0590 C   0  0  0  0  0  0
  -25.9057  -34.9447   23.5091 C   0  0  0  0  0  0
  -16.5364  -29.9123   23.6353 C   0  0  0  0  0  0
  -16.7283  -28.6545   23.0363 C   0  0  0  0  0  0
  -26.4491  -31.6589   25.0708 C   0  0  0  0  0  0
  -25.3726  -31.3753   26.1442 C   0  0  0  0  0  0
  -27.0333  -30.3002   24.6189 C   0  0  0  0  0  0
  -27.6041  -32.4326   25.7489 C   0  0  0  0  0  0
  -27.5576  -37.1804   24.8465 C   0  0  0  0  0  0
  -21.4188  -29.3061   22.3649 N   0  0  0  0  0  0
  -26.4277  -37.3783   23.9420 N   0  0  0  0  0  0
  -24.6892  -31.0596   22.0966 N   0  0  0  0  0  0
  -23.4198  -28.8170   23.2984 O   0  0  0  0  0  0
  -28.3207  -26.4280   20.2076 O   0  0  0  0  0  0
  -26.5623  -34.8906   22.4668 O   0  0  0  0  0  0
  -23.5431  -32.1405   23.7328 O   0  0  0  0  0  0
  -28.1076  -23.7475   22.0412 C   0  0  0  0  0  0
  -28.3137  -22.6574   22.9113 C   0  0  0  0  0  0
  -29.0606  -22.4385   20.2011 C   0  0  0  0  0  0
  -29.2775  -21.3156   21.0930 C   0  0  0  0  0  0
  -28.5019  -23.6989   20.6764 C   0  0  0  0  0  0
  -28.9482  -21.4998   22.4312 C   0  0  0  0  0  0
  -30.5710  -19.9857   22.5019 C   0  0  2  0  0  0
  -30.1332  -19.9860   20.9872 C   0  0  1  0  0  0
  -31.0133  -18.6968   23.2154 C   0  0  0  0  0  0
  -28.2933  -24.9935   19.7694 C   0  0  0  0  0  0
  -29.4267  -18.5553   20.6687 C   0  0  0  0  0  0
  -31.3521  -20.2138   20.0582 C   0  0  0  0  0  0
  -30.3698  -17.2562   20.4200 C   0  0  0  0  0  0
  -29.8776  -15.8333   20.6389 N   0  0  0  0  0  0
  -29.4711  -20.5352   23.2328 O   0  0  0  0  0  0
  -30.9897  -20.1848   18.6845 O   0  0  0  0  0  0
  -31.4715  -12.5282   19.1741 H   0  0  0  0  0  0
  -30.3526  -11.4373   19.9401 H   0  0  0  0  0  0
  -29.7823  -11.7362   17.5047 H   0  0  0  0  0  0
  -29.6524  -13.4634   17.7317 H   0  0  0  0  0  0
  -27.8695  -11.2921   18.8794 H   0  0  0  0  0  0
  -27.3825  -12.5631   17.7895 H   0  0  0  0  0  0
  -27.6437  -14.2579   19.4878 H   0  0  0  0  0  0
  -28.7056  -12.1393   21.4185 H   0  0  0  0  0  0
  -28.4328  -13.8203   21.8026 H   0  0  0  0  0  0
  -25.2761   -9.5685   22.4737 H   0  0  0  0  0  0
  -24.0004   -7.4633   22.7463 H   0  0  0  0  0  0
  -21.0842   -8.8759   19.8940 H   0  0  0  0  0  0
  -22.3692  -10.9656   19.6147 H   0  0  0  0  0  0
  -21.2021   -7.6143   23.9705 H   0  0  0  0  0  0
  -21.1484   -6.0519   25.9067 H   0  0  0  0  0  0
  -22.0600   -2.7606   23.2840 H   0  0  0  0  0  0
  -22.4109  -11.9882   22.4830 H   0  0  0  0  0  0
  -21.1072  -13.1188   22.2597 H   0  0  0  0  0  0
  -24.6472  -15.8417   20.5212 H   0  0  0  0  0  0
  -26.2597  -15.6333   20.0637 H   0  0  0  0  0  0
  -26.7178  -32.5449   23.1065 H   0  0  0  0  0  0
  -25.0063  -33.9710   25.0394 H   0  0  0  0  0  0
  -22.7169  -31.3077   21.4024 H   0  0  0  0  0  0
  -23.3742  -35.9614   23.3309 H   0  0  0  0  0  0
  -24.3558  -36.8896   22.2045 H   0  0  0  0  0  0
  -23.7228  -37.6478   23.6654 H   0  0  0  0  0  0
  -26.1040  -31.5424   20.6109 H   0  0  0  0  0  0
  -26.8418  -30.8242   22.0095 H   0  0  0  0  0  0
  -28.0979  -28.9422   21.2213 H   0  0  0  0  0  0
  -25.9634  -25.9484   18.9407 H   0  0  0  0  0  0
  -23.9714  -27.3341   18.9655 H   0  0  0  0  0  0
  -23.7559  -30.6042   19.4015 H   0  0  0  0  0  0
  -22.7526  -29.2579   19.8523 H   0  0  0  0  0  0
  -25.1299  -36.1919   25.0823 H   0  0  0  0  0  0
  -21.0018  -28.3306   24.1391 H   0  0  0  0  0  0
  -20.5707  -26.2332   23.3626 H   0  0  0  0  0  0
  -21.6652  -26.7484   22.1203 H   0  0  0  0  0  0
  -19.6894  -25.6324   21.1268 H   0  0  0  0  0  0
  -19.6679  -27.3223   20.6764 H   0  0  0  0  0  0
  -17.4209  -26.6745   21.4033 H   0  0  0  0  0  0
  -18.0307  -26.0113   22.9048 H   0  0  0  0  0  0
  -19.7945  -30.7330   24.2255 H   0  0  0  0  0  0
  -17.5027  -31.6293   24.5204 H   0  0  0  0  0  0
  -15.5368  -30.3036   23.7661 H   0  0  0  0  0  0
  -15.8684  -28.0875   22.7048 H   0  0  0  0  0  0
  -24.5894  -30.7094   25.7788 H   0  0  0  0  0  0
  -24.8913  -32.2926   26.4831 H   0  0  0  0  0  0
  -25.8048  -30.8960   27.0233 H   0  0  0  0  0  0
  -26.2903  -29.6762   24.1191 H   0  0  0  0  0  0
  -27.3978  -29.7254   25.4713 H   0  0  0  0  0  0
  -27.8807  -30.4261   23.9447 H   0  0  0  0  0  0
  -27.2636  -33.3618   26.2066 H   0  0  0  0  0  0
  -28.3854  -32.6908   25.0330 H   0  0  0  0  0  0
  -28.0705  -31.8454   26.5407 H   0  0  0  0  0  0
  -28.2610  -38.0091   24.7529 H   0  0  0  0  0  0
  -28.1063  -36.2624   24.6283 H   0  0  0  0  0  0
  -27.2298  -37.1454   25.8870 H   0  0  0  0  0  0
  -20.9339  -29.8776   21.6865 H   0  0  0  0  0  0
  -26.0151  -38.2857   24.1427 H   0  0  0  0  0  0
  -27.6689  -24.6526   22.4384 H   0  0  0  0  0  0
  -28.0692  -22.7469   23.9602 H   0  0  0  0  0  0
  -29.3927  -22.3627   19.1748 H   0  0  0  0  0  0
  -31.3831  -20.7064   22.6216 H   0  0  0  0  0  0
  -30.2581  -17.9130   23.1756 H   0  0  0  0  0  0
  -31.2000  -18.8997   24.2706 H   0  0  0  0  0  0
  -31.9496  -18.3154   22.8075 H   0  0  0  0  0  0
  -29.3171  -25.0838   20.1347 H   0  0  0  0  0  0
  -27.3074  -24.8868   20.2121 H   0  0  0  0  0  0
  -28.8134  -18.6823   19.7765 H   0  0  0  0  0  0
  -28.7147  -18.3405   21.4646 H   0  0  0  0  0  0
  -32.1086  -19.4476   20.2312 H   0  0  0  0  0  0
  -31.8325  -21.1675   20.2856 H   0  0  0  0  0  0
  -31.2848  -17.3445   20.9978 H   0  0  0  0  0  0
  -30.7156  -17.3081   19.3864 H   0  0  0  0  0  0
  -28.8979  -15.7049   20.8447 H   0  0  0  0  0  0
  -31.7733  -20.3660   18.1743 H   0  0  0  0  0  0
  1 25  1  0  0  0
  1 30  2  0  0  0
  1 84  1  0  0  0
  2  3  1  0  0  0
  2 25  1  0  0  0
  2 87  1  0  0  0
  2 88  1  0  0  0
  3  4  1  0  0  0
  3 89  1  0  0  0
  3 90  1  0  0  0
  4  5  1  0  0  0
  4 91  1  0  0  0
  4 92  1  0  0  0
  5  6  1  0  0  0
  5 26  1  0  0  0
  5 93  1  0  0  0
  6 25  1  0  0  0
  6 94  1  0  0  0
  6 95  1  0  0  0
  7  8  2  0  0  0
  7 26  1  0  0  0
  7 29  1  0  0  0
  8  9  1  0  0  0
  8 22  1  0  0  0
  9 10  1  0  0  0
  9 27  2  0  0  0
 10 11  2  0  0  0
 10 15  1  0  0  0
 11 12  1  0  0  0
 11 96  1  0  0  0
 12 13  2  0  0  0
 12 97  1  0  0  0
 13 14  1  0  0  0
 13 31  1  0  0  0
 14 15  2  0  0  0
 14 98  1  0  0  0
 15 99  1  0  0  0
 16 17  2  0  0  0
 16 21  1  0  0  0
 16 31  1  0  0  0
 17 18  1  0  0  0
 17100  1  0  0  0
 18 19  2  0  0  0
 18101  1  0  0  0
 19 20  1  0  0  0
 19 24  1  0  0  0
 20 21  2  0  0  0
 20102  1  0  0  0
 21 23  1  0  0  0
 22 28  1  0  0  0
 22 32  2  0  0  0
 26 27  1  0  0  0
 28103  1  0  0  0
 28104  1  0  0  0
 29105  1  0  0  0
 29106  1  0  0  0
 33 34  1  0  0  0
 33 66  1  0  0  0
 33 70  2  0  0  0
 34 36  1  0  0  0
 34 59  1  0  0  0
 34107  1  0  0  0
 35 44  2  0  0  0
 35 45  1  0  0  0
 35 68  1  0  0  0
 36 56  1  0  0  0
 36108  1  0  0  0
 37 39  1  0  0  0
 37 47  1  0  0  0
 37 66  1  0  0  0
 37109  1  0  0  0
 38 43  2  0  0  0
 38 46  1  0  0  0
 38 47  1  0  0  0
 39 64  1  0  0  0
 39 67  2  0  0  0
 40 52  1  0  0  0
 40 53  2  0  0  0
 40 58  1  0  0  0
 41110  1  0  0  0
 41111  1  0  0  0
 41112  1  0  0  0
 41 48  1  0  0  0
 42 43  1  0  0  0
 42 66  1  0  0  0
 42113  1  0  0  0
 42114  1  0  0  0
 43 44  1  0  0  0
 44115  1  0  0  0
 45 46  2  0  0  0
 45116  1  0  0  0
 46117  1  0  0  0
 47118  1  0  0  0
 47119  1  0  0  0
 48 56  1  0  0  0
 48 65  1  0  0  0
 48120  1  0  0  0
 49 50  1  0  0  0
 49 53  1  0  0  0
 49 64  1  0  0  0
 49121  1  0  0  0
 50 51  1  0  0  0
 50122  1  0  0  0
 50123  1  0  0  0
 51 52  1  0  0  0
 51124  1  0  0  0
 51125  1  0  0  0
 52126  1  0  0  0
 52127  1  0  0  0
 53 54  1  0  0  0
 54 55  2  0  0  0
 54128  1  0  0  0
 55 57  1  0  0  0
 55129  1  0  0  0
 56 69  2  0  0  0
 57 58  2  0  0  0
 57130  1  0  0  0
 58131  1  0  0  0
 59 60  1  0  0  0
 59 61  1  0  0  0
 59 62  1  0  0  0
 60132  1  0  0  0
 60133  1  0  0  0
 60134  1  0  0  0
 61135  1  0  0  0
 61136  1  0  0  0
 61137  1  0  0  0
 62138  1  0  0  0
 62139  1  0  0  0
 62140  1  0  0  0
 63 65  1  0  0  0
 63141  1  0  0  0
 63142  1  0  0  0
 63143  1  0  0  0
 64144  1  0  0  0
 65145  1  0  0  0
 68 80  1  0  0  0
 71 72  2  0  0  0
 71 75  1  0  0  0
 71146  1  0  0  0
 72 76  1  0  0  0
 72147  1  0  0  0
 73 74  1  0  0  0
 73 75  2  0  0  0
 73148  1  0  0  0
 74 76  2  0  0  0
 74 78  1  0  0  0
 75 80  1  0  0  0
 76 85  1  0  0  0
 77 78  1  0  0  0
 77 79  1  0  0  0
 77 85  1  0  0  0
 77149  1  0  0  0
 78 81  1  0  0  0
 78 82  1  0  0  0
 79150  1  0  0  0
 79151  1  0  0  0
 79152  1  0  0  0
 80153  1  0  0  0
 80154  1  0  0  0
 81 83  1  0  0  0
 81155  1  0  0  0
 81156  1  0  0  0
 82 86  1  0  0  0
 82157  1  0  0  0
 82158  1  0  0  0
 83 84  1  0  0  0
 83159  1  0  0  0
 83160  1  0  0  0
 84161  1  0  0  0
 86162  1  0  0  0
M  ISO  4   1 100  68 101  80 101  84 100
M  END
> <chiral flag>
0

> <version>
0

> <s_m_source_file>
/data/baiqing/PycharmProjects/Reinvent-master-3.2/result/LINK_invent/BTK/process_docking_weight1_custom_sum_contain_oxygen_bond_distance_aromatic_linkinvent_7_9_3/rearranged_h_0143.sdf

> <i_m_source_file_index>
22

> <r_mmod_Potential_Energy-OPLS-2005>
442.105438232422

> <r_mmod_Stretch_Energy-OPLS-2005>
116.72826385498

> <r_mmod_Bend_Energy-OPLS-2005>
424.868865966797

> <r_mmod_Torsional_Energy-OPLS-2005>
244.463882446289

> <r_mmod_Improper_Torsional_Energy-OPLS-2005>
8.97091865539551

> <r_mmod_Van_der_Waal_Energy-OPLS-2005>
152.386138916016

> <r_mmod_Electrostatic_Energy-OPLS-2005>
-347.721527099609

> <r_mmod_Solvation_Energy-OPLS-2005>
-224.578262329102

> <b_mmod_Minimization_Converged-OPLS-2005>
0

> <r_mmod_RMS_Derivative-OPLS-2005>
2.19324350357056

$$$$
22
                    3D
 Structure written by MMmdl.
171180  0  0  1  0            999 V2000
  -30.6677  -14.4398   20.5766 C   0  0  0  0  0  0
  -30.4407  -12.2922   19.3961 C   0  0  0  0  0  0
  -29.4915  -12.5068   18.1967 C   0  0  0  0  0  0
  -28.0106  -12.3696   18.6139 C   0  0  0  0  0  0
  -27.6689  -13.1879   19.8872 C   0  0  2  0  0  0
  -28.7173  -12.9090   20.9883 C   0  0  0  0  0  0
  -25.2622  -13.8104   20.5738 C   0  0  0  0  0  0
  -24.1848  -13.0430   20.9222 C   0  0  0  0  0  0
  -24.6371  -11.6870   20.8807 C   0  0  0  0  0  0
  -23.9046  -10.4259   21.0476 C   0  0  0  0  0  0
  -24.3603   -9.4156   21.9228 C   0  0  0  0  0  0
  -23.6288   -8.2180   22.0783 C   0  0  0  0  0  0
  -22.4265   -8.0233   21.3572 C   0  0  0  0  0  0
  -21.9906   -9.0232   20.4691 C   0  0  0  0  0  0
  -22.7244  -10.2096   20.3109 C   0  0  0  0  0  0
  -21.6834   -6.0685   22.5292 C   0  0  0  0  0  0
  -21.3997   -6.5595   23.8224 C   0  0  0  0  0  0
  -21.3663   -5.6760   24.9191 C   0  0  0  0  0  0
  -21.6051   -4.3024   24.7254 C   0  0  0  0  0  0
  -21.8824   -3.8099   23.4386 C   0  0  0  0  0  0
  -21.9186   -4.6905   22.3425 C   0  0  0  0  0  0
  -22.7864  -13.5228   21.1910 C   0  0  0  0  0  0
  -22.1658   -4.2082   21.1005 F   0  0  0  0  0  0
  -21.5656   -3.4521   25.7774 F   0  0  0  0  0  0
  -30.0476  -13.2401   20.4444 N   0  0  0  0  0  0
  -26.3066  -12.9247   20.3464 N   0  0  0  0  0  0
  -25.9292  -11.6427   20.5833 N   0  0  0  0  0  0
  -22.0479  -12.8208   22.0438 N   0  0  0  0  0  0
  -25.4412  -15.1824   20.4177 N   0  0  0  0  0  0
  -31.7709  -14.7031   20.0920 O   0  0  0  0  0  0
  -21.6635   -6.8812   21.4239 O   0  0  0  0  0  0
  -22.3547  -14.5538   20.6756 O   0  0  0  0  0  0
  -24.6137  -31.8684   23.2096 C   0  0  0  0  0  0
  -25.9034  -32.4825   23.8382 C   0  0  1  0  0  0
  -27.2334  -27.4237   20.0898 C   0  0  0  0  0  0
  -25.5889  -33.8616   24.2341 N   0  0  0  0  0  0
  -23.4029  -30.4940   21.5479 C   0  0  2  0  0  0
  -24.8491  -28.9553   20.1163 C   0  0  0  0  0  0
  -22.7415  -29.4665   22.4948 C   0  0  0  0  0  0
  -18.0275  -28.1359   22.8504 C   0  0  0  0  0  0
  -24.1483  -36.7304   23.2641 C   0  0  0  0  0  0
  -25.9336  -30.8287   21.3664 C   0  0  0  0  0  0
  -26.0093  -29.4611   20.7138 C   0  0  0  0  0  0
  -27.2013  -28.7016   20.6978 C   0  0  0  0  0  0
  -26.0445  -26.9234   19.5102 C   0  0  0  0  0  0
  -24.8613  -27.6844   19.5180 C   0  0  0  0  0  0
  -23.6145  -29.8271   20.1614 C   0  0  0  0  0  0
  -25.4108  -36.3115   24.0353 C   0  0  1  0  0  0
  -20.5868  -28.3675   23.1305 C   0  0  2  0  0  0
  -20.6765  -26.9407   22.5417 C   0  0  0  0  0  0
  -19.5738  -26.6373   21.5218 C   0  0  0  0  0  0
  -18.1916  -26.7905   22.1632 C   0  0  0  0  0  0
  -19.1522  -28.8832   23.2906 C   0  0  0  0  0  0
  -18.9454  -30.1424   23.8940 C   0  0  0  0  0  0
  -17.6460  -30.6577   24.0559 C   0  0  0  0  0  0
  -25.9030  -34.9473   23.5148 C   0  0  0  0  0  0
  -16.5354  -29.9087   23.6304 C   0  0  0  0  0  0
  -16.7267  -28.6484   23.0368 C   0  0  0  0  0  0
  -26.4457  -31.6606   25.0717 C   0  0  0  0  0  0
  -25.3707  -31.3765   26.1470 C   0  0  0  0  0  0
  -27.0286  -30.3037   24.6106 C   0  0  0  0  0  0
  -27.6033  -32.4323   25.7476 C   0  0  0  0  0  0
  -27.5581  -37.1820   24.8472 C   0  0  0  0  0  0
  -21.4139  -29.3033   22.3689 N   0  0  0  0  0  0
  -26.4296  -37.3798   23.9407 N   0  0  0  0  0  0
  -24.6683  -31.0790   22.0996 N   0  0  0  0  0  0
  -23.4207  -28.8198   23.2962 O   0  0  0  0  0  0
  -28.4239  -26.7238   20.0931 O   0  0  0  0  0  0
  -26.5585  -34.8915   22.4704 O   0  0  0  0  0  0
  -23.5328  -32.1434   23.7491 O   0  0  0  0  0  0
  -26.3491  -19.7080   21.3986 C   0  0  0  0  0  0
  -27.5941  -21.2794   20.0098 C   0  0  0  0  0  0
  -25.6700  -20.7665   22.0333 C   0  0  0  0  0  0
  -25.9253  -22.0985   21.6037 C   0  0  0  0  0  0
  -27.3238  -19.9467   20.4158 C   0  0  0  0  0  0
  -26.8882  -22.3649   20.5966 C   0  0  0  0  0  0
  -25.1998  -23.2644   22.2648 C   0  0  0  0  0  0
  -24.0057  -22.8218   23.1229 C   0  0  0  0  0  0
  -24.6581  -20.4589   23.1542 C   0  0  1  0  0  0
  -25.0823  -19.2990   24.0841 C   0  0  0  0  0  0
  -29.8152  -17.4094   19.6267 C   0  0  0  0  0  0
  -29.9994  -16.8333   21.0532 C   0  0  0  0  0  0
  -29.3197  -18.8720   19.6225 C   0  0  0  0  0  0
  -28.5574  -25.4942   19.3609 C   0  0  0  0  0  0
  -28.3821  -24.2101   20.2158 C   0  0  0  0  0  0
  -29.8790  -15.3755   21.1205 N   0  0  0  0  0  0
  -24.3724  -21.6640   23.9579 N   0  3  0  0  0  0
  -27.9227  -18.8270   19.8866 O   0  0  0  0  0  0
  -27.0546  -23.6758   20.1793 O   0  0  0  0  0  0
  -31.4806  -12.4196   19.0874 H   0  0  0  0  0  0
  -30.3681  -11.2714   19.7781 H   0  0  0  0  0  0
  -29.7283  -11.7975   17.4031 H   0  0  0  0  0  0
  -29.6493  -13.5013   17.7719 H   0  0  0  0  0  0
  -27.8069  -11.3125   18.7882 H   0  0  0  0  0  0
  -27.3600  -12.6690   17.7905 H   0  0  0  0  0  0
  -27.7301  -14.2400   19.6160 H   0  0  0  0  0  0
  -28.6984  -11.8513   21.2602 H   0  0  0  0  0  0
  -28.4849  -13.4418   21.9098 H   0  0  0  0  0  0
  -25.2754   -9.5593   22.4810 H   0  0  0  0  0  0
  -23.9989   -7.4539   22.7477 H   0  0  0  0  0  0
  -21.0841   -8.8748   19.8986 H   0  0  0  0  0  0
  -22.3721  -10.9639   19.6225 H   0  0  0  0  0  0
  -21.1966   -7.6095   23.9725 H   0  0  0  0  0  0
  -21.1502   -6.0484   25.9102 H   0  0  0  0  0  0
  -22.0598   -2.7559   23.2932 H   0  0  0  0  0  0
  -22.4072  -11.9840   22.4807 H   0  0  0  0  0  0
  -21.1106  -13.1238   22.2691 H   0  0  0  0  0  0
  -24.6810  -15.8421   20.5320 H   0  0  0  0  0  0
  -26.3083  -15.6230   20.1390 H   0  0  0  0  0  0
  -26.7112  -32.5543   23.1139 H   0  0  0  0  0  0
  -25.0066  -33.9783   25.0511 H   0  0  0  0  0  0
  -22.6910  -31.3108   21.4092 H   0  0  0  0  0  0
  -23.3745  -35.9630   23.3318 H   0  0  0  0  0  0
  -24.3588  -36.8896   22.2049 H   0  0  0  0  0  0
  -23.7217  -37.6518   23.6625 H   0  0  0  0  0  0
  -26.0476  -31.5928   20.5960 H   0  0  0  0  0  0
  -26.8217  -30.8828   21.9844 H   0  0  0  0  0  0
  -28.1007  -29.0937   21.1526 H   0  0  0  0  0  0
  -26.0011  -25.9428   19.0630 H   0  0  0  0  0  0
  -23.9659  -27.2823   19.0660 H   0  0  0  0  0  0
  -23.7340  -30.6038   19.4048 H   0  0  0  0  0  0
  -22.7367  -29.2536   19.8570 H   0  0  0  0  0  0
  -25.1271  -36.1990   25.0844 H   0  0  0  0  0  0
  -20.9985  -28.3249   24.1417 H   0  0  0  0  0  0
  -20.5661  -26.2298   23.3619 H   0  0  0  0  0  0
  -21.6638  -26.7421   22.1220 H   0  0  0  0  0  0
  -19.6899  -25.6290   21.1226 H   0  0  0  0  0  0
  -19.6649  -27.3208   20.6766 H   0  0  0  0  0  0
  -17.4189  -26.6666   21.4025 H   0  0  0  0  0  0
  -18.0305  -26.0028   22.9009 H   0  0  0  0  0  0
  -19.7938  -30.7190   24.2370 H   0  0  0  0  0  0
  -17.5029  -31.6274   24.5129 H   0  0  0  0  0  0
  -15.5364  -30.3012   23.7584 H   0  0  0  0  0  0
  -15.8665  -28.0794   22.7108 H   0  0  0  0  0  0
  -24.5851  -30.7139   25.7833 H   0  0  0  0  0  0
  -24.8927  -32.2951   26.4868 H   0  0  0  0  0  0
  -25.8025  -30.8967   27.0255 H   0  0  0  0  0  0
  -26.2862  -29.6820   24.1090 H   0  0  0  0  0  0
  -27.3996  -29.7239   25.4567 H   0  0  0  0  0  0
  -27.8701  -30.4362   23.9305 H   0  0  0  0  0  0
  -27.2655  -33.3608   26.2068 H   0  0  0  0  0  0
  -28.3814  -32.6910   25.0294 H   0  0  0  0  0  0
  -28.0706  -31.8433   26.5372 H   0  0  0  0  0  0
  -28.2629  -38.0097   24.7504 H   0  0  0  0  0  0
  -28.1049  -36.2627   24.6302 H   0  0  0  0  0  0
  -27.2301  -37.1484   25.8882 H   0  0  0  0  0  0
  -20.9296  -29.8809   21.6953 H   0  0  0  0  0  0
  -26.0190  -38.2877   24.1397 H   0  0  0  0  0  0
  -26.1355  -18.6845   21.6714 H   0  0  0  0  0  0
  -28.2976  -21.4649   19.2091 H   0  0  0  0  0  0
  -24.8510  -23.9602   21.5001 H   0  0  0  0  0  0
  -25.9189  -23.8103   22.8751 H   0  0  0  0  0  0
  -23.1644  -22.5462   22.4844 H   0  0  0  0  0  0
  -23.6683  -23.6445   23.7539 H   0  0  0  0  0  0
  -23.7263  -20.1613   22.6666 H   0  0  0  0  0  0
  -26.0694  -19.4636   24.5199 H   0  0  0  0  0  0
  -25.1032  -18.3427   23.5615 H   0  0  0  0  0  0
  -24.3767  -19.1758   24.9065 H   0  0  0  0  0  0
  -29.1159  -16.8002   19.0519 H   0  0  0  0  0  0
  -30.7658  -17.3559   19.0957 H   0  0  0  0  0  0
  -29.2092  -17.2307   21.6909 H   0  0  0  0  0  0
  -30.9432  -17.1654   21.4888 H   0  0  0  0  0  0
  -29.5034  -19.3363   18.6527 H   0  0  0  0  0  0
  -29.8562  -19.4518   20.3773 H   0  0  0  0  0  0
  -27.9927  -25.4619   18.4289 H   0  0  0  0  0  0
  -29.5946  -25.5103   19.0214 H   0  0  0  0  0  0
  -28.6655  -24.4169   21.2480 H   0  0  0  0  0  0
  -29.0925  -23.4714   19.8515 H   0  0  0  0  0  0
  -29.0136  -15.0146   21.5006 H   0  0  0  0  0  0
  -23.6158  -21.4615   24.5921 H   0  0  0  0  0  0
  -25.1863  -21.8927   24.5052 H   0  0  0  0  0  0
  1 25  1  0  0  0
  1 30  2  0  0  0
  1 86  1  0  0  0
  2  3  1  0  0  0
  2 25  1  0  0  0
  2 90  1  0  0  0
  2 91  1  0  0  0
  3  4  1  0  0  0
  3 92  1  0  0  0
  3 93  1  0  0  0
  4  5  1  0  0  0
  4 94  1  0  0  0
  4 95  1  0  0  0
  5  6  1  0  0  0
  5 26  1  0  0  0
  5 96  1  0  0  0
  6 25  1  0  0  0
  6 97  1  0  0  0
  6 98  1  0  0  0
  7  8  2  0  0  0
  7 26  1  0  0  0
  7 29  1  0  0  0
  8  9  1  0  0  0
  8 22  1  0  0  0
  9 10  1  0  0  0
  9 27  2  0  0  0
 10 11  2  0  0  0
 10 15  1  0  0  0
 11 12  1  0  0  0
 11 99  1  0  0  0
 12 13  2  0  0  0
 12100  1  0  0  0
 13 14  1  0  0  0
 13 31  1  0  0  0
 14 15  2  0  0  0
 14101  1  0  0  0
 15102  1  0  0  0
 16 17  2  0  0  0
 16 21  1  0  0  0
 16 31  1  0  0  0
 17 18  1  0  0  0
 17103  1  0  0  0
 18 19  2  0  0  0
 18104  1  0  0  0
 19 20  1  0  0  0
 19 24  1  0  0  0
 20 21  2  0  0  0
 20105  1  0  0  0
 21 23  1  0  0  0
 22 28  1  0  0  0
 22 32  2  0  0  0
 26 27  1  0  0  0
 28106  1  0  0  0
 28107  1  0  0  0
 29108  1  0  0  0
 29109  1  0  0  0
 33 34  1  0  0  0
 33 66  1  0  0  0
 33 70  2  0  0  0
 34 36  1  0  0  0
 34 59  1  0  0  0
 34110  1  0  0  0
 35 44  2  0  0  0
 35 45  1  0  0  0
 35 68  1  0  0  0
 36 56  1  0  0  0
 36111  1  0  0  0
 37 39  1  0  0  0
 37 47  1  0  0  0
 37 66  1  0  0  0
 37112  1  0  0  0
 38 43  2  0  0  0
 38 46  1  0  0  0
 38 47  1  0  0  0
 39 64  1  0  0  0
 39 67  2  0  0  0
 40 52  1  0  0  0
 40 53  2  0  0  0
 40 58  1  0  0  0
 41113  1  0  0  0
 41114  1  0  0  0
 41115  1  0  0  0
 41 48  1  0  0  0
 42 43  1  0  0  0
 42 66  1  0  0  0
 42116  1  0  0  0
 42117  1  0  0  0
 43 44  1  0  0  0
 44118  1  0  0  0
 45 46  2  0  0  0
 45119  1  0  0  0
 46120  1  0  0  0
 47121  1  0  0  0
 47122  1  0  0  0
 48 56  1  0  0  0
 48 65  1  0  0  0
 48123  1  0  0  0
 49 50  1  0  0  0
 49 53  1  0  0  0
 49 64  1  0  0  0
 49124  1  0  0  0
 50 51  1  0  0  0
 50125  1  0  0  0
 50126  1  0  0  0
 51 52  1  0  0  0
 51127  1  0  0  0
 51128  1  0  0  0
 52129  1  0  0  0
 52130  1  0  0  0
 53 54  1  0  0  0
 54 55  2  0  0  0
 54131  1  0  0  0
 55 57  1  0  0  0
 55132  1  0  0  0
 56 69  2  0  0  0
 57 58  2  0  0  0
 57133  1  0  0  0
 58134  1  0  0  0
 59 60  1  0  0  0
 59 61  1  0  0  0
 59 62  1  0  0  0
 60135  1  0  0  0
 60136  1  0  0  0
 60137  1  0  0  0
 61138  1  0  0  0
 61139  1  0  0  0
 61140  1  0  0  0
 62141  1  0  0  0
 62142  1  0  0  0
 62143  1  0  0  0
 63 65  1  0  0  0
 63144  1  0  0  0
 63145  1  0  0  0
 63146  1  0  0  0
 64147  1  0  0  0
 65148  1  0  0  0
 68 84  1  0  0  0
 71 73  2  0  0  0
 71 75  1  0  0  0
 71149  1  0  0  0
 72 75  2  0  0  0
 72 76  1  0  0  0
 72150  1  0  0  0
 73 74  1  0  0  0
 73 79  1  0  0  0
 74 76  2  0  0  0
 74 77  1  0  0  0
 75 88  1  0  0  0
 76 89  1  0  0  0
 77 78  1  0  0  0
 77151  1  0  0  0
 77152  1  0  0  0
 78 87  1  0  0  0
 78153  1  0  0  0
 78154  1  0  0  0
 79 80  1  0  0  0
 79 87  1  0  0  0
 79155  1  0  0  0
 80156  1  0  0  0
 80157  1  0  0  0
 80158  1  0  0  0
 81 82  1  0  0  0
 81 83  1  0  0  0
 81159  1  0  0  0
 81160  1  0  0  0
 82 86  1  0  0  0
 82161  1  0  0  0
 82162  1  0  0  0
 83 88  1  0  0  0
 83163  1  0  0  0
 83164  1  0  0  0
 84 85  1  0  0  0
 84165  1  0  0  0
 84166  1  0  0  0
 85 89  1  0  0  0
 85167  1  0  0  0
 85168  1  0  0  0
 86169  1  0  0  0
 87170  1  0  0  0
 87171  1  0  0  0
M  CHG  1  87   1
M  ISO  4   1 100  68 101  84 101  86 100
M  END
> <chiral flag>
0

> <version>
0

> <s_m_source_file>
/data/baiqing/PycharmProjects/Reinvent-master-3.2/result/LINK_invent/BTK/process_docking_weight1_custom_sum_contain_oxygen_bond_distance_aromatic_linkinvent_7_9_3/rearranged_h_0143.sdf

> <i_m_source_file_index>
23

> <r_mmod_Potential_Energy-OPLS-2005>
-253.041534423828

> <r_mmod_Stretch_Energy-OPLS-2005>
40.1064262390137

> <r_mmod_Bend_Energy-OPLS-2005>
118.034805297852

> <r_mmod_Torsional_Energy-OPLS-2005>
247.771255493164

> <r_mmod_Improper_Torsional_Energy-OPLS-2005>
4.67489147186279

> <r_mmod_Van_der_Waal_Energy-OPLS-2005>
154.861175537109

> <r_mmod_Electrostatic_Energy-OPLS-2005>
-356.564514160156

> <r_mmod_Solvation_Energy-OPLS-2005>
-474.101104736328

> <b_mmod_Minimization_Converged-OPLS-2005>
0

> <r_mmod_RMS_Derivative-OPLS-2005>
4.01772212982178

$$$$
23
                    3D
 Structure written by MMmdl.
167177  0  0  1  0            999 V2000
  -30.5935  -14.8102   20.3278 C   0  0  0  0  0  0
  -30.4442  -12.4655   19.4651 C   0  0  0  0  0  0
  -29.5101  -12.3720   18.2384 C   0  0  0  0  0  0
  -28.0294  -12.2688   18.6611 C   0  0  0  0  0  0
  -27.6320  -13.2142   19.8284 C   0  0  2  0  0  0
  -28.6919  -13.2349   20.9459 C   0  0  0  0  0  0
  -25.2506  -13.8123   20.5808 C   0  0  0  0  0  0
  -24.1772  -13.0386   20.9231 C   0  0  0  0  0  0
  -24.6359  -11.6873   20.8771 C   0  0  0  0  0  0
  -23.9043  -10.4264   21.0418 C   0  0  0  0  0  0
  -24.3603   -9.4183   21.9191 C   0  0  0  0  0  0
  -23.6280   -8.2221   22.0755 C   0  0  0  0  0  0
  -22.4263   -8.0265   21.3544 C   0  0  0  0  0  0
  -21.9897   -9.0236   20.4645 C   0  0  0  0  0  0
  -22.7222  -10.2115   20.3057 C   0  0  0  0  0  0
  -21.6844   -6.0726   22.5279 C   0  0  0  0  0  0
  -21.4008   -6.5632   23.8212 C   0  0  0  0  0  0
  -21.3658   -5.6786   24.9176 C   0  0  0  0  0  0
  -21.6046   -4.3049   24.7227 C   0  0  0  0  0  0
  -21.8818   -3.8140   23.4348 C   0  0  0  0  0  0
  -21.9190   -4.6956   22.3403 C   0  0  0  0  0  0
  -22.7800  -13.5194   21.1877 C   0  0  0  0  0  0
  -22.1659   -4.2142   21.0981 F   0  0  0  0  0  0
  -21.5632   -3.4533   25.7741 F   0  0  0  0  0  0
  -29.9659  -13.5814   20.3079 N   0  0  0  0  0  0
  -26.2913  -12.9317   20.3306 N   0  0  0  0  0  0
  -25.9287  -11.6481   20.5808 N   0  0  0  0  0  0
  -22.0438  -12.8192   22.0430 N   0  0  0  0  0  0
  -25.4181  -15.1847   20.4440 N   0  0  0  0  0  0
  -31.8263  -14.8432   20.3533 O   0  0  0  0  0  0
  -21.6626   -6.8865   21.4240 O   0  0  0  0  0  0
  -22.3499  -14.5505   20.6722 O   0  0  0  0  0  0
  -24.6297  -31.8558   23.1981 C   0  0  0  0  0  0
  -25.9126  -32.4756   23.8329 C   0  0  1  0  0  0
  -27.2254  -27.2631   20.1471 C   0  0  0  0  0  0
  -25.5926  -33.8558   24.2251 N   0  0  0  0  0  0
  -23.4265  -30.4755   21.5418 C   0  0  2  0  0  0
  -24.8748  -28.9150   20.1198 C   0  0  0  0  0  0
  -22.7491  -29.4600   22.4931 C   0  0  0  0  0  0
  -18.0288  -28.1385   22.8485 C   0  0  0  0  0  0
  -24.1489  -36.7284   23.2641 C   0  0  0  0  0  0
  -25.9706  -30.7680   21.3789 C   0  0  0  0  0  0
  -26.0435  -29.3867   20.7309 C   0  0  0  0  0  0
  -27.2207  -28.5740   20.7311 C   0  0  0  0  0  0
  -26.0407  -26.8625   19.4951 C   0  0  0  0  0  0
  -24.8781  -27.6596   19.4908 C   0  0  0  0  0  0
  -23.6457  -29.8029   20.1605 C   0  0  0  0  0  0
  -25.4117  -36.3071   24.0327 C   0  0  1  0  0  0
  -20.5889  -28.3692   23.1276 C   0  0  2  0  0  0
  -20.6774  -26.9411   22.5411 C   0  0  0  0  0  0
  -19.5751  -26.6383   21.5212 C   0  0  0  0  0  0
  -18.1931  -26.7928   22.1623 C   0  0  0  0  0  0
  -19.1542  -28.8856   23.2874 C   0  0  0  0  0  0
  -18.9463  -30.1458   23.8891 C   0  0  0  0  0  0
  -17.6463  -30.6587   24.0561 C   0  0  0  0  0  0
  -25.9057  -34.9441   23.5094 C   0  0  0  0  0  0
  -16.5354  -29.9083   23.6333 C   0  0  0  0  0  0
  -16.7275  -28.6501   23.0353 C   0  0  0  0  0  0
  -26.4498  -31.6584   25.0720 C   0  0  0  0  0  0
  -25.3718  -31.3738   26.1438 C   0  0  0  0  0  0
  -27.0348  -30.3001   24.6210 C   0  0  0  0  0  0
  -27.6048  -32.4330   25.7491 C   0  0  0  0  0  0
  -27.5579  -37.1797   24.8465 C   0  0  0  0  0  0
  -21.4200  -29.3040   22.3667 N   0  0  0  0  0  0
  -26.4291  -37.3769   23.9409 N   0  0  0  0  0  0
  -24.6945  -31.0522   22.0958 N   0  0  0  0  0  0
  -23.4192  -28.8151   23.3038 O   0  0  0  0  0  0
  -28.3602  -26.4248   20.1156 O   0  0  0  0  0  0
  -26.5631  -34.8916   22.4664 O   0  0  0  0  0  0
  -23.5449  -32.1381   23.7278 O   0  0  0  0  0  0
  -30.3105  -19.5156   21.0795 C   0  0  0  0  0  0
  -30.5114  -18.0981   20.8925 C   0  0  0  0  0  0
  -28.3138  -19.4211   19.8035 C   0  0  0  0  0  0
  -29.2126  -20.2470   20.5250 C   0  0  0  0  0  0
  -28.4911  -18.0119   19.6166 C   0  0  0  0  0  0
  -29.6270  -17.2788   20.1263 C   0  0  0  0  0  0
  -27.5403  -22.4307   20.5691 C   0  0  0  0  0  0
  -29.9426  -22.8195   20.0245 C   0  0  0  0  0  0
  -30.3747  -16.8700   17.3301 C   0  0  0  0  0  0
  -31.1525  -15.5855   17.4031 C   0  0  0  0  0  0
  -27.3904  -23.9136   20.0098 C   0  0  0  0  0  0
  -29.8045  -24.3507   20.4408 C   0  0  0  0  0  0
  -28.9879  -21.8271   20.7522 C   0  0  2  0  0  0
  -29.8877  -15.7454   18.2364 C   0  0  0  0  0  0
  -28.3699  -24.9893   20.5812 C   0  0  1  0  0  0
  -27.3988  -17.3494   18.7938 C   0  0  0  0  0  0
  -29.9307  -15.8706   19.6845 N   0  0  0  0  0  0
  -31.4747  -12.6165   19.1386 H   0  0  0  0  0  0
  -30.4365  -11.5327   20.0311 H   0  0  0  0  0  0
  -29.7762  -11.4932   17.6493 H   0  0  0  0  0  0
  -29.6600  -13.2080   17.5638 H   0  0  0  0  0  0
  -27.8679  -11.2346   18.9664 H   0  0  0  0  0  0
  -27.3772  -12.4303   17.8020 H   0  0  0  0  0  0
  -27.5964  -14.2081   19.3974 H   0  0  0  0  0  0
  -28.7557  -12.2701   21.4508 H   0  0  0  0  0  0
  -28.4341  -13.9760   21.7044 H   0  0  0  0  0  0
  -25.2748   -9.5660   22.4767 H   0  0  0  0  0  0
  -23.9988   -7.4608   22.7470 H   0  0  0  0  0  0
  -21.0829   -8.8753   19.8950 H   0  0  0  0  0  0
  -22.3684  -10.9657   19.6166 H   0  0  0  0  0  0
  -21.1995   -7.6141   23.9712 H   0  0  0  0  0  0
  -21.1484   -6.0520   25.9079 H   0  0  0  0  0  0
  -22.0603   -2.7602   23.2853 H   0  0  0  0  0  0
  -22.4049  -11.9851   22.4817 H   0  0  0  0  0  0
  -21.1057  -13.1223   22.2631 H   0  0  0  0  0  0
  -24.6594  -15.8388   20.6005 H   0  0  0  0  0  0
  -26.3005  -15.6369   20.2482 H   0  0  0  0  0  0
  -26.7191  -32.5409   23.1071 H   0  0  0  0  0  0
  -25.0065  -33.9697   25.0390 H   0  0  0  0  0  0
  -22.7229  -31.2971   21.3928 H   0  0  0  0  0  0
  -23.3753  -35.9614   23.3301 H   0  0  0  0  0  0
  -24.3577  -36.8909   22.2055 H   0  0  0  0  0  0
  -23.7242  -37.6484   23.6667 H   0  0  0  0  0  0
  -26.1075  -31.5237   20.6042 H   0  0  0  0  0  0
  -26.8491  -30.8211   22.0103 H   0  0  0  0  0  0
  -28.1213  -28.9382   21.2052 H   0  0  0  0  0  0
  -26.0070  -25.9273   18.9595 H   0  0  0  0  0  0
  -23.9897  -27.2996   18.9906 H   0  0  0  0  0  0
  -23.7709  -30.5754   19.4010 H   0  0  0  0  0  0
  -22.7646  -29.2345   19.8575 H   0  0  0  0  0  0
  -25.1300  -36.1917   25.0820 H   0  0  0  0  0  0
  -20.9979  -28.3267   24.1398 H   0  0  0  0  0  0
  -20.5669  -26.2302   23.3613 H   0  0  0  0  0  0
  -21.6642  -26.7433   22.1206 H   0  0  0  0  0  0
  -19.6911  -25.6293   21.1242 H   0  0  0  0  0  0
  -19.6688  -27.3192   20.6740 H   0  0  0  0  0  0
  -17.4200  -26.6676   21.4025 H   0  0  0  0  0  0
  -18.0329  -26.0070   22.9020 H   0  0  0  0  0  0
  -19.7940  -30.7276   24.2254 H   0  0  0  0  0  0
  -17.5018  -31.6265   24.5163 H   0  0  0  0  0  0
  -15.5354  -30.2982   23.7660 H   0  0  0  0  0  0
  -15.8675  -28.0817   22.7072 H   0  0  0  0  0  0
  -24.5894  -30.7085   25.7766 H   0  0  0  0  0  0
  -24.8905  -32.2909   26.4845 H   0  0  0  0  0  0
  -25.8028  -30.8927   27.0225 H   0  0  0  0  0  0
  -26.2934  -29.6742   24.1226 H   0  0  0  0  0  0
  -27.4023  -29.7270   25.4733 H   0  0  0  0  0  0
  -27.8814  -30.4278   23.9458 H   0  0  0  0  0  0
  -27.2653  -33.3635   26.2052 H   0  0  0  0  0  0
  -28.3862  -32.6885   25.0320 H   0  0  0  0  0  0
  -28.0712  -31.8468   26.5419 H   0  0  0  0  0  0
  -28.2597  -38.0093   24.7510 H   0  0  0  0  0  0
  -28.1074  -36.2624   24.6293 H   0  0  0  0  0  0
  -27.2295  -37.1447   25.8867 H   0  0  0  0  0  0
  -20.9387  -29.8756   21.6865 H   0  0  0  0  0  0
  -26.0170  -38.2844   24.1405 H   0  0  0  0  0  0
  -31.0449  -20.0588   21.6580 H   0  0  0  0  0  0
  -31.4068  -17.6533   21.3038 H   0  0  0  0  0  0
  -27.4441  -19.8686   19.3487 H   0  0  0  0  0  0
  -26.9577  -21.8159   19.8891 H   0  0  0  0  0  0
  -27.0192  -22.3524   21.5241 H   0  0  0  0  0  0
  -30.9750  -22.5089   20.1886 H   0  0  0  0  0  0
  -29.7795  -22.7283   18.9498 H   0  0  0  0  0  0
  -29.8082  -17.0606   16.4205 H   0  0  0  0  0  0
  -30.8450  -17.7475   17.7701 H   0  0  0  0  0  0
  -32.1246  -15.6367   17.8889 H   0  0  0  0  0  0
  -31.1056  -14.9263   16.5382 H   0  0  0  0  0  0
  -26.3626  -24.2166   20.2013 H   0  0  0  0  0  0
  -27.5025  -23.8913   18.9251 H   0  0  0  0  0  0
  -30.3311  -24.5035   21.3836 H   0  0  0  0  0  0
  -30.3674  -24.9334   19.7110 H   0  0  0  0  0  0
  -29.2190  -21.9556   21.8110 H   0  0  0  0  0  0
  -29.0066  -15.2386   17.8529 H   0  0  0  0  0  0
  -28.1508  -25.0436   21.6487 H   0  0  0  0  0  0
  -26.4220  -17.7730   19.0301 H   0  0  0  0  0  0
  -27.3359  -16.2863   18.9813 H   0  0  0  0  0  0
  -27.5774  -17.5007   17.7295 H   0  0  0  0  0  0
  1 25  1  0  0  0
  1 30  2  0  0  0
  1 87  1  0  0  0
  2  3  1  0  0  0
  2 25  1  0  0  0
  2 88  1  0  0  0
  2 89  1  0  0  0
  3  4  1  0  0  0
  3 90  1  0  0  0
  3 91  1  0  0  0
  4  5  1  0  0  0
  4 92  1  0  0  0
  4 93  1  0  0  0
  5  6  1  0  0  0
  5 26  1  0  0  0
  5 94  1  0  0  0
  6 25  1  0  0  0
  6 95  1  0  0  0
  6 96  1  0  0  0
  7  8  2  0  0  0
  7 26  1  0  0  0
  7 29  1  0  0  0
  8  9  1  0  0  0
  8 22  1  0  0  0
  9 10  1  0  0  0
  9 27  2  0  0  0
 10 11  2  0  0  0
 10 15  1  0  0  0
 11 12  1  0  0  0
 11 97  1  0  0  0
 12 13  2  0  0  0
 12 98  1  0  0  0
 13 14  1  0  0  0
 13 31  1  0  0  0
 14 15  2  0  0  0
 14 99  1  0  0  0
 15100  1  0  0  0
 16 17  2  0  0  0
 16 21  1  0  0  0
 16 31  1  0  0  0
 17 18  1  0  0  0
 17101  1  0  0  0
 18 19  2  0  0  0
 18102  1  0  0  0
 19 20  1  0  0  0
 19 24  1  0  0  0
 20 21  2  0  0  0
 20103  1  0  0  0
 21 23  1  0  0  0
 22 28  1  0  0  0
 22 32  2  0  0  0
 26 27  1  0  0  0
 28104  1  0  0  0
 28105  1  0  0  0
 29106  1  0  0  0
 29107  1  0  0  0
 33 34  1  0  0  0
 33 66  1  0  0  0
 33 70  2  0  0  0
 34 36  1  0  0  0
 34 59  1  0  0  0
 34108  1  0  0  0
 35 44  2  0  0  0
 35 45  1  0  0  0
 35 68  1  0  0  0
 36 56  1  0  0  0
 36109  1  0  0  0
 37 39  1  0  0  0
 37 47  1  0  0  0
 37 66  1  0  0  0
 37110  1  0  0  0
 38 43  2  0  0  0
 38 46  1  0  0  0
 38 47  1  0  0  0
 39 64  1  0  0  0
 39 67  2  0  0  0
 40 52  1  0  0  0
 40 53  2  0  0  0
 40 58  1  0  0  0
 41111  1  0  0  0
 41112  1  0  0  0
 41113  1  0  0  0
 41 48  1  0  0  0
 42 43  1  0  0  0
 42 66  1  0  0  0
 42114  1  0  0  0
 42115  1  0  0  0
 43 44  1  0  0  0
 44116  1  0  0  0
 45 46  2  0  0  0
 45117  1  0  0  0
 46118  1  0  0  0
 47119  1  0  0  0
 47120  1  0  0  0
 48 56  1  0  0  0
 48 65  1  0  0  0
 48121  1  0  0  0
 49 50  1  0  0  0
 49 53  1  0  0  0
 49 64  1  0  0  0
 49122  1  0  0  0
 50 51  1  0  0  0
 50123  1  0  0  0
 50124  1  0  0  0
 51 52  1  0  0  0
 51125  1  0  0  0
 51126  1  0  0  0
 52127  1  0  0  0
 52128  1  0  0  0
 53 54  1  0  0  0
 54 55  2  0  0  0
 54129  1  0  0  0
 55 57  1  0  0  0
 55130  1  0  0  0
 56 69  2  0  0  0
 57 58  2  0  0  0
 57131  1  0  0  0
 58132  1  0  0  0
 59 60  1  0  0  0
 59 61  1  0  0  0
 59 62  1  0  0  0
 60133  1  0  0  0
 60134  1  0  0  0
 60135  1  0  0  0
 61136  1  0  0  0
 61137  1  0  0  0
 61138  1  0  0  0
 62139  1  0  0  0
 62140  1  0  0  0
 62141  1  0  0  0
 63 65  1  0  0  0
 63142  1  0  0  0
 63143  1  0  0  0
 63144  1  0  0  0
 64145  1  0  0  0
 65146  1  0  0  0
 68 85  1  0  0  0
 71 72  2  0  0  0
 71 74  1  0  0  0
 71147  1  0  0  0
 72 76  1  0  0  0
 72148  1  0  0  0
 73 74  2  0  0  0
 73 75  1  0  0  0
 73149  1  0  0  0
 74 83  1  0  0  0
 75 76  2  0  0  0
 75 86  1  0  0  0
 76 87  1  0  0  0
 77 81  1  0  0  0
 77 83  1  0  0  0
 77150  1  0  0  0
 77151  1  0  0  0
 78 82  1  0  0  0
 78 83  1  0  0  0
 78152  1  0  0  0
 78153  1  0  0  0
 79 80  1  0  0  0
 79 84  1  0  0  0
 79154  1  0  0  0
 79155  1  0  0  0
 80 84  1  0  0  0
 80156  1  0  0  0
 80157  1  0  0  0
 81 85  1  0  0  0
 81158  1  0  0  0
 81159  1  0  0  0
 82 85  1  0  0  0
 82160  1  0  0  0
 82161  1  0  0  0
 83162  1  0  0  0
 84 87  1  0  0  0
 84163  1  0  0  0
 85164  1  0  0  0
 86165  1  0  0  0
 86166  1  0  0  0
 86167  1  0  0  0
M  ISO  4   1 100  68 101  85 101  87 100
M  END
> <chiral flag>
0

> <version>
0

> <s_m_source_file>
/data/baiqing/PycharmProjects/Reinvent-master-3.2/result/LINK_invent/BTK/process_docking_weight1_custom_sum_contain_oxygen_bond_distance_aromatic_linkinvent_7_9_3/rearranged_h_0143.sdf

> <i_m_source_file_index>
24

> <r_mmod_Potential_Energy-OPLS-2005>
583.70654296875

> <r_mmod_Stretch_Energy-OPLS-2005>
127.573577880859

> <r_mmod_Bend_Energy-OPLS-2005>
207.74836730957

> <r_mmod_Torsional_Energy-OPLS-2005>
455.665710449219

> <r_mmod_Improper_Torsional_Energy-OPLS-2005>
25.9461212158203

> <r_mmod_Van_der_Waal_Energy-OPLS-2005>
146.73616027832

> <r_mmod_Electrostatic_Energy-OPLS-2005>
-312.944366455078

> <r_mmod_Solvation_Energy-OPLS-2005>
-182.106735229492

> <b_mmod_Minimization_Converged-OPLS-2005>
0

> <r_mmod_RMS_Derivative-OPLS-2005>
0.426893144845963

$$$$
24
                    3D
 Structure written by MMmdl.
167176  0  0  1  0            999 V2000
  -31.4327  -14.3933   20.6638 C   0  0  0  0  0  0
  -30.9854  -12.4862   18.9809 C   0  0  0  0  0  0
  -29.6734  -12.4889   18.1389 C   0  0  0  0  0  0
  -28.9760  -13.8355   18.3908 C   0  0  0  0  0  0
  -28.4864  -14.3277   19.9431 C   0  0  2  0  0  0
  -29.6183  -13.1685   20.6141 C   0  0  0  0  0  0
  -24.5136  -14.4490   20.5995 C   0  0  0  0  0  0
  -23.6835  -13.3617   20.7660 C   0  0  0  0  0  0
  -24.3432  -12.1362   20.9342 C   0  0  0  0  0  0
  -23.8516  -10.6777   21.0798 C   0  0  0  0  0  0
  -24.3524   -9.6459   21.9367 C   0  0  0  0  0  0
  -23.6854   -8.3845   22.0769 C   0  0  0  0  0  0
  -22.4956   -8.1040   21.3561 C   0  0  0  0  0  0
  -22.0494   -9.0781   20.4483 C   0  0  0  0  0  0
  -22.7213  -10.3116   20.3039 C   0  0  0  0  0  0
  -21.7385   -6.1065   22.5224 C   0  0  0  0  0  0
  -21.4376   -6.5872   23.8159 C   0  0  0  0  0  0
  -21.3718   -5.6958   24.9074 C   0  0  0  0  0  0
  -21.6008   -4.3203   24.7131 C   0  0  0  0  0  0
  -21.8790   -3.8330   23.4242 C   0  0  0  0  0  0
  -21.9371   -4.7202   22.3329 C   0  0  0  0  0  0
  -22.2909  -13.5774   21.0796 C   0  0  0  0  0  0
  -22.1776   -4.2321   21.0924 F   0  0  0  0  0  0
  -21.5495   -3.4656   25.7625 F   0  0  0  0  0  0
  -30.8611  -13.2734   20.2205 N   0  0  0  0  0  0
  -25.7398  -14.1138   20.9164 N   0  0  0  0  0  0
  -25.2331  -12.8180   21.6082 N   0  0  0  0  0  0
  -21.7543  -12.8061   22.0141 N   0  0  0  0  0  0
  -24.3163  -15.7723   20.3746 N   0  0  0  0  0  0
  -32.1393  -15.0365   19.9193 O   0  0  0  0  0  0
  -21.7598   -6.9318   21.4193 O   0  0  0  0  0  0
  -21.7405  -14.5559   20.6032 O   0  0  0  0  0  0
  -24.7307  -31.7375   23.1159 C   0  0  0  0  0  0
  -25.9683  -32.4111   23.7840 C   0  0  1  0  0  0
  -26.8565  -26.0509   20.2764 C   0  0  0  0  0  0
  -25.6072  -33.7990   24.1649 N   0  0  0  0  0  0
  -23.5553  -30.3466   21.4857 C   0  0  2  0  0  0
  -24.9411  -28.5802   20.0996 C   0  0  0  0  0  0
  -22.7869  -29.4042   22.4550 C   0  0  0  0  0  0
  -18.0345  -28.1441   22.8427 C   0  0  0  0  0  0
  -24.1514  -36.6998   23.2667 C   0  0  0  0  0  0
  -26.1441  -30.2379   21.4753 C   0  0  0  0  0  0
  -26.1243  -28.7476   20.8204 C   0  0  0  0  0  0
  -27.0661  -27.5185   20.8682 C   0  0  0  0  0  0
  -25.7379  -26.2719   19.4301 C   0  0  0  0  0  0
  -24.8335  -27.3875   19.3661 C   0  0  0  0  0  0
  -23.8134  -29.6402   20.1195 C   0  0  0  0  0  0
  -25.4187  -36.2695   24.0241 C   0  0  1  0  0  0
  -20.5989  -28.3811   23.1059 C   0  0  2  0  0  0
  -20.6786  -26.9434   22.5411 C   0  0  0  0  0  0
  -19.5781  -26.6351   21.5210 C   0  0  0  0  0  0
  -18.1961  -26.7958   22.1600 C   0  0  0  0  0  0
  -19.1622  -28.8953   23.2720 C   0  0  0  0  0  0
  -18.9534  -30.1523   23.8791 C   0  0  0  0  0  0
  -17.6527  -30.6615   24.0544 C   0  0  0  0  0  0
  -25.9209  -34.9097   23.4819 C   0  0  0  0  0  0
  -16.5407  -29.9101   23.6361 C   0  0  0  0  0  0
  -16.7326  -28.6525   23.0368 C   0  0  0  0  0  0
  -26.4687  -31.6402   25.0706 C   0  0  0  0  0  0
  -25.3625  -31.3885   26.1238 C   0  0  0  0  0  0
  -27.0698  -30.2667   24.7066 C   0  0  0  0  0  0
  -27.6036  -32.4409   25.7513 C   0  0  0  0  0  0
  -27.5559  -37.1656   24.8469 C   0  0  0  0  0  0
  -21.4487  -29.2980   22.3310 N   0  0  0  0  0  0
  -26.4261  -37.3522   23.9407 N   0  0  0  0  0  0
  -24.8460  -30.8265   22.0727 N   0  0  0  0  0  0
  -23.4138  -28.7681   23.3056 O   0  0  0  0  0  0
  -27.4590  -24.4646   20.3799 O   0  0  0  0  0  0
  -26.5915  -34.8781   22.4484 O   0  0  0  0  0  0
  -23.6253  -32.0775   23.5817 O   0  0  0  0  0  0
  -26.5753  -15.2169   18.9976 C   0  0  0  0  0  0
  -27.4677  -15.5081   21.7190 C   0  0  0  0  0  0
  -27.0074  -16.4176   20.2862 C   0  0  0  0  0  0
  -26.6470  -13.3390   19.0339 C   0  0  0  0  0  0
  -27.6590  -13.7072   21.9664 C   0  0  0  0  0  0
  -29.6834  -14.8683   24.9064 C   0  0  0  0  0  0
  -30.9364  -15.4686   24.2586 C   0  0  0  0  0  0
  -29.5938  -13.8859   23.7270 C   0  0  2  0  0  0
  -30.3962  -14.9829   22.9088 C   0  0  2  0  0  0
  -26.1181  -12.4580   17.9179 C   0  0  0  0  0  0
  -28.0955  -11.3967   24.7925 C   0  0  0  0  0  0
  -26.9969  -22.4706   20.1736 C   0  0  0  0  0  0
  -27.2701  -20.2066   20.4866 C   0  0  0  0  0  0
  -28.1787  -13.2784   23.3457 C   0  0  2  0  0  0
  -27.2856  -12.5425   20.5135 N   0  0  0  0  0  0
  -31.5031  -14.5621   22.0116 N   0  0  0  0  0  0
  -26.9271  -18.2287   20.0592 O   0  0  0  0  0  0
  -28.1994  -11.8583   23.4548 O   0  0  0  0  0  0
  -31.7887  -12.9179   18.3819 H   0  0  0  0  0  0
  -31.3019  -11.4675   19.2091 H   0  0  0  0  0  0
  -29.0203  -11.6550   18.4042 H   0  0  0  0  0  0
  -29.9085  -12.3559   17.0821 H   0  0  0  0  0  0
  -28.3265  -14.0809   17.5476 H   0  0  0  0  0  0
  -29.7569  -14.5569   18.1400 H   0  0  0  0  0  0
  -28.9979  -15.2946   20.0108 H   0  0  0  0  0  0
  -29.7747  -12.9459   21.6403 H   0  0  0  0  0  0
  -29.4292  -12.0968   20.4834 H   0  0  0  0  0  0
  -25.2300   -9.8497   22.5344 H   0  0  0  0  0  0
  -24.0867   -7.6506   22.7597 H   0  0  0  0  0  0
  -21.1645   -8.8868   19.8574 H   0  0  0  0  0  0
  -22.3097  -11.0307   19.6099 H   0  0  0  0  0  0
  -21.2555   -7.6405   23.9709 H   0  0  0  0  0  0
  -21.1444   -6.0683   25.8956 H   0  0  0  0  0  0
  -22.0432   -2.7780   23.2702 H   0  0  0  0  0  0
  -22.2843  -12.0567   22.4338 H   0  0  0  0  0  0
  -20.8043  -12.9656   22.3172 H   0  0  0  0  0  0
  -25.0617  -16.4108   20.1432 H   0  0  0  0  0  0
  -23.3917  -16.1175   20.1461 H   0  0  0  0  0  0
  -26.7806  -32.4384   23.0563 H   0  0  0  0  0  0
  -25.0025  -33.8939   24.9672 H   0  0  0  0  0  0
  -22.9132  -31.2072   21.2845 H   0  0  0  0  0  0
  -23.3816  -35.9284   23.3220 H   0  0  0  0  0  0
  -24.3565  -36.8805   22.2104 H   0  0  0  0  0  0
  -23.7240  -37.6109   23.6861 H   0  0  0  0  0  0
  -26.4462  -30.9192   20.6801 H   0  0  0  0  0  0
  -26.9721  -30.2695   22.1682 H   0  0  0  0  0  0
  -27.9358  -27.6366   21.5001 H   0  0  0  0  0  0
  -25.4387  -25.4166   18.8406 H   0  0  0  0  0  0
  -23.9639  -27.2664   18.7341 H   0  0  0  0  0  0
  -24.0678  -30.3952   19.3746 H   0  0  0  0  0  0
  -22.8888  -29.1841   19.7616 H   0  0  0  0  0  0
  -25.1422  -36.1376   25.0728 H   0  0  0  0  0  0
  -21.0069  -28.3491   24.1183 H   0  0  0  0  0  0
  -20.5588  -26.2458   23.3713 H   0  0  0  0  0  0
  -21.6650  -26.7299   22.1271 H   0  0  0  0  0  0
  -19.6933  -25.6229   21.1318 H   0  0  0  0  0  0
  -19.6747  -27.3093   20.6688 H   0  0  0  0  0  0
  -17.4229  -26.6694   21.4002 H   0  0  0  0  0  0
  -18.0347  -26.0125   22.9021 H   0  0  0  0  0  0
  -19.8014  -30.7352   24.2128 H   0  0  0  0  0  0
  -17.5084  -31.6283   24.5170 H   0  0  0  0  0  0
  -15.5407  -30.2983   23.7740 H   0  0  0  0  0  0
  -15.8719  -28.0813   22.7151 H   0  0  0  0  0  0
  -24.5887  -30.7138   25.7557 H   0  0  0  0  0  0
  -24.8742  -32.3149   26.4264 H   0  0  0  0  0  0
  -25.7710  -30.9332   27.0270 H   0  0  0  0  0  0
  -26.3461  -29.6032   24.2331 H   0  0  0  0  0  0
  -27.4106  -29.7443   25.6017 H   0  0  0  0  0  0
  -27.9470  -30.3620   24.0670 H   0  0  0  0  0  0
  -27.2515  -33.3860   26.1653 H   0  0  0  0  0  0
  -28.4038  -32.6719   25.0471 H   0  0  0  0  0  0
  -28.0491  -31.8853   26.5774 H   0  0  0  0  0  0
  -28.2504  -38.0015   24.7524 H   0  0  0  0  0  0
  -28.1126  -36.2527   24.6288 H   0  0  0  0  0  0
  -27.2272  -37.1271   25.8870 H   0  0  0  0  0  0
  -20.9866  -29.8609   21.6302 H   0  0  0  0  0  0
  -26.0034  -38.2545   24.1415 H   0  0  0  0  0  0
  -26.2071  -15.6457   18.0747 H   0  0  0  0  0  0
  -27.6780  -16.1166   22.5866 H   0  0  0  0  0  0
  -28.8475  -15.5689   24.9395 H   0  0  0  0  0  0
  -29.8528  -14.4051   25.8785 H   0  0  0  0  0  0
  -31.8527  -14.9645   24.5719 H   0  0  0  0  0  0
  -31.0224  -16.5520   24.3524 H   0  0  0  0  0  0
  -30.2904  -13.0695   23.9303 H   0  0  0  0  0  0
  -29.8020  -15.7836   22.4800 H   0  0  0  0  0  0
  -25.3493  -12.9790   17.3480 H   0  0  0  0  0  0
  -25.6744  -11.5577   18.3383 H   0  0  0  0  0  0
  -26.9116  -12.1548   17.2361 H   0  0  0  0  0  0
  -28.0841  -10.3072   24.8018 H   0  0  0  0  0  0
  -27.1737  -11.7474   25.2596 H   0  0  0  0  0  0
  -28.9408  -11.7272   25.3974 H   0  0  0  0  0  0
  -25.9553  -22.5512   20.4855 H   0  0  0  0  0  0
  -26.9391  -22.4760   19.0847 H   0  0  0  0  0  0
  -27.0887  -20.1542   21.5606 H   0  0  0  0  0  0
  -28.3583  -20.1662   20.4158 H   0  0  0  0  0  0
  -27.4249  -13.6652   24.0336 H   0  0  0  0  0  0
  -32.3573  -15.0437   22.2528 H   0  0  0  0  0  0
  1 25  1  0  0  0
  1 30  2  0  0  0
  1 86  1  0  0  0
  2  3  1  0  0  0
  2 25  1  0  0  0
  2 89  1  0  0  0
  2 90  1  0  0  0
  3  4  1  0  0  0
  3 91  1  0  0  0
  3 92  1  0  0  0
  4  5  1  0  0  0
  4 93  1  0  0  0
  4 94  1  0  0  0
  5  6  1  0  0  0
  5 26  1  0  0  0
  5 95  1  0  0  0
  6 25  1  0  0  0
  6 96  1  0  0  0
  6 97  1  0  0  0
  7  8  2  0  0  0
  7 26  1  0  0  0
  7 29  1  0  0  0
  8  9  1  0  0  0
  8 22  1  0  0  0
  9 10  1  0  0  0
  9 27  2  0  0  0
 10 11  2  0  0  0
 10 15  1  0  0  0
 11 12  1  0  0  0
 11 98  1  0  0  0
 12 13  2  0  0  0
 12 99  1  0  0  0
 13 14  1  0  0  0
 13 31  1  0  0  0
 14 15  2  0  0  0
 14100  1  0  0  0
 15101  1  0  0  0
 16 17  2  0  0  0
 16 21  1  0  0  0
 16 31  1  0  0  0
 17 18  1  0  0  0
 17102  1  0  0  0
 18 19  2  0  0  0
 18103  1  0  0  0
 19 20  1  0  0  0
 19 24  1  0  0  0
 20 21  2  0  0  0
 20104  1  0  0  0
 21 23  1  0  0  0
 22 28  1  0  0  0
 22 32  2  0  0  0
 26 27  1  0  0  0
 28105  1  0  0  0
 28106  1  0  0  0
 29107  1  0  0  0
 29108  1  0  0  0
 33 34  1  0  0  0
 33 66  1  0  0  0
 33 70  2  0  0  0
 34 36  1  0  0  0
 34 59  1  0  0  0
 34109  1  0  0  0
 35 44  2  0  0  0
 35 45  1  0  0  0
 35 68  1  0  0  0
 36 56  1  0  0  0
 36110  1  0  0  0
 37 39  1  0  0  0
 37 47  1  0  0  0
 37 66  1  0  0  0
 37111  1  0  0  0
 38 43  2  0  0  0
 38 46  1  0  0  0
 38 47  1  0  0  0
 39 64  1  0  0  0
 39 67  2  0  0  0
 40 52  1  0  0  0
 40 53  2  0  0  0
 40 58  1  0  0  0
 41112  1  0  0  0
 41113  1  0  0  0
 41114  1  0  0  0
 41 48  1  0  0  0
 42 43  1  0  0  0
 42 66  1  0  0  0
 42115  1  0  0  0
 42116  1  0  0  0
 43 44  1  0  0  0
 44117  1  0  0  0
 45 46  2  0  0  0
 45118  1  0  0  0
 46119  1  0  0  0
 47120  1  0  0  0
 47121  1  0  0  0
 48 56  1  0  0  0
 48 65  1  0  0  0
 48122  1  0  0  0
 49 50  1  0  0  0
 49 53  1  0  0  0
 49 64  1  0  0  0
 49123  1  0  0  0
 50 51  1  0  0  0
 50124  1  0  0  0
 50125  1  0  0  0
 51 52  1  0  0  0
 51126  1  0  0  0
 51127  1  0  0  0
 52128  1  0  0  0
 52129  1  0  0  0
 53 54  1  0  0  0
 54 55  2  0  0  0
 54130  1  0  0  0
 55 57  1  0  0  0
 55131  1  0  0  0
 56 69  2  0  0  0
 57 58  2  0  0  0
 57132  1  0  0  0
 58133  1  0  0  0
 59 60  1  0  0  0
 59 61  1  0  0  0
 59 62  1  0  0  0
 60134  1  0  0  0
 60135  1  0  0  0
 60136  1  0  0  0
 61137  1  0  0  0
 61138  1  0  0  0
 61139  1  0  0  0
 62140  1  0  0  0
 62141  1  0  0  0
 62142  1  0  0  0
 63 65  1  0  0  0
 63143  1  0  0  0
 63144  1  0  0  0
 63145  1  0  0  0
 64146  1  0  0  0
 65147  1  0  0  0
 68 82  1  0  0  0
 71 73  2  0  0  0
 71 74  1  0  0  0
 71148  1  0  0  0
 72 73  1  0  0  0
 72 75  2  0  0  0
 72149  1  0  0  0
 73 87  1  0  0  0
 74 80  1  0  0  0
 74 85  2  0  0  0
 75 84  1  0  0  0
 75 85  1  0  0  0
 76 77  1  0  0  0
 76150  1  0  0  0
 76151  1  0  0  0
 76 78  1  0  0  0
 77 79  1  0  0  0
 77152  1  0  0  0
 77153  1  0  0  0
 78 79  1  0  0  0
 78 84  1  0  0  0
 78154  1  0  0  0
 79 86  1  0  0  0
 79155  1  0  0  0
 80156  1  0  0  0
 80157  1  0  0  0
 80158  1  0  0  0
 81 88  1  0  0  0
 81159  1  0  0  0
 81160  1  0  0  0
 81161  1  0  0  0
 82 83  1  0  0  0
 82162  1  0  0  0
 82163  1  0  0  0
 83 87  1  0  0  0
 83164  1  0  0  0
 83165  1  0  0  0
 84 88  1  0  0  0
 84166  1  0  0  0
 86167  1  0  0  0
M  ISO  4   1 100  68 101  82 101  86 100
M  END
> <chiral flag>
0

> <version>
0

> <s_m_source_file>
/data/baiqing/PycharmProjects/Reinvent-master-3.2/result/LINK_invent/BTK/process_docking_weight1_custom_sum_contain_oxygen_bond_distance_aromatic_linkinvent_7_9_3/rearranged_h_0143.sdf

> <i_m_source_file_index>
25

> <r_mmod_Potential_Energy-OPLS-2005>
15015.75

> <r_mmod_Stretch_Energy-OPLS-2005>
8208.62890625

> <r_mmod_Bend_Energy-OPLS-2005>
1271.650390625

> <r_mmod_Torsional_Energy-OPLS-2005>
462.63232421875

> <r_mmod_Improper_Torsional_Energy-OPLS-2005>
38.3919792175293

> <r_mmod_Van_der_Waal_Energy-OPLS-2005>
2758.3046875

> <r_mmod_Electrostatic_Energy-OPLS-2005>
-449.147674560547

> <r_mmod_Solvation_Energy-OPLS-2005>
-236.838516235352

> <b_mmod_Minimization_Converged-OPLS-2005>
0

> <r_mmod_RMS_Derivative-OPLS-2005>
3.35815787315369

$$$$
25
                    3D
 Structure written by MMmdl.
170181  0  0  1  0            999 V2000
  -30.6348  -14.6526   20.5227 C   0  0  0  0  0  0
  -30.4300  -12.4066   19.4600 C   0  0  0  0  0  0
  -29.5084  -12.5173   18.2262 C   0  0  0  0  0  0
  -28.0302  -12.3559   18.6325 C   0  0  0  0  0  0
  -27.6499  -13.2231   19.8631 C   0  0  2  0  0  0
  -28.6906  -13.0888   20.9951 C   0  0  0  0  0  0
  -25.2548  -13.8175   20.5697 C   0  0  0  0  0  0
  -24.1817  -13.0436   20.9189 C   0  0  0  0  0  0
  -24.6389  -11.6910   20.8723 C   0  0  0  0  0  0
  -23.9058  -10.4292   21.0391 C   0  0  0  0  0  0
  -24.3609   -9.4213   21.9173 C   0  0  0  0  0  0
  -23.6291   -8.2248   22.0747 C   0  0  0  0  0  0
  -22.4278   -8.0272   21.3538 C   0  0  0  0  0  0
  -21.9907   -9.0246   20.4648 C   0  0  0  0  0  0
  -22.7229  -10.2129   20.3046 C   0  0  0  0  0  0
  -21.6856   -6.0728   22.5278 C   0  0  0  0  0  0
  -21.4019   -6.5632   23.8211 C   0  0  0  0  0  0
  -21.3658   -5.6786   24.9172 C   0  0  0  0  0  0
  -21.6042   -4.3047   24.7226 C   0  0  0  0  0  0
  -21.8819   -3.8137   23.4348 C   0  0  0  0  0  0
  -21.9196   -4.6954   22.3404 C   0  0  0  0  0  0
  -22.7844  -13.5237   21.1848 C   0  0  0  0  0  0
  -22.1667   -4.2139   21.0982 F   0  0  0  0  0  0
  -21.5626   -3.4535   25.7740 F   0  0  0  0  0  0
  -30.0017  -13.4372   20.4310 N   0  0  0  0  0  0
  -26.2972  -12.9368   20.3321 N   0  0  0  0  0  0
  -25.9322  -11.6513   20.5739 N   0  0  0  0  0  0
  -22.0479  -12.8240   22.0402 N   0  0  0  0  0  0
  -25.4277  -15.1896   20.4147 N   0  0  0  0  0  0
  -31.7838  -14.7946   20.0897 O   0  0  0  0  0  0
  -21.6639   -6.8872   21.4240 O   0  0  0  0  0  0
  -22.3545  -14.5548   20.6691 O   0  0  0  0  0  0
  -24.6250  -31.8589   23.2013 C   0  0  0  0  0  0
  -25.9099  -32.4773   23.8343 C   0  0  1  0  0  0
  -27.2273  -27.3137   20.1252 C   0  0  0  0  0  0
  -25.5921  -33.8574   24.2276 N   0  0  0  0  0  0
  -23.4189  -30.4806   21.5432 C   0  0  2  0  0  0
  -24.8650  -28.9258   20.1162 C   0  0  0  0  0  0
  -22.7465  -29.4619   22.4940 C   0  0  0  0  0  0
  -18.0283  -28.1389   22.8483 C   0  0  0  0  0  0
  -24.1486  -36.7292   23.2638 C   0  0  0  0  0  0
  -25.9580  -30.7869   21.3722 C   0  0  0  0  0  0
  -26.0305  -29.4104   20.7212 C   0  0  0  0  0  0
  -27.2126  -28.6149   20.7169 C   0  0  0  0  0  0
  -26.0394  -26.8742   19.5029 C   0  0  0  0  0  0
  -24.8697  -27.6628   19.5003 C   0  0  0  0  0  0
  -23.6347  -29.8090   20.1602 C   0  0  0  0  0  0
  -25.4113  -36.3086   24.0327 C   0  0  1  0  0  0
  -20.5879  -28.3691   23.1288 C   0  0  2  0  0  0
  -20.6774  -26.9418   22.5414 C   0  0  0  0  0  0
  -19.5754  -26.6387   21.5209 C   0  0  0  0  0  0
  -18.1931  -26.7932   22.1621 C   0  0  0  0  0  0
  -19.1535  -28.8857   23.2883 C   0  0  0  0  0  0
  -18.9457  -30.1455   23.8903 C   0  0  0  0  0  0
  -17.6458  -30.6590   24.0566 C   0  0  0  0  0  0
  -25.9049  -34.9450   23.5102 C   0  0  0  0  0  0
  -16.5349  -29.9087   23.6329 C   0  0  0  0  0  0
  -16.7269  -28.6507   23.0347 C   0  0  0  0  0  0
  -26.4496  -31.6583   25.0715 C   0  0  0  0  0  0
  -25.3739  -31.3710   26.1451 C   0  0  0  0  0  0
  -27.0342  -30.3014   24.6159 C   0  0  0  0  0  0
  -27.6061  -32.4315   25.7483 C   0  0  0  0  0  0
  -27.5577  -37.1804   24.8466 C   0  0  0  0  0  0
  -21.4182  -29.3038   22.3680 N   0  0  0  0  0  0
  -26.4294  -37.3778   23.9404 N   0  0  0  0  0  0
  -24.6861  -31.0594   22.0965 N   0  0  0  0  0  0
  -23.4191  -28.8171   23.3029 O   0  0  0  0  0  0
  -28.3823  -26.5193   20.1272 O   0  0  0  0  0  0
  -26.5617  -34.8919   22.4668 O   0  0  0  0  0  0
  -23.5417  -32.1386   23.7345 O   0  0  0  0  0  0
  -28.1210  -24.2305   19.1331 C   0  0  0  0  0  0
  -28.9901  -22.3108   20.3927 C   0  0  0  0  0  0
  -28.3999  -22.8265   19.2055 C   0  0  0  0  0  0
  -29.2019  -23.2476   21.4129 C   0  0  0  0  0  0
  -28.4005  -25.1059   20.2200 C   0  0  0  0  0  0
  -29.8713  -22.6126   22.6036 C   0  0  0  0  0  0
  -29.8743  -21.0943   22.2847 C   0  0  0  0  0  0
  -28.9237  -21.5001   15.5564 C   0  0  0  0  0  0
  -29.1194  -22.9730   15.8071 C   0  0  0  0  0  0
  -29.3011  -17.7204   22.2033 C   0  0  0  0  0  0
  -29.7944  -16.2517   22.2277 C   0  0  0  0  0  0
  -29.6981  -16.9860   19.9840 C   0  0  0  0  0  0
  -29.6552  -20.9231   20.7561 C   0  0  1  0  0  0
  -29.1903  -21.9962   16.9613 C   0  0  0  0  0  0
  -29.7825  -18.2913   20.8676 C   0  0  1  0  0  0
  -28.0910  -21.9496   18.0045 C   0  0  0  0  0  0
  -28.9393  -24.5872   21.3589 N   0  0  0  0  0  0
  -29.8698  -15.7611   20.8417 N   0  0  0  0  0  0
  -29.0678  -19.5625   20.3870 N   0  3  0  0  0  0
  -31.4736  -12.5234   19.1626 H   0  0  0  0  0  0
  -30.3581  -11.4133   19.9066 H   0  0  0  0  0  0
  -29.7783  -11.7642   17.4851 H   0  0  0  0  0  0
  -29.6542  -13.4857   17.7456 H   0  0  0  0  0  0
  -27.8656  -11.3017   18.8582 H   0  0  0  0  0  0
  -27.3783  -12.5897   17.7895 H   0  0  0  0  0  0
  -27.6661  -14.2599   19.5262 H   0  0  0  0  0  0
  -28.7063  -12.0719   21.3894 H   0  0  0  0  0  0
  -28.4258  -13.7302   21.8344 H   0  0  0  0  0  0
  -25.2743   -9.5697   22.4758 H   0  0  0  0  0  0
  -23.9996   -7.4640   22.7464 H   0  0  0  0  0  0
  -21.0835   -8.8752   19.8970 H   0  0  0  0  0  0
  -22.3662  -10.9657   19.6157 H   0  0  0  0  0  0
  -21.2013   -7.6141   23.9713 H   0  0  0  0  0  0
  -21.1482   -6.0516   25.9076 H   0  0  0  0  0  0
  -22.0602   -2.7602   23.2848 H   0  0  0  0  0  0
  -22.4080  -11.9907   22.4803 H   0  0  0  0  0  0
  -21.1093  -13.1268   22.2575 H   0  0  0  0  0  0
  -24.6665  -15.8485   20.5333 H   0  0  0  0  0  0
  -26.2901  -15.6267   20.1165 H   0  0  0  0  0  0
  -26.7170  -32.5447   23.1094 H   0  0  0  0  0  0
  -25.0089  -33.9717   25.0433 H   0  0  0  0  0  0
  -22.7125  -31.3007   21.3977 H   0  0  0  0  0  0
  -23.3746  -35.9628   23.3314 H   0  0  0  0  0  0
  -24.3575  -36.8902   22.2052 H   0  0  0  0  0  0
  -23.7242  -37.6496   23.6652 H   0  0  0  0  0  0
  -26.0850  -31.5454   20.5988 H   0  0  0  0  0  0
  -26.8403  -30.8413   21.9980 H   0  0  0  0  0  0
  -28.1123  -28.9865   21.1860 H   0  0  0  0  0  0
  -25.9977  -25.9091   19.0211 H   0  0  0  0  0  0
  -23.9744  -27.2849   19.0261 H   0  0  0  0  0  0
  -23.7591  -30.5825   19.4016 H   0  0  0  0  0  0
  -22.7539  -29.2403   19.8563 H   0  0  0  0  0  0
  -25.1297  -36.1942   25.0821 H   0  0  0  0  0  0
  -20.9969  -28.3266   24.1410 H   0  0  0  0  0  0
  -20.5674  -26.2304   23.3612 H   0  0  0  0  0  0
  -21.6647  -26.7449   22.1209 H   0  0  0  0  0  0
  -19.6914  -25.6296   21.1245 H   0  0  0  0  0  0
  -19.6694  -27.3195   20.6739 H   0  0  0  0  0  0
  -17.4206  -26.6678   21.4017 H   0  0  0  0  0  0
  -18.0333  -26.0069   22.9014 H   0  0  0  0  0  0
  -19.7932  -30.7266   24.2277 H   0  0  0  0  0  0
  -17.5014  -31.6269   24.5176 H   0  0  0  0  0  0
  -15.5352  -30.2998   23.7644 H   0  0  0  0  0  0
  -15.8670  -28.0830   22.7056 H   0  0  0  0  0  0
  -24.5915  -30.7057   25.7776 H   0  0  0  0  0  0
  -24.8932  -32.2873   26.4884 H   0  0  0  0  0  0
  -25.8080  -30.8881   27.0216 H   0  0  0  0  0  0
  -26.2907  -29.6756   24.1209 H   0  0  0  0  0  0
  -27.4077  -29.7277   25.4650 H   0  0  0  0  0  0
  -27.8762  -30.4304   23.9353 H   0  0  0  0  0  0
  -27.2671  -33.3605   26.2070 H   0  0  0  0  0  0
  -28.3865  -32.6885   25.0311 H   0  0  0  0  0  0
  -28.0737  -31.8436   26.5388 H   0  0  0  0  0  0
  -28.2610  -38.0087   24.7504 H   0  0  0  0  0  0
  -28.1062  -36.2622   24.6312 H   0  0  0  0  0  0
  -27.2297  -37.1479   25.8870 H   0  0  0  0  0  0
  -20.9362  -29.8760   21.6889 H   0  0  0  0  0  0
  -26.0179  -38.2855   24.1397 H   0  0  0  0  0  0
  -27.7438  -24.6487   18.2108 H   0  0  0  0  0  0
  -29.3402  -22.8373   23.5290 H   0  0  0  0  0  0
  -30.8873  -22.9978   22.6918 H   0  0  0  0  0  0
  -29.0182  -20.6621   22.8032 H   0  0  0  0  0  0
  -30.7635  -20.5857   22.6576 H   0  0  0  0  0  0
  -29.7252  -20.9695   15.0457 H   0  0  0  0  0  0
  -27.9166  -21.1624   15.3181 H   0  0  0  0  0  0
  -28.2421  -23.6142   15.7360 H   0  0  0  0  0  0
  -30.0518  -23.4223   15.4706 H   0  0  0  0  0  0
  -29.6688  -18.2854   23.0606 H   0  0  0  0  0  0
  -28.2109  -17.7340   22.2478 H   0  0  0  0  0  0
  -29.1373  -15.6327   22.8377 H   0  0  0  0  0  0
  -30.7861  -16.2054   22.6826 H   0  0  0  0  0  0
  -30.4401  -17.0132   19.1832 H   0  0  0  0  0  0
  -28.7201  -16.9123   19.5072 H   0  0  0  0  0  0
  -30.6375  -20.9578   20.2808 H   0  0  0  0  0  0
  -30.1812  -21.7732   17.3530 H   0  0  0  0  0  0
  -30.8433  -18.5314   20.9639 H   0  0  0  0  0  0
  -27.1508  -22.2774   17.5598 H   0  0  0  0  0  0
  -27.9280  -20.9188   18.3131 H   0  0  0  0  0  0
  -29.0701  -19.5238   19.3813 H   0  0  0  0  0  0
  -28.1039  -19.5242   20.6756 H   0  0  0  0  0  0
  1 25  1  0  0  0
  1 30  2  0  0  0
  1 88  1  0  0  0
  2  3  1  0  0  0
  2 25  1  0  0  0
  2 90  1  0  0  0
  2 91  1  0  0  0
  3  4  1  0  0  0
  3 92  1  0  0  0
  3 93  1  0  0  0
  4  5  1  0  0  0
  4 94  1  0  0  0
  4 95  1  0  0  0
  5  6  1  0  0  0
  5 26  1  0  0  0
  5 96  1  0  0  0
  6 25  1  0  0  0
  6 97  1  0  0  0
  6 98  1  0  0  0
  7  8  2  0  0  0
  7 26  1  0  0  0
  7 29  1  0  0  0
  8  9  1  0  0  0
  8 22  1  0  0  0
  9 10  1  0  0  0
  9 27  2  0  0  0
 10 11  2  0  0  0
 10 15  1  0  0  0
 11 12  1  0  0  0
 11 99  1  0  0  0
 12 13  2  0  0  0
 12100  1  0  0  0
 13 14  1  0  0  0
 13 31  1  0  0  0
 14 15  2  0  0  0
 14101  1  0  0  0
 15102  1  0  0  0
 16 17  2  0  0  0
 16 21  1  0  0  0
 16 31  1  0  0  0
 17 18  1  0  0  0
 17103  1  0  0  0
 18 19  2  0  0  0
 18104  1  0  0  0
 19 20  1  0  0  0
 19 24  1  0  0  0
 20 21  2  0  0  0
 20105  1  0  0  0
 21 23  1  0  0  0
 22 28  1  0  0  0
 22 32  2  0  0  0
 26 27  1  0  0  0
 28106  1  0  0  0
 28107  1  0  0  0
 29108  1  0  0  0
 29109  1  0  0  0
 33 34  1  0  0  0
 33 66  1  0  0  0
 33 70  2  0  0  0
 34 36  1  0  0  0
 34 59  1  0  0  0
 34110  1  0  0  0
 35 44  2  0  0  0
 35 45  1  0  0  0
 35 68  1  0  0  0
 36 56  1  0  0  0
 36111  1  0  0  0
 37 39  1  0  0  0
 37 47  1  0  0  0
 37 66  1  0  0  0
 37112  1  0  0  0
 38 43  2  0  0  0
 38 46  1  0  0  0
 38 47  1  0  0  0
 39 64  1  0  0  0
 39 67  2  0  0  0
 40 52  1  0  0  0
 40 53  2  0  0  0
 40 58  1  0  0  0
 41113  1  0  0  0
 41114  1  0  0  0
 41115  1  0  0  0
 41 48  1  0  0  0
 42 43  1  0  0  0
 42 66  1  0  0  0
 42116  1  0  0  0
 42117  1  0  0  0
 43 44  1  0  0  0
 44118  1  0  0  0
 45 46  2  0  0  0
 45119  1  0  0  0
 46120  1  0  0  0
 47121  1  0  0  0
 47122  1  0  0  0
 48 56  1  0  0  0
 48 65  1  0  0  0
 48123  1  0  0  0
 49 50  1  0  0  0
 49 53  1  0  0  0
 49 64  1  0  0  0
 49124  1  0  0  0
 50 51  1  0  0  0
 50125  1  0  0  0
 50126  1  0  0  0
 51 52  1  0  0  0
 51127  1  0  0  0
 51128  1  0  0  0
 52129  1  0  0  0
 52130  1  0  0  0
 53 54  1  0  0  0
 54 55  2  0  0  0
 54131  1  0  0  0
 55 57  1  0  0  0
 55132  1  0  0  0
 56 69  2  0  0  0
 57 58  2  0  0  0
 57133  1  0  0  0
 58134  1  0  0  0
 59 60  1  0  0  0
 59 61  1  0  0  0
 59 62  1  0  0  0
 60135  1  0  0  0
 60136  1  0  0  0
 60137  1  0  0  0
 61138  1  0  0  0
 61139  1  0  0  0
 61140  1  0  0  0
 62141  1  0  0  0
 62142  1  0  0  0
 62143  1  0  0  0
 63 65  1  0  0  0
 63144  1  0  0  0
 63145  1  0  0  0
 63146  1  0  0  0
 64147  1  0  0  0
 65148  1  0  0  0
 68 75  1  0  0  0
 71 73  2  0  0  0
 71 75  1  0  0  0
 71149  1  0  0  0
 72 73  1  0  0  0
 72 74  2  0  0  0
 72 83  1  0  0  0
 73 86  1  0  0  0
 74 76  1  0  0  0
 74 87  1  0  0  0
 75 87  2  0  0  0
 76 77  1  0  0  0
 76150  1  0  0  0
 76151  1  0  0  0
 77 83  1  0  0  0
 77152  1  0  0  0
 77153  1  0  0  0
 78 79  1  0  0  0
 78 84  1  0  0  0
 78154  1  0  0  0
 78155  1  0  0  0
 79 84  1  0  0  0
 79156  1  0  0  0
 79157  1  0  0  0
 80 81  1  0  0  0
 80 85  1  0  0  0
 80158  1  0  0  0
 80159  1  0  0  0
 81 88  1  0  0  0
 81160  1  0  0  0
 81161  1  0  0  0
 82 85  1  0  0  0
 82 88  1  0  0  0
 82162  1  0  0  0
 82163  1  0  0  0
 83 89  1  0  0  0
 83164  1  0  0  0
 84 86  1  0  0  0
 84165  1  0  0  0
 85 89  1  0  0  0
 85166  1  0  0  0
 86167  1  0  0  0
 86168  1  0  0  0
 89169  1  0  0  0
 89170  1  0  0  0
M  CHG  1  89   1
M  ISO  4   1 100  68 101  75 101  88 100
M  END
> <chiral flag>
0

> <version>
0

> <s_m_source_file>
/data/baiqing/PycharmProjects/Reinvent-master-3.2/result/LINK_invent/BTK/process_docking_weight1_custom_sum_contain_oxygen_bond_distance_aromatic_linkinvent_7_9_3/rearranged_h_0143.sdf

> <i_m_source_file_index>
26

> <r_mmod_Potential_Energy-OPLS-2005>
115.45703125

> <r_mmod_Stretch_Energy-OPLS-2005>
82.3916168212891

> <r_mmod_Bend_Energy-OPLS-2005>
222.091995239258

> <r_mmod_Torsional_Energy-OPLS-2005>
402.503631591797

> <r_mmod_Improper_Torsional_Energy-OPLS-2005>
11.8644018173218

> <r_mmod_Van_der_Waal_Energy-OPLS-2005>
120.608459472656

> <r_mmod_Electrostatic_Energy-OPLS-2005>
-296.930084228516

> <r_mmod_Solvation_Energy-OPLS-2005>
-473.772094726562

> <b_mmod_Minimization_Converged-OPLS-2005>
0

> <r_mmod_RMS_Derivative-OPLS-2005>
1.24842643737793

$$$$
26
                    3D
 Structure written by MMmdl.
177186  0  0  1  0            999 V2000
  -30.6927  -14.4960   20.5958 C   0  0  0  0  0  0
  -30.4362  -12.3266   19.4274 C   0  0  0  0  0  0
  -29.5003  -12.5061   18.2127 C   0  0  0  0  0  0
  -28.0223  -12.3569   18.6260 C   0  0  0  0  0  0
  -27.6638  -13.2040   19.8754 C   0  0  2  0  0  0
  -28.7055  -12.9842   20.9961 C   0  0  0  0  0  0
  -25.2606  -13.8167   20.5689 C   0  0  0  0  0  0
  -24.1851  -13.0446   20.9185 C   0  0  0  0  0  0
  -24.6406  -11.6914   20.8746 C   0  0  0  0  0  0
  -23.9063  -10.4302   21.0413 C   0  0  0  0  0  0
  -24.3617   -9.4214   21.9187 C   0  0  0  0  0  0
  -23.6296   -8.2246   22.0750 C   0  0  0  0  0  0
  -22.4270   -8.0287   21.3547 C   0  0  0  0  0  0
  -21.9918   -9.0257   20.4642 C   0  0  0  0  0  0
  -22.7245  -10.2137   20.3055 C   0  0  0  0  0  0
  -21.6852   -6.0746   22.5282 C   0  0  0  0  0  0
  -21.4001   -6.5649   23.8220 C   0  0  0  0  0  0
  -21.3661   -5.6795   24.9179 C   0  0  0  0  0  0
  -21.6043   -4.3061   24.7226 C   0  0  0  0  0  0
  -21.8817   -3.8153   23.4350 C   0  0  0  0  0  0
  -21.9192   -4.6970   22.3403 C   0  0  0  0  0  0
  -22.7875  -13.5249   21.1853 C   0  0  0  0  0  0
  -22.1661   -4.2167   21.0981 F   0  0  0  0  0  0
  -21.5636   -3.4535   25.7737 F   0  0  0  0  0  0
  -30.0387  -13.3073   20.4521 N   0  0  0  0  0  0
  -26.3045  -12.9325   20.3367 N   0  0  0  0  0  0
  -25.9326  -11.6492   20.5779 N   0  0  0  0  0  0
  -22.0491  -12.8235   22.0394 N   0  0  0  0  0  0
  -25.4354  -15.1881   20.4078 N   0  0  0  0  0  0
  -31.8049  -14.6943   20.0930 O   0  0  0  0  0  0
  -21.6638   -6.8881   21.4246 O   0  0  0  0  0  0
  -22.3555  -14.5562   20.6714 O   0  0  0  0  0  0
  -24.6129  -31.8683   23.2132 C   0  0  0  0  0  0
  -25.9040  -32.4830   23.8401 C   0  0  1  0  0  0
  -27.2459  -27.4493   20.0954 C   0  0  0  0  0  0
  -25.5873  -33.8618   24.2321 N   0  0  0  0  0  0
  -23.4028  -30.4926   21.5499 C   0  0  2  0  0  0
  -24.8543  -28.9600   20.1216 C   0  0  0  0  0  0
  -22.7426  -29.4663   22.4988 C   0  0  0  0  0  0
  -18.0296  -28.1386   22.8508 C   0  0  0  0  0  0
  -24.1478  -36.7308   23.2643 C   0  0  0  0  0  0
  -25.9296  -30.8368   21.3691 C   0  0  0  0  0  0
  -26.0120  -29.4677   20.7260 C   0  0  0  0  0  0
  -27.2109  -28.7156   20.7288 C   0  0  0  0  0  0
  -26.0748  -26.9594   19.4866 C   0  0  0  0  0  0
  -24.8756  -27.6984   19.5063 C   0  0  0  0  0  0
  -23.6152  -29.8251   20.1650 C   0  0  0  0  0  0
  -25.4088  -36.3092   24.0355 C   0  0  1  0  0  0
  -20.5896  -28.3653   23.1329 C   0  0  2  0  0  0
  -20.6782  -26.9393   22.5412 C   0  0  0  0  0  0
  -19.5759  -26.6386   21.5223 C   0  0  0  0  0  0
  -18.1943  -26.7949   22.1625 C   0  0  0  0  0  0
  -19.1550  -28.8833   23.2922 C   0  0  0  0  0  0
  -18.9476  -30.1446   23.8914 C   0  0  0  0  0  0
  -17.6477  -30.6577   24.0579 C   0  0  0  0  0  0
  -25.9007  -34.9470   23.5123 C   0  0  0  0  0  0
  -16.5369  -29.9088   23.6324 C   0  0  0  0  0  0
  -16.7286  -28.6515   23.0324 C   0  0  0  0  0  0
  -26.4471  -31.6613   25.0720 C   0  0  0  0  0  0
  -25.3746  -31.3752   26.1483 C   0  0  0  0  0  0
  -27.0284  -30.3048   24.6065 C   0  0  0  0  0  0
  -27.6014  -32.4356   25.7505 C   0  0  0  0  0  0
  -27.5575  -37.1784   24.8458 C   0  0  0  0  0  0
  -21.4166  -29.3018   22.3720 N   0  0  0  0  0  0
  -26.4265  -37.3776   23.9444 N   0  0  0  0  0  0
  -24.6658  -31.0806   22.1023 N   0  0  0  0  0  0
  -23.4227  -28.8196   23.2998 O   0  0  0  0  0  0
  -28.3675  -26.6553   19.9842 O   0  0  0  0  0  0
  -26.5556  -34.8939   22.4678 O   0  0  0  0  0  0
  -23.5327  -32.1419   23.7533 O   0  0  0  0  0  0
  -29.2165  -17.5202   22.1856 C   0  0  0  0  0  0
  -29.3075  -18.9080   22.4357 C   0  0  0  0  0  0
  -30.3674  -19.6452   21.8481 C   0  0  0  0  0  0
  -31.2708  -18.9130   21.0313 C   0  0  0  0  0  0
  -30.1760  -16.8578   21.3934 C   0  0  0  0  0  0
  -30.8219  -24.4698   21.6478 C   0  0  0  0  0  0
  -30.3419  -25.4798   20.5758 C   0  0  0  0  0  0
  -28.5526  -25.9051   22.3304 C   0  0  0  0  0  0
  -29.6748  -23.5955   22.2381 C   0  0  1  0  0  0
  -28.3196  -24.3747   22.2155 C   0  0  1  0  0  0
  -29.2641  -26.4778   21.0841 C   0  0  2  0  0  0
  -28.2839  -19.5527   23.3569 C   0  0  0  0  0  0
  -32.4634  -19.5712   20.3609 C   0  0  0  0  0  0
  -27.5409  -24.3227   24.6957 C   0  0  0  0  0  0
  -25.8450  -24.2223   22.8118 C   0  0  0  0  0  0
  -30.5962  -21.1403   22.1855 C   0  0  0  0  0  0
  -29.5998  -22.1756   21.5809 C   0  0  0  0  0  0
  -27.2763  -23.8602   23.2472 C   0  0  0  0  0  0
  -31.1728  -17.5766   20.8211 N   0  0  0  0  0  0
  -29.9923  -15.4432   21.2613 N   0  0  0  0  0  0
  -31.4780  -12.4424   19.1231 H   0  0  0  0  0  0
  -30.3574  -11.3156   19.8306 H   0  0  0  0  0  0
  -29.7484  -11.7772   17.4393 H   0  0  0  0  0  0
  -29.6558  -13.4900   17.7667 H   0  0  0  0  0  0
  -27.8426  -11.3009   18.8334 H   0  0  0  0  0  0
  -27.3683  -12.6150   17.7931 H   0  0  0  0  0  0
  -27.7088  -14.2505   19.5721 H   0  0  0  0  0  0
  -28.6898  -11.9444   21.3244 H   0  0  0  0  0  0
  -28.4522  -13.5649   21.8833 H   0  0  0  0  0  0
  -25.2759   -9.5697   22.4765 H   0  0  0  0  0  0
  -24.0015   -7.4634   22.7461 H   0  0  0  0  0  0
  -21.0851   -8.8767   19.8938 H   0  0  0  0  0  0
  -22.3703  -10.9674   19.6162 H   0  0  0  0  0  0
  -21.1973   -7.6155   23.9730 H   0  0  0  0  0  0
  -21.1488   -6.0522   25.9088 H   0  0  0  0  0  0
  -22.0594   -2.7617   23.2838 H   0  0  0  0  0  0
  -22.4081  -11.9882   22.4787 H   0  0  0  0  0  0
  -21.1104  -13.1262   22.2569 H   0  0  0  0  0  0
  -24.6695  -15.8457   20.5064 H   0  0  0  0  0  0
  -26.2875  -15.6235   20.0792 H   0  0  0  0  0  0
  -26.7112  -32.5536   23.1178 H   0  0  0  0  0  0
  -25.0054  -33.9779   25.0487 H   0  0  0  0  0  0
  -22.6905  -31.3082   21.4082 H   0  0  0  0  0  0
  -23.3737  -35.9634   23.3270 H   0  0  0  0  0  0
  -24.3598  -36.8928   22.2066 H   0  0  0  0  0  0
  -23.7239  -37.6513   23.6666 H   0  0  0  0  0  0
  -26.0343  -31.6003   20.5970 H   0  0  0  0  0  0
  -26.8198  -30.8939   21.9840 H   0  0  0  0  0  0
  -28.0997  -29.1125   21.1950 H   0  0  0  0  0  0
  -26.0860  -25.9925   19.0033 H   0  0  0  0  0  0
  -23.9868  -27.2970   19.0396 H   0  0  0  0  0  0
  -23.7270  -30.5993   19.4039 H   0  0  0  0  0  0
  -22.7394  -29.2445   19.8673 H   0  0  0  0  0  0
  -25.1269  -36.1922   25.0847 H   0  0  0  0  0  0
  -20.9980  -28.3184   24.1446 H   0  0  0  0  0  0
  -20.5672  -26.2253   23.3585 H   0  0  0  0  0  0
  -21.6650  -26.7406   22.1189 H   0  0  0  0  0  0
  -19.6913  -25.6292   21.1234 H   0  0  0  0  0  0
  -19.6730  -27.3206   20.6780 H   0  0  0  0  0  0
  -17.4218  -26.6707   21.4030 H   0  0  0  0  0  0
  -18.0322  -26.0089   22.9015 H   0  0  0  0  0  0
  -19.7954  -30.7276   24.2264 H   0  0  0  0  0  0
  -17.5038  -31.6270   24.5156 H   0  0  0  0  0  0
  -15.5360  -30.2995   23.7666 H   0  0  0  0  0  0
  -15.8698  -28.0868   22.6984 H   0  0  0  0  0  0
  -24.5897  -30.7125   25.7849 H   0  0  0  0  0  0
  -24.8999  -32.2937   26.4924 H   0  0  0  0  0  0
  -25.8105  -30.8934   27.0243 H   0  0  0  0  0  0
  -26.2812  -29.6848   24.1097 H   0  0  0  0  0  0
  -27.4050  -29.7242   25.4495 H   0  0  0  0  0  0
  -27.8650  -30.4379   23.9208 H   0  0  0  0  0  0
  -27.2566  -33.3636   26.2084 H   0  0  0  0  0  0
  -28.3825  -32.6944   25.0352 H   0  0  0  0  0  0
  -28.0674  -31.8504   26.5442 H   0  0  0  0  0  0
  -28.2514  -38.0150   24.7524 H   0  0  0  0  0  0
  -28.1135  -36.2668   24.6201 H   0  0  0  0  0  0
  -27.2320  -37.1314   25.8865 H   0  0  0  0  0  0
  -20.9305  -29.8766   21.6975 H   0  0  0  0  0  0
  -26.0145  -38.2835   24.1494 H   0  0  0  0  0  0
  -28.4072  -16.9579   22.6321 H   0  0  0  0  0  0
  -31.2858  -25.0345   22.4567 H   0  0  0  0  0  0
  -31.6103  -23.8360   21.2402 H   0  0  0  0  0  0
  -29.9394  -24.9041   19.7411 H   0  0  0  0  0  0
  -31.1869  -26.0354   20.1662 H   0  0  0  0  0  0
  -29.1749  -26.1057   23.2037 H   0  0  0  0  0  0
  -27.6250  -26.4432   22.5195 H   0  0  0  0  0  0
  -29.9232  -23.4445   23.2889 H   0  0  0  0  0  0
  -27.8921  -24.2123   21.2240 H   0  0  0  0  0  0
  -29.7315  -27.4322   21.3301 H   0  0  0  0  0  0
  -27.7169  -18.7992   23.9040 H   0  0  0  0  0  0
  -27.5699  -20.1458   22.7865 H   0  0  0  0  0  0
  -28.7593  -20.1925   24.0987 H   0  0  0  0  0  0
  -32.1643  -20.4818   19.8414 H   0  0  0  0  0  0
  -32.9267  -18.9121   19.6252 H   0  0  0  0  0  0
  -33.2225  -19.8268   21.1005 H   0  0  0  0  0  0
  -28.5124  -23.9833   25.0572 H   0  0  0  0  0  0
  -26.7898  -23.9268   25.3800 H   0  0  0  0  0  0
  -27.5121  -25.4091   24.7932 H   0  0  0  0  0  0
  -25.6369  -23.8701   21.7999 H   0  0  0  0  0  0
  -25.6724  -25.2986   22.8260 H   0  0  0  0  0  0
  -25.1040  -23.7631   23.4678 H   0  0  0  0  0  0
  -31.6076  -21.4447   21.9207 H   0  0  0  0  0  0
  -30.5841  -21.2256   23.2712 H   0  0  0  0  0  0
  -29.7466  -22.2550   20.5020 H   0  0  0  0  0  0
  -28.5891  -21.7948   21.6954 H   0  0  0  0  0  0
  -27.3219  -22.7723   23.2517 H   0  0  0  0  0  0
  -29.1411  -15.0914   21.6673 H   0  0  0  0  0  0
  1 25  1  0  0  0
  1 30  2  0  0  0
  1 90  1  0  0  0
  2  3  1  0  0  0
  2 25  1  0  0  0
  2 91  1  0  0  0
  2 92  1  0  0  0
  3  4  1  0  0  0
  3 93  1  0  0  0
  3 94  1  0  0  0
  4  5  1  0  0  0
  4 95  1  0  0  0
  4 96  1  0  0  0
  5  6  1  0  0  0
  5 26  1  0  0  0
  5 97  1  0  0  0
  6 25  1  0  0  0
  6 98  1  0  0  0
  6 99  1  0  0  0
  7  8  2  0  0  0
  7 26  1  0  0  0
  7 29  1  0  0  0
  8  9  1  0  0  0
  8 22  1  0  0  0
  9 10  1  0  0  0
  9 27  2  0  0  0
 10 11  2  0  0  0
 10 15  1  0  0  0
 11 12  1  0  0  0
 11100  1  0  0  0
 12 13  2  0  0  0
 12101  1  0  0  0
 13 14  1  0  0  0
 13 31  1  0  0  0
 14 15  2  0  0  0
 14102  1  0  0  0
 15103  1  0  0  0
 16 17  2  0  0  0
 16 21  1  0  0  0
 16 31  1  0  0  0
 17 18  1  0  0  0
 17104  1  0  0  0
 18 19  2  0  0  0
 18105  1  0  0  0
 19 20  1  0  0  0
 19 24  1  0  0  0
 20 21  2  0  0  0
 20106  1  0  0  0
 21 23  1  0  0  0
 22 28  1  0  0  0
 22 32  2  0  0  0
 26 27  1  0  0  0
 28107  1  0  0  0
 28108  1  0  0  0
 29109  1  0  0  0
 29110  1  0  0  0
 33 34  1  0  0  0
 33 66  1  0  0  0
 33 70  2  0  0  0
 34 36  1  0  0  0
 34 59  1  0  0  0
 34111  1  0  0  0
 35 44  2  0  0  0
 35 45  1  0  0  0
 35 68  1  0  0  0
 36 56  1  0  0  0
 36112  1  0  0  0
 37 39  1  0  0  0
 37 47  1  0  0  0
 37 66  1  0  0  0
 37113  1  0  0  0
 38 43  2  0  0  0
 38 46  1  0  0  0
 38 47  1  0  0  0
 39 64  1  0  0  0
 39 67  2  0  0  0
 40 52  1  0  0  0
 40 53  2  0  0  0
 40 58  1  0  0  0
 41114  1  0  0  0
 41115  1  0  0  0
 41116  1  0  0  0
 41 48  1  0  0  0
 42 43  1  0  0  0
 42 66  1  0  0  0
 42117  1  0  0  0
 42118  1  0  0  0
 43 44  1  0  0  0
 44119  1  0  0  0
 45 46  2  0  0  0
 45120  1  0  0  0
 46121  1  0  0  0
 47122  1  0  0  0
 47123  1  0  0  0
 48 56  1  0  0  0
 48 65  1  0  0  0
 48124  1  0  0  0
 49 50  1  0  0  0
 49 53  1  0  0  0
 49 64  1  0  0  0
 49125  1  0  0  0
 50 51  1  0  0  0
 50126  1  0  0  0
 50127  1  0  0  0
 51 52  1  0  0  0
 51128  1  0  0  0
 51129  1  0  0  0
 52130  1  0  0  0
 52131  1  0  0  0
 53 54  1  0  0  0
 54 55  2  0  0  0
 54132  1  0  0  0
 55 57  1  0  0  0
 55133  1  0  0  0
 56 69  2  0  0  0
 57 58  2  0  0  0
 57134  1  0  0  0
 58135  1  0  0  0
 59 60  1  0  0  0
 59 61  1  0  0  0
 59 62  1  0  0  0
 60136  1  0  0  0
 60137  1  0  0  0
 60138  1  0  0  0
 61139  1  0  0  0
 61140  1  0  0  0
 61141  1  0  0  0
 62142  1  0  0  0
 62143  1  0  0  0
 62144  1  0  0  0
 63 65  1  0  0  0
 63145  1  0  0  0
 63146  1  0  0  0
 63147  1  0  0  0
 64148  1  0  0  0
 65149  1  0  0  0
 68 81  1  0  0  0
 71 72  2  0  0  0
 71 75  1  0  0  0
 71150  1  0  0  0
 72 73  1  0  0  0
 72 82  1  0  0  0
 73 74  2  0  0  0
 73 86  1  0  0  0
 74 83  1  0  0  0
 74 89  1  0  0  0
 75 89  2  0  0  0
 75 90  1  0  0  0
 76 77  1  0  0  0
 76 79  1  0  0  0
 76151  1  0  0  0
 76152  1  0  0  0
 77 81  1  0  0  0
 77153  1  0  0  0
 77154  1  0  0  0
 78 81  1  0  0  0
 78155  1  0  0  0
 78156  1  0  0  0
 78 80  1  0  0  0
 79 80  1  0  0  0
 79 87  1  0  0  0
 79157  1  0  0  0
 80 88  1  0  0  0
 80158  1  0  0  0
 81159  1  0  0  0
 82160  1  0  0  0
 82161  1  0  0  0
 82162  1  0  0  0
 83163  1  0  0  0
 83164  1  0  0  0
 83165  1  0  0  0
 84166  1  0  0  0
 84167  1  0  0  0
 84168  1  0  0  0
 84 88  1  0  0  0
 85 88  1  0  0  0
 85169  1  0  0  0
 85170  1  0  0  0
 85171  1  0  0  0
 86 87  1  0  0  0
 86172  1  0  0  0
 86173  1  0  0  0
 87174  1  0  0  0
 87175  1  0  0  0
 88176  1  0  0  0
 90177  1  0  0  0
M  ISO  4   1 100  68 101  81 101  90 100
M  END
> <chiral flag>
0

> <version>
0

> <s_m_source_file>
/data/baiqing/PycharmProjects/Reinvent-master-3.2/result/LINK_invent/BTK/process_docking_weight1_custom_sum_contain_oxygen_bond_distance_aromatic_linkinvent_7_9_3/rearranged_h_0143.sdf

> <i_m_source_file_index>
27

> <r_mmod_Potential_Energy-OPLS-2005>
-123.190818786621

> <r_mmod_Stretch_Energy-OPLS-2005>
46.0514602661133

> <r_mmod_Bend_Energy-OPLS-2005>
128.364044189453

> <r_mmod_Torsional_Energy-OPLS-2005>
268.667999267578

> <r_mmod_Improper_Torsional_Energy-OPLS-2005>
2.83596205711365

> <r_mmod_Van_der_Waal_Energy-OPLS-2005>
157.087905883789

> <r_mmod_Electrostatic_Energy-OPLS-2005>
-519.1845703125

> <r_mmod_Solvation_Energy-OPLS-2005>
-219.655975341797

> <b_mmod_Minimization_Converged-OPLS-2005>
0

> <r_mmod_RMS_Derivative-OPLS-2005>
3.12992024421692

$$$$
27
                    3D
 Structure written by MMmdl.
169178  0  0  1  0            999 V2000
  -30.5634  -14.8641   20.5269 C   0  0  0  0  0  0
  -30.4499  -12.5559   19.4781 C   0  0  0  0  0  0
  -29.5200  -12.5616   18.2396 C   0  0  0  0  0  0
  -28.0447  -12.3552   18.6407 C   0  0  0  0  0  0
  -27.6416  -13.2291   19.8547 C   0  0  2  0  0  0
  -28.6861  -13.1090   20.9773 C   0  0  0  0  0  0
  -25.2494  -13.8125   20.5737 C   0  0  0  0  0  0
  -24.1778  -13.0378   20.9187 C   0  0  0  0  0  0
  -24.6380  -11.6866   20.8706 C   0  0  0  0  0  0
  -23.9061  -10.4260   21.0385 C   0  0  0  0  0  0
  -24.3616   -9.4185   21.9171 C   0  0  0  0  0  0
  -23.6286   -8.2227   22.0750 C   0  0  0  0  0  0
  -22.4262   -8.0267   21.3545 C   0  0  0  0  0  0
  -21.9895   -9.0238   20.4641 C   0  0  0  0  0  0
  -22.7231  -10.2110   20.3039 C   0  0  0  0  0  0
  -21.6849   -6.0722   22.5279 C   0  0  0  0  0  0
  -21.4015   -6.5629   23.8211 C   0  0  0  0  0  0
  -21.3664   -5.6783   24.9174 C   0  0  0  0  0  0
  -21.6047   -4.3044   24.7222 C   0  0  0  0  0  0
  -21.8822   -3.8136   23.4344 C   0  0  0  0  0  0
  -21.9195   -4.6952   22.3398 C   0  0  0  0  0  0
  -22.7810  -13.5178   21.1866 C   0  0  0  0  0  0
  -22.1661   -4.2139   21.0974 F   0  0  0  0  0  0
  -21.5632   -3.4525   25.7735 F   0  0  0  0  0  0
  -29.9703  -13.5976   20.4342 N   0  0  0  0  0  0
  -26.2924  -12.9347   20.3265 N   0  0  0  0  0  0
  -25.9304  -11.6487   20.5676 N   0  0  0  0  0  0
  -22.0466  -12.8178   22.0431 N   0  0  0  0  0  0
  -25.4159  -15.1851   20.4319 N   0  0  0  0  0  0
  -31.7064  -14.9831   20.0687 O   0  0  0  0  0  0
  -21.6626   -6.8867   21.4243 O   0  0  0  0  0  0
  -22.3492  -14.5484   20.6716 O   0  0  0  0  0  0
  -24.6377  -31.8491   23.1929 C   0  0  0  0  0  0
  -25.9176  -32.4724   23.8296 C   0  0  1  0  0  0
  -27.2213  -27.1917   20.1491 C   0  0  0  0  0  0
  -25.5945  -33.8525   24.2217 N   0  0  0  0  0  0
  -23.4388  -30.4679   21.5377 C   0  0  2  0  0  0
  -24.8898  -28.9024   20.1120 C   0  0  0  0  0  0
  -22.7545  -29.4562   22.4896 C   0  0  0  0  0  0
  -18.0303  -28.1382   22.8486 C   0  0  0  0  0  0
  -24.1489  -36.7266   23.2641 C   0  0  0  0  0  0
  -25.9901  -30.7384   21.3859 C   0  0  0  0  0  0
  -26.0629  -29.3531   20.7319 C   0  0  0  0  0  0
  -27.2314  -28.5124   20.7363 C   0  0  0  0  0  0
  -26.0353  -26.8388   19.4718 C   0  0  0  0  0  0
  -24.8850  -27.6550   19.4680 C   0  0  0  0  0  0
  -23.6628  -29.7974   20.1563 C   0  0  0  0  0  0
  -25.4120  -36.3050   24.0322 C   0  0  1  0  0  0
  -20.5912  -28.3702   23.1253 C   0  0  2  0  0  0
  -20.6791  -26.9410   22.5400 C   0  0  0  0  0  0
  -19.5752  -26.6356   21.5221 C   0  0  0  0  0  0
  -18.1942  -26.7911   22.1646 C   0  0  0  0  0  0
  -19.1557  -28.8865   23.2857 C   0  0  0  0  0  0
  -18.9476  -30.1463   23.8875 C   0  0  0  0  0  0
  -17.6471  -30.6585   24.0557 C   0  0  0  0  0  0
  -25.9069  -34.9424   23.5078 C   0  0  0  0  0  0
  -16.5366  -29.9076   23.6330 C   0  0  0  0  0  0
  -16.7290  -28.6491   23.0358 C   0  0  0  0  0  0
  -26.4515  -31.6572   25.0716 C   0  0  0  0  0  0
  -25.3711  -31.3747   26.1419 C   0  0  0  0  0  0
  -27.0378  -30.2976   24.6263 C   0  0  0  0  0  0
  -27.6053  -32.4329   25.7499 C   0  0  0  0  0  0
  -27.5578  -37.1791   24.8468 C   0  0  0  0  0  0
  -21.4244  -29.3044   22.3646 N   0  0  0  0  0  0
  -26.4288  -37.3758   23.9412 N   0  0  0  0  0  0
  -24.7081  -31.0385   22.0943 N   0  0  0  0  0  0
  -23.4216  -28.8112   23.3024 O   0  0  0  0  0  0
  -28.2960  -26.2457   20.1652 O   0  0  0  0  0  0
  -26.5647  -34.8912   22.4650 O   0  0  0  0  0  0
  -23.5508  -32.1354   23.7171 O   0  0  0  0  0  0
  -30.3129  -19.8880   21.3529 C   0  0  0  0  0  0
  -28.6248  -19.5072   19.7497 C   0  0  0  0  0  0
  -30.6203  -18.4705   21.4002 C   0  0  0  0  0  0
  -29.2690  -20.4808   20.5765 C   0  0  0  0  0  0
  -28.9162  -18.0838   19.7743 C   0  0  0  0  0  0
  -29.8843  -17.4780   20.6522 C   0  0  0  0  0  0
  -32.7089  -19.2758   23.8357 C   0  0  0  0  0  0
  -33.0555  -18.8003   22.4226 C   0  0  0  0  0  0
  -31.5589  -18.2670   23.8675 C   0  0  0  0  0  0
  -31.7274  -18.0276   22.3583 C   0  0  0  0  0  0
  -28.0800  -17.1926   18.8778 C   0  0  0  0  0  0
  -26.7760  -24.5214   21.3118 C   0  0  0  0  0  0
  -29.2521  -15.8346   22.3570 C   0  0  0  0  0  0
  -28.6816  -21.9742   20.8960 C   0  0  0  0  0  0
  -28.8081  -23.4164   20.0831 C   0  0  0  0  0  0
  -28.1804  -24.8167   20.7449 C   0  0  1  0  0  0
  -29.8581  -15.9975   21.0266 N   0  0  0  0  0  0
  -31.4805  -12.7265   19.1644 H   0  0  0  0  0  0
  -30.4573  -11.5713   19.9476 H   0  0  0  0  0  0
  -29.8284  -11.7912   17.5316 H   0  0  0  0  0  0
  -29.6230  -13.5134   17.7156 H   0  0  0  0  0  0
  -27.9126  -11.3015   18.8884 H   0  0  0  0  0  0
  -27.3865  -12.5544   17.7940 H   0  0  0  0  0  0
  -27.6421  -14.2622   19.5095 H   0  0  0  0  0  0
  -28.7742  -12.0682   21.2916 H   0  0  0  0  0  0
  -28.3419  -13.6112   21.8708 H   0  0  0  0  0  0
  -25.2766   -9.5656   22.4740 H   0  0  0  0  0  0
  -23.9993   -7.4618   22.7470 H   0  0  0  0  0  0
  -21.0824   -8.8758   19.8948 H   0  0  0  0  0  0
  -22.3698  -10.9647   19.6142 H   0  0  0  0  0  0
  -21.2002   -7.6138   23.9707 H   0  0  0  0  0  0
  -21.1487   -6.0513   25.9077 H   0  0  0  0  0  0
  -22.0600   -2.7596   23.2844 H   0  0  0  0  0  0
  -22.4075  -11.9830   22.4806 H   0  0  0  0  0  0
  -21.1090  -13.1210   22.2648 H   0  0  0  0  0  0
  -24.6560  -15.8408   20.5756 H   0  0  0  0  0  0
  -26.2856  -15.6306   20.1752 H   0  0  0  0  0  0
  -26.7241  -32.5350   23.1027 H   0  0  0  0  0  0
  -25.0081  -33.9648   25.0356 H   0  0  0  0  0  0
  -22.7382  -31.2914   21.3854 H   0  0  0  0  0  0
  -23.3757  -35.9592   23.3299 H   0  0  0  0  0  0
  -24.3577  -36.8899   22.2057 H   0  0  0  0  0  0
  -23.7236  -37.6459   23.6675 H   0  0  0  0  0  0
  -26.1375  -31.4929   20.6119 H   0  0  0  0  0  0
  -26.8632  -30.7903   22.0243 H   0  0  0  0  0  0
  -28.1279  -28.8536   21.2343 H   0  0  0  0  0  0
  -25.9864  -25.8894   18.9582 H   0  0  0  0  0  0
  -23.9939  -27.3088   18.9628 H   0  0  0  0  0  0
  -23.7933  -30.5717   19.3990 H   0  0  0  0  0  0
  -22.7795  -29.2346   19.8487 H   0  0  0  0  0  0
  -25.1303  -36.1889   25.0814 H   0  0  0  0  0  0
  -20.9997  -28.3281   24.1371 H   0  0  0  0  0  0
  -20.5707  -26.2316   23.3616 H   0  0  0  0  0  0
  -21.6651  -26.7432   22.1179 H   0  0  0  0  0  0
  -19.6907  -25.6255   21.1276 H   0  0  0  0  0  0
  -19.6673  -27.3143   20.6731 H   0  0  0  0  0  0
  -17.4194  -26.6641   21.4072 H   0  0  0  0  0  0
  -18.0359  -26.0063   22.9057 H   0  0  0  0  0  0
  -19.7955  -30.7281   24.2234 H   0  0  0  0  0  0
  -17.5024  -31.6263   24.5158 H   0  0  0  0  0  0
  -15.5364  -30.2969   23.7657 H   0  0  0  0  0  0
  -15.8691  -28.0801   22.7086 H   0  0  0  0  0  0
  -24.5895  -30.7088   25.7740 H   0  0  0  0  0  0
  -24.8889  -32.2924   26.4797 H   0  0  0  0  0  0
  -25.8002  -30.8954   27.0227 H   0  0  0  0  0  0
  -26.2987  -29.6703   24.1263 H   0  0  0  0  0  0
  -27.4004  -29.7263   25.4818 H   0  0  0  0  0  0
  -27.8887  -30.4223   23.9562 H   0  0  0  0  0  0
  -27.2652  -33.3643   26.2034 H   0  0  0  0  0  0
  -28.3886  -32.6867   25.0346 H   0  0  0  0  0  0
  -28.0695  -31.8484   26.5451 H   0  0  0  0  0  0
  -28.2592  -38.0090   24.7511 H   0  0  0  0  0  0
  -28.1077  -36.2621   24.6298 H   0  0  0  0  0  0
  -27.2296  -37.1440   25.8870 H   0  0  0  0  0  0
  -20.9449  -29.8787   21.6853 H   0  0  0  0  0  0
  -26.0163  -38.2831   24.1408 H   0  0  0  0  0  0
  -30.8511  -20.5406   22.0255 H   0  0  0  0  0  0
  -27.8049  -19.8461   19.1310 H   0  0  0  0  0  0
  -32.3673  -20.3113   23.8653 H   0  0  0  0  0  0
  -33.4885  -19.0895   24.5753 H   0  0  0  0  0  0
  -33.9246  -18.1405   22.4101 H   0  0  0  0  0  0
  -33.1569  -19.6007   21.6889 H   0  0  0  0  0  0
  -30.5982  -18.6968   24.1541 H   0  0  0  0  0  0
  -31.7924  -17.3830   24.4629 H   0  0  0  0  0  0
  -31.9626  -16.9782   22.1818 H   0  0  0  0  0  0
  -27.7795  -17.7223   17.9734 H   0  0  0  0  0  0
  -27.1778  -16.8879   19.4001 H   0  0  0  0  0  0
  -28.6294  -16.3034   18.5687 H   0  0  0  0  0  0
  -26.3735  -25.3626   21.8765 H   0  0  0  0  0  0
  -26.8000  -23.6850   22.0088 H   0  0  0  0  0  0
  -26.0694  -24.2591   20.5249 H   0  0  0  0  0  0
  -29.3870  -16.7113   22.9885 H   0  0  0  0  0  0
  -29.6735  -15.0017   22.9229 H   0  0  0  0  0  0
  -28.1738  -15.7062   22.2637 H   0  0  0  0  0  0
  -29.0194  -22.1880   21.9104 H   0  0  0  0  0  0
  -27.6124  -21.7966   21.0105 H   0  0  0  0  0  0
  -28.3615  -23.2808   19.0980 H   0  0  0  0  0  0
  -29.8668  -23.5958   19.8947 H   0  0  0  0  0  0
  -28.7884  -24.9381   21.6422 H   0  0  0  0  0  0
  1 25  1  0  0  0
  1 30  2  0  0  0
  1 87  1  0  0  0
  2  3  1  0  0  0
  2 25  1  0  0  0
  2 88  1  0  0  0
  2 89  1  0  0  0
  3  4  1  0  0  0
  3 90  1  0  0  0
  3 91  1  0  0  0
  4  5  1  0  0  0
  4 92  1  0  0  0
  4 93  1  0  0  0
  5  6  1  0  0  0
  5 26  1  0  0  0
  5 94  1  0  0  0
  6 25  1  0  0  0
  6 95  1  0  0  0
  6 96  1  0  0  0
  7  8  2  0  0  0
  7 26  1  0  0  0
  7 29  1  0  0  0
  8  9  1  0  0  0
  8 22  1  0  0  0
  9 10  1  0  0  0
  9 27  2  0  0  0
 10 11  2  0  0  0
 10 15  1  0  0  0
 11 12  1  0  0  0
 11 97  1  0  0  0
 12 13  2  0  0  0
 12 98  1  0  0  0
 13 14  1  0  0  0
 13 31  1  0  0  0
 14 15  2  0  0  0
 14 99  1  0  0  0
 15100  1  0  0  0
 16 17  2  0  0  0
 16 21  1  0  0  0
 16 31  1  0  0  0
 17 18  1  0  0  0
 17101  1  0  0  0
 18 19  2  0  0  0
 18102  1  0  0  0
 19 20  1  0  0  0
 19 24  1  0  0  0
 20 21  2  0  0  0
 20103  1  0  0  0
 21 23  1  0  0  0
 22 28  1  0  0  0
 22 32  2  0  0  0
 26 27  1  0  0  0
 28104  1  0  0  0
 28105  1  0  0  0
 29106  1  0  0  0
 29107  1  0  0  0
 33 34  1  0  0  0
 33 66  1  0  0  0
 33 70  2  0  0  0
 34 36  1  0  0  0
 34 59  1  0  0  0
 34108  1  0  0  0
 35 44  2  0  0  0
 35 45  1  0  0  0
 35 68  1  0  0  0
 36 56  1  0  0  0
 36109  1  0  0  0
 37 39  1  0  0  0
 37 47  1  0  0  0
 37 66  1  0  0  0
 37110  1  0  0  0
 38 43  2  0  0  0
 38 46  1  0  0  0
 38 47  1  0  0  0
 39 64  1  0  0  0
 39 67  2  0  0  0
 40 52  1  0  0  0
 40 53  2  0  0  0
 40 58  1  0  0  0
 41111  1  0  0  0
 41112  1  0  0  0
 41113  1  0  0  0
 41 48  1  0  0  0
 42 43  1  0  0  0
 42 66  1  0  0  0
 42114  1  0  0  0
 42115  1  0  0  0
 43 44  1  0  0  0
 44116  1  0  0  0
 45 46  2  0  0  0
 45117  1  0  0  0
 46118  1  0  0  0
 47119  1  0  0  0
 47120  1  0  0  0
 48 56  1  0  0  0
 48 65  1  0  0  0
 48121  1  0  0  0
 49 50  1  0  0  0
 49 53  1  0  0  0
 49 64  1  0  0  0
 49122  1  0  0  0
 50 51  1  0  0  0
 50123  1  0  0  0
 50124  1  0  0  0
 51 52  1  0  0  0
 51125  1  0  0  0
 51126  1  0  0  0
 52127  1  0  0  0
 52128  1  0  0  0
 53 54  1  0  0  0
 54 55  2  0  0  0
 54129  1  0  0  0
 55 57  1  0  0  0
 55130  1  0  0  0
 56 69  2  0  0  0
 57 58  2  0  0  0
 57131  1  0  0  0
 58132  1  0  0  0
 59 60  1  0  0  0
 59 61  1  0  0  0
 59 62  1  0  0  0
 60133  1  0  0  0
 60134  1  0  0  0
 60135  1  0  0  0
 61136  1  0  0  0
 61137  1  0  0  0
 61138  1  0  0  0
 62139  1  0  0  0
 62140  1  0  0  0
 62141  1  0  0  0
 63 65  1  0  0  0
 63142  1  0  0  0
 63143  1  0  0  0
 63144  1  0  0  0
 64145  1  0  0  0
 65146  1  0  0  0
 68 86  1  0  0  0
 71 73  2  0  0  0
 71 74  1  0  0  0
 71147  1  0  0  0
 72 74  2  0  0  0
 72 75  1  0  0  0
 72148  1  0  0  0
 73 76  1  0  0  0
 73 80  1  0  0  0
 74 84  1  0  0  0
 75 76  2  0  0  0
 75 81  1  0  0  0
 76 87  1  0  0  0
 77 78  1  0  0  0
 77 79  1  0  0  0
 77149  1  0  0  0
 77150  1  0  0  0
 78 80  1  0  0  0
 78151  1  0  0  0
 78152  1  0  0  0
 79 80  1  0  0  0
 79153  1  0  0  0
 79154  1  0  0  0
 80155  1  0  0  0
 81156  1  0  0  0
 81157  1  0  0  0
 81158  1  0  0  0
 82159  1  0  0  0
 82160  1  0  0  0
 82161  1  0  0  0
 82 86  1  0  0  0
 83 87  1  0  0  0
 83162  1  0  0  0
 83163  1  0  0  0
 83164  1  0  0  0
 84 85  1  0  0  0
 84165  1  0  0  0
 84166  1  0  0  0
 85 86  1  0  0  0
 85167  1  0  0  0
 85168  1  0  0  0
 86169  1  0  0  0
M  ISO  4   1 100  68 101  86 101  87 100
M  END
> <chiral flag>
0

> <version>
0

> <s_m_source_file>
/data/baiqing/PycharmProjects/Reinvent-master-3.2/result/LINK_invent/BTK/process_docking_weight1_custom_sum_contain_oxygen_bond_distance_aromatic_linkinvent_7_9_3/rearranged_h_0143.sdf

> <i_m_source_file_index>
28

> <r_mmod_Potential_Energy-OPLS-2005>
646.678894042969

> <r_mmod_Stretch_Energy-OPLS-2005>
208.08659362793

> <r_mmod_Bend_Energy-OPLS-2005>
266.502166748047

> <r_mmod_Torsional_Energy-OPLS-2005>
389.034515380859

> <r_mmod_Improper_Torsional_Energy-OPLS-2005>
9.11269664764404

> <r_mmod_Van_der_Waal_Energy-OPLS-2005>
140.640487670898

> <r_mmod_Electrostatic_Energy-OPLS-2005>
-315.505279541016

> <r_mmod_Solvation_Energy-OPLS-2005>
-183.276138305664

> <b_mmod_Minimization_Converged-OPLS-2005>
0

> <r_mmod_RMS_Derivative-OPLS-2005>
0.874220430850983

$$$$
28
                    3D
 Structure written by MMmdl.
153161  0  0  1  0            999 V2000
  -30.4125  -15.4969   20.3500 C   0  0  0  0  0  0
  -30.4130  -12.9943   19.5122 C   0  0  0  0  0  0
  -29.5292  -12.6161   18.2966 C   0  0  0  0  0  0
  -28.0993  -12.2893   18.7492 C   0  0  0  0  0  0
  -27.5920  -13.2990   19.8057 C   0  0  2  0  0  0
  -28.6190  -13.6108   20.9176 C   0  0  0  0  0  0
  -25.2328  -13.8284   20.5808 C   0  0  0  0  0  0
  -24.1706  -13.0441   20.9292 C   0  0  0  0  0  0
  -24.6394  -11.6947   20.8775 C   0  0  0  0  0  0
  -23.9101  -10.4295   21.0405 C   0  0  0  0  0  0
  -24.3643   -9.4207   21.9183 C   0  0  0  0  0  0
  -23.6309   -8.2245   22.0753 C   0  0  0  0  0  0
  -22.4290   -8.0285   21.3544 C   0  0  0  0  0  0
  -21.9933   -9.0260   20.4644 C   0  0  0  0  0  0
  -22.7271  -10.2135   20.3053 C   0  0  0  0  0  0
  -21.6858   -6.0739   22.5279 C   0  0  0  0  0  0
  -21.4018   -6.5642   23.8213 C   0  0  0  0  0  0
  -21.3660   -5.6794   24.9174 C   0  0  0  0  0  0
  -21.6044   -4.3056   24.7224 C   0  0  0  0  0  0
  -21.8818   -3.8149   23.4345 C   0  0  0  0  0  0
  -21.9194   -4.6966   22.3402 C   0  0  0  0  0  0
  -22.7721  -13.5176   21.1923 C   0  0  0  0  0  0
  -22.1662   -4.2152   21.0979 F   0  0  0  0  0  0
  -21.5627   -3.4539   25.7737 F   0  0  0  0  0  0
  -29.8007  -14.1880   20.2423 N   0  0  0  0  0  0
  -26.2755  -12.9596   20.3237 N   0  0  0  0  0  0
  -25.9336  -11.6677   20.5720 N   0  0  0  0  0  0
  -22.0383  -12.8151   22.0471 N   0  0  0  0  0  0
  -25.3961  -15.2023   20.4271 N   0  0  0  0  0  0
  -31.6466  -15.3504   20.2712 O   0  0  0  0  0  0
  -21.6647   -6.8885   21.4242 O   0  0  0  0  0  0
  -22.3400  -14.5476   20.6759 O   0  0  0  0  0  0
  -24.6768  -31.8084   23.1579 C   0  0  0  0  0  0
  -25.9384  -32.4509   23.8097 C   0  0  1  0  0  0
  -27.2158  -26.7763   20.2098 C   0  0  0  0  0  0
  -25.5993  -33.8330   24.1991 N   0  0  0  0  0  0
  -23.4982  -30.4142   21.5110 C   0  0  2  0  0  0
  -24.9513  -28.7681   20.1208 C   0  0  0  0  0  0
  -22.7730  -29.4364   22.4741 C   0  0  0  0  0  0
  -18.0333  -28.1417   22.8460 C   0  0  0  0  0  0
  -24.1496  -36.7172   23.2651 C   0  0  0  0  0  0
  -26.0754  -30.5666   21.4094 C   0  0  0  0  0  0
  -26.1406  -29.1387   20.7600 C   0  0  0  0  0  0
  -27.2642  -28.1704   20.7690 C   0  0  0  0  0  0
  -25.9929  -26.5936   19.5207 C   0  0  0  0  0  0
  -24.9116  -27.5196   19.4782 C   0  0  0  0  0  0
  -23.7467  -29.7168   20.1440 C   0  0  0  0  0  0
  -25.4143  -36.2920   24.0287 C   0  0  1  0  0  0
  -20.5964  -28.3772   23.1160 C   0  0  2  0  0  0
  -20.6804  -26.9440   22.5402 C   0  0  0  0  0  0
  -19.5778  -26.6374   21.5215 C   0  0  0  0  0  0
  -18.1961  -26.7946   22.1621 C   0  0  0  0  0  0
  -19.1597  -28.8918   23.2792 C   0  0  0  0  0  0
  -18.9504  -30.1503   23.8834 C   0  0  0  0  0  0
  -17.6495  -30.6602   24.0552 C   0  0  0  0  0  0
  -25.9118  -34.9308   23.4971 C   0  0  0  0  0  0
  -16.5385  -29.9085   23.6347 C   0  0  0  0  0  0
  -16.7313  -28.6507   23.0365 C   0  0  0  0  0  0
  -26.4585  -31.6512   25.0688 C   0  0  0  0  0  0
  -25.3670  -31.3806   26.1316 C   0  0  0  0  0  0
  -27.0506  -30.2860   24.6529 C   0  0  0  0  0  0
  -27.6046  -32.4356   25.7504 C   0  0  0  0  0  0
  -27.5566  -37.1744   24.8466 C   0  0  0  0  0  0
  -21.4386  -29.3037   22.3492 N   0  0  0  0  0  0
  -26.4275  -37.3673   23.9407 N   0  0  0  0  0  0
  -24.7731  -30.9607   22.0790 N   0  0  0  0  0  0
  -23.4212  -28.7951   23.3047 O   0  0  0  0  0  0
  -28.2079  -25.6095   20.2338 O   0  0  0  0  0  0
  -26.5748  -34.8871   22.4581 O   0  0  0  0  0  0
  -23.5805  -32.1122   23.6583 O   0  0  0  0  0  0
  -28.4968  -17.7123   20.1775 C   0  0  0  0  0  0
  -30.6020  -18.2161   20.8841 C   0  0  0  0  0  0
  -28.2331  -19.4070   19.8436 C   0  0  0  0  0  0
  -30.3919  -19.8523   20.4265 C   0  0  1  0  0  0
  -31.0893  -20.0564   19.0649 C   0  0  0  0  0  0
  -28.9589  -22.3060   19.9849 C   0  0  0  0  0  0
  -28.0174  -23.8966   20.3867 C   0  0  0  0  0  0
  -29.8457  -16.9363   20.4011 N   0  0  0  0  0  0
  -29.0245  -20.6229   20.4617 N   0  3  1  0  0  0
  -31.4151  -13.2212   19.1462 H   0  0  0  0  0  0
  -30.5407  -12.1421   20.1819 H   0  0  0  0  0  0
  -29.9581  -11.7699   17.7581 H   0  0  0  0  0  0
  -29.5073  -13.4499   17.5932 H   0  0  0  0  0  0
  -28.1104  -11.2875   19.1803 H   0  0  0  0  0  0
  -27.4235  -12.2491   17.8940 H   0  0  0  0  0  0
  -27.4602  -14.2259   19.2455 H   0  0  0  0  0  0
  -28.8589  -12.7269   21.5105 H   0  0  0  0  0  0
  -28.2106  -14.3488   21.6100 H   0  0  0  0  0  0
  -25.2783   -9.5683   22.4767 H   0  0  0  0  0  0
  -24.0013   -7.4637   22.7477 H   0  0  0  0  0  0
  -21.0864   -8.8785   19.8950 H   0  0  0  0  0  0
  -22.3728  -10.9677   19.6167 H   0  0  0  0  0  0
  -21.2013   -7.6150   23.9717 H   0  0  0  0  0  0
  -21.1482   -6.0523   25.9077 H   0  0  0  0  0  0
  -22.0596   -2.7611   23.2844 H   0  0  0  0  0  0
  -22.4023  -11.9825   22.4865 H   0  0  0  0  0  0
  -21.0989  -13.1146   22.2668 H   0  0  0  0  0  0
  -24.6283  -15.8540   20.5476 H   0  0  0  0  0  0
  -26.2475  -15.6443   20.1084 H   0  0  0  0  0  0
  -26.7460  -32.5002   23.0808 H   0  0  0  0  0  0
  -25.0063  -33.9382   25.0092 H   0  0  0  0  0  0
  -22.8194  -31.2497   21.3276 H   0  0  0  0  0  0
  -23.3774  -35.9485   23.3268 H   0  0  0  0  0  0
  -24.3566  -36.8874   22.2074 H   0  0  0  0  0  0
  -23.7239  -37.6335   23.6750 H   0  0  0  0  0  0
  -26.2699  -31.2961   20.6222 H   0  0  0  0  0  0
  -26.9299  -30.6314   22.0709 H   0  0  0  0  0  0
  -28.1669  -28.4623   21.2869 H   0  0  0  0  0  0
  -25.8400  -25.6486   19.0196 H   0  0  0  0  0  0
  -24.0120  -27.2291   18.9530 H   0  0  0  0  0  0
  -23.9183  -30.4788   19.3829 H   0  0  0  0  0  0
  -22.8522  -29.1813   19.8213 H   0  0  0  0  0  0
  -25.1349  -36.1693   25.0777 H   0  0  0  0  0  0
  -21.0048  -28.3390   24.1285 H   0  0  0  0  0  0
  -20.5674  -26.2394   23.3656 H   0  0  0  0  0  0
  -21.6666  -26.7396   22.1215 H   0  0  0  0  0  0
  -19.6936  -25.6268   21.1286 H   0  0  0  0  0  0
  -19.6719  -27.3149   20.6717 H   0  0  0  0  0  0
  -17.4230  -26.6688   21.4025 H   0  0  0  0  0  0
  -18.0352  -26.0104   22.9032 H   0  0  0  0  0  0
  -19.7979  -30.7337   24.2175 H   0  0  0  0  0  0
  -17.5045  -31.6275   24.5167 H   0  0  0  0  0  0
  -15.5382  -30.2966   23.7708 H   0  0  0  0  0  0
  -15.8714  -28.0804   22.7116 H   0  0  0  0  0  0
  -24.5876  -30.7133   25.7618 H   0  0  0  0  0  0
  -24.8835  -32.3020   26.4568 H   0  0  0  0  0  0
  -25.7865  -30.9083   27.0207 H   0  0  0  0  0  0
  -26.3206  -29.6494   24.1520 H   0  0  0  0  0  0
  -27.3964  -29.7281   25.5241 H   0  0  0  0  0  0
  -27.9175  -30.4005   24.0019 H   0  0  0  0  0  0
  -27.2593  -33.3718   26.1903 H   0  0  0  0  0  0
  -28.3950  -32.6820   25.0402 H   0  0  0  0  0  0
  -28.0612  -31.8604   26.5569 H   0  0  0  0  0  0
  -28.2555  -38.0065   24.7514 H   0  0  0  0  0  0
  -28.1091  -36.2588   24.6294 H   0  0  0  0  0  0
  -27.2280  -37.1382   25.8868 H   0  0  0  0  0  0
  -20.9672  -29.8706   21.6581 H   0  0  0  0  0  0
  -26.0109  -38.2723   24.1418 H   0  0  0  0  0  0
  -27.9687  -17.1575   19.4015 H   0  0  0  0  0  0
  -27.9266  -17.5012   21.0831 H   0  0  0  0  0  0
  -30.4748  -18.1981   21.9674 H   0  0  0  0  0  0
  -31.6619  -17.9949   20.7529 H   0  0  0  0  0  0
  -27.1784  -19.6107   20.0291 H   0  0  0  0  0  0
  -28.3270  -19.5210   18.7634 H   0  0  0  0  0  0
  -31.0016  -20.4110   21.1381 H   0  0  0  0  0  0
  -30.5837  -19.5216   18.2615 H   0  0  0  0  0  0
  -32.1140  -19.6861   19.0982 H   0  0  0  0  0  0
  -31.1467  -21.1071   18.7841 H   0  0  0  0  0  0
  -29.9707  -22.6129   20.2477 H   0  0  0  0  0  0
  -28.9770  -22.2663   18.8962 H   0  0  0  0  0  0
  -27.8438  -23.8079   21.4589 H   0  0  0  0  0  0
  -27.0301  -23.7248   19.9592 H   0  0  0  0  0  0
  -28.7633  -20.6350   21.4375 H   0  0  0  0  0  0
  1 25  1  0  0  0
  1 30  2  0  0  0
  1 78  1  0  0  0
  2  3  1  0  0  0
  2 25  1  0  0  0
  2 80  1  0  0  0
  2 81  1  0  0  0
  3  4  1  0  0  0
  3 82  1  0  0  0
  3 83  1  0  0  0
  4  5  1  0  0  0
  4 84  1  0  0  0
  4 85  1  0  0  0
  5  6  1  0  0  0
  5 26  1  0  0  0
  5 86  1  0  0  0
  6 25  1  0  0  0
  6 87  1  0  0  0
  6 88  1  0  0  0
  7  8  2  0  0  0
  7 26  1  0  0  0
  7 29  1  0  0  0
  8  9  1  0  0  0
  8 22  1  0  0  0
  9 10  1  0  0  0
  9 27  2  0  0  0
 10 11  2  0  0  0
 10 15  1  0  0  0
 11 12  1  0  0  0
 11 89  1  0  0  0
 12 13  2  0  0  0
 12 90  1  0  0  0
 13 14  1  0  0  0
 13 31  1  0  0  0
 14 15  2  0  0  0
 14 91  1  0  0  0
 15 92  1  0  0  0
 16 17  2  0  0  0
 16 21  1  0  0  0
 16 31  1  0  0  0
 17 18  1  0  0  0
 17 93  1  0  0  0
 18 19  2  0  0  0
 18 94  1  0  0  0
 19 20  1  0  0  0
 19 24  1  0  0  0
 20 21  2  0  0  0
 20 95  1  0  0  0
 21 23  1  0  0  0
 22 28  1  0  0  0
 22 32  2  0  0  0
 26 27  1  0  0  0
 28 96  1  0  0  0
 28 97  1  0  0  0
 29 98  1  0  0  0
 29 99  1  0  0  0
 33 34  1  0  0  0
 33 66  1  0  0  0
 33 70  2  0  0  0
 34 36  1  0  0  0
 34 59  1  0  0  0
 34100  1  0  0  0
 35 44  2  0  0  0
 35 45  1  0  0  0
 35 68  1  0  0  0
 36 56  1  0  0  0
 36101  1  0  0  0
 37 39  1  0  0  0
 37 47  1  0  0  0
 37 66  1  0  0  0
 37102  1  0  0  0
 38 43  2  0  0  0
 38 46  1  0  0  0
 38 47  1  0  0  0
 39 64  1  0  0  0
 39 67  2  0  0  0
 40 52  1  0  0  0
 40 53  2  0  0  0
 40 58  1  0  0  0
 41103  1  0  0  0
 41104  1  0  0  0
 41105  1  0  0  0
 41 48  1  0  0  0
 42 43  1  0  0  0
 42 66  1  0  0  0
 42106  1  0  0  0
 42107  1  0  0  0
 43 44  1  0  0  0
 44108  1  0  0  0
 45 46  2  0  0  0
 45109  1  0  0  0
 46110  1  0  0  0
 47111  1  0  0  0
 47112  1  0  0  0
 48 56  1  0  0  0
 48 65  1  0  0  0
 48113  1  0  0  0
 49 50  1  0  0  0
 49 53  1  0  0  0
 49 64  1  0  0  0
 49114  1  0  0  0
 50 51  1  0  0  0
 50115  1  0  0  0
 50116  1  0  0  0
 51 52  1  0  0  0
 51117  1  0  0  0
 51118  1  0  0  0
 52119  1  0  0  0
 52120  1  0  0  0
 53 54  1  0  0  0
 54 55  2  0  0  0
 54121  1  0  0  0
 55 57  1  0  0  0
 55122  1  0  0  0
 56 69  2  0  0  0
 57 58  2  0  0  0
 57123  1  0  0  0
 58124  1  0  0  0
 59 60  1  0  0  0
 59 61  1  0  0  0
 59 62  1  0  0  0
 60125  1  0  0  0
 60126  1  0  0  0
 60127  1  0  0  0
 61128  1  0  0  0
 61129  1  0  0  0
 61130  1  0  0  0
 62131  1  0  0  0
 62132  1  0  0  0
 62133  1  0  0  0
 63 65  1  0  0  0
 63134  1  0  0  0
 63135  1  0  0  0
 63136  1  0  0  0
 64137  1  0  0  0
 65138  1  0  0  0
 68 77  1  0  0  0
 71 73  1  0  0  0
 71 78  1  0  0  0
 71139  1  0  0  0
 71140  1  0  0  0
 72 74  1  0  0  0
 72 78  1  0  0  0
 72141  1  0  0  0
 72142  1  0  0  0
 73 79  1  0  0  0
 73143  1  0  0  0
 73144  1  0  0  0
 74 75  1  0  0  0
 74 79  1  0  0  0
 74145  1  0  0  0
 75146  1  0  0  0
 75147  1  0  0  0
 75148  1  0  0  0
 76 77  1  0  0  0
 76149  1  0  0  0
 76150  1  0  0  0
 76 79  1  0  0  0
 77151  1  0  0  0
 77152  1  0  0  0
 79153  1  0  0  0
M  CHG  1  79   1
M  ISO  4   1 100  68 101  77 101  78 100
M  END
> <chiral flag>
0

> <version>
0

> <s_m_source_file>
/data/baiqing/PycharmProjects/Reinvent-master-3.2/result/LINK_invent/BTK/process_docking_weight1_custom_sum_contain_oxygen_bond_distance_aromatic_linkinvent_7_9_3/rearranged_h_0143.sdf

> <i_m_source_file_index>
29

> <r_mmod_Potential_Energy-OPLS-2005>
2099.59057617188

> <r_mmod_Stretch_Energy-OPLS-2005>
825.533325195312

> <r_mmod_Bend_Energy-OPLS-2005>
689.387939453125

> <r_mmod_Torsional_Energy-OPLS-2005>
390.769378662109

> <r_mmod_Improper_Torsional_Energy-OPLS-2005>
3.05144882202148

> <r_mmod_Van_der_Waal_Energy-OPLS-2005>
114.856369018555

> <r_mmod_Electrostatic_Energy-OPLS-2005>
-203.351989746094

> <r_mmod_Solvation_Energy-OPLS-2005>
-438.006011962891

> <b_mmod_Minimization_Converged-OPLS-2005>
0

> <r_mmod_RMS_Derivative-OPLS-2005>
0.0783654972910881

$$$$
29
                    3D
 Structure written by MMmdl.
181193  0  0  1  0            999 V2000
  -30.6916  -14.5073   20.5601 C   0  0  0  0  0  0
  -30.4233  -12.3267   19.4301 C   0  0  0  0  0  0
  -29.4961  -12.5031   18.2097 C   0  0  0  0  0  0
  -28.0179  -12.3602   18.6219 C   0  0  0  0  0  0
  -27.6573  -13.2111   19.8693 C   0  0  2  0  0  0
  -28.6993  -13.0185   20.9935 C   0  0  0  0  0  0
  -25.2569  -13.8167   20.5678 C   0  0  0  0  0  0
  -24.1825  -13.0441   20.9176 C   0  0  0  0  0  0
  -24.6383  -11.6912   20.8730 C   0  0  0  0  0  0
  -23.9058  -10.4293   21.0401 C   0  0  0  0  0  0
  -24.3613   -9.4210   21.9177 C   0  0  0  0  0  0
  -23.6290   -8.2244   22.0749 C   0  0  0  0  0  0
  -22.4273   -8.0277   21.3543 C   0  0  0  0  0  0
  -21.9907   -9.0251   20.4643 C   0  0  0  0  0  0
  -22.7233  -10.2132   20.3049 C   0  0  0  0  0  0
  -21.6851   -6.0732   22.5278 C   0  0  0  0  0  0
  -21.4014   -6.5637   23.8211 C   0  0  0  0  0  0
  -21.3661   -5.6792   24.9170 C   0  0  0  0  0  0
  -21.6046   -4.3052   24.7224 C   0  0  0  0  0  0
  -21.8819   -3.8146   23.4344 C   0  0  0  0  0  0
  -21.9192   -4.6963   22.3400 C   0  0  0  0  0  0
  -22.7848  -13.5235   21.1848 C   0  0  0  0  0  0
  -22.1661   -4.2149   21.0978 F   0  0  0  0  0  0
  -21.5631   -3.4537   25.7738 F   0  0  0  0  0  0
  -30.0252  -13.3259   20.4347 N   0  0  0  0  0  0
  -26.2999  -12.9345   20.3340 N   0  0  0  0  0  0
  -25.9312  -11.6504   20.5755 N   0  0  0  0  0  0
  -22.0492  -12.8224   22.0401 N   0  0  0  0  0  0
  -25.4288  -15.1885   20.4101 N   0  0  0  0  0  0
  -31.8428  -14.6626   20.1437 O   0  0  0  0  0  0
  -21.6638   -6.8874   21.4238 O   0  0  0  0  0  0
  -22.3537  -14.5546   20.6703 O   0  0  0  0  0  0
  -24.6177  -31.8654   23.2075 C   0  0  0  0  0  0
  -25.9062  -32.4805   23.8382 C   0  0  1  0  0  0
  -27.2320  -27.4059   20.1027 C   0  0  0  0  0  0
  -25.5919  -33.8606   24.2318 N   0  0  0  0  0  0
  -23.4077  -30.4877   21.5489 C   0  0  2  0  0  0
  -24.8570  -28.9502   20.1138 C   0  0  0  0  0  0
  -22.7432  -29.4646   22.4985 C   0  0  0  0  0  0
  -18.0272  -28.1385   22.8495 C   0  0  0  0  0  0
  -24.1491  -36.7304   23.2638 C   0  0  0  0  0  0
  -25.9395  -30.8221   21.3646 C   0  0  0  0  0  0
  -26.0196  -29.4543   20.7123 C   0  0  0  0  0  0
  -27.2139  -28.6899   20.7033 C   0  0  0  0  0  0
  -26.0555  -26.9252   19.4934 C   0  0  0  0  0  0
  -24.8714  -27.6862   19.4994 C   0  0  0  0  0  0
  -23.6178  -29.8173   20.1650 C   0  0  0  0  0  0
  -25.4117  -36.3100   24.0334 C   0  0  1  0  0  0
  -20.5868  -28.3679   23.1313 C   0  0  2  0  0  0
  -20.6765  -26.9413   22.5415 C   0  0  0  0  0  0
  -19.5746  -26.6386   21.5215 C   0  0  0  0  0  0
  -18.1918  -26.7933   22.1621 C   0  0  0  0  0  0
  -19.1526  -28.8850   23.2893 C   0  0  0  0  0  0
  -18.9455  -30.1452   23.8907 C   0  0  0  0  0  0
  -17.6458  -30.6592   24.0572 C   0  0  0  0  0  0
  -25.9044  -34.9463   23.5119 C   0  0  0  0  0  0
  -16.5349  -29.9094   23.6335 C   0  0  0  0  0  0
  -16.7262  -28.6509   23.0360 C   0  0  0  0  0  0
  -26.4484  -31.6596   25.0718 C   0  0  0  0  0  0
  -25.3751  -31.3726   26.1469 C   0  0  0  0  0  0
  -27.0296  -30.3025   24.6108 C   0  0  0  0  0  0
  -27.6081  -32.4303   25.7459 C   0  0  0  0  0  0
  -27.5584  -37.1806   24.8466 C   0  0  0  0  0  0
  -21.4155  -29.3037   22.3720 N   0  0  0  0  0  0
  -26.4304  -37.3786   23.9398 N   0  0  0  0  0  0
  -24.6733  -31.0733   22.0984 N   0  0  0  0  0  0
  -23.4182  -28.8185   23.3041 O   0  0  0  0  0  0
  -28.3566  -26.6018   20.0970 O   0  0  0  0  0  0
  -26.5598  -34.8911   22.4677 O   0  0  0  0  0  0
  -23.5364  -32.1422   23.7461 O   0  0  0  0  0  0
  -28.0817  -23.4809   19.5269 C   0  0  0  0  0  0
  -30.0573  -22.0571   20.9002 C   0  0  0  0  0  0
  -28.3852  -22.1474   19.1393 C   0  0  0  0  0  0
  -28.7487  -24.1226   20.5914 C   0  0  0  0  0  0
  -29.4035  -21.4124   19.8208 C   0  0  0  0  0  0
  -29.7368  -23.3812   21.2830 C   0  0  0  0  0  0
  -26.1487  -21.8136   17.7826 C   0  0  0  0  0  0
  -26.6405  -20.4386   18.1587 C   0  0  0  0  0  0
  -29.8167  -18.7570   16.2594 C   0  0  0  0  0  0
  -31.0287  -19.4254   15.6544 C   0  0  0  0  0  0
  -33.3245  -21.2989   17.7719 C   0  0  0  0  0  0
  -32.7241  -22.0354   18.9468 C   0  0  0  0  0  0
  -30.9671  -17.6172   19.9193 C   0  0  0  0  0  0
  -29.3205  -18.0390   21.1118 C   0  0  0  0  0  0
  -27.6301  -21.5679   17.9728 C   0  0  0  0  0  0
  -30.9920  -19.1248   17.1363 C   0  0  0  0  0  0
  -32.3207  -20.6066   18.6649 C   0  0  0  0  0  0
  -30.3303  -18.9587   20.3692 C   0  0  2  0  0  0
  -30.4225  -16.9515   21.1892 C   0  0  1  0  0  0
  -28.3208  -25.5287   21.0690 C   0  0  0  0  0  0
  -29.8831  -20.0198   19.3032 C   0  0  2  0  0  0
  -30.9250  -20.2559   18.1594 C   0  0  0  0  0  0
  -29.9660  -15.5522   21.0217 N   0  0  0  0  0  0
  -30.3957  -23.9357   22.3290 F   0  0  0  0  0  0
  -31.4676  -12.4284   19.1299 H   0  0  0  0  0  0
  -30.3298  -11.3219   19.8442 H   0  0  0  0  0  0
  -29.7426  -11.7701   17.4404 H   0  0  0  0  0  0
  -29.6587  -13.4844   17.7608 H   0  0  0  0  0  0
  -27.8342  -11.3053   18.8280 H   0  0  0  0  0  0
  -27.3678  -12.6232   17.7871 H   0  0  0  0  0  0
  -27.6928  -14.2548   19.5568 H   0  0  0  0  0  0
  -28.6823  -11.9899   21.3564 H   0  0  0  0  0  0
  -28.4601  -13.6383   21.8590 H   0  0  0  0  0  0
  -25.2757   -9.5687   22.4750 H   0  0  0  0  0  0
  -24.0003   -7.4637   22.7470 H   0  0  0  0  0  0
  -21.0838   -8.8765   19.8949 H   0  0  0  0  0  0
  -22.3688  -10.9668   19.6158 H   0  0  0  0  0  0
  -21.2005   -7.6144   23.9714 H   0  0  0  0  0  0
  -21.1486   -6.0519   25.9076 H   0  0  0  0  0  0
  -22.0598   -2.7610   23.2844 H   0  0  0  0  0  0
  -22.4108  -11.9880   22.4780 H   0  0  0  0  0  0
  -21.1111  -13.1251   22.2620 H   0  0  0  0  0  0
  -24.6618  -15.8432   20.5185 H   0  0  0  0  0  0
  -26.2813  -15.6291   20.0886 H   0  0  0  0  0  0
  -26.7136  -32.5509   23.1145 H   0  0  0  0  0  0
  -25.0101  -33.9771   25.0487 H   0  0  0  0  0  0
  -22.6976  -31.3048   21.4070 H   0  0  0  0  0  0
  -23.3758  -35.9631   23.3284 H   0  0  0  0  0  0
  -24.3593  -36.8943   22.2058 H   0  0  0  0  0  0
  -23.7229  -37.6494   23.6674 H   0  0  0  0  0  0
  -26.0540  -31.5871   20.5956 H   0  0  0  0  0  0
  -26.8262  -30.8771   21.9843 H   0  0  0  0  0  0
  -28.1108  -29.0712   21.1705 H   0  0  0  0  0  0
  -26.0532  -25.9549   19.0187 H   0  0  0  0  0  0
  -23.9777  -27.2952   19.0317 H   0  0  0  0  0  0
  -23.7220  -30.5892   19.4020 H   0  0  0  0  0  0
  -22.7425  -29.2338   19.8748 H   0  0  0  0  0  0
  -25.1295  -36.1965   25.0828 H   0  0  0  0  0  0
  -20.9960  -28.3254   24.1437 H   0  0  0  0  0  0
  -20.5694  -26.2285   23.3604 H   0  0  0  0  0  0
  -21.6634  -26.7466   22.1200 H   0  0  0  0  0  0
  -19.6913  -25.6298   21.1244 H   0  0  0  0  0  0
  -19.6697  -27.3197   20.6750 H   0  0  0  0  0  0
  -17.4198  -26.6696   21.4006 H   0  0  0  0  0  0
  -18.0301  -26.0062   22.9003 H   0  0  0  0  0  0
  -19.7932  -30.7262   24.2287 H   0  0  0  0  0  0
  -17.5012  -31.6281   24.5159 H   0  0  0  0  0  0
  -15.5351  -30.3001   23.7658 H   0  0  0  0  0  0
  -15.8653  -28.0837   22.7083 H   0  0  0  0  0  0
  -24.5889  -30.7120   25.7797 H   0  0  0  0  0  0
  -24.8988  -32.2900   26.4948 H   0  0  0  0  0  0
  -25.8089  -30.8854   27.0209 H   0  0  0  0  0  0
  -26.2827  -29.6772   24.1204 H   0  0  0  0  0  0
  -27.4092  -29.7286   25.4569 H   0  0  0  0  0  0
  -27.8654  -30.4319   23.9228 H   0  0  0  0  0  0
  -27.2755  -33.3649   26.1990 H   0  0  0  0  0  0
  -28.3905  -32.6785   25.0276 H   0  0  0  0  0  0
  -28.0708  -31.8435   26.5401 H   0  0  0  0  0  0
  -28.2619  -38.0086   24.7497 H   0  0  0  0  0  0
  -28.1064  -36.2618   24.6320 H   0  0  0  0  0  0
  -27.2296  -37.1486   25.8869 H   0  0  0  0  0  0
  -20.9324  -29.8744   21.6924 H   0  0  0  0  0  0
  -26.0191  -38.2869   24.1389 H   0  0  0  0  0  0
  -27.3127  -24.0260   19.0002 H   0  0  0  0  0  0
  -30.8500  -21.5565   21.4330 H   0  0  0  0  0  0
  -25.6072  -22.3667   18.5475 H   0  0  0  0  0  0
  -25.7813  -21.9394   16.7664 H   0  0  0  0  0  0
  -26.6014  -19.6705   17.3889 H   0  0  0  0  0  0
  -26.4456  -20.0956   19.1732 H   0  0  0  0  0  0
  -29.6632  -17.6997   16.0498 H   0  0  0  0  0  0
  -28.9081  -19.3482   16.3416 H   0  0  0  0  0  0
  -30.9213  -20.4613   15.3376 H   0  0  0  0  0  0
  -31.6833  -18.8156   15.0344 H   0  0  0  0  0  0
  -34.3654  -20.9898   17.8515 H   0  0  0  0  0  0
  -33.0016  -21.5920   16.7749 H   0  0  0  0  0  0
  -32.0024  -22.8204   18.7285 H   0  0  0  0  0  0
  -33.3575  -22.2146   19.8138 H   0  0  0  0  0  0
  -32.0555  -17.6237   19.8462 H   0  0  0  0  0  0
  -30.5111  -17.2049   19.0172 H   0  0  0  0  0  0
  -28.4690  -17.7573   20.4889 H   0  0  0  0  0  0
  -28.9905  -18.4217   22.0788 H   0  0  0  0  0  0
  -28.2460  -21.5660   17.0754 H   0  0  0  0  0  0
  -31.6419  -18.3045   17.4316 H   0  0  0  0  0  0
  -32.7509  -19.8543   19.3225 H   0  0  0  0  0  0
  -31.0131  -19.4029   21.0950 H   0  0  0  0  0  0
  -31.0850  -17.0971   22.0457 H   0  0  0  0  0  0
  -28.9588  -25.8352   21.8974 H   0  0  0  0  0  0
  -27.3245  -25.4196   21.5020 H   0  0  0  0  0  0
  -29.0161  -19.5744   18.8233 H   0  0  0  0  0  0
  -30.5723  -21.1209   17.5966 H   0  0  0  0  0  0
  -29.0224  -15.3411   21.3097 H   0  0  0  0  0  0
  1 25  1  0  0  0
  1 30  2  0  0  0
  1 93  1  0  0  0
  2  3  1  0  0  0
  2 25  1  0  0  0
  2 95  1  0  0  0
  2 96  1  0  0  0
  3  4  1  0  0  0
  3 97  1  0  0  0
  3 98  1  0  0  0
  4  5  1  0  0  0
  4 99  1  0  0  0
  4100  1  0  0  0
  5  6  1  0  0  0
  5 26  1  0  0  0
  5101  1  0  0  0
  6 25  1  0  0  0
  6102  1  0  0  0
  6103  1  0  0  0
  7  8  2  0  0  0
  7 26  1  0  0  0
  7 29  1  0  0  0
  8  9  1  0  0  0
  8 22  1  0  0  0
  9 10  1  0  0  0
  9 27  2  0  0  0
 10 11  2  0  0  0
 10 15  1  0  0  0
 11 12  1  0  0  0
 11104  1  0  0  0
 12 13  2  0  0  0
 12105  1  0  0  0
 13 14  1  0  0  0
 13 31  1  0  0  0
 14 15  2  0  0  0
 14106  1  0  0  0
 15107  1  0  0  0
 16 17  2  0  0  0
 16 21  1  0  0  0
 16 31  1  0  0  0
 17 18  1  0  0  0
 17108  1  0  0  0
 18 19  2  0  0  0
 18109  1  0  0  0
 19 20  1  0  0  0
 19 24  1  0  0  0
 20 21  2  0  0  0
 20110  1  0  0  0
 21 23  1  0  0  0
 22 28  1  0  0  0
 22 32  2  0  0  0
 26 27  1  0  0  0
 28111  1  0  0  0
 28112  1  0  0  0
 29113  1  0  0  0
 29114  1  0  0  0
 33 34  1  0  0  0
 33 66  1  0  0  0
 33 70  2  0  0  0
 34 36  1  0  0  0
 34 59  1  0  0  0
 34115  1  0  0  0
 35 44  2  0  0  0
 35 45  1  0  0  0
 35 68  1  0  0  0
 36 56  1  0  0  0
 36116  1  0  0  0
 37 39  1  0  0  0
 37 47  1  0  0  0
 37 66  1  0  0  0
 37117  1  0  0  0
 38 43  2  0  0  0
 38 46  1  0  0  0
 38 47  1  0  0  0
 39 64  1  0  0  0
 39 67  2  0  0  0
 40 52  1  0  0  0
 40 53  2  0  0  0
 40 58  1  0  0  0
 41118  1  0  0  0
 41119  1  0  0  0
 41120  1  0  0  0
 41 48  1  0  0  0
 42 43  1  0  0  0
 42 66  1  0  0  0
 42121  1  0  0  0
 42122  1  0  0  0
 43 44  1  0  0  0
 44123  1  0  0  0
 45 46  2  0  0  0
 45124  1  0  0  0
 46125  1  0  0  0
 47126  1  0  0  0
 47127  1  0  0  0
 48 56  1  0  0  0
 48 65  1  0  0  0
 48128  1  0  0  0
 49 50  1  0  0  0
 49 53  1  0  0  0
 49 64  1  0  0  0
 49129  1  0  0  0
 50 51  1  0  0  0
 50130  1  0  0  0
 50131  1  0  0  0
 51 52  1  0  0  0
 51132  1  0  0  0
 51133  1  0  0  0
 52134  1  0  0  0
 52135  1  0  0  0
 53 54  1  0  0  0
 54 55  2  0  0  0
 54136  1  0  0  0
 55 57  1  0  0  0
 55137  1  0  0  0
 56 69  2  0  0  0
 57 58  2  0  0  0
 57138  1  0  0  0
 58139  1  0  0  0
 59 60  1  0  0  0
 59 61  1  0  0  0
 59 62  1  0  0  0
 60140  1  0  0  0
 60141  1  0  0  0
 60142  1  0  0  0
 61143  1  0  0  0
 61144  1  0  0  0
 61145  1  0  0  0
 62146  1  0  0  0
 62147  1  0  0  0
 62148  1  0  0  0
 63 65  1  0  0  0
 63149  1  0  0  0
 63150  1  0  0  0
 63151  1  0  0  0
 64152  1  0  0  0
 65153  1  0  0  0
 68 90  1  0  0  0
 71 73  2  0  0  0
 71 74  1  0  0  0
 71154  1  0  0  0
 72 75  2  0  0  0
 72 76  1  0  0  0
 72155  1  0  0  0
 73 75  1  0  0  0
 73 85  1  0  0  0
 74 76  2  0  0  0
 74 90  1  0  0  0
 75 91  1  0  0  0
 76 94  1  0  0  0
 77 78  1  0  0  0
 77 85  1  0  0  0
 77156  1  0  0  0
 77157  1  0  0  0
 78 85  1  0  0  0
 78158  1  0  0  0
 78159  1  0  0  0
 79 80  1  0  0  0
 79160  1  0  0  0
 79161  1  0  0  0
 79 86  1  0  0  0
 80 86  1  0  0  0
 80162  1  0  0  0
 80163  1  0  0  0
 81 82  1  0  0  0
 81164  1  0  0  0
 81165  1  0  0  0
 81 87  1  0  0  0
 82 87  1  0  0  0
 82166  1  0  0  0
 82167  1  0  0  0
 83 89  1  0  0  0
 83168  1  0  0  0
 83169  1  0  0  0
 83 88  1  0  0  0
 84 88  1  0  0  0
 84 89  1  0  0  0
 84170  1  0  0  0
 84171  1  0  0  0
 85172  1  0  0  0
 86173  1  0  0  0
 86 92  1  0  0  0
 87 92  1  0  0  0
 87174  1  0  0  0
 88 91  1  0  0  0
 88175  1  0  0  0
 89 93  1  0  0  0
 89176  1  0  0  0
 90177  1  0  0  0
 90178  1  0  0  0
 91 92  1  0  0  0
 91179  1  0  0  0
 92180  1  0  0  0
 93181  1  0  0  0
M  ISO  4   1 100  68 101  90 101  93 100
M  END
> <chiral flag>
0

> <version>
0

> <s_m_source_file>
/data/baiqing/PycharmProjects/Reinvent-master-3.2/result/LINK_invent/BTK/process_docking_weight1_custom_sum_contain_oxygen_bond_distance_aromatic_linkinvent_7_9_3/rearranged_h_0143.sdf

> <i_m_source_file_index>
30

> <r_mmod_Potential_Energy-OPLS-2005>
195.81575012207

> <r_mmod_Stretch_Energy-OPLS-2005>
51.068531036377

> <r_mmod_Bend_Energy-OPLS-2005>
128.623825073242

> <r_mmod_Torsional_Energy-OPLS-2005>
389.445251464844

> <r_mmod_Improper_Torsional_Energy-OPLS-2005>
4.21393632888794

> <r_mmod_Van_der_Waal_Energy-OPLS-2005>
132.440902709961

> <r_mmod_Electrostatic_Energy-OPLS-2005>
-338.33837890625

> <r_mmod_Solvation_Energy-OPLS-2005>
-190.623947143555

> <b_mmod_Minimization_Converged-OPLS-2005>
0

> <r_mmod_RMS_Derivative-OPLS-2005>
1.08545625209808

$$$$
30
                    3D
 Structure written by MMmdl.
178188  0  0  1  0            999 V2000
  -30.7207  -14.4530   20.6465 C   0  0  0  0  0  0
  -30.4354  -12.3057   19.4036 C   0  0  0  0  0  0
  -29.4953  -12.5084   18.1996 C   0  0  0  0  0  0
  -28.0181  -12.3602   18.6188 C   0  0  0  0  0  0
  -27.6634  -13.1969   19.8775 C   0  0  2  0  0  0
  -28.6965  -12.9544   20.9972 C   0  0  0  0  0  0
  -25.2609  -13.8142   20.5666 C   0  0  0  0  0  0
  -24.1845  -13.0437   20.9165 C   0  0  0  0  0  0
  -24.6380  -11.6900   20.8731 C   0  0  0  0  0  0
  -23.9046  -10.4292   21.0405 C   0  0  0  0  0  0
  -24.3603   -9.4207   21.9183 C   0  0  0  0  0  0
  -23.6282   -8.2240   22.0757 C   0  0  0  0  0  0
  -22.4265   -8.0279   21.3545 C   0  0  0  0  0  0
  -21.9897   -9.0248   20.4643 C   0  0  0  0  0  0
  -22.7224  -10.2129   20.3051 C   0  0  0  0  0  0
  -21.6849   -6.0732   22.5277 C   0  0  0  0  0  0
  -21.4012   -6.5636   23.8214 C   0  0  0  0  0  0
  -21.3658   -5.6789   24.9176 C   0  0  0  0  0  0
  -21.6044   -4.3052   24.7227 C   0  0  0  0  0  0
  -21.8819   -3.8143   23.4350 C   0  0  0  0  0  0
  -21.9193   -4.6960   22.3403 C   0  0  0  0  0  0
  -22.7875  -13.5253   21.1829 C   0  0  0  0  0  0
  -22.1661   -4.2144   21.0980 F   0  0  0  0  0  0
  -21.5630   -3.4535   25.7744 F   0  0  0  0  0  0
  -30.0275  -13.2502   20.4470 N   0  0  0  0  0  0
  -26.3022  -12.9284   20.3345 N   0  0  0  0  0  0
  -25.9300  -11.6460   20.5746 N   0  0  0  0  0  0
  -22.0506  -12.8245   22.0379 N   0  0  0  0  0  0
  -25.4373  -15.1856   20.4072 N   0  0  0  0  0  0
  -31.8033  -14.7441   20.1341 O   0  0  0  0  0  0
  -21.6633   -6.8874   21.4242 O   0  0  0  0  0  0
  -22.3569  -14.5568   20.6686 O   0  0  0  0  0  0
  -24.6138  -31.8690   23.2080 C   0  0  0  0  0  0
  -25.9049  -32.4819   23.8358 C   0  0  1  0  0  0
  -27.2335  -27.4299   20.0866 C   0  0  0  0  0  0
  -25.5913  -33.8621   24.2297 N   0  0  0  0  0  0
  -23.4002  -30.4925   21.5502 C   0  0  2  0  0  0
  -24.8440  -28.9584   20.1111 C   0  0  0  0  0  0
  -22.7396  -29.4654   22.4979 C   0  0  0  0  0  0
  -18.0270  -28.1338   22.8467 C   0  0  0  0  0  0
  -24.1500  -36.7310   23.2635 C   0  0  0  0  0  0
  -25.9307  -30.8276   21.3651 C   0  0  0  0  0  0
  -26.0047  -29.4646   20.7080 C   0  0  0  0  0  0
  -27.1991  -28.7077   20.6920 C   0  0  0  0  0  0
  -26.0503  -26.9426   19.4790 C   0  0  0  0  0  0
  -24.8624  -27.6973   19.4941 C   0  0  0  0  0  0
  -23.6067  -29.8270   20.1634 C   0  0  0  0  0  0
  -25.4129  -36.3119   24.0328 C   0  0  1  0  0  0
  -20.5858  -28.3637   23.1298 C   0  0  2  0  0  0
  -20.6773  -26.9375   22.5404 C   0  0  0  0  0  0
  -19.5753  -26.6358   21.5188 C   0  0  0  0  0  0
  -18.1924  -26.7878   22.1600 C   0  0  0  0  0  0
  -19.1520  -28.8802   23.2873 C   0  0  0  0  0  0
  -18.9460  -30.1407   23.8873 C   0  0  0  0  0  0
  -17.6468  -30.6547   24.0548 C   0  0  0  0  0  0
  -25.9047  -34.9478   23.5113 C   0  0  0  0  0  0
  -16.5352  -29.9054   23.6309 C   0  0  0  0  0  0
  -16.7265  -28.6475   23.0318 C   0  0  0  0  0  0
  -26.4468  -31.6590   25.0687 C   0  0  0  0  0  0
  -25.3732  -31.3698   26.1431 C   0  0  0  0  0  0
  -27.0301  -30.3020   24.6082 C   0  0  0  0  0  0
  -27.6021  -32.4327   25.7451 C   0  0  0  0  0  0
  -27.5599  -37.1810   24.8470 C   0  0  0  0  0  0
  -21.4131  -29.3015   22.3707 N   0  0  0  0  0  0
  -26.4318  -37.3797   23.9402 N   0  0  0  0  0  0
  -24.6658  -31.0785   22.0983 N   0  0  0  0  0  0
  -23.4163  -28.8216   23.3038 O   0  0  0  0  0  0
  -28.4166  -26.7120   20.1139 O   0  0  0  0  0  0
  -26.5617  -34.8935   22.4673 O   0  0  0  0  0  0
  -23.5334  -32.1469   23.7465 O   0  0  0  0  0  0
  -30.4715  -23.1971   18.2123 C   0  0  0  0  0  0
  -30.6382  -21.9930   17.5000 C   0  0  0  0  0  0
  -29.6374  -20.7861   19.3632 C   0  0  0  0  0  0
  -29.8476  -23.2200   19.4843 C   0  0  0  0  0  0
  -29.4165  -21.9955   20.0813 C   0  0  0  0  0  0
  -30.1872  -20.8023   18.0869 C   0  0  0  0  0  0
  -30.2991  -18.6181   20.6239 C   0  0  0  0  0  0
  -30.2592  -17.7607   24.0860 C   0  0  0  0  0  0
  -29.3524  -18.7222   18.2839 C   0  0  0  0  0  0
  -29.2882  -19.3461   19.7012 C   0  0  2  0  0  0
  -29.7313  -17.7274   21.7463 C   0  0  1  0  0  0
  -30.4157  -16.3118   23.5985 C   0  0  1  0  0  0
  -30.5690  -16.4548   22.0651 C   0  0  1  0  0  0
  -28.7114  -21.9963   21.4289 C   0  0  0  0  0  0
  -31.2661  -15.5749   25.8968 C   0  0  0  0  0  0
  -31.6260  -14.0530   23.9474 C   0  0  0  0  0  0
  -29.6731  -24.5923   20.1486 C   0  0  0  0  0  0
  -28.3953  -25.3366   19.7016 C   0  0  0  0  0  0
  -31.5138  -15.5269   24.3743 C   0  0  0  0  0  0
  -29.7689  -18.5714   22.9580 N   0  3  0  0  0  0
  -31.5115  -18.8109   20.4930 O   0  0  0  0  0  0
  -30.1950  -19.5736   17.4911 O   0  0  0  0  0  0
  -30.0136  -15.2803   21.4594 O   0  0  0  0  0  0
  -31.4758  -12.4459   19.1047 H   0  0  0  0  0  0
  -30.3651  -11.2845   19.7820 H   0  0  0  0  0  0
  -29.7348  -11.7909   17.4132 H   0  0  0  0  0  0
  -29.6568  -13.4978   17.7695 H   0  0  0  0  0  0
  -27.8364  -11.3033   18.8187 H   0  0  0  0  0  0
  -27.3630  -12.6282   17.7899 H   0  0  0  0  0  0
  -27.7188  -14.2475   19.5923 H   0  0  0  0  0  0
  -28.6668  -11.9130   21.3212 H   0  0  0  0  0  0
  -28.4489  -13.5366   21.8861 H   0  0  0  0  0  0
  -25.2751   -9.5687   22.4755 H   0  0  0  0  0  0
  -23.9993   -7.4636   22.7478 H   0  0  0  0  0  0
  -21.0829   -8.8764   19.8950 H   0  0  0  0  0  0
  -22.3682  -10.9667   19.6154 H   0  0  0  0  0  0
  -21.2002   -7.6145   23.9717 H   0  0  0  0  0  0
  -21.1480   -6.0519   25.9080 H   0  0  0  0  0  0
  -22.0601   -2.7604   23.2852 H   0  0  0  0  0  0
  -22.4097  -11.9893   22.4750 H   0  0  0  0  0  0
  -21.1128  -13.1287   22.2584 H   0  0  0  0  0  0
  -24.6735  -15.8455   20.5091 H   0  0  0  0  0  0
  -26.2897  -15.6143   20.0713 H   0  0  0  0  0  0
  -26.7102  -32.5523   23.1099 H   0  0  0  0  0  0
  -25.0071  -33.9778   25.0440 H   0  0  0  0  0  0
  -22.6884  -31.3089   21.4134 H   0  0  0  0  0  0
  -23.3759  -35.9643   23.3318 H   0  0  0  0  0  0
  -24.3589  -36.8923   22.2044 H   0  0  0  0  0  0
  -23.7256  -37.6519   23.6641 H   0  0  0  0  0  0
  -26.0567  -31.5958   20.6012 H   0  0  0  0  0  0
  -26.8134  -30.8725   21.9912 H   0  0  0  0  0  0
  -28.0964  -29.0975   21.1513 H   0  0  0  0  0  0
  -26.0180  -25.9844   18.9828 H   0  0  0  0  0  0
  -23.9716  -27.3044   19.0225 H   0  0  0  0  0  0
  -23.7120  -30.6051   19.4055 H   0  0  0  0  0  0
  -22.7281  -29.2514   19.8666 H   0  0  0  0  0  0
  -25.1297  -36.1980   25.0822 H   0  0  0  0  0  0
  -20.9934  -28.3229   24.1426 H   0  0  0  0  0  0
  -20.5671  -26.2252   23.3599 H   0  0  0  0  0  0
  -21.6650  -26.7425   22.1204 H   0  0  0  0  0  0
  -19.6933  -25.6269   21.1215 H   0  0  0  0  0  0
  -19.6695  -27.3173   20.6713 H   0  0  0  0  0  0
  -17.4199  -26.6599   21.3999 H   0  0  0  0  0  0
  -18.0348  -26.0000   22.8983 H   0  0  0  0  0  0
  -19.7951  -30.7210   24.2234 H   0  0  0  0  0  0
  -17.5038  -31.6230   24.5153 H   0  0  0  0  0  0
  -15.5354  -30.2958   23.7641 H   0  0  0  0  0  0
  -15.8660  -28.0810   22.7006 H   0  0  0  0  0  0
  -24.5891  -30.7058   25.7785 H   0  0  0  0  0  0
  -24.8920  -32.2853   26.4873 H   0  0  0  0  0  0
  -25.8076  -30.8871   27.0192 H   0  0  0  0  0  0
  -26.2842  -29.6776   24.1147 H   0  0  0  0  0  0
  -27.4077  -29.7267   25.4546 H   0  0  0  0  0  0
  -27.8676  -30.4319   23.9226 H   0  0  0  0  0  0
  -27.2604  -33.3612   26.2030 H   0  0  0  0  0  0
  -28.3808  -32.6927   25.0276 H   0  0  0  0  0  0
  -28.0699  -31.8463   26.5371 H   0  0  0  0  0  0
  -28.2609  -38.0111   24.7525 H   0  0  0  0  0  0
  -28.1112  -36.2642   24.6296 H   0  0  0  0  0  0
  -27.2321  -37.1464   25.8877 H   0  0  0  0  0  0
  -20.9289  -29.8751   21.6941 H   0  0  0  0  0  0
  -26.0213  -38.2888   24.1377 H   0  0  0  0  0  0
  -30.8078  -24.1213   17.7625 H   0  0  0  0  0  0
  -31.0821  -21.9912   16.5155 H   0  0  0  0  0  0
  -31.2198  -18.1742   24.3981 H   0  0  0  0  0  0
  -29.5809  -17.8315   24.9380 H   0  0  0  0  0  0
  -28.3603  -18.7255   17.8305 H   0  0  0  0  0  0
  -29.7057  -17.6897   18.2721 H   0  0  0  0  0  0
  -28.2790  -19.2695   20.1060 H   0  0  0  0  0  0
  -28.6962  -17.4545   21.5393 H   0  0  0  0  0  0
  -29.4577  -15.8207   23.7807 H   0  0  0  0  0  0
  -31.6210  -16.6009   21.8141 H   0  0  0  0  0  0
  -28.2281  -21.0448   21.6405 H   0  0  0  0  0  0
  -27.9300  -22.7578   21.4529 H   0  0  0  0  0  0
  -29.4159  -22.2102   22.2331 H   0  0  0  0  0  0
  -31.2977  -16.5909   26.2891 H   0  0  0  0  0  0
  -32.0230  -15.0097   26.4414 H   0  0  0  0  0  0
  -30.2948  -15.1511   26.1546 H   0  0  0  0  0  0
  -32.0873  -13.9523   22.9674 H   0  0  0  0  0  0
  -30.6495  -13.5668   23.9217 H   0  0  0  0  0  0
  -32.2536  -13.4857   24.6357 H   0  0  0  0  0  0
  -30.5400  -25.2035   19.8934 H   0  0  0  0  0  0
  -29.6999  -24.5028   21.2349 H   0  0  0  0  0  0
  -27.5337  -24.8111   20.1161 H   0  0  0  0  0  0
  -28.3108  -25.3089   18.6141 H   0  0  0  0  0  0
  -32.4801  -15.9998   24.1870 H   0  0  0  0  0  0
  -30.4166  -19.3302   22.8028 H   0  0  0  0  0  0
  -28.8590  -18.9562   23.1620 H   0  0  0  0  0  0
  1 25  1  0  0  0
  1 30  2  0  0  0
  1 93  1  0  0  0
  2  3  1  0  0  0
  2 25  1  0  0  0
  2 94  1  0  0  0
  2 95  1  0  0  0
  3  4  1  0  0  0
  3 96  1  0  0  0
  3 97  1  0  0  0
  4  5  1  0  0  0
  4 98  1  0  0  0
  4 99  1  0  0  0
  5  6  1  0  0  0
  5 26  1  0  0  0
  5100  1  0  0  0
  6 25  1  0  0  0
  6101  1  0  0  0
  6102  1  0  0  0
  7  8  2  0  0  0
  7 26  1  0  0  0
  7 29  1  0  0  0
  8  9  1  0  0  0
  8 22  1  0  0  0
  9 10  1  0  0  0
  9 27  2  0  0  0
 10 11  2  0  0  0
 10 15  1  0  0  0
 11 12  1  0  0  0
 11103  1  0  0  0
 12 13  2  0  0  0
 12104  1  0  0  0
 13 14  1  0  0  0
 13 31  1  0  0  0
 14 15  2  0  0  0
 14105  1  0  0  0
 15106  1  0  0  0
 16 17  2  0  0  0
 16 21  1  0  0  0
 16 31  1  0  0  0
 17 18  1  0  0  0
 17107  1  0  0  0
 18 19  2  0  0  0
 18108  1  0  0  0
 19 20  1  0  0  0
 19 24  1  0  0  0
 20 21  2  0  0  0
 20109  1  0  0  0
 21 23  1  0  0  0
 22 28  1  0  0  0
 22 32  2  0  0  0
 26 27  1  0  0  0
 28110  1  0  0  0
 28111  1  0  0  0
 29112  1  0  0  0
 29113  1  0  0  0
 33 34  1  0  0  0
 33 66  1  0  0  0
 33 70  2  0  0  0
 34 36  1  0  0  0
 34 59  1  0  0  0
 34114  1  0  0  0
 35 44  2  0  0  0
 35 45  1  0  0  0
 35 68  1  0  0  0
 36 56  1  0  0  0
 36115  1  0  0  0
 37 39  1  0  0  0
 37 47  1  0  0  0
 37 66  1  0  0  0
 37116  1  0  0  0
 38 43  2  0  0  0
 38 46  1  0  0  0
 38 47  1  0  0  0
 39 64  1  0  0  0
 39 67  2  0  0  0
 40 52  1  0  0  0
 40 53  2  0  0  0
 40 58  1  0  0  0
 41117  1  0  0  0
 41118  1  0  0  0
 41119  1  0  0  0
 41 48  1  0  0  0
 42 43  1  0  0  0
 42 66  1  0  0  0
 42120  1  0  0  0
 42121  1  0  0  0
 43 44  1  0  0  0
 44122  1  0  0  0
 45 46  2  0  0  0
 45123  1  0  0  0
 46124  1  0  0  0
 47125  1  0  0  0
 47126  1  0  0  0
 48 56  1  0  0  0
 48 65  1  0  0  0
 48127  1  0  0  0
 49 50  1  0  0  0
 49 53  1  0  0  0
 49 64  1  0  0  0
 49128  1  0  0  0
 50 51  1  0  0  0
 50129  1  0  0  0
 50130  1  0  0  0
 51 52  1  0  0  0
 51131  1  0  0  0
 51132  1  0  0  0
 52133  1  0  0  0
 52134  1  0  0  0
 53 54  1  0  0  0
 54 55  2  0  0  0
 54135  1  0  0  0
 55 57  1  0  0  0
 55136  1  0  0  0
 56 69  2  0  0  0
 57 58  2  0  0  0
 57137  1  0  0  0
 58138  1  0  0  0
 59 60  1  0  0  0
 59 61  1  0  0  0
 59 62  1  0  0  0
 60139  1  0  0  0
 60140  1  0  0  0
 60141  1  0  0  0
 61142  1  0  0  0
 61143  1  0  0  0
 61144  1  0  0  0
 62145  1  0  0  0
 62146  1  0  0  0
 62147  1  0  0  0
 63 65  1  0  0  0
 63148  1  0  0  0
 63149  1  0  0  0
 63150  1  0  0  0
 64151  1  0  0  0
 65152  1  0  0  0
 68 88  1  0  0  0
 71 72  2  0  0  0
 71 74  1  0  0  0
 71153  1  0  0  0
 72 76  1  0  0  0
 72154  1  0  0  0
 73 75  1  0  0  0
 73 76  2  0  0  0
 73 80  1  0  0  0
 74 75  2  0  0  0
 74 87  1  0  0  0
 75 84  1  0  0  0
 76 92  1  0  0  0
 77 91  2  0  0  0
 77 80  1  0  0  0
 77 81  1  0  0  0
 78 90  1  0  0  0
 78155  1  0  0  0
 78156  1  0  0  0
 78 82  1  0  0  0
 79 80  1  0  0  0
 79 92  1  0  0  0
 79157  1  0  0  0
 79158  1  0  0  0
 80159  1  0  0  0
 81 83  1  0  0  0
 81 90  1  0  0  0
 81160  1  0  0  0
 82 83  1  0  0  0
 82 89  1  0  0  0
 82161  1  0  0  0
 83 93  1  0  0  0
 83162  1  0  0  0
 84163  1  0  0  0
 84164  1  0  0  0
 84165  1  0  0  0
 85166  1  0  0  0
 85167  1  0  0  0
 85168  1  0  0  0
 85 89  1  0  0  0
 86 89  1  0  0  0
 86169  1  0  0  0
 86170  1  0  0  0
 86171  1  0  0  0
 87 88  1  0  0  0
 87172  1  0  0  0
 87173  1  0  0  0
 88174  1  0  0  0
 88175  1  0  0  0
 89176  1  0  0  0
 90177  1  0  0  0
 90178  1  0  0  0
M  CHG  1  90   1
M  ISO  4   1 100  68 101  88 101  93 100
M  END
> <chiral flag>
0

> <version>
0

> <s_m_source_file>
/data/baiqing/PycharmProjects/Reinvent-master-3.2/result/LINK_invent/BTK/process_docking_weight1_custom_sum_contain_oxygen_bond_distance_aromatic_linkinvent_7_9_3/rearranged_h_0143.sdf

> <i_m_source_file_index>
31

> <r_mmod_Potential_Energy-OPLS-2005>
-274.312164306641

> <r_mmod_Stretch_Energy-OPLS-2005>
42.1651649475098

> <r_mmod_Bend_Energy-OPLS-2005>
169.860046386719

> <r_mmod_Torsional_Energy-OPLS-2005>
180.548416137695

> <r_mmod_Improper_Torsional_Energy-OPLS-2005>
2.45837998390198

> <r_mmod_Van_der_Waal_Energy-OPLS-2005>
133.742782592773

> <r_mmod_Electrostatic_Energy-OPLS-2005>
-319.919158935547

> <r_mmod_Solvation_Energy-OPLS-2005>
-494.763031005859

> <b_mmod_Minimization_Converged-OPLS-2005>
0

> <r_mmod_RMS_Derivative-OPLS-2005>
1.69867277145386

$$$$
31
                    3D
 Structure written by MMmdl.
170180  0  0  1  0            999 V2000
  -30.6355  -14.6297   20.4987 C   0  0  0  0  0  0
  -30.4297  -12.3870   19.4535 C   0  0  0  0  0  0
  -29.5038  -12.5021   18.2233 C   0  0  0  0  0  0
  -28.0268  -12.3451   18.6355 C   0  0  0  0  0  0
  -27.6496  -13.2192   19.8615 C   0  0  2  0  0  0
  -28.6929  -13.0854   20.9925 C   0  0  0  0  0  0
  -25.2540  -13.8175   20.5688 C   0  0  0  0  0  0
  -24.1816  -13.0437   20.9198 C   0  0  0  0  0  0
  -24.6388  -11.6911   20.8742 C   0  0  0  0  0  0
  -23.9062  -10.4291   21.0407 C   0  0  0  0  0  0
  -24.3617   -9.4204   21.9182 C   0  0  0  0  0  0
  -23.6293   -8.2237   22.0752 C   0  0  0  0  0  0
  -22.4274   -8.0278   21.3547 C   0  0  0  0  0  0
  -21.9911   -9.0247   20.4645 C   0  0  0  0  0  0
  -22.7236  -10.2128   20.3055 C   0  0  0  0  0  0
  -21.6852   -6.0734   22.5279 C   0  0  0  0  0  0
  -21.4011   -6.5637   23.8214 C   0  0  0  0  0  0
  -21.3661   -5.6794   24.9176 C   0  0  0  0  0  0
  -21.6045   -4.3055   24.7226 C   0  0  0  0  0  0
  -21.8820   -3.8146   23.4348 C   0  0  0  0  0  0
  -21.9192   -4.6963   22.3403 C   0  0  0  0  0  0
  -22.7838  -13.5223   21.1861 C   0  0  0  0  0  0
  -22.1661   -4.2149   21.0979 F   0  0  0  0  0  0
  -21.5633   -3.4540   25.7739 F   0  0  0  0  0  0
  -30.0057  -13.4165   20.4229 N   0  0  0  0  0  0
  -26.2968  -12.9361   20.3316 N   0  0  0  0  0  0
  -25.9316  -11.6515   20.5758 N   0  0  0  0  0  0
  -22.0488  -12.8209   22.0416 N   0  0  0  0  0  0
  -25.4242  -15.1896   20.4095 N   0  0  0  0  0  0
  -31.8087  -14.7641   20.1400 O   0  0  0  0  0  0
  -21.6642   -6.8876   21.4241 O   0  0  0  0  0  0
  -22.3524  -14.5533   20.6715 O   0  0  0  0  0  0
  -24.6235  -31.8606   23.2032 C   0  0  0  0  0  0
  -25.9092  -32.4783   23.8354 C   0  0  1  0  0  0
  -27.2259  -27.3349   20.1228 C   0  0  0  0  0  0
  -25.5914  -33.8584   24.2283 N   0  0  0  0  0  0
  -23.4154  -30.4829   21.5457 C   0  0  2  0  0  0
  -24.8610  -28.9325   20.1171 C   0  0  0  0  0  0
  -22.7451  -29.4629   22.4958 C   0  0  0  0  0  0
  -18.0277  -28.1388   22.8491 C   0  0  0  0  0  0
  -24.1487  -36.7296   23.2640 C   0  0  0  0  0  0
  -25.9529  -30.7969   21.3689 C   0  0  0  0  0  0
  -26.0270  -29.4219   20.7193 C   0  0  0  0  0  0
  -27.2123  -28.6333   20.7132 C   0  0  0  0  0  0
  -26.0361  -26.8831   19.5128 C   0  0  0  0  0  0
  -24.8651  -27.6663   19.5082 C   0  0  0  0  0  0
  -23.6286  -29.8124   20.1623 C   0  0  0  0  0  0
  -25.4113  -36.3089   24.0330 C   0  0  1  0  0  0
  -20.5874  -28.3687   23.1298 C   0  0  2  0  0  0
  -20.6767  -26.9413   22.5416 C   0  0  0  0  0  0
  -19.5744  -26.6387   21.5217 C   0  0  0  0  0  0
  -18.1922  -26.7932   22.1627 C   0  0  0  0  0  0
  -19.1527  -28.8855   23.2890 C   0  0  0  0  0  0
  -18.9453  -30.1460   23.8901 C   0  0  0  0  0  0
  -17.6455  -30.6592   24.0567 C   0  0  0  0  0  0
  -25.9048  -34.9455   23.5108 C   0  0  0  0  0  0
  -16.5346  -29.9090   23.6334 C   0  0  0  0  0  0
  -16.7266  -28.6510   23.0354 C   0  0  0  0  0  0
  -26.4487  -31.6591   25.0719 C   0  0  0  0  0  0
  -25.3733  -31.3713   26.1455 C   0  0  0  0  0  0
  -27.0330  -30.3022   24.6156 C   0  0  0  0  0  0
  -27.6048  -32.4326   25.7487 C   0  0  0  0  0  0
  -27.5581  -37.1801   24.8463 C   0  0  0  0  0  0
  -21.4169  -29.3041   22.3694 N   0  0  0  0  0  0
  -26.4289  -37.3783   23.9413 N   0  0  0  0  0  0
  -24.6828  -31.0632   22.0967 N   0  0  0  0  0  0
  -23.4182  -28.8177   23.3038 O   0  0  0  0  0  0
  -28.3757  -26.5410   20.1057 O   0  0  0  0  0  0
  -26.5621  -34.8920   22.4676 O   0  0  0  0  0  0
  -23.5406  -32.1398   23.7379 O   0  0  0  0  0  0
  -28.4681  -24.5105   21.4782 C   0  0  0  0  0  0
  -28.2484  -22.8305   19.2301 C   0  0  0  0  0  0
  -28.5282  -23.0957   21.6313 C   0  0  0  0  0  0
  -28.3912  -22.2101   20.5174 C   0  0  0  0  0  0
  -28.2980  -24.2673   19.0912 C   0  0  0  0  0  0
  -28.3357  -25.1345   20.2193 C   0  0  0  0  0  0
  -27.0153  -22.2653   16.9389 C   0  0  0  0  0  0
  -26.8544  -21.0599   17.8140 C   0  0  0  0  0  0
  -29.6933  -19.0997   19.1558 C   0  0  0  0  0  0
  -30.3723  -17.7058   19.2458 C   0  0  0  0  0  0
  -29.2321  -18.2196   21.3125 C   0  0  0  0  0  0
  -28.0611  -21.9641   18.0007 C   0  0  0  0  0  0
  -29.4272  -19.6024   20.5852 C   0  0  2  0  0  0
  -30.2312  -17.1797   20.6916 C   0  0  1  0  0  0
  -28.7194  -22.5559   23.0404 C   0  0  0  0  0  0
  -28.3451  -24.9202   17.7135 C   0  0  0  0  0  0
  -28.2351  -20.6470   20.7467 C   0  0  0  0  0  0
  -29.8570  -15.7221   20.7815 N   0  0  0  0  0  0
  -31.4725  -12.5031   19.1534 H   0  0  0  0  0  0
  -30.3551  -11.3948   19.9009 H   0  0  0  0  0  0
  -29.7662  -11.7470   17.4814 H   0  0  0  0  0  0
  -29.6502  -13.4695   17.7399 H   0  0  0  0  0  0
  -27.8608  -11.2925   18.8674 H   0  0  0  0  0  0
  -27.3733  -12.5743   17.7929 H   0  0  0  0  0  0
  -27.6648  -14.2532   19.5165 H   0  0  0  0  0  0
  -28.7016  -12.0693   21.3894 H   0  0  0  0  0  0
  -28.4444  -13.7357   21.8328 H   0  0  0  0  0  0
  -25.2763   -9.5680   22.4758 H   0  0  0  0  0  0
  -24.0007   -7.4627   22.7466 H   0  0  0  0  0  0
  -21.0845   -8.8760   19.8946 H   0  0  0  0  0  0
  -22.3693  -10.9666   19.6164 H   0  0  0  0  0  0
  -21.1998   -7.6146   23.9713 H   0  0  0  0  0  0
  -21.1487   -6.0526   25.9080 H   0  0  0  0  0  0
  -22.0598   -2.7608   23.2850 H   0  0  0  0  0  0
  -22.4114  -11.9874   22.4804 H   0  0  0  0  0  0
  -21.1101  -13.1223   22.2621 H   0  0  0  0  0  0
  -24.6546  -15.8418   20.5155 H   0  0  0  0  0  0
  -26.2672  -15.6283   20.0622 H   0  0  0  0  0  0
  -26.7160  -32.5462   23.1105 H   0  0  0  0  0  0
  -25.0050  -33.9734   25.0421 H   0  0  0  0  0  0
  -22.7086  -31.3027   21.4013 H   0  0  0  0  0  0
  -23.3753  -35.9625   23.3299 H   0  0  0  0  0  0
  -24.3576  -36.8922   22.2056 H   0  0  0  0  0  0
  -23.7234  -37.6493   23.6666 H   0  0  0  0  0  0
  -26.0768  -31.5570   20.5969 H   0  0  0  0  0  0
  -26.8365  -30.8513   21.9931 H   0  0  0  0  0  0
  -28.1138  -29.0098   21.1757 H   0  0  0  0  0  0
  -26.0009  -25.9101   19.0470 H   0  0  0  0  0  0
  -23.9689  -27.2820   19.0406 H   0  0  0  0  0  0
  -23.7459  -30.5857   19.4022 H   0  0  0  0  0  0
  -22.7492  -29.2392   19.8635 H   0  0  0  0  0  0
  -25.1293  -36.1939   25.0822 H   0  0  0  0  0  0
  -20.9968  -28.3261   24.1420 H   0  0  0  0  0  0
  -20.5671  -26.2298   23.3612 H   0  0  0  0  0  0
  -21.6637  -26.7446   22.1211 H   0  0  0  0  0  0
  -19.6905  -25.6299   21.1244 H   0  0  0  0  0  0
  -19.6685  -27.3202   20.6749 H   0  0  0  0  0  0
  -17.4194  -26.6688   21.4025 H   0  0  0  0  0  0
  -18.0318  -26.0072   22.9021 H   0  0  0  0  0  0
  -19.7929  -30.7276   24.2271 H   0  0  0  0  0  0
  -17.5007  -31.6270   24.5171 H   0  0  0  0  0  0
  -15.5347  -30.2995   23.7651 H   0  0  0  0  0  0
  -15.8667  -28.0829   22.7066 H   0  0  0  0  0  0
  -24.5912  -30.7055   25.7787 H   0  0  0  0  0  0
  -24.8920  -32.2872   26.4896 H   0  0  0  0  0  0
  -25.8073  -30.8885   27.0220 H   0  0  0  0  0  0
  -26.2896  -29.6771   24.1194 H   0  0  0  0  0  0
  -27.4053  -29.7277   25.4649 H   0  0  0  0  0  0
  -27.8751  -30.4319   23.9354 H   0  0  0  0  0  0
  -27.2659  -33.3622   26.2073 H   0  0  0  0  0  0
  -28.3852  -32.6894   25.0312 H   0  0  0  0  0  0
  -28.0726  -31.8449   26.5398 H   0  0  0  0  0  0
  -28.2594  -38.0104   24.7522 H   0  0  0  0  0  0
  -28.1082  -36.2634   24.6272 H   0  0  0  0  0  0
  -27.2300  -37.1431   25.8867 H   0  0  0  0  0  0
  -20.9345  -29.8757   21.6901 H   0  0  0  0  0  0
  -26.0170  -38.2854   24.1429 H   0  0  0  0  0  0
  -28.5523  -25.1440   22.3504 H   0  0  0  0  0  0
  -26.2996  -23.0672   17.1070 H   0  0  0  0  0  0
  -27.2791  -22.0844   15.8987 H   0  0  0  0  0  0
  -27.0076  -20.0909   17.3433 H   0  0  0  0  0  0
  -26.0459  -21.1040   18.5413 H   0  0  0  0  0  0
  -28.7463  -18.9874   18.6282 H   0  0  0  0  0  0
  -30.2958  -19.8064   18.5848 H   0  0  0  0  0  0
  -31.4278  -17.7771   18.9799 H   0  0  0  0  0  0
  -29.9157  -17.0269   18.5235 H   0  0  0  0  0  0
  -28.2084  -17.8792   21.1501 H   0  0  0  0  0  0
  -29.3647  -18.3115   22.3914 H   0  0  0  0  0  0
  -29.0240  -21.6002   17.6477 H   0  0  0  0  0  0
  -30.3387  -20.0507   20.9834 H   0  0  0  0  0  0
  -31.1928  -17.3066   21.1926 H   0  0  0  0  0  0
  -29.0687  -23.3328   23.7210 H   0  0  0  0  0  0
  -29.4614  -21.7570   23.0554 H   0  0  0  0  0  0
  -27.7804  -22.1683   23.4366 H   0  0  0  0  0  0
  -28.8869  -24.3059   16.9950 H   0  0  0  0  0  0
  -28.8639  -25.8781   17.7476 H   0  0  0  0  0  0
  -27.3425  -25.1044   17.3298 H   0  0  0  0  0  0
  -27.3871  -20.2866   20.1728 H   0  0  0  0  0  0
  -27.8664  -20.5175   21.7627 H   0  0  0  0  0  0
  -28.9025  -15.5176   21.0368 H   0  0  0  0  0  0
  1 25  1  0  0  0
  1 30  2  0  0  0
  1 88  1  0  0  0
  2  3  1  0  0  0
  2 25  1  0  0  0
  2 89  1  0  0  0
  2 90  1  0  0  0
  3  4  1  0  0  0
  3 91  1  0  0  0
  3 92  1  0  0  0
  4  5  1  0  0  0
  4 93  1  0  0  0
  4 94  1  0  0  0
  5  6  1  0  0  0
  5 26  1  0  0  0
  5 95  1  0  0  0
  6 25  1  0  0  0
  6 96  1  0  0  0
  6 97  1  0  0  0
  7  8  2  0  0  0
  7 26  1  0  0  0
  7 29  1  0  0  0
  8  9  1  0  0  0
  8 22  1  0  0  0
  9 10  1  0  0  0
  9 27  2  0  0  0
 10 11  2  0  0  0
 10 15  1  0  0  0
 11 12  1  0  0  0
 11 98  1  0  0  0
 12 13  2  0  0  0
 12 99  1  0  0  0
 13 14  1  0  0  0
 13 31  1  0  0  0
 14 15  2  0  0  0
 14100  1  0  0  0
 15101  1  0  0  0
 16 17  2  0  0  0
 16 21  1  0  0  0
 16 31  1  0  0  0
 17 18  1  0  0  0
 17102  1  0  0  0
 18 19  2  0  0  0
 18103  1  0  0  0
 19 20  1  0  0  0
 19 24  1  0  0  0
 20 21  2  0  0  0
 20104  1  0  0  0
 21 23  1  0  0  0
 22 28  1  0  0  0
 22 32  2  0  0  0
 26 27  1  0  0  0
 28105  1  0  0  0
 28106  1  0  0  0
 29107  1  0  0  0
 29108  1  0  0  0
 33 34  1  0  0  0
 33 66  1  0  0  0
 33 70  2  0  0  0
 34 36  1  0  0  0
 34 59  1  0  0  0
 34109  1  0  0  0
 35 44  2  0  0  0
 35 45  1  0  0  0
 35 68  1  0  0  0
 36 56  1  0  0  0
 36110  1  0  0  0
 37 39  1  0  0  0
 37 47  1  0  0  0
 37 66  1  0  0  0
 37111  1  0  0  0
 38 43  2  0  0  0
 38 46  1  0  0  0
 38 47  1  0  0  0
 39 64  1  0  0  0
 39 67  2  0  0  0
 40 52  1  0  0  0
 40 53  2  0  0  0
 40 58  1  0  0  0
 41112  1  0  0  0
 41113  1  0  0  0
 41114  1  0  0  0
 41 48  1  0  0  0
 42 43  1  0  0  0
 42 66  1  0  0  0
 42115  1  0  0  0
 42116  1  0  0  0
 43 44  1  0  0  0
 44117  1  0  0  0
 45 46  2  0  0  0
 45118  1  0  0  0
 46119  1  0  0  0
 47120  1  0  0  0
 47121  1  0  0  0
 48 56  1  0  0  0
 48 65  1  0  0  0
 48122  1  0  0  0
 49 50  1  0  0  0
 49 53  1  0  0  0
 49 64  1  0  0  0
 49123  1  0  0  0
 50 51  1  0  0  0
 50124  1  0  0  0
 50125  1  0  0  0
 51 52  1  0  0  0
 51126  1  0  0  0
 51127  1  0  0  0
 52128  1  0  0  0
 52129  1  0  0  0
 53 54  1  0  0  0
 54 55  2  0  0  0
 54130  1  0  0  0
 55 57  1  0  0  0
 55131  1  0  0  0
 56 69  2  0  0  0
 57 58  2  0  0  0
 57132  1  0  0  0
 58133  1  0  0  0
 59 60  1  0  0  0
 59 61  1  0  0  0
 59 62  1  0  0  0
 60134  1  0  0  0
 60135  1  0  0  0
 60136  1  0  0  0
 61137  1  0  0  0
 61138  1  0  0  0
 61139  1  0  0  0
 62140  1  0  0  0
 62141  1  0  0  0
 62142  1  0  0  0
 63 65  1  0  0  0
 63143  1  0  0  0
 63144  1  0  0  0
 63145  1  0  0  0
 64146  1  0  0  0
 65147  1  0  0  0
 68 76  1  0  0  0
 71 73  2  0  0  0
 71 76  1  0  0  0
 71148  1  0  0  0
 72 74  2  0  0  0
 72 75  1  0  0  0
 72 82  1  0  0  0
 73 74  1  0  0  0
 73 85  1  0  0  0
 74 87  1  0  0  0
 75 76  2  0  0  0
 75 86  1  0  0  0
 77 78  1  0  0  0
 77 82  1  0  0  0
 77149  1  0  0  0
 77150  1  0  0  0
 78 82  1  0  0  0
 78151  1  0  0  0
 78152  1  0  0  0
 79 80  1  0  0  0
 79 83  1  0  0  0
 79153  1  0  0  0
 79154  1  0  0  0
 80 84  1  0  0  0
 80155  1  0  0  0
 80156  1  0  0  0
 81 83  1  0  0  0
 81 84  1  0  0  0
 81157  1  0  0  0
 81158  1  0  0  0
 82159  1  0  0  0
 83 87  1  0  0  0
 83160  1  0  0  0
 84 88  1  0  0  0
 84161  1  0  0  0
 85162  1  0  0  0
 85163  1  0  0  0
 85164  1  0  0  0
 86165  1  0  0  0
 86166  1  0  0  0
 86167  1  0  0  0
 87168  1  0  0  0
 87169  1  0  0  0
 88170  1  0  0  0
M  ISO  4   1 100  68 101  76 101  88 100
M  END
> <chiral flag>
0

> <version>
0

> <s_m_source_file>
/data/baiqing/PycharmProjects/Reinvent-master-3.2/result/LINK_invent/BTK/process_docking_weight1_custom_sum_contain_oxygen_bond_distance_aromatic_linkinvent_7_9_3/rearranged_h_0143.sdf

> <i_m_source_file_index>
32

> <r_mmod_Potential_Energy-OPLS-2005>
113.924499511719

> <r_mmod_Stretch_Energy-OPLS-2005>
76.8705368041992

> <r_mmod_Bend_Energy-OPLS-2005>
152.730392456055

> <r_mmod_Torsional_Energy-OPLS-2005>
283.845001220703

> <r_mmod_Improper_Torsional_Energy-OPLS-2005>
5.72483730316162

> <r_mmod_Van_der_Waal_Energy-OPLS-2005>
137.019668579102

> <r_mmod_Electrostatic_Energy-OPLS-2005>
-384.678955078125

> <r_mmod_Solvation_Energy-OPLS-2005>
-198.6962890625

> <b_mmod_Minimization_Converged-OPLS-2005>
0

> <r_mmod_RMS_Derivative-OPLS-2005>
0.777674794197083

$$$$
32
                    3D
 Structure written by MMmdl.
164173  0  0  1  0            999 V2000
  -30.7071  -14.6211   20.4465 C   0  0  0  0  0  0
  -30.4040  -12.3681   19.4752 C   0  0  0  0  0  0
  -29.5016  -12.4893   18.2280 C   0  0  0  0  0  0
  -28.0277  -12.3350   18.6371 C   0  0  0  0  0  0
  -27.6442  -13.2370   19.8431 C   0  0  2  0  0  0
  -28.6827  -13.1933   20.9800 C   0  0  0  0  0  0
  -25.2537  -13.8215   20.5687 C   0  0  0  0  0  0
  -24.1833  -13.0440   20.9156 C   0  0  0  0  0  0
  -24.6422  -11.6916   20.8662 C   0  0  0  0  0  0
  -23.9100  -10.4284   21.0374 C   0  0  0  0  0  0
  -24.3611   -9.4220   21.9192 C   0  0  0  0  0  0
  -23.6256   -8.2250   22.0778 C   0  0  0  0  0  0
  -22.4229   -8.0308   21.3569 C   0  0  0  0  0  0
  -21.9873   -9.0291   20.4672 C   0  0  0  0  0  0
  -22.7232  -10.2149   20.3054 C   0  0  0  0  0  0
  -21.6872   -6.0706   22.5268 C   0  0  0  0  0  0
  -21.4052   -6.5618   23.8207 C   0  0  0  0  0  0
  -21.3666   -5.6799   24.9185 C   0  0  0  0  0  0
  -21.6045   -4.3044   24.7235 C   0  0  0  0  0  0
  -21.8809   -3.8121   23.4359 C   0  0  0  0  0  0
  -21.9211   -4.6933   22.3414 C   0  0  0  0  0  0
  -22.7857  -13.5281   21.1874 C   0  0  0  0  0  0
  -22.1681   -4.2098   21.1003 F   0  0  0  0  0  0
  -21.5603   -3.4556   25.7754 F   0  0  0  0  0  0
  -30.0059  -13.4483   20.4012 N   0  0  0  0  0  0
  -26.2961  -12.9444   20.3224 N   0  0  0  0  0  0
  -25.9357  -11.6547   20.5633 N   0  0  0  0  0  0
  -22.0488  -12.8234   22.0380 N   0  0  0  0  0  0
  -25.4305  -15.1955   20.4189 N   0  0  0  0  0  0
  -31.9069  -14.6452   20.1701 O   0  0  0  0  0  0
  -21.6636   -6.8866   21.4218 O   0  0  0  0  0  0
  -22.3560  -14.5674   20.6828 O   0  0  0  0  0  0
  -24.6275  -31.8589   23.2005 C   0  0  0  0  0  0
  -25.9122  -32.4765   23.8328 C   0  0  1  0  0  0
  -27.2300  -27.2967   20.1029 C   0  0  0  0  0  0
  -25.5943  -33.8572   24.2252 N   0  0  0  0  0  0
  -23.4218  -30.4819   21.5469 C   0  0  2  0  0  0
  -24.8678  -28.9405   20.1063 C   0  0  0  0  0  0
  -22.7481  -29.4625   22.4964 C   0  0  0  0  0  0
  -18.0288  -28.1399   22.8498 C   0  0  0  0  0  0
  -24.1514  -36.7270   23.2635 C   0  0  0  0  0  0
  -25.9649  -30.7771   21.3831 C   0  0  0  0  0  0
  -26.0377  -29.4050   20.7192 C   0  0  0  0  0  0
  -27.2132  -28.5954   20.7125 C   0  0  0  0  0  0
  -26.0274  -26.8945   19.4665 C   0  0  0  0  0  0
  -24.8689  -27.6900   19.4747 C   0  0  0  0  0  0
  -23.6343  -29.8184   20.1609 C   0  0  0  0  0  0
  -25.4141  -36.3065   24.0309 C   0  0  1  0  0  0
  -20.5899  -28.3680   23.1297 C   0  0  2  0  0  0
  -20.6816  -26.9415   22.5417 C   0  0  0  0  0  0
  -19.5789  -26.6404   21.5229 C   0  0  0  0  0  0
  -18.1951  -26.7944   22.1624 C   0  0  0  0  0  0
  -19.1551  -28.8851   23.2893 C   0  0  0  0  0  0
  -18.9467  -30.1477   23.8892 C   0  0  0  0  0  0
  -17.6476  -30.6589   24.0565 C   0  0  0  0  0  0
  -25.9082  -34.9427   23.5078 C   0  0  0  0  0  0
  -16.5362  -29.9084   23.6346 C   0  0  0  0  0  0
  -16.7290  -28.6506   23.0345 C   0  0  0  0  0  0
  -26.4505  -31.6587   25.0707 C   0  0  0  0  0  0
  -25.3693  -31.3728   26.1394 C   0  0  0  0  0  0
  -27.0351  -30.2999   24.6192 C   0  0  0  0  0  0
  -27.6088  -32.4309   25.7467 C   0  0  0  0  0  0
  -27.5602  -37.1794   24.8466 C   0  0  0  0  0  0
  -21.4200  -29.3011   22.3664 N   0  0  0  0  0  0
  -26.4310  -37.3768   23.9391 N   0  0  0  0  0  0
  -24.6901  -31.0567   22.0986 N   0  0  0  0  0  0
  -23.4185  -28.8180   23.3063 O   0  0  0  0  0  0
  -28.3651  -26.4609   20.1749 O   0  0  0  0  0  0
  -26.5655  -34.8903   22.4649 O   0  0  0  0  0  0
  -23.5446  -32.1420   23.7307 O   0  0  0  0  0  0
  -29.6229  -16.5898   19.2599 C   0  0  0  0  0  0
  -30.0247  -16.0097   20.4849 C   0  0  0  0  0  0
  -29.1916  -17.9403   19.1381 C   0  0  0  0  0  0
  -29.9568  -16.8645   21.6285 C   0  0  0  0  0  0
  -29.4876  -18.2356   21.5226 C   0  0  0  0  0  0
  -29.1369  -18.8353   20.2581 C   0  0  0  0  0  0
  -28.0822  -22.6950   20.8452 C   0  0  0  0  0  0
  -29.6541  -22.6143   19.5721 C   0  0  0  0  0  0
  -29.0069  -23.8285   20.3236 C   0  0  1  0  0  0
  -28.7416  -18.3612   17.7480 C   0  0  0  0  0  0
  -30.3955  -16.3126   22.9906 C   0  0  0  0  0  0
  -29.3415  -19.0667   22.7951 C   0  0  0  0  0  0
  -28.5035  -20.3048   20.0646 C   0  0  0  0  0  0
  -28.4394  -25.1110   19.5434 C   0  0  0  0  0  0
  -29.0960  -21.6374   20.5523 N   0  3  2  0  0  0
  -31.4566  -12.4050   19.1879 H   0  0  0  0  0  0
  -30.2612  -11.3990   19.9524 H   0  0  0  0  0  0
  -29.7642  -11.7248   17.4953 H   0  0  0  0  0  0
  -29.6645  -13.4523   17.7376 H   0  0  0  0  0  0
  -27.8732  -11.2871   18.8920 H   0  0  0  0  0  0
  -27.3727  -12.5402   17.7919 H   0  0  0  0  0  0
  -27.6482  -14.2545   19.4586 H   0  0  0  0  0  0
  -28.6575  -12.2286   21.4909 H   0  0  0  0  0  0
  -28.4438  -13.9540   21.7263 H   0  0  0  0  0  0
  -25.2725   -9.5684   22.4791 H   0  0  0  0  0  0
  -23.9953   -7.4633   22.7504 H   0  0  0  0  0  0
  -21.0806   -8.8822   19.8991 H   0  0  0  0  0  0
  -22.3693  -10.9694   19.6164 H   0  0  0  0  0  0
  -21.2069   -7.6135   23.9668 H   0  0  0  0  0  0
  -21.1494   -6.0568   25.9098 H   0  0  0  0  0  0
  -22.0571   -2.7563   23.2895 H   0  0  0  0  0  0
  -22.4009  -11.9838   22.4729 H   0  0  0  0  0  0
  -21.1127  -13.1285   22.2663 H   0  0  0  0  0  0
  -24.6740  -15.8613   20.5504 H   0  0  0  0  0  0
  -26.2950  -15.6263   20.1156 H   0  0  0  0  0  0
  -26.7175  -32.5416   23.1068 H   0  0  0  0  0  0
  -25.0055  -33.9720   25.0369 H   0  0  0  0  0  0
  -22.7134  -31.3009   21.4051 H   0  0  0  0  0  0
  -23.3784  -35.9612   23.3315 H   0  0  0  0  0  0
  -24.3613  -36.8870   22.2059 H   0  0  0  0  0  0
  -23.7255  -37.6460   23.6655 H   0  0  0  0  0  0
  -26.1081  -31.5471   20.6236 H   0  0  0  0  0  0
  -26.8404  -30.8144   22.0198 H   0  0  0  0  0  0
  -28.1038  -28.9527   21.2120 H   0  0  0  0  0  0
  -25.9169  -25.9527   18.9571 H   0  0  0  0  0  0
  -23.9731  -27.3210   18.9907 H   0  0  0  0  0  0
  -23.7428  -30.5942   19.4018 H   0  0  0  0  0  0
  -22.7515  -29.2432   19.8717 H   0  0  0  0  0  0
  -25.1336  -36.1923   25.0804 H   0  0  0  0  0  0
  -20.9978  -28.3283   24.1428 H   0  0  0  0  0  0
  -20.5745  -26.2295   23.3621 H   0  0  0  0  0  0
  -21.6668  -26.7472   22.1193 H   0  0  0  0  0  0
  -19.6948  -25.6308   21.1271 H   0  0  0  0  0  0
  -19.6748  -27.3219   20.6768 H   0  0  0  0  0  0
  -17.4236  -26.6691   21.4017 H   0  0  0  0  0  0
  -18.0346  -26.0091   22.9017 H   0  0  0  0  0  0
  -19.7945  -30.7303   24.2247 H   0  0  0  0  0  0
  -17.5017  -31.6268   24.5159 H   0  0  0  0  0  0
  -15.5356  -30.2960   23.7677 H   0  0  0  0  0  0
  -15.8712  -28.0814   22.7046 H   0  0  0  0  0  0
  -24.5885  -30.7085   25.7673 H   0  0  0  0  0  0
  -24.8855  -32.2895   26.4791 H   0  0  0  0  0  0
  -25.7964  -30.8888   27.0180 H   0  0  0  0  0  0
  -26.2939  -29.6739   24.1199 H   0  0  0  0  0  0
  -27.4016  -29.7285   25.4729 H   0  0  0  0  0  0
  -27.8838  -30.4292   23.9461 H   0  0  0  0  0  0
  -27.2741  -33.3620   26.2068 H   0  0  0  0  0  0
  -28.3890  -32.6838   25.0264 H   0  0  0  0  0  0
  -28.0778  -31.8383   26.5339 H   0  0  0  0  0  0
  -28.2618  -38.0099   24.7506 H   0  0  0  0  0  0
  -28.1090  -36.2605   24.6310 H   0  0  0  0  0  0
  -27.2294  -37.1471   25.8865 H   0  0  0  0  0  0
  -20.9384  -29.8661   21.6817 H   0  0  0  0  0  0
  -26.0190  -38.2841   24.1386 H   0  0  0  0  0  0
  -29.6756  -15.9689   18.3717 H   0  0  0  0  0  0
  -27.1831  -22.5812   20.2338 H   0  0  0  0  0  0
  -27.8266  -22.7801   21.9030 H   0  0  0  0  0  0
  -30.7490  -22.6256   19.5634 H   0  0  0  0  0  0
  -29.2640  -22.5113   18.5557 H   0  0  0  0  0  0
  -29.6942  -24.1353   21.1174 H   0  0  0  0  0  0
  -27.7215  -18.7411   17.7649 H   0  0  0  0  0  0
  -28.7443  -17.5139   17.0613 H   0  0  0  0  0  0
  -29.4050  -19.1190   17.3290 H   0  0  0  0  0  0
  -29.5294  -16.1376   23.6311 H   0  0  0  0  0  0
  -31.0601  -17.0066   23.5069 H   0  0  0  0  0  0
  -30.9367  -15.3695   22.9349 H   0  0  0  0  0  0
  -30.1906  -19.7417   22.9165 H   0  0  0  0  0  0
  -29.2702  -18.4589   23.6951 H   0  0  0  0  0  0
  -28.4238  -19.6516   22.7828 H   0  0  0  0  0  0
  -27.5064  -20.2295   20.4941 H   0  0  0  0  0  0
  -28.3146  -20.4740   19.0067 H   0  0  0  0  0  0
  -27.4988  -24.8010   19.1054 H   0  0  0  0  0  0
  -29.0705  -25.2704   18.6675 H   0  0  0  0  0  0
  -29.7146  -21.5174   21.3406 H   0  0  0  0  0  0
  1 25  1  0  0  0
  1 30  2  0  0  0
  1 72  1  0  0  0
  2  3  1  0  0  0
  2 25  1  0  0  0
  2 86  1  0  0  0
  2 87  1  0  0  0
  3  4  1  0  0  0
  3 88  1  0  0  0
  3 89  1  0  0  0
  4  5  1  0  0  0
  4 90  1  0  0  0
  4 91  1  0  0  0
  5  6  1  0  0  0
  5 26  1  0  0  0
  5 92  1  0  0  0
  6 25  1  0  0  0
  6 93  1  0  0  0
  6 94  1  0  0  0
  7  8  2  0  0  0
  7 26  1  0  0  0
  7 29  1  0  0  0
  8  9  1  0  0  0
  8 22  1  0  0  0
  9 10  1  0  0  0
  9 27  2  0  0  0
 10 11  2  0  0  0
 10 15  1  0  0  0
 11 12  1  0  0  0
 11 95  1  0  0  0
 12 13  2  0  0  0
 12 96  1  0  0  0
 13 14  1  0  0  0
 13 31  1  0  0  0
 14 15  2  0  0  0
 14 97  1  0  0  0
 15 98  1  0  0  0
 16 17  2  0  0  0
 16 21  1  0  0  0
 16 31  1  0  0  0
 17 18  1  0  0  0
 17 99  1  0  0  0
 18 19  2  0  0  0
 18100  1  0  0  0
 19 20  1  0  0  0
 19 24  1  0  0  0
 20 21  2  0  0  0
 20101  1  0  0  0
 21 23  1  0  0  0
 22 28  1  0  0  0
 22 32  2  0  0  0
 26 27  1  0  0  0
 28102  1  0  0  0
 28103  1  0  0  0
 29104  1  0  0  0
 29105  1  0  0  0
 33 34  1  0  0  0
 33 66  1  0  0  0
 33 70  2  0  0  0
 34 36  1  0  0  0
 34 59  1  0  0  0
 34106  1  0  0  0
 35 44  2  0  0  0
 35 45  1  0  0  0
 35 68  1  0  0  0
 36 56  1  0  0  0
 36107  1  0  0  0
 37 39  1  0  0  0
 37 47  1  0  0  0
 37 66  1  0  0  0
 37108  1  0  0  0
 38 43  2  0  0  0
 38 46  1  0  0  0
 38 47  1  0  0  0
 39 64  1  0  0  0
 39 67  2  0  0  0
 40 52  1  0  0  0
 40 53  2  0  0  0
 40 58  1  0  0  0
 41109  1  0  0  0
 41110  1  0  0  0
 41111  1  0  0  0
 41 48  1  0  0  0
 42 43  1  0  0  0
 42 66  1  0  0  0
 42112  1  0  0  0
 42113  1  0  0  0
 43 44  1  0  0  0
 44114  1  0  0  0
 45 46  2  0  0  0
 45115  1  0  0  0
 46116  1  0  0  0
 47117  1  0  0  0
 47118  1  0  0  0
 48 56  1  0  0  0
 48 65  1  0  0  0
 48119  1  0  0  0
 49 50  1  0  0  0
 49 53  1  0  0  0
 49 64  1  0  0  0
 49120  1  0  0  0
 50 51  1  0  0  0
 50121  1  0  0  0
 50122  1  0  0  0
 51 52  1  0  0  0
 51123  1  0  0  0
 51124  1  0  0  0
 52125  1  0  0  0
 52126  1  0  0  0
 53 54  1  0  0  0
 54 55  2  0  0  0
 54127  1  0  0  0
 55 57  1  0  0  0
 55128  1  0  0  0
 56 69  2  0  0  0
 57 58  2  0  0  0
 57129  1  0  0  0
 58130  1  0  0  0
 59 60  1  0  0  0
 59 61  1  0  0  0
 59 62  1  0  0  0
 60131  1  0  0  0
 60132  1  0  0  0
 60133  1  0  0  0
 61134  1  0  0  0
 61135  1  0  0  0
 61136  1  0  0  0
 62137  1  0  0  0
 62138  1  0  0  0
 62139  1  0  0  0
 63 65  1  0  0  0
 63140  1  0  0  0
 63141  1  0  0  0
 63142  1  0  0  0
 64143  1  0  0  0
 65144  1  0  0  0
 68 84  1  0  0  0
 71 72  2  0  0  0
 71 73  1  0  0  0
 71145  1  0  0  0
 72 74  1  0  0  0
 73 76  2  0  0  0
 73 80  1  0  0  0
 74 75  2  0  0  0
 74 81  1  0  0  0
 75 76  1  0  0  0
 75 82  1  0  0  0
 76 83  1  0  0  0
 77 79  1  0  0  0
 77 85  1  0  0  0
 77146  1  0  0  0
 77147  1  0  0  0
 78 79  1  0  0  0
 78 85  1  0  0  0
 78148  1  0  0  0
 78149  1  0  0  0
 79 84  1  0  0  0
 79150  1  0  0  0
 80151  1  0  0  0
 80152  1  0  0  0
 80153  1  0  0  0
 81154  1  0  0  0
 81155  1  0  0  0
 81156  1  0  0  0
 82157  1  0  0  0
 82158  1  0  0  0
 82159  1  0  0  0
 83160  1  0  0  0
 83161  1  0  0  0
 83 85  1  0  0  0
 84162  1  0  0  0
 84163  1  0  0  0
 85164  1  0  0  0
M  CHG  1  85   1
M  ISO  4   1 100  68 101  72 100  84 101
M  END
> <chiral flag>
0

> <version>
0

> <s_m_source_file>
/data/baiqing/PycharmProjects/Reinvent-master-3.2/result/LINK_invent/BTK/process_docking_weight1_custom_sum_contain_oxygen_bond_distance_aromatic_linkinvent_7_9_3/rearranged_h_0143.sdf

> <i_m_source_file_index>
33

> <r_mmod_Potential_Energy-OPLS-2005>
110.139373779297

> <r_mmod_Stretch_Energy-OPLS-2005>
106.293395996094

> <r_mmod_Bend_Energy-OPLS-2005>
194.601318359375

> <r_mmod_Torsional_Energy-OPLS-2005>
243.644683837891

> <r_mmod_Improper_Torsional_Energy-OPLS-2005>
9.75271415710449

> <r_mmod_Van_der_Waal_Energy-OPLS-2005>
150.515274047852

> <r_mmod_Electrostatic_Energy-OPLS-2005>
-214.348648071289

> <r_mmod_Solvation_Energy-OPLS-2005>
-439.128479003906

> <b_mmod_Minimization_Converged-OPLS-2005>
0

> <r_mmod_RMS_Derivative-OPLS-2005>
6.10984134674072

$$$$
33
                    3D
 Structure written by MMmdl.
162172  0  0  1  0            999 V2000
  -30.6783  -14.6356   20.4935 C   0  0  0  0  0  0
  -30.4189  -12.3932   19.4593 C   0  0  0  0  0  0
  -29.4999  -12.4982   18.2249 C   0  0  0  0  0  0
  -28.0249  -12.3410   18.6395 C   0  0  0  0  0  0
  -27.6456  -13.2289   19.8556 C   0  0  2  0  0  0
  -28.6911  -13.1315   20.9887 C   0  0  0  0  0  0
  -25.2521  -13.8201   20.5699 C   0  0  0  0  0  0
  -24.1807  -13.0446   20.9203 C   0  0  0  0  0  0
  -24.6394  -11.6923   20.8748 C   0  0  0  0  0  0
  -23.9071  -10.4298   21.0407 C   0  0  0  0  0  0
  -24.3621   -9.4212   21.9184 C   0  0  0  0  0  0
  -23.6296   -8.2247   22.0754 C   0  0  0  0  0  0
  -22.4278   -8.0284   21.3544 C   0  0  0  0  0  0
  -21.9915   -9.0258   20.4646 C   0  0  0  0  0  0
  -22.7244  -10.2137   20.3056 C   0  0  0  0  0  0
  -21.6854   -6.0738   22.5278 C   0  0  0  0  0  0
  -21.4015   -6.5641   23.8212 C   0  0  0  0  0  0
  -21.3660   -5.6793   24.9174 C   0  0  0  0  0  0
  -21.6044   -4.3056   24.7225 C   0  0  0  0  0  0
  -21.8819   -3.8148   23.4346 C   0  0  0  0  0  0
  -21.9193   -4.6965   22.3402 C   0  0  0  0  0  0
  -22.7827  -13.5226   21.1862 C   0  0  0  0  0  0
  -22.1661   -4.2150   21.0980 F   0  0  0  0  0  0
  -21.5628   -3.4539   25.7737 F   0  0  0  0  0  0
  -30.0018  -13.4468   20.4084 N   0  0  0  0  0  0
  -26.2955  -12.9408   20.3311 N   0  0  0  0  0  0
  -25.9326  -11.6549   20.5766 N   0  0  0  0  0  0
  -22.0474  -12.8215   22.0418 N   0  0  0  0  0  0
  -25.4212  -15.1925   20.4116 N   0  0  0  0  0  0
  -31.8588  -14.7064   20.1448 O   0  0  0  0  0  0
  -21.6642   -6.8881   21.4240 O   0  0  0  0  0  0
  -22.3509  -14.5531   20.6710 O   0  0  0  0  0  0
  -24.6272  -31.8606   23.2049 C   0  0  0  0  0  0
  -25.9121  -32.4782   23.8370 C   0  0  1  0  0  0
  -27.2117  -27.3094   20.1122 C   0  0  0  0  0  0
  -25.5937  -33.8583   24.2292 N   0  0  0  0  0  0
  -23.4201  -30.4879   21.5481 C   0  0  2  0  0  0
  -24.8643  -28.9506   20.1075 C   0  0  0  0  0  0
  -22.7480  -29.4631   22.4934 C   0  0  0  0  0  0
  -18.0288  -28.1382   22.8487 C   0  0  0  0  0  0
  -24.1490  -36.7294   23.2638 C   0  0  0  0  0  0
  -25.9644  -30.7874   21.3804 C   0  0  0  0  0  0
  -26.0355  -29.4166   20.7184 C   0  0  0  0  0  0
  -27.2120  -28.6066   20.7155 C   0  0  0  0  0  0
  -26.0193  -26.9152   19.4569 C   0  0  0  0  0  0
  -24.8591  -27.7054   19.4676 C   0  0  0  0  0  0
  -23.6341  -29.8312   20.1606 C   0  0  0  0  0  0
  -25.4115  -36.3085   24.0330 C   0  0  1  0  0  0
  -20.5890  -28.3689   23.1278 C   0  0  2  0  0  0
  -20.6778  -26.9413   22.5406 C   0  0  0  0  0  0
  -19.5752  -26.6383   21.5210 C   0  0  0  0  0  0
  -18.1932  -26.7926   22.1625 C   0  0  0  0  0  0
  -19.1541  -28.8853   23.2878 C   0  0  0  0  0  0
  -18.9463  -30.1454   23.8894 C   0  0  0  0  0  0
  -17.6463  -30.6585   24.0562 C   0  0  0  0  0  0
  -25.9053  -34.9453   23.5109 C   0  0  0  0  0  0
  -16.5354  -29.9082   23.6330 C   0  0  0  0  0  0
  -16.7276  -28.6500   23.0353 C   0  0  0  0  0  0
  -26.4501  -31.6589   25.0739 C   0  0  0  0  0  0
  -25.3732  -31.3728   26.1464 C   0  0  0  0  0  0
  -27.0343  -30.3009   24.6203 C   0  0  0  0  0  0
  -27.6060  -32.4325   25.7509 C   0  0  0  0  0  0
  -27.5580  -37.1804   24.8465 C   0  0  0  0  0  0
  -21.4194  -29.3044   22.3674 N   0  0  0  0  0  0
  -26.4293  -37.3778   23.9408 N   0  0  0  0  0  0
  -24.6894  -31.0616   22.1008 N   0  0  0  0  0  0
  -23.4204  -28.8160   23.3005 O   0  0  0  0  0  0
  -28.3051  -26.4239   20.1865 O   0  0  0  0  0  0
  -26.5616  -34.8917   22.4671 O   0  0  0  0  0  0
  -23.5434  -32.1411   23.7372 O   0  0  0  0  0  0
  -28.8904  -18.7856   19.5356 C   0  0  0  0  0  0
  -28.4597  -20.1374   19.3632 C   0  0  0  0  0  0
  -29.8603  -20.8889   21.1866 C   0  0  0  0  0  0
  -29.8248  -18.4785   20.5463 C   0  0  0  0  0  0
  -30.2732  -19.5311   21.3590 C   0  0  0  0  0  0
  -28.9392  -21.2248   20.1552 C   0  0  0  0  0  0
  -33.0678  -20.8965   22.8447 C   0  0  0  0  0  0
  -33.6873  -19.5791   23.2429 C   0  0  0  0  0  0
  -31.2599  -17.4785   22.1953 C   0  0  0  0  0  0
  -31.2661  -19.0241   22.3802 C   0  0  1  0  0  0
  -30.6013  -17.1599   20.8299 C   0  0  1  0  0  0
  -32.6434  -19.6220   22.1502 C   0  0  0  0  0  0
  -28.0249  -24.9845   19.9346 C   0  0  0  0  0  0
  -28.9580  -23.7773   20.3963 C   0  0  0  0  0  0
  -29.9847  -15.7839   20.7867 N   0  0  0  0  0  0
  -28.4493  -22.5120   19.8546 O   0  0  0  0  0  0
  -31.4635  -12.4867   19.1578 H   0  0  0  0  0  0
  -30.3312  -11.4097   19.9236 H   0  0  0  0  0  0
  -29.7649  -11.7367   17.4901 H   0  0  0  0  0  0
  -29.6455  -13.4622   17.7346 H   0  0  0  0  0  0
  -27.8649  -11.2905   18.8851 H   0  0  0  0  0  0
  -27.3696  -12.5575   17.7950 H   0  0  0  0  0  0
  -27.6520  -14.2572   19.4934 H   0  0  0  0  0  0
  -28.7015  -12.1304   21.4224 H   0  0  0  0  0  0
  -28.4442  -13.8144   21.8031 H   0  0  0  0  0  0
  -25.2765   -9.5688   22.4760 H   0  0  0  0  0  0
  -24.0005   -7.4639   22.7474 H   0  0  0  0  0  0
  -21.0846   -8.8777   19.8952 H   0  0  0  0  0  0
  -22.3701  -10.9676   19.6167 H   0  0  0  0  0  0
  -21.2008   -7.6149   23.9716 H   0  0  0  0  0  0
  -21.1482   -6.0523   25.9077 H   0  0  0  0  0  0
  -22.0598   -2.7610   23.2845 H   0  0  0  0  0  0
  -22.4095  -11.9878   22.4805 H   0  0  0  0  0  0
  -21.1090  -13.1235   22.2624 H   0  0  0  0  0  0
  -24.6535  -15.8459   20.5233 H   0  0  0  0  0  0
  -26.2704  -15.6343   20.0831 H   0  0  0  0  0  0
  -26.7187  -32.5446   23.1115 H   0  0  0  0  0  0
  -25.0090  -33.9731   25.0441 H   0  0  0  0  0  0
  -22.7140  -31.3092   21.4092 H   0  0  0  0  0  0
  -23.3751  -35.9627   23.3302 H   0  0  0  0  0  0
  -24.3581  -36.8911   22.2051 H   0  0  0  0  0  0
  -23.7245  -37.6498   23.6657 H   0  0  0  0  0  0
  -26.1010  -31.5526   20.6150 H   0  0  0  0  0  0
  -26.8432  -30.8311   22.0120 H   0  0  0  0  0  0
  -28.1055  -28.9545   21.2147 H   0  0  0  0  0  0
  -25.9399  -25.9734   18.9357 H   0  0  0  0  0  0
  -23.9647  -27.3470   18.9763 H   0  0  0  0  0  0
  -23.7543  -30.6117   19.4085 H   0  0  0  0  0  0
  -22.7531  -29.2636   19.8556 H   0  0  0  0  0  0
  -25.1294  -36.1940   25.0823 H   0  0  0  0  0  0
  -20.9983  -28.3262   24.1398 H   0  0  0  0  0  0
  -20.5683  -26.2299   23.3605 H   0  0  0  0  0  0
  -21.6646  -26.7443   22.1197 H   0  0  0  0  0  0
  -19.6914  -25.6294   21.1240 H   0  0  0  0  0  0
  -19.6687  -27.3193   20.6740 H   0  0  0  0  0  0
  -17.4202  -26.6672   21.4027 H   0  0  0  0  0  0
  -18.0334  -26.0066   22.9021 H   0  0  0  0  0  0
  -19.7939  -30.7270   24.2263 H   0  0  0  0  0  0
  -17.5017  -31.6265   24.5162 H   0  0  0  0  0  0
  -15.5355  -30.2983   23.7656 H   0  0  0  0  0  0
  -15.8676  -28.0818   22.7069 H   0  0  0  0  0  0
  -24.5911  -30.7073   25.7794 H   0  0  0  0  0  0
  -24.8920  -32.2894   26.4885 H   0  0  0  0  0  0
  -25.8056  -30.8911   27.0242 H   0  0  0  0  0  0
  -26.2921  -29.6761   24.1222 H   0  0  0  0  0  0
  -27.4027  -29.7266   25.4714 H   0  0  0  0  0  0
  -27.8800  -30.4289   23.9441 H   0  0  0  0  0  0
  -27.2673  -33.3629   26.2078 H   0  0  0  0  0  0
  -28.3874  -32.6877   25.0339 H   0  0  0  0  0  0
  -28.0722  -31.8455   26.5433 H   0  0  0  0  0  0
  -28.2598  -38.0100   24.7510 H   0  0  0  0  0  0
  -28.1075  -36.2631   24.6294 H   0  0  0  0  0  0
  -27.2298  -37.1458   25.8868 H   0  0  0  0  0  0
  -20.9370  -29.8782   21.6899 H   0  0  0  0  0  0
  -26.0175  -38.2854   24.1404 H   0  0  0  0  0  0
  -28.5328  -18.0112   18.8714 H   0  0  0  0  0  0
  -27.7534  -20.3498   18.5728 H   0  0  0  0  0  0
  -30.2599  -21.6558   21.8346 H   0  0  0  0  0  0
  -33.6823  -21.5940   22.2787 H   0  0  0  0  0  0
  -32.3676  -21.3539   23.5415 H   0  0  0  0  0  0
  -33.3986  -19.1577   24.2041 H   0  0  0  0  0  0
  -34.7180  -19.3954   22.9452 H   0  0  0  0  0  0
  -30.6297  -17.0621   22.9822 H   0  0  0  0  0  0
  -32.2430  -17.0207   22.3129 H   0  0  0  0  0  0
  -30.9231  -19.2834   23.3833 H   0  0  0  0  0  0
  -31.3915  -17.1805   20.0766 H   0  0  0  0  0  0
  -33.0210  -19.4769   21.1389 H   0  0  0  0  0  0
  -27.0578  -24.7445   20.3785 H   0  0  0  0  0  0
  -27.9029  -24.8832   18.8554 H   0  0  0  0  0  0
  -28.9960  -23.7300   21.4851 H   0  0  0  0  0  0
  -29.9768  -23.9315   20.0402 H   0  0  0  0  0  0
  -29.0034  -15.7015   21.0027 H   0  0  0  0  0  0
  1 25  1  0  0  0
  1 30  2  0  0  0
  1 85  1  0  0  0
  2  3  1  0  0  0
  2 25  1  0  0  0
  2 87  1  0  0  0
  2 88  1  0  0  0
  3  4  1  0  0  0
  3 89  1  0  0  0
  3 90  1  0  0  0
  4  5  1  0  0  0
  4 91  1  0  0  0
  4 92  1  0  0  0
  5  6  1  0  0  0
  5 26  1  0  0  0
  5 93  1  0  0  0
  6 25  1  0  0  0
  6 94  1  0  0  0
  6 95  1  0  0  0
  7  8  2  0  0  0
  7 26  1  0  0  0
  7 29  1  0  0  0
  8  9  1  0  0  0
  8 22  1  0  0  0
  9 10  1  0  0  0
  9 27  2  0  0  0
 10 11  2  0  0  0
 10 15  1  0  0  0
 11 12  1  0  0  0
 11 96  1  0  0  0
 12 13  2  0  0  0
 12 97  1  0  0  0
 13 14  1  0  0  0
 13 31  1  0  0  0
 14 15  2  0  0  0
 14 98  1  0  0  0
 15 99  1  0  0  0
 16 17  2  0  0  0
 16 21  1  0  0  0
 16 31  1  0  0  0
 17 18  1  0  0  0
 17100  1  0  0  0
 18 19  2  0  0  0
 18101  1  0  0  0
 19 20  1  0  0  0
 19 24  1  0  0  0
 20 21  2  0  0  0
 20102  1  0  0  0
 21 23  1  0  0  0
 22 28  1  0  0  0
 22 32  2  0  0  0
 26 27  1  0  0  0
 28103  1  0  0  0
 28104  1  0  0  0
 29105  1  0  0  0
 29106  1  0  0  0
 33 34  1  0  0  0
 33 66  1  0  0  0
 33 70  2  0  0  0
 34 36  1  0  0  0
 34 59  1  0  0  0
 34107  1  0  0  0
 35 44  2  0  0  0
 35 45  1  0  0  0
 35 68  1  0  0  0
 36 56  1  0  0  0
 36108  1  0  0  0
 37 39  1  0  0  0
 37 47  1  0  0  0
 37 66  1  0  0  0
 37109  1  0  0  0
 38 43  2  0  0  0
 38 46  1  0  0  0
 38 47  1  0  0  0
 39 64  1  0  0  0
 39 67  2  0  0  0
 40 52  1  0  0  0
 40 53  2  0  0  0
 40 58  1  0  0  0
 41110  1  0  0  0
 41111  1  0  0  0
 41112  1  0  0  0
 41 48  1  0  0  0
 42 43  1  0  0  0
 42 66  1  0  0  0
 42113  1  0  0  0
 42114  1  0  0  0
 43 44  1  0  0  0
 44115  1  0  0  0
 45 46  2  0  0  0
 45116  1  0  0  0
 46117  1  0  0  0
 47118  1  0  0  0
 47119  1  0  0  0
 48 56  1  0  0  0
 48 65  1  0  0  0
 48120  1  0  0  0
 49 50  1  0  0  0
 49 53  1  0  0  0
 49 64  1  0  0  0
 49121  1  0  0  0
 50 51  1  0  0  0
 50122  1  0  0  0
 50123  1  0  0  0
 51 52  1  0  0  0
 51124  1  0  0  0
 51125  1  0  0  0
 52126  1  0  0  0
 52127  1  0  0  0
 53 54  1  0  0  0
 54 55  2  0  0  0
 54128  1  0  0  0
 55 57  1  0  0  0
 55129  1  0  0  0
 56 69  2  0  0  0
 57 58  2  0  0  0
 57130  1  0  0  0
 58131  1  0  0  0
 59 60  1  0  0  0
 59 61  1  0  0  0
 59 62  1  0  0  0
 60132  1  0  0  0
 60133  1  0  0  0
 60134  1  0  0  0
 61135  1  0  0  0
 61136  1  0  0  0
 61137  1  0  0  0
 62138  1  0  0  0
 62139  1  0  0  0
 62140  1  0  0  0
 63 65  1  0  0  0
 63141  1  0  0  0
 63142  1  0  0  0
 63143  1  0  0  0
 64144  1  0  0  0
 65145  1  0  0  0
 68 83  1  0  0  0
 71 72  2  0  0  0
 71 74  1  0  0  0
 71146  1  0  0  0
 72 76  1  0  0  0
 72147  1  0  0  0
 73 75  1  0  0  0
 73 76  2  0  0  0
 73148  1  0  0  0
 74 75  2  0  0  0
 74 81  1  0  0  0
 75 80  1  0  0  0
 76 86  1  0  0  0
 77 78  1  0  0  0
 77149  1  0  0  0
 77150  1  0  0  0
 77 82  1  0  0  0
 78 82  1  0  0  0
 78151  1  0  0  0
 78152  1  0  0  0
 79 81  1  0  0  0
 79153  1  0  0  0
 79154  1  0  0  0
 79 80  1  0  0  0
 80 82  1  0  0  0
 80155  1  0  0  0
 81 85  1  0  0  0
 81156  1  0  0  0
 82157  1  0  0  0
 83 84  1  0  0  0
 83158  1  0  0  0
 83159  1  0  0  0
 84 86  1  0  0  0
 84160  1  0  0  0
 84161  1  0  0  0
 85162  1  0  0  0
M  ISO  4   1 100  68 101  83 101  85 100
M  END
> <chiral flag>
0

> <version>
0

> <s_m_source_file>
/data/baiqing/PycharmProjects/Reinvent-master-3.2/result/LINK_invent/BTK/process_docking_weight1_custom_sum_contain_oxygen_bond_distance_aromatic_linkinvent_7_9_3/rearranged_h_0143.sdf

> <i_m_source_file_index>
34

> <r_mmod_Potential_Energy-OPLS-2005>
119.997604370117

> <r_mmod_Stretch_Energy-OPLS-2005>
77.827507019043

> <r_mmod_Bend_Energy-OPLS-2005>
204.060791015625

> <r_mmod_Torsional_Energy-OPLS-2005>
248.782470703125

> <r_mmod_Improper_Torsional_Energy-OPLS-2005>
4.61709356307983

> <r_mmod_Van_der_Waal_Energy-OPLS-2005>
140.902282714844

> <r_mmod_Electrostatic_Energy-OPLS-2005>
-404.507873535156

> <r_mmod_Solvation_Energy-OPLS-2005>
-207.467727661133

> <b_mmod_Minimization_Converged-OPLS-2005>
0

> <r_mmod_RMS_Derivative-OPLS-2005>
0.155153840780258

$$$$
34
                    3D
 Structure written by MMmdl.
157166  0  0  1  0            999 V2000
  -30.5471  -14.9566   20.4043 C   0  0  0  0  0  0
  -30.4377  -12.5929   19.4956 C   0  0  0  0  0  0
  -29.5183  -12.5117   18.2541 C   0  0  0  0  0  0
  -28.0462  -12.3213   18.6662 C   0  0  0  0  0  0
  -27.6251  -13.2536   19.8328 C   0  0  2  0  0  0
  -28.6705  -13.2854   20.9684 C   0  0  0  0  0  0
  -25.2439  -13.8235   20.5728 C   0  0  0  0  0  0
  -24.1768  -13.0443   20.9241 C   0  0  0  0  0  0
  -24.6398  -11.6933   20.8759 C   0  0  0  0  0  0
  -23.9091  -10.4298   21.0410 C   0  0  0  0  0  0
  -24.3638   -9.4206   21.9185 C   0  0  0  0  0  0
  -23.6313   -8.2234   22.0748 C   0  0  0  0  0  0
  -22.4291   -8.0275   21.3536 C   0  0  0  0  0  0
  -21.9925   -9.0252   20.4635 C   0  0  0  0  0  0
  -22.7264  -10.2133   20.3052 C   0  0  0  0  0  0
  -21.6852   -6.0740   22.5283 C   0  0  0  0  0  0
  -21.4013   -6.5642   23.8217 C   0  0  0  0  0  0
  -21.3657   -5.6793   24.9174 C   0  0  0  0  0  0
  -21.6045   -4.3056   24.7222 C   0  0  0  0  0  0
  -21.8824   -3.8150   23.4341 C   0  0  0  0  0  0
  -21.9197   -4.6969   22.3401 C   0  0  0  0  0  0
  -22.7785  -13.5198   21.1896 C   0  0  0  0  0  0
  -22.1665   -4.2158   21.0977 F   0  0  0  0  0  0
  -21.5628   -3.4535   25.7731 F   0  0  0  0  0  0
  -29.9439  -13.6990   20.3658 N   0  0  0  0  0  0
  -26.2869  -12.9484   20.3230 N   0  0  0  0  0  0
  -25.9332  -11.6605   20.5737 N   0  0  0  0  0  0
  -22.0435  -12.8168   22.0438 N   0  0  0  0  0  0
  -25.4086  -15.1967   20.4170 N   0  0  0  0  0  0
  -31.7514  -15.0089   20.1349 O   0  0  0  0  0  0
  -21.6642   -6.8884   21.4244 O   0  0  0  0  0  0
  -22.3459  -14.5507   20.6758 O   0  0  0  0  0  0
  -24.6403  -31.8435   23.1872 C   0  0  0  0  0  0
  -25.9197  -32.4683   23.8253 C   0  0  1  0  0  0
  -27.2493  -27.1556   20.1597 C   0  0  0  0  0  0
  -25.5956  -33.8482   24.2188 N   0  0  0  0  0  0
  -23.4438  -30.4551   21.5342 C   0  0  2  0  0  0
  -24.8987  -28.8688   20.1229 C   0  0  0  0  0  0
  -22.7540  -29.4536   22.4916 C   0  0  0  0  0  0
  -18.0293  -28.1401   22.8505 C   0  0  0  0  0  0
  -24.1468  -36.7192   23.2647 C   0  0  0  0  0  0
  -25.9936  -30.7225   21.3839 C   0  0  0  0  0  0
  -26.0705  -29.3301   20.7352 C   0  0  0  0  0  0
  -27.2414  -28.4892   20.7329 C   0  0  0  0  0  0
  -26.0504  -26.7820   19.5141 C   0  0  0  0  0  0
  -24.8999  -27.6068   19.5022 C   0  0  0  0  0  0
  -23.6714  -29.7689   20.1595 C   0  0  0  0  0  0
  -25.4117  -36.3008   24.0324 C   0  0  1  0  0  0
  -20.5896  -28.3705   23.1264 C   0  0  2  0  0  0
  -20.6754  -26.9412   22.5424 C   0  0  0  0  0  0
  -19.5742  -26.6414   21.5206 C   0  0  0  0  0  0
  -18.1930  -26.7948   22.1637 C   0  0  0  0  0  0
  -19.1548  -28.8882   23.2875 C   0  0  0  0  0  0
  -18.9469  -30.1483   23.8887 C   0  0  0  0  0  0
  -17.6460  -30.6603   24.0569 C   0  0  0  0  0  0
  -25.9083  -34.9390   23.5080 C   0  0  0  0  0  0
  -16.5352  -29.9098   23.6343 C   0  0  0  0  0  0
  -16.7277  -28.6516   23.0377 C   0  0  0  0  0  0
  -26.4539  -31.6529   25.0673 C   0  0  0  0  0  0
  -25.3740  -31.3692   26.1378 C   0  0  0  0  0  0
  -27.0398  -30.2928   24.6235 C   0  0  0  0  0  0
  -27.6086  -32.4271   25.7453 C   0  0  0  0  0  0
  -27.5559  -37.1749   24.8487 C   0  0  0  0  0  0
  -21.4240  -29.3006   22.3627 N   0  0  0  0  0  0
  -26.4271  -37.3735   23.9429 N   0  0  0  0  0  0
  -24.7116  -31.0287   22.0913 N   0  0  0  0  0  0
  -23.4164  -28.8136   23.3119 O   0  0  0  0  0  0
  -28.3847  -26.2736   20.1509 O   0  0  0  0  0  0
  -26.5660  -34.8893   22.4648 O   0  0  0  0  0  0
  -23.5542  -32.1325   23.7104 O   0  0  0  0  0  0
  -27.6426  -23.8166   20.7554 C   0  0  0  0  0  0
  -29.9224  -22.9236   19.6262 C   0  0  0  0  0  0
  -27.9500  -22.3839   20.7641 C   0  0  0  0  0  0
  -29.1549  -21.8376   20.1773 C   0  0  0  0  0  0
  -28.4839  -24.8065   20.1506 C   0  0  0  0  0  0
  -26.0669  -20.9784   23.8549 C   0  0  0  0  0  0
  -27.0991  -19.9220   23.5697 C   0  0  0  0  0  0
  -27.2176  -21.2845   22.9194 C   0  0  0  0  0  0
  -26.9414  -21.4720   21.4373 C   0  0  0  0  0  0
  -30.1844  -17.6756   20.2608 C   0  0  0  0  0  0
  -29.2451  -19.0657   20.5372 C   0  0  0  0  0  0
  -29.6284  -24.2816   19.6142 N   0  0  0  0  0  0
  -29.7934  -16.1581   20.5173 N   0  0  0  0  0  0
  -29.6938  -20.4666   20.0638 O   0  0  0  0  0  0
  -31.4688  -12.7549   19.1767 H   0  0  0  0  0  0
  -30.4411  -11.6483   20.0424 H   0  0  0  0  0  0
  -29.8306  -11.6892   17.6084 H   0  0  0  0  0  0
  -29.6180  -13.4223   17.6609 H   0  0  0  0  0  0
  -27.9225  -11.2792   18.9622 H   0  0  0  0  0  0
  -27.3912  -12.4706   17.8059 H   0  0  0  0  0  0
  -27.5843  -14.2557   19.4032 H   0  0  0  0  0  0
  -28.7599  -12.3081   21.4468 H   0  0  0  0  0  0
  -28.3723  -13.9888   21.7469 H   0  0  0  0  0  0
  -25.2780   -9.5678   22.4761 H   0  0  0  0  0  0
  -24.0021   -7.4624   22.7463 H   0  0  0  0  0  0
  -21.0857   -8.8780   19.8935 H   0  0  0  0  0  0
  -22.3731  -10.9672   19.6156 H   0  0  0  0  0  0
  -21.2004   -7.6149   23.9723 H   0  0  0  0  0  0
  -21.1472   -6.0515   25.9078 H   0  0  0  0  0  0
  -22.0608   -2.7611   23.2839 H   0  0  0  0  0  0
  -22.4057  -11.9827   22.4827 H   0  0  0  0  0  0
  -21.1034  -13.1152   22.2616 H   0  0  0  0  0  0
  -24.6437  -15.8493   20.5486 H   0  0  0  0  0  0
  -26.2527  -15.6410   20.0810 H   0  0  0  0  0  0
  -26.7251  -32.5322   23.0966 H   0  0  0  0  0  0
  -25.0050  -33.9589   25.0309 H   0  0  0  0  0  0
  -22.7444  -31.2773   21.3747 H   0  0  0  0  0  0
  -23.3768  -35.9481   23.3324 H   0  0  0  0  0  0
  -24.3532  -36.8808   22.2050 H   0  0  0  0  0  0
  -23.7175  -37.6374   23.6671 H   0  0  0  0  0  0
  -26.1439  -31.4793   20.6129 H   0  0  0  0  0  0
  -26.8601  -30.7747   22.0305 H   0  0  0  0  0  0
  -28.1472  -28.8503   21.1992 H   0  0  0  0  0  0
  -25.9973  -25.8198   19.0239 H   0  0  0  0  0  0
  -24.0041  -27.2465   19.0155 H   0  0  0  0  0  0
  -23.8020  -30.5339   19.3949 H   0  0  0  0  0  0
  -22.7875  -29.2026   19.8599 H   0  0  0  0  0  0
  -25.1293  -36.1829   25.0814 H   0  0  0  0  0  0
  -20.9983  -28.3302   24.1390 H   0  0  0  0  0  0
  -20.5615  -26.2310   23.3635 H   0  0  0  0  0  0
  -21.6627  -26.7415   22.1241 H   0  0  0  0  0  0
  -19.6887  -25.6335   21.1224 H   0  0  0  0  0  0
  -19.6672  -27.3233   20.6734 H   0  0  0  0  0  0
  -17.4186  -26.6699   21.4056 H   0  0  0  0  0  0
  -18.0350  -26.0075   22.9018 H   0  0  0  0  0  0
  -19.7945  -30.7318   24.2239 H   0  0  0  0  0  0
  -17.5016  -31.6282   24.5172 H   0  0  0  0  0  0
  -15.5357  -30.2992   23.7688 H   0  0  0  0  0  0
  -15.8674  -28.0831   22.7096 H   0  0  0  0  0  0
  -24.5976  -30.6964   25.7722 H   0  0  0  0  0  0
  -24.8858  -32.2842   26.4728 H   0  0  0  0  0  0
  -25.8064  -30.8956   27.0201 H   0  0  0  0  0  0
  -26.3033  -29.6668   24.1178 H   0  0  0  0  0  0
  -27.3948  -29.7195   25.4806 H   0  0  0  0  0  0
  -27.8952  -30.4151   23.9583 H   0  0  0  0  0  0
  -27.2719  -33.3619   26.1936 H   0  0  0  0  0  0
  -28.3938  -32.6740   25.0295 H   0  0  0  0  0  0
  -28.0677  -31.8429   26.5431 H   0  0  0  0  0  0
  -28.2599  -38.0027   24.7535 H   0  0  0  0  0  0
  -28.1036  -36.2561   24.6329 H   0  0  0  0  0  0
  -27.2266  -37.1405   25.8890 H   0  0  0  0  0  0
  -20.9479  -29.8641   21.6718 H   0  0  0  0  0  0
  -26.0138  -38.2796   24.1493 H   0  0  0  0  0  0
  -26.7476  -24.1677   21.2488 H   0  0  0  0  0  0
  -30.8673  -22.6844   19.1589 H   0  0  0  0  0  0
  -26.0803  -21.4396   24.8413 H   0  0  0  0  0  0
  -25.0797  -20.8274   23.4237 H   0  0  0  0  0  0
  -26.7872  -19.0875   22.9445 H   0  0  0  0  0  0
  -27.7802  -19.6693   24.3802 H   0  0  0  0  0  0
  -27.9588  -21.9710   23.3292 H   0  0  0  0  0  0
  -26.8951  -20.5113   20.9282 H   0  0  0  0  0  0
  -25.9501  -21.9111   21.3244 H   0  0  0  0  0  0
  -31.1282  -17.8276   20.7860 H   0  0  0  0  0  0
  -30.4609  -17.7122   19.2074 H   0  0  0  0  0  0
  -29.1016  -19.1485   21.6132 H   0  0  0  0  0  0
  -28.2564  -18.8855   20.1155 H   0  0  0  0  0  0
  -28.8108  -16.0042   20.6923 H   0  0  0  0  0  0
  1 25  1  0  0  0
  1 30  2  0  0  0
  1 83  1  0  0  0
  2  3  1  0  0  0
  2 25  1  0  0  0
  2 85  1  0  0  0
  2 86  1  0  0  0
  3  4  1  0  0  0
  3 87  1  0  0  0
  3 88  1  0  0  0
  4  5  1  0  0  0
  4 89  1  0  0  0
  4 90  1  0  0  0
  5  6  1  0  0  0
  5 26  1  0  0  0
  5 91  1  0  0  0
  6 25  1  0  0  0
  6 92  1  0  0  0
  6 93  1  0  0  0
  7  8  2  0  0  0
  7 26  1  0  0  0
  7 29  1  0  0  0
  8  9  1  0  0  0
  8 22  1  0  0  0
  9 10  1  0  0  0
  9 27  2  0  0  0
 10 11  2  0  0  0
 10 15  1  0  0  0
 11 12  1  0  0  0
 11 94  1  0  0  0
 12 13  2  0  0  0
 12 95  1  0  0  0
 13 14  1  0  0  0
 13 31  1  0  0  0
 14 15  2  0  0  0
 14 96  1  0  0  0
 15 97  1  0  0  0
 16 17  2  0  0  0
 16 21  1  0  0  0
 16 31  1  0  0  0
 17 18  1  0  0  0
 17 98  1  0  0  0
 18 19  2  0  0  0
 18 99  1  0  0  0
 19 20  1  0  0  0
 19 24  1  0  0  0
 20 21  2  0  0  0
 20100  1  0  0  0
 21 23  1  0  0  0
 22 28  1  0  0  0
 22 32  2  0  0  0
 26 27  1  0  0  0
 28101  1  0  0  0
 28102  1  0  0  0
 29103  1  0  0  0
 29104  1  0  0  0
 33 34  1  0  0  0
 33 66  1  0  0  0
 33 70  2  0  0  0
 34 36  1  0  0  0
 34 59  1  0  0  0
 34105  1  0  0  0
 35 44  2  0  0  0
 35 45  1  0  0  0
 35 68  1  0  0  0
 36 56  1  0  0  0
 36106  1  0  0  0
 37 39  1  0  0  0
 37 47  1  0  0  0
 37 66  1  0  0  0
 37107  1  0  0  0
 38 43  2  0  0  0
 38 46  1  0  0  0
 38 47  1  0  0  0
 39 64  1  0  0  0
 39 67  2  0  0  0
 40 52  1  0  0  0
 40 53  2  0  0  0
 40 58  1  0  0  0
 41108  1  0  0  0
 41109  1  0  0  0
 41110  1  0  0  0
 41 48  1  0  0  0
 42 43  1  0  0  0
 42 66  1  0  0  0
 42111  1  0  0  0
 42112  1  0  0  0
 43 44  1  0  0  0
 44113  1  0  0  0
 45 46  2  0  0  0
 45114  1  0  0  0
 46115  1  0  0  0
 47116  1  0  0  0
 47117  1  0  0  0
 48 56  1  0  0  0
 48 65  1  0  0  0
 48118  1  0  0  0
 49 50  1  0  0  0
 49 53  1  0  0  0
 49 64  1  0  0  0
 49119  1  0  0  0
 50 51  1  0  0  0
 50120  1  0  0  0
 50121  1  0  0  0
 51 52  1  0  0  0
 51122  1  0  0  0
 51123  1  0  0  0
 52124  1  0  0  0
 52125  1  0  0  0
 53 54  1  0  0  0
 54 55  2  0  0  0
 54126  1  0  0  0
 55 57  1  0  0  0
 55127  1  0  0  0
 56 69  2  0  0  0
 57 58  2  0  0  0
 57128  1  0  0  0
 58129  1  0  0  0
 59 60  1  0  0  0
 59 61  1  0  0  0
 59 62  1  0  0  0
 60130  1  0  0  0
 60131  1  0  0  0
 60132  1  0  0  0
 61133  1  0  0  0
 61134  1  0  0  0
 61135  1  0  0  0
 62136  1  0  0  0
 62137  1  0  0  0
 62138  1  0  0  0
 63 65  1  0  0  0
 63139  1  0  0  0
 63140  1  0  0  0
 63141  1  0  0  0
 64142  1  0  0  0
 65143  1  0  0  0
 68 75  1  0  0  0
 71 73  2  0  0  0
 71 75  1  0  0  0
 71144  1  0  0  0
 72 74  2  0  0  0
 72 82  1  0  0  0
 72145  1  0  0  0
 73 74  1  0  0  0
 73 79  1  0  0  0
 74 84  1  0  0  0
 75 82  2  0  0  0
 76 77  1  0  0  0
 76 78  1  0  0  0
 76146  1  0  0  0
 76147  1  0  0  0
 77 78  1  0  0  0
 77148  1  0  0  0
 77149  1  0  0  0
 78 79  1  0  0  0
 78150  1  0  0  0
 79151  1  0  0  0
 79152  1  0  0  0
 80 81  1  0  0  0
 80 83  1  0  0  0
 80153  1  0  0  0
 80154  1  0  0  0
 81 84  1  0  0  0
 81155  1  0  0  0
 81156  1  0  0  0
 83157  1  0  0  0
M  ISO  4   1 100  68 101  75 101  83 100
M  END
> <chiral flag>
0

> <version>
0

> <s_m_source_file>
/data/baiqing/PycharmProjects/Reinvent-master-3.2/result/LINK_invent/BTK/process_docking_weight1_custom_sum_contain_oxygen_bond_distance_aromatic_linkinvent_7_9_3/rearranged_h_0143.sdf

> <i_m_source_file_index>
35

> <r_mmod_Potential_Energy-OPLS-2005>
380.095581054688

> <r_mmod_Stretch_Energy-OPLS-2005>
230.392654418945

> <r_mmod_Bend_Energy-OPLS-2005>
302.347595214844

> <r_mmod_Torsional_Energy-OPLS-2005>
241.285186767578

> <r_mmod_Improper_Torsional_Energy-OPLS-2005>
5.34416484832764

> <r_mmod_Van_der_Waal_Energy-OPLS-2005>
124.088569641113

> <r_mmod_Electrostatic_Energy-OPLS-2005>
-471.305633544922

> <r_mmod_Solvation_Energy-OPLS-2005>
-228.572738647461

> <b_mmod_Minimization_Converged-OPLS-2005>
0

> <r_mmod_RMS_Derivative-OPLS-2005>
2.90757966041565

$$$$
35
                    3D
 Structure written by MMmdl.
189198  0  0  1  0            999 V2000
  -30.6541  -14.6519   20.5615 C   0  0  0  0  0  0
  -30.4405  -12.4307   19.4495 C   0  0  0  0  0  0
  -29.5060  -12.5342   18.2235 C   0  0  0  0  0  0
  -28.0306  -12.3615   18.6347 C   0  0  0  0  0  0
  -27.6516  -13.2276   19.8652 C   0  0  2  0  0  0
  -28.6977  -13.0967   20.9942 C   0  0  0  0  0  0
  -25.2542  -13.8184   20.5687 C   0  0  0  0  0  0
  -24.1818  -13.0435   20.9189 C   0  0  0  0  0  0
  -24.6401  -11.6913   20.8736 C   0  0  0  0  0  0
  -23.9068  -10.4297   21.0404 C   0  0  0  0  0  0
  -24.3613   -9.4206   21.9178 C   0  0  0  0  0  0
  -23.6291   -8.2239   22.0752 C   0  0  0  0  0  0
  -22.4269   -8.0289   21.3541 C   0  0  0  0  0  0
  -21.9915   -9.0250   20.4642 C   0  0  0  0  0  0
  -22.7244  -10.2134   20.3049 C   0  0  0  0  0  0
  -21.6855   -6.0739   22.5279 C   0  0  0  0  0  0
  -21.4017   -6.5629   23.8213 C   0  0  0  0  0  0
  -21.3652   -5.6777   24.9173 C   0  0  0  0  0  0
  -21.6045   -4.3042   24.7218 C   0  0  0  0  0  0
  -21.8819   -3.8146   23.4331 C   0  0  0  0  0  0
  -21.9189   -4.6976   22.3390 C   0  0  0  0  0  0
  -22.7836  -13.5236   21.1860 C   0  0  0  0  0  0
  -22.1666   -4.2153   21.0972 F   0  0  0  0  0  0
  -21.5626   -3.4531   25.7728 F   0  0  0  0  0  0
  -30.0092  -13.4481   20.4290 N   0  0  0  0  0  0
  -26.2986  -12.9400   20.3332 N   0  0  0  0  0  0
  -25.9332  -11.6534   20.5751 N   0  0  0  0  0  0
  -22.0468  -12.8212   22.0399 N   0  0  0  0  0  0
  -25.4224  -15.1918   20.4129 N   0  0  0  0  0  0
  -31.8161  -14.8003   20.1740 O   0  0  0  0  0  0
  -21.6631   -6.8883   21.4245 O   0  0  0  0  0  0
  -22.3526  -14.5557   20.6725 O   0  0  0  0  0  0
  -24.6228  -31.8581   23.2063 C   0  0  0  0  0  0
  -25.9075  -32.4769   23.8380 C   0  0  1  0  0  0
  -27.2010  -27.2968   20.1181 C   0  0  0  0  0  0
  -25.5880  -33.8584   24.2291 N   0  0  0  0  0  0
  -23.4162  -30.4857   21.5494 C   0  0  2  0  0  0
  -24.8608  -28.9454   20.1114 C   0  0  0  0  0  0
  -22.7476  -29.4581   22.4946 C   0  0  0  0  0  0
  -18.0303  -28.1319   22.8473 C   0  0  0  0  0  0
  -24.1494  -36.7288   23.2647 C   0  0  0  0  0  0
  -25.9625  -30.7811   21.3843 C   0  0  0  0  0  0
  -26.0344  -29.4109   20.7188 C   0  0  0  0  0  0
  -27.2123  -28.6009   20.7085 C   0  0  0  0  0  0
  -26.0054  -26.8951   19.4866 C   0  0  0  0  0  0
  -24.8511  -27.6942   19.4821 C   0  0  0  0  0  0
  -23.6311  -29.8292   20.1615 C   0  0  0  0  0  0
  -25.4121  -36.3092   24.0337 C   0  0  1  0  0  0
  -20.5893  -28.3617   23.1282 C   0  0  2  0  0  0
  -20.6779  -26.9339   22.5398 C   0  0  0  0  0  0
  -19.5780  -26.6335   21.5175 C   0  0  0  0  0  0
  -18.1952  -26.7869   22.1580 C   0  0  0  0  0  0
  -19.1551  -28.8795   23.2859 C   0  0  0  0  0  0
  -18.9494  -30.1411   23.8867 C   0  0  0  0  0  0
  -17.6490  -30.6527   24.0551 C   0  0  0  0  0  0
  -25.9051  -34.9450   23.5115 C   0  0  0  0  0  0
  -16.5391  -29.9013   23.6335 C   0  0  0  0  0  0
  -16.7282  -28.6433   23.0343 C   0  0  0  0  0  0
  -26.4448  -31.6582   25.0755 C   0  0  0  0  0  0
  -25.3687  -31.3702   26.1501 C   0  0  0  0  0  0
  -27.0272  -30.3010   24.6173 C   0  0  0  0  0  0
  -27.6079  -32.4296   25.7438 C   0  0  0  0  0  0
  -27.5588  -37.1812   24.8475 C   0  0  0  0  0  0
  -21.4194  -29.3000   22.3708 N   0  0  0  0  0  0
  -26.4310  -37.3781   23.9406 N   0  0  0  0  0  0
  -24.6865  -31.0568   22.1020 N   0  0  0  0  0  0
  -23.4229  -28.8117   23.2984 O   0  0  0  0  0  0
  -28.2868  -26.4026   20.1564 O   0  0  0  0  0  0
  -26.5629  -34.8908   22.4700 O   0  0  0  0  0  0
  -23.5390  -32.1382   23.7370 O   0  0  0  0  0  0
  -31.4916  -21.5022   18.9173 C   0  0  0  0  0  0
  -30.0231  -23.2886   21.0428 C   0  0  0  0  0  0
  -28.4853  -22.7276   19.2398 C   0  0  0  0  0  0
  -29.0713  -24.4016   21.6022 C   0  0  0  0  0  0
  -27.5143  -23.8804   19.6647 C   0  0  0  0  0  0
  -32.9126  -20.9538   20.9445 C   0  0  0  0  0  0
  -30.3115  -20.8753   19.7542 C   0  0  2  0  0  0
  -32.9068  -21.5613   19.5306 C   0  0  2  0  0  0
  -29.3544  -22.0543   20.3491 C   0  0  1  0  0  0
  -28.0137  -25.0143   20.6337 C   0  0  2  0  0  0
  -32.2425  -19.5593   20.9033 C   0  0  2  0  0  0
  -35.0941  -17.3679   19.1601 C   0  0  0  0  0  0
  -29.6264  -17.4427   22.7294 C   0  0  0  0  0  0
  -33.6018  -23.7897   20.5517 C   0  0  0  0  0  0
  -34.7702  -22.9176   18.5938 C   0  0  0  0  0  0
  -32.9828  -18.5821   19.9123 C   0  0  0  0  0  0
  -34.4848  -18.3487   20.1746 C   0  0  0  0  0  0
  -30.0894  -18.3229   20.3655 C   0  0  0  0  0  0
  -30.3411  -17.1168   21.4038 C   0  0  2  0  0  0
  -29.9134  -15.7200   21.0026 N   0  0  0  0  0  0
  -30.7516  -19.6841   20.6546 N   0  3  2  0  0  0
  -33.4870  -22.9321   19.3419 N   0  3  0  0  0  0
  -31.3041  -21.9656   17.7906 O   0  0  0  0  0  0
  -31.4770  -12.5738   19.1405 H   0  0  0  0  0  0
  -30.3959  -11.4348   19.8932 H   0  0  0  0  0  0
  -29.7790  -11.7899   17.4743 H   0  0  0  0  0  0
  -29.6352  -13.5072   17.7465 H   0  0  0  0  0  0
  -27.8724  -11.3072   18.8624 H   0  0  0  0  0  0
  -27.3743  -12.5950   17.7946 H   0  0  0  0  0  0
  -27.6646  -14.2642   19.5250 H   0  0  0  0  0  0
  -28.7163  -12.0752   21.3766 H   0  0  0  0  0  0
  -28.4370  -13.7290   21.8442 H   0  0  0  0  0  0
  -25.2754   -9.5691   22.4754 H   0  0  0  0  0  0
  -24.0000   -7.4643   22.7482 H   0  0  0  0  0  0
  -21.0841   -8.8776   19.8946 H   0  0  0  0  0  0
  -22.3699  -10.9679   19.6163 H   0  0  0  0  0  0
  -21.2002   -7.6138   23.9728 H   0  0  0  0  0  0
  -21.1480   -6.0500   25.9079 H   0  0  0  0  0  0
  -22.0597   -2.7610   23.2825 H   0  0  0  0  0  0
  -22.4072  -11.9857   22.4756 H   0  0  0  0  0  0
  -21.1102  -13.1257   22.2616 H   0  0  0  0  0  0
  -24.6463  -15.8388   20.5046 H   0  0  0  0  0  0
  -26.2657  -15.6338   20.0730 H   0  0  0  0  0  0
  -26.7112  -32.5415   23.1106 H   0  0  0  0  0  0
  -25.0118  -33.9790   25.0476 H   0  0  0  0  0  0
  -22.7055  -31.3039   21.4106 H   0  0  0  0  0  0
  -23.3774  -35.9599   23.3317 H   0  0  0  0  0  0
  -24.3589  -36.8887   22.2062 H   0  0  0  0  0  0
  -23.7238  -37.6490   23.6649 H   0  0  0  0  0  0
  -26.0984  -31.5465   20.6202 H   0  0  0  0  0  0
  -26.8430  -30.8212   22.0130 H   0  0  0  0  0  0
  -28.1101  -28.9526   21.1962 H   0  0  0  0  0  0
  -25.9218  -25.9441   18.9914 H   0  0  0  0  0  0
  -23.9542  -27.3341   18.9979 H   0  0  0  0  0  0
  -23.7475  -30.6126   19.4117 H   0  0  0  0  0  0
  -22.7486  -29.2614   19.8560 H   0  0  0  0  0  0
  -25.1282  -36.1979   25.0825 H   0  0  0  0  0  0
  -20.9974  -28.3165   24.1395 H   0  0  0  0  0  0
  -20.5634  -26.2214   23.3584 H   0  0  0  0  0  0
  -21.6664  -26.7310   22.1249 H   0  0  0  0  0  0
  -19.6955  -25.6240   21.1219 H   0  0  0  0  0  0
  -19.6757  -27.3137   20.6713 H   0  0  0  0  0  0
  -17.4230  -26.6642   21.3960 H   0  0  0  0  0  0
  -18.0335  -25.9939   22.8919 H   0  0  0  0  0  0
  -19.7971  -30.7242   24.2181 H   0  0  0  0  0  0
  -17.5044  -31.6221   24.5143 H   0  0  0  0  0  0
  -15.5391  -30.2926   23.7652 H   0  0  0  0  0  0
  -15.8685  -28.0774   22.7037 H   0  0  0  0  0  0
  -24.6000  -30.6832   25.7903 H   0  0  0  0  0  0
  -24.8698  -32.2816   26.4792 H   0  0  0  0  0  0
  -25.8072  -30.9086   27.0364 H   0  0  0  0  0  0
  -26.2808  -29.6782   24.1227 H   0  0  0  0  0  0
  -27.4004  -29.7233   25.4637 H   0  0  0  0  0  0
  -27.8634  -30.4288   23.9315 H   0  0  0  0  0  0
  -27.2807  -33.3713   26.1842 H   0  0  0  0  0  0
  -28.3922  -32.6657   25.0234 H   0  0  0  0  0  0
  -28.0644  -31.8496   26.5460 H   0  0  0  0  0  0
  -28.2633  -38.0086   24.7515 H   0  0  0  0  0  0
  -28.1080  -36.2640   24.6318 H   0  0  0  0  0  0
  -27.2325  -37.1464   25.8886 H   0  0  0  0  0  0
  -20.9339  -29.8771   21.6989 H   0  0  0  0  0  0
  -26.0206  -38.2857   24.1414 H   0  0  0  0  0  0
  -30.6580  -22.9528   21.8615 H   0  0  0  0  0  0
  -30.6545  -23.7929   20.3146 H   0  0  0  0  0  0
  -29.1260  -23.1280   18.4554 H   0  0  0  0  0  0
  -27.8891  -21.9516   18.7580 H   0  0  0  0  0  0
  -29.6644  -25.2119   22.0272 H   0  0  0  0  0  0
  -28.5366  -23.9735   22.4518 H   0  0  0  0  0  0
  -26.6761  -23.3917   20.1682 H   0  0  0  0  0  0
  -27.0976  -24.2975   18.7529 H   0  0  0  0  0  0
  -32.3974  -21.5847   21.6640 H   0  0  0  0  0  0
  -33.9338  -20.8815   21.3186 H   0  0  0  0  0  0
  -29.6862  -20.3819   19.0102 H   0  0  0  0  0  0
  -33.5240  -20.9126   18.9116 H   0  0  0  0  0  0
  -28.6735  -21.5874   21.0601 H   0  0  0  0  0  0
  -27.1587  -25.1750   21.2953 H   0  0  0  0  0  0
  -32.3494  -19.1401   21.9046 H   0  0  0  0  0  0
  -36.1549  -17.2041   19.3545 H   0  0  0  0  0  0
  -35.0020  -17.7430   18.1387 H   0  0  0  0  0  0
  -34.5997  -16.3965   19.2009 H   0  0  0  0  0  0
  -29.9115  -18.4221   23.1172 H   0  0  0  0  0  0
  -29.8606  -16.7156   23.5082 H   0  0  0  0  0  0
  -28.5416  -17.4475   22.6060 H   0  0  0  0  0  0
  -32.6613  -23.9083   21.0784 H   0  0  0  0  0  0
  -33.9361  -24.7911   20.2763 H   0  0  0  0  0  0
  -34.3264  -23.3866   21.2595 H   0  0  0  0  0  0
  -34.7055  -22.3239   17.6811 H   0  0  0  0  0  0
  -35.5774  -22.5088   19.2038 H   0  0  0  0  0  0
  -35.0589  -23.9253   18.2932 H   0  0  0  0  0  0
  -32.8516  -18.9013   18.8790 H   0  0  0  0  0  0
  -32.5387  -17.5918   19.9260 H   0  0  0  0  0  0
  -35.0481  -19.2813   20.1333 H   0  0  0  0  0  0
  -34.6231  -17.9482   21.1800 H   0  0  0  0  0  0
  -29.0136  -18.4910   20.3049 H   0  0  0  0  0  0
  -30.3730  -17.9961   19.3651 H   0  0  0  0  0  0
  -31.4002  -17.0445   21.6459 H   0  0  0  0  0  0
  -28.9584  -15.4839   21.2280 H   0  0  0  0  0  0
  -30.3775  -19.9394   21.5582 H   0  0  0  0  0  0
  -32.8354  -23.3866   18.7141 H   0  0  0  0  0  0
  1 25  1  0  0  0
  1 30  2  0  0  0
  1 90  1  0  0  0
  2  3  1  0  0  0
  2 25  1  0  0  0
  2 94  1  0  0  0
  2 95  1  0  0  0
  3  4  1  0  0  0
  3 96  1  0  0  0
  3 97  1  0  0  0
  4  5  1  0  0  0
  4 98  1  0  0  0
  4 99  1  0  0  0
  5  6  1  0  0  0
  5 26  1  0  0  0
  5100  1  0  0  0
  6 25  1  0  0  0
  6101  1  0  0  0
  6102  1  0  0  0
  7  8  2  0  0  0
  7 26  1  0  0  0
  7 29  1  0  0  0
  8  9  1  0  0  0
  8 22  1  0  0  0
  9 10  1  0  0  0
  9 27  2  0  0  0
 10 11  2  0  0  0
 10 15  1  0  0  0
 11 12  1  0  0  0
 11103  1  0  0  0
 12 13  2  0  0  0
 12104  1  0  0  0
 13 14  1  0  0  0
 13 31  1  0  0  0
 14 15  2  0  0  0
 14105  1  0  0  0
 15106  1  0  0  0
 16 17  2  0  0  0
 16 21  1  0  0  0
 16 31  1  0  0  0
 17 18  1  0  0  0
 17107  1  0  0  0
 18 19  2  0  0  0
 18108  1  0  0  0
 19 20  1  0  0  0
 19 24  1  0  0  0
 20 21  2  0  0  0
 20109  1  0  0  0
 21 23  1  0  0  0
 22 28  1  0  0  0
 22 32  2  0  0  0
 26 27  1  0  0  0
 28110  1  0  0  0
 28111  1  0  0  0
 29112  1  0  0  0
 29113  1  0  0  0
 33 34  1  0  0  0
 33 66  1  0  0  0
 33 70  2  0  0  0
 34 36  1  0  0  0
 34 59  1  0  0  0
 34114  1  0  0  0
 35 44  2  0  0  0
 35 45  1  0  0  0
 35 68  1  0  0  0
 36 56  1  0  0  0
 36115  1  0  0  0
 37 39  1  0  0  0
 37 47  1  0  0  0
 37 66  1  0  0  0
 37116  1  0  0  0
 38 43  2  0  0  0
 38 46  1  0  0  0
 38 47  1  0  0  0
 39 64  1  0  0  0
 39 67  2  0  0  0
 40 52  1  0  0  0
 40 53  2  0  0  0
 40 58  1  0  0  0
 41117  1  0  0  0
 41118  1  0  0  0
 41119  1  0  0  0
 41 48  1  0  0  0
 42 43  1  0  0  0
 42 66  1  0  0  0
 42120  1  0  0  0
 42121  1  0  0  0
 43 44  1  0  0  0
 44122  1  0  0  0
 45 46  2  0  0  0
 45123  1  0  0  0
 46124  1  0  0  0
 47125  1  0  0  0
 47126  1  0  0  0
 48 56  1  0  0  0
 48 65  1  0  0  0
 48127  1  0  0  0
 49 50  1  0  0  0
 49 53  1  0  0  0
 49 64  1  0  0  0
 49128  1  0  0  0
 50 51  1  0  0  0
 50129  1  0  0  0
 50130  1  0  0  0
 51 52  1  0  0  0
 51131  1  0  0  0
 51132  1  0  0  0
 52133  1  0  0  0
 52134  1  0  0  0
 53 54  1  0  0  0
 54 55  2  0  0  0
 54135  1  0  0  0
 55 57  1  0  0  0
 55136  1  0  0  0
 56 69  2  0  0  0
 57 58  2  0  0  0
 57137  1  0  0  0
 58138  1  0  0  0
 59 60  1  0  0  0
 59 61  1  0  0  0
 59 62  1  0  0  0
 60139  1  0  0  0
 60140  1  0  0  0
 60141  1  0  0  0
 61142  1  0  0  0
 61143  1  0  0  0
 61144  1  0  0  0
 62145  1  0  0  0
 62146  1  0  0  0
 62147  1  0  0  0
 63 65  1  0  0  0
 63148  1  0  0  0
 63149  1  0  0  0
 63150  1  0  0  0
 64151  1  0  0  0
 65152  1  0  0  0
 68 80  1  0  0  0
 71 78  1  0  0  0
 71 93  2  0  0  0
 71 77  1  0  0  0
 72 74  1  0  0  0
 72153  1  0  0  0
 72154  1  0  0  0
 72 79  1  0  0  0
 73 75  1  0  0  0
 73 79  1  0  0  0
 73155  1  0  0  0
 73156  1  0  0  0
 74 80  1  0  0  0
 74157  1  0  0  0
 74158  1  0  0  0
 75 80  1  0  0  0
 75159  1  0  0  0
 75160  1  0  0  0
 76 81  1  0  0  0
 76161  1  0  0  0
 76162  1  0  0  0
 76 78  1  0  0  0
 77 79  1  0  0  0
 77 91  1  0  0  0
 77163  1  0  0  0
 78 92  1  0  0  0
 78164  1  0  0  0
 79165  1  0  0  0
 80166  1  0  0  0
 81 86  1  0  0  0
 81 91  1  0  0  0
 81167  1  0  0  0
 82 87  1  0  0  0
 82168  1  0  0  0
 82169  1  0  0  0
 82170  1  0  0  0
 83171  1  0  0  0
 83172  1  0  0  0
 83173  1  0  0  0
 83 89  1  0  0  0
 84174  1  0  0  0
 84175  1  0  0  0
 84176  1  0  0  0
 84 92  1  0  0  0
 85 92  1  0  0  0
 85177  1  0  0  0
 85178  1  0  0  0
 85179  1  0  0  0
 86 87  1  0  0  0
 86180  1  0  0  0
 86181  1  0  0  0
 87182  1  0  0  0
 87183  1  0  0  0
 88 89  1  0  0  0
 88184  1  0  0  0
 88185  1  0  0  0
 88 91  1  0  0  0
 89 90  1  0  0  0
 89186  1  0  0  0
 90187  1  0  0  0
 91188  1  0  0  0
 92189  1  0  0  0
M  CHG  2  91   1  92   1
M  ISO  4   1 100  68 101  80 101  90 100
M  END
> <chiral flag>
0

> <version>
0

> <s_m_source_file>
/data/baiqing/PycharmProjects/Reinvent-master-3.2/result/LINK_invent/BTK/process_docking_weight1_custom_sum_contain_oxygen_bond_distance_aromatic_linkinvent_7_9_3/rearranged_h_0143.sdf

> <i_m_source_file_index>
36

> <r_mmod_Potential_Energy-OPLS-2005>
-47.4941368103027

> <r_mmod_Stretch_Energy-OPLS-2005>
116.799034118652

> <r_mmod_Bend_Energy-OPLS-2005>
216.591201782227

> <r_mmod_Torsional_Energy-OPLS-2005>
316.363891601562

> <r_mmod_Improper_Torsional_Energy-OPLS-2005>
3.3621346950531

> <r_mmod_Van_der_Waal_Energy-OPLS-2005>
140.789413452148

> <r_mmod_Electrostatic_Energy-OPLS-2005>
38.2239570617676

> <r_mmod_Solvation_Energy-OPLS-2005>
-937.965576171875

> <b_mmod_Minimization_Converged-OPLS-2005>
0

> <r_mmod_RMS_Derivative-OPLS-2005>
4.31022548675537

$$$$
36
                    3D
 Structure written by MMmdl.
148156  0  0  1  0            999 V2000
  -30.3305  -15.5548   20.3309 C   0  0  0  0  0  0
  -30.4303  -13.0208   19.5349 C   0  0  0  0  0  0
  -29.5451  -12.6455   18.3149 C   0  0  0  0  0  0
  -28.1150  -12.3046   18.7594 C   0  0  0  0  0  0
  -27.6009  -13.3028   19.8229 C   0  0  2  0  0  0
  -28.6253  -13.5962   20.9430 C   0  0  0  0  0  0
  -25.2335  -13.8298   20.5808 C   0  0  0  0  0  0
  -24.1685  -13.0464   20.9317 C   0  0  0  0  0  0
  -24.6376  -11.6968   20.8778 C   0  0  0  0  0  0
  -23.9071  -10.4302   21.0388 C   0  0  0  0  0  0
  -24.3602   -9.4208   21.9168 C   0  0  0  0  0  0
  -23.6294   -8.2228   22.0719 C   0  0  0  0  0  0
  -22.4269   -8.0268   21.3517 C   0  0  0  0  0  0
  -21.9915   -9.0247   20.4611 C   0  0  0  0  0  0
  -22.7237  -10.2138   20.3040 C   0  0  0  0  0  0
  -21.6863   -6.0718   22.5269 C   0  0  0  0  0  0
  -21.4028   -6.5621   23.8201 C   0  0  0  0  0  0
  -21.3669   -5.6775   24.9169 C   0  0  0  0  0  0
  -21.6051   -4.3038   24.7216 C   0  0  0  0  0  0
  -21.8823   -3.8130   23.4339 C   0  0  0  0  0  0
  -21.9199   -4.6951   22.3397 C   0  0  0  0  0  0
  -22.7691  -13.5198   21.1954 C   0  0  0  0  0  0
  -22.1654   -4.2113   21.0976 F   0  0  0  0  0  0
  -21.5648   -3.4533   25.7743 F   0  0  0  0  0  0
  -29.8078  -14.1975   20.2869 N   0  0  0  0  0  0
  -26.2775  -12.9609   20.3285 N   0  0  0  0  0  0
  -25.9323  -11.6680   20.5717 N   0  0  0  0  0  0
  -22.0327  -12.8161   22.0495 N   0  0  0  0  0  0
  -25.3962  -15.2026   20.4195 N   0  0  0  0  0  0
  -31.5622  -15.5070   20.1609 O   0  0  0  0  0  0
  -21.6654   -6.8860   21.4214 O   0  0  0  0  0  0
  -22.3372  -14.5479   20.6804 O   0  0  0  0  0  0
  -24.6820  -31.8031   23.1541 C   0  0  0  0  0  0
  -25.9420  -32.4483   23.8095 C   0  0  1  0  0  0
  -27.2134  -26.7316   20.2119 C   0  0  0  0  0  0
  -25.6008  -33.8300   24.1979 N   0  0  0  0  0  0
  -23.5050  -30.4076   21.5051 C   0  0  2  0  0  0
  -24.9604  -28.7535   20.1141 C   0  0  0  0  0  0
  -22.7763  -29.4346   22.4699 C   0  0  0  0  0  0
  -18.0347  -28.1421   22.8461 C   0  0  0  0  0  0
  -24.1500  -36.7168   23.2650 C   0  0  0  0  0  0
  -26.0854  -30.5441   21.4143 C   0  0  0  0  0  0
  -26.1474  -29.1126   20.7631 C   0  0  0  0  0  0
  -27.2577  -28.1255   20.7848 C   0  0  0  0  0  0
  -25.9993  -26.5755   19.4957 C   0  0  0  0  0  0
  -24.9230  -27.5110   19.4577 C   0  0  0  0  0  0
  -23.7579  -29.7075   20.1380 C   0  0  0  0  0  0
  -25.4140  -36.2910   24.0291 C   0  0  1  0  0  0
  -20.5989  -28.3775   23.1140 C   0  0  2  0  0  0
  -20.6816  -26.9436   22.5399 C   0  0  0  0  0  0
  -19.5781  -26.6371   21.5213 C   0  0  0  0  0  0
  -18.1962  -26.7955   22.1625 C   0  0  0  0  0  0
  -19.1617  -28.8918   23.2789 C   0  0  0  0  0  0
  -18.9521  -30.1505   23.8824 C   0  0  0  0  0  0
  -17.6508  -30.6595   24.0551 C   0  0  0  0  0  0
  -25.9125  -34.9290   23.4971 C   0  0  0  0  0  0
  -16.5397  -29.9079   23.6346 C   0  0  0  0  0  0
  -16.7325  -28.6511   23.0349 C   0  0  0  0  0  0
  -26.4598  -31.6510   25.0708 C   0  0  0  0  0  0
  -25.3675  -31.3807   26.1339 C   0  0  0  0  0  0
  -27.0509  -30.2840   24.6589 C   0  0  0  0  0  0
  -27.6046  -32.4372   25.7511 C   0  0  0  0  0  0
  -27.5567  -37.1741   24.8462 C   0  0  0  0  0  0
  -21.4419  -29.3034   22.3460 N   0  0  0  0  0  0
  -26.4268  -37.3661   23.9420 N   0  0  0  0  0  0
  -24.7805  -30.9512   22.0767 N   0  0  0  0  0  0
  -23.4244  -28.7921   23.2992 O   0  0  0  0  0  0
  -28.1764  -25.5326   20.3266 O   0  0  0  0  0  0
  -26.5730  -34.8858   22.4564 O   0  0  0  0  0  0
  -23.5847  -32.1087   23.6508 O   0  0  0  0  0  0
  -27.6525  -22.8873   21.0706 C   0  0  1  0  0  0
  -28.0860  -23.8250   19.9713 C   0  0  2  0  0  0
  -28.8362  -22.1335   20.4085 C   0  0  2  0  0  0
  -27.6996  -23.3353   22.5245 C   0  0  0  0  0  0
  -28.6733  -20.2429   20.2944 C   0  0  0  0  0  0
  -29.7585  -18.6567   20.3138 C   0  0  0  0  0  0
  -29.5644  -16.8993   20.3783 N   0  0  0  0  0  0
  -30.0390  -22.3955   21.1026 O   0  0  0  0  0  0
  -31.4277  -13.2717   19.1714 H   0  0  0  0  0  0
  -30.5752  -12.1633   20.1958 H   0  0  0  0  0  0
  -29.9839  -11.8107   17.7671 H   0  0  0  0  0  0
  -29.5137  -13.4874   17.6219 H   0  0  0  0  0  0
  -28.1267  -11.2960   19.1748 H   0  0  0  0  0  0
  -27.4413  -12.2709   17.9017 H   0  0  0  0  0  0
  -27.4757  -14.2391   19.2750 H   0  0  0  0  0  0
  -28.8693  -12.7027   21.5202 H   0  0  0  0  0  0
  -28.2111  -14.3149   21.6536 H   0  0  0  0  0  0
  -25.2728   -9.5722   22.4756 H   0  0  0  0  0  0
  -24.0035   -7.4624   22.7425 H   0  0  0  0  0  0
  -21.0860   -8.8767   19.8899 H   0  0  0  0  0  0
  -22.3677  -10.9688   19.6167 H   0  0  0  0  0  0
  -21.2007   -7.6121   23.9701 H   0  0  0  0  0  0
  -21.1501   -6.0496   25.9075 H   0  0  0  0  0  0
  -22.0591   -2.7582   23.2853 H   0  0  0  0  0  0
  -22.3992  -11.9877   22.4959 H   0  0  0  0  0  0
  -21.0902  -13.1101   22.2612 H   0  0  0  0  0  0
  -24.6307  -15.8591   20.5322 H   0  0  0  0  0  0
  -26.2411  -15.6329   20.0687 H   0  0  0  0  0  0
  -26.7503  -32.4941   23.0817 H   0  0  0  0  0  0
  -25.0148  -33.9358   25.0128 H   0  0  0  0  0  0
  -22.8313  -31.2458   21.3158 H   0  0  0  0  0  0
  -23.3781  -35.9483   23.3260 H   0  0  0  0  0  0
  -24.3579  -36.8870   22.2079 H   0  0  0  0  0  0
  -23.7245  -37.6323   23.6749 H   0  0  0  0  0  0
  -26.2896  -31.2711   20.6287 H   0  0  0  0  0  0
  -26.9402  -30.6085   22.0765 H   0  0  0  0  0  0
  -28.1467  -28.3975   21.3356 H   0  0  0  0  0  0
  -25.8361  -25.6320   18.9937 H   0  0  0  0  0  0
  -24.0239  -27.2301   18.9275 H   0  0  0  0  0  0
  -23.9406  -30.4702   19.3804 H   0  0  0  0  0  0
  -22.8645  -29.1784   19.8011 H   0  0  0  0  0  0
  -25.1351  -36.1685   25.0779 H   0  0  0  0  0  0
  -21.0084  -28.3402   24.1260 H   0  0  0  0  0  0
  -20.5665  -26.2399   23.3655 H   0  0  0  0  0  0
  -21.6669  -26.7362   22.1210 H   0  0  0  0  0  0
  -19.6930  -25.6259   21.1275 H   0  0  0  0  0  0
  -19.6722  -27.3154   20.6715 H   0  0  0  0  0  0
  -17.4238  -26.6699   21.4025 H   0  0  0  0  0  0
  -18.0363  -26.0099   22.9023 H   0  0  0  0  0  0
  -19.7978  -30.7343   24.2167 H   0  0  0  0  0  0
  -17.5036  -31.6252   24.5185 H   0  0  0  0  0  0
  -15.5387  -30.2948   23.7683 H   0  0  0  0  0  0
  -15.8740  -28.0787   22.7101 H   0  0  0  0  0  0
  -24.5904  -30.7113   25.7657 H   0  0  0  0  0  0
  -24.8824  -32.3008   26.4583 H   0  0  0  0  0  0
  -25.7890  -30.9104   27.0234 H   0  0  0  0  0  0
  -26.3211  -29.6466   24.1596 H   0  0  0  0  0  0
  -27.3950  -29.7293   25.5330 H   0  0  0  0  0  0
  -27.9196  -30.3966   24.0107 H   0  0  0  0  0  0
  -27.2593  -33.3745   26.1882 H   0  0  0  0  0  0
  -28.3949  -32.6813   25.0406 H   0  0  0  0  0  0
  -28.0618  -31.8643   26.5588 H   0  0  0  0  0  0
  -28.2539  -38.0075   24.7511 H   0  0  0  0  0  0
  -28.1105  -36.2593   24.6288 H   0  0  0  0  0  0
  -27.2284  -37.1384   25.8861 H   0  0  0  0  0  0
  -20.9728  -29.8723   21.6557 H   0  0  0  0  0  0
  -26.0105  -38.2715   24.1410 H   0  0  0  0  0  0
  -26.6889  -22.4197   20.8660 H   0  0  0  0  0  0
  -27.5415  -23.7769   19.0303 H   0  0  0  0  0  0
  -28.5867  -23.9357   22.7311 H   0  0  0  0  0  0
  -27.6813  -22.4768   23.1973 H   0  0  0  0  0  0
  -26.8282  -23.9541   22.7429 H   0  0  0  0  0  0
  -28.0665  -20.1146   19.3967 H   0  0  0  0  0  0
  -27.9701  -20.0352   21.1002 H   0  0  0  0  0  0
  -30.3580  -18.7694   19.4068 H   0  0  0  0  0  0
  -30.4758  -18.8438   21.1124 H   0  0  0  0  0  0
  -28.5838  -16.6770   20.4761 H   0  0  0  0  0  0
  -29.7979  -22.8902   21.8791 H   0  0  0  0  0  0
  1 25  1  0  0  0
  1 30  2  0  0  0
  1 77  1  0  0  0
  2  3  1  0  0  0
  2 25  1  0  0  0
  2 79  1  0  0  0
  2 80  1  0  0  0
  3  4  1  0  0  0
  3 81  1  0  0  0
  3 82  1  0  0  0
  4  5  1  0  0  0
  4 83  1  0  0  0
  4 84  1  0  0  0
  5  6  1  0  0  0
  5 26  1  0  0  0
  5 85  1  0  0  0
  6 25  1  0  0  0
  6 86  1  0  0  0
  6 87  1  0  0  0
  7  8  2  0  0  0
  7 26  1  0  0  0
  7 29  1  0  0  0
  8  9  1  0  0  0
  8 22  1  0  0  0
  9 10  1  0  0  0
  9 27  2  0  0  0
 10 11  2  0  0  0
 10 15  1  0  0  0
 11 12  1  0  0  0
 11 88  1  0  0  0
 12 13  2  0  0  0
 12 89  1  0  0  0
 13 14  1  0  0  0
 13 31  1  0  0  0
 14 15  2  0  0  0
 14 90  1  0  0  0
 15 91  1  0  0  0
 16 17  2  0  0  0
 16 21  1  0  0  0
 16 31  1  0  0  0
 17 18  1  0  0  0
 17 92  1  0  0  0
 18 19  2  0  0  0
 18 93  1  0  0  0
 19 20  1  0  0  0
 19 24  1  0  0  0
 20 21  2  0  0  0
 20 94  1  0  0  0
 21 23  1  0  0  0
 22 28  1  0  0  0
 22 32  2  0  0  0
 26 27  1  0  0  0
 28 95  1  0  0  0
 28 96  1  0  0  0
 29 97  1  0  0  0
 29 98  1  0  0  0
 33 34  1  0  0  0
 33 66  1  0  0  0
 33 70  2  0  0  0
 34 36  1  0  0  0
 34 59  1  0  0  0
 34 99  1  0  0  0
 35 44  2  0  0  0
 35 45  1  0  0  0
 35 68  1  0  0  0
 36 56  1  0  0  0
 36100  1  0  0  0
 37 39  1  0  0  0
 37 47  1  0  0  0
 37 66  1  0  0  0
 37101  1  0  0  0
 38 43  2  0  0  0
 38 46  1  0  0  0
 38 47  1  0  0  0
 39 64  1  0  0  0
 39 67  2  0  0  0
 40 52  1  0  0  0
 40 53  2  0  0  0
 40 58  1  0  0  0
 41102  1  0  0  0
 41103  1  0  0  0
 41104  1  0  0  0
 41 48  1  0  0  0
 42 43  1  0  0  0
 42 66  1  0  0  0
 42105  1  0  0  0
 42106  1  0  0  0
 43 44  1  0  0  0
 44107  1  0  0  0
 45 46  2  0  0  0
 45108  1  0  0  0
 46109  1  0  0  0
 47110  1  0  0  0
 47111  1  0  0  0
 48 56  1  0  0  0
 48 65  1  0  0  0
 48112  1  0  0  0
 49 50  1  0  0  0
 49 53  1  0  0  0
 49 64  1  0  0  0
 49113  1  0  0  0
 50 51  1  0  0  0
 50114  1  0  0  0
 50115  1  0  0  0
 51 52  1  0  0  0
 51116  1  0  0  0
 51117  1  0  0  0
 52118  1  0  0  0
 52119  1  0  0  0
 53 54  1  0  0  0
 54 55  2  0  0  0
 54120  1  0  0  0
 55 57  1  0  0  0
 55121  1  0  0  0
 56 69  2  0  0  0
 57 58  2  0  0  0
 57122  1  0  0  0
 58123  1  0  0  0
 59 60  1  0  0  0
 59 61  1  0  0  0
 59 62  1  0  0  0
 60124  1  0  0  0
 60125  1  0  0  0
 60126  1  0  0  0
 61127  1  0  0  0
 61128  1  0  0  0
 61129  1  0  0  0
 62130  1  0  0  0
 62131  1  0  0  0
 62132  1  0  0  0
 63 65  1  0  0  0
 63133  1  0  0  0
 63134  1  0  0  0
 63135  1  0  0  0
 64136  1  0  0  0
 65137  1  0  0  0
 68 72  1  0  0  0
 71 72  1  0  0  0
 71 73  1  0  0  0
 71 74  1  0  0  0
 71138  1  0  0  0
 72 73  1  0  0  0
 72139  1  0  0  0
 73 75  1  0  0  0
 73 78  1  0  0  0
 74140  1  0  0  0
 74141  1  0  0  0
 74142  1  0  0  0
 75 76  1  0  0  0
 75143  1  0  0  0
 75144  1  0  0  0
 76 77  1  0  0  0
 76145  1  0  0  0
 76146  1  0  0  0
 77147  1  0  0  0
 78148  1  0  0  0
M  ISO  4   1 100  68 101  72 101  77 100
M  END
> <chiral flag>
0

> <version>
0

> <s_m_source_file>
/data/baiqing/PycharmProjects/Reinvent-master-3.2/result/LINK_invent/BTK/process_docking_weight1_custom_sum_contain_oxygen_bond_distance_aromatic_linkinvent_7_9_3/rearranged_h_0143.sdf

> <i_m_source_file_index>
37

> <r_mmod_Potential_Energy-OPLS-2005>
2312.46606445312

> <r_mmod_Stretch_Energy-OPLS-2005>
1088.86572265625

> <r_mmod_Bend_Energy-OPLS-2005>
608.547424316406

> <r_mmod_Torsional_Energy-OPLS-2005>
298.528076171875

> <r_mmod_Improper_Torsional_Energy-OPLS-2005>
3.71287727355957

> <r_mmod_Van_der_Waal_Energy-OPLS-2005>
106.7431640625

> <r_mmod_Electrostatic_Energy-OPLS-2005>
-368.791320800781

> <r_mmod_Solvation_Energy-OPLS-2005>
-235.736450195312

> <b_mmod_Minimization_Converged-OPLS-2005>
0

> <r_mmod_RMS_Derivative-OPLS-2005>
3.88180541992188

$$$$
37
                    3D
 Structure written by MMmdl.
167176  0  0  1  0            999 V2000
  -30.6991  -14.5129   20.5484 C   0  0  0  0  0  0
  -30.4259  -12.3333   19.4239 C   0  0  0  0  0  0
  -29.5022  -12.4950   18.2008 C   0  0  0  0  0  0
  -28.0225  -12.3507   18.6133 C   0  0  0  0  0  0
  -27.6541  -13.2091   19.8539 C   0  0  2  0  0  0
  -28.6961  -13.0497   20.9800 C   0  0  0  0  0  0
  -25.2649  -13.8100   20.5844 C   0  0  0  0  0  0
  -24.1876  -13.0392   20.9208 C   0  0  0  0  0  0
  -24.6419  -11.6850   20.8696 C   0  0  0  0  0  0
  -23.9078  -10.4236   21.0369 C   0  0  0  0  0  0
  -24.3609   -9.4145   21.9160 C   0  0  0  0  0  0
  -23.6274   -8.2197   22.0722 C   0  0  0  0  0  0
  -22.4243   -8.0252   21.3522 C   0  0  0  0  0  0
  -21.9892   -9.0227   20.4611 C   0  0  0  0  0  0
  -22.7251  -10.2093   20.3019 C   0  0  0  0  0  0
  -21.6828   -6.0742   22.5286 C   0  0  0  0  0  0
  -21.4004   -6.5653   23.8225 C   0  0  0  0  0  0
  -21.3653   -5.6801   24.9187 C   0  0  0  0  0  0
  -21.6036   -4.3073   24.7237 C   0  0  0  0  0  0
  -21.8809   -3.8155   23.4366 C   0  0  0  0  0  0
  -21.9169   -4.6962   22.3412 C   0  0  0  0  0  0
  -22.7893  -13.5191   21.1909 C   0  0  0  0  0  0
  -22.1632   -4.2161   21.0988 F   0  0  0  0  0  0
  -21.5612   -3.4545   25.7753 F   0  0  0  0  0  0
  -30.0212  -13.3430   20.4129 N   0  0  0  0  0  0
  -26.3005  -12.9292   20.3268 N   0  0  0  0  0  0
  -25.9329  -11.6429   20.5642 N   0  0  0  0  0  0
  -22.0549  -12.8125   22.0416 N   0  0  0  0  0  0
  -25.4524  -15.1817   20.4608 N   0  0  0  0  0  0
  -31.8599  -14.6682   20.1648 O   0  0  0  0  0  0
  -21.6597   -6.8870   21.4246 O   0  0  0  0  0  0
  -22.3584  -14.5531   20.6809 O   0  0  0  0  0  0
  -24.6168  -31.8625   23.2155 C   0  0  0  0  0  0
  -25.9081  -32.4782   23.8428 C   0  0  1  0  0  0
  -27.2199  -27.4080   20.0819 C   0  0  0  0  0  0
  -25.5933  -33.8601   24.2344 N   0  0  0  0  0  0
  -23.4010  -30.4870   21.5571 C   0  0  2  0  0  0
  -24.8408  -28.9481   20.1164 C   0  0  0  0  0  0
  -22.7402  -29.4628   22.5068 C   0  0  0  0  0  0
  -18.0236  -28.1345   22.8505 C   0  0  0  0  0  0
  -24.1471  -36.7301   23.2637 C   0  0  0  0  0  0
  -25.9353  -30.8116   21.3761 C   0  0  0  0  0  0
  -26.0055  -29.4501   20.7107 C   0  0  0  0  0  0
  -27.1983  -28.6878   20.6872 C   0  0  0  0  0  0
  -26.0376  -26.9265   19.4787 C   0  0  0  0  0  0
  -24.8516  -27.6838   19.5009 C   0  0  0  0  0  0
  -23.6029  -29.8150   20.1726 C   0  0  0  0  0  0
  -25.4088  -36.3085   24.0342 C   0  0  1  0  0  0
  -20.5830  -28.3620   23.1335 C   0  0  2  0  0  0
  -20.6714  -26.9353   22.5406 C   0  0  0  0  0  0
  -19.5686  -26.6337   21.5209 C   0  0  0  0  0  0
  -18.1862  -26.7905   22.1603 C   0  0  0  0  0  0
  -19.1492  -28.8809   23.2892 C   0  0  0  0  0  0
  -18.9435  -30.1437   23.8862 C   0  0  0  0  0  0
  -17.6438  -30.6579   24.0526 C   0  0  0  0  0  0
  -25.9029  -34.9461   23.5130 C   0  0  0  0  0  0
  -16.5316  -29.9045   23.6367 C   0  0  0  0  0  0
  -16.7225  -28.6456   23.0393 C   0  0  0  0  0  0
  -26.4496  -31.6593   25.0793 C   0  0  0  0  0  0
  -25.3817  -31.3702   26.1598 C   0  0  0  0  0  0
  -27.0334  -30.3018   24.6243 C   0  0  0  0  0  0
  -27.6047  -32.4333   25.7555 C   0  0  0  0  0  0
  -27.5582  -37.1778   24.8435 C   0  0  0  0  0  0
  -21.4129  -29.3023   22.3810 N   0  0  0  0  0  0
  -26.4240  -37.3799   23.9447 N   0  0  0  0  0  0
  -24.6691  -31.0699   22.1062 N   0  0  0  0  0  0
  -23.4176  -28.8161   23.3102 O   0  0  0  0  0  0
  -28.3789  -26.6540   20.0816 O   0  0  0  0  0  0
  -26.5567  -34.8903   22.4678 O   0  0  0  0  0  0
  -23.5361  -32.1429   23.7533 O   0  0  0  0  0  0
  -26.6151  -21.1303   19.6101 C   0  0  0  0  0  0
  -29.1488  -20.4253   20.3615 C   0  0  0  0  0  0
  -26.8190  -19.8237   20.1075 C   0  0  0  0  0  0
  -28.1312  -19.4437   20.4879 C   0  0  0  0  0  0
  -27.6907  -22.0287   19.5324 C   0  0  0  0  0  0
  -24.4487  -18.5928   17.9650 C   0  0  0  0  0  0
  -23.5533  -17.9541   18.9980 C   0  0  0  0  0  0
  -24.4573  -19.1037   19.3882 C   0  0  0  0  0  0
  -25.1935  -18.8739   21.7817 C   0  0  0  0  0  0
  -30.4842  -16.9268   21.1923 C   0  0  0  0  0  0
  -29.4266  -17.8637   21.8320 C   0  0  0  0  0  0
  -28.2408  -25.2331   20.3193 C   0  0  0  0  0  0
  -28.4346  -24.3324   19.0728 C   0  0  0  0  0  0
  -25.6464  -18.8586   20.3139 C   0  0  2  0  0  0
  -28.9414  -21.6870   19.9100 N   0  0  0  0  0  0
  -29.9743  -15.5645   20.9737 N   0  0  0  0  0  0
  -28.3426  -18.1479   20.9386 O   0  0  0  0  0  0
  -27.4435  -23.2947   19.0306 O   0  0  0  0  0  0
  -31.4704  -12.4407   19.1259 H   0  0  0  0  0  0
  -30.3389  -11.3351   19.8531 H   0  0  0  0  0  0
  -29.7525  -11.7516   17.4414 H   0  0  0  0  0  0
  -29.6626  -13.4713   17.7408 H   0  0  0  0  0  0
  -27.8404  -11.2965   18.8265 H   0  0  0  0  0  0
  -27.3749  -12.6082   17.7742 H   0  0  0  0  0  0
  -27.6752  -14.2476   19.5197 H   0  0  0  0  0  0
  -28.6864  -12.0364   21.3820 H   0  0  0  0  0  0
  -28.4551  -13.7034   21.8195 H   0  0  0  0  0  0
  -25.2756   -9.5620   22.4742 H   0  0  0  0  0  0
  -23.9995   -7.4572   22.7412 H   0  0  0  0  0  0
  -21.0841   -8.8738   19.8908 H   0  0  0  0  0  0
  -22.3717  -10.9629   19.6112 H   0  0  0  0  0  0
  -21.2013   -7.6157   23.9745 H   0  0  0  0  0  0
  -21.1474   -6.0525   25.9092 H   0  0  0  0  0  0
  -22.0601   -2.7616   23.2857 H   0  0  0  0  0  0
  -22.4147  -11.9699   22.4674 H   0  0  0  0  0  0
  -21.1159  -13.1125   22.2690 H   0  0  0  0  0  0
  -24.7191  -15.8469   20.6708 H   0  0  0  0  0  0
  -26.3367  -15.6177   20.2356 H   0  0  0  0  0  0
  -26.7139  -32.5421   23.1160 H   0  0  0  0  0  0
  -25.0216  -33.9756   25.0576 H   0  0  0  0  0  0
  -22.6911  -31.3055   21.4198 H   0  0  0  0  0  0
  -23.3751  -35.9602   23.3215 H   0  0  0  0  0  0
  -24.3605  -36.9013   22.2069 H   0  0  0  0  0  0
  -23.7175  -37.6459   23.6718 H   0  0  0  0  0  0
  -26.0714  -31.5822   20.6177 H   0  0  0  0  0  0
  -26.8136  -30.8446   22.0091 H   0  0  0  0  0  0
  -28.0986  -29.0678   21.1492 H   0  0  0  0  0  0
  -26.0211  -25.9672   18.9836 H   0  0  0  0  0  0
  -23.9558  -27.2932   19.0381 H   0  0  0  0  0  0
  -23.6995  -30.5837   19.4059 H   0  0  0  0  0  0
  -22.7272  -29.2279   19.8893 H   0  0  0  0  0  0
  -25.1255  -36.1913   25.0827 H   0  0  0  0  0  0
  -20.9882  -28.3108   24.1474 H   0  0  0  0  0  0
  -20.5572  -26.2224   23.3587 H   0  0  0  0  0  0
  -21.6578  -26.7361   22.1210 H   0  0  0  0  0  0
  -19.6805  -25.6233   21.1271 H   0  0  0  0  0  0
  -19.6637  -27.3119   20.6722 H   0  0  0  0  0  0
  -17.4150  -26.6732   21.3968 H   0  0  0  0  0  0
  -18.0184  -26.0005   22.8943 H   0  0  0  0  0  0
  -19.7918  -30.7277   24.2166 H   0  0  0  0  0  0
  -17.4994  -31.6284   24.5066 H   0  0  0  0  0  0
  -15.5319  -30.2924   23.7732 H   0  0  0  0  0  0
  -15.8620  -28.0750   22.7174 H   0  0  0  0  0  0
  -24.5930  -30.7084   25.8007 H   0  0  0  0  0  0
  -24.9109  -32.2859   26.5178 H   0  0  0  0  0  0
  -25.8251  -30.8809   27.0285 H   0  0  0  0  0  0
  -26.2900  -29.6750   24.1312 H   0  0  0  0  0  0
  -27.4061  -29.7286   25.4742 H   0  0  0  0  0  0
  -27.8763  -30.4280   23.9451 H   0  0  0  0  0  0
  -27.2656  -33.3635   26.2113 H   0  0  0  0  0  0
  -28.3902  -32.6878   25.0434 H   0  0  0  0  0  0
  -28.0677  -31.8493   26.5516 H   0  0  0  0  0  0
  -28.2479  -38.0190   24.7651 H   0  0  0  0  0  0
  -28.1202  -36.2751   24.6022 H   0  0  0  0  0  0
  -27.2363  -37.1108   25.8839 H   0  0  0  0  0  0
  -20.9270  -29.8846   21.7135 H   0  0  0  0  0  0
  -26.0116  -38.2836   24.1568 H   0  0  0  0  0  0
  -25.6383  -21.4647   19.2961 H   0  0  0  0  0  0
  -30.1734  -20.2006   20.6158 H   0  0  0  0  0  0
  -23.9745  -19.2064   17.2013 H   0  0  0  0  0  0
  -25.3219  -18.0334   17.6343 H   0  0  0  0  0  0
  -23.8155  -16.9581   19.3437 H   0  0  0  0  0  0
  -22.4845  -18.1508   18.9402 H   0  0  0  0  0  0
  -23.9405  -20.0456   19.5641 H   0  0  0  0  0  0
  -26.0222  -18.6257   22.4446 H   0  0  0  0  0  0
  -24.4001  -18.1477   21.9611 H   0  0  0  0  0  0
  -24.8237  -19.8578   22.0733 H   0  0  0  0  0  0
  -31.3484  -16.8579   21.8583 H   0  0  0  0  0  0
  -30.8561  -17.3515   20.2585 H   0  0  0  0  0  0
  -29.8929  -18.7667   22.2291 H   0  0  0  0  0  0
  -29.0023  -17.3777   22.7110 H   0  0  0  0  0  0
  -28.9702  -24.9420   21.0751 H   0  0  0  0  0  0
  -27.2745  -25.0109   20.7759 H   0  0  0  0  0  0
  -29.4595  -23.9656   18.9920 H   0  0  0  0  0  0
  -28.2796  -24.9286   18.1741 H   0  0  0  0  0  0
  -26.0167  -17.8590   20.0890 H   0  0  0  0  0  0
  -28.9812  -15.4336   21.0829 H   0  0  0  0  0  0
  1 25  1  0  0  0
  1 30  2  0  0  0
  1 86  1  0  0  0
  2  3  1  0  0  0
  2 25  1  0  0  0
  2 89  1  0  0  0
  2 90  1  0  0  0
  3  4  1  0  0  0
  3 91  1  0  0  0
  3 92  1  0  0  0
  4  5  1  0  0  0
  4 93  1  0  0  0
  4 94  1  0  0  0
  5  6  1  0  0  0
  5 26  1  0  0  0
  5 95  1  0  0  0
  6 25  1  0  0  0
  6 96  1  0  0  0
  6 97  1  0  0  0
  7  8  2  0  0  0
  7 26  1  0  0  0
  7 29  1  0  0  0
  8  9  1  0  0  0
  8 22  1  0  0  0
  9 10  1  0  0  0
  9 27  2  0  0  0
 10 11  2  0  0  0
 10 15  1  0  0  0
 11 12  1  0  0  0
 11 98  1  0  0  0
 12 13  2  0  0  0
 12 99  1  0  0  0
 13 14  1  0  0  0
 13 31  1  0  0  0
 14 15  2  0  0  0
 14100  1  0  0  0
 15101  1  0  0  0
 16 17  2  0  0  0
 16 21  1  0  0  0
 16 31  1  0  0  0
 17 18  1  0  0  0
 17102  1  0  0  0
 18 19  2  0  0  0
 18103  1  0  0  0
 19 20  1  0  0  0
 19 24  1  0  0  0
 20 21  2  0  0  0
 20104  1  0  0  0
 21 23  1  0  0  0
 22 28  1  0  0  0
 22 32  2  0  0  0
 26 27  1  0  0  0
 28105  1  0  0  0
 28106  1  0  0  0
 29107  1  0  0  0
 29108  1  0  0  0
 33 34  1  0  0  0
 33 66  1  0  0  0
 33 70  2  0  0  0
 34 36  1  0  0  0
 34 59  1  0  0  0
 34109  1  0  0  0
 35 44  2  0  0  0
 35 45  1  0  0  0
 35 68  1  0  0  0
 36 56  1  0  0  0
 36110  1  0  0  0
 37 39  1  0  0  0
 37 47  1  0  0  0
 37 66  1  0  0  0
 37111  1  0  0  0
 38 43  2  0  0  0
 38 46  1  0  0  0
 38 47  1  0  0  0
 39 64  1  0  0  0
 39 67  2  0  0  0
 40 52  1  0  0  0
 40 53  2  0  0  0
 40 58  1  0  0  0
 41112  1  0  0  0
 41113  1  0  0  0
 41114  1  0  0  0
 41 48  1  0  0  0
 42 43  1  0  0  0
 42 66  1  0  0  0
 42115  1  0  0  0
 42116  1  0  0  0
 43 44  1  0  0  0
 44117  1  0  0  0
 45 46  2  0  0  0
 45118  1  0  0  0
 46119  1  0  0  0
 47120  1  0  0  0
 47121  1  0  0  0
 48 56  1  0  0  0
 48 65  1  0  0  0
 48122  1  0  0  0
 49 50  1  0  0  0
 49 53  1  0  0  0
 49 64  1  0  0  0
 49123  1  0  0  0
 50 51  1  0  0  0
 50124  1  0  0  0
 50125  1  0  0  0
 51 52  1  0  0  0
 51126  1  0  0  0
 51127  1  0  0  0
 52128  1  0  0  0
 52129  1  0  0  0
 53 54  1  0  0  0
 54 55  2  0  0  0
 54130  1  0  0  0
 55 57  1  0  0  0
 55131  1  0  0  0
 56 69  2  0  0  0
 57 58  2  0  0  0
 57132  1  0  0  0
 58133  1  0  0  0
 59 60  1  0  0  0
 59 61  1  0  0  0
 59 62  1  0  0  0
 60134  1  0  0  0
 60135  1  0  0  0
 60136  1  0  0  0
 61137  1  0  0  0
 61138  1  0  0  0
 61139  1  0  0  0
 62140  1  0  0  0
 62141  1  0  0  0
 62142  1  0  0  0
 63 65  1  0  0  0
 63143  1  0  0  0
 63144  1  0  0  0
 63145  1  0  0  0
 64146  1  0  0  0
 65147  1  0  0  0
 68 82  1  0  0  0
 71 73  2  0  0  0
 71 75  1  0  0  0
 71148  1  0  0  0
 72 74  2  0  0  0
 72 85  1  0  0  0
 72149  1  0  0  0
 73 74  1  0  0  0
 73 84  1  0  0  0
 74 87  1  0  0  0
 75 85  2  0  0  0
 75 88  1  0  0  0
 76 77  1  0  0  0
 76150  1  0  0  0
 76151  1  0  0  0
 76 78  1  0  0  0
 77 78  1  0  0  0
 77152  1  0  0  0
 77153  1  0  0  0
 78 84  1  0  0  0
 78154  1  0  0  0
 79155  1  0  0  0
 79156  1  0  0  0
 79157  1  0  0  0
 79 84  1  0  0  0
 80 81  1  0  0  0
 80 86  1  0  0  0
 80158  1  0  0  0
 80159  1  0  0  0
 81 87  1  0  0  0
 81160  1  0  0  0
 81161  1  0  0  0
 82 83  1  0  0  0
 82162  1  0  0  0
 82163  1  0  0  0
 83 88  1  0  0  0
 83164  1  0  0  0
 83165  1  0  0  0
 84166  1  0  0  0
 86167  1  0  0  0
M  ISO  4   1 100  68 101  82 101  86 100
M  END
> <chiral flag>
0

> <version>
0

> <s_m_source_file>
/data/baiqing/PycharmProjects/Reinvent-master-3.2/result/LINK_invent/BTK/process_docking_weight1_custom_sum_contain_oxygen_bond_distance_aromatic_linkinvent_7_9_3/rearranged_h_0143.sdf

> <i_m_source_file_index>
38

> <r_mmod_Potential_Energy-OPLS-2005>
-195.426010131836

> <r_mmod_Stretch_Energy-OPLS-2005>
41.1956100463867

> <r_mmod_Bend_Energy-OPLS-2005>
118.736381530762

> <r_mmod_Torsional_Energy-OPLS-2005>
248.725296020508

> <r_mmod_Improper_Torsional_Energy-OPLS-2005>
3.49806261062622

> <r_mmod_Van_der_Waal_Energy-OPLS-2005>
150.77214050293

> <r_mmod_Electrostatic_Energy-OPLS-2005>
-575.862121582031

> <r_mmod_Solvation_Energy-OPLS-2005>
-203.697631835938

> <b_mmod_Minimization_Converged-OPLS-2005>
0

> <r_mmod_RMS_Derivative-OPLS-2005>
4.43646287918091

$$$$
38
                    3D
 Structure written by MMmdl.
154163  0  0  1  0            999 V2000
  -30.5052  -15.0143   20.4128 C   0  0  0  0  0  0
  -30.4439  -12.6339   19.4995 C   0  0  0  0  0  0
  -29.5242  -12.5374   18.2591 C   0  0  0  0  0  0
  -28.0597  -12.3105   18.6797 C   0  0  0  0  0  0
  -27.6257  -13.2508   19.8340 C   0  0  2  0  0  0
  -28.6676  -13.3023   20.9705 C   0  0  0  0  0  0
  -25.2448  -13.8215   20.5712 C   0  0  0  0  0  0
  -24.1772  -13.0435   20.9237 C   0  0  0  0  0  0
  -24.6393  -11.6922   20.8758 C   0  0  0  0  0  0
  -23.9079  -10.4291   21.0410 C   0  0  0  0  0  0
  -24.3628   -9.4205   21.9187 C   0  0  0  0  0  0
  -23.6299   -8.2241   22.0755 C   0  0  0  0  0  0
  -22.4281   -8.0281   21.3545 C   0  0  0  0  0  0
  -21.9920   -9.0256   20.4647 C   0  0  0  0  0  0
  -22.7252  -10.2133   20.3058 C   0  0  0  0  0  0
  -21.6854   -6.0737   22.5279 C   0  0  0  0  0  0
  -21.4015   -6.5641   23.8213 C   0  0  0  0  0  0
  -21.3660   -5.6793   24.9175 C   0  0  0  0  0  0
  -21.6044   -4.3056   24.7226 C   0  0  0  0  0  0
  -21.8819   -3.8148   23.4347 C   0  0  0  0  0  0
  -21.9193   -4.6964   22.3403 C   0  0  0  0  0  0
  -22.7792  -13.5204   21.1890 C   0  0  0  0  0  0
  -22.1661   -4.2150   21.0980 F   0  0  0  0  0  0
  -21.5629   -3.4539   25.7738 F   0  0  0  0  0  0
  -29.9324  -13.7385   20.3649 N   0  0  0  0  0  0
  -26.2868  -12.9449   20.3228 N   0  0  0  0  0  0
  -25.9324  -11.6578   20.5732 N   0  0  0  0  0  0
  -22.0445  -12.8189   22.0445 N   0  0  0  0  0  0
  -25.4097  -15.1946   20.4126 N   0  0  0  0  0  0
  -31.7160  -15.0827   20.1724 O   0  0  0  0  0  0
  -21.6642   -6.8880   21.4242 O   0  0  0  0  0  0
  -22.3474  -14.5507   20.6732 O   0  0  0  0  0  0
  -24.6465  -31.8395   23.1839 C   0  0  0  0  0  0
  -25.9219  -32.4671   23.8246 C   0  0  1  0  0  0
  -27.2213  -27.0916   20.1690 C   0  0  0  0  0  0
  -25.5951  -33.8479   24.2161 N   0  0  0  0  0  0
  -23.4535  -30.4547   21.5296 C   0  0  2  0  0  0
  -24.9055  -28.8653   20.1170 C   0  0  0  0  0  0
  -22.7583  -29.4519   22.4848 C   0  0  0  0  0  0
  -18.0307  -28.1398   22.8475 C   0  0  0  0  0  0
  -24.1491  -36.7246   23.2644 C   0  0  0  0  0  0
  -26.0109  -30.6968   21.3913 C   0  0  0  0  0  0
  -26.0816  -29.2993   20.7429 C   0  0  0  0  0  0
  -27.2390  -28.4269   20.7545 C   0  0  0  0  0  0
  -26.0226  -26.7644   19.5049 C   0  0  0  0  0  0
  -24.8894  -27.6113   19.4839 C   0  0  0  0  0  0
  -23.6847  -29.7753   20.1526 C   0  0  0  0  0  0
  -25.4126  -36.3019   24.0312 C   0  0  1  0  0  0
  -20.5921  -28.3727   23.1228 C   0  0  2  0  0  0
  -20.6788  -26.9426   22.5406 C   0  0  0  0  0  0
  -19.5763  -26.6380   21.5213 C   0  0  0  0  0  0
  -18.1945  -26.7936   22.1623 C   0  0  0  0  0  0
  -19.1564  -28.8882   23.2842 C   0  0  0  0  0  0
  -18.9479  -30.1476   23.8870 C   0  0  0  0  0  0
  -17.6475  -30.6593   24.0558 C   0  0  0  0  0  0
  -25.9078  -34.9395   23.5050 C   0  0  0  0  0  0
  -16.5366  -29.9085   23.6338 C   0  0  0  0  0  0
  -16.7291  -28.6504   23.0358 C   0  0  0  0  0  0
  -26.4530  -31.6558   25.0707 C   0  0  0  0  0  0
  -25.3702  -31.3759   26.1394 C   0  0  0  0  0  0
  -27.0408  -30.2949   24.6324 C   0  0  0  0  0  0
  -27.6049  -32.4338   25.7498 C   0  0  0  0  0  0
  -27.5574  -37.1779   24.8466 C   0  0  0  0  0  0
  -21.4272  -29.3044   22.3594 N   0  0  0  0  0  0
  -26.4286  -37.3736   23.9407 N   0  0  0  0  0  0
  -24.7235  -31.0204   22.0897 N   0  0  0  0  0  0
  -23.4204  -28.8079   23.3026 O   0  0  0  0  0  0
  -28.2778  -26.1010   20.1532 O   0  0  0  0  0  0
  -26.5673  -34.8901   22.4634 O   0  0  0  0  0  0
  -23.5573  -32.1295   23.7029 O   0  0  0  0  0  0
  -28.2928  -22.7296   19.0266 C   0  0  0  0  0  0
  -28.9886  -20.3924   19.7351 C   0  0  0  0  0  0
  -28.5571  -21.3340   18.7361 C   0  0  0  0  0  0
  -29.1453  -20.9970   21.0024 C   0  0  0  0  0  0
  -28.4420  -23.2910   20.3252 C   0  0  0  0  0  0
  -29.2203  -18.7950   19.4748 C   0  0  0  0  0  0
  -29.6722  -20.0449   22.1064 C   0  0  0  0  0  0
  -29.4574  -18.4695   21.9253 C   0  0  0  0  0  0
  -29.9015  -17.7876   20.5781 C   0  0  1  0  0  0
  -28.3296  -20.8418   17.3193 C   0  0  0  0  0  0
  -28.8783  -22.3584   21.2785 N   0  0  0  0  0  0
  -29.6944  -16.1936   20.5320 N   0  0  0  0  0  0
  -27.8809  -24.5837   20.7763 O   0  0  0  0  0  0
  -31.4728  -12.8115   19.1829 H   0  0  0  0  0  0
  -30.4594  -11.6901   20.0470 H   0  0  0  0  0  0
  -29.8552  -11.7319   17.6021 H   0  0  0  0  0  0
  -29.5987  -13.4577   17.6775 H   0  0  0  0  0  0
  -27.9677  -11.2719   18.9994 H   0  0  0  0  0  0
  -27.3948  -12.4256   17.8229 H   0  0  0  0  0  0
  -27.5803  -14.2471   19.3933 H   0  0  0  0  0  0
  -28.7732  -12.3308   21.4556 H   0  0  0  0  0  0
  -28.3560  -14.0039   21.7459 H   0  0  0  0  0  0
  -25.2771   -9.5680   22.4765 H   0  0  0  0  0  0
  -24.0006   -7.4632   22.7475 H   0  0  0  0  0  0
  -21.0852   -8.8777   19.8952 H   0  0  0  0  0  0
  -22.3711  -10.9674   19.6169 H   0  0  0  0  0  0
  -21.2007   -7.6149   23.9716 H   0  0  0  0  0  0
  -21.1482   -6.0524   25.9078 H   0  0  0  0  0  0
  -22.0597   -2.7610   23.2847 H   0  0  0  0  0  0
  -22.4071  -11.9856   22.4835 H   0  0  0  0  0  0
  -21.1058  -13.1202   22.2649 H   0  0  0  0  0  0
  -24.6355  -15.8409   20.5206 H   0  0  0  0  0  0
  -26.2418  -15.6358   20.0447 H   0  0  0  0  0  0
  -26.7284  -32.5267   23.0970 H   0  0  0  0  0  0
  -25.0066  -33.9586   25.0287 H   0  0  0  0  0  0
  -22.7584  -31.2814   21.3684 H   0  0  0  0  0  0
  -23.3760  -35.9571   23.3291 H   0  0  0  0  0  0
  -24.3573  -36.8898   22.2062 H   0  0  0  0  0  0
  -23.7241  -37.6433   23.6697 H   0  0  0  0  0  0
  -26.1699  -31.4436   20.6123 H   0  0  0  0  0  0
  -26.8799  -30.7535   22.0350 H   0  0  0  0  0  0
  -28.1401  -28.7571   21.2517 H   0  0  0  0  0  0
  -25.9516  -25.8021   19.0177 H   0  0  0  0  0  0
  -23.9928  -27.2741   18.9821 H   0  0  0  0  0  0
  -23.8274  -30.5453   19.3936 H   0  0  0  0  0  0
  -22.7986  -29.2194   19.8410 H   0  0  0  0  0  0
  -25.1317  -36.1839   25.0804 H   0  0  0  0  0  0
  -21.0011  -28.3321   24.1350 H   0  0  0  0  0  0
  -20.5678  -26.2342   23.3629 H   0  0  0  0  0  0
  -21.6654  -26.7425   22.1207 H   0  0  0  0  0  0
  -19.6924  -25.6284   21.1261 H   0  0  0  0  0  0
  -19.6701  -27.3175   20.6731 H   0  0  0  0  0  0
  -17.4213  -26.6680   21.4027 H   0  0  0  0  0  0
  -18.0342  -26.0084   22.9026 H   0  0  0  0  0  0
  -19.7955  -30.7300   24.2228 H   0  0  0  0  0  0
  -17.5028  -31.6271   24.5165 H   0  0  0  0  0  0
  -15.5365  -30.2977   23.7677 H   0  0  0  0  0  0
  -15.8691  -28.0812   22.7090 H   0  0  0  0  0  0
  -24.5890  -30.7100   25.7710 H   0  0  0  0  0  0
  -24.8882  -32.2945   26.4749 H   0  0  0  0  0  0
  -25.7973  -30.8976   27.0217 H   0  0  0  0  0  0
  -26.3039  -29.6656   24.1321 H   0  0  0  0  0  0
  -27.3992  -29.7268   25.4918 H   0  0  0  0  0  0
  -27.8956  -30.4174   23.9671 H   0  0  0  0  0  0
  -27.2632  -33.3662   26.2005 H   0  0  0  0  0  0
  -28.3896  -32.6862   25.0355 H   0  0  0  0  0  0
  -28.0676  -31.8513   26.5475 H   0  0  0  0  0  0
  -28.2582  -38.0084   24.7511 H   0  0  0  0  0  0
  -28.1080  -36.2612   24.6296 H   0  0  0  0  0  0
  -27.2290  -37.1428   25.8868 H   0  0  0  0  0  0
  -20.9494  -29.8743   21.6753 H   0  0  0  0  0  0
  -26.0149  -38.2802   24.1410 H   0  0  0  0  0  0
  -27.9047  -23.3713   18.2477 H   0  0  0  0  0  0
  -29.7758  -18.6884   18.5426 H   0  0  0  0  0  0
  -28.2282  -18.3989   19.2561 H   0  0  0  0  0  0
  -29.2328  -20.3512   23.0561 H   0  0  0  0  0  0
  -30.7412  -20.2366   22.2012 H   0  0  0  0  0  0
  -28.3923  -18.2748   22.0550 H   0  0  0  0  0  0
  -29.9474  -17.9611   22.7558 H   0  0  0  0  0  0
  -30.9803  -17.9359   20.5071 H   0  0  0  0  0  0
  -27.9416  -21.6317   16.6759 H   0  0  0  0  0  0
  -27.6113  -20.0218   17.3083 H   0  0  0  0  0  0
  -29.2640  -20.4870   16.8843 H   0  0  0  0  0  0
  -28.7244  -15.9406   20.6451 H   0  0  0  0  0  0
  1 25  1  0  0  0
  1 30  2  0  0  0
  1 82  1  0  0  0
  2  3  1  0  0  0
  2 25  1  0  0  0
  2 84  1  0  0  0
  2 85  1  0  0  0
  3  4  1  0  0  0
  3 86  1  0  0  0
  3 87  1  0  0  0
  4  5  1  0  0  0
  4 88  1  0  0  0
  4 89  1  0  0  0
  5  6  1  0  0  0
  5 26  1  0  0  0
  5 90  1  0  0  0
  6 25  1  0  0  0
  6 91  1  0  0  0
  6 92  1  0  0  0
  7  8  2  0  0  0
  7 26  1  0  0  0
  7 29  1  0  0  0
  8  9  1  0  0  0
  8 22  1  0  0  0
  9 10  1  0  0  0
  9 27  2  0  0  0
 10 11  2  0  0  0
 10 15  1  0  0  0
 11 12  1  0  0  0
 11 93  1  0  0  0
 12 13  2  0  0  0
 12 94  1  0  0  0
 13 14  1  0  0  0
 13 31  1  0  0  0
 14 15  2  0  0  0
 14 95  1  0  0  0
 15 96  1  0  0  0
 16 17  2  0  0  0
 16 21  1  0  0  0
 16 31  1  0  0  0
 17 18  1  0  0  0
 17 97  1  0  0  0
 18 19  2  0  0  0
 18 98  1  0  0  0
 19 20  1  0  0  0
 19 24  1  0  0  0
 20 21  2  0  0  0
 20 99  1  0  0  0
 21 23  1  0  0  0
 22 28  1  0  0  0
 22 32  2  0  0  0
 26 27  1  0  0  0
 28100  1  0  0  0
 28101  1  0  0  0
 29102  1  0  0  0
 29103  1  0  0  0
 33 34  1  0  0  0
 33 66  1  0  0  0
 33 70  2  0  0  0
 34 36  1  0  0  0
 34 59  1  0  0  0
 34104  1  0  0  0
 35 44  2  0  0  0
 35 45  1  0  0  0
 35 68  1  0  0  0
 36 56  1  0  0  0
 36105  1  0  0  0
 37 39  1  0  0  0
 37 47  1  0  0  0
 37 66  1  0  0  0
 37106  1  0  0  0
 38 43  2  0  0  0
 38 46  1  0  0  0
 38 47  1  0  0  0
 39 64  1  0  0  0
 39 67  2  0  0  0
 40 52  1  0  0  0
 40 53  2  0  0  0
 40 58  1  0  0  0
 41107  1  0  0  0
 41108  1  0  0  0
 41109  1  0  0  0
 41 48  1  0  0  0
 42 43  1  0  0  0
 42 66  1  0  0  0
 42110  1  0  0  0
 42111  1  0  0  0
 43 44  1  0  0  0
 44112  1  0  0  0
 45 46  2  0  0  0
 45113  1  0  0  0
 46114  1  0  0  0
 47115  1  0  0  0
 47116  1  0  0  0
 48 56  1  0  0  0
 48 65  1  0  0  0
 48117  1  0  0  0
 49 50  1  0  0  0
 49 53  1  0  0  0
 49 64  1  0  0  0
 49118  1  0  0  0
 50 51  1  0  0  0
 50119  1  0  0  0
 50120  1  0  0  0
 51 52  1  0  0  0
 51121  1  0  0  0
 51122  1  0  0  0
 52123  1  0  0  0
 52124  1  0  0  0
 53 54  1  0  0  0
 54 55  2  0  0  0
 54125  1  0  0  0
 55 57  1  0  0  0
 55126  1  0  0  0
 56 69  2  0  0  0
 57 58  2  0  0  0
 57127  1  0  0  0
 58128  1  0  0  0
 59 60  1  0  0  0
 59 61  1  0  0  0
 59 62  1  0  0  0
 60129  1  0  0  0
 60130  1  0  0  0
 60131  1  0  0  0
 61132  1  0  0  0
 61133  1  0  0  0
 61134  1  0  0  0
 62135  1  0  0  0
 62136  1  0  0  0
 62137  1  0  0  0
 63 65  1  0  0  0
 63138  1  0  0  0
 63139  1  0  0  0
 63140  1  0  0  0
 64141  1  0  0  0
 65142  1  0  0  0
 68 83  1  0  0  0
 71 73  2  0  0  0
 71 75  1  0  0  0
 71143  1  0  0  0
 72 73  1  0  0  0
 72 74  2  0  0  0
 72 76  1  0  0  0
 73 80  1  0  0  0
 74 77  1  0  0  0
 74 81  1  0  0  0
 75 81  2  0  0  0
 75 83  1  0  0  0
 76 79  1  0  0  0
 76144  1  0  0  0
 76145  1  0  0  0
 77 78  1  0  0  0
 77146  1  0  0  0
 77147  1  0  0  0
 78 79  1  0  0  0
 78148  1  0  0  0
 78149  1  0  0  0
 79 82  1  0  0  0
 79150  1  0  0  0
 80151  1  0  0  0
 80152  1  0  0  0
 80153  1  0  0  0
 82154  1  0  0  0
M  ISO  4   1 100  68 101  82 100  83 101
M  END
> <chiral flag>
0

> <version>
0

> <s_m_source_file>
/data/baiqing/PycharmProjects/Reinvent-master-3.2/result/LINK_invent/BTK/process_docking_weight1_custom_sum_contain_oxygen_bond_distance_aromatic_linkinvent_7_9_3/rearranged_h_0143.sdf

> <i_m_source_file_index>
39

> <r_mmod_Potential_Energy-OPLS-2005>
344.091400146484

> <r_mmod_Stretch_Energy-OPLS-2005>
262.715087890625

> <r_mmod_Bend_Energy-OPLS-2005>
275.700775146484

> <r_mmod_Torsional_Energy-OPLS-2005>
201.070648193359

> <r_mmod_Improper_Torsional_Energy-OPLS-2005>
7.06703901290894

> <r_mmod_Van_der_Waal_Energy-OPLS-2005>
126.073471069336

> <r_mmod_Electrostatic_Energy-OPLS-2005>
-538.420654296875

> <r_mmod_Solvation_Energy-OPLS-2005>
-225.249145507812

> <b_mmod_Minimization_Converged-OPLS-2005>
0

> <r_mmod_RMS_Derivative-OPLS-2005>
0.0550611913204193

$$$$
39
                    3D
 Structure written by MMmdl.
160169  0  0  1  0            999 V2000
  -30.7344  -14.6426   20.4989 C   0  0  0  0  0  0
  -30.4146  -12.4110   19.4490 C   0  0  0  0  0  0
  -29.4927  -12.4951   18.2166 C   0  0  0  0  0  0
  -28.0204  -12.3227   18.6346 C   0  0  0  0  0  0
  -27.6401  -13.2085   19.8498 C   0  0  2  0  0  0
  -28.7002  -13.1298   20.9771 C   0  0  0  0  0  0
  -25.2531  -13.8163   20.5700 C   0  0  0  0  0  0
  -24.1792  -13.0429   20.9224 C   0  0  0  0  0  0
  -24.6375  -11.6914   20.8773 C   0  0  0  0  0  0
  -23.9052  -10.4296   21.0425 C   0  0  0  0  0  0
  -24.3619   -9.4216   21.9191 C   0  0  0  0  0  0
  -23.6307   -8.2242   22.0747 C   0  0  0  0  0  0
  -22.4281   -8.0290   21.3552 C   0  0  0  0  0  0
  -21.9911   -9.0258   20.4645 C   0  0  0  0  0  0
  -22.7228  -10.2149   20.3059 C   0  0  0  0  0  0
  -21.6867   -6.0747   22.5287 C   0  0  0  0  0  0
  -21.4019   -6.5642   23.8218 C   0  0  0  0  0  0
  -21.3645   -5.6791   24.9170 C   0  0  0  0  0  0
  -21.6035   -4.3050   24.7219 C   0  0  0  0  0  0
  -21.8831   -3.8157   23.4335 C   0  0  0  0  0  0
  -21.9196   -4.6980   22.3401 C   0  0  0  0  0  0
  -22.7820  -13.5233   21.1865 C   0  0  0  0  0  0
  -22.1673   -4.2162   21.0981 F   0  0  0  0  0  0
  -21.5610   -3.4533   25.7730 F   0  0  0  0  0  0
  -29.9997  -13.4816   20.3864 N   0  0  0  0  0  0
  -26.2935  -12.9313   20.3327 N   0  0  0  0  0  0
  -25.9297  -11.6490   20.5804 N   0  0  0  0  0  0
  -22.0466  -12.8224   22.0436 N   0  0  0  0  0  0
  -25.4225  -15.1872   20.4085 N   0  0  0  0  0  0
  -31.9253  -14.6267   20.1800 O   0  0  0  0  0  0
  -21.6649   -6.8891   21.4248 O   0  0  0  0  0  0
  -22.3521  -14.5540   20.6724 O   0  0  0  0  0  0
  -24.6247  -31.8591   23.2023 C   0  0  0  0  0  0
  -25.9121  -32.4761   23.8314 C   0  0  1  0  0  0
  -27.2408  -27.3419   20.1036 C   0  0  0  0  0  0
  -25.5969  -33.8563   24.2268 N   0  0  0  0  0  0
  -23.4157  -30.4812   21.5453 C   0  0  2  0  0  0
  -24.8621  -28.9333   20.1144 C   0  0  0  0  0  0
  -22.7453  -29.4609   22.4942 C   0  0  0  0  0  0
  -18.0265  -28.1379   22.8475 C   0  0  0  0  0  0
  -24.1513  -36.7301   23.2628 C   0  0  0  0  0  0
  -25.9536  -30.7914   21.3701 C   0  0  0  0  0  0
  -26.0264  -29.4173   20.7211 C   0  0  0  0  0  0
  -27.2103  -28.6272   20.7191 C   0  0  0  0  0  0
  -26.0482  -26.9038   19.4709 C   0  0  0  0  0  0
  -24.8708  -27.6767   19.4903 C   0  0  0  0  0  0
  -23.6300  -29.8140   20.1610 C   0  0  0  0  0  0
  -25.4130  -36.3069   24.0322 C   0  0  1  0  0  0
  -20.5867  -28.3666   23.1297 C   0  0  2  0  0  0
  -20.6783  -26.9409   22.5396 C   0  0  0  0  0  0
  -19.5767  -26.6404   21.5194 C   0  0  0  0  0  0
  -18.1931  -26.7924   22.1600 C   0  0  0  0  0  0
  -19.1517  -28.8839   23.2880 C   0  0  0  0  0  0
  -18.9447  -30.1437   23.8909 C   0  0  0  0  0  0
  -17.6453  -30.6582   24.0566 C   0  0  0  0  0  0
  -25.9056  -34.9438   23.5080 C   0  0  0  0  0  0
  -16.5340  -29.9089   23.6334 C   0  0  0  0  0  0
  -16.7254  -28.6504   23.0354 C   0  0  0  0  0  0
  -26.4518  -31.6551   25.0656 C   0  0  0  0  0  0
  -25.3793  -31.3680   26.1414 C   0  0  0  0  0  0
  -27.0326  -30.2982   24.6044 C   0  0  0  0  0  0
  -27.6065  -32.4265   25.7457 C   0  0  0  0  0  0
  -27.5582  -37.1811   24.8455 C   0  0  0  0  0  0
  -21.4162  -29.3028   22.3720 N   0  0  0  0  0  0
  -26.4302  -37.3765   23.9386 N   0  0  0  0  0  0
  -24.6835  -31.0606   22.0973 N   0  0  0  0  0  0
  -23.4184  -28.8172   23.3031 O   0  0  0  0  0  0
  -28.3979  -26.5493   20.1641 O   0  0  0  0  0  0
  -26.5603  -34.8910   22.4627 O   0  0  0  0  0  0
  -23.5425  -32.1380   23.7379 O   0  0  0  0  0  0
  -28.8593  -23.6151   23.7219 C   0  0  0  0  0  0
  -28.9733  -24.1851   22.4476 C   0  0  0  0  0  0
  -29.1334  -22.2530   23.8765 C   0  0  0  0  0  0
  -29.3434  -23.3845   21.3469 C   0  0  0  0  0  0
  -29.5994  -21.9811   21.5986 C   0  0  0  0  0  0
  -28.7200  -17.8318   20.9783 C   0  0  0  0  0  0
  -28.7667  -16.3085   20.7482 C   0  0  0  0  0  0
  -30.9731  -17.1362   20.8731 C   0  0  0  0  0  0
  -30.0687  -18.3569   20.5165 C   0  0  2  0  0  0
  -29.4874  -24.1234   19.9931 C   0  0  0  0  0  0
  -29.9882  -20.8813   20.5634 C   0  0  0  0  0  0
  -28.3823  -25.1948   19.6003 C   0  0  0  0  0  0
  -29.4895  -21.4665   22.8475 N   0  0  0  0  0  0
  -30.1699  -15.8734   20.8014 N   0  0  0  0  0  0
  -30.4119  -19.6104   21.1650 O   0  0  0  0  0  0
  -31.4563  -12.4954   19.1343 H   0  0  0  0  0  0
  -30.3346  -11.4345   19.9287 H   0  0  0  0  0  0
  -29.7662  -11.7320   17.4858 H   0  0  0  0  0  0
  -29.6252  -13.4566   17.7178 H   0  0  0  0  0  0
  -27.8632  -11.2698   18.8763 H   0  0  0  0  0  0
  -27.3627  -12.5402   17.7919 H   0  0  0  0  0  0
  -27.6192  -14.2134   19.4484 H   0  0  0  0  0  0
  -28.7374  -12.1216   21.3905 H   0  0  0  0  0  0
  -28.4533  -13.7656   21.8244 H   0  0  0  0  0  0
  -25.2772   -9.5704   22.4747 H   0  0  0  0  0  0
  -24.0034   -7.4630   22.7444 H   0  0  0  0  0  0
  -21.0844   -8.8769   19.8951 H   0  0  0  0  0  0
  -22.3682  -10.9684   19.6162 H   0  0  0  0  0  0
  -21.2032   -7.6153   23.9730 H   0  0  0  0  0  0
  -21.1440   -6.0513   25.9074 H   0  0  0  0  0  0
  -22.0625   -2.7620   23.2831 H   0  0  0  0  0  0
  -22.4105  -11.9892   22.4811 H   0  0  0  0  0  0
  -21.1087  -13.1248   22.2646 H   0  0  0  0  0  0
  -24.6614  -15.8469   20.5251 H   0  0  0  0  0  0
  -26.2776  -15.6232   20.0918 H   0  0  0  0  0  0
  -26.7167  -32.5433   23.1030 H   0  0  0  0  0  0
  -25.0169  -33.9706   25.0453 H   0  0  0  0  0  0
  -22.7079  -31.2993   21.4009 H   0  0  0  0  0  0
  -23.3757  -35.9651   23.3289 H   0  0  0  0  0  0
  -24.3597  -36.8922   22.2038 H   0  0  0  0  0  0
  -23.7311  -37.6526   23.6643 H   0  0  0  0  0  0
  -26.0664  -31.5457   20.5905 H   0  0  0  0  0  0
  -26.8435  -30.8533   21.9845 H   0  0  0  0  0  0
  -28.1011  -28.9887   21.2142 H   0  0  0  0  0  0
  -25.9825  -25.9567   18.9568 H   0  0  0  0  0  0
  -23.9734  -27.2989   19.0177 H   0  0  0  0  0  0
  -23.7507  -30.5887   19.4027 H   0  0  0  0  0  0
  -22.7489  -29.2442   19.8608 H   0  0  0  0  0  0
  -25.1321  -36.1899   25.0821 H   0  0  0  0  0  0
  -20.9918  -28.3240   24.1431 H   0  0  0  0  0  0
  -20.5702  -26.2271   23.3575 H   0  0  0  0  0  0
  -21.6659  -26.7482   22.1192 H   0  0  0  0  0  0
  -19.6951  -25.6327   21.1204 H   0  0  0  0  0  0
  -19.6729  -27.3236   20.6745 H   0  0  0  0  0  0
  -17.4214  -26.6648   21.3993 H   0  0  0  0  0  0
  -18.0349  -26.0053   22.8983 H   0  0  0  0  0  0
  -19.7932  -30.7233   24.2308 H   0  0  0  0  0  0
  -17.5018  -31.6270   24.5151 H   0  0  0  0  0  0
  -15.5347  -30.3003   23.7655 H   0  0  0  0  0  0
  -15.8649  -28.0835   22.7073 H   0  0  0  0  0  0
  -24.5989  -30.6970   25.7799 H   0  0  0  0  0  0
  -24.8955  -32.2837   26.4821 H   0  0  0  0  0  0
  -25.8188  -30.8918   27.0188 H   0  0  0  0  0  0
  -26.2841  -29.6746   24.1138 H   0  0  0  0  0  0
  -27.4120  -29.7203   25.4477 H   0  0  0  0  0  0
  -27.8679  -30.4259   23.9158 H   0  0  0  0  0  0
  -27.2667  -33.3562   26.2030 H   0  0  0  0  0  0
  -28.3930  -32.6827   25.0346 H   0  0  0  0  0  0
  -28.0676  -31.8374   26.5392 H   0  0  0  0  0  0
  -28.2605  -38.0104   24.7488 H   0  0  0  0  0  0
  -28.1078  -36.2627   24.6312 H   0  0  0  0  0  0
  -27.2275  -37.1509   25.8854 H   0  0  0  0  0  0
  -20.9321  -29.8744   21.6940 H   0  0  0  0  0  0
  -26.0177  -38.2831   24.1395 H   0  0  0  0  0  0
  -28.5736  -24.2170   24.5715 H   0  0  0  0  0  0
  -28.7834  -25.2415   22.3283 H   0  0  0  0  0  0
  -29.0704  -21.7815   24.8458 H   0  0  0  0  0  0
  -28.6027  -18.0300   22.0441 H   0  0  0  0  0  0
  -27.8880  -18.3104   20.4601 H   0  0  0  0  0  0
  -28.3782  -16.1219   19.7504 H   0  0  0  0  0  0
  -28.1374  -15.8187   21.4865 H   0  0  0  0  0  0
  -31.8394  -17.1203   20.2098 H   0  0  0  0  0  0
  -31.3591  -17.2342   21.8889 H   0  0  0  0  0  0
  -30.0693  -18.4843   19.4327 H   0  0  0  0  0  0
  -29.5098  -23.3582   19.2174 H   0  0  0  0  0  0
  -30.4720  -24.5937   19.9639 H   0  0  0  0  0  0
  -30.8096  -21.2500   19.9470 H   0  0  0  0  0  0
  -29.1375  -20.7215   19.9005 H   0  0  0  0  0  0
  -28.4706  -25.3491   18.5234 H   0  0  0  0  0  0
  -27.4235  -24.7090   19.7597 H   0  0  0  0  0  0
  1 25  1  0  0  0
  1 30  2  0  0  0
  1 84  1  0  0  0
  2  3  1  0  0  0
  2 25  1  0  0  0
  2 86  1  0  0  0
  2 87  1  0  0  0
  3  4  1  0  0  0
  3 88  1  0  0  0
  3 89  1  0  0  0
  4  5  1  0  0  0
  4 90  1  0  0  0
  4 91  1  0  0  0
  5  6  1  0  0  0
  5 26  1  0  0  0
  5 92  1  0  0  0
  6 25  1  0  0  0
  6 93  1  0  0  0
  6 94  1  0  0  0
  7  8  2  0  0  0
  7 26  1  0  0  0
  7 29  1  0  0  0
  8  9  1  0  0  0
  8 22  1  0  0  0
  9 10  1  0  0  0
  9 27  2  0  0  0
 10 11  2  0  0  0
 10 15  1  0  0  0
 11 12  1  0  0  0
 11 95  1  0  0  0
 12 13  2  0  0  0
 12 96  1  0  0  0
 13 14  1  0  0  0
 13 31  1  0  0  0
 14 15  2  0  0  0
 14 97  1  0  0  0
 15 98  1  0  0  0
 16 17  2  0  0  0
 16 21  1  0  0  0
 16 31  1  0  0  0
 17 18  1  0  0  0
 17 99  1  0  0  0
 18 19  2  0  0  0
 18100  1  0  0  0
 19 20  1  0  0  0
 19 24  1  0  0  0
 20 21  2  0  0  0
 20101  1  0  0  0
 21 23  1  0  0  0
 22 28  1  0  0  0
 22 32  2  0  0  0
 26 27  1  0  0  0
 28102  1  0  0  0
 28103  1  0  0  0
 29104  1  0  0  0
 29105  1  0  0  0
 33 34  1  0  0  0
 33 66  1  0  0  0
 33 70  2  0  0  0
 34 36  1  0  0  0
 34 59  1  0  0  0
 34106  1  0  0  0
 35 44  2  0  0  0
 35 45  1  0  0  0
 35 68  1  0  0  0
 36 56  1  0  0  0
 36107  1  0  0  0
 37 39  1  0  0  0
 37 47  1  0  0  0
 37 66  1  0  0  0
 37108  1  0  0  0
 38 43  2  0  0  0
 38 46  1  0  0  0
 38 47  1  0  0  0
 39 64  1  0  0  0
 39 67  2  0  0  0
 40 52  1  0  0  0
 40 53  2  0  0  0
 40 58  1  0  0  0
 41109  1  0  0  0
 41110  1  0  0  0
 41111  1  0  0  0
 41 48  1  0  0  0
 42 43  1  0  0  0
 42 66  1  0  0  0
 42112  1  0  0  0
 42113  1  0  0  0
 43 44  1  0  0  0
 44114  1  0  0  0
 45 46  2  0  0  0
 45115  1  0  0  0
 46116  1  0  0  0
 47117  1  0  0  0
 47118  1  0  0  0
 48 56  1  0  0  0
 48 65  1  0  0  0
 48119  1  0  0  0
 49 50  1  0  0  0
 49 53  1  0  0  0
 49 64  1  0  0  0
 49120  1  0  0  0
 50 51  1  0  0  0
 50121  1  0  0  0
 50122  1  0  0  0
 51 52  1  0  0  0
 51123  1  0  0  0
 51124  1  0  0  0
 52125  1  0  0  0
 52126  1  0  0  0
 53 54  1  0  0  0
 54 55  2  0  0  0
 54127  1  0  0  0
 55 57  1  0  0  0
 55128  1  0  0  0
 56 69  2  0  0  0
 57 58  2  0  0  0
 57129  1  0  0  0
 58130  1  0  0  0
 59 60  1  0  0  0
 59 61  1  0  0  0
 59 62  1  0  0  0
 60131  1  0  0  0
 60132  1  0  0  0
 60133  1  0  0  0
 61134  1  0  0  0
 61135  1  0  0  0
 61136  1  0  0  0
 62137  1  0  0  0
 62138  1  0  0  0
 62139  1  0  0  0
 63 65  1  0  0  0
 63140  1  0  0  0
 63141  1  0  0  0
 63142  1  0  0  0
 64143  1  0  0  0
 65144  1  0  0  0
 68 82  1  0  0  0
 71 72  2  0  0  0
 71 73  1  0  0  0
 71145  1  0  0  0
 72 74  1  0  0  0
 72146  1  0  0  0
 73 83  2  0  0  0
 73147  1  0  0  0
 74 75  2  0  0  0
 74 80  1  0  0  0
 75 81  1  0  0  0
 75 83  1  0  0  0
 76 77  1  0  0  0
 76 79  1  0  0  0
 76148  1  0  0  0
 76149  1  0  0  0
 77 84  1  0  0  0
 77150  1  0  0  0
 77151  1  0  0  0
 78 79  1  0  0  0
 78 84  1  0  0  0
 78152  1  0  0  0
 78153  1  0  0  0
 79 85  1  0  0  0
 79154  1  0  0  0
 80 82  1  0  0  0
 80155  1  0  0  0
 80156  1  0  0  0
 81 85  1  0  0  0
 81157  1  0  0  0
 81158  1  0  0  0
 82159  1  0  0  0
 82160  1  0  0  0
M  ISO  4   1 100  68 101  82 101  84 100
M  END
> <chiral flag>
0

> <version>
0

> <s_m_source_file>
/data/baiqing/PycharmProjects/Reinvent-master-3.2/result/LINK_invent/BTK/process_docking_weight1_custom_sum_contain_oxygen_bond_distance_aromatic_linkinvent_7_9_3/rearranged_h_0143.sdf

> <i_m_source_file_index>
40

> <r_mmod_Potential_Energy-OPLS-2005>
95.770751953125

> <r_mmod_Stretch_Energy-OPLS-2005>
75.0951843261719

> <r_mmod_Bend_Energy-OPLS-2005>
188.414901733398

> <r_mmod_Torsional_Energy-OPLS-2005>
304.767303466797

> <r_mmod_Improper_Torsional_Energy-OPLS-2005>
3.93436074256897

> <r_mmod_Van_der_Waal_Energy-OPLS-2005>
151.921051025391

> <r_mmod_Electrostatic_Energy-OPLS-2005>
-444.970764160156

> <r_mmod_Solvation_Energy-OPLS-2005>
-232.766143798828

> <b_mmod_Minimization_Converged-OPLS-2005>
0

> <r_mmod_RMS_Derivative-OPLS-2005>
3.41023707389832

$$$$
40
                    3D
 Structure written by MMmdl.
166177  0  0  1  0            999 V2000
  -30.6021  -14.7232   20.4623 C   0  0  0  0  0  0
  -30.4389  -12.4362   19.4882 C   0  0  0  0  0  0
  -29.5272  -12.5322   18.2440 C   0  0  0  0  0  0
  -28.0428  -12.3719   18.6344 C   0  0  0  0  0  0
  -27.6525  -13.2357   19.8643 C   0  0  2  0  0  0
  -28.6944  -13.1310   21.0012 C   0  0  0  0  0  0
  -25.2548  -13.8195   20.5710 C   0  0  0  0  0  0
  -24.1827  -13.0459   20.9221 C   0  0  0  0  0  0
  -24.6426  -11.6936   20.8736 C   0  0  0  0  0  0
  -23.9076  -10.4314   21.0377 C   0  0  0  0  0  0
  -24.3624   -9.4246   21.9162 C   0  0  0  0  0  0
  -23.6328   -8.2263   22.0728 C   0  0  0  0  0  0
  -22.4314   -8.0288   21.3519 C   0  0  0  0  0  0
  -21.9930   -9.0250   20.4632 C   0  0  0  0  0  0
  -22.7243  -10.2147   20.3042 C   0  0  0  0  0  0
  -21.6862   -6.0756   22.5286 C   0  0  0  0  0  0
  -21.4021   -6.5654   23.8226 C   0  0  0  0  0  0
  -21.3656   -5.6787   24.9176 C   0  0  0  0  0  0
  -21.6055   -4.3055   24.7210 C   0  0  0  0  0  0
  -21.8816   -3.8154   23.4320 C   0  0  0  0  0  0
  -21.9192   -4.6986   22.3388 C   0  0  0  0  0  0
  -22.7840  -13.5244   21.1868 C   0  0  0  0  0  0
  -22.1655   -4.2178   21.0959 F   0  0  0  0  0  0
  -21.5626   -3.4536   25.7712 F   0  0  0  0  0  0
  -30.0008  -13.4848   20.4369 N   0  0  0  0  0  0
  -26.3001  -12.9427   20.3317 N   0  0  0  0  0  0
  -25.9365  -11.6559   20.5740 N   0  0  0  0  0  0
  -22.0442  -12.8236   22.0411 N   0  0  0  0  0  0
  -25.4256  -15.1925   20.4143 N   0  0  0  0  0  0
  -31.7776  -14.8365   20.1033 O   0  0  0  0  0  0
  -21.6642   -6.8904   21.4254 O   0  0  0  0  0  0
  -22.3537  -14.5536   20.6696 O   0  0  0  0  0  0
  -24.6283  -31.8571   23.1949 C   0  0  0  0  0  0
  -25.9129  -32.4758   23.8295 C   0  0  1  0  0  0
  -27.2352  -27.2722   20.1444 C   0  0  0  0  0  0
  -25.5945  -33.8557   24.2244 N   0  0  0  0  0  0
  -23.4246  -30.4742   21.5390 C   0  0  2  0  0  0
  -24.8755  -28.9080   20.1207 C   0  0  0  0  0  0
  -22.7475  -29.4615   22.4932 C   0  0  0  0  0  0
  -18.0284  -28.1353   22.8486 C   0  0  0  0  0  0
  -24.1499  -36.7262   23.2636 C   0  0  0  0  0  0
  -25.9674  -30.7733   21.3707 C   0  0  0  0  0  0
  -26.0451  -29.3924   20.7198 C   0  0  0  0  0  0
  -27.2292  -28.5892   20.7116 C   0  0  0  0  0  0
  -26.0421  -26.8384   19.5318 C   0  0  0  0  0  0
  -24.8776  -27.6386   19.5148 C   0  0  0  0  0  0
  -23.6428  -29.7943   20.1606 C   0  0  0  0  0  0
  -25.4130  -36.3062   24.0318 C   0  0  1  0  0  0
  -20.5888  -28.3673   23.1277 C   0  0  2  0  0  0
  -20.6777  -26.9399   22.5413 C   0  0  0  0  0  0
  -19.5767  -26.6354   21.5204 C   0  0  0  0  0  0
  -18.1938  -26.7897   22.1606 C   0  0  0  0  0  0
  -19.1538  -28.8830   23.2874 C   0  0  0  0  0  0
  -18.9460  -30.1431   23.8890 C   0  0  0  0  0  0
  -17.6466  -30.6570   24.0543 C   0  0  0  0  0  0
  -25.9072  -34.9441   23.5087 C   0  0  0  0  0  0
  -16.5358  -29.9065   23.6327 C   0  0  0  0  0  0
  -16.7272  -28.6471   23.0373 C   0  0  0  0  0  0
  -26.4504  -31.6565   25.0674 C   0  0  0  0  0  0
  -25.3731  -31.3686   26.1392 C   0  0  0  0  0  0
  -27.0337  -30.2988   24.6112 C   0  0  0  0  0  0
  -27.6052  -32.4308   25.7467 C   0  0  0  0  0  0
  -27.5590  -37.1790   24.8467 C   0  0  0  0  0  0
  -21.4185  -29.3022   22.3656 N   0  0  0  0  0  0
  -26.4301  -37.3771   23.9409 N   0  0  0  0  0  0
  -24.6921  -31.0536   22.0910 N   0  0  0  0  0  0
  -23.4176  -28.8178   23.3037 O   0  0  0  0  0  0
  -28.3660  -26.4320   20.1189 O   0  0  0  0  0  0
  -26.5634  -34.8914   22.4647 O   0  0  0  0  0  0
  -23.5442  -32.1402   23.7244 O   0  0  0  0  0  0
  -30.2645  -17.2259   18.7658 C   0  0  0  0  0  0
  -29.5475  -19.4214   18.4985 C   0  0  0  0  0  0
  -29.1934  -19.5129   19.8699 C   0  0  0  0  0  0
  -29.8274  -17.1749   20.1129 C   0  0  0  0  0  0
  -27.8269  -20.8050   17.1014 C   0  0  0  0  0  0
  -28.7644  -20.1973   16.0982 C   0  0  0  0  0  0
  -31.9397  -22.4075   21.4826 C   0  0  0  0  0  0
  -31.6458  -20.9376   21.3384 C   0  0  0  0  0  0
  -29.8009  -24.7814   20.6470 C   0  0  0  0  0  0
  -29.2629  -20.5105   17.5003 C   0  0  0  0  0  0
  -30.8843  -21.9445   20.4974 C   0  0  0  0  0  0
  -28.9913  -23.6557   20.0601 C   0  0  2  0  0  0
  -28.3196  -25.0231   20.6402 C   0  0  2  0  0  0
  -28.5411  -20.8731   20.4100 C   0  0  0  0  0  0
  -29.3915  -22.2218   20.7099 C   0  0  1  0  0  0
  -30.1228  -18.3123   17.9747 N   0  0  0  0  0  0
  -29.3118  -18.3611   20.6566 N   0  0  0  0  0  0
  -29.8273  -15.8386   20.7542 N   0  0  0  0  0  0
  -31.4858  -12.5480   19.2031 H   0  0  0  0  0  0
  -30.3650  -11.4498   19.9463 H   0  0  0  0  0  0
  -29.8129  -11.7821   17.5059 H   0  0  0  0  0  0
  -29.6737  -13.5016   17.7633 H   0  0  0  0  0  0
  -27.8643  -11.3177   18.8422 H   0  0  0  0  0  0
  -27.4046  -12.6245   17.7859 H   0  0  0  0  0  0
  -27.6603  -14.2677   19.5145 H   0  0  0  0  0  0
  -28.7214  -12.1212   21.4123 H   0  0  0  0  0  0
  -28.4395  -13.7918   21.8303 H   0  0  0  0  0  0
  -25.2759   -9.5756   22.4745 H   0  0  0  0  0  0
  -24.0064   -7.4660   22.7439 H   0  0  0  0  0  0
  -21.0861   -8.8760   19.8941 H   0  0  0  0  0  0
  -22.3676  -10.9675   19.6152 H   0  0  0  0  0  0
  -21.2016   -7.6158   23.9751 H   0  0  0  0  0  0
  -21.1482   -6.0494   25.9084 H   0  0  0  0  0  0
  -22.0600   -2.7629   23.2785 H   0  0  0  0  0  0
  -22.4030  -11.9925   22.4850 H   0  0  0  0  0  0
  -21.1048  -13.1278   22.2564 H   0  0  0  0  0  0
  -24.6596  -15.8459   20.5346 H   0  0  0  0  0  0
  -26.2747  -15.6342   20.0848 H   0  0  0  0  0  0
  -26.7187  -32.5416   23.1023 H   0  0  0  0  0  0
  -25.0116  -33.9718   25.0402 H   0  0  0  0  0  0
  -22.7188  -31.2934   21.3886 H   0  0  0  0  0  0
  -23.3786  -35.9577   23.3302 H   0  0  0  0  0  0
  -24.3588  -36.8885   22.2055 H   0  0  0  0  0  0
  -23.7240  -37.6448   23.6667 H   0  0  0  0  0  0
  -26.1069  -31.5305   20.5973 H   0  0  0  0  0  0
  -26.8439  -30.8228   22.0051 H   0  0  0  0  0  0
  -28.1308  -28.9668   21.1731 H   0  0  0  0  0  0
  -26.0099  -25.8636   19.0662 H   0  0  0  0  0  0
  -23.9813  -27.2595   19.0420 H   0  0  0  0  0  0
  -23.7618  -30.5632   19.3962 H   0  0  0  0  0  0
  -22.7605  -29.2228   19.8664 H   0  0  0  0  0  0
  -25.1320  -36.1895   25.0812 H   0  0  0  0  0  0
  -20.9992  -28.3248   24.1395 H   0  0  0  0  0  0
  -20.5670  -26.2284   23.3605 H   0  0  0  0  0  0
  -21.6649  -26.7432   22.1219 H   0  0  0  0  0  0
  -19.6942  -25.6260   21.1240 H   0  0  0  0  0  0
  -19.6705  -27.3152   20.6720 H   0  0  0  0  0  0
  -17.4224  -26.6659   21.3989 H   0  0  0  0  0  0
  -18.0333  -26.0018   22.8977 H   0  0  0  0  0  0
  -19.7942  -30.7233   24.2265 H   0  0  0  0  0  0
  -17.5028  -31.6257   24.5120 H   0  0  0  0  0  0
  -15.5362  -30.2969   23.7638 H   0  0  0  0  0  0
  -15.8666  -28.0766   22.7136 H   0  0  0  0  0  0
  -24.5930  -30.7018   25.7706 H   0  0  0  0  0  0
  -24.8892  -32.2835   26.4814 H   0  0  0  0  0  0
  -25.8057  -30.8866   27.0167 H   0  0  0  0  0  0
  -26.2885  -29.6739   24.1173 H   0  0  0  0  0  0
  -27.4082  -29.7239   25.4586 H   0  0  0  0  0  0
  -27.8739  -30.4277   23.9290 H   0  0  0  0  0  0
  -27.2661  -33.3626   26.2006 H   0  0  0  0  0  0
  -28.3884  -32.6844   25.0312 H   0  0  0  0  0  0
  -28.0686  -31.8452   26.5413 H   0  0  0  0  0  0
  -28.2596  -38.0097   24.7540 H   0  0  0  0  0  0
  -28.1092  -36.2631   24.6268 H   0  0  0  0  0  0
  -27.2301  -37.1408   25.8864 H   0  0  0  0  0  0
  -20.9360  -29.8714   21.6850 H   0  0  0  0  0  0
  -26.0169  -38.2843   24.1401 H   0  0  0  0  0  0
  -30.6573  -16.3541   18.2623 H   0  0  0  0  0  0
  -27.0400  -20.1556   17.4823 H   0  0  0  0  0  0
  -27.5420  -21.8406   16.9412 H   0  0  0  0  0  0
  -29.0796  -20.8469   15.2843 H   0  0  0  0  0  0
  -28.5990  -19.1553   15.8304 H   0  0  0  0  0  0
  -32.8940  -22.7549   21.0892 H   0  0  0  0  0  0
  -31.6271  -22.8728   22.4150 H   0  0  0  0  0  0
  -31.1217  -20.4477   22.1580 H   0  0  0  0  0  0
  -32.3913  -20.3221   20.8374 H   0  0  0  0  0  0
  -30.4347  -25.3269   19.9493 H   0  0  0  0  0  0
  -30.2440  -24.6465   21.6304 H   0  0  0  0  0  0
  -29.9375  -21.3539   17.6175 H   0  0  0  0  0  0
  -31.1813  -21.9902   19.4513 H   0  0  0  0  0  0
  -28.9653  -23.6027   18.9734 H   0  0  0  0  0  0
  -27.8189  -24.9728   21.6044 H   0  0  0  0  0  0
  -28.0361  -20.6097   21.3400 H   0  0  0  0  0  0
  -27.7197  -21.1383   19.7467 H   0  0  0  0  0  0
  -29.2775  -22.3708   21.7852 H   0  0  0  0  0  0
  -28.9937  -15.6371   21.2827 H   0  0  0  0  0  0
  1 25  1  0  0  0
  1 30  2  0  0  0
  1 88  1  0  0  0
  2  3  1  0  0  0
  2 25  1  0  0  0
  2 89  1  0  0  0
  2 90  1  0  0  0
  3  4  1  0  0  0
  3 91  1  0  0  0
  3 92  1  0  0  0
  4  5  1  0  0  0
  4 93  1  0  0  0
  4 94  1  0  0  0
  5  6  1  0  0  0
  5 26  1  0  0  0
  5 95  1  0  0  0
  6 25  1  0  0  0
  6 96  1  0  0  0
  6 97  1  0  0  0
  7  8  2  0  0  0
  7 26  1  0  0  0
  7 29  1  0  0  0
  8  9  1  0  0  0
  8 22  1  0  0  0
  9 10  1  0  0  0
  9 27  2  0  0  0
 10 11  2  0  0  0
 10 15  1  0  0  0
 11 12  1  0  0  0
 11 98  1  0  0  0
 12 13  2  0  0  0
 12 99  1  0  0  0
 13 14  1  0  0  0
 13 31  1  0  0  0
 14 15  2  0  0  0
 14100  1  0  0  0
 15101  1  0  0  0
 16 17  2  0  0  0
 16 21  1  0  0  0
 16 31  1  0  0  0
 17 18  1  0  0  0
 17102  1  0  0  0
 18 19  2  0  0  0
 18103  1  0  0  0
 19 20  1  0  0  0
 19 24  1  0  0  0
 20 21  2  0  0  0
 20104  1  0  0  0
 21 23  1  0  0  0
 22 28  1  0  0  0
 22 32  2  0  0  0
 26 27  1  0  0  0
 28105  1  0  0  0
 28106  1  0  0  0
 29107  1  0  0  0
 29108  1  0  0  0
 33 34  1  0  0  0
 33 66  1  0  0  0
 33 70  2  0  0  0
 34 36  1  0  0  0
 34 59  1  0  0  0
 34109  1  0  0  0
 35 44  2  0  0  0
 35 45  1  0  0  0
 35 68  1  0  0  0
 36 56  1  0  0  0
 36110  1  0  0  0
 37 39  1  0  0  0
 37 47  1  0  0  0
 37 66  1  0  0  0
 37111  1  0  0  0
 38 43  2  0  0  0
 38 46  1  0  0  0
 38 47  1  0  0  0
 39 64  1  0  0  0
 39 67  2  0  0  0
 40 52  1  0  0  0
 40 53  2  0  0  0
 40 58  1  0  0  0
 41112  1  0  0  0
 41113  1  0  0  0
 41114  1  0  0  0
 41 48  1  0  0  0
 42 43  1  0  0  0
 42 66  1  0  0  0
 42115  1  0  0  0
 42116  1  0  0  0
 43 44  1  0  0  0
 44117  1  0  0  0
 45 46  2  0  0  0
 45118  1  0  0  0
 46119  1  0  0  0
 47120  1  0  0  0
 47121  1  0  0  0
 48 56  1  0  0  0
 48 65  1  0  0  0
 48122  1  0  0  0
 49 50  1  0  0  0
 49 53  1  0  0  0
 49 64  1  0  0  0
 49123  1  0  0  0
 50 51  1  0  0  0
 50124  1  0  0  0
 50125  1  0  0  0
 51 52  1  0  0  0
 51126  1  0  0  0
 51127  1  0  0  0
 52128  1  0  0  0
 52129  1  0  0  0
 53 54  1  0  0  0
 54 55  2  0  0  0
 54130  1  0  0  0
 55 57  1  0  0  0
 55131  1  0  0  0
 56 69  2  0  0  0
 57 58  2  0  0  0
 57132  1  0  0  0
 58133  1  0  0  0
 59 60  1  0  0  0
 59 61  1  0  0  0
 59 62  1  0  0  0
 60134  1  0  0  0
 60135  1  0  0  0
 60136  1  0  0  0
 61137  1  0  0  0
 61138  1  0  0  0
 61139  1  0  0  0
 62140  1  0  0  0
 62141  1  0  0  0
 62142  1  0  0  0
 63 65  1  0  0  0
 63143  1  0  0  0
 63144  1  0  0  0
 63145  1  0  0  0
 64146  1  0  0  0
 65147  1  0  0  0
 68 83  1  0  0  0
 71 74  2  0  0  0
 71 86  1  0  0  0
 71148  1  0  0  0
 72 73  1  0  0  0
 72 86  2  0  0  0
 72 80  1  0  0  0
 73 84  1  0  0  0
 73 87  2  0  0  0
 74 87  1  0  0  0
 74 88  1  0  0  0
 75 76  1  0  0  0
 75 80  1  0  0  0
 75149  1  0  0  0
 75150  1  0  0  0
 76 80  1  0  0  0
 76151  1  0  0  0
 76152  1  0  0  0
 77 78  1  0  0  0
 77153  1  0  0  0
 77154  1  0  0  0
 77 81  1  0  0  0
 78 81  1  0  0  0
 78155  1  0  0  0
 78156  1  0  0  0
 79 83  1  0  0  0
 79157  1  0  0  0
 79158  1  0  0  0
 79 82  1  0  0  0
 80159  1  0  0  0
 81 85  1  0  0  0
 81160  1  0  0  0
 82 83  1  0  0  0
 82 85  1  0  0  0
 82161  1  0  0  0
 83162  1  0  0  0
 84163  1  0  0  0
 84164  1  0  0  0
 84 85  1  0  0  0
 85165  1  0  0  0
 88166  1  0  0  0
M  ISO  4   1 100  68 101  83 101  88 100
M  END
> <chiral flag>
0

> <version>
0

> <s_m_source_file>
/data/baiqing/PycharmProjects/Reinvent-master-3.2/result/LINK_invent/BTK/process_docking_weight1_custom_sum_contain_oxygen_bond_distance_aromatic_linkinvent_7_9_3/rearranged_h_0143.sdf

> <i_m_source_file_index>
41

> <r_mmod_Potential_Energy-OPLS-2005>
351.054718017578

> <r_mmod_Stretch_Energy-OPLS-2005>
139.767974853516

> <r_mmod_Bend_Energy-OPLS-2005>
214.235244750977

> <r_mmod_Torsional_Energy-OPLS-2005>
361.670135498047

> <r_mmod_Improper_Torsional_Energy-OPLS-2005>
5.3440146446228

> <r_mmod_Van_der_Waal_Energy-OPLS-2005>
131.311080932617

> <r_mmod_Electrostatic_Energy-OPLS-2005>
-357.704925537109

> <r_mmod_Solvation_Energy-OPLS-2005>
-214.40771484375

> <b_mmod_Minimization_Converged-OPLS-2005>
0

> <r_mmod_RMS_Derivative-OPLS-2005>
3.44770455360413

$$$$
41
                    3D
 Structure written by MMmdl.
159168  0  0  1  0            999 V2000
  -30.7307  -14.4615   20.5811 C   0  0  0  0  0  0
  -30.4020  -12.2858   19.4433 C   0  0  0  0  0  0
  -29.4954  -12.4904   18.2137 C   0  0  0  0  0  0
  -28.0108  -12.3674   18.6121 C   0  0  0  0  0  0
  -27.6562  -13.2146   19.8654 C   0  0  2  0  0  0
  -28.6944  -13.0266   20.9962 C   0  0  0  0  0  0
  -25.2540  -13.8139   20.5637 C   0  0  0  0  0  0
  -24.1821  -13.0404   20.9153 C   0  0  0  0  0  0
  -24.6392  -11.6879   20.8734 C   0  0  0  0  0  0
  -23.9065  -10.4253   21.0381 C   0  0  0  0  0  0
  -24.3625   -9.4156   21.9168 C   0  0  0  0  0  0
  -23.6283   -8.2203   22.0764 C   0  0  0  0  0  0
  -22.4254   -8.0260   21.3553 C   0  0  0  0  0  0
  -21.9872   -9.0226   20.4659 C   0  0  0  0  0  0
  -22.7213  -10.2098   20.3052 C   0  0  0  0  0  0
  -21.6817   -6.0714   22.5291 C   0  0  0  0  0  0
  -21.3993   -6.5636   23.8213 C   0  0  0  0  0  0
  -21.3683   -5.6806   24.9199 C   0  0  0  0  0  0
  -21.6017   -4.3067   24.7254 C   0  0  0  0  0  0
  -21.8819   -3.8131   23.4380 C   0  0  0  0  0  0
  -21.9181   -4.6932   22.3424 C   0  0  0  0  0  0
  -22.7834  -13.5180   21.1833 C   0  0  0  0  0  0
  -22.1647   -4.2130   21.0996 F   0  0  0  0  0  0
  -21.5640   -3.4552   25.7767 F   0  0  0  0  0  0
  -30.0317  -13.2989   20.4430 N   0  0  0  0  0  0
  -26.3000  -12.9361   20.3263 N   0  0  0  0  0  0
  -25.9320  -11.6514   20.5702 N   0  0  0  0  0  0
  -22.0520  -12.8180   22.0435 N   0  0  0  0  0  0
  -25.4184  -15.1887   20.4130 N   0  0  0  0  0  0
  -31.8555  -14.5993   20.0904 O   0  0  0  0  0  0
  -21.6616   -6.8864   21.4251 O   0  0  0  0  0  0
  -22.3507  -14.5495   20.6678 O   0  0  0  0  0  0
  -24.6109  -31.8681   23.2126 C   0  0  0  0  0  0
  -25.8985  -32.4830   23.8424 C   0  0  1  0  0  0
  -27.2415  -27.4167   20.1023 C   0  0  0  0  0  0
  -25.5839  -33.8640   24.2360 N   0  0  0  0  0  0
  -23.4000  -30.4931   21.5468 C   0  0  2  0  0  0
  -24.8522  -28.9568   20.1184 C   0  0  0  0  0  0
  -22.7384  -29.4671   22.4957 C   0  0  0  0  0  0
  -18.0260  -28.1387   22.8498 C   0  0  0  0  0  0
  -24.1481  -36.7300   23.2654 C   0  0  0  0  0  0
  -25.9287  -30.8351   21.3626 C   0  0  0  0  0  0
  -26.0134  -29.4644   20.7128 C   0  0  0  0  0  0
  -27.2076  -28.7032   20.6997 C   0  0  0  0  0  0
  -26.0496  -26.9184   19.5263 C   0  0  0  0  0  0
  -24.8661  -27.6827   19.5282 C   0  0  0  0  0  0
  -23.6124  -29.8235   20.1628 C   0  0  0  0  0  0
  -25.4099  -36.3101   24.0346 C   0  0  1  0  0  0
  -20.5851  -28.3674   23.1315 C   0  0  2  0  0  0
  -20.6745  -26.9399   22.5430 C   0  0  0  0  0  0
  -19.5730  -26.6387   21.5211 C   0  0  0  0  0  0
  -18.1903  -26.7922   22.1634 C   0  0  0  0  0  0
  -19.1507  -28.8831   23.2911 C   0  0  0  0  0  0
  -18.9440  -30.1438   23.8926 C   0  0  0  0  0  0
  -17.6449  -30.6578   24.0566 C   0  0  0  0  0  0
  -25.9024  -34.9472   23.5151 C   0  0  0  0  0  0
  -16.5339  -29.9090   23.6327 C   0  0  0  0  0  0
  -16.7247  -28.6510   23.0344 C   0  0  0  0  0  0
  -26.4446  -31.6577   25.0721 C   0  0  0  0  0  0
  -25.3728  -31.3657   26.1474 C   0  0  0  0  0  0
  -27.0265  -30.3019   24.6055 C   0  0  0  0  0  0
  -27.6053  -32.4256   25.7462 C   0  0  0  0  0  0
  -27.5545  -37.1832   24.8485 C   0  0  0  0  0  0
  -21.4098  -29.3039   22.3696 N   0  0  0  0  0  0
  -26.4297  -37.3765   23.9365 N   0  0  0  0  0  0
  -24.6637  -31.0792   22.0998 N   0  0  0  0  0  0
  -23.4152  -28.8224   23.2989 O   0  0  0  0  0  0
  -28.4349  -26.7121   20.0932 O   0  0  0  0  0  0
  -26.5593  -34.8912   22.4727 O   0  0  0  0  0  0
  -23.5295  -32.1437   23.7495 O   0  0  0  0  0  0
  -29.2848  -22.3581   19.1135 C   0  0  0  0  0  0
  -29.9344  -23.1737   20.0547 C   0  0  0  0  0  0
  -30.6788  -22.4878   21.0232 C   0  0  0  0  0  0
  -30.1217  -20.4777   20.1000 C   0  0  0  0  0  0
  -30.6844  -16.1327   22.5381 C   0  0  0  0  0  0
  -30.0569  -15.6326   21.2592 C   0  0  1  0  0  0
  -30.7791  -16.9865   21.2972 C   0  0  2  0  0  0
  -30.8219  -23.0094   23.2981 C   0  0  0  0  0  0
  -29.8504  -24.7078   20.0276 C   0  0  0  0  0  0
  -30.0373  -18.3177   21.3022 C   0  0  0  0  0  0
  -28.4140  -25.2786   19.9513 C   0  0  0  0  0  0
  -29.3944  -21.0098   19.1343 N   0  0  0  0  0  0
  -30.7631  -21.1401   21.0511 N   0  0  0  0  0  0
  -30.2069  -19.0974   20.0790 N   0  0  0  0  0  0
  -31.3646  -23.1680   21.9966 O   0  0  0  0  0  0
  -31.4549  -12.3292   19.1653 H   0  0  0  0  0  0
  -30.2451  -11.2856   19.8545 H   0  0  0  0  0  0
  -29.7298  -11.7536   17.4446 H   0  0  0  0  0  0
  -29.6900  -13.4666   17.7698 H   0  0  0  0  0  0
  -27.8043  -11.3150   18.8085 H   0  0  0  0  0  0
  -27.3715  -12.6462   17.7745 H   0  0  0  0  0  0
  -27.6877  -14.2572   19.5523 H   0  0  0  0  0  0
  -28.6512  -12.0075   21.3855 H   0  0  0  0  0  0
  -28.4533  -13.6641   21.8465 H   0  0  0  0  0  0
  -25.2798   -9.5602   22.4724 H   0  0  0  0  0  0
  -23.9971   -7.4585   22.7492 H   0  0  0  0  0  0
  -21.0777   -8.8738   19.9004 H   0  0  0  0  0  0
  -22.3656  -10.9636   19.6157 H   0  0  0  0  0  0
  -21.1984   -7.6152   23.9711 H   0  0  0  0  0  0
  -21.1501   -6.0554   25.9099 H   0  0  0  0  0  0
  -22.0578   -2.7591   23.2892 H   0  0  0  0  0  0
  -22.4159  -11.9836   22.4817 H   0  0  0  0  0  0
  -21.1156  -13.1216   22.2716 H   0  0  0  0  0  0
  -24.6409  -15.8292   20.5282 H   0  0  0  0  0  0
  -26.2698  -15.6463   20.1065 H   0  0  0  0  0  0
  -26.7065  -32.5597   23.1206 H   0  0  0  0  0  0
  -24.9900  -33.9830   25.0437 H   0  0  0  0  0  0
  -22.6850  -31.3075   21.4059 H   0  0  0  0  0  0
  -23.3708  -35.9685   23.3419 H   0  0  0  0  0  0
  -24.3538  -36.8807   22.2043 H   0  0  0  0  0  0
  -23.7312  -37.6568   23.6607 H   0  0  0  0  0  0
  -26.0235  -31.6064   20.5963 H   0  0  0  0  0  0
  -26.8206  -30.9049   21.9740 H   0  0  0  0  0  0
  -28.1037  -29.0902   21.1666 H   0  0  0  0  0  0
  -26.0208  -25.9406   19.0734 H   0  0  0  0  0  0
  -23.9666  -27.2821   19.0821 H   0  0  0  0  0  0
  -23.7157  -30.5986   19.4025 H   0  0  0  0  0  0
  -22.7392  -29.2384   19.8663 H   0  0  0  0  0  0
  -25.1300  -36.1979   25.0847 H   0  0  0  0  0  0
  -20.9969  -28.3247   24.1420 H   0  0  0  0  0  0
  -20.5601  -26.2282   23.3617 H   0  0  0  0  0  0
  -21.6620  -26.7404   22.1247 H   0  0  0  0  0  0
  -19.6891  -25.6303   21.1210 H   0  0  0  0  0  0
  -19.6667  -27.3223   20.6750 H   0  0  0  0  0  0
  -17.4163  -26.6646   21.4032 H   0  0  0  0  0  0
  -18.0331  -26.0055   22.9033 H   0  0  0  0  0  0
  -19.7916  -30.7233   24.2307 H   0  0  0  0  0  0
  -17.5007  -31.6263   24.5155 H   0  0  0  0  0  0
  -15.5346  -30.3007   23.7619 H   0  0  0  0  0  0
  -15.8651  -28.0837   22.7050 H   0  0  0  0  0  0
  -24.5935  -30.6966   25.7798 H   0  0  0  0  0  0
  -24.8886  -32.2806   26.4902 H   0  0  0  0  0  0
  -25.8108  -30.8845   27.0234 H   0  0  0  0  0  0
  -26.2811  -29.6787   24.1097 H   0  0  0  0  0  0
  -27.4028  -29.7223   25.4496 H   0  0  0  0  0  0
  -27.8646  -30.4316   23.9200 H   0  0  0  0  0  0
  -27.2706  -33.3552   26.2071 H   0  0  0  0  0  0
  -28.3851  -32.6800   25.0270 H   0  0  0  0  0  0
  -28.0731  -31.8344   26.5346 H   0  0  0  0  0  0
  -28.2680  -38.0010   24.7357 H   0  0  0  0  0  0
  -28.0929  -36.2536   24.6548 H   0  0  0  0  0  0
  -27.2239  -37.1768   25.8894 H   0  0  0  0  0  0
  -20.9216  -29.8783   21.6980 H   0  0  0  0  0  0
  -26.0191  -38.2869   24.1301 H   0  0  0  0  0  0
  -28.6620  -22.7712   18.3353 H   0  0  0  0  0  0
  -30.0030  -16.4495   23.3237 H   0  0  0  0  0  0
  -31.5987  -15.6537   22.8894 H   0  0  0  0  0  0
  -28.9771  -15.6949   21.1740 H   0  0  0  0  0  0
  -31.7934  -17.0599   20.9033 H   0  0  0  0  0  0
  -31.1621  -23.8263   23.9416 H   0  0  0  0  0  0
  -31.1162  -22.0616   23.7556 H   0  0  0  0  0  0
  -29.7321  -23.0611   23.2604 H   0  0  0  0  0  0
  -30.4398  -25.0703   19.1846 H   0  0  0  0  0  0
  -30.3393  -25.1174   20.9112 H   0  0  0  0  0  0
  -30.3771  -18.8963   22.1636 H   0  0  0  0  0  0
  -28.9740  -18.1324   21.4528 H   0  0  0  0  0  0
  -27.8142  -24.8486   20.7540 H   0  0  0  0  0  0
  -27.9691  -24.9728   19.0067 H   0  0  0  0  0  0
  -29.7221  -18.7023   19.2805 H   0  0  0  0  0  0
  1 25  1  0  0  0
  1 30  2  0  0  0
  1 76  1  0  0  0
  2  3  1  0  0  0
  2 25  1  0  0  0
  2 86  1  0  0  0
  2 87  1  0  0  0
  3  4  1  0  0  0
  3 88  1  0  0  0
  3 89  1  0  0  0
  4  5  1  0  0  0
  4 90  1  0  0  0
  4 91  1  0  0  0
  5  6  1  0  0  0
  5 26  1  0  0  0
  5 92  1  0  0  0
  6 25  1  0  0  0
  6 93  1  0  0  0
  6 94  1  0  0  0
  7  8  2  0  0  0
  7 26  1  0  0  0
  7 29  1  0  0  0
  8  9  1  0  0  0
  8 22  1  0  0  0
  9 10  1  0  0  0
  9 27  2  0  0  0
 10 11  2  0  0  0
 10 15  1  0  0  0
 11 12  1  0  0  0
 11 95  1  0  0  0
 12 13  2  0  0  0
 12 96  1  0  0  0
 13 14  1  0  0  0
 13 31  1  0  0  0
 14 15  2  0  0  0
 14 97  1  0  0  0
 15 98  1  0  0  0
 16 17  2  0  0  0
 16 21  1  0  0  0
 16 31  1  0  0  0
 17 18  1  0  0  0
 17 99  1  0  0  0
 18 19  2  0  0  0
 18100  1  0  0  0
 19 20  1  0  0  0
 19 24  1  0  0  0
 20 21  2  0  0  0
 20101  1  0  0  0
 21 23  1  0  0  0
 22 28  1  0  0  0
 22 32  2  0  0  0
 26 27  1  0  0  0
 28102  1  0  0  0
 28103  1  0  0  0
 29104  1  0  0  0
 29105  1  0  0  0
 33 34  1  0  0  0
 33 66  1  0  0  0
 33 70  2  0  0  0
 34 36  1  0  0  0
 34 59  1  0  0  0
 34106  1  0  0  0
 35 44  2  0  0  0
 35 45  1  0  0  0
 35 68  1  0  0  0
 36 56  1  0  0  0
 36107  1  0  0  0
 37 39  1  0  0  0
 37 47  1  0  0  0
 37 66  1  0  0  0
 37108  1  0  0  0
 38 43  2  0  0  0
 38 46  1  0  0  0
 38 47  1  0  0  0
 39 64  1  0  0  0
 39 67  2  0  0  0
 40 52  1  0  0  0
 40 53  2  0  0  0
 40 58  1  0  0  0
 41109  1  0  0  0
 41110  1  0  0  0
 41111  1  0  0  0
 41 48  1  0  0  0
 42 43  1  0  0  0
 42 66  1  0  0  0
 42112  1  0  0  0
 42113  1  0  0  0
 43 44  1  0  0  0
 44114  1  0  0  0
 45 46  2  0  0  0
 45115  1  0  0  0
 46116  1  0  0  0
 47117  1  0  0  0
 47118  1  0  0  0
 48 56  1  0  0  0
 48 65  1  0  0  0
 48119  1  0  0  0
 49 50  1  0  0  0
 49 53  1  0  0  0
 49 64  1  0  0  0
 49120  1  0  0  0
 50 51  1  0  0  0
 50121  1  0  0  0
 50122  1  0  0  0
 51 52  1  0  0  0
 51123  1  0  0  0
 51124  1  0  0  0
 52125  1  0  0  0
 52126  1  0  0  0
 53 54  1  0  0  0
 54 55  2  0  0  0
 54127  1  0  0  0
 55 57  1  0  0  0
 55128  1  0  0  0
 56 69  2  0  0  0
 57 58  2  0  0  0
 57129  1  0  0  0
 58130  1  0  0  0
 59 60  1  0  0  0
 59 61  1  0  0  0
 59 62  1  0  0  0
 60131  1  0  0  0
 60132  1  0  0  0
 60133  1  0  0  0
 61134  1  0  0  0
 61135  1  0  0  0
 61136  1  0  0  0
 62137  1  0  0  0
 62138  1  0  0  0
 62139  1  0  0  0
 63 65  1  0  0  0
 63140  1  0  0  0
 63141  1  0  0  0
 63142  1  0  0  0
 64143  1  0  0  0
 65144  1  0  0  0
 68 81  1  0  0  0
 71 72  2  0  0  0
 71 82  1  0  0  0
 71145  1  0  0  0
 72 73  1  0  0  0
 72 79  1  0  0  0
 73 83  2  0  0  0
 73 85  1  0  0  0
 74 82  2  0  0  0
 74 83  1  0  0  0
 74 84  1  0  0  0
 75 76  1  0  0  0
 75 77  1  0  0  0
 75146  1  0  0  0
 75147  1  0  0  0
 76 77  1  0  0  0
 76148  1  0  0  0
 77 80  1  0  0  0
 77149  1  0  0  0
 78 85  1  0  0  0
 78150  1  0  0  0
 78151  1  0  0  0
 78152  1  0  0  0
 79 81  1  0  0  0
 79153  1  0  0  0
 79154  1  0  0  0
 80 84  1  0  0  0
 80155  1  0  0  0
 80156  1  0  0  0
 81157  1  0  0  0
 81158  1  0  0  0
 84159  1  0  0  0
M  ISO  4   1 100  68 101  76 100  81 101
M  END
> <chiral flag>
0

> <version>
0

> <s_m_source_file>
/data/baiqing/PycharmProjects/Reinvent-master-3.2/result/LINK_invent/BTK/process_docking_weight1_custom_sum_contain_oxygen_bond_distance_aromatic_linkinvent_7_9_3/rearranged_h_0143.sdf

> <i_m_source_file_index>
42

> <r_mmod_Potential_Energy-OPLS-2005>
-606.515319824219

> <r_mmod_Stretch_Energy-OPLS-2005>
37.6186103820801

> <r_mmod_Bend_Energy-OPLS-2005>
101.475440979004

> <r_mmod_Torsional_Energy-OPLS-2005>
225.976104736328

> <r_mmod_Improper_Torsional_Energy-OPLS-2005>
6.24632024765015

> <r_mmod_Van_der_Waal_Energy-OPLS-2005>
162.274307250977

> <r_mmod_Electrostatic_Energy-OPLS-2005>
-928.042358398438

> <r_mmod_Solvation_Energy-OPLS-2005>
-225.691390991211

> <b_mmod_Minimization_Converged-OPLS-2005>
0

> <r_mmod_RMS_Derivative-OPLS-2005>
5.93542575836182

$$$$
42
                    3D
 Structure written by MMmdl.
163171  0  0  1  0            999 V2000
  -30.7551  -14.4680   20.5175 C   0  0  0  0  0  0
  -30.4018  -12.2924   19.4406 C   0  0  0  0  0  0
  -29.4906  -12.4808   18.2128 C   0  0  0  0  0  0
  -28.0121  -12.3518   18.6246 C   0  0  0  0  0  0
  -27.6499  -13.2184   19.8618 C   0  0  2  0  0  0
  -28.6965  -13.0698   20.9914 C   0  0  0  0  0  0
  -25.2416  -13.8058   20.5581 C   0  0  0  0  0  0
  -24.1760  -13.0341   20.9218 C   0  0  0  0  0  0
  -24.6390  -11.6846   20.8795 C   0  0  0  0  0  0
  -23.9072  -10.4242   21.0438 C   0  0  0  0  0  0
  -24.3617   -9.4156   21.9213 C   0  0  0  0  0  0
  -23.6280   -8.2202   22.0768 C   0  0  0  0  0  0
  -22.4263   -8.0258   21.3549 C   0  0  0  0  0  0
  -21.9911   -9.0236   20.4650 C   0  0  0  0  0  0
  -22.7252  -10.2106   20.3070 C   0  0  0  0  0  0
  -21.6841   -6.0723   22.5280 C   0  0  0  0  0  0
  -21.4006   -6.5634   23.8213 C   0  0  0  0  0  0
  -21.3657   -5.6787   24.9176 C   0  0  0  0  0  0
  -21.6044   -4.3048   24.7231 C   0  0  0  0  0  0
  -21.8819   -3.8140   23.4352 C   0  0  0  0  0  0
  -21.9188   -4.6953   22.3404 C   0  0  0  0  0  0
  -22.7783  -13.5147   21.1865 C   0  0  0  0  0  0
  -22.1657   -4.2139   21.0980 F   0  0  0  0  0  0
  -21.5632   -3.4533   25.7746 F   0  0  0  0  0  0
  -30.0266  -13.3244   20.4200 N   0  0  0  0  0  0
  -26.2951  -12.9340   20.3322 N   0  0  0  0  0  0
  -25.9329  -11.6491   20.5820 N   0  0  0  0  0  0
  -22.0426  -12.8173   22.0436 N   0  0  0  0  0  0
  -25.3820  -15.1721   20.3719 N   0  0  0  0  0  0
  -31.9372  -14.5190   20.1767 O   0  0  0  0  0  0
  -21.6619   -6.8863   21.4241 O   0  0  0  0  0  0
  -22.3484  -14.5464   20.6701 O   0  0  0  0  0  0
  -24.6125  -31.8685   23.2116 C   0  0  0  0  0  0
  -25.9026  -32.4831   23.8411 C   0  0  1  0  0  0
  -27.2382  -27.4569   20.1044 C   0  0  0  0  0  0
  -25.5885  -33.8627   24.2340 N   0  0  0  0  0  0
  -23.4011  -30.4900   21.5508 C   0  0  2  0  0  0
  -24.8503  -28.9560   20.1162 C   0  0  0  0  0  0
  -22.7402  -29.4653   22.5002 C   0  0  0  0  0  0
  -18.0269  -28.1360   22.8480 C   0  0  0  0  0  0
  -24.1492  -36.7327   23.2640 C   0  0  0  0  0  0
  -25.9249  -30.8428   21.3611 C   0  0  0  0  0  0
  -26.0059  -29.4759   20.7142 C   0  0  0  0  0  0
  -27.2053  -28.7317   20.7089 C   0  0  0  0  0  0
  -26.0740  -26.9432   19.5012 C   0  0  0  0  0  0
  -24.8776  -27.6876   19.5062 C   0  0  0  0  0  0
  -23.6101  -29.8194   20.1650 C   0  0  0  0  0  0
  -25.4107  -36.3119   24.0339 C   0  0  1  0  0  0
  -20.5855  -28.3650   23.1316 C   0  0  2  0  0  0
  -20.6760  -26.9389   22.5408 C   0  0  0  0  0  0
  -19.5740  -26.6369   21.5202 C   0  0  0  0  0  0
  -18.1917  -26.7909   22.1609 C   0  0  0  0  0  0
  -19.1515  -28.8821   23.2900 C   0  0  0  0  0  0
  -18.9446  -30.1429   23.8907 C   0  0  0  0  0  0
  -17.6451  -30.6575   24.0555 C   0  0  0  0  0  0
  -25.9024  -34.9480   23.5139 C   0  0  0  0  0  0
  -16.5343  -29.9070   23.6322 C   0  0  0  0  0  0
  -16.7260  -28.6487   23.0338 C   0  0  0  0  0  0
  -26.4464  -31.6605   25.0730 C   0  0  0  0  0  0
  -25.3739  -31.3692   26.1484 C   0  0  0  0  0  0
  -27.0289  -30.3056   24.6072 C   0  0  0  0  0  0
  -27.6045  -32.4323   25.7479 C   0  0  0  0  0  0
  -27.5584  -37.1817   24.8461 C   0  0  0  0  0  0
  -21.4132  -29.3026   22.3738 N   0  0  0  0  0  0
  -26.4296  -37.3795   23.9406 N   0  0  0  0  0  0
  -24.6644  -31.0801   22.1012 N   0  0  0  0  0  0
  -23.4177  -28.8200   23.3043 O   0  0  0  0  0  0
  -28.3960  -26.7215   20.0740 O   0  0  0  0  0  0
  -26.5582  -34.8918   22.4698 O   0  0  0  0  0  0
  -23.5320  -32.1424   23.7522 O   0  0  0  0  0  0
  -27.9270  -19.6544   21.0339 C   0  0  0  0  0  0
  -28.5081  -18.3992   20.7573 C   0  0  0  0  0  0
  -29.8964  -18.2105   20.9868 C   0  0  0  0  0  0
  -30.6070  -19.3220   21.5256 C   0  0  0  0  0  0
  -28.7322  -20.7027   21.4951 C   0  0  0  0  0  0
  -27.6261  -17.3168   20.1790 C   0  0  0  0  0  0
  -32.0925  -19.2676   21.8422 C   0  0  0  0  0  0
  -30.9695  -17.1710   18.9910 C   0  0  0  0  0  0
  -28.1562  -24.4282   21.0510 C   0  0  0  0  0  0
  -29.0038  -23.1233   21.2339 C   0  0  0  0  0  0
  -28.6198  -25.9110   21.2374 C   0  0  0  0  0  0
  -30.6657  -16.9571   20.4949 C   0  0  2  0  0  0
  -30.0384  -20.5284   21.7639 N   0  0  0  0  0  0
  -28.1855  -21.9819   21.6557 N   0  0  0  0  0  0
  -30.0804  -15.6155   20.7508 N   0  0  0  0  0  0
  -31.4505  -12.3453   19.1431 H   0  0  0  0  0  0
  -30.2659  -11.2995   19.8722 H   0  0  0  0  0  0
  -29.7311  -11.7401   17.4491 H   0  0  0  0  0  0
  -29.6673  -13.4573   17.7587 H   0  0  0  0  0  0
  -27.8269  -11.2998   18.8444 H   0  0  0  0  0  0
  -27.3628  -12.6028   17.7850 H   0  0  0  0  0  0
  -27.6715  -14.2550   19.5275 H   0  0  0  0  0  0
  -28.6644  -12.0645   21.4137 H   0  0  0  0  0  0
  -28.4768  -13.7511   21.8148 H   0  0  0  0  0  0
  -25.2761   -9.5623   22.4798 H   0  0  0  0  0  0
  -23.9975   -7.4586   22.7490 H   0  0  0  0  0  0
  -21.0843   -8.8763   19.8954 H   0  0  0  0  0  0
  -22.3725  -10.9652   19.6179 H   0  0  0  0  0  0
  -21.1996   -7.6144   23.9713 H   0  0  0  0  0  0
  -21.1481   -6.0519   25.9077 H   0  0  0  0  0  0
  -22.0605   -2.7603   23.2854 H   0  0  0  0  0  0
  -22.4031  -11.9839   22.4847 H   0  0  0  0  0  0
  -21.1052  -13.1223   22.2645 H   0  0  0  0  0  0
  -24.5785  -15.7885   20.4216 H   0  0  0  0  0  0
  -26.1751  -15.5896   19.9078 H   0  0  0  0  0  0
  -26.7115  -32.5558   23.1196 H   0  0  0  0  0  0
  -25.0058  -33.9801   25.0498 H   0  0  0  0  0  0
  -22.6902  -31.3065   21.4116 H   0  0  0  0  0  0
  -23.3739  -35.9678   23.3311 H   0  0  0  0  0  0
  -24.3590  -36.8919   22.2054 H   0  0  0  0  0  0
  -23.7256  -37.6539   23.6642 H   0  0  0  0  0  0
  -26.0291  -31.6107   20.5929 H   0  0  0  0  0  0
  -26.8150  -30.9009   21.9761 H   0  0  0  0  0  0
  -28.0996  -29.1291   21.1676 H   0  0  0  0  0  0
  -26.0957  -25.9692   19.0324 H   0  0  0  0  0  0
  -23.9901  -27.2820   19.0399 H   0  0  0  0  0  0
  -23.7194  -30.5935   19.4047 H   0  0  0  0  0  0
  -22.7362  -29.2359   19.8697 H   0  0  0  0  0  0
  -25.1288  -36.1992   25.0831 H   0  0  0  0  0  0
  -20.9945  -28.3215   24.1434 H   0  0  0  0  0  0
  -20.5653  -26.2258   23.3593 H   0  0  0  0  0  0
  -21.6636  -26.7432   22.1209 H   0  0  0  0  0  0
  -19.6906  -25.6281   21.1218 H   0  0  0  0  0  0
  -19.6684  -27.3188   20.6737 H   0  0  0  0  0  0
  -17.4191  -26.6653   21.4008 H   0  0  0  0  0  0
  -18.0330  -26.0045   22.8996 H   0  0  0  0  0  0
  -19.7931  -30.7229   24.2282 H   0  0  0  0  0  0
  -17.5012  -31.6257   24.5151 H   0  0  0  0  0  0
  -15.5344  -30.2971   23.7641 H   0  0  0  0  0  0
  -15.8659  -28.0813   22.7038 H   0  0  0  0  0  0
  -24.5914  -30.7034   25.7822 H   0  0  0  0  0  0
  -24.8935  -32.2841   26.4962 H   0  0  0  0  0  0
  -25.8110  -30.8847   27.0224 H   0  0  0  0  0  0
  -26.2821  -29.6820   24.1143 H   0  0  0  0  0  0
  -27.4087  -29.7283   25.4507 H   0  0  0  0  0  0
  -27.8640  -30.4383   23.9190 H   0  0  0  0  0  0
  -27.2668  -33.3612   26.2084 H   0  0  0  0  0  0
  -28.3834  -32.6891   25.0290 H   0  0  0  0  0  0
  -28.0733  -31.8430   26.5370 H   0  0  0  0  0  0
  -28.2602  -38.0115   24.7508 H   0  0  0  0  0  0
  -28.1077  -36.2640   24.6290 H   0  0  0  0  0  0
  -27.2303  -37.1473   25.8865 H   0  0  0  0  0  0
  -20.9288  -29.8752   21.6964 H   0  0  0  0  0  0
  -26.0190  -38.2875   24.1396 H   0  0  0  0  0  0
  -26.8763  -19.8196   20.8359 H   0  0  0  0  0  0
  -26.6224  -17.6925   19.9803 H   0  0  0  0  0  0
  -27.5451  -16.5078   20.9024 H   0  0  0  0  0  0
  -28.0165  -16.9247   19.2409 H   0  0  0  0  0  0
  -32.6753  -19.0682   20.9430 H   0  0  0  0  0  0
  -32.2972  -18.4849   22.5730 H   0  0  0  0  0  0
  -32.4483  -20.2071   22.2673 H   0  0  0  0  0  0
  -31.4921  -18.1154   18.8336 H   0  0  0  0  0  0
  -30.0638  -17.2028   18.3876 H   0  0  0  0  0  0
  -31.6059  -16.3961   18.5674 H   0  0  0  0  0  0
  -28.8244  -24.5425   20.1977 H   0  0  0  0  0  0
  -28.2165  -24.4267   22.1414 H   0  0  0  0  0  0
  -29.8108  -23.2714   21.9570 H   0  0  0  0  0  0
  -29.5080  -22.8142   20.3112 H   0  0  0  0  0  0
  -29.6873  -25.9513   21.4684 H   0  0  0  0  0  0
  -28.1309  -26.3833   22.0965 H   0  0  0  0  0  0
  -31.6233  -16.9299   21.0141 H   0  0  0  0  0  0
  -27.1994  -22.0525   21.4283 H   0  0  0  0  0  0
  -29.1079  -15.5470   21.0045 H   0  0  0  0  0  0
  1 25  1  0  0  0
  1 30  2  0  0  0
  1 85  1  0  0  0
  2  3  1  0  0  0
  2 25  1  0  0  0
  2 86  1  0  0  0
  2 87  1  0  0  0
  3  4  1  0  0  0
  3 88  1  0  0  0
  3 89  1  0  0  0
  4  5  1  0  0  0
  4 90  1  0  0  0
  4 91  1  0  0  0
  5  6  1  0  0  0
  5 26  1  0  0  0
  5 92  1  0  0  0
  6 25  1  0  0  0
  6 93  1  0  0  0
  6 94  1  0  0  0
  7  8  2  0  0  0
  7 26  1  0  0  0
  7 29  1  0  0  0
  8  9  1  0  0  0
  8 22  1  0  0  0
  9 10  1  0  0  0
  9 27  2  0  0  0
 10 11  2  0  0  0
 10 15  1  0  0  0
 11 12  1  0  0  0
 11 95  1  0  0  0
 12 13  2  0  0  0
 12 96  1  0  0  0
 13 14  1  0  0  0
 13 31  1  0  0  0
 14 15  2  0  0  0
 14 97  1  0  0  0
 15 98  1  0  0  0
 16 17  2  0  0  0
 16 21  1  0  0  0
 16 31  1  0  0  0
 17 18  1  0  0  0
 17 99  1  0  0  0
 18 19  2  0  0  0
 18100  1  0  0  0
 19 20  1  0  0  0
 19 24  1  0  0  0
 20 21  2  0  0  0
 20101  1  0  0  0
 21 23  1  0  0  0
 22 28  1  0  0  0
 22 32  2  0  0  0
 26 27  1  0  0  0
 28102  1  0  0  0
 28103  1  0  0  0
 29104  1  0  0  0
 29105  1  0  0  0
 33 34  1  0  0  0
 33 66  1  0  0  0
 33 70  2  0  0  0
 34 36  1  0  0  0
 34 59  1  0  0  0
 34106  1  0  0  0
 35 44  2  0  0  0
 35 45  1  0  0  0
 35 68  1  0  0  0
 36 56  1  0  0  0
 36107  1  0  0  0
 37 39  1  0  0  0
 37 47  1  0  0  0
 37 66  1  0  0  0
 37108  1  0  0  0
 38 43  2  0  0  0
 38 46  1  0  0  0
 38 47  1  0  0  0
 39 64  1  0  0  0
 39 67  2  0  0  0
 40 52  1  0  0  0
 40 53  2  0  0  0
 40 58  1  0  0  0
 41109  1  0  0  0
 41110  1  0  0  0
 41111  1  0  0  0
 41 48  1  0  0  0
 42 43  1  0  0  0
 42 66  1  0  0  0
 42112  1  0  0  0
 42113  1  0  0  0
 43 44  1  0  0  0
 44114  1  0  0  0
 45 46  2  0  0  0
 45115  1  0  0  0
 46116  1  0  0  0
 47117  1  0  0  0
 47118  1  0  0  0
 48 56  1  0  0  0
 48 65  1  0  0  0
 48119  1  0  0  0
 49 50  1  0  0  0
 49 53  1  0  0  0
 49 64  1  0  0  0
 49120  1  0  0  0
 50 51  1  0  0  0
 50121  1  0  0  0
 50122  1  0  0  0
 51 52  1  0  0  0
 51123  1  0  0  0
 51124  1  0  0  0
 52125  1  0  0  0
 52126  1  0  0  0
 53 54  1  0  0  0
 54 55  2  0  0  0
 54127  1  0  0  0
 55 57  1  0  0  0
 55128  1  0  0  0
 56 69  2  0  0  0
 57 58  2  0  0  0
 57129  1  0  0  0
 58130  1  0  0  0
 59 60  1  0  0  0
 59 61  1  0  0  0
 59 62  1  0  0  0
 60131  1  0  0  0
 60132  1  0  0  0
 60133  1  0  0  0
 61134  1  0  0  0
 61135  1  0  0  0
 61136  1  0  0  0
 62137  1  0  0  0
 62138  1  0  0  0
 62139  1  0  0  0
 63 65  1  0  0  0
 63140  1  0  0  0
 63141  1  0  0  0
 63142  1  0  0  0
 64143  1  0  0  0
 65144  1  0  0  0
 68 81  1  0  0  0
 71 72  2  0  0  0
 71 75  1  0  0  0
 71145  1  0  0  0
 72 73  1  0  0  0
 72 76  1  0  0  0
 73 74  2  0  0  0
 73 82  1  0  0  0
 74 77  1  0  0  0
 74 83  1  0  0  0
 75 83  2  0  0  0
 75 84  1  0  0  0
 76146  1  0  0  0
 76147  1  0  0  0
 76148  1  0  0  0
 77149  1  0  0  0
 77150  1  0  0  0
 77151  1  0  0  0
 78152  1  0  0  0
 78153  1  0  0  0
 78154  1  0  0  0
 78 82  1  0  0  0
 79 80  1  0  0  0
 79 81  1  0  0  0
 79155  1  0  0  0
 79156  1  0  0  0
 80 84  1  0  0  0
 80157  1  0  0  0
 80158  1  0  0  0
 81159  1  0  0  0
 81160  1  0  0  0
 82 85  1  0  0  0
 82161  1  0  0  0
 84162  1  0  0  0
 85163  1  0  0  0
M  ISO  4   1 100  68 101  81 101  85 100
M  END
> <chiral flag>
0

> <version>
0

> <s_m_source_file>
/data/baiqing/PycharmProjects/Reinvent-master-3.2/result/LINK_invent/BTK/process_docking_weight1_custom_sum_contain_oxygen_bond_distance_aromatic_linkinvent_7_9_3/rearranged_h_0143.sdf

> <i_m_source_file_index>
43

> <r_mmod_Potential_Energy-OPLS-2005>
35.7992935180664

> <r_mmod_Stretch_Energy-OPLS-2005>
41.0021743774414

> <r_mmod_Bend_Energy-OPLS-2005>
326.326568603516

> <r_mmod_Torsional_Energy-OPLS-2005>
241.256149291992

> <r_mmod_Improper_Torsional_Energy-OPLS-2005>
11.4025793075562

> <r_mmod_Van_der_Waal_Energy-OPLS-2005>
178.753189086914

> <r_mmod_Electrostatic_Energy-OPLS-2005>
-552.877014160156

> <r_mmod_Solvation_Energy-OPLS-2005>
-230.310455322266

> <b_mmod_Minimization_Converged-OPLS-2005>
0

> <r_mmod_RMS_Derivative-OPLS-2005>
1.36212599277496

$$$$
43
                    3D
 Structure written by MMmdl.
173183  0  0  1  0            999 V2000
  -30.7598  -14.4695   20.4987 C   0  0  0  0  0  0
  -30.4063  -12.2865   19.4390 C   0  0  0  0  0  0
  -29.4899  -12.4716   18.2141 C   0  0  0  0  0  0
  -28.0115  -12.3533   18.6282 C   0  0  0  0  0  0
  -27.6571  -13.2191   19.8680 C   0  0  2  0  0  0
  -28.7055  -13.0617   20.9944 C   0  0  0  0  0  0
  -25.2574  -13.8200   20.5713 C   0  0  0  0  0  0
  -24.1825  -13.0458   20.9209 C   0  0  0  0  0  0
  -24.6399  -11.6932   20.8771 C   0  0  0  0  0  0
  -23.9068  -10.4312   21.0425 C   0  0  0  0  0  0
  -24.3615   -9.4222   21.9201 C   0  0  0  0  0  0
  -23.6291   -8.2255   22.0762 C   0  0  0  0  0  0
  -22.4279   -8.0289   21.3548 C   0  0  0  0  0  0
  -21.9913   -9.0272   20.4658 C   0  0  0  0  0  0
  -22.7239  -10.2153   20.3075 C   0  0  0  0  0  0
  -21.6851   -6.0738   22.5278 C   0  0  0  0  0  0
  -21.4015   -6.5645   23.8213 C   0  0  0  0  0  0
  -21.3660   -5.6797   24.9179 C   0  0  0  0  0  0
  -21.6040   -4.3057   24.7226 C   0  0  0  0  0  0
  -21.8819   -3.8151   23.4348 C   0  0  0  0  0  0
  -21.9196   -4.6968   22.3408 C   0  0  0  0  0  0
  -22.7851  -13.5263   21.1849 C   0  0  0  0  0  0
  -22.1662   -4.2152   21.0982 F   0  0  0  0  0  0
  -21.5630   -3.4544   25.7740 F   0  0  0  0  0  0
  -30.0336  -13.3193   20.4203 N   0  0  0  0  0  0
  -26.3013  -12.9392   20.3397 N   0  0  0  0  0  0
  -25.9335  -11.6539   20.5815 N   0  0  0  0  0  0
  -22.0464  -12.8271   22.0398 N   0  0  0  0  0  0
  -25.4279  -15.1917   20.4092 N   0  0  0  0  0  0
  -31.9341  -14.4953   20.1300 O   0  0  0  0  0  0
  -21.6641   -6.8883   21.4239 O   0  0  0  0  0  0
  -22.3547  -14.5564   20.6684 O   0  0  0  0  0  0
  -24.6111  -31.8679   23.2116 C   0  0  0  0  0  0
  -25.9011  -32.4819   23.8411 C   0  0  1  0  0  0
  -27.2453  -27.4473   20.0986 C   0  0  0  0  0  0
  -25.5888  -33.8613   24.2347 N   0  0  0  0  0  0
  -23.3988  -30.4884   21.5508 C   0  0  2  0  0  0
  -24.8468  -28.9529   20.1129 C   0  0  0  0  0  0
  -22.7390  -29.4626   22.5007 C   0  0  0  0  0  0
  -18.0262  -28.1334   22.8500 C   0  0  0  0  0  0
  -24.1487  -36.7324   23.2644 C   0  0  0  0  0  0
  -25.9229  -30.8383   21.3594 C   0  0  0  0  0  0
  -26.0028  -29.4722   20.7080 C   0  0  0  0  0  0
  -27.1992  -28.7257   20.6965 C   0  0  0  0  0  0
  -26.0798  -26.9479   19.4754 C   0  0  0  0  0  0
  -24.8796  -27.6886   19.4958 C   0  0  0  0  0  0
  -23.6068  -29.8163   20.1660 C   0  0  0  0  0  0
  -25.4099  -36.3109   24.0351 C   0  0  1  0  0  0
  -20.5853  -28.3614   23.1346 C   0  0  2  0  0  0
  -20.6727  -26.9348   22.5437 C   0  0  0  0  0  0
  -19.5714  -26.6351   21.5215 C   0  0  0  0  0  0
  -18.1890  -26.7889   22.1618 C   0  0  0  0  0  0
  -19.1512  -28.8791   23.2921 C   0  0  0  0  0  0
  -18.9437  -30.1405   23.8911 C   0  0  0  0  0  0
  -17.6436  -30.6551   24.0550 C   0  0  0  0  0  0
  -25.9025  -34.9470   23.5141 C   0  0  0  0  0  0
  -16.5331  -29.9052   23.6311 C   0  0  0  0  0  0
  -16.7246  -28.6467   23.0343 C   0  0  0  0  0  0
  -26.4448  -31.6587   25.0728 C   0  0  0  0  0  0
  -25.3782  -31.3665   26.1546 C   0  0  0  0  0  0
  -27.0244  -30.3028   24.6052 C   0  0  0  0  0  0
  -27.6026  -32.4318   25.7475 C   0  0  0  0  0  0
  -27.5576  -37.1821   24.8472 C   0  0  0  0  0  0
  -21.4115  -29.3012   22.3775 N   0  0  0  0  0  0
  -26.4287  -37.3795   23.9416 N   0  0  0  0  0  0
  -24.6625  -31.0793   22.0996 N   0  0  0  0  0  0
  -23.4181  -28.8159   23.3025 O   0  0  0  0  0  0
  -28.4452  -26.7661   20.1438 O   0  0  0  0  0  0
  -26.5576  -34.8913   22.4697 O   0  0  0  0  0  0
  -23.5315  -32.1413   23.7540 O   0  0  0  0  0  0
  -31.2026  -19.5873   19.9261 C   0  0  0  0  0  0
  -29.5300  -17.9760   20.6077 C   0  0  0  0  0  0
  -29.8680  -19.3111   20.2886 C   0  0  0  0  0  0
  -32.1325  -18.5383   19.9255 C   0  0  0  0  0  0
  -30.5080  -16.9539   20.5572 C   0  0  0  0  0  0
  -33.6961  -18.4225   16.9329 C   0  0  0  0  0  0
  -35.1228  -18.3762   17.4235 C   0  0  0  0  0  0
  -27.8043  -23.1027   21.1946 C   0  0  0  0  0  0
  -27.7297  -23.4398   18.6374 C   0  0  0  0  0  0
  -27.5160  -24.6179   21.1421 C   0  0  0  0  0  0
  -28.6211  -24.6852   18.7971 C   0  0  0  0  0  0
  -27.8537  -22.4209   19.7984 C   0  0  1  0  0  0
  -33.9952  -17.9411   18.3343 C   0  0  0  0  0  0
  -28.5087  -25.3321   20.1930 C   0  0  2  0  0  0
  -34.5443  -18.5437   20.7312 C   0  0  0  0  0  0
  -29.0815  -21.4953   19.6349 C   0  0  0  0  0  0
  -33.5939  -18.7723   19.5462 C   0  0  2  0  0  0
  -31.7877  -17.2779   20.2535 N   0  0  0  0  0  0
  -30.0836  -15.6023   20.8022 N   0  0  0  0  0  0
  -28.8789  -20.2747   20.3532 O   0  0  0  0  0  0
  -31.4525  -12.3395   19.1300 H   0  0  0  0  0  0
  -30.2795  -11.2934   19.8735 H   0  0  0  0  0  0
  -29.7232  -11.7225   17.4562 H   0  0  0  0  0  0
  -29.6728  -13.4442   17.7535 H   0  0  0  0  0  0
  -27.8181  -11.3023   18.8456 H   0  0  0  0  0  0
  -27.3634  -12.6149   17.7914 H   0  0  0  0  0  0
  -27.6848  -14.2584   19.5385 H   0  0  0  0  0  0
  -28.6760  -12.0516   21.4066 H   0  0  0  0  0  0
  -28.4896  -13.7328   21.8276 H   0  0  0  0  0  0
  -25.2753   -9.5700   22.4788 H   0  0  0  0  0  0
  -24.0000   -7.4644   22.7486 H   0  0  0  0  0  0
  -21.0841   -8.8794   19.8967 H   0  0  0  0  0  0
  -22.3691  -10.9700   19.6195 H   0  0  0  0  0  0
  -21.2002   -7.6151   23.9716 H   0  0  0  0  0  0
  -21.1481   -6.0528   25.9078 H   0  0  0  0  0  0
  -22.0597   -2.7611   23.2850 H   0  0  0  0  0  0
  -22.4035  -11.9930   22.4809 H   0  0  0  0  0  0
  -21.1094  -13.1345   22.2590 H   0  0  0  0  0  0
  -24.6607  -15.8464   20.5163 H   0  0  0  0  0  0
  -26.2717  -15.6274   20.0590 H   0  0  0  0  0  0
  -26.7073  -32.5514   23.1175 H   0  0  0  0  0  0
  -25.0083  -33.9783   25.0523 H   0  0  0  0  0  0
  -22.6859  -31.3032   21.4116 H   0  0  0  0  0  0
  -23.3726  -35.9689   23.3339 H   0  0  0  0  0  0
  -24.3582  -36.8889   22.2052 H   0  0  0  0  0  0
  -23.7267  -37.6553   23.6622 H   0  0  0  0  0  0
  -26.0325  -31.6061   20.5928 H   0  0  0  0  0  0
  -26.8132  -30.8962   21.9742 H   0  0  0  0  0  0
  -28.0922  -29.1236   21.1595 H   0  0  0  0  0  0
  -26.0902  -25.9925   18.9729 H   0  0  0  0  0  0
  -23.9910  -27.2865   19.0287 H   0  0  0  0  0  0
  -23.7100  -30.5903   19.4063 H   0  0  0  0  0  0
  -22.7321  -29.2351   19.8678 H   0  0  0  0  0  0
  -25.1271  -36.1983   25.0845 H   0  0  0  0  0  0
  -20.9944  -28.3149   24.1475 H   0  0  0  0  0  0
  -20.5571  -26.2215   23.3621 H   0  0  0  0  0  0
  -21.6595  -26.7344   22.1264 H   0  0  0  0  0  0
  -19.6861  -25.6272   21.1212 H   0  0  0  0  0  0
  -19.6649  -27.3185   20.6764 H   0  0  0  0  0  0
  -17.4170  -26.6674   21.4008 H   0  0  0  0  0  0
  -18.0265  -26.0007   22.8981 H   0  0  0  0  0  0
  -19.7908  -30.7215   24.2292 H   0  0  0  0  0  0
  -17.4984  -31.6235   24.5135 H   0  0  0  0  0  0
  -15.5322  -30.2946   23.7620 H   0  0  0  0  0  0
  -15.8653  -28.0776   22.7054 H   0  0  0  0  0  0
  -24.5956  -30.6976   25.7949 H   0  0  0  0  0  0
  -24.8989  -32.2805   26.5059 H   0  0  0  0  0  0
  -25.8253  -30.8836   27.0256 H   0  0  0  0  0  0
  -26.2738  -29.6828   24.1140 H   0  0  0  0  0  0
  -27.4047  -29.7215   25.4460 H   0  0  0  0  0  0
  -27.8569  -30.4330   23.9141 H   0  0  0  0  0  0
  -27.2608  -33.3576   26.2113 H   0  0  0  0  0  0
  -28.3793  -32.6959   25.0290 H   0  0  0  0  0  0
  -28.0750  -31.8434   26.5349 H   0  0  0  0  0  0
  -28.2625  -38.0082   24.7460 H   0  0  0  0  0  0
  -28.1027  -36.2612   24.6350 H   0  0  0  0  0  0
  -27.2302  -37.1551   25.8879 H   0  0  0  0  0  0
  -20.9267  -29.8780   21.7050 H   0  0  0  0  0  0
  -26.0174  -38.2882   24.1389 H   0  0  0  0  0  0
  -31.5384  -20.5788   19.6613 H   0  0  0  0  0  0
  -28.5060  -17.7435   20.8638 H   0  0  0  0  0  0
  -33.3834  -17.6748   16.2069 H   0  0  0  0  0  0
  -33.2360  -19.4024   16.8209 H   0  0  0  0  0  0
  -35.6104  -19.3249   17.6387 H   0  0  0  0  0  0
  -35.7704  -17.6012   17.0172 H   0  0  0  0  0  0
  -27.0456  -22.6135   21.8086 H   0  0  0  0  0  0
  -28.7441  -22.9464   21.7256 H   0  0  0  0  0  0
  -27.9309  -22.9571   17.6809 H   0  0  0  0  0  0
  -26.6938  -23.7661   18.5754 H   0  0  0  0  0  0
  -27.5823  -25.0447   22.1407 H   0  0  0  0  0  0
  -26.4824  -24.7566   20.8309 H   0  0  0  0  0  0
  -28.3811  -25.4164   18.0235 H   0  0  0  0  0  0
  -29.6617  -24.4025   18.6224 H   0  0  0  0  0  0
  -26.9716  -21.7830   19.7163 H   0  0  0  0  0  0
  -33.9114  -16.8673   18.4939 H   0  0  0  0  0  0
  -29.4808  -25.1632   20.6593 H   0  0  0  0  0  0
  -34.2766  -19.1808   21.5736 H   0  0  0  0  0  0
  -35.5747  -18.7725   20.4573 H   0  0  0  0  0  0
  -34.5108  -17.5086   21.0713 H   0  0  0  0  0  0
  -29.9750  -22.0257   19.9668 H   0  0  0  0  0  0
  -29.2250  -21.2530   18.5800 H   0  0  0  0  0  0
  -33.6934  -19.8206   19.2596 H   0  0  0  0  0  0
  -29.1208  -15.4774   21.0633 H   0  0  0  0  0  0
  1 25  1  0  0  0
  1 30  2  0  0  0
  1 89  1  0  0  0
  2  3  1  0  0  0
  2 25  1  0  0  0
  2 91  1  0  0  0
  2 92  1  0  0  0
  3  4  1  0  0  0
  3 93  1  0  0  0
  3 94  1  0  0  0
  4  5  1  0  0  0
  4 95  1  0  0  0
  4 96  1  0  0  0
  5  6  1  0  0  0
  5 26  1  0  0  0
  5 97  1  0  0  0
  6 25  1  0  0  0
  6 98  1  0  0  0
  6 99  1  0  0  0
  7  8  2  0  0  0
  7 26  1  0  0  0
  7 29  1  0  0  0
  8  9  1  0  0  0
  8 22  1  0  0  0
  9 10  1  0  0  0
  9 27  2  0  0  0
 10 11  2  0  0  0
 10 15  1  0  0  0
 11 12  1  0  0  0
 11100  1  0  0  0
 12 13  2  0  0  0
 12101  1  0  0  0
 13 14  1  0  0  0
 13 31  1  0  0  0
 14 15  2  0  0  0
 14102  1  0  0  0
 15103  1  0  0  0
 16 17  2  0  0  0
 16 21  1  0  0  0
 16 31  1  0  0  0
 17 18  1  0  0  0
 17104  1  0  0  0
 18 19  2  0  0  0
 18105  1  0  0  0
 19 20  1  0  0  0
 19 24  1  0  0  0
 20 21  2  0  0  0
 20106  1  0  0  0
 21 23  1  0  0  0
 22 28  1  0  0  0
 22 32  2  0  0  0
 26 27  1  0  0  0
 28107  1  0  0  0
 28108  1  0  0  0
 29109  1  0  0  0
 29110  1  0  0  0
 33 34  1  0  0  0
 33 66  1  0  0  0
 33 70  2  0  0  0
 34 36  1  0  0  0
 34 59  1  0  0  0
 34111  1  0  0  0
 35 44  2  0  0  0
 35 45  1  0  0  0
 35 68  1  0  0  0
 36 56  1  0  0  0
 36112  1  0  0  0
 37 39  1  0  0  0
 37 47  1  0  0  0
 37 66  1  0  0  0
 37113  1  0  0  0
 38 43  2  0  0  0
 38 46  1  0  0  0
 38 47  1  0  0  0
 39 64  1  0  0  0
 39 67  2  0  0  0
 40 52  1  0  0  0
 40 53  2  0  0  0
 40 58  1  0  0  0
 41114  1  0  0  0
 41115  1  0  0  0
 41116  1  0  0  0
 41 48  1  0  0  0
 42 43  1  0  0  0
 42 66  1  0  0  0
 42117  1  0  0  0
 42118  1  0  0  0
 43 44  1  0  0  0
 44119  1  0  0  0
 45 46  2  0  0  0
 45120  1  0  0  0
 46121  1  0  0  0
 47122  1  0  0  0
 47123  1  0  0  0
 48 56  1  0  0  0
 48 65  1  0  0  0
 48124  1  0  0  0
 49 50  1  0  0  0
 49 53  1  0  0  0
 49 64  1  0  0  0
 49125  1  0  0  0
 50 51  1  0  0  0
 50126  1  0  0  0
 50127  1  0  0  0
 51 52  1  0  0  0
 51128  1  0  0  0
 51129  1  0  0  0
 52130  1  0  0  0
 52131  1  0  0  0
 53 54  1  0  0  0
 54 55  2  0  0  0
 54132  1  0  0  0
 55 57  1  0  0  0
 55133  1  0  0  0
 56 69  2  0  0  0
 57 58  2  0  0  0
 57134  1  0  0  0
 58135  1  0  0  0
 59 60  1  0  0  0
 59 61  1  0  0  0
 59 62  1  0  0  0
 60136  1  0  0  0
 60137  1  0  0  0
 60138  1  0  0  0
 61139  1  0  0  0
 61140  1  0  0  0
 61141  1  0  0  0
 62142  1  0  0  0
 62143  1  0  0  0
 62144  1  0  0  0
 63 65  1  0  0  0
 63145  1  0  0  0
 63146  1  0  0  0
 63147  1  0  0  0
 64148  1  0  0  0
 65149  1  0  0  0
 68 84  1  0  0  0
 71 73  2  0  0  0
 71 74  1  0  0  0
 71150  1  0  0  0
 72 73  1  0  0  0
 72 75  2  0  0  0
 72151  1  0  0  0
 73 90  1  0  0  0
 74 87  1  0  0  0
 74 88  2  0  0  0
 75 88  1  0  0  0
 75 89  1  0  0  0
 76 77  1  0  0  0
 76152  1  0  0  0
 76153  1  0  0  0
 76 83  1  0  0  0
 77 83  1  0  0  0
 77154  1  0  0  0
 77155  1  0  0  0
 78 80  1  0  0  0
 78 82  1  0  0  0
 78156  1  0  0  0
 78157  1  0  0  0
 79 81  1  0  0  0
 79 82  1  0  0  0
 79158  1  0  0  0
 79159  1  0  0  0
 80 84  1  0  0  0
 80160  1  0  0  0
 80161  1  0  0  0
 81 84  1  0  0  0
 81162  1  0  0  0
 81163  1  0  0  0
 82 86  1  0  0  0
 82164  1  0  0  0
 83 87  1  0  0  0
 83165  1  0  0  0
 84166  1  0  0  0
 85167  1  0  0  0
 85168  1  0  0  0
 85169  1  0  0  0
 85 87  1  0  0  0
 86 90  1  0  0  0
 86170  1  0  0  0
 86171  1  0  0  0
 87172  1  0  0  0
 89173  1  0  0  0
M  ISO  4   1 100  68 101  84 101  89 100
M  END
> <chiral flag>
0

> <version>
0

> <s_m_source_file>
/data/baiqing/PycharmProjects/Reinvent-master-3.2/result/LINK_invent/BTK/process_docking_weight1_custom_sum_contain_oxygen_bond_distance_aromatic_linkinvent_7_9_3/rearranged_h_0143.sdf

> <i_m_source_file_index>
44

> <r_mmod_Potential_Energy-OPLS-2005>
-78.0796508789062

> <r_mmod_Stretch_Energy-OPLS-2005>
39.4330139160156

> <r_mmod_Bend_Energy-OPLS-2005>
127.490425109863

> <r_mmod_Torsional_Energy-OPLS-2005>
286.359649658203

> <r_mmod_Improper_Torsional_Energy-OPLS-2005>
4.76063776016235

> <r_mmod_Van_der_Waal_Energy-OPLS-2005>
166.013854980469

> <r_mmod_Electrostatic_Energy-OPLS-2005>
-502.232421875

> <r_mmod_Solvation_Energy-OPLS-2005>
-221.891479492188

> <b_mmod_Minimization_Converged-OPLS-2005>
0

> <r_mmod_RMS_Derivative-OPLS-2005>
2.8418116569519

$$$$
44
                    3D
 Structure written by MMmdl.
163172  0  0  1  0            999 V2000
  -30.6148  -14.9322   20.4055 C   0  0  0  0  0  0
  -30.4336  -12.5801   19.4858 C   0  0  0  0  0  0
  -29.5257  -12.5226   18.2403 C   0  0  0  0  0  0
  -28.0567  -12.3168   18.6559 C   0  0  0  0  0  0
  -27.6306  -13.2554   19.8186 C   0  0  2  0  0  0
  -28.6784  -13.3259   20.9500 C   0  0  0  0  0  0
  -25.2530  -13.8227   20.5705 C   0  0  0  0  0  0
  -24.1852  -13.0469   20.9210 C   0  0  0  0  0  0
  -24.6463  -11.6943   20.8719 C   0  0  0  0  0  0
  -23.9138  -10.4317   21.0383 C   0  0  0  0  0  0
  -24.3687   -9.4222   21.9168 C   0  0  0  0  0  0
  -23.6364   -8.2260   22.0720 C   0  0  0  0  0  0
  -22.4334   -8.0303   21.3536 C   0  0  0  0  0  0
  -21.9979   -9.0270   20.4639 C   0  0  0  0  0  0
  -22.7298  -10.2154   20.3045 C   0  0  0  0  0  0
  -21.6862   -6.0759   22.5292 C   0  0  0  0  0  0
  -21.3994   -6.5661   23.8220 C   0  0  0  0  0  0
  -21.3671   -5.6805   24.9201 C   0  0  0  0  0  0
  -21.6056   -4.3072   24.7232 C   0  0  0  0  0  0
  -21.8821   -3.8161   23.4343 C   0  0  0  0  0  0
  -21.9202   -4.6979   22.3413 C   0  0  0  0  0  0
  -22.7882  -13.5239   21.1904 C   0  0  0  0  0  0
  -22.1676   -4.2175   21.0985 F   0  0  0  0  0  0
  -21.5653   -3.4559   25.7741 F   0  0  0  0  0  0
  -29.9507  -13.7092   20.3276 N   0  0  0  0  0  0
  -26.2946  -12.9466   20.3179 N   0  0  0  0  0  0
  -25.9402  -11.6591   20.5678 N   0  0  0  0  0  0
  -22.0532  -12.8188   22.0418 N   0  0  0  0  0  0
  -25.4304  -15.1954   20.4164 N   0  0  0  0  0  0
  -31.8435  -14.8898   20.2698 O   0  0  0  0  0  0
  -21.6678   -6.8904   21.4243 O   0  0  0  0  0  0
  -22.3549  -14.5567   20.6792 O   0  0  0  0  0  0
  -24.6429  -31.8473   23.1971 C   0  0  0  0  0  0
  -25.9248  -32.4694   23.8335 C   0  0  1  0  0  0
  -27.1970  -27.1858   20.1568 C   0  0  0  0  0  0
  -25.6041  -33.8505   24.2294 N   0  0  0  0  0  0
  -23.4406  -30.4719   21.5417 C   0  0  2  0  0  0
  -24.8856  -28.9121   20.1040 C   0  0  0  0  0  0
  -22.7598  -29.4588   22.4928 C   0  0  0  0  0  0
  -18.0307  -28.1422   22.8479 C   0  0  0  0  0  0
  -24.1482  -36.7222   23.2652 C   0  0  0  0  0  0
  -25.9917  -30.7356   21.3859 C   0  0  0  0  0  0
  -26.0579  -29.3511   20.7332 C   0  0  0  0  0  0
  -27.2200  -28.5024   20.7488 C   0  0  0  0  0  0
  -26.0195  -26.8474   19.4584 C   0  0  0  0  0  0
  -24.8797  -27.6773   19.4387 C   0  0  0  0  0  0
  -23.6575  -29.8054   20.1557 C   0  0  0  0  0  0
  -25.4108  -36.3025   24.0336 C   0  0  1  0  0  0
  -20.5925  -28.3728   23.1271 C   0  0  2  0  0  0
  -20.6778  -26.9427   22.5433 C   0  0  0  0  0  0
  -19.5742  -26.6398   21.5240 C   0  0  0  0  0  0
  -18.1921  -26.7973   22.1618 C   0  0  0  0  0  0
  -19.1567  -28.8904   23.2851 C   0  0  0  0  0  0
  -18.9459  -30.1515   23.8853 C   0  0  0  0  0  0
  -17.6443  -30.6598   24.0601 C   0  0  0  0  0  0
  -25.9065  -34.9392   23.5111 C   0  0  0  0  0  0
  -16.5345  -29.9072   23.6357 C   0  0  0  0  0  0
  -16.7287  -28.6512   23.0340 C   0  0  0  0  0  0
  -26.4619  -31.6524   25.0718 C   0  0  0  0  0  0
  -25.3892  -31.3609   26.1464 C   0  0  0  0  0  0
  -27.0451  -30.2930   24.6194 C   0  0  0  0  0  0
  -27.6258  -32.4251   25.7351 C   0  0  0  0  0  0
  -27.5592  -37.1721   24.8461 C   0  0  0  0  0  0
  -21.4305  -29.3038   22.3658 N   0  0  0  0  0  0
  -26.4257  -37.3750   23.9475 N   0  0  0  0  0  0
  -24.7121  -31.0392   22.0970 N   0  0  0  0  0  0
  -23.4264  -28.8175   23.3093 O   0  0  0  0  0  0
  -28.2205  -26.1939   20.2189 O   0  0  0  0  0  0
  -26.5609  -34.8908   22.4658 O   0  0  0  0  0  0
  -23.5554  -32.1332   23.7225 O   0  0  0  0  0  0
  -29.4731  -22.6895   21.1713 C   0  0  0  0  0  0
  -27.6072  -22.4391   19.7588 C   0  0  0  0  0  0
  -28.9918  -20.3372   20.2660 C   0  0  0  0  0  0
  -28.3780  -23.3585   20.5288 C   0  0  0  0  0  0
  -29.7807  -21.2696   21.0466 C   0  0  0  0  0  0
  -27.8842  -21.0253   19.6229 C   0  0  0  0  0  0
  -29.6332  -17.4442   20.9478 C   0  0  0  0  0  0
  -30.2960  -16.8082   18.8084 C   0  0  0  0  0  0
  -29.2919  -18.7199   19.9776 C   0  0  2  0  0  0
  -30.3382  -18.3691   18.9191 C   0  0  2  0  0  0
  -31.0171  -20.7884   21.7899 C   0  0  0  0  0  0
  -26.9135  -20.2676   18.7176 C   0  0  0  0  0  0
  -30.2251  -19.0909   17.5653 C   0  0  0  0  0  0
  -27.8483  -24.8634   20.8789 C   0  0  0  0  0  0
  -29.9513  -16.1653   20.1139 N   0  0  0  0  0  0
  -31.4737  -12.7063   19.1784 H   0  0  0  0  0  0
  -30.3946  -11.6369   20.0343 H   0  0  0  0  0  0
  -29.8483  -11.7197   17.5749 H   0  0  0  0  0  0
  -29.6273  -13.4511   17.6740 H   0  0  0  0  0  0
  -27.9480  -11.2728   18.9583 H   0  0  0  0  0  0
  -27.4039  -12.4589   17.7931 H   0  0  0  0  0  0
  -27.5877  -14.2535   19.3782 H   0  0  0  0  0  0
  -28.7628  -12.3778   21.4821 H   0  0  0  0  0  0
  -28.3820  -14.0725   21.6873 H   0  0  0  0  0  0
  -25.2842   -9.5725   22.4730 H   0  0  0  0  0  0
  -24.0100   -7.4659   22.7422 H   0  0  0  0  0  0
  -21.0909   -8.8804   19.8941 H   0  0  0  0  0  0
  -22.3765  -10.9705   19.6163 H   0  0  0  0  0  0
  -21.1930   -7.6155   23.9742 H   0  0  0  0  0  0
  -21.1505   -6.0535   25.9115 H   0  0  0  0  0  0
  -22.0570   -2.7621   23.2856 H   0  0  0  0  0  0
  -22.4189  -11.9864   22.4819 H   0  0  0  0  0  0
  -21.1108  -13.1130   22.2583 H   0  0  0  0  0  0
  -24.6765  -15.8620   20.5340 H   0  0  0  0  0  0
  -26.3005  -15.6233   20.1270 H   0  0  0  0  0  0
  -26.7330  -32.5304   23.1072 H   0  0  0  0  0  0
  -25.0334  -33.9630   25.0550 H   0  0  0  0  0  0
  -22.7388  -31.2957   21.3960 H   0  0  0  0  0  0
  -23.3798  -35.9487   23.3176 H   0  0  0  0  0  0
  -24.3615  -36.8971   22.2106 H   0  0  0  0  0  0
  -23.7146  -37.6345   23.6753 H   0  0  0  0  0  0
  -26.1416  -31.4834   20.6049 H   0  0  0  0  0  0
  -26.8719  -30.7896   22.0148 H   0  0  0  0  0  0
  -28.1104  -28.8232   21.2693 H   0  0  0  0  0  0
  -25.9605  -25.9023   18.9334 H   0  0  0  0  0  0
  -23.9976  -27.3559   18.9019 H   0  0  0  0  0  0
  -23.7765  -30.5822   19.3981 H   0  0  0  0  0  0
  -22.7732  -29.2376   19.8590 H   0  0  0  0  0  0
  -25.1275  -36.1829   25.0816 H   0  0  0  0  0  0
  -21.0004  -28.3279   24.1400 H   0  0  0  0  0  0
  -20.5681  -26.2336   23.3640 H   0  0  0  0  0  0
  -21.6630  -26.7424   22.1202 H   0  0  0  0  0  0
  -19.6875  -25.6303   21.1266 H   0  0  0  0  0  0
  -19.6691  -27.3240   20.6806 H   0  0  0  0  0  0
  -17.4216  -26.6830   21.3976 H   0  0  0  0  0  0
  -18.0231  -26.0097   22.8975 H   0  0  0  0  0  0
  -19.7925  -30.7406   24.2145 H   0  0  0  0  0  0
  -17.4956  -31.6261   24.5241 H   0  0  0  0  0  0
  -15.5338  -30.2947   23.7689 H   0  0  0  0  0  0
  -15.8695  -28.0835   22.7019 H   0  0  0  0  0  0
  -24.6086  -30.6925   25.7810 H   0  0  0  0  0  0
  -24.9058  -32.2711   26.5015 H   0  0  0  0  0  0
  -25.8266  -30.8721   27.0174 H   0  0  0  0  0  0
  -26.2995  -29.6619   24.1324 H   0  0  0  0  0  0
  -27.4280  -29.7244   25.4690 H   0  0  0  0  0  0
  -27.8830  -30.4220   23.9337 H   0  0  0  0  0  0
  -27.3046  -33.3711   26.1711 H   0  0  0  0  0  0
  -28.4068  -32.6519   25.0084 H   0  0  0  0  0  0
  -28.0892  -31.8468   26.5347 H   0  0  0  0  0  0
  -28.2552  -38.0095   24.7626 H   0  0  0  0  0  0
  -28.1147  -36.2624   24.6077 H   0  0  0  0  0  0
  -27.2339  -37.1112   25.8873 H   0  0  0  0  0  0
  -20.9558  -29.8650   21.6717 H   0  0  0  0  0  0
  -26.0100  -38.2785   24.1580 H   0  0  0  0  0  0
  -30.0910  -23.2938   21.8230 H   0  0  0  0  0  0
  -26.7241  -22.8346   19.2713 H   0  0  0  0  0  0
  -28.8071  -17.2470   21.6290 H   0  0  0  0  0  0
  -30.5034  -17.6669   21.5633 H   0  0  0  0  0  0
  -31.2564  -16.4706   18.4137 H   0  0  0  0  0  0
  -29.5439  -16.5044   18.0780 H   0  0  0  0  0  0
  -28.3450  -18.3781   19.5686 H   0  0  0  0  0  0
  -31.3113  -18.6484   19.3294 H   0  0  0  0  0  0
  -31.8639  -20.7061   21.1062 H   0  0  0  0  0  0
  -30.8543  -19.8229   22.2647 H   0  0  0  0  0  0
  -31.3079  -21.4874   22.5784 H   0  0  0  0  0  0
  -26.1250  -20.9101   18.3186 H   0  0  0  0  0  0
  -26.4167  -19.4578   19.2539 H   0  0  0  0  0  0
  -27.4368  -19.8509   17.8585 H   0  0  0  0  0  0
  -29.2823  -18.8838   17.0587 H   0  0  0  0  0  0
  -31.0282  -18.7881   16.8933 H   0  0  0  0  0  0
  -30.3143  -20.1702   17.6927 H   0  0  0  0  0  0
  -28.0854  -25.0111   21.9351 H   0  0  0  0  0  0
  -26.7618  -24.7743   20.8846 H   0  0  0  0  0  0
  1 25  1  0  0  0
  1 30  2  0  0  0
  1 85  1  0  0  0
  2  3  1  0  0  0
  2 25  1  0  0  0
  2 86  1  0  0  0
  2 87  1  0  0  0
  3  4  1  0  0  0
  3 88  1  0  0  0
  3 89  1  0  0  0
  4  5  1  0  0  0
  4 90  1  0  0  0
  4 91  1  0  0  0
  5  6  1  0  0  0
  5 26  1  0  0  0
  5 92  1  0  0  0
  6 25  1  0  0  0
  6 93  1  0  0  0
  6 94  1  0  0  0
  7  8  2  0  0  0
  7 26  1  0  0  0
  7 29  1  0  0  0
  8  9  1  0  0  0
  8 22  1  0  0  0
  9 10  1  0  0  0
  9 27  2  0  0  0
 10 11  2  0  0  0
 10 15  1  0  0  0
 11 12  1  0  0  0
 11 95  1  0  0  0
 12 13  2  0  0  0
 12 96  1  0  0  0
 13 14  1  0  0  0
 13 31  1  0  0  0
 14 15  2  0  0  0
 14 97  1  0  0  0
 15 98  1  0  0  0
 16 17  2  0  0  0
 16 21  1  0  0  0
 16 31  1  0  0  0
 17 18  1  0  0  0
 17 99  1  0  0  0
 18 19  2  0  0  0
 18100  1  0  0  0
 19 20  1  0  0  0
 19 24  1  0  0  0
 20 21  2  0  0  0
 20101  1  0  0  0
 21 23  1  0  0  0
 22 28  1  0  0  0
 22 32  2  0  0  0
 26 27  1  0  0  0
 28102  1  0  0  0
 28103  1  0  0  0
 29104  1  0  0  0
 29105  1  0  0  0
 33 34  1  0  0  0
 33 66  1  0  0  0
 33 70  2  0  0  0
 34 36  1  0  0  0
 34 59  1  0  0  0
 34106  1  0  0  0
 35 44  2  0  0  0
 35 45  1  0  0  0
 35 68  1  0  0  0
 36 56  1  0  0  0
 36107  1  0  0  0
 37 39  1  0  0  0
 37 47  1  0  0  0
 37 66  1  0  0  0
 37108  1  0  0  0
 38 43  2  0  0  0
 38 46  1  0  0  0
 38 47  1  0  0  0
 39 64  1  0  0  0
 39 67  2  0  0  0
 40 52  1  0  0  0
 40 53  2  0  0  0
 40 58  1  0  0  0
 41109  1  0  0  0
 41110  1  0  0  0
 41111  1  0  0  0
 41 48  1  0  0  0
 42 43  1  0  0  0
 42 66  1  0  0  0
 42112  1  0  0  0
 42113  1  0  0  0
 43 44  1  0  0  0
 44114  1  0  0  0
 45 46  2  0  0  0
 45115  1  0  0  0
 46116  1  0  0  0
 47117  1  0  0  0
 47118  1  0  0  0
 48 56  1  0  0  0
 48 65  1  0  0  0
 48119  1  0  0  0
 49 50  1  0  0  0
 49 53  1  0  0  0
 49 64  1  0  0  0
 49120  1  0  0  0
 50 51  1  0  0  0
 50121  1  0  0  0
 50122  1  0  0  0
 51 52  1  0  0  0
 51123  1  0  0  0
 51124  1  0  0  0
 52125  1  0  0  0
 52126  1  0  0  0
 53 54  1  0  0  0
 54 55  2  0  0  0
 54127  1  0  0  0
 55 57  1  0  0  0
 55128  1  0  0  0
 56 69  2  0  0  0
 57 58  2  0  0  0
 57129  1  0  0  0
 58130  1  0  0  0
 59 60  1  0  0  0
 59 61  1  0  0  0
 59 62  1  0  0  0
 60131  1  0  0  0
 60132  1  0  0  0
 60133  1  0  0  0
 61134  1  0  0  0
 61135  1  0  0  0
 61136  1  0  0  0
 62137  1  0  0  0
 62138  1  0  0  0
 62139  1  0  0  0
 63 65  1  0  0  0
 63140  1  0  0  0
 63141  1  0  0  0
 63142  1  0  0  0
 64143  1  0  0  0
 65144  1  0  0  0
 68 84  1  0  0  0
 71 74  2  0  0  0
 71 75  1  0  0  0
 71145  1  0  0  0
 72 74  1  0  0  0
 72 76  2  0  0  0
 72146  1  0  0  0
 73 75  2  0  0  0
 73 76  1  0  0  0
 73 79  1  0  0  0
 74 84  1  0  0  0
 75 81  1  0  0  0
 76 82  1  0  0  0
 77 79  1  0  0  0
 77 85  1  0  0  0
 77147  1  0  0  0
 77148  1  0  0  0
 78 80  1  0  0  0
 78 85  1  0  0  0
 78149  1  0  0  0
 78150  1  0  0  0
 79 80  1  0  0  0
 79151  1  0  0  0
 80 83  1  0  0  0
 80152  1  0  0  0
 81153  1  0  0  0
 81154  1  0  0  0
 81155  1  0  0  0
 82156  1  0  0  0
 82157  1  0  0  0
 82158  1  0  0  0
 83159  1  0  0  0
 83160  1  0  0  0
 83161  1  0  0  0
 84162  1  0  0  0
 84163  1  0  0  0
M  ISO  4   1 100  68 101  84 101  85 100
M  END
> <chiral flag>
0

> <version>
0

> <s_m_source_file>
/data/baiqing/PycharmProjects/Reinvent-master-3.2/result/LINK_invent/BTK/process_docking_weight1_custom_sum_contain_oxygen_bond_distance_aromatic_linkinvent_7_9_3/rearranged_h_0143.sdf

> <i_m_source_file_index>
45

> <r_mmod_Potential_Energy-OPLS-2005>
713.444702148438

> <r_mmod_Stretch_Energy-OPLS-2005>
206.717864990234

> <r_mmod_Bend_Energy-OPLS-2005>
304.77685546875

> <r_mmod_Torsional_Energy-OPLS-2005>
368.495941162109

> <r_mmod_Improper_Torsional_Energy-OPLS-2005>
23.3901767730713

> <r_mmod_Van_der_Waal_Energy-OPLS-2005>
128.534698486328

> <r_mmod_Electrostatic_Energy-OPLS-2005>
-307.578979492188

> <r_mmod_Solvation_Energy-OPLS-2005>
-190.333236694336

> <b_mmod_Minimization_Converged-OPLS-2005>
0

> <r_mmod_RMS_Derivative-OPLS-2005>
5.54164409637451

$$$$
45
                    3D
 Structure written by MMmdl.
176186  0  0  1  0            999 V2000
  -30.7757  -14.4477   20.5403 C   0  0  0  0  0  0
  -30.3942  -12.2795   19.4470 C   0  0  0  0  0  0
  -29.4902  -12.4822   18.2170 C   0  0  0  0  0  0
  -28.0139  -12.3493   18.6299 C   0  0  0  0  0  0
  -27.6557  -13.2179   19.8665 C   0  0  2  0  0  0
  -28.6972  -13.0640   21.0000 C   0  0  0  0  0  0
  -25.2559  -13.8184   20.5685 C   0  0  0  0  0  0
  -24.1822  -13.0449   20.9185 C   0  0  0  0  0  0
  -24.6396  -11.6925   20.8745 C   0  0  0  0  0  0
  -23.9065  -10.4302   21.0416 C   0  0  0  0  0  0
  -24.3618   -9.4215   21.9193 C   0  0  0  0  0  0
  -23.6291   -8.2247   22.0760 C   0  0  0  0  0  0
  -22.4274   -8.0289   21.3550 C   0  0  0  0  0  0
  -21.9925   -9.0256   20.4640 C   0  0  0  0  0  0
  -22.7251  -10.2133   20.3054 C   0  0  0  0  0  0
  -21.6849   -6.0749   22.5285 C   0  0  0  0  0  0
  -21.4009   -6.5649   23.8222 C   0  0  0  0  0  0
  -21.3652   -5.6793   24.9179 C   0  0  0  0  0  0
  -21.6041   -4.3058   24.7225 C   0  0  0  0  0  0
  -21.8812   -3.8158   23.4344 C   0  0  0  0  0  0
  -21.9184   -4.6975   22.3403 C   0  0  0  0  0  0
  -22.7842  -13.5239   21.1832 C   0  0  0  0  0  0
  -22.1654   -4.2167   21.0973 F   0  0  0  0  0  0
  -21.5628   -3.4533   25.7737 F   0  0  0  0  0  0
  -30.0324  -13.3110   20.4363 N   0  0  0  0  0  0
  -26.3007  -12.9383   20.3349 N   0  0  0  0  0  0
  -25.9326  -11.6533   20.5789 N   0  0  0  0  0  0
  -22.0451  -12.8237   22.0368 N   0  0  0  0  0  0
  -25.4272  -15.1894   20.4075 N   0  0  0  0  0  0
  -31.9137  -14.4881   20.0644 O   0  0  0  0  0  0
  -21.6637   -6.8891   21.4248 O   0  0  0  0  0  0
  -22.3546  -14.5553   20.6681 O   0  0  0  0  0  0
  -24.6168  -31.8675   23.2101 C   0  0  0  0  0  0
  -25.9073  -32.4815   23.8374 C   0  0  1  0  0  0
  -27.2205  -27.4381   20.0972 C   0  0  0  0  0  0
  -25.5955  -33.8617   24.2328 N   0  0  0  0  0  0
  -23.3991  -30.4960   21.5523 C   0  0  2  0  0  0
  -24.8388  -28.9620   20.1144 C   0  0  0  0  0  0
  -22.7403  -29.4697   22.5019 C   0  0  0  0  0  0
  -18.0279  -28.1407   22.8508 C   0  0  0  0  0  0
  -24.1483  -36.7285   23.2640 C   0  0  0  0  0  0
  -25.9265  -30.8428   21.3517 C   0  0  0  0  0  0
  -26.0006  -29.4757   20.7039 C   0  0  0  0  0  0
  -27.1964  -28.7239   20.6839 C   0  0  0  0  0  0
  -26.0409  -26.9413   19.5007 C   0  0  0  0  0  0
  -24.8551  -27.6977   19.5036 C   0  0  0  0  0  0
  -23.5982  -29.8228   20.1675 C   0  0  0  0  0  0
  -25.4114  -36.3102   24.0335 C   0  0  1  0  0  0
  -20.5871  -28.3666   23.1318 C   0  0  2  0  0  0
  -20.6765  -26.9406   22.5395 C   0  0  0  0  0  0
  -19.5719  -26.6406   21.5210 C   0  0  0  0  0  0
  -18.1904  -26.7967   22.1614 C   0  0  0  0  0  0
  -19.1532  -28.8856   23.2910 C   0  0  0  0  0  0
  -18.9463  -30.1480   23.8894 C   0  0  0  0  0  0
  -17.6455  -30.6598   24.0589 C   0  0  0  0  0  0
  -25.9043  -34.9475   23.5113 C   0  0  0  0  0  0
  -16.5346  -29.9094   23.6350 C   0  0  0  0  0  0
  -16.7270  -28.6527   23.0346 C   0  0  0  0  0  0
  -26.4516  -31.6589   25.0693 C   0  0  0  0  0  0
  -25.3797  -31.3657   26.1435 C   0  0  0  0  0  0
  -27.0379  -30.3080   24.6021 C   0  0  0  0  0  0
  -27.6102  -32.4308   25.7436 C   0  0  0  0  0  0
  -27.5577  -37.1778   24.8476 C   0  0  0  0  0  0
  -21.4134  -29.3060   22.3755 N   0  0  0  0  0  0
  -26.4287  -37.3807   23.9432 N   0  0  0  0  0  0
  -24.6671  -31.0817   22.0973 N   0  0  0  0  0  0
  -23.4184  -28.8221   23.3036 O   0  0  0  0  0  0
  -28.3846  -26.7001   20.1075 O   0  0  0  0  0  0
  -26.5572  -34.8932   22.4661 O   0  0  0  0  0  0
  -23.5372  -32.1409   23.7524 O   0  0  0  0  0  0
  -29.7598  -17.9686   20.8427 C   0  0  0  0  0  0
  -31.6095  -19.4743   20.3126 C   0  0  0  0  0  0
  -30.2318  -19.2699   20.5481 C   0  0  0  0  0  0
  -32.4705  -18.3744   20.5373 C   0  0  0  0  0  0
  -30.6751  -16.8946   20.9243 C   0  0  0  0  0  0
  -31.4344  -21.5096   18.6547 C   0  0  0  0  0  0
  -32.8347  -20.9800   18.5145 C   0  0  0  0  0  0
  -29.9079  -23.5661   21.5688 C   0  0  0  0  0  0
  -28.1335  -22.8644   19.8810 C   0  0  0  0  0  0
  -29.4653  -25.0567   21.5078 C   0  0  0  0  0  0
  -28.3048  -24.3254   19.3897 C   0  0  0  0  0  0
  -32.0987  -20.8175   19.8318 C   0  0  0  0  0  0
  -28.7482  -22.5856   21.2807 C   0  0  1  0  0  0
  -28.2828  -25.3360   20.5507 C   0  0  2  0  0  0
  -34.5022  -17.6214   19.1997 C   0  0  0  0  0  0
  -34.6970  -18.0013   21.6995 C   0  0  0  0  0  0
  -29.0745  -21.0829   21.5617 C   0  0  0  0  0  0
  -33.9959  -18.4415   20.4018 C   0  0  0  0  0  0
  -31.9997  -17.1533   20.8527 N   0  0  0  0  0  0
  -30.1734  -15.5539   21.0341 N   0  0  0  0  0  0
  -29.3569  -20.3199   20.3849 O   0  0  0  0  0  0
  -31.4446  -12.3064   19.1515 H   0  0  0  0  0  0
  -30.2441  -11.2882   19.8757 H   0  0  0  0  0  0
  -29.7313  -11.7473   17.4482 H   0  0  0  0  0  0
  -29.6680  -13.4632   17.7722 H   0  0  0  0  0  0
  -27.8295  -11.2977   18.8518 H   0  0  0  0  0  0
  -27.3616  -12.5983   17.7919 H   0  0  0  0  0  0
  -27.6838  -14.2559   19.5318 H   0  0  0  0  0  0
  -28.6587  -12.0587   21.4224 H   0  0  0  0  0  0
  -28.4689  -13.7404   21.8254 H   0  0  0  0  0  0
  -25.2758   -9.5686   22.4779 H   0  0  0  0  0  0
  -23.9994   -7.4637   22.7481 H   0  0  0  0  0  0
  -21.0865   -8.8762   19.8936 H   0  0  0  0  0  0
  -22.3714  -10.9666   19.6154 H   0  0  0  0  0  0
  -21.2002   -7.6159   23.9736 H   0  0  0  0  0  0
  -21.1475   -6.0522   25.9083 H   0  0  0  0  0  0
  -22.0596   -2.7626   23.2831 H   0  0  0  0  0  0
  -22.4027  -11.9862   22.4725 H   0  0  0  0  0  0
  -21.1067  -13.1279   22.2542 H   0  0  0  0  0  0
  -24.6577  -15.8427   20.5116 H   0  0  0  0  0  0
  -26.2741  -15.6271   20.0673 H   0  0  0  0  0  0
  -26.7132  -32.5530   23.1118 H   0  0  0  0  0  0
  -25.0240  -33.9782   25.0568 H   0  0  0  0  0  0
  -22.6905  -31.3153   21.4138 H   0  0  0  0  0  0
  -23.3784  -35.9571   23.3307 H   0  0  0  0  0  0
  -24.3601  -36.8914   22.2058 H   0  0  0  0  0  0
  -23.7165  -37.6463   23.6644 H   0  0  0  0  0  0
  -26.0273  -31.6046   20.5757 H   0  0  0  0  0  0
  -26.8226  -30.9031   21.9587 H   0  0  0  0  0  0
  -28.0956  -29.1176   21.1350 H   0  0  0  0  0  0
  -26.0234  -25.9735   19.0280 H   0  0  0  0  0  0
  -23.9640  -27.3039   19.0319 H   0  0  0  0  0  0
  -23.6891  -30.5917   19.4003 H   0  0  0  0  0  0
  -22.7234  -29.2342   19.8857 H   0  0  0  0  0  0
  -25.1288  -36.1944   25.0825 H   0  0  0  0  0  0
  -20.9970  -28.3202   24.1430 H   0  0  0  0  0  0
  -20.5709  -26.2269   23.3590 H   0  0  0  0  0  0
  -21.6618  -26.7478   22.1140 H   0  0  0  0  0  0
  -19.6877  -25.6331   21.1209 H   0  0  0  0  0  0
  -19.6649  -27.3245   20.6773 H   0  0  0  0  0  0
  -17.4188  -26.6783   21.4006 H   0  0  0  0  0  0
  -18.0261  -26.0094   22.8982 H   0  0  0  0  0  0
  -19.7939  -30.7322   24.2226 H   0  0  0  0  0  0
  -17.5007  -31.6271   24.5197 H   0  0  0  0  0  0
  -15.5350  -30.2978   23.7715 H   0  0  0  0  0  0
  -15.8674  -28.0856   22.7031 H   0  0  0  0  0  0
  -24.5995  -30.6975   25.7773 H   0  0  0  0  0  0
  -24.8954  -32.2801   26.4870 H   0  0  0  0  0  0
  -25.8168  -30.8831   27.0193 H   0  0  0  0  0  0
  -26.2907  -29.6782   24.1187 H   0  0  0  0  0  0
  -27.4371  -29.7339   25.4397 H   0  0  0  0  0  0
  -27.8616  -30.4507   23.9024 H   0  0  0  0  0  0
  -27.2764  -33.3663   26.1941 H   0  0  0  0  0  0
  -28.3930  -32.6791   25.0250 H   0  0  0  0  0  0
  -28.0743  -31.8470   26.5397 H   0  0  0  0  0  0
  -28.2572  -38.0103   24.7611 H   0  0  0  0  0  0
  -28.1081  -36.2642   24.6187 H   0  0  0  0  0  0
  -27.2305  -37.1301   25.8880 H   0  0  0  0  0  0
  -20.9282  -29.8771   21.6978 H   0  0  0  0  0  0
  -26.0166  -38.2874   24.1495 H   0  0  0  0  0  0
  -28.6967  -17.7971   20.9322 H   0  0  0  0  0  0
  -30.6575  -20.9799   18.1042 H   0  0  0  0  0  0
  -31.3157  -22.5903   18.7007 H   0  0  0  0  0  0
  -33.6216  -21.7277   18.4411 H   0  0  0  0  0  0
  -32.9632  -20.1068   17.8783 H   0  0  0  0  0  0
  -30.3451  -23.3686   22.5465 H   0  0  0  0  0  0
  -30.7090  -23.3971   20.8498 H   0  0  0  0  0  0
  -28.5713  -22.2172   19.1229 H   0  0  0  0  0  0
  -27.0748  -22.6071   19.9147 H   0  0  0  0  0  0
  -30.3247  -25.6586   21.2117 H   0  0  0  0  0  0
  -29.1929  -25.4102   22.5033 H   0  0  0  0  0  0
  -27.5426  -24.5421   18.6449 H   0  0  0  0  0  0
  -29.2563  -24.4263   18.8656 H   0  0  0  0  0  0
  -32.4101  -21.4414   20.6685 H   0  0  0  0  0  0
  -27.9844  -22.8511   22.0161 H   0  0  0  0  0  0
  -27.3589  -25.1874   21.1155 H   0  0  0  0  0  0
  -34.0106  -17.9227   18.2745 H   0  0  0  0  0  0
  -34.3119  -16.5574   19.3420 H   0  0  0  0  0  0
  -35.5772  -17.7463   19.0604 H   0  0  0  0  0  0
  -34.3650  -18.6014   22.5467 H   0  0  0  0  0  0
  -35.7798  -18.1011   21.6230 H   0  0  0  0  0  0
  -34.4813  -16.9573   21.9271 H   0  0  0  0  0  0
  -28.2123  -20.6091   22.0322 H   0  0  0  0  0  0
  -29.8847  -21.0063   22.2911 H   0  0  0  0  0  0
  -34.2877  -19.4762   20.2346 H   0  0  0  0  0  0
  -29.2190  -15.4430   21.3371 H   0  0  0  0  0  0
  1 25  1  0  0  0
  1 30  2  0  0  0
  1 90  1  0  0  0
  2  3  1  0  0  0
  2 25  1  0  0  0
  2 92  1  0  0  0
  2 93  1  0  0  0
  3  4  1  0  0  0
  3 94  1  0  0  0
  3 95  1  0  0  0
  4  5  1  0  0  0
  4 96  1  0  0  0
  4 97  1  0  0  0
  5  6  1  0  0  0
  5 26  1  0  0  0
  5 98  1  0  0  0
  6 25  1  0  0  0
  6 99  1  0  0  0
  6100  1  0  0  0
  7  8  2  0  0  0
  7 26  1  0  0  0
  7 29  1  0  0  0
  8  9  1  0  0  0
  8 22  1  0  0  0
  9 10  1  0  0  0
  9 27  2  0  0  0
 10 11  2  0  0  0
 10 15  1  0  0  0
 11 12  1  0  0  0
 11101  1  0  0  0
 12 13  2  0  0  0
 12102  1  0  0  0
 13 14  1  0  0  0
 13 31  1  0  0  0
 14 15  2  0  0  0
 14103  1  0  0  0
 15104  1  0  0  0
 16 17  2  0  0  0
 16 21  1  0  0  0
 16 31  1  0  0  0
 17 18  1  0  0  0
 17105  1  0  0  0
 18 19  2  0  0  0
 18106  1  0  0  0
 19 20  1  0  0  0
 19 24  1  0  0  0
 20 21  2  0  0  0
 20107  1  0  0  0
 21 23  1  0  0  0
 22 28  1  0  0  0
 22 32  2  0  0  0
 26 27  1  0  0  0
 28108  1  0  0  0
 28109  1  0  0  0
 29110  1  0  0  0
 29111  1  0  0  0
 33 34  1  0  0  0
 33 66  1  0  0  0
 33 70  2  0  0  0
 34 36  1  0  0  0
 34 59  1  0  0  0
 34112  1  0  0  0
 35 44  2  0  0  0
 35 45  1  0  0  0
 35 68  1  0  0  0
 36 56  1  0  0  0
 36113  1  0  0  0
 37 39  1  0  0  0
 37 47  1  0  0  0
 37 66  1  0  0  0
 37114  1  0  0  0
 38 43  2  0  0  0
 38 46  1  0  0  0
 38 47  1  0  0  0
 39 64  1  0  0  0
 39 67  2  0  0  0
 40 52  1  0  0  0
 40 53  2  0  0  0
 40 58  1  0  0  0
 41115  1  0  0  0
 41116  1  0  0  0
 41117  1  0  0  0
 41 48  1  0  0  0
 42 43  1  0  0  0
 42 66  1  0  0  0
 42118  1  0  0  0
 42119  1  0  0  0
 43 44  1  0  0  0
 44120  1  0  0  0
 45 46  2  0  0  0
 45121  1  0  0  0
 46122  1  0  0  0
 47123  1  0  0  0
 47124  1  0  0  0
 48 56  1  0  0  0
 48 65  1  0  0  0
 48125  1  0  0  0
 49 50  1  0  0  0
 49 53  1  0  0  0
 49 64  1  0  0  0
 49126  1  0  0  0
 50 51  1  0  0  0
 50127  1  0  0  0
 50128  1  0  0  0
 51 52  1  0  0  0
 51129  1  0  0  0
 51130  1  0  0  0
 52131  1  0  0  0
 52132  1  0  0  0
 53 54  1  0  0  0
 54 55  2  0  0  0
 54133  1  0  0  0
 55 57  1  0  0  0
 55134  1  0  0  0
 56 69  2  0  0  0
 57 58  2  0  0  0
 57135  1  0  0  0
 58136  1  0  0  0
 59 60  1  0  0  0
 59 61  1  0  0  0
 59 62  1  0  0  0
 60137  1  0  0  0
 60138  1  0  0  0
 60139  1  0  0  0
 61140  1  0  0  0
 61141  1  0  0  0
 61142  1  0  0  0
 62143  1  0  0  0
 62144  1  0  0  0
 62145  1  0  0  0
 63 65  1  0  0  0
 63146  1  0  0  0
 63147  1  0  0  0
 63148  1  0  0  0
 64149  1  0  0  0
 65150  1  0  0  0
 68 84  1  0  0  0
 71 73  2  0  0  0
 71 75  1  0  0  0
 71151  1  0  0  0
 72 73  1  0  0  0
 72 74  2  0  0  0
 72 82  1  0  0  0
 73 91  1  0  0  0
 74 88  1  0  0  0
 74 89  1  0  0  0
 75 89  2  0  0  0
 75 90  1  0  0  0
 76 77  1  0  0  0
 76 82  1  0  0  0
 76152  1  0  0  0
 76153  1  0  0  0
 77 82  1  0  0  0
 77154  1  0  0  0
 77155  1  0  0  0
 78 80  1  0  0  0
 78 83  1  0  0  0
 78156  1  0  0  0
 78157  1  0  0  0
 79 81  1  0  0  0
 79 83  1  0  0  0
 79158  1  0  0  0
 79159  1  0  0  0
 80 84  1  0  0  0
 80160  1  0  0  0
 80161  1  0  0  0
 81 84  1  0  0  0
 81162  1  0  0  0
 81163  1  0  0  0
 82164  1  0  0  0
 83 87  1  0  0  0
 83165  1  0  0  0
 84166  1  0  0  0
 85167  1  0  0  0
 85168  1  0  0  0
 85169  1  0  0  0
 85 88  1  0  0  0
 86 88  1  0  0  0
 86170  1  0  0  0
 86171  1  0  0  0
 86172  1  0  0  0
 87 91  1  0  0  0
 87173  1  0  0  0
 87174  1  0  0  0
 88175  1  0  0  0
 90176  1  0  0  0
M  ISO  4   1 100  68 101  84 101  90 100
M  END
> <chiral flag>
0

> <version>
0

> <s_m_source_file>
/data/baiqing/PycharmProjects/Reinvent-master-3.2/result/LINK_invent/BTK/process_docking_weight1_custom_sum_contain_oxygen_bond_distance_aromatic_linkinvent_7_9_3/rearranged_h_0143.sdf

> <i_m_source_file_index>
46

> <r_mmod_Potential_Energy-OPLS-2005>
-71.1374130249023

> <r_mmod_Stretch_Energy-OPLS-2005>
41.214672088623

> <r_mmod_Bend_Energy-OPLS-2005>
112.422676086426

> <r_mmod_Torsional_Energy-OPLS-2005>
327.576171875

> <r_mmod_Improper_Torsional_Energy-OPLS-2005>
4.14477968215942

> <r_mmod_Van_der_Waal_Energy-OPLS-2005>
161.273452758789

> <r_mmod_Electrostatic_Energy-OPLS-2005>
-517.764953613281

> <r_mmod_Solvation_Energy-OPLS-2005>
-218.898300170898

> <b_mmod_Minimization_Converged-OPLS-2005>
0

> <r_mmod_RMS_Derivative-OPLS-2005>
3.16796803474426

$$$$
46
                    3D
 Structure written by MMmdl.
173182  0  0  1  0            999 V2000
  -30.6021  -14.7229   20.4476 C   0  0  0  0  0  0
  -30.4298  -12.4379   19.4654 C   0  0  0  0  0  0
  -29.5096  -12.5193   18.2289 C   0  0  0  0  0  0
  -28.0325  -12.3492   18.6389 C   0  0  0  0  0  0
  -27.6433  -13.2315   19.8565 C   0  0  2  0  0  0
  -28.6911  -13.1413   20.9872 C   0  0  0  0  0  0
  -25.2518  -13.8189   20.5696 C   0  0  0  0  0  0
  -24.1814  -13.0430   20.9206 C   0  0  0  0  0  0
  -24.6390  -11.6908   20.8744 C   0  0  0  0  0  0
  -23.9058  -10.4286   21.0410 C   0  0  0  0  0  0
  -24.3619   -9.4199   21.9181 C   0  0  0  0  0  0
  -23.6303   -8.2236   22.0738 C   0  0  0  0  0  0
  -22.4288   -8.0280   21.3538 C   0  0  0  0  0  0
  -21.9918   -9.0240   20.4628 C   0  0  0  0  0  0
  -22.7240  -10.2121   20.3052 C   0  0  0  0  0  0
  -21.6855   -6.0730   22.5284 C   0  0  0  0  0  0
  -21.4009   -6.5628   23.8218 C   0  0  0  0  0  0
  -21.3665   -5.6788   24.9172 C   0  0  0  0  0  0
  -21.6057   -4.3054   24.7225 C   0  0  0  0  0  0
  -21.8823   -3.8135   23.4341 C   0  0  0  0  0  0
  -21.9185   -4.6957   22.3401 C   0  0  0  0  0  0
  -22.7830  -13.5209   21.1868 C   0  0  0  0  0  0
  -22.1653   -4.2156   21.0981 F   0  0  0  0  0  0
  -21.5642   -3.4527   25.7723 F   0  0  0  0  0  0
  -29.9890  -13.4944   20.4035 N   0  0  0  0  0  0
  -26.2957  -12.9393   20.3306 N   0  0  0  0  0  0
  -25.9334  -11.6530   20.5769 N   0  0  0  0  0  0
  -22.0489  -12.8176   22.0422 N   0  0  0  0  0  0
  -25.4198  -15.1920   20.4071 N   0  0  0  0  0  0
  -31.7921  -14.8293   20.1417 O   0  0  0  0  0  0
  -21.6652   -6.8876   21.4250 O   0  0  0  0  0  0
  -22.3497  -14.5494   20.6712 O   0  0  0  0  0  0
  -24.6279  -31.8559   23.2002 C   0  0  0  0  0  0
  -25.9110  -32.4771   23.8350 C   0  0  1  0  0  0
  -27.2322  -27.2838   20.1443 C   0  0  0  0  0  0
  -25.5914  -33.8579   24.2276 N   0  0  0  0  0  0
  -23.4262  -30.4735   21.5432 C   0  0  2  0  0  0
  -24.8770  -28.9121   20.1248 C   0  0  0  0  0  0
  -22.7480  -29.4599   22.4964 C   0  0  0  0  0  0
  -18.0283  -28.1370   22.8490 C   0  0  0  0  0  0
  -24.1485  -36.7288   23.2637 C   0  0  0  0  0  0
  -25.9678  -30.7758   21.3775 C   0  0  0  0  0  0
  -26.0449  -29.3957   20.7281 C   0  0  0  0  0  0
  -27.2277  -28.5948   20.7219 C   0  0  0  0  0  0
  -26.0418  -26.8482   19.5296 C   0  0  0  0  0  0
  -24.8766  -27.6441   19.5172 C   0  0  0  0  0  0
  -23.6460  -29.7962   20.1639 C   0  0  0  0  0  0
  -25.4114  -36.3093   24.0330 C   0  0  1  0  0  0
  -20.5877  -28.3668   23.1295 C   0  0  2  0  0  0
  -20.6779  -26.9391   22.5416 C   0  0  0  0  0  0
  -19.5761  -26.6372   21.5214 C   0  0  0  0  0  0
  -18.1935  -26.7913   22.1617 C   0  0  0  0  0  0
  -19.1530  -28.8836   23.2888 C   0  0  0  0  0  0
  -18.9453  -30.1445   23.8898 C   0  0  0  0  0  0
  -17.6454  -30.6575   24.0551 C   0  0  0  0  0  0
  -25.9050  -34.9455   23.5109 C   0  0  0  0  0  0
  -16.5347  -29.9072   23.6328 C   0  0  0  0  0  0
  -16.7267  -28.6483   23.0356 C   0  0  0  0  0  0
  -26.4484  -31.6597   25.0739 C   0  0  0  0  0  0
  -25.3692  -31.3752   26.1445 C   0  0  0  0  0  0
  -27.0331  -30.3013   24.6225 C   0  0  0  0  0  0
  -27.6035  -32.4330   25.7516 C   0  0  0  0  0  0
  -27.5592  -37.1798   24.8457 C   0  0  0  0  0  0
  -21.4190  -29.3018   22.3690 N   0  0  0  0  0  0
  -26.4295  -37.3787   23.9410 N   0  0  0  0  0  0
  -24.6928  -31.0525   22.0971 N   0  0  0  0  0  0
  -23.4172  -28.8130   23.3065 O   0  0  0  0  0  0
  -28.3633  -26.4523   20.0871 O   0  0  0  0  0  0
  -26.5627  -34.8923   22.4688 O   0  0  0  0  0  0
  -23.5430  -32.1376   23.7294 O   0  0  0  0  0  0
  -28.6901  -21.1367   20.4086 C   0  0  0  0  0  0
  -28.8974  -22.4921   19.9277 C   0  0  0  0  0  0
  -29.4093  -19.9923   19.8761 C   0  0  0  0  0  0
  -29.9305  -22.6304   18.9788 C   0  0  0  0  0  0
  -30.3028  -20.3172   18.8290 C   0  0  0  0  0  0
  -29.5545  -18.4734   15.9557 C   0  0  0  0  0  0
  -29.1594  -19.9237   16.0682 C   0  0  1  0  0  0
  -30.5213  -19.4705   16.5688 C   0  0  1  0  0  0
  -30.2984  -23.9751   18.3827 C   0  0  0  0  0  0
  -27.5754  -20.6441   14.2483 C   0  0  0  0  0  0
  -29.3735  -22.2320   15.0672 C   0  0  0  0  0  0
  -27.9300  -23.7260   20.2279 C   0  0  0  0  0  0
  -29.0775  -18.4671   20.2472 C   0  0  0  0  0  0
  -30.2144  -17.3148   20.4091 C   0  0  0  0  0  0
  -28.4150  -25.1490   20.8135 C   0  0  0  0  0  0
  -28.9981  -20.7649   14.8135 C   0  0  0  0  0  0
  -30.6017  -21.5809   18.4639 N   0  0  0  0  0  0
  -30.8186  -19.3273   17.9937 N   0  0  0  0  0  0
  -29.8135  -15.8525   20.6046 N   0  0  0  0  0  0
  -31.4748  -12.5572   19.1707 H   0  0  0  0  0  0
  -30.3604  -11.4552   19.9326 H   0  0  0  0  0  0
  -29.7855  -11.7626   17.4922 H   0  0  0  0  0  0
  -29.6451  -13.4853   17.7403 H   0  0  0  0  0  0
  -27.8788  -11.2959   18.8752 H   0  0  0  0  0  0
  -27.3772  -12.5700   17.7953 H   0  0  0  0  0  0
  -27.6410  -14.2598   19.4923 H   0  0  0  0  0  0
  -28.7300  -12.1331   21.3990 H   0  0  0  0  0  0
  -28.4391  -13.8019   21.8189 H   0  0  0  0  0  0
  -25.2768   -9.5670   22.4747 H   0  0  0  0  0  0
  -24.0028   -7.4621   22.7438 H   0  0  0  0  0  0
  -21.0860   -8.8733   19.8927 H   0  0  0  0  0  0
  -22.3698  -10.9650   19.6159 H   0  0  0  0  0  0
  -21.2006   -7.6144   23.9703 H   0  0  0  0  0  0
  -21.1497   -6.0523   25.9076 H   0  0  0  0  0  0
  -22.0600   -2.7601   23.2831 H   0  0  0  0  0  0
  -22.4114  -11.9854   22.4839 H   0  0  0  0  0  0
  -21.1094  -13.1165   22.2608 H   0  0  0  0  0  0
  -24.6523  -15.8464   20.5146 H   0  0  0  0  0  0
  -26.2576  -15.6249   20.0426 H   0  0  0  0  0  0
  -26.7172  -32.5427   23.1092 H   0  0  0  0  0  0
  -25.0064  -33.9718   25.0421 H   0  0  0  0  0  0
  -22.7212  -31.2930   21.3919 H   0  0  0  0  0  0
  -23.3779  -35.9590   23.3284 H   0  0  0  0  0  0
  -24.3575  -36.8934   22.2056 H   0  0  0  0  0  0
  -23.7197  -37.6464   23.6674 H   0  0  0  0  0  0
  -26.1022  -31.5346   20.6048 H   0  0  0  0  0  0
  -26.8453  -30.8275   22.0118 H   0  0  0  0  0  0
  -28.1317  -28.9662   21.1833 H   0  0  0  0  0  0
  -26.0133  -25.8799   19.0520 H   0  0  0  0  0  0
  -23.9814  -27.2664   19.0424 H   0  0  0  0  0  0
  -23.7684  -30.5661   19.4011 H   0  0  0  0  0  0
  -22.7668  -29.2224   19.8646 H   0  0  0  0  0  0
  -25.1301  -36.1955   25.0822 H   0  0  0  0  0  0
  -20.9963  -28.3227   24.1420 H   0  0  0  0  0  0
  -20.5693  -26.2258   23.3602 H   0  0  0  0  0  0
  -21.6645  -26.7436   22.1200 H   0  0  0  0  0  0
  -19.6928  -25.6285   21.1245 H   0  0  0  0  0  0
  -19.6720  -27.3183   20.6746 H   0  0  0  0  0  0
  -17.4218  -26.6673   21.4007 H   0  0  0  0  0  0
  -18.0324  -26.0039   22.8994 H   0  0  0  0  0  0
  -19.7920  -30.7262   24.2267 H   0  0  0  0  0  0
  -17.4997  -31.6255   24.5137 H   0  0  0  0  0  0
  -15.5341  -30.2970   23.7643 H   0  0  0  0  0  0
  -15.8666  -28.0794   22.7086 H   0  0  0  0  0  0
  -24.5842  -30.7147   25.7752 H   0  0  0  0  0  0
  -24.8913  -32.2928   26.4877 H   0  0  0  0  0  0
  -25.7964  -30.8895   27.0222 H   0  0  0  0  0  0
  -26.2930  -29.6768   24.1205 H   0  0  0  0  0  0
  -27.3966  -29.7269   25.4757 H   0  0  0  0  0  0
  -27.8823  -30.4299   23.9510 H   0  0  0  0  0  0
  -27.2646  -33.3620   26.2104 H   0  0  0  0  0  0
  -28.3841  -32.6897   25.0348 H   0  0  0  0  0  0
  -28.0706  -31.8453   26.5423 H   0  0  0  0  0  0
  -28.2588  -38.0117   24.7552 H   0  0  0  0  0  0
  -28.1113  -36.2654   24.6237 H   0  0  0  0  0  0
  -27.2313  -37.1391   25.8857 H   0  0  0  0  0  0
  -20.9372  -29.8698   21.6866 H   0  0  0  0  0  0
  -26.0191  -38.2866   24.1425 H   0  0  0  0  0  0
  -27.9026  -20.9555   21.1254 H   0  0  0  0  0  0
  -29.7849  -18.0891   14.9630 H   0  0  0  0  0  0
  -29.0268  -17.7812   16.6095 H   0  0  0  0  0  0
  -28.4222  -20.1583   16.8348 H   0  0  0  0  0  0
  -31.4029  -19.7527   15.9962 H   0  0  0  0  0  0
  -30.7658  -24.6107   19.1342 H   0  0  0  0  0  0
  -29.4133  -24.4768   17.9910 H   0  0  0  0  0  0
  -31.0047  -23.8670   17.5606 H   0  0  0  0  0  0
  -27.3296  -19.6077   14.0148 H   0  0  0  0  0  0
  -27.4669  -21.2202   13.3289 H   0  0  0  0  0  0
  -26.8302  -21.0085   14.9561 H   0  0  0  0  0  0
  -30.4090  -22.3178   15.4001 H   0  0  0  0  0  0
  -28.7417  -22.6802   15.8343 H   0  0  0  0  0  0
  -29.2713  -22.8272   14.1584 H   0  0  0  0  0  0
  -27.1750  -23.3488   20.9173 H   0  0  0  0  0  0
  -27.3701  -23.9192   19.3138 H   0  0  0  0  0  0
  -28.3784  -18.1380   19.4762 H   0  0  0  0  0  0
  -28.4911  -18.4897   21.1651 H   0  0  0  0  0  0
  -30.8617  -17.5890   21.2429 H   0  0  0  0  0  0
  -30.8620  -17.3088   19.5359 H   0  0  0  0  0  0
  -29.4464  -25.0263   21.1423 H   0  0  0  0  0  0
  -27.8735  -25.3060   21.7484 H   0  0  0  0  0  0
  -29.6879  -20.3744   14.0633 H   0  0  0  0  0  0
  -30.6583  -18.3908   18.3327 H   0  0  0  0  0  0
  -28.8434  -15.6805   20.8229 H   0  0  0  0  0  0
  1 25  1  0  0  0
  1 30  2  0  0  0
  1 89  1  0  0  0
  2  3  1  0  0  0
  2 25  1  0  0  0
  2 90  1  0  0  0
  2 91  1  0  0  0
  3  4  1  0  0  0
  3 92  1  0  0  0
  3 93  1  0  0  0
  4  5  1  0  0  0
  4 94  1  0  0  0
  4 95  1  0  0  0
  5  6  1  0  0  0
  5 26  1  0  0  0
  5 96  1  0  0  0
  6 25  1  0  0  0
  6 97  1  0  0  0
  6 98  1  0  0  0
  7  8  2  0  0  0
  7 26  1  0  0  0
  7 29  1  0  0  0
  8  9  1  0  0  0
  8 22  1  0  0  0
  9 10  1  0  0  0
  9 27  2  0  0  0
 10 11  2  0  0  0
 10 15  1  0  0  0
 11 12  1  0  0  0
 11 99  1  0  0  0
 12 13  2  0  0  0
 12100  1  0  0  0
 13 14  1  0  0  0
 13 31  1  0  0  0
 14 15  2  0  0  0
 14101  1  0  0  0
 15102  1  0  0  0
 16 17  2  0  0  0
 16 21  1  0  0  0
 16 31  1  0  0  0
 17 18  1  0  0  0
 17103  1  0  0  0
 18 19  2  0  0  0
 18104  1  0  0  0
 19 20  1  0  0  0
 19 24  1  0  0  0
 20 21  2  0  0  0
 20105  1  0  0  0
 21 23  1  0  0  0
 22 28  1  0  0  0
 22 32  2  0  0  0
 26 27  1  0  0  0
 28106  1  0  0  0
 28107  1  0  0  0
 29108  1  0  0  0
 29109  1  0  0  0
 33 34  1  0  0  0
 33 66  1  0  0  0
 33 70  2  0  0  0
 34 36  1  0  0  0
 34 59  1  0  0  0
 34110  1  0  0  0
 35 44  2  0  0  0
 35 45  1  0  0  0
 35 68  1  0  0  0
 36 56  1  0  0  0
 36111  1  0  0  0
 37 39  1  0  0  0
 37 47  1  0  0  0
 37 66  1  0  0  0
 37112  1  0  0  0
 38 43  2  0  0  0
 38 46  1  0  0  0
 38 47  1  0  0  0
 39 64  1  0  0  0
 39 67  2  0  0  0
 40 52  1  0  0  0
 40 53  2  0  0  0
 40 58  1  0  0  0
 41113  1  0  0  0
 41114  1  0  0  0
 41115  1  0  0  0
 41 48  1  0  0  0
 42 43  1  0  0  0
 42 66  1  0  0  0
 42116  1  0  0  0
 42117  1  0  0  0
 43 44  1  0  0  0
 44118  1  0  0  0
 45 46  2  0  0  0
 45119  1  0  0  0
 46120  1  0  0  0
 47121  1  0  0  0
 47122  1  0  0  0
 48 56  1  0  0  0
 48 65  1  0  0  0
 48123  1  0  0  0
 49 50  1  0  0  0
 49 53  1  0  0  0
 49 64  1  0  0  0
 49124  1  0  0  0
 50 51  1  0  0  0
 50125  1  0  0  0
 50126  1  0  0  0
 51 52  1  0  0  0
 51127  1  0  0  0
 51128  1  0  0  0
 52129  1  0  0  0
 52130  1  0  0  0
 53 54  1  0  0  0
 54 55  2  0  0  0
 54131  1  0  0  0
 55 57  1  0  0  0
 55132  1  0  0  0
 56 69  2  0  0  0
 57 58  2  0  0  0
 57133  1  0  0  0
 58134  1  0  0  0
 59 60  1  0  0  0
 59 61  1  0  0  0
 59 62  1  0  0  0
 60135  1  0  0  0
 60136  1  0  0  0
 60137  1  0  0  0
 61138  1  0  0  0
 61139  1  0  0  0
 61140  1  0  0  0
 62141  1  0  0  0
 62142  1  0  0  0
 62143  1  0  0  0
 63 65  1  0  0  0
 63144  1  0  0  0
 63145  1  0  0  0
 63146  1  0  0  0
 64147  1  0  0  0
 65148  1  0  0  0
 68 85  1  0  0  0
 71 72  2  0  0  0
 71 73  1  0  0  0
 71149  1  0  0  0
 72 74  1  0  0  0
 72 82  1  0  0  0
 73 75  2  0  0  0
 73 83  1  0  0  0
 74 79  1  0  0  0
 74 87  2  0  0  0
 75 87  1  0  0  0
 75 88  1  0  0  0
 76 78  1  0  0  0
 76150  1  0  0  0
 76151  1  0  0  0
 76 77  1  0  0  0
 77 78  1  0  0  0
 77 86  1  0  0  0
 77152  1  0  0  0
 78 88  1  0  0  0
 78153  1  0  0  0
 79154  1  0  0  0
 79155  1  0  0  0
 79156  1  0  0  0
 80157  1  0  0  0
 80158  1  0  0  0
 80159  1  0  0  0
 80 86  1  0  0  0
 81 86  1  0  0  0
 81160  1  0  0  0
 81161  1  0  0  0
 81162  1  0  0  0
 82 85  1  0  0  0
 82163  1  0  0  0
 82164  1  0  0  0
 83 84  1  0  0  0
 83165  1  0  0  0
 83166  1  0  0  0
 84 89  1  0  0  0
 84167  1  0  0  0
 84168  1  0  0  0
 85169  1  0  0  0
 85170  1  0  0  0
 86171  1  0  0  0
 88172  1  0  0  0
 89173  1  0  0  0
M  ISO  4   1 100  68 101  85 101  89 100
M  END
> <chiral flag>
0

> <version>
0

> <s_m_source_file>
/data/baiqing/PycharmProjects/Reinvent-master-3.2/result/LINK_invent/BTK/process_docking_weight1_custom_sum_contain_oxygen_bond_distance_aromatic_linkinvent_7_9_3/rearranged_h_0143.sdf

> <i_m_source_file_index>
47

> <r_mmod_Potential_Energy-OPLS-2005>
-50.4537353515625

> <r_mmod_Stretch_Energy-OPLS-2005>
115.866142272949

> <r_mmod_Bend_Energy-OPLS-2005>
180.337966918945

> <r_mmod_Torsional_Energy-OPLS-2005>
308.438079833984

> <r_mmod_Improper_Torsional_Energy-OPLS-2005>
12.8357210159302

> <r_mmod_Van_der_Waal_Energy-OPLS-2005>
126.100540161133

> <r_mmod_Electrostatic_Energy-OPLS-2005>
-626.424133300781

> <r_mmod_Solvation_Energy-OPLS-2005>
-237.281799316406

> <b_mmod_Minimization_Converged-OPLS-2005>
0

> <r_mmod_RMS_Derivative-OPLS-2005>
2.80797910690308

$$$$
47
                    3D
 Structure written by MMmdl.
172182  0  0  1  0            999 V2000
  -30.6610  -14.6008   20.5097 C   0  0  0  0  0  0
  -30.4411  -12.3762   19.4394 C   0  0  0  0  0  0
  -29.4942  -12.4715   18.2230 C   0  0  0  0  0  0
  -28.0204  -12.3222   18.6445 C   0  0  0  0  0  0
  -27.6561  -13.2055   19.8639 C   0  0  2  0  0  0
  -28.7041  -13.0586   20.9889 C   0  0  0  0  0  0
  -25.2589  -13.8044   20.5679 C   0  0  0  0  0  0
  -24.1837  -13.0326   20.9170 C   0  0  0  0  0  0
  -24.6435  -11.6793   20.8744 C   0  0  0  0  0  0
  -23.9092  -10.4167   21.0345 C   0  0  0  0  0  0
  -24.3599   -9.4073   21.9119 C   0  0  0  0  0  0
  -23.6251   -8.2133   22.0760 C   0  0  0  0  0  0
  -22.4239   -8.0182   21.3519 C   0  0  0  0  0  0
  -21.9872   -9.0153   20.4616 C   0  0  0  0  0  0
  -22.7230  -10.2040   20.3033 C   0  0  0  0  0  0
  -21.6784   -6.0702   22.5293 C   0  0  0  0  0  0
  -21.3919   -6.5647   23.8213 C   0  0  0  0  0  0
  -21.3686   -5.6829   24.9206 C   0  0  0  0  0  0
  -21.6047   -4.3091   24.7289 C   0  0  0  0  0  0
  -21.8765   -3.8157   23.4423 C   0  0  0  0  0  0
  -21.9146   -4.6936   22.3449 C   0  0  0  0  0  0
  -22.7834  -13.5079   21.1756 C   0  0  0  0  0  0
  -22.1606   -4.2116   21.1032 F   0  0  0  0  0  0
  -21.5689   -3.4591   25.7813 F   0  0  0  0  0  0
  -30.0207  -13.3969   20.4207 N   0  0  0  0  0  0
  -26.3021  -12.9258   20.3363 N   0  0  0  0  0  0
  -25.9377  -11.6405   20.5814 N   0  0  0  0  0  0
  -22.0516  -12.8074   22.0362 N   0  0  0  0  0  0
  -25.4361  -15.1700   20.4050 N   0  0  0  0  0  0
  -31.8201  -14.7493   20.1072 O   0  0  0  0  0  0
  -21.6584   -6.8798   21.4227 O   0  0  0  0  0  0
  -22.3427  -14.5302   20.6522 O   0  0  0  0  0  0
  -24.6130  -31.8646   23.2107 C   0  0  0  0  0  0
  -25.8981  -32.4811   23.8424 C   0  0  1  0  0  0
  -27.2331  -27.3876   20.1243 C   0  0  0  0  0  0
  -25.5817  -33.8615   24.2344 N   0  0  0  0  0  0
  -23.4063  -30.4882   21.5523 C   0  0  2  0  0  0
  -24.8577  -28.9459   20.1267 C   0  0  0  0  0  0
  -22.7405  -29.4619   22.4965 C   0  0  0  0  0  0
  -18.0245  -28.1359   22.8472 C   0  0  0  0  0  0
  -24.1490  -36.7302   23.2628 C   0  0  0  0  0  0
  -25.9450  -30.8102   21.3812 C   0  0  0  0  0  0
  -26.0183  -29.4381   20.7396 C   0  0  0  0  0  0
  -27.2069  -28.6625   20.7488 C   0  0  0  0  0  0
  -26.0736  -26.9530   19.4499 C   0  0  0  0  0  0
  -24.8816  -27.7016   19.4763 C   0  0  0  0  0  0
  -23.6209  -29.8192   20.1727 C   0  0  0  0  0  0
  -25.4102  -36.3111   24.0342 C   0  0  1  0  0  0
  -20.5839  -28.3634   23.1304 C   0  0  2  0  0  0
  -20.6740  -26.9368   22.5417 C   0  0  0  0  0  0
  -19.5742  -26.6349   21.5209 C   0  0  0  0  0  0
  -18.1910  -26.7902   22.1607 C   0  0  0  0  0  0
  -19.1493  -28.8813   23.2898 C   0  0  0  0  0  0
  -18.9432  -30.1400   23.8955 C   0  0  0  0  0  0
  -17.6448  -30.6586   24.0536 C   0  0  0  0  0  0
  -25.9038  -34.9464   23.5167 C   0  0  0  0  0  0
  -16.5336  -29.9088   23.6308 C   0  0  0  0  0  0
  -16.7235  -28.6473   23.0380 C   0  0  0  0  0  0
  -26.4457  -31.6601   25.0729 C   0  0  0  0  0  0
  -25.3725  -31.3743   26.1487 C   0  0  0  0  0  0
  -27.0291  -30.3042   24.6077 C   0  0  0  0  0  0
  -27.6069  -32.4333   25.7432 C   0  0  0  0  0  0
  -27.5610  -37.1801   24.8461 C   0  0  0  0  0  0
  -21.4129  -29.2993   22.3704 N   0  0  0  0  0  0
  -26.4311  -37.3769   23.9416 N   0  0  0  0  0  0
  -24.6737  -31.0685   22.1050 N   0  0  0  0  0  0
  -23.4199  -28.8152   23.2980 O   0  0  0  0  0  0
  -28.3777  -26.6069   20.0606 O   0  0  0  0  0  0
  -26.5646  -34.8911   22.4754 O   0  0  0  0  0  0
  -23.5291  -32.1425   23.7432 O   0  0  0  0  0  0
  -26.4032  -24.2409   20.9685 C   0  0  0  0  0  0
  -28.4110  -22.9212   20.5914 C   0  0  0  0  0  0
  -25.6078  -23.1153   20.7142 C   0  0  0  0  0  0
  -26.2049  -21.8636   20.3975 C   0  0  0  0  0  0
  -27.7967  -24.1969   20.8289 C   0  0  0  0  0  0
  -27.6330  -21.7279   20.3963 C   0  0  0  0  0  0
  -24.0962  -23.3323   20.6741 C   0  0  0  0  0  0
  -24.2488  -18.5122   21.2339 C   0  0  0  0  0  0
  -25.7450  -18.3704   21.2479 C   0  0  0  0  0  0
  -23.2824  -22.0463   20.5083 C   0  0  0  0  0  0
  -25.2748  -20.6809   20.0542 C   0  0  1  0  0  0
  -25.1293  -19.7503   21.2575 C   0  0  0  0  0  0
  -28.5765  -25.5272   21.0232 C   0  0  0  0  0  0
  -29.1085  -18.1448   20.6795 C   0  0  0  0  0  0
  -29.3234  -19.7205   20.7117 C   0  0  0  0  0  0
  -30.3034  -17.1302   20.8785 C   0  0  0  0  0  0
  -28.1742  -20.4363   20.1042 N   0  0  0  0  0  0
  -29.9178  -15.6771   20.8905 N   0  0  0  0  0  0
  -23.9607  -21.1470   19.5583 N   0  3  0  0  0  0
  -31.4689  -12.5167   19.1019 H   0  0  0  0  0  0
  -30.4139  -11.3822   19.8911 H   0  0  0  0  0  0
  -29.7402  -11.7011   17.4919 H   0  0  0  0  0  0
  -29.6378  -13.4243   17.7143 H   0  0  0  0  0  0
  -27.8527  -11.2736   18.8900 H   0  0  0  0  0  0
  -27.3583  -12.5402   17.8060 H   0  0  0  0  0  0
  -27.6817  -14.2371   19.5095 H   0  0  0  0  0  0
  -28.7097  -12.0327   21.3594 H   0  0  0  0  0  0
  -28.4556  -13.6859   21.8458 H   0  0  0  0  0  0
  -25.2735   -9.5599   22.4671 H   0  0  0  0  0  0
  -23.9924   -7.4587   22.7589 H   0  0  0  0  0  0
  -21.0749   -8.8678   19.8956 H   0  0  0  0  0  0
  -22.3650  -10.9620   19.6199 H   0  0  0  0  0  0
  -21.1782   -7.6135   23.9719 H   0  0  0  0  0  0
  -21.1641   -6.0579   25.9109 H   0  0  0  0  0  0
  -22.0526   -2.7625   23.2977 H   0  0  0  0  0  0
  -22.4290  -11.9952   22.5032 H   0  0  0  0  0  0
  -21.1034  -13.0903   22.2431 H   0  0  0  0  0  0
  -24.6900  -15.8396   20.5450 H   0  0  0  0  0  0
  -26.2849  -15.5838   20.0453 H   0  0  0  0  0  0
  -26.7007  -32.5523   23.1159 H   0  0  0  0  0  0
  -24.9921  -33.9794   25.0457 H   0  0  0  0  0  0
  -22.6953  -31.3066   21.4156 H   0  0  0  0  0  0
  -23.3767  -35.9628   23.3302 H   0  0  0  0  0  0
  -24.3598  -36.8891   22.2046 H   0  0  0  0  0  0
  -23.7247  -37.6501   23.6644 H   0  0  0  0  0  0
  -26.0724  -31.5634   20.6039 H   0  0  0  0  0  0
  -26.8284  -30.8620   22.0035 H   0  0  0  0  0  0
  -28.0985  -29.0368   21.2323 H   0  0  0  0  0  0
  -26.0846  -26.0173   18.9071 H   0  0  0  0  0  0
  -23.9973  -27.3240   18.9805 H   0  0  0  0  0  0
  -23.7315  -30.5993   19.4205 H   0  0  0  0  0  0
  -22.7444  -29.2420   19.8700 H   0  0  0  0  0  0
  -25.1275  -36.2011   25.0839 H   0  0  0  0  0  0
  -20.9917  -28.3216   24.1425 H   0  0  0  0  0  0
  -20.5626  -26.2256   23.3608 H   0  0  0  0  0  0
  -21.6623  -26.7406   22.1241 H   0  0  0  0  0  0
  -19.6949  -25.6270   21.1213 H   0  0  0  0  0  0
  -19.6713  -27.3200   20.6782 H   0  0  0  0  0  0
  -17.4179  -26.6612   21.4006 H   0  0  0  0  0  0
  -18.0323  -26.0067   22.9024 H   0  0  0  0  0  0
  -19.7920  -30.7126   24.2432 H   0  0  0  0  0  0
  -17.5027  -31.6294   24.5081 H   0  0  0  0  0  0
  -15.5350  -30.3028   23.7581 H   0  0  0  0  0  0
  -15.8616  -28.0767   22.7166 H   0  0  0  0  0  0
  -24.5869  -30.7120   25.7830 H   0  0  0  0  0  0
  -24.8942  -32.2916   26.4926 H   0  0  0  0  0  0
  -25.8012  -30.8917   27.0277 H   0  0  0  0  0  0
  -26.2889  -29.6875   24.0947 H   0  0  0  0  0  0
  -27.3944  -29.7132   25.4494 H   0  0  0  0  0  0
  -27.8771  -30.4444   23.9366 H   0  0  0  0  0  0
  -27.2733  -33.3633   26.2067 H   0  0  0  0  0  0
  -28.3788  -32.6909   25.0160 H   0  0  0  0  0  0
  -28.0863  -31.8449   26.5270 H   0  0  0  0  0  0
  -28.2595  -38.0124   24.7485 H   0  0  0  0  0  0
  -28.1143  -36.2642   24.6306 H   0  0  0  0  0  0
  -27.2336  -37.1455   25.8866 H   0  0  0  0  0  0
  -20.9300  -29.8728   21.6932 H   0  0  0  0  0  0
  -26.0211  -38.2850   24.1407 H   0  0  0  0  0  0
  -25.9238  -25.1738   21.2237 H   0  0  0  0  0  0
  -29.4907  -22.8774   20.5334 H   0  0  0  0  0  0
  -23.8757  -24.0102   19.8454 H   0  0  0  0  0  0
  -23.7728  -23.8475   21.5810 H   0  0  0  0  0  0
  -23.7211  -18.2549   22.1494 H   0  0  0  0  0  0
  -23.7362  -18.2396   20.3134 H   0  0  0  0  0  0
  -26.2007  -18.0000   20.3339 H   0  0  0  0  0  0
  -26.2164  -18.0361   22.1683 H   0  0  0  0  0  0
  -22.2803  -22.2912   20.1545 H   0  0  0  0  0  0
  -23.1534  -21.5439   21.4670 H   0  0  0  0  0  0
  -25.7116  -20.1187   19.2283 H   0  0  0  0  0  0
  -25.1622  -20.2696   22.2131 H   0  0  0  0  0  0
  -29.6427  -25.3046   21.0058 H   0  0  0  0  0  0
  -28.3854  -25.9045   22.0290 H   0  0  0  0  0  0
  -28.6673  -17.9019   19.7139 H   0  0  0  0  0  0
  -28.3511  -17.9043   21.4236 H   0  0  0  0  0  0
  -30.2199  -19.9708   20.1436 H   0  0  0  0  0  0
  -29.4840  -20.0668   21.7325 H   0  0  0  0  0  0
  -30.8236  -17.3467   21.8127 H   0  0  0  0  0  0
  -31.0145  -17.3097   20.0729 H   0  0  0  0  0  0
  -27.4676  -19.7679   19.8250 H   0  0  0  0  0  0
  -28.9818  -15.4583   21.1988 H   0  0  0  0  0  0
  -24.1043  -21.6474   18.6966 H   0  0  0  0  0  0
  -23.3728  -20.3589   19.3467 H   0  0  0  0  0  0
  1 25  1  0  0  0
  1 30  2  0  0  0
  1 88  1  0  0  0
  2  3  1  0  0  0
  2 25  1  0  0  0
  2 90  1  0  0  0
  2 91  1  0  0  0
  3  4  1  0  0  0
  3 92  1  0  0  0
  3 93  1  0  0  0
  4  5  1  0  0  0
  4 94  1  0  0  0
  4 95  1  0  0  0
  5  6  1  0  0  0
  5 26  1  0  0  0
  5 96  1  0  0  0
  6 25  1  0  0  0
  6 97  1  0  0  0
  6 98  1  0  0  0
  7  8  2  0  0  0
  7 26  1  0  0  0
  7 29  1  0  0  0
  8  9  1  0  0  0
  8 22  1  0  0  0
  9 10  1  0  0  0
  9 27  2  0  0  0
 10 11  2  0  0  0
 10 15  1  0  0  0
 11 12  1  0  0  0
 11 99  1  0  0  0
 12 13  2  0  0  0
 12100  1  0  0  0
 13 14  1  0  0  0
 13 31  1  0  0  0
 14 15  2  0  0  0
 14101  1  0  0  0
 15102  1  0  0  0
 16 17  2  0  0  0
 16 21  1  0  0  0
 16 31  1  0  0  0
 17 18  1  0  0  0
 17103  1  0  0  0
 18 19  2  0  0  0
 18104  1  0  0  0
 19 20  1  0  0  0
 19 24  1  0  0  0
 20 21  2  0  0  0
 20105  1  0  0  0
 21 23  1  0  0  0
 22 28  1  0  0  0
 22 32  2  0  0  0
 26 27  1  0  0  0
 28106  1  0  0  0
 28107  1  0  0  0
 29108  1  0  0  0
 29109  1  0  0  0
 33 34  1  0  0  0
 33 66  1  0  0  0
 33 70  2  0  0  0
 34 36  1  0  0  0
 34 59  1  0  0  0
 34110  1  0  0  0
 35 44  2  0  0  0
 35 45  1  0  0  0
 35 68  1  0  0  0
 36 56  1  0  0  0
 36111  1  0  0  0
 37 39  1  0  0  0
 37 47  1  0  0  0
 37 66  1  0  0  0
 37112  1  0  0  0
 38 43  2  0  0  0
 38 46  1  0  0  0
 38 47  1  0  0  0
 39 64  1  0  0  0
 39 67  2  0  0  0
 40 52  1  0  0  0
 40 53  2  0  0  0
 40 58  1  0  0  0
 41113  1  0  0  0
 41114  1  0  0  0
 41115  1  0  0  0
 41 48  1  0  0  0
 42 43  1  0  0  0
 42 66  1  0  0  0
 42116  1  0  0  0
 42117  1  0  0  0
 43 44  1  0  0  0
 44118  1  0  0  0
 45 46  2  0  0  0
 45119  1  0  0  0
 46120  1  0  0  0
 47121  1  0  0  0
 47122  1  0  0  0
 48 56  1  0  0  0
 48 65  1  0  0  0
 48123  1  0  0  0
 49 50  1  0  0  0
 49 53  1  0  0  0
 49 64  1  0  0  0
 49124  1  0  0  0
 50 51  1  0  0  0
 50125  1  0  0  0
 50126  1  0  0  0
 51 52  1  0  0  0
 51127  1  0  0  0
 51128  1  0  0  0
 52129  1  0  0  0
 52130  1  0  0  0
 53 54  1  0  0  0
 54 55  2  0  0  0
 54131  1  0  0  0
 55 57  1  0  0  0
 55132  1  0  0  0
 56 69  2  0  0  0
 57 58  2  0  0  0
 57133  1  0  0  0
 58134  1  0  0  0
 59 60  1  0  0  0
 59 61  1  0  0  0
 59 62  1  0  0  0
 60135  1  0  0  0
 60136  1  0  0  0
 60137  1  0  0  0
 61138  1  0  0  0
 61139  1  0  0  0
 61140  1  0  0  0
 62141  1  0  0  0
 62142  1  0  0  0
 62143  1  0  0  0
 63 65  1  0  0  0
 63144  1  0  0  0
 63145  1  0  0  0
 63146  1  0  0  0
 64147  1  0  0  0
 65148  1  0  0  0
 68 83  1  0  0  0
 71 73  2  0  0  0
 71 75  1  0  0  0
 71149  1  0  0  0
 72 75  2  0  0  0
 72 76  1  0  0  0
 72150  1  0  0  0
 73 74  1  0  0  0
 73 77  1  0  0  0
 74 76  2  0  0  0
 74 81  1  0  0  0
 75 83  1  0  0  0
 76 87  1  0  0  0
 77 80  1  0  0  0
 77151  1  0  0  0
 77152  1  0  0  0
 78 79  1  0  0  0
 78153  1  0  0  0
 78154  1  0  0  0
 78 82  1  0  0  0
 79 82  1  0  0  0
 79155  1  0  0  0
 79156  1  0  0  0
 80 89  1  0  0  0
 80157  1  0  0  0
 80158  1  0  0  0
 81 82  1  0  0  0
 81 89  1  0  0  0
 81159  1  0  0  0
 82160  1  0  0  0
 83161  1  0  0  0
 83162  1  0  0  0
 84 85  1  0  0  0
 84 86  1  0  0  0
 84163  1  0  0  0
 84164  1  0  0  0
 85 87  1  0  0  0
 85165  1  0  0  0
 85166  1  0  0  0
 86 88  1  0  0  0
 86167  1  0  0  0
 86168  1  0  0  0
 87169  1  0  0  0
 88170  1  0  0  0
 89171  1  0  0  0
 89172  1  0  0  0
M  CHG  1  89   1
M  ISO  4   1 100  68 101  83 101  88 100
M  END
> <chiral flag>
0

> <version>
0

> <s_m_source_file>
/data/baiqing/PycharmProjects/Reinvent-master-3.2/result/LINK_invent/BTK/process_docking_weight1_custom_sum_contain_oxygen_bond_distance_aromatic_linkinvent_7_9_3/rearranged_h_0143.sdf

> <i_m_source_file_index>
48

> <r_mmod_Potential_Energy-OPLS-2005>
-58.1904296875

> <r_mmod_Stretch_Energy-OPLS-2005>
66.9725036621094

> <r_mmod_Bend_Energy-OPLS-2005>
149.008651733398

> <r_mmod_Torsional_Energy-OPLS-2005>
309.417327880859

> <r_mmod_Improper_Torsional_Energy-OPLS-2005>
7.38073205947876

> <r_mmod_Van_der_Waal_Energy-OPLS-2005>
137.099594116211

> <r_mmod_Electrostatic_Energy-OPLS-2005>
-271.002136230469

> <r_mmod_Solvation_Energy-OPLS-2005>
-487.540649414062

> <b_mmod_Minimization_Converged-OPLS-2005>
0

> <r_mmod_RMS_Derivative-OPLS-2005>
6.6783275604248

$$$$
48
                    3D
 Structure written by MMmdl.
162171  0  0  1  0            999 V2000
  -30.7160  -14.5249   20.5385 C   0  0  0  0  0  0
  -30.4025  -12.3466   19.4378 C   0  0  0  0  0  0
  -29.4817  -12.4890   18.2099 C   0  0  0  0  0  0
  -28.0096  -12.3199   18.6291 C   0  0  0  0  0  0
  -27.6426  -13.2005   19.8490 C   0  0  2  0  0  0
  -28.6848  -13.0623   20.9830 C   0  0  0  0  0  0
  -25.2487  -13.8154   20.5588 C   0  0  0  0  0  0
  -24.1777  -13.0447   20.9193 C   0  0  0  0  0  0
  -24.6341  -11.6911   20.8789 C   0  0  0  0  0  0
  -23.9038  -10.4298   21.0433 C   0  0  0  0  0  0
  -24.3605   -9.4210   21.9187 C   0  0  0  0  0  0
  -23.6291   -8.2243   22.0755 C   0  0  0  0  0  0
  -22.4261   -8.0283   21.3544 C   0  0  0  0  0  0
  -21.9901   -9.0265   20.4645 C   0  0  0  0  0  0
  -22.7228  -10.2139   20.3068 C   0  0  0  0  0  0
  -21.6858   -6.0734   22.5286 C   0  0  0  0  0  0
  -21.4008   -6.5645   23.8218 C   0  0  0  0  0  0
  -21.3665   -5.6798   24.9183 C   0  0  0  0  0  0
  -21.6041   -4.3059   24.7227 C   0  0  0  0  0  0
  -21.8827   -3.8152   23.4351 C   0  0  0  0  0  0
  -21.9193   -4.6966   22.3407 C   0  0  0  0  0  0
  -22.7802  -13.5227   21.1904 C   0  0  0  0  0  0
  -22.1659   -4.2165   21.0980 F   0  0  0  0  0  0
  -21.5635   -3.4536   25.7736 F   0  0  0  0  0  0
  -29.9970  -13.3741   20.4148 N   0  0  0  0  0  0
  -26.2901  -12.9305   20.3241 N   0  0  0  0  0  0
  -25.9248  -11.6483   20.5814 N   0  0  0  0  0  0
  -22.0465  -12.8202   22.0461 N   0  0  0  0  0  0
  -25.4105  -15.1854   20.3770 N   0  0  0  0  0  0
  -31.8841  -14.5986   20.1726 O   0  0  0  0  0  0
  -21.6632   -6.8856   21.4234 O   0  0  0  0  0  0
  -22.3472  -14.5543   20.6781 O   0  0  0  0  0  0
  -24.6086  -31.8638   23.2160 C   0  0  0  0  0  0
  -25.8941  -32.4836   23.8453 C   0  0  1  0  0  0
  -27.2237  -27.4025   20.0839 C   0  0  0  0  0  0
  -25.5860  -33.8661   24.2253 N   0  0  0  0  0  0
  -23.4053  -30.4885   21.5504 C   0  0  2  0  0  0
  -24.8506  -28.9613   20.0951 C   0  0  0  0  0  0
  -22.7410  -29.4671   22.4963 C   0  0  0  0  0  0
  -18.0250  -28.1366   22.8431 C   0  0  0  0  0  0
  -24.1482  -36.7338   23.2637 C   0  0  0  0  0  0
  -25.9369  -30.8131   21.3841 C   0  0  0  0  0  0
  -26.0051  -29.4465   20.7265 C   0  0  0  0  0  0
  -27.1788  -28.6556   20.7467 C   0  0  0  0  0  0
  -26.0806  -27.0074   19.3553 C   0  0  0  0  0  0
  -24.8835  -27.7390   19.4113 C   0  0  0  0  0  0
  -23.6113  -29.8213   20.1655 C   0  0  0  0  0  0
  -25.4129  -36.3143   24.0287 C   0  0  1  0  0  0
  -20.5823  -28.3738   23.1251 C   0  0  2  0  0  0
  -20.6777  -26.9401   22.5553 C   0  0  0  0  0  0
  -19.5819  -26.6159   21.5365 C   0  0  0  0  0  0
  -18.1908  -26.7863   22.1609 C   0  0  0  0  0  0
  -19.1472  -28.8845   23.2854 C   0  0  0  0  0  0
  -18.9359  -30.1427   23.8927 C   0  0  0  0  0  0
  -17.6365  -30.6525   24.0543 C   0  0  0  0  0  0
  -25.8998  -34.9531   23.5048 C   0  0  0  0  0  0
  -16.5268  -29.9057   23.6277 C   0  0  0  0  0  0
  -16.7253  -28.6499   23.0254 C   0  0  0  0  0  0
  -26.4433  -31.6751   25.0811 C   0  0  0  0  0  0
  -25.3703  -31.3996   26.1561 C   0  0  0  0  0  0
  -27.0238  -30.3121   24.6447 C   0  0  0  0  0  0
  -27.6060  -32.4541   25.7479 C   0  0  0  0  0  0
  -27.5599  -37.1847   24.8447 C   0  0  0  0  0  0
  -21.4110  -29.3191   22.3733 N   0  0  0  0  0  0
  -26.4352  -37.3818   23.9308 N   0  0  0  0  0  0
  -24.6704  -31.0659   22.1147 N   0  0  0  0  0  0
  -23.4148  -28.8138   23.2993 O   0  0  0  0  0  0
  -28.3627  -26.6214   20.2179 O   0  0  0  0  0  0
  -26.5507  -34.9034   22.4564 O   0  0  0  0  0  0
  -23.5243  -32.1450   23.7422 O   0  0  0  0  0  0
  -26.4780  -20.2603   18.2353 C   0  0  0  0  0  0
  -26.7052  -19.2038   19.1281 C   0  0  0  0  0  0
  -26.7914  -21.5745   18.6163 C   0  0  0  0  0  0
  -27.3859  -20.8077   20.8502 C   0  0  0  0  0  0
  -27.1842  -19.4586   20.4289 C   0  0  0  0  0  0
  -27.3038  -21.8715   19.9057 C   0  0  0  0  0  0
  -26.6235  -20.8759   23.3588 C   0  0  0  0  0  0
  -27.0169  -22.2838   23.0067 C   0  0  0  0  0  0
  -27.6787  -21.1113   22.2913 C   0  0  0  0  0  0
  -28.8637  -16.2571   21.3062 C   0  0  0  0  0  0
  -28.7387  -17.7653   20.9375 C   0  0  0  0  0  0
  -28.6469  -25.4292   19.4372 C   0  0  0  0  0  0
  -27.7008  -24.1849   19.2789 C   0  0  0  0  0  0
  -30.1286  -15.7169   20.7803 N   0  0  0  0  0  0
  -27.4741  -18.3745   21.2350 O   0  0  0  0  0  0
  -27.7480  -23.1431   20.2694 O   0  0  0  0  0  0
  -31.4437  -12.4428   19.1291 H   0  0  0  0  0  0
  -30.3087  -11.3551   19.8758 H   0  0  0  0  0  0
  -29.7424  -11.7518   17.4491 H   0  0  0  0  0  0
  -29.6232  -13.4673   17.7504 H   0  0  0  0  0  0
  -27.8533  -11.2674   18.8708 H   0  0  0  0  0  0
  -27.3485  -12.5350   17.7915 H   0  0  0  0  0  0
  -27.6570  -14.2208   19.4763 H   0  0  0  0  0  0
  -28.6852  -12.0501   21.3823 H   0  0  0  0  0  0
  -28.4470  -13.7066   21.8272 H   0  0  0  0  0  0
  -25.2747   -9.5709   22.4743 H   0  0  0  0  0  0
  -24.0035   -7.4623   22.7468 H   0  0  0  0  0  0
  -21.0837   -8.8765   19.8937 H   0  0  0  0  0  0
  -22.3681  -10.9672   19.6187 H   0  0  0  0  0  0
  -21.1991   -7.6150   23.9731 H   0  0  0  0  0  0
  -21.1478   -6.0517   25.9088 H   0  0  0  0  0  0
  -22.0593   -2.7614   23.2847 H   0  0  0  0  0  0
  -22.4125  -11.9873   22.4828 H   0  0  0  0  0  0
  -21.1104  -13.1247   22.2758 H   0  0  0  0  0  0
  -24.6320  -15.8301   20.4702 H   0  0  0  0  0  0
  -26.2301  -15.6061   19.9642 H   0  0  0  0  0  0
  -26.6947  -32.5478   23.1168 H   0  0  0  0  0  0
  -25.0147  -33.9900   25.0488 H   0  0  0  0  0  0
  -22.7061  -31.3104   21.3922 H   0  0  0  0  0  0
  -23.3767  -35.9647   23.3295 H   0  0  0  0  0  0
  -24.3637  -36.8933   22.2075 H   0  0  0  0  0  0
  -23.7245  -37.6569   23.6628 H   0  0  0  0  0  0
  -26.0396  -31.5741   20.6149 H   0  0  0  0  0  0
  -26.8266  -30.8707   21.9992 H   0  0  0  0  0  0
  -28.0450  -29.0056   21.2905 H   0  0  0  0  0  0
  -26.0697  -26.1708   18.6859 H   0  0  0  0  0  0
  -24.0114  -27.3869   18.8686 H   0  0  0  0  0  0
  -23.7070  -30.5834   19.3925 H   0  0  0  0  0  0
  -22.7294  -29.2370   19.8933 H   0  0  0  0  0  0
  -25.1343  -36.2049   25.0804 H   0  0  0  0  0  0
  -20.9813  -28.3285   24.1388 H   0  0  0  0  0  0
  -20.5539  -26.2451   23.3869 H   0  0  0  0  0  0
  -21.6711  -26.7376   22.1527 H   0  0  0  0  0  0
  -19.6921  -25.5977   21.1639 H   0  0  0  0  0  0
  -19.6793  -27.2763   20.6734 H   0  0  0  0  0  0
  -17.4352  -26.6720   21.3852 H   0  0  0  0  0  0
  -18.0112  -26.0048   22.8996 H   0  0  0  0  0  0
  -19.7805  -30.7260   24.2342 H   0  0  0  0  0  0
  -17.4906  -31.6230   24.5100 H   0  0  0  0  0  0
  -15.5262  -30.2968   23.7526 H   0  0  0  0  0  0
  -15.8677  -28.0813   22.6879 H   0  0  0  0  0  0
  -24.6091  -30.7044   25.8010 H   0  0  0  0  0  0
  -24.8639  -32.3174   26.4590 H   0  0  0  0  0  0
  -25.8104  -30.9658   27.0542 H   0  0  0  0  0  0
  -26.2634  -29.6698   24.2009 H   0  0  0  0  0  0
  -27.4260  -29.7712   25.5015 H   0  0  0  0  0  0
  -27.8414  -30.4184   23.9316 H   0  0  0  0  0  0
  -27.2710  -33.3847   26.2069 H   0  0  0  0  0  0
  -28.3904  -32.7079   25.0337 H   0  0  0  0  0  0
  -28.0727  -31.8716   26.5451 H   0  0  0  0  0  0
  -28.2613  -38.0140   24.7477 H   0  0  0  0  0  0
  -28.1071  -36.2682   24.6242 H   0  0  0  0  0  0
  -27.2347  -37.1502   25.8869 H   0  0  0  0  0  0
  -20.9346  -29.9271   21.7230 H   0  0  0  0  0  0
  -26.0226  -38.2897   24.1278 H   0  0  0  0  0  0
  -26.0859  -20.0644   17.2461 H   0  0  0  0  0  0
  -26.5260  -18.1858   18.8098 H   0  0  0  0  0  0
  -26.6234  -22.3389   17.8757 H   0  0  0  0  0  0
  -25.6157  -20.5682   23.0695 H   0  0  0  0  0  0
  -26.9502  -20.5442   24.3453 H   0  0  0  0  0  0
  -27.5830  -22.8212   23.7606 H   0  0  0  0  0  0
  -26.2698  -22.8808   22.4796 H   0  0  0  0  0  0
  -28.7153  -20.8779   22.5303 H   0  0  0  0  0  0
  -28.0011  -15.7483   20.9037 H   0  0  0  0  0  0
  -28.8392  -16.1319   22.3902 H   0  0  0  0  0  0
  -28.9585  -17.8704   19.8746 H   0  0  0  0  0  0
  -29.5002  -18.3316   21.4763 H   0  0  0  0  0  0
  -28.9121  -25.7706   18.4374 H   0  0  0  0  0  0
  -29.5786  -25.0391   19.8493 H   0  0  0  0  0  0
  -28.0830  -23.7557   18.3519 H   0  0  0  0  0  0
  -26.6559  -24.3919   19.1006 H   0  0  0  0  0  0
  -30.7943  -16.4541   20.6122 H   0  0  0  0  0  0
  1 25  1  0  0  0
  1 30  2  0  0  0
  1 84  1  0  0  0
  2  3  1  0  0  0
  2 25  1  0  0  0
  2 87  1  0  0  0
  2 88  1  0  0  0
  3  4  1  0  0  0
  3 89  1  0  0  0
  3 90  1  0  0  0
  4  5  1  0  0  0
  4 91  1  0  0  0
  4 92  1  0  0  0
  5  6  1  0  0  0
  5 26  1  0  0  0
  5 93  1  0  0  0
  6 25  1  0  0  0
  6 94  1  0  0  0
  6 95  1  0  0  0
  7  8  2  0  0  0
  7 26  1  0  0  0
  7 29  1  0  0  0
  8  9  1  0  0  0
  8 22  1  0  0  0
  9 10  1  0  0  0
  9 27  2  0  0  0
 10 11  2  0  0  0
 10 15  1  0  0  0
 11 12  1  0  0  0
 11 96  1  0  0  0
 12 13  2  0  0  0
 12 97  1  0  0  0
 13 14  1  0  0  0
 13 31  1  0  0  0
 14 15  2  0  0  0
 14 98  1  0  0  0
 15 99  1  0  0  0
 16 17  2  0  0  0
 16 21  1  0  0  0
 16 31  1  0  0  0
 17 18  1  0  0  0
 17100  1  0  0  0
 18 19  2  0  0  0
 18101  1  0  0  0
 19 20  1  0  0  0
 19 24  1  0  0  0
 20 21  2  0  0  0
 20102  1  0  0  0
 21 23  1  0  0  0
 22 28  1  0  0  0
 22 32  2  0  0  0
 26 27  1  0  0  0
 28103  1  0  0  0
 28104  1  0  0  0
 29105  1  0  0  0
 29106  1  0  0  0
 33 34  1  0  0  0
 33 66  1  0  0  0
 33 70  2  0  0  0
 34 36  1  0  0  0
 34 59  1  0  0  0
 34107  1  0  0  0
 35 44  2  0  0  0
 35 45  1  0  0  0
 35 68  1  0  0  0
 36 56  1  0  0  0
 36108  1  0  0  0
 37 39  1  0  0  0
 37 47  1  0  0  0
 37 66  1  0  0  0
 37109  1  0  0  0
 38 43  2  0  0  0
 38 46  1  0  0  0
 38 47  1  0  0  0
 39 64  1  0  0  0
 39 67  2  0  0  0
 40 52  1  0  0  0
 40 53  2  0  0  0
 40 58  1  0  0  0
 41110  1  0  0  0
 41111  1  0  0  0
 41112  1  0  0  0
 41 48  1  0  0  0
 42 43  1  0  0  0
 42 66  1  0  0  0
 42113  1  0  0  0
 42114  1  0  0  0
 43 44  1  0  0  0
 44115  1  0  0  0
 45 46  2  0  0  0
 45116  1  0  0  0
 46117  1  0  0  0
 47118  1  0  0  0
 47119  1  0  0  0
 48 56  1  0  0  0
 48 65  1  0  0  0
 48120  1  0  0  0
 49 50  1  0  0  0
 49 53  1  0  0  0
 49 64  1  0  0  0
 49121  1  0  0  0
 50 51  1  0  0  0
 50122  1  0  0  0
 50123  1  0  0  0
 51 52  1  0  0  0
 51124  1  0  0  0
 51125  1  0  0  0
 52126  1  0  0  0
 52127  1  0  0  0
 53 54  1  0  0  0
 54 55  2  0  0  0
 54128  1  0  0  0
 55 57  1  0  0  0
 55129  1  0  0  0
 56 69  2  0  0  0
 57 58  2  0  0  0
 57130  1  0  0  0
 58131  1  0  0  0
 59 60  1  0  0  0
 59 61  1  0  0  0
 59 62  1  0  0  0
 60132  1  0  0  0
 60133  1  0  0  0
 60134  1  0  0  0
 61135  1  0  0  0
 61136  1  0  0  0
 61137  1  0  0  0
 62138  1  0  0  0
 62139  1  0  0  0
 62140  1  0  0  0
 63 65  1  0  0  0
 63141  1  0  0  0
 63142  1  0  0  0
 63143  1  0  0  0
 64144  1  0  0  0
 65145  1  0  0  0
 68 82  1  0  0  0
 71 72  2  0  0  0
 71 73  1  0  0  0
 71146  1  0  0  0
 72 75  1  0  0  0
 72147  1  0  0  0
 73 76  2  0  0  0
 73148  1  0  0  0
 74 75  2  0  0  0
 74 76  1  0  0  0
 74 79  1  0  0  0
 75 85  1  0  0  0
 76 86  1  0  0  0
 77 78  1  0  0  0
 77 79  1  0  0  0
 77149  1  0  0  0
 77150  1  0  0  0
 78 79  1  0  0  0
 78151  1  0  0  0
 78152  1  0  0  0
 79153  1  0  0  0
 80 81  1  0  0  0
 80 84  1  0  0  0
 80154  1  0  0  0
 80155  1  0  0  0
 81 85  1  0  0  0
 81156  1  0  0  0
 81157  1  0  0  0
 82 83  1  0  0  0
 82158  1  0  0  0
 82159  1  0  0  0
 83 86  1  0  0  0
 83160  1  0  0  0
 83161  1  0  0  0
 84162  1  0  0  0
M  ISO  4   1 100  68 101  82 101  84 100
M  END
> <chiral flag>
0

> <version>
0

> <s_m_source_file>
/data/baiqing/PycharmProjects/Reinvent-master-3.2/result/LINK_invent/BTK/process_docking_weight1_custom_sum_contain_oxygen_bond_distance_aromatic_linkinvent_7_9_3/rearranged_h_0143.sdf

> <i_m_source_file_index>
49

> <r_mmod_Potential_Energy-OPLS-2005>
131.335922241211

> <r_mmod_Stretch_Energy-OPLS-2005>
45.216983795166

> <r_mmod_Bend_Energy-OPLS-2005>
194.330749511719

> <r_mmod_Torsional_Energy-OPLS-2005>
305.911956787109

> <r_mmod_Improper_Torsional_Energy-OPLS-2005>
7.47165536880493

> <r_mmod_Van_der_Waal_Energy-OPLS-2005>
159.150894165039

> <r_mmod_Electrostatic_Energy-OPLS-2005>
-402.573760986328

> <r_mmod_Solvation_Energy-OPLS-2005>
-212.092514038086

> <b_mmod_Minimization_Converged-OPLS-2005>
0

> <r_mmod_RMS_Derivative-OPLS-2005>
9.45503997802734

$$$$
49
                    3D
 Structure written by MMmdl.
167176  0  0  1  0            999 V2000
  -30.6087  -14.7507   20.4107 C   0  0  0  0  0  0
  -30.4334  -12.4524   19.4603 C   0  0  0  0  0  0
  -29.5061  -12.4833   18.2262 C   0  0  0  0  0  0
  -28.0338  -12.3137   18.6505 C   0  0  0  0  0  0
  -27.6380  -13.2291   19.8407 C   0  0  2  0  0  0
  -28.6877  -13.1894   20.9702 C   0  0  0  0  0  0
  -25.2530  -13.8198   20.5718 C   0  0  0  0  0  0
  -24.1804  -13.0445   20.9216 C   0  0  0  0  0  0
  -24.6390  -11.6921   20.8754 C   0  0  0  0  0  0
  -23.9063  -10.4299   21.0416 C   0  0  0  0  0  0
  -24.3614   -9.4213   21.9193 C   0  0  0  0  0  0
  -23.6293   -8.2245   22.0754 C   0  0  0  0  0  0
  -22.4276   -8.0285   21.3543 C   0  0  0  0  0  0
  -21.9912   -9.0257   20.4646 C   0  0  0  0  0  0
  -22.7235  -10.2142   20.3063 C   0  0  0  0  0  0
  -21.6853   -6.0739   22.5279 C   0  0  0  0  0  0
  -21.4009   -6.5640   23.8213 C   0  0  0  0  0  0
  -21.3660   -5.6794   24.9174 C   0  0  0  0  0  0
  -21.6044   -4.3058   24.7224 C   0  0  0  0  0  0
  -21.8821   -3.8149   23.4345 C   0  0  0  0  0  0
  -21.9195   -4.6970   22.3405 C   0  0  0  0  0  0
  -22.7831  -13.5235   21.1877 C   0  0  0  0  0  0
  -22.1664   -4.2154   21.0987 F   0  0  0  0  0  0
  -21.5632   -3.4541   25.7737 F   0  0  0  0  0  0
  -29.9803  -13.5284   20.3669 N   0  0  0  0  0  0
  -26.2937  -12.9387   20.3279 N   0  0  0  0  0  0
  -25.9319  -11.6538   20.5757 N   0  0  0  0  0  0
  -22.0468  -12.8216   22.0426 N   0  0  0  0  0  0
  -25.4258  -15.1915   20.4162 N   0  0  0  0  0  0
  -31.8316  -14.8150   20.2468 O   0  0  0  0  0  0
  -21.6640   -6.8880   21.4240 O   0  0  0  0  0  0
  -22.3517  -14.5544   20.6739 O   0  0  0  0  0  0
  -24.6315  -31.8545   23.1968 C   0  0  0  0  0  0
  -25.9133  -32.4761   23.8319 C   0  0  1  0  0  0
  -27.2194  -27.2550   20.1352 C   0  0  0  0  0  0
  -25.5906  -33.8558   24.2243 N   0  0  0  0  0  0
  -23.4300  -30.4736   21.5426 C   0  0  2  0  0  0
  -24.8767  -28.9156   20.1153 C   0  0  0  0  0  0
  -22.7514  -29.4588   22.4934 C   0  0  0  0  0  0
  -18.0283  -28.1388   22.8475 C   0  0  0  0  0  0
  -24.1482  -36.7283   23.2646 C   0  0  0  0  0  0
  -25.9747  -30.7665   21.3753 C   0  0  0  0  0  0
  -26.0492  -29.3863   20.7208 C   0  0  0  0  0  0
  -27.2268  -28.5707   20.7121 C   0  0  0  0  0  0
  -26.0264  -26.8520   19.4988 C   0  0  0  0  0  0
  -24.8700  -27.6574   19.4923 C   0  0  0  0  0  0
  -23.6480  -29.8028   20.1610 C   0  0  0  0  0  0
  -25.4113  -36.3075   24.0327 C   0  0  1  0  0  0
  -20.5885  -28.3703   23.1258 C   0  0  2  0  0  0
  -20.6762  -26.9416   22.5402 C   0  0  0  0  0  0
  -19.5745  -26.6381   21.5197 C   0  0  0  0  0  0
  -18.1927  -26.7928   22.1610 C   0  0  0  0  0  0
  -19.1538  -28.8862   23.2861 C   0  0  0  0  0  0
  -18.9464  -30.1456   23.8890 C   0  0  0  0  0  0
  -17.6464  -30.6591   24.0550 C   0  0  0  0  0  0
  -25.9045  -34.9444   23.5096 C   0  0  0  0  0  0
  -16.5353  -29.9086   23.6326 C   0  0  0  0  0  0
  -16.7270  -28.6501   23.0347 C   0  0  0  0  0  0
  -26.4489  -31.6599   25.0719 C   0  0  0  0  0  0
  -25.3699  -31.3727   26.1429 C   0  0  0  0  0  0
  -27.0349  -30.3026   24.6206 C   0  0  0  0  0  0
  -27.6051  -32.4345   25.7479 C   0  0  0  0  0  0
  -27.5578  -37.1796   24.8463 C   0  0  0  0  0  0
  -21.4220  -29.3048   22.3671 N   0  0  0  0  0  0
  -26.4292  -37.3773   23.9406 N   0  0  0  0  0  0
  -24.6985  -31.0494   22.0954 N   0  0  0  0  0  0
  -23.4198  -28.8133   23.3053 O   0  0  0  0  0  0
  -28.3176  -26.3659   20.1500 O   0  0  0  0  0  0
  -26.5638  -34.8923   22.4679 O   0  0  0  0  0  0
  -23.5455  -32.1365   23.7251 O   0  0  0  0  0  0
  -29.4938  -20.4732   21.6853 C   0  0  0  0  0  0
  -28.9255  -21.0609   19.6519 C   0  0  0  0  0  0
  -29.2273  -19.9136   20.3989 C   0  0  0  0  0  0
  -29.3894  -21.8515   21.6656 C   0  0  0  0  0  0
  -29.7010  -17.1698   20.9450 C   0  0  0  0  0  0
  -29.8220  -16.3640   18.7531 C   0  0  0  0  0  0
  -29.2096  -18.3571   19.9892 C   0  0  2  0  0  0
  -29.9710  -17.9129   18.7331 C   0  0  2  0  0  0
  -29.6447  -22.8083   22.7860 C   0  0  0  0  0  0
  -30.5203  -18.0795   16.2396 C   0  0  0  0  0  0
  -28.1352  -18.4698   16.9880 C   0  0  0  0  0  0
  -28.9236  -23.7156   19.8341 C   0  0  0  0  0  0
  -28.1137  -24.9248   20.5566 C   0  0  0  0  0  0
  -29.6195  -18.5859   17.3801 C   0  0  0  0  0  0
  -29.0200  -22.2760   20.3875 N   0  0  0  0  0  0
  -29.8306  -15.8808   20.1507 N   0  0  0  0  0  0
  -31.4723  -12.5831   19.1531 H   0  0  0  0  0  0
  -30.3821  -11.4853   19.9623 H   0  0  0  0  0  0
  -29.7844  -11.6938   17.5269 H   0  0  0  0  0  0
  -29.6291  -13.4255   17.6895 H   0  0  0  0  0  0
  -27.8975  -11.2689   18.9317 H   0  0  0  0  0  0
  -27.3713  -12.4881   17.8022 H   0  0  0  0  0  0
  -27.6208  -14.2433   19.4438 H   0  0  0  0  0  0
  -28.7276  -12.2051   21.4401 H   0  0  0  0  0  0
  -28.4335  -13.9038   21.7555 H   0  0  0  0  0  0
  -25.2757   -9.5701   22.4771 H   0  0  0  0  0  0
  -24.0009   -7.4638   22.7472 H   0  0  0  0  0  0
  -21.0848   -8.8782   19.8941 H   0  0  0  0  0  0
  -22.3697  -10.9689   19.6178 H   0  0  0  0  0  0
  -21.1991   -7.6146   23.9716 H   0  0  0  0  0  0
  -21.1478   -6.0524   25.9081 H   0  0  0  0  0  0
  -22.0598   -2.7612   23.2848 H   0  0  0  0  0  0
  -22.4081  -11.9875   22.4809 H   0  0  0  0  0  0
  -21.1089  -13.1245   22.2624 H   0  0  0  0  0  0
  -24.6663  -15.8525   20.5359 H   0  0  0  0  0  0
  -26.2912  -15.6293   20.1240 H   0  0  0  0  0  0
  -26.7206  -32.5397   23.1064 H   0  0  0  0  0  0
  -24.9994  -33.9670   25.0347 H   0  0  0  0  0  0
  -22.7280  -31.2963   21.3940 H   0  0  0  0  0  0
  -23.3755  -35.9603   23.3300 H   0  0  0  0  0  0
  -24.3566  -36.8906   22.2059 H   0  0  0  0  0  0
  -23.7216  -37.6474   23.6680 H   0  0  0  0  0  0
  -26.1050  -31.5268   20.6034 H   0  0  0  0  0  0
  -26.8544  -30.8209   22.0054 H   0  0  0  0  0  0
  -28.1314  -28.9293   21.1836 H   0  0  0  0  0  0
  -25.9749  -25.8911   19.0063 H   0  0  0  0  0  0
  -23.9718  -27.2931   19.0130 H   0  0  0  0  0  0
  -23.7740  -30.5761   19.4027 H   0  0  0  0  0  0
  -22.7663  -29.2355   19.8583 H   0  0  0  0  0  0
  -25.1295  -36.1927   25.0819 H   0  0  0  0  0  0
  -20.9956  -28.3278   24.1384 H   0  0  0  0  0  0
  -20.5631  -26.2313   23.3608 H   0  0  0  0  0  0
  -21.6632  -26.7417   22.1215 H   0  0  0  0  0  0
  -19.6894  -25.6287   21.1234 H   0  0  0  0  0  0
  -19.6674  -27.3183   20.6720 H   0  0  0  0  0  0
  -17.4180  -26.6650   21.4031 H   0  0  0  0  0  0
  -18.0345  -26.0080   22.9022 H   0  0  0  0  0  0
  -19.7947  -30.7262   24.2264 H   0  0  0  0  0  0
  -17.5024  -31.6270   24.5163 H   0  0  0  0  0  0
  -15.5354  -30.2980   23.7674 H   0  0  0  0  0  0
  -15.8664  -28.0820   22.7067 H   0  0  0  0  0  0
  -24.5885  -30.7070   25.7735 H   0  0  0  0  0  0
  -24.8871  -32.2877   26.4879 H   0  0  0  0  0  0
  -25.7999  -30.8884   27.0206 H   0  0  0  0  0  0
  -26.2933  -29.6763   24.1237 H   0  0  0  0  0  0
  -27.4027  -29.7299   25.4728 H   0  0  0  0  0  0
  -27.8809  -30.4303   23.9448 H   0  0  0  0  0  0
  -27.2686  -33.3672   26.2028 H   0  0  0  0  0  0
  -28.3878  -32.6869   25.0305 H   0  0  0  0  0  0
  -28.0718  -31.8489   26.5411 H   0  0  0  0  0  0
  -28.2602  -38.0096   24.7536 H   0  0  0  0  0  0
  -28.1073  -36.2625   24.6278 H   0  0  0  0  0  0
  -27.2289  -37.1422   25.8865 H   0  0  0  0  0  0
  -20.9420  -29.8783   21.6875 H   0  0  0  0  0  0
  -26.0175  -38.2842   24.1431 H   0  0  0  0  0  0
  -29.7560  -19.9034   22.5666 H   0  0  0  0  0  0
  -28.6540  -21.1320   18.6077 H   0  0  0  0  0  0
  -29.0100  -17.0296   21.7767 H   0  0  0  0  0  0
  -30.6756  -17.4093   21.3751 H   0  0  0  0  0  0
  -30.6014  -15.9014   18.1433 H   0  0  0  0  0  0
  -28.8705  -16.0627   18.3157 H   0  0  0  0  0  0
  -28.1524  -18.1593   19.8082 H   0  0  0  0  0  0
  -31.0252  -18.1334   18.9187 H   0  0  0  0  0  0
  -30.1942  -23.6874   22.4487 H   0  0  0  0  0  0
  -30.2408  -22.3355   23.5670 H   0  0  0  0  0  0
  -28.7098  -23.1340   23.2435 H   0  0  0  0  0  0
  -31.5774  -18.1645   16.4960 H   0  0  0  0  0  0
  -30.3627  -18.6568   15.3275 H   0  0  0  0  0  0
  -30.3213  -17.0346   16.0011 H   0  0  0  0  0  0
  -27.4828  -18.9071   17.7433 H   0  0  0  0  0  0
  -27.8316  -17.4338   16.8408 H   0  0  0  0  0  0
  -27.9369  -18.9971   16.0543 H   0  0  0  0  0  0
  -29.9538  -24.0511   19.7171 H   0  0  0  0  0  0
  -28.5410  -23.6385   18.8158 H   0  0  0  0  0  0
  -28.3666  -24.9149   21.6145 H   0  0  0  0  0  0
  -27.0560  -24.6658   20.5361 H   0  0  0  0  0  0
  -29.8497  -19.6455   17.4827 H   0  0  0  0  0  0
  1 25  1  0  0  0
  1 30  2  0  0  0
  1 86  1  0  0  0
  2  3  1  0  0  0
  2 25  1  0  0  0
  2 87  1  0  0  0
  2 88  1  0  0  0
  3  4  1  0  0  0
  3 89  1  0  0  0
  3 90  1  0  0  0
  4  5  1  0  0  0
  4 91  1  0  0  0
  4 92  1  0  0  0
  5  6  1  0  0  0
  5 26  1  0  0  0
  5 93  1  0  0  0
  6 25  1  0  0  0
  6 94  1  0  0  0
  6 95  1  0  0  0
  7  8  2  0  0  0
  7 26  1  0  0  0
  7 29  1  0  0  0
  8  9  1  0  0  0
  8 22  1  0  0  0
  9 10  1  0  0  0
  9 27  2  0  0  0
 10 11  2  0  0  0
 10 15  1  0  0  0
 11 12  1  0  0  0
 11 96  1  0  0  0
 12 13  2  0  0  0
 12 97  1  0  0  0
 13 14  1  0  0  0
 13 31  1  0  0  0
 14 15  2  0  0  0
 14 98  1  0  0  0
 15 99  1  0  0  0
 16 17  2  0  0  0
 16 21  1  0  0  0
 16 31  1  0  0  0
 17 18  1  0  0  0
 17100  1  0  0  0
 18 19  2  0  0  0
 18101  1  0  0  0
 19 20  1  0  0  0
 19 24  1  0  0  0
 20 21  2  0  0  0
 20102  1  0  0  0
 21 23  1  0  0  0
 22 28  1  0  0  0
 22 32  2  0  0  0
 26 27  1  0  0  0
 28103  1  0  0  0
 28104  1  0  0  0
 29105  1  0  0  0
 29106  1  0  0  0
 33 34  1  0  0  0
 33 66  1  0  0  0
 33 70  2  0  0  0
 34 36  1  0  0  0
 34 59  1  0  0  0
 34107  1  0  0  0
 35 44  2  0  0  0
 35 45  1  0  0  0
 35 68  1  0  0  0
 36 56  1  0  0  0
 36108  1  0  0  0
 37 39  1  0  0  0
 37 47  1  0  0  0
 37 66  1  0  0  0
 37109  1  0  0  0
 38 43  2  0  0  0
 38 46  1  0  0  0
 38 47  1  0  0  0
 39 64  1  0  0  0
 39 67  2  0  0  0
 40 52  1  0  0  0
 40 53  2  0  0  0
 40 58  1  0  0  0
 41110  1  0  0  0
 41111  1  0  0  0
 41112  1  0  0  0
 41 48  1  0  0  0
 42 43  1  0  0  0
 42 66  1  0  0  0
 42113  1  0  0  0
 42114  1  0  0  0
 43 44  1  0  0  0
 44115  1  0  0  0
 45 46  2  0  0  0
 45116  1  0  0  0
 46117  1  0  0  0
 47118  1  0  0  0
 47119  1  0  0  0
 48 56  1  0  0  0
 48 65  1  0  0  0
 48120  1  0  0  0
 49 50  1  0  0  0
 49 53  1  0  0  0
 49 64  1  0  0  0
 49121  1  0  0  0
 50 51  1  0  0  0
 50122  1  0  0  0
 50123  1  0  0  0
 51 52  1  0  0  0
 51124  1  0  0  0
 51125  1  0  0  0
 52126  1  0  0  0
 52127  1  0  0  0
 53 54  1  0  0  0
 54 55  2  0  0  0
 54128  1  0  0  0
 55 57  1  0  0  0
 55129  1  0  0  0
 56 69  2  0  0  0
 57 58  2  0  0  0
 57130  1  0  0  0
 58131  1  0  0  0
 59 60  1  0  0  0
 59 61  1  0  0  0
 59 62  1  0  0  0
 60132  1  0  0  0
 60133  1  0  0  0
 60134  1  0  0  0
 61135  1  0  0  0
 61136  1  0  0  0
 61137  1  0  0  0
 62138  1  0  0  0
 62139  1  0  0  0
 62140  1  0  0  0
 63 65  1  0  0  0
 63141  1  0  0  0
 63142  1  0  0  0
 63143  1  0  0  0
 64144  1  0  0  0
 65145  1  0  0  0
 68 83  1  0  0  0
 71 73  1  0  0  0
 71 74  2  0  0  0
 71146  1  0  0  0
 72 73  2  0  0  0
 72 85  1  0  0  0
 72147  1  0  0  0
 73 77  1  0  0  0
 74 79  1  0  0  0
 74 85  1  0  0  0
 75 77  1  0  0  0
 75 86  1  0  0  0
 75148  1  0  0  0
 75149  1  0  0  0
 76 86  1  0  0  0
 76150  1  0  0  0
 76151  1  0  0  0
 76 78  1  0  0  0
 77 78  1  0  0  0
 77152  1  0  0  0
 78 84  1  0  0  0
 78153  1  0  0  0
 79154  1  0  0  0
 79155  1  0  0  0
 79156  1  0  0  0
 80157  1  0  0  0
 80158  1  0  0  0
 80159  1  0  0  0
 80 84  1  0  0  0
 81 84  1  0  0  0
 81160  1  0  0  0
 81161  1  0  0  0
 81162  1  0  0  0
 82 83  1  0  0  0
 82 85  1  0  0  0
 82163  1  0  0  0
 82164  1  0  0  0
 83165  1  0  0  0
 83166  1  0  0  0
 84167  1  0  0  0
M  ISO  4   1 100  68 101  83 101  86 100
M  END
> <chiral flag>
0

> <version>
0

> <s_m_source_file>
/data/baiqing/PycharmProjects/Reinvent-master-3.2/result/LINK_invent/BTK/process_docking_weight1_custom_sum_contain_oxygen_bond_distance_aromatic_linkinvent_7_9_3/rearranged_h_0143.sdf

> <i_m_source_file_index>
50

> <r_mmod_Potential_Energy-OPLS-2005>
432.491088867188

> <r_mmod_Stretch_Energy-OPLS-2005>
124.144256591797

> <r_mmod_Bend_Energy-OPLS-2005>
218.486877441406

> <r_mmod_Torsional_Energy-OPLS-2005>
371.204040527344

> <r_mmod_Improper_Torsional_Energy-OPLS-2005>
19.733268737793

> <r_mmod_Van_der_Waal_Energy-OPLS-2005>
103.54727935791

> <r_mmod_Electrostatic_Energy-OPLS-2005>
-306.111877441406

> <r_mmod_Solvation_Energy-OPLS-2005>
-191.406616210938

> <b_mmod_Minimization_Converged-OPLS-2005>
0

> <r_mmod_RMS_Derivative-OPLS-2005>
1.48807382583618

$$$$
50
                    3D
 Structure written by MMmdl.
173182  0  0  1  0            999 V2000
  -30.5526  -14.7131   20.5081 C   0  0  0  0  0  0
  -30.4553  -12.4138   19.4815 C   0  0  0  0  0  0
  -29.5211  -12.5090   18.2502 C   0  0  0  0  0  0
  -28.0348  -12.3528   18.6429 C   0  0  0  0  0  0
  -27.6431  -13.2277   19.8636 C   0  0  2  0  0  0
  -28.6688  -13.0641   21.0036 C   0  0  0  0  0  0
  -25.2440  -13.8224   20.5711 C   0  0  0  0  0  0
  -24.1713  -13.0428   20.9240 C   0  0  0  0  0  0
  -24.6302  -11.6927   20.8754 C   0  0  0  0  0  0
  -23.8969  -10.4283   21.0399 C   0  0  0  0  0  0
  -24.3524   -9.4197   21.9173 C   0  0  0  0  0  0
  -23.6239   -8.2207   22.0719 C   0  0  0  0  0  0
  -22.4234   -8.0225   21.3508 C   0  0  0  0  0  0
  -21.9855   -9.0195   20.4611 C   0  0  0  0  0  0
  -22.7144  -10.2109   20.3027 C   0  0  0  0  0  0
  -21.6847   -6.0689   22.5295 C   0  0  0  0  0  0
  -21.4010   -6.5599   23.8222 C   0  0  0  0  0  0
  -21.3667   -5.6758   24.9189 C   0  0  0  0  0  0
  -21.6045   -4.3023   24.7244 C   0  0  0  0  0  0
  -21.8808   -3.8106   23.4371 C   0  0  0  0  0  0
  -21.9183   -4.6916   22.3418 C   0  0  0  0  0  0
  -22.7734  -13.5193   21.1929 C   0  0  0  0  0  0
  -22.1635   -4.2081   21.0998 F   0  0  0  0  0  0
  -21.5642   -3.4522   25.7772 F   0  0  0  0  0  0
  -29.9921  -13.4102   20.4681 N   0  0  0  0  0  0
  -26.2863  -12.9410   20.3281 N   0  0  0  0  0  0
  -25.9211  -11.6553   20.5676 N   0  0  0  0  0  0
  -22.0375  -12.8167   22.0497 N   0  0  0  0  0  0
  -25.4188  -15.1938   20.4193 N   0  0  0  0  0  0
  -31.6699  -14.9759   20.0519 O   0  0  0  0  0  0
  -21.6601   -6.8823   21.4243 O   0  0  0  0  0  0
  -22.3365  -14.5435   20.6732 O   0  0  0  0  0  0
  -24.6324  -31.8524   23.1948 C   0  0  0  0  0  0
  -25.9140  -32.4721   23.8322 C   0  0  1  0  0  0
  -27.2231  -27.2574   20.1346 C   0  0  0  0  0  0
  -25.5932  -33.8514   24.2252 N   0  0  0  0  0  0
  -23.4288  -30.4807   21.5330 C   0  0  2  0  0  0
  -24.8789  -28.9212   20.1059 C   0  0  0  0  0  0
  -22.7442  -29.4713   22.4840 C   0  0  0  0  0  0
  -18.0304  -28.1404   22.8439 C   0  0  0  0  0  0
  -24.1474  -36.7285   23.2655 C   0  0  0  0  0  0
  -25.9757  -30.7653   21.3748 C   0  0  0  0  0  0
  -26.0469  -29.3869   20.7221 C   0  0  0  0  0  0
  -27.2156  -28.5635   20.7320 C   0  0  0  0  0  0
  -26.0294  -26.8499   19.4986 C   0  0  0  0  0  0
  -24.8771  -27.6613   19.4860 C   0  0  0  0  0  0
  -23.6471  -29.8049   20.1515 C   0  0  0  0  0  0
  -25.4104  -36.3049   24.0324 C   0  0  1  0  0  0
  -20.5835  -28.3888   23.1156 C   0  0  2  0  0  0
  -20.6804  -26.9610   22.5358 C   0  0  0  0  0  0
  -19.5814  -26.6357   21.5232 C   0  0  0  0  0  0
  -18.1972  -26.8020   22.1536 C   0  0  0  0  0  0
  -19.1499  -28.8966   23.2769 C   0  0  0  0  0  0
  -18.9373  -30.1568   23.8728 C   0  0  0  0  0  0
  -17.6338  -30.6577   24.0478 C   0  0  0  0  0  0
  -25.9050  -34.9422   23.5098 C   0  0  0  0  0  0
  -16.5274  -29.8995   23.6315 C   0  0  0  0  0  0
  -16.7265  -28.6419   23.0353 C   0  0  0  0  0  0
  -26.4492  -31.6560   25.0735 C   0  0  0  0  0  0
  -25.3754  -31.3692   26.1481 C   0  0  0  0  0  0
  -27.0332  -30.2977   24.6243 C   0  0  0  0  0  0
  -27.6001  -32.4365   25.7530 C   0  0  0  0  0  0
  -27.5569  -37.1799   24.8475 C   0  0  0  0  0  0
  -21.4154  -29.3242   22.3556 N   0  0  0  0  0  0
  -26.4275  -37.3766   23.9421 N   0  0  0  0  0  0
  -24.6981  -31.0509   22.0911 N   0  0  0  0  0  0
  -23.4079  -28.8234   23.2974 O   0  0  0  0  0  0
  -28.3205  -26.3735   20.2487 O   0  0  0  0  0  0
  -26.5622  -34.8900   22.4668 O   0  0  0  0  0  0
  -23.5482  -32.1358   23.7248 O   0  0  0  0  0  0
  -28.6994  -20.9127   21.0768 C   0  0  0  0  0  0
  -28.8472  -22.4865   19.1750 C   0  0  0  0  0  0
  -28.7092  -21.1027   19.6430 C   0  0  0  0  0  0
  -28.4620  -22.1153   21.8538 C   0  0  0  0  0  0
  -28.5379  -23.6362   19.9886 C   0  0  0  0  0  0
  -29.0762  -17.4737   19.1807 C   0  0  0  0  0  0
  -28.0465  -18.6558   19.0765 C   0  0  0  0  0  0
  -28.9332  -19.5282   21.8401 C   0  0  2  0  0  0
  -29.9653  -18.3740   21.3495 C   0  0  2  0  0  0
  -29.3323  -17.1024   20.6523 C   0  0  2  0  0  0
  -29.4809  -22.7827   17.8118 C   0  0  0  0  0  0
  -28.2981  -22.1268   23.3737 C   0  0  0  0  0  0
  -27.6497  -18.9828   22.5388 C   0  0  0  0  0  0
  -30.9081  -17.9278   22.4839 C   0  0  0  0  0  0
  -27.8874  -20.4128   17.4300 C   0  0  0  0  0  0
  -28.4871  -25.1378   19.4224 C   0  0  0  0  0  0
  -28.3239  -23.3549   21.2901 N   0  3  0  0  0  0
  -28.5384  -20.0110   18.6949 N   0  0  0  0  0  0
  -29.6291  -15.6826   21.0284 O   0  0  0  0  0  0
  -31.4988  -12.5821   19.1982 H   0  0  0  0  0  0
  -30.4288  -11.4132   19.9143 H   0  0  0  0  0  0
  -29.7883  -11.7580   17.5048 H   0  0  0  0  0  0
  -29.6710  -13.4810   17.7825 H   0  0  0  0  0  0
  -27.8622  -11.3026   18.8734 H   0  0  0  0  0  0
  -27.3886  -12.5776   17.7921 H   0  0  0  0  0  0
  -27.6641  -14.2651   19.5238 H   0  0  0  0  0  0
  -28.6587  -12.0298   21.3538 H   0  0  0  0  0  0
  -28.4024  -13.6755   21.8674 H   0  0  0  0  0  0
  -25.2644   -9.5693   22.4775 H   0  0  0  0  0  0
  -23.9950   -7.4584   22.7430 H   0  0  0  0  0  0
  -21.0780   -8.8659   19.8930 H   0  0  0  0  0  0
  -22.3533  -10.9615   19.6128 H   0  0  0  0  0  0
  -21.1983   -7.6103   23.9706 H   0  0  0  0  0  0
  -21.1527   -6.0499   25.9096 H   0  0  0  0  0  0
  -22.0591   -2.7562   23.2904 H   0  0  0  0  0  0
  -22.3915  -11.9799   22.4875 H   0  0  0  0  0  0
  -21.0993  -13.1205   22.2679 H   0  0  0  0  0  0
  -24.6709  -15.8650   20.5479 H   0  0  0  0  0  0
  -26.2793  -15.6329   20.1221 H   0  0  0  0  0  0
  -26.7226  -32.5347   23.1076 H   0  0  0  0  0  0
  -24.9998  -33.9612   25.0344 H   0  0  0  0  0  0
  -22.7292  -31.3058   21.3815 H   0  0  0  0  0  0
  -23.3724  -35.9635   23.3320 H   0  0  0  0  0  0
  -24.3583  -36.8905   22.2081 H   0  0  0  0  0  0
  -23.7231  -37.6489   23.6680 H   0  0  0  0  0  0
  -26.1177  -31.5194   20.6018 H   0  0  0  0  0  0
  -26.8572  -30.8143   22.0051 H   0  0  0  0  0  0
  -28.1069  -28.9099   21.2382 H   0  0  0  0  0  0
  -25.9420  -25.8762   19.0438 H   0  0  0  0  0  0
  -23.9800  -27.2909   19.0092 H   0  0  0  0  0  0
  -23.7611  -30.5732   19.3841 H   0  0  0  0  0  0
  -22.7698  -29.2281   19.8589 H   0  0  0  0  0  0
  -25.1282  -36.1892   25.0814 H   0  0  0  0  0  0
  -20.9899  -28.3551   24.1303 H   0  0  0  0  0  0
  -20.5788  -26.2571   23.3594 H   0  0  0  0  0  0
  -21.6634  -26.7740   22.1063 H   0  0  0  0  0  0
  -19.7006  -25.6212   21.1434 H   0  0  0  0  0  0
  -19.6818  -27.3001   20.6635 H   0  0  0  0  0  0
  -17.4374  -26.6996   21.3793 H   0  0  0  0  0  0
  -18.0208  -26.0084   22.8816 H   0  0  0  0  0  0
  -19.7828  -30.7492   24.1970 H   0  0  0  0  0  0
  -17.4883  -31.6245   24.5053 H   0  0  0  0  0  0
  -15.5256  -30.2784   23.7753 H   0  0  0  0  0  0
  -15.8704  -28.0619   22.7162 H   0  0  0  0  0  0
  -24.5939  -30.6993   25.7876 H   0  0  0  0  0  0
  -24.8906  -32.2841   26.4917 H   0  0  0  0  0  0
  -25.8116  -30.8917   27.0270 H   0  0  0  0  0  0
  -26.2903  -29.6731   24.1261 H   0  0  0  0  0  0
  -27.4007  -29.7228   25.4755 H   0  0  0  0  0  0
  -27.8807  -30.4235   23.9495 H   0  0  0  0  0  0
  -27.2533  -33.3673   26.2058 H   0  0  0  0  0  0
  -28.3849  -32.6943   25.0399 H   0  0  0  0  0  0
  -28.0677  -31.8565   26.5513 H   0  0  0  0  0  0
  -28.2582  -38.0098   24.7501 H   0  0  0  0  0  0
  -28.1047  -36.2615   24.6303 H   0  0  0  0  0  0
  -27.2299  -37.1490   25.8884 H   0  0  0  0  0  0
  -20.9406  -29.9022   21.6773 H   0  0  0  0  0  0
  -26.0136  -38.2830   24.1430 H   0  0  0  0  0  0
  -28.6661  -16.5880   18.6915 H   0  0  0  0  0  0
  -30.0067  -17.6743   18.6485 H   0  0  0  0  0  0
  -27.4230  -18.7195   19.9583 H   0  0  0  0  0  0
  -27.3125  -18.3101   18.3491 H   0  0  0  0  0  0
  -29.5192  -19.9018   22.6734 H   0  0  0  0  0  0
  -30.6431  -18.8231   20.6250 H   0  0  0  0  0  0
  -28.3236  -17.0887   21.0549 H   0  0  0  0  0  0
  -28.7535  -23.0485   17.0473 H   0  0  0  0  0  0
  -30.0691  -21.9354   17.4603 H   0  0  0  0  0  0
  -30.1963  -23.5966   17.8924 H   0  0  0  0  0  0
  -28.9921  -21.4753   23.9015 H   0  0  0  0  0  0
  -27.2843  -21.8356   23.6426 H   0  0  0  0  0  0
  -28.4644  -23.1247   23.7809 H   0  0  0  0  0  0
  -26.7770  -18.9107   21.8909 H   0  0  0  0  0  0
  -27.3272  -19.6264   23.3528 H   0  0  0  0  0  0
  -27.8208  -18.0008   22.9849 H   0  0  0  0  0  0
  -30.3410  -17.5205   23.3209 H   0  0  0  0  0  0
  -31.6071  -17.1546   22.1590 H   0  0  0  0  0  0
  -31.5231  -18.7547   22.8490 H   0  0  0  0  0  0
  -28.6198  -20.4570   16.6248 H   0  0  0  0  0  0
  -27.0920  -19.7525   17.0845 H   0  0  0  0  0  0
  -27.3767  -21.3760   17.4946 H   0  0  0  0  0  0
  -27.8410  -25.1524   18.5473 H   0  0  0  0  0  0
  -29.4791  -25.3035   19.0049 H   0  0  0  0  0  0
  -28.1026  -24.1411   21.9008 H   0  0  0  0  0  0
  1 25  1  0  0  0
  1 30  2  0  0  0
  1 89  1  0  0  0
  2  3  1  0  0  0
  2 25  1  0  0  0
  2 90  1  0  0  0
  2 91  1  0  0  0
  3  4  1  0  0  0
  3 92  1  0  0  0
  3 93  1  0  0  0
  4  5  1  0  0  0
  4 94  1  0  0  0
  4 95  1  0  0  0
  5  6  1  0  0  0
  5 26  1  0  0  0
  5 96  1  0  0  0
  6 25  1  0  0  0
  6 97  1  0  0  0
  6 98  1  0  0  0
  7  8  2  0  0  0
  7 26  1  0  0  0
  7 29  1  0  0  0
  8  9  1  0  0  0
  8 22  1  0  0  0
  9 10  1  0  0  0
  9 27  2  0  0  0
 10 11  2  0  0  0
 10 15  1  0  0  0
 11 12  1  0  0  0
 11 99  1  0  0  0
 12 13  2  0  0  0
 12100  1  0  0  0
 13 14  1  0  0  0
 13 31  1  0  0  0
 14 15  2  0  0  0
 14101  1  0  0  0
 15102  1  0  0  0
 16 17  2  0  0  0
 16 21  1  0  0  0
 16 31  1  0  0  0
 17 18  1  0  0  0
 17103  1  0  0  0
 18 19  2  0  0  0
 18104  1  0  0  0
 19 20  1  0  0  0
 19 24  1  0  0  0
 20 21  2  0  0  0
 20105  1  0  0  0
 21 23  1  0  0  0
 22 28  1  0  0  0
 22 32  2  0  0  0
 26 27  1  0  0  0
 28106  1  0  0  0
 28107  1  0  0  0
 29108  1  0  0  0
 29109  1  0  0  0
 33 34  1  0  0  0
 33 66  1  0  0  0
 33 70  2  0  0  0
 34 36  1  0  0  0
 34 59  1  0  0  0
 34110  1  0  0  0
 35 44  2  0  0  0
 35 45  1  0  0  0
 35 68  1  0  0  0
 36 56  1  0  0  0
 36111  1  0  0  0
 37 39  1  0  0  0
 37 47  1  0  0  0
 37 66  1  0  0  0
 37112  1  0  0  0
 38 43  2  0  0  0
 38 46  1  0  0  0
 38 47  1  0  0  0
 39 64  1  0  0  0
 39 67  2  0  0  0
 40 52  1  0  0  0
 40 53  2  0  0  0
 40 58  1  0  0  0
 41113  1  0  0  0
 41114  1  0  0  0
 41115  1  0  0  0
 41 48  1  0  0  0
 42 43  1  0  0  0
 42 66  1  0  0  0
 42116  1  0  0  0
 42117  1  0  0  0
 43 44  1  0  0  0
 44118  1  0  0  0
 45 46  2  0  0  0
 45119  1  0  0  0
 46120  1  0  0  0
 47121  1  0  0  0
 47122  1  0  0  0
 48 56  1  0  0  0
 48 65  1  0  0  0
 48123  1  0  0  0
 49 50  1  0  0  0
 49 53  1  0  0  0
 49 64  1  0  0  0
 49124  1  0  0  0
 50 51  1  0  0  0
 50125  1  0  0  0
 50126  1  0  0  0
 51 52  1  0  0  0
 51127  1  0  0  0
 51128  1  0  0  0
 52129  1  0  0  0
 52130  1  0  0  0
 53 54  1  0  0  0
 54 55  2  0  0  0
 54131  1  0  0  0
 55 57  1  0  0  0
 55132  1  0  0  0
 56 69  2  0  0  0
 57 58  2  0  0  0
 57133  1  0  0  0
 58134  1  0  0  0
 59 60  1  0  0  0
 59 61  1  0  0  0
 59 62  1  0  0  0
 60135  1  0  0  0
 60136  1  0  0  0
 60137  1  0  0  0
 61138  1  0  0  0
 61139  1  0  0  0
 61140  1  0  0  0
 62141  1  0  0  0
 62142  1  0  0  0
 62143  1  0  0  0
 63 65  1  0  0  0
 63144  1  0  0  0
 63145  1  0  0  0
 63146  1  0  0  0
 64147  1  0  0  0
 65148  1  0  0  0
 68 86  1  0  0  0
 71 73  1  0  0  0
 71 74  2  0  0  0
 71 78  1  0  0  0
 72 73  2  0  0  0
 72 75  1  0  0  0
 72 81  1  0  0  0
 73 88  1  0  0  0
 74 82  1  0  0  0
 74 87  1  0  0  0
 75 86  1  0  0  0
 75 87  2  0  0  0
 76 77  1  0  0  0
 76 80  1  0  0  0
 76149  1  0  0  0
 76150  1  0  0  0
 77 88  1  0  0  0
 77151  1  0  0  0
 77152  1  0  0  0
 78 79  1  0  0  0
 78 83  1  0  0  0
 78153  1  0  0  0
 79 80  1  0  0  0
 79 84  1  0  0  0
 79154  1  0  0  0
 80 89  1  0  0  0
 80155  1  0  0  0
 81156  1  0  0  0
 81157  1  0  0  0
 81158  1  0  0  0
 82159  1  0  0  0
 82160  1  0  0  0
 82161  1  0  0  0
 83162  1  0  0  0
 83163  1  0  0  0
 83164  1  0  0  0
 84165  1  0  0  0
 84166  1  0  0  0
 84167  1  0  0  0
 85 88  1  0  0  0
 85168  1  0  0  0
 85169  1  0  0  0
 85170  1  0  0  0
 86171  1  0  0  0
 86172  1  0  0  0
 87173  1  0  0  0
M  CHG  1  87   1
M  ISO  4   1 100  68 101  86 101  89 100
M  END
> <chiral flag>
0

> <version>
0

> <s_m_source_file>
/data/baiqing/PycharmProjects/Reinvent-master-3.2/result/LINK_invent/BTK/process_docking_weight1_custom_sum_contain_oxygen_bond_distance_aromatic_linkinvent_7_9_3/rearranged_h_0143.sdf

> <i_m_source_file_index>
51

> <r_mmod_Potential_Energy-OPLS-2005>
384.09814453125

> <r_mmod_Stretch_Energy-OPLS-2005>
148.018264770508

> <r_mmod_Bend_Energy-OPLS-2005>
281.143341064453

> <r_mmod_Torsional_Energy-OPLS-2005>
257.807678222656

> <r_mmod_Improper_Torsional_Energy-OPLS-2005>
7.87358951568604

> <r_mmod_Van_der_Waal_Energy-OPLS-2005>
178.289001464844

> <r_mmod_Electrostatic_Energy-OPLS-2005>
-191.129653930664

> <r_mmod_Solvation_Energy-OPLS-2005>
-381.211120605469

> <b_mmod_Minimization_Converged-OPLS-2005>
0

> <r_mmod_RMS_Derivative-OPLS-2005>
6.97880220413208

$$$$
51
                    3D
 Structure written by MMmdl.
155164  0  0  1  0            999 V2000
  -30.6619  -14.7773   20.5146 C   0  0  0  0  0  0
  -30.4112  -12.5028   19.4909 C   0  0  0  0  0  0
  -29.5019  -12.5173   18.2452 C   0  0  0  0  0  0
  -28.0300  -12.3257   18.6566 C   0  0  0  0  0  0
  -27.6288  -13.2398   19.8459 C   0  0  2  0  0  0
  -28.6668  -13.1881   20.9813 C   0  0  0  0  0  0
  -25.2451  -13.8202   20.5726 C   0  0  0  0  0  0
  -24.1774  -13.0437   20.9222 C   0  0  0  0  0  0
  -24.6378  -11.6922   20.8734 C   0  0  0  0  0  0
  -23.9069  -10.4309   21.0425 C   0  0  0  0  0  0
  -24.3632   -9.4233   21.9204 C   0  0  0  0  0  0
  -23.6317   -8.2255   22.0758 C   0  0  0  0  0  0
  -22.4297   -8.0282   21.3553 C   0  0  0  0  0  0
  -21.9927   -9.0261   20.4653 C   0  0  0  0  0  0
  -22.7246  -10.2147   20.3069 C   0  0  0  0  0  0
  -21.6871   -6.0738   22.5281 C   0  0  0  0  0  0
  -21.4016   -6.5647   23.8207 C   0  0  0  0  0  0
  -21.3662   -5.6813   24.9181 C   0  0  0  0  0  0
  -21.6045   -4.3072   24.7233 C   0  0  0  0  0  0
  -21.8821   -3.8154   23.4357 C   0  0  0  0  0  0
  -21.9206   -4.6963   22.3410 C   0  0  0  0  0  0
  -22.7800  -13.5195   21.1919 C   0  0  0  0  0  0
  -22.1666   -4.2141   21.0982 F   0  0  0  0  0  0
  -21.5641   -3.4548   25.7740 F   0  0  0  0  0  0
  -29.9483  -13.5936   20.3969 N   0  0  0  0  0  0
  -26.2864  -12.9448   20.3266 N   0  0  0  0  0  0
  -25.9294  -11.6576   20.5713 N   0  0  0  0  0  0
  -22.0504  -12.8151   22.0472 N   0  0  0  0  0  0
  -25.4126  -15.1927   20.4182 N   0  0  0  0  0  0
  -31.8511  -14.7544   20.1975 O   0  0  0  0  0  0
  -21.6665   -6.8883   21.4242 O   0  0  0  0  0  0
  -22.3473  -14.5513   20.6774 O   0  0  0  0  0  0
  -24.6358  -31.8529   23.1953 C   0  0  0  0  0  0
  -25.9164  -32.4740   23.8306 C   0  0  1  0  0  0
  -27.2093  -27.2211   20.1266 C   0  0  0  0  0  0
  -25.5933  -33.8535   24.2219 N   0  0  0  0  0  0
  -23.4336  -30.4763   21.5389 C   0  0  2  0  0  0
  -24.8763  -28.9153   20.1073 C   0  0  0  0  0  0
  -22.7521  -29.4620   22.4899 C   0  0  0  0  0  0
  -18.0301  -28.1374   22.8519 C   0  0  0  0  0  0
  -24.1498  -36.7272   23.2644 C   0  0  0  0  0  0
  -25.9837  -30.7511   21.3797 C   0  0  0  0  0  0
  -26.0501  -29.3721   20.7185 C   0  0  0  0  0  0
  -27.2177  -28.5385   20.7144 C   0  0  0  0  0  0
  -26.0056  -26.8362   19.4971 C   0  0  0  0  0  0
  -24.8630  -27.6587   19.4869 C   0  0  0  0  0  0
  -23.6500  -29.8072   20.1575 C   0  0  0  0  0  0
  -25.4123  -36.3040   24.0317 C   0  0  1  0  0  0
  -20.5908  -28.3748   23.1232 C   0  0  2  0  0  0
  -20.6808  -26.9492   22.5372 C   0  0  0  0  0  0
  -19.5748  -26.6397   21.5241 C   0  0  0  0  0  0
  -18.1979  -26.7898   22.1717 C   0  0  0  0  0  0
  -19.1570  -28.8866   23.2853 C   0  0  0  0  0  0
  -18.9501  -30.1493   23.8838 C   0  0  0  0  0  0
  -17.6516  -30.6626   24.0550 C   0  0  0  0  0  0
  -25.9061  -34.9422   23.5072 C   0  0  0  0  0  0
  -16.5410  -29.9101   23.6355 C   0  0  0  0  0  0
  -16.7305  -28.6508   23.0385 C   0  0  0  0  0  0
  -26.4504  -31.6584   25.0728 C   0  0  0  0  0  0
  -25.3722  -31.3763   26.1450 C   0  0  0  0  0  0
  -27.0384  -30.2995   24.6264 C   0  0  0  0  0  0
  -27.6030  -32.4358   25.7534 C   0  0  0  0  0  0
  -27.5570  -37.1791   24.8456 C   0  0  0  0  0  0
  -21.4203  -29.3143   22.3654 N   0  0  0  0  0  0
  -26.4286  -37.3736   23.9406 N   0  0  0  0  0  0
  -24.7044  -31.0463   22.0939 N   0  0  0  0  0  0
  -23.4201  -28.8131   23.3016 O   0  0  0  0  0  0
  -28.3114  -26.3290   20.2020 O   0  0  0  0  0  0
  -26.5642  -34.8900   22.4646 O   0  0  0  0  0  0
  -23.5508  -32.1356   23.7252 O   0  0  0  0  0  0
  -28.1702  -19.9749   23.1335 C   0  0  0  0  0  0
  -28.2608  -21.1007   22.2942 C   0  0  0  0  0  0
  -28.9066  -19.6210   20.4525 C   0  0  0  0  0  0
  -28.4377  -18.6869   22.6338 C   0  0  0  0  0  0
  -28.8259  -18.4353   21.3130 C   0  0  0  0  0  0
  -28.6191  -20.9877   20.9282 C   0  0  0  0  0  0
  -28.2671  -17.4433   23.4552 C   0  0  0  0  0  0
  -28.3694  -16.2915   22.4497 C   0  0  0  0  0  0
  -28.8821  -16.8321   21.0818 C   0  0  2  0  0  0
  -28.3228  -24.8885   19.7111 C   0  0  0  0  0  0
  -28.3434  -23.5635   20.6708 C   0  0  0  0  0  0
  -30.1460  -16.0684   20.7075 N   0  0  0  0  0  0
  -28.6477  -22.1816   20.1242 O   0  0  0  0  0  0
  -31.4538  -12.6124   19.1881 H   0  0  0  0  0  0
  -30.3628  -11.5344   19.9892 H   0  0  0  0  0  0
  -29.7987  -11.7340   17.5457 H   0  0  0  0  0  0
  -29.6218  -13.4656   17.7213 H   0  0  0  0  0  0
  -27.9032  -11.2780   18.9342 H   0  0  0  0  0  0
  -27.3685  -12.4953   17.8054 H   0  0  0  0  0  0
  -27.6195  -14.2602   19.4616 H   0  0  0  0  0  0
  -28.7281  -12.1802   21.3920 H   0  0  0  0  0  0
  -28.3684  -13.8126   21.8130 H   0  0  0  0  0  0
  -25.2792   -9.5708   22.4772 H   0  0  0  0  0  0
  -24.0034   -7.4625   22.7465 H   0  0  0  0  0  0
  -21.0873   -8.8785   19.8946 H   0  0  0  0  0  0
  -22.3727  -10.9683   19.6167 H   0  0  0  0  0  0
  -21.2004   -7.6158   23.9674 H   0  0  0  0  0  0
  -21.1476   -6.0570   25.9075 H   0  0  0  0  0  0
  -22.0603   -2.7603   23.2870 H   0  0  0  0  0  0
  -22.4159  -11.9757   22.4719 H   0  0  0  0  0  0
  -21.1096  -13.1084   22.2716 H   0  0  0  0  0  0
  -24.6601  -15.8536   20.5720 H   0  0  0  0  0  0
  -26.2699  -15.6332   20.1119 H   0  0  0  0  0  0
  -26.7242  -32.5361   23.1044 H   0  0  0  0  0  0
  -25.0048  -33.9650   25.0342 H   0  0  0  0  0  0
  -22.7311  -31.2999   21.3911 H   0  0  0  0  0  0
  -23.3753  -35.9614   23.3308 H   0  0  0  0  0  0
  -24.3571  -36.8907   22.2060 H   0  0  0  0  0  0
  -23.7271  -37.6473   23.6686 H   0  0  0  0  0  0
  -26.1351  -31.5136   20.6132 H   0  0  0  0  0  0
  -26.8596  -30.7941   22.0198 H   0  0  0  0  0  0
  -28.1195  -28.8837   21.2010 H   0  0  0  0  0  0
  -25.8981  -25.8739   19.0259 H   0  0  0  0  0  0
  -23.9648  -27.3009   19.0042 H   0  0  0  0  0  0
  -23.7702  -30.5802   19.3969 H   0  0  0  0  0  0
  -22.7681  -29.2355   19.8618 H   0  0  0  0  0  0
  -25.1325  -36.1880   25.0810 H   0  0  0  0  0  0
  -21.0015  -28.3289   24.1345 H   0  0  0  0  0  0
  -21.6652  -26.7591   22.1095 H   0  0  0  0  0  0
  -20.5811  -26.2349   23.3557 H   0  0  0  0  0  0
  -19.6912  -25.6315   21.1289 H   0  0  0  0  0  0
  -19.6644  -27.3195   20.6761 H   0  0  0  0  0  0
  -17.4220  -26.6606   21.4155 H   0  0  0  0  0  0
  -18.0488  -26.0059   22.9174 H   0  0  0  0  0  0
  -19.7958  -30.7340   24.2176 H   0  0  0  0  0  0
  -17.5060  -31.6308   24.5148 H   0  0  0  0  0  0
  -15.5395  -30.2960   23.7771 H   0  0  0  0  0  0
  -15.8684  -28.0808   22.7153 H   0  0  0  0  0  0
  -24.5855  -30.7156   25.7766 H   0  0  0  0  0  0
  -24.8967  -32.2971   26.4873 H   0  0  0  0  0  0
  -25.8024  -30.8918   27.0233 H   0  0  0  0  0  0
  -26.2987  -29.6724   24.1264 H   0  0  0  0  0  0
  -27.4017  -29.7275   25.4812 H   0  0  0  0  0  0
  -27.8886  -30.4255   23.9550 H   0  0  0  0  0  0
  -27.2568  -33.3640   26.2103 H   0  0  0  0  0  0
  -28.3849  -32.6965   25.0383 H   0  0  0  0  0  0
  -28.0697  -31.8506   26.5476 H   0  0  0  0  0  0
  -28.2592  -38.0075   24.7485 H   0  0  0  0  0  0
  -28.1056  -36.2609   24.6317 H   0  0  0  0  0  0
  -27.2275  -37.1480   25.8847 H   0  0  0  0  0  0
  -20.9360  -29.8936   21.6921 H   0  0  0  0  0  0
  -26.0171  -38.2817   24.1367 H   0  0  0  0  0  0
  -27.8701  -20.1019   24.1648 H   0  0  0  0  0  0
  -28.0184  -22.0583   22.7300 H   0  0  0  0  0  0
  -29.1438  -19.4819   19.4088 H   0  0  0  0  0  0
  -29.0663  -17.3950   24.1977 H   0  0  0  0  0  0
  -27.3131  -17.4362   23.9864 H   0  0  0  0  0  0
  -27.3765  -15.8607   22.3150 H   0  0  0  0  0  0
  -29.0067  -15.5183   22.8790 H   0  0  0  0  0  0
  -28.1413  -16.5971   20.3187 H   0  0  0  0  0  0
  -27.5906  -24.7260   18.9259 H   0  0  0  0  0  0
  -29.2598  -24.8393   19.1563 H   0  0  0  0  0  0
  -27.3767  -23.5216   21.1729 H   0  0  0  0  0  0
  -29.0821  -23.7510   21.4515 H   0  0  0  0  0  0
  -30.9079  -16.7198   20.5972 H   0  0  0  0  0  0
  1 25  1  0  0  0
  1 30  2  0  0  0
  1 82  1  0  0  0
  2  3  1  0  0  0
  2 25  1  0  0  0
  2 84  1  0  0  0
  2 85  1  0  0  0
  3  4  1  0  0  0
  3 86  1  0  0  0
  3 87  1  0  0  0
  4  5  1  0  0  0
  4 88  1  0  0  0
  4 89  1  0  0  0
  5  6  1  0  0  0
  5 26  1  0  0  0
  5 90  1  0  0  0
  6 25  1  0  0  0
  6 91  1  0  0  0
  6 92  1  0  0  0
  7  8  2  0  0  0
  7 26  1  0  0  0
  7 29  1  0  0  0
  8  9  1  0  0  0
  8 22  1  0  0  0
  9 10  1  0  0  0
  9 27  2  0  0  0
 10 11  2  0  0  0
 10 15  1  0  0  0
 11 12  1  0  0  0
 11 93  1  0  0  0
 12 13  2  0  0  0
 12 94  1  0  0  0
 13 14  1  0  0  0
 13 31  1  0  0  0
 14 15  2  0  0  0
 14 95  1  0  0  0
 15 96  1  0  0  0
 16 17  2  0  0  0
 16 21  1  0  0  0
 16 31  1  0  0  0
 17 18  1  0  0  0
 17 97  1  0  0  0
 18 19  2  0  0  0
 18 98  1  0  0  0
 19 20  1  0  0  0
 19 24  1  0  0  0
 20 21  2  0  0  0
 20 99  1  0  0  0
 21 23  1  0  0  0
 22 28  1  0  0  0
 22 32  2  0  0  0
 26 27  1  0  0  0
 28100  1  0  0  0
 28101  1  0  0  0
 29102  1  0  0  0
 29103  1  0  0  0
 33 34  1  0  0  0
 33 66  1  0  0  0
 33 70  2  0  0  0
 34 36  1  0  0  0
 34 59  1  0  0  0
 34104  1  0  0  0
 35 44  2  0  0  0
 35 45  1  0  0  0
 35 68  1  0  0  0
 36 56  1  0  0  0
 36105  1  0  0  0
 37 39  1  0  0  0
 37 47  1  0  0  0
 37 66  1  0  0  0
 37106  1  0  0  0
 38 43  2  0  0  0
 38 46  1  0  0  0
 38 47  1  0  0  0
 39 64  1  0  0  0
 39 67  2  0  0  0
 40 52  1  0  0  0
 40 53  2  0  0  0
 40 58  1  0  0  0
 41107  1  0  0  0
 41108  1  0  0  0
 41109  1  0  0  0
 41 48  1  0  0  0
 42 43  1  0  0  0
 42 66  1  0  0  0
 42110  1  0  0  0
 42111  1  0  0  0
 43 44  1  0  0  0
 44112  1  0  0  0
 45 46  2  0  0  0
 45113  1  0  0  0
 46114  1  0  0  0
 47115  1  0  0  0
 47116  1  0  0  0
 48 56  1  0  0  0
 48 65  1  0  0  0
 48117  1  0  0  0
 49 50  1  0  0  0
 49 53  1  0  0  0
 49 64  1  0  0  0
 49118  1  0  0  0
 50 51  1  0  0  0
 50119  1  0  0  0
 50120  1  0  0  0
 51 52  1  0  0  0
 51121  1  0  0  0
 51122  1  0  0  0
 52123  1  0  0  0
 52124  1  0  0  0
 53 54  1  0  0  0
 54 55  2  0  0  0
 54125  1  0  0  0
 55 57  1  0  0  0
 55126  1  0  0  0
 56 69  2  0  0  0
 57 58  2  0  0  0
 57127  1  0  0  0
 58128  1  0  0  0
 59 60  1  0  0  0
 59 61  1  0  0  0
 59 62  1  0  0  0
 60129  1  0  0  0
 60130  1  0  0  0
 60131  1  0  0  0
 61132  1  0  0  0
 61133  1  0  0  0
 61134  1  0  0  0
 62135  1  0  0  0
 62136  1  0  0  0
 62137  1  0  0  0
 63 65  1  0  0  0
 63138  1  0  0  0
 63139  1  0  0  0
 63140  1  0  0  0
 64141  1  0  0  0
 65142  1  0  0  0
 68 80  1  0  0  0
 71 72  2  0  0  0
 71 74  1  0  0  0
 71143  1  0  0  0
 72 76  1  0  0  0
 72144  1  0  0  0
 73 75  1  0  0  0
 73 76  2  0  0  0
 73145  1  0  0  0
 74 75  2  0  0  0
 74 77  1  0  0  0
 75 79  1  0  0  0
 76 83  1  0  0  0
 77 78  1  0  0  0
 77146  1  0  0  0
 77147  1  0  0  0
 78 79  1  0  0  0
 78148  1  0  0  0
 78149  1  0  0  0
 79 82  1  0  0  0
 79150  1  0  0  0
 80 81  1  0  0  0
 80151  1  0  0  0
 80152  1  0  0  0
 81 83  1  0  0  0
 81153  1  0  0  0
 81154  1  0  0  0
 82155  1  0  0  0
M  ISO  4   1 100  68 101  80 101  82 100
M  END
> <chiral flag>
0

> <version>
0

> <s_m_source_file>
/data/baiqing/PycharmProjects/Reinvent-master-3.2/result/LINK_invent/BTK/process_docking_weight1_custom_sum_contain_oxygen_bond_distance_aromatic_linkinvent_7_9_3/rearranged_h_0143.sdf

> <i_m_source_file_index>
52

> <r_mmod_Potential_Energy-OPLS-2005>
336.326354980469

> <r_mmod_Stretch_Energy-OPLS-2005>
159.156402587891

> <r_mmod_Bend_Energy-OPLS-2005>
313.226257324219

> <r_mmod_Torsional_Energy-OPLS-2005>
245.202651977539

> <r_mmod_Improper_Torsional_Energy-OPLS-2005>
6.7852897644043

> <r_mmod_Van_der_Waal_Energy-OPLS-2005>
136.700469970703

> <r_mmod_Electrostatic_Energy-OPLS-2005>
-418.376068115234

> <r_mmod_Solvation_Energy-OPLS-2005>
-210.457641601562

> <b_mmod_Minimization_Converged-OPLS-2005>
0

> <r_mmod_RMS_Derivative-OPLS-2005>
4.54652786254883

$$$$
52
                    3D
 Structure written by MMmdl.
159168  0  0  1  0            999 V2000
  -30.6343  -14.6735   20.4465 C   0  0  0  0  0  0
  -30.4203  -12.3984   19.4741 C   0  0  0  0  0  0
  -29.5077  -12.4956   18.2329 C   0  0  0  0  0  0
  -28.0295  -12.3414   18.6389 C   0  0  0  0  0  0
  -27.6436  -13.2286   19.8534 C   0  0  2  0  0  0
  -28.6849  -13.1343   20.9904 C   0  0  0  0  0  0
  -25.2506  -13.8196   20.5679 C   0  0  0  0  0  0
  -24.1794  -13.0439   20.9202 C   0  0  0  0  0  0
  -24.6382  -11.6920   20.8743 C   0  0  0  0  0  0
  -23.9060  -10.4299   21.0413 C   0  0  0  0  0  0
  -24.3621   -9.4215   21.9183 C   0  0  0  0  0  0
  -23.6300   -8.2244   22.0751 C   0  0  0  0  0  0
  -22.4280   -8.0284   21.3540 C   0  0  0  0  0  0
  -21.9916   -9.0259   20.4634 C   0  0  0  0  0  0
  -22.7242  -10.2139   20.3050 C   0  0  0  0  0  0
  -21.6859   -6.0738   22.5281 C   0  0  0  0  0  0
  -21.4017   -6.5642   23.8217 C   0  0  0  0  0  0
  -21.3656   -5.6791   24.9178 C   0  0  0  0  0  0
  -21.6049   -4.3053   24.7226 C   0  0  0  0  0  0
  -21.8818   -3.8144   23.4346 C   0  0  0  0  0  0
  -21.9191   -4.6963   22.3403 C   0  0  0  0  0  0
  -22.7817  -13.5221   21.1876 C   0  0  0  0  0  0
  -22.1657   -4.2150   21.0981 F   0  0  0  0  0  0
  -21.5632   -3.4536   25.7736 F   0  0  0  0  0  0
  -29.9956  -13.4577   20.4154 N   0  0  0  0  0  0
  -26.2933  -12.9402   20.3272 N   0  0  0  0  0  0
  -25.9308  -11.6544   20.5733 N   0  0  0  0  0  0
  -22.0460  -12.8200   22.0419 N   0  0  0  0  0  0
  -25.4178  -15.1922   20.4092 N   0  0  0  0  0  0
  -31.8317  -14.7315   20.1488 O   0  0  0  0  0  0
  -21.6640   -6.8883   21.4244 O   0  0  0  0  0  0
  -22.3503  -14.5532   20.6738 O   0  0  0  0  0  0
  -24.6289  -31.8584   23.2017 C   0  0  0  0  0  0
  -25.9137  -32.4765   23.8347 C   0  0  1  0  0  0
  -27.2161  -27.2962   20.1108 C   0  0  0  0  0  0
  -25.5956  -33.8567   24.2283 N   0  0  0  0  0  0
  -23.4202  -30.4839   21.5456 C   0  0  2  0  0  0
  -24.8620  -28.9364   20.1109 C   0  0  0  0  0  0
  -22.7475  -29.4624   22.4939 C   0  0  0  0  0  0
  -18.0277  -28.1401   22.8479 C   0  0  0  0  0  0
  -24.1495  -36.7289   23.2637 C   0  0  0  0  0  0
  -25.9633  -30.7837   21.3718 C   0  0  0  0  0  0
  -26.0330  -29.4089   20.7147 C   0  0  0  0  0  0
  -27.2097  -28.6001   20.7044 C   0  0  0  0  0  0
  -26.0136  -26.8796   19.4922 C   0  0  0  0  0  0
  -24.8560  -27.6785   19.4924 C   0  0  0  0  0  0
  -23.6326  -29.8202   20.1605 C   0  0  0  0  0  0
  -25.4115  -36.3080   24.0332 C   0  0  1  0  0  0
  -20.5880  -28.3694   23.1280 C   0  0  2  0  0  0
  -20.6765  -26.9427   22.5395 C   0  0  0  0  0  0
  -19.5736  -26.6403   21.5195 C   0  0  0  0  0  0
  -18.1913  -26.7944   22.1619 C   0  0  0  0  0  0
  -19.1532  -28.8862   23.2880 C   0  0  0  0  0  0
  -18.9464  -30.1457   23.8916 C   0  0  0  0  0  0
  -17.6470  -30.6594   24.0591 C   0  0  0  0  0  0
  -25.9061  -34.9446   23.5102 C   0  0  0  0  0  0
  -16.5359  -29.9100   23.6358 C   0  0  0  0  0  0
  -16.7271  -28.6527   23.0353 C   0  0  0  0  0  0
  -26.4515  -31.6574   25.0712 C   0  0  0  0  0  0
  -25.3741  -31.3682   26.1432 C   0  0  0  0  0  0
  -27.0363  -30.3006   24.6151 C   0  0  0  0  0  0
  -27.6084  -32.4290   25.7476 C   0  0  0  0  0  0
  -27.5580  -37.1796   24.8464 C   0  0  0  0  0  0
  -21.4189  -29.3047   22.3682 N   0  0  0  0  0  0
  -26.4289  -37.3780   23.9411 N   0  0  0  0  0  0
  -24.6905  -31.0587   22.0969 N   0  0  0  0  0  0
  -23.4189  -28.8154   23.3022 O   0  0  0  0  0  0
  -28.3547  -26.4685   20.1706 O   0  0  0  0  0  0
  -26.5625  -34.8919   22.4664 O   0  0  0  0  0  0
  -23.5455  -32.1392   23.7351 O   0  0  0  0  0  0
  -30.5715  -19.8012   19.2222 C   0  0  0  0  0  0
  -29.3371  -18.3172   20.6604 C   0  0  0  0  0  0
  -29.5572  -19.6697   20.1861 C   0  0  0  0  0  0
  -31.2771  -18.6737   18.7809 C   0  0  0  0  0  0
  -30.1128  -17.1882   20.1899 C   0  0  0  0  0  0
  -27.6854  -21.4871   19.7049 C   0  0  0  0  0  0
  -28.7705  -20.9552   20.6206 C   0  0  2  0  0  0
  -28.8450  -22.4147   19.9912 C   0  0  2  0  0  0
  -32.3329  -18.8087   17.7043 C   0  0  0  0  0  0
  -27.5359  -23.8262   21.7517 C   0  0  0  0  0  0
  -28.3879  -25.0663   19.6646 C   0  0  0  0  0  0
  -28.6263  -23.8414   20.6680 C   0  0  2  0  0  0
  -31.0545  -17.4286   19.2477 N   0  0  0  0  0  0
  -29.8720  -15.8100   20.6512 N   0  0  0  0  0  0
  -31.4681  -12.4884   19.1830 H   0  0  0  0  0  0
  -30.3270  -11.4168   19.9407 H   0  0  0  0  0  0
  -29.7771  -11.7291   17.5053 H   0  0  0  0  0  0
  -29.6555  -13.4545   17.7343 H   0  0  0  0  0  0
  -27.8631  -11.2913   18.8803 H   0  0  0  0  0  0
  -27.3817  -12.5617   17.7898 H   0  0  0  0  0  0
  -27.6486  -14.2555   19.4888 H   0  0  0  0  0  0
  -28.6958  -12.1315   21.4190 H   0  0  0  0  0  0
  -28.4322  -13.8093   21.8091 H   0  0  0  0  0  0
  -25.2770   -9.5696   22.4753 H   0  0  0  0  0  0
  -24.0012   -7.4636   22.7476 H   0  0  0  0  0  0
  -21.0854   -8.8780   19.8935 H   0  0  0  0  0  0
  -22.3712  -10.9677   19.6156 H   0  0  0  0  0  0
  -21.2009   -7.6148   23.9723 H   0  0  0  0  0  0
  -21.1481   -6.0517   25.9081 H   0  0  0  0  0  0
  -22.0597   -2.7605   23.2850 H   0  0  0  0  0  0
  -22.4081  -11.9865   22.4806 H   0  0  0  0  0  0
  -21.1072  -13.1210   22.2612 H   0  0  0  0  0  0
  -24.6474  -15.8418   20.5222 H   0  0  0  0  0  0
  -26.2506  -15.6304   20.0376 H   0  0  0  0  0  0
  -26.7184  -32.5428   23.1077 H   0  0  0  0  0  0
  -25.0125  -33.9710   25.0446 H   0  0  0  0  0  0
  -22.7144  -31.3050   21.4032 H   0  0  0  0  0  0
  -23.3763  -35.9612   23.3286 H   0  0  0  0  0  0
  -24.3591  -36.8929   22.2054 H   0  0  0  0  0  0
  -23.7233  -37.6480   23.6667 H   0  0  0  0  0  0
  -26.0930  -31.5446   20.6010 H   0  0  0  0  0  0
  -26.8459  -30.8340   21.9979 H   0  0  0  0  0  0
  -28.1103  -28.9594   21.1828 H   0  0  0  0  0  0
  -25.9042  -25.9229   19.0119 H   0  0  0  0  0  0
  -23.9560  -27.3077   19.0215 H   0  0  0  0  0  0
  -23.7552  -30.5972   19.4054 H   0  0  0  0  0  0
  -22.7498  -29.2542   19.8575 H   0  0  0  0  0  0
  -25.1287  -36.1927   25.0821 H   0  0  0  0  0  0
  -20.9973  -28.3260   24.1397 H   0  0  0  0  0  0
  -20.5668  -26.2300   23.3575 H   0  0  0  0  0  0
  -21.6625  -26.7445   22.1191 H   0  0  0  0  0  0
  -19.6909  -25.6325   21.1190 H   0  0  0  0  0  0
  -19.6655  -27.3231   20.6732 H   0  0  0  0  0  0
  -17.4171  -26.6693   21.4036 H   0  0  0  0  0  0
  -18.0322  -26.0090   22.9019 H   0  0  0  0  0  0
  -19.7941  -30.7262   24.2300 H   0  0  0  0  0  0
  -17.5029  -31.6273   24.5197 H   0  0  0  0  0  0
  -15.5362  -30.3013   23.7691 H   0  0  0  0  0  0
  -15.8666  -28.0866   22.7058 H   0  0  0  0  0  0
  -24.5956  -30.6992   25.7746 H   0  0  0  0  0  0
  -24.8883  -32.2824   26.4845 H   0  0  0  0  0  0
  -25.8080  -30.8876   27.0210 H   0  0  0  0  0  0
  -26.2938  -29.6725   24.1215 H   0  0  0  0  0  0
  -27.4121  -29.7284   25.4644 H   0  0  0  0  0  0
  -27.8773  -30.4306   23.9336 H   0  0  0  0  0  0
  -27.2737  -33.3610   26.2035 H   0  0  0  0  0  0
  -28.3907  -32.6802   25.0303 H   0  0  0  0  0  0
  -28.0728  -31.8409   26.5404 H   0  0  0  0  0  0
  -28.2580  -38.0116   24.7542 H   0  0  0  0  0  0
  -28.1103  -36.2647   24.6252 H   0  0  0  0  0  0
  -27.2306  -37.1387   25.8871 H   0  0  0  0  0  0
  -20.9375  -29.8777   21.6891 H   0  0  0  0  0  0
  -26.0175  -38.2851   24.1427 H   0  0  0  0  0  0
  -30.8088  -20.7656   18.7981 H   0  0  0  0  0  0
  -28.5626  -18.1502   21.3964 H   0  0  0  0  0  0
  -26.7220  -21.6953   20.1619 H   0  0  0  0  0  0
  -27.6327  -21.0785   18.6982 H   0  0  0  0  0  0
  -28.5276  -20.8881   21.6791 H   0  0  0  0  0  0
  -29.5661  -22.5039   19.1820 H   0  0  0  0  0  0
  -32.8695  -19.7521   17.8054 H   0  0  0  0  0  0
  -31.8676  -18.7897   16.7184 H   0  0  0  0  0  0
  -33.0629  -18.0004   17.7569 H   0  0  0  0  0  0
  -27.7186  -23.0497   22.4949 H   0  0  0  0  0  0
  -26.5450  -23.6656   21.3265 H   0  0  0  0  0  0
  -27.5070  -24.7806   22.2796 H   0  0  0  0  0  0
  -29.2316  -25.0583   18.9735 H   0  0  0  0  0  0
  -27.5530  -24.8120   19.0208 H   0  0  0  0  0  0
  -29.5655  -24.0547   21.1798 H   0  0  0  0  0  0
  -28.9552  -15.6407   21.0317 H   0  0  0  0  0  0
  1 25  1  0  0  0
  1 30  2  0  0  0
  1 84  1  0  0  0
  2  3  1  0  0  0
  2 25  1  0  0  0
  2 85  1  0  0  0
  2 86  1  0  0  0
  3  4  1  0  0  0
  3 87  1  0  0  0
  3 88  1  0  0  0
  4  5  1  0  0  0
  4 89  1  0  0  0
  4 90  1  0  0  0
  5  6  1  0  0  0
  5 26  1  0  0  0
  5 91  1  0  0  0
  6 25  1  0  0  0
  6 92  1  0  0  0
  6 93  1  0  0  0
  7  8  2  0  0  0
  7 26  1  0  0  0
  7 29  1  0  0  0
  8  9  1  0  0  0
  8 22  1  0  0  0
  9 10  1  0  0  0
  9 27  2  0  0  0
 10 11  2  0  0  0
 10 15  1  0  0  0
 11 12  1  0  0  0
 11 94  1  0  0  0
 12 13  2  0  0  0
 12 95  1  0  0  0
 13 14  1  0  0  0
 13 31  1  0  0  0
 14 15  2  0  0  0
 14 96  1  0  0  0
 15 97  1  0  0  0
 16 17  2  0  0  0
 16 21  1  0  0  0
 16 31  1  0  0  0
 17 18  1  0  0  0
 17 98  1  0  0  0
 18 19  2  0  0  0
 18 99  1  0  0  0
 19 20  1  0  0  0
 19 24  1  0  0  0
 20 21  2  0  0  0
 20100  1  0  0  0
 21 23  1  0  0  0
 22 28  1  0  0  0
 22 32  2  0  0  0
 26 27  1  0  0  0
 28101  1  0  0  0
 28102  1  0  0  0
 29103  1  0  0  0
 29104  1  0  0  0
 33 34  1  0  0  0
 33 66  1  0  0  0
 33 70  2  0  0  0
 34 36  1  0  0  0
 34 59  1  0  0  0
 34105  1  0  0  0
 35 44  2  0  0  0
 35 45  1  0  0  0
 35 68  1  0  0  0
 36 56  1  0  0  0
 36106  1  0  0  0
 37 39  1  0  0  0
 37 47  1  0  0  0
 37 66  1  0  0  0
 37107  1  0  0  0
 38 43  2  0  0  0
 38 46  1  0  0  0
 38 47  1  0  0  0
 39 64  1  0  0  0
 39 67  2  0  0  0
 40 52  1  0  0  0
 40 53  2  0  0  0
 40 58  1  0  0  0
 41108  1  0  0  0
 41109  1  0  0  0
 41110  1  0  0  0
 41 48  1  0  0  0
 42 43  1  0  0  0
 42 66  1  0  0  0
 42111  1  0  0  0
 42112  1  0  0  0
 43 44  1  0  0  0
 44113  1  0  0  0
 45 46  2  0  0  0
 45114  1  0  0  0
 46115  1  0  0  0
 47116  1  0  0  0
 47117  1  0  0  0
 48 56  1  0  0  0
 48 65  1  0  0  0
 48118  1  0  0  0
 49 50  1  0  0  0
 49 53  1  0  0  0
 49 64  1  0  0  0
 49119  1  0  0  0
 50 51  1  0  0  0
 50120  1  0  0  0
 50121  1  0  0  0
 51 52  1  0  0  0
 51122  1  0  0  0
 51123  1  0  0  0
 52124  1  0  0  0
 52125  1  0  0  0
 53 54  1  0  0  0
 54 55  2  0  0  0
 54126  1  0  0  0
 55 57  1  0  0  0
 55127  1  0  0  0
 56 69  2  0  0  0
 57 58  2  0  0  0
 57128  1  0  0  0
 58129  1  0  0  0
 59 60  1  0  0  0
 59 61  1  0  0  0
 59 62  1  0  0  0
 60130  1  0  0  0
 60131  1  0  0  0
 60132  1  0  0  0
 61133  1  0  0  0
 61134  1  0  0  0
 61135  1  0  0  0
 62136  1  0  0  0
 62137  1  0  0  0
 62138  1  0  0  0
 63 65  1  0  0  0
 63139  1  0  0  0
 63140  1  0  0  0
 63141  1  0  0  0
 64142  1  0  0  0
 65143  1  0  0  0
 68 81  1  0  0  0
 71 73  2  0  0  0
 71 74  1  0  0  0
 71144  1  0  0  0
 72 73  1  0  0  0
 72 75  2  0  0  0
 72145  1  0  0  0
 73 77  1  0  0  0
 74 79  1  0  0  0
 74 83  2  0  0  0
 75 83  1  0  0  0
 75 84  1  0  0  0
 76 77  1  0  0  0
 76146  1  0  0  0
 76147  1  0  0  0
 76 78  1  0  0  0
 77 78  1  0  0  0
 77148  1  0  0  0
 78 82  1  0  0  0
 78149  1  0  0  0
 79150  1  0  0  0
 79151  1  0  0  0
 79152  1  0  0  0
 80153  1  0  0  0
 80154  1  0  0  0
 80155  1  0  0  0
 80 82  1  0  0  0
 81 82  1  0  0  0
 81156  1  0  0  0
 81157  1  0  0  0
 82158  1  0  0  0
 84159  1  0  0  0
M  ISO  4   1 100  68 101  81 101  84 100
M  END
> <chiral flag>
0

> <version>
0

> <s_m_source_file>
/data/baiqing/PycharmProjects/Reinvent-master-3.2/result/LINK_invent/BTK/process_docking_weight1_custom_sum_contain_oxygen_bond_distance_aromatic_linkinvent_7_9_3/rearranged_h_0143.sdf

> <i_m_source_file_index>
53

> <r_mmod_Potential_Energy-OPLS-2005>
-14.824161529541

> <r_mmod_Stretch_Energy-OPLS-2005>
99.2567749023438

> <r_mmod_Bend_Energy-OPLS-2005>
154.777862548828

> <r_mmod_Torsional_Energy-OPLS-2005>
249.960510253906

> <r_mmod_Improper_Torsional_Energy-OPLS-2005>
4.19139337539673

> <r_mmod_Van_der_Waal_Energy-OPLS-2005>
144.143844604492

> <r_mmod_Electrostatic_Energy-OPLS-2005>
-499.972198486328

> <r_mmod_Solvation_Energy-OPLS-2005>
-226.444961547852

> <b_mmod_Minimization_Converged-OPLS-2005>
0

> <r_mmod_RMS_Derivative-OPLS-2005>
1.54857742786407

$$$$
53
                    3D
 Structure written by MMmdl.
156165  0  0  1  0            999 V2000
  -30.4413  -15.1863   20.3762 C   0  0  0  0  0  0
  -30.4482  -12.7488   19.5180 C   0  0  0  0  0  0
  -29.5343  -12.5647   18.2801 C   0  0  0  0  0  0
  -28.0792  -12.3005   18.7065 C   0  0  0  0  0  0
  -27.6191  -13.2644   19.8284 C   0  0  2  0  0  0
  -28.6571  -13.3895   20.9643 C   0  0  0  0  0  0
  -25.2421  -13.8231   20.5728 C   0  0  0  0  0  0
  -24.1762  -13.0435   20.9256 C   0  0  0  0  0  0
  -24.6400  -11.6928   20.8767 C   0  0  0  0  0  0
  -23.9090  -10.4292   21.0411 C   0  0  0  0  0  0
  -24.3633   -9.4202   21.9187 C   0  0  0  0  0  0
  -23.6299   -8.2242   22.0752 C   0  0  0  0  0  0
  -22.4282   -8.0281   21.3541 C   0  0  0  0  0  0
  -21.9924   -9.0261   20.4647 C   0  0  0  0  0  0
  -22.7260  -10.2136   20.3059 C   0  0  0  0  0  0
  -21.6856   -6.0736   22.5280 C   0  0  0  0  0  0
  -21.4016   -6.5642   23.8213 C   0  0  0  0  0  0
  -21.3659   -5.6793   24.9174 C   0  0  0  0  0  0
  -21.6045   -4.3057   24.7224 C   0  0  0  0  0  0
  -21.8818   -3.8148   23.4345 C   0  0  0  0  0  0
  -21.9192   -4.6965   22.3401 C   0  0  0  0  0  0
  -22.7777  -13.5197   21.1900 C   0  0  0  0  0  0
  -22.1661   -4.2149   21.0976 F   0  0  0  0  0  0
  -21.5623   -3.4538   25.7737 F   0  0  0  0  0  0
  -29.9029  -13.8754   20.3505 N   0  0  0  0  0  0
  -26.2847  -12.9488   20.3224 N   0  0  0  0  0  0
  -25.9336  -11.6606   20.5734 N   0  0  0  0  0  0
  -22.0429  -12.8188   22.0458 N   0  0  0  0  0  0
  -25.4046  -15.1965   20.4130 N   0  0  0  0  0  0
  -31.6578  -15.2315   20.1377 O   0  0  0  0  0  0
  -21.6640   -6.8882   21.4243 O   0  0  0  0  0  0
  -22.3463  -14.5498   20.6735 O   0  0  0  0  0  0
  -24.6577  -31.8281   23.1737 C   0  0  0  0  0  0
  -25.9278  -32.4611   23.8188 C   0  0  1  0  0  0
  -27.2244  -26.9853   20.1784 C   0  0  0  0  0  0
  -25.5964  -33.8424   24.2098 N   0  0  0  0  0  0
  -23.4701  -30.4402   21.5219 C   0  0  2  0  0  0
  -24.9233  -28.8341   20.1132 C   0  0  0  0  0  0
  -22.7640  -29.4464   22.4799 C   0  0  0  0  0  0
  -18.0319  -28.1402   22.8467 C   0  0  0  0  0  0
  -24.1493  -36.7223   23.2647 C   0  0  0  0  0  0
  -26.0351  -30.6536   21.3944 C   0  0  0  0  0  0
  -26.1056  -29.2484   20.7394 C   0  0  0  0  0  0
  -27.2532  -28.3448   20.7458 C   0  0  0  0  0  0
  -26.0130  -26.7043   19.5101 C   0  0  0  0  0  0
  -24.8987  -27.5806   19.4795 C   0  0  0  0  0  0
  -23.7069  -29.7556   20.1475 C   0  0  0  0  0  0
  -25.4132  -36.2983   24.0303 C   0  0  1  0  0  0
  -20.5941  -28.3743   23.1200 C   0  0  2  0  0  0
  -20.6797  -26.9428   22.5406 C   0  0  0  0  0  0
  -19.5773  -26.6374   21.5214 C   0  0  0  0  0  0
  -18.1955  -26.7934   22.1624 C   0  0  0  0  0  0
  -19.1579  -28.8893   23.2820 C   0  0  0  0  0  0
  -18.9491  -30.1484   23.8852 C   0  0  0  0  0  0
  -17.6485  -30.6592   24.0557 C   0  0  0  0  0  0
  -25.9092  -34.9363   23.5020 C   0  0  0  0  0  0
  -16.5376  -29.9081   23.6340 C   0  0  0  0  0  0
  -16.7302  -28.6503   23.0355 C   0  0  0  0  0  0
  -26.4547  -31.6539   25.0696 C   0  0  0  0  0  0
  -25.3689  -31.3781   26.1365 C   0  0  0  0  0  0
  -27.0435  -30.2911   24.6394 C   0  0  0  0  0  0
  -27.6046  -32.4340   25.7493 C   0  0  0  0  0  0
  -27.5573  -37.1769   24.8466 C   0  0  0  0  0  0
  -21.4316  -29.3039   22.3550 N   0  0  0  0  0  0
  -26.4283  -37.3712   23.9405 N   0  0  0  0  0  0
  -24.7418  -30.9994   22.0844 N   0  0  0  0  0  0
  -23.4210  -28.8034   23.3024 O   0  0  0  0  0  0
  -28.2535  -25.9262   20.2393 O   0  0  0  0  0  0
  -26.5701  -34.8892   22.4615 O   0  0  0  0  0  0
  -23.5659  -32.1227   23.6864 O   0  0  0  0  0  0
  -29.2664  -18.7332   19.2067 C   0  0  0  0  0  0
  -29.0843  -21.1466   20.2261 C   0  0  0  0  0  0
  -29.0444  -20.1962   19.1151 C   0  0  0  0  0  0
  -29.4133  -20.3030   21.3753 C   0  0  0  0  0  0
  -29.6057  -17.9757   20.3916 C   0  0  0  0  0  0
  -28.5191  -23.6745   18.9827 C   0  0  0  0  0  0
  -29.0512  -22.9034   20.1865 C   0  0  1  0  0  0
  -28.0104  -24.3153   20.2484 C   0  0  1  0  0  0
  -28.7753  -20.7341   17.7223 C   0  0  0  0  0  0
  -31.0873  -21.3253   22.9800 C   0  0  0  0  0  0
  -29.6139  -20.9910   22.7139 C   0  0  0  0  0  0
  -29.6317  -18.8938   21.4423 N   0  0  0  0  0  0
  -29.5940  -16.3800   20.4852 N   0  0  0  0  0  0
  -31.4683  -12.9520   19.1892 H   0  0  0  0  0  0
  -30.5043  -11.8279   20.1005 H   0  0  0  0  0  0
  -29.8966  -11.7463   17.6563 H   0  0  0  0  0  0
  -29.5754  -13.4629   17.6626 H   0  0  0  0  0  0
  -28.0238  -11.2714   19.0635 H   0  0  0  0  0  0
  -27.4100  -12.3625   17.8475 H   0  0  0  0  0  0
  -27.5485  -14.2415   19.3495 H   0  0  0  0  0  0
  -28.8030  -12.4371   21.4762 H   0  0  0  0  0  0
  -28.3122  -14.0974   21.7196 H   0  0  0  0  0  0
  -25.2774   -9.5670   22.4769 H   0  0  0  0  0  0
  -23.9998   -7.4633   22.7478 H   0  0  0  0  0  0
  -21.0848   -8.8792   19.8960 H   0  0  0  0  0  0
  -22.3720  -10.9679   19.6173 H   0  0  0  0  0  0
  -21.2014   -7.6151   23.9718 H   0  0  0  0  0  0
  -21.1479   -6.0521   25.9076 H   0  0  0  0  0  0
  -22.0598   -2.7610   23.2847 H   0  0  0  0  0  0
  -22.4055  -11.9858   22.4853 H   0  0  0  0  0  0
  -21.1045  -13.1209   22.2668 H   0  0  0  0  0  0
  -24.6249  -15.8375   20.5121 H   0  0  0  0  0  0
  -26.2261  -15.6362   20.0207 H   0  0  0  0  0  0
  -26.7348  -32.5165   23.0909 H   0  0  0  0  0  0
  -25.0058  -33.9506   25.0212 H   0  0  0  0  0  0
  -22.7813  -31.2705   21.3533 H   0  0  0  0  0  0
  -23.3760  -35.9548   23.3285 H   0  0  0  0  0  0
  -24.3572  -36.8891   22.2067 H   0  0  0  0  0  0
  -23.7247  -37.6407   23.6713 H   0  0  0  0  0  0
  -26.2076  -31.3978   20.6157 H   0  0  0  0  0  0
  -26.8984  -30.7102   22.0457 H   0  0  0  0  0  0
  -28.1517  -28.6610   21.2572 H   0  0  0  0  0  0
  -25.9033  -25.7451   19.0246 H   0  0  0  0  0  0
  -23.9989  -27.2574   18.9745 H   0  0  0  0  0  0
  -23.8588  -30.5242   19.3888 H   0  0  0  0  0  0
  -22.8179  -29.2070   19.8312 H   0  0  0  0  0  0
  -25.1328  -36.1790   25.0795 H   0  0  0  0  0  0
  -21.0031  -28.3346   24.1323 H   0  0  0  0  0  0
  -20.5678  -26.2359   23.3640 H   0  0  0  0  0  0
  -21.6661  -26.7406   22.1214 H   0  0  0  0  0  0
  -19.6934  -25.6273   21.1270 H   0  0  0  0  0  0
  -19.6713  -27.3161   20.6725 H   0  0  0  0  0  0
  -17.4224  -26.6674   21.4028 H   0  0  0  0  0  0
  -18.0354  -26.0084   22.9029 H   0  0  0  0  0  0
  -19.7966  -30.7312   24.2201 H   0  0  0  0  0  0
  -17.5035  -31.6264   24.5172 H   0  0  0  0  0  0
  -15.5374  -30.2970   23.7682 H   0  0  0  0  0  0
  -15.8704  -28.0807   22.7091 H   0  0  0  0  0  0
  -24.5871  -30.7129   25.7680 H   0  0  0  0  0  0
  -24.8878  -32.2983   26.4690 H   0  0  0  0  0  0
  -25.7931  -30.9013   27.0209 H   0  0  0  0  0  0
  -26.3088  -29.6595   24.1388 H   0  0  0  0  0  0
  -27.3971  -29.7264   25.5031 H   0  0  0  0  0  0
  -27.9025  -30.4102   23.9790 H   0  0  0  0  0  0
  -27.2614  -33.3671   26.1973 H   0  0  0  0  0  0
  -28.3906  -32.6855   25.0359 H   0  0  0  0  0  0
  -28.0660  -31.8536   26.5493 H   0  0  0  0  0  0
  -28.2578  -38.0075   24.7502 H   0  0  0  0  0  0
  -28.1080  -36.2602   24.6301 H   0  0  0  0  0  0
  -27.2288  -37.1421   25.8867 H   0  0  0  0  0  0
  -20.9561  -29.8729   21.6685 H   0  0  0  0  0  0
  -26.0137  -38.2773   24.1408 H   0  0  0  0  0  0
  -29.1569  -18.1563   18.2984 H   0  0  0  0  0  0
  -27.7344  -23.2296   18.3767 H   0  0  0  0  0  0
  -29.2635  -24.2166   18.4028 H   0  0  0  0  0  0
  -30.0608  -23.1615   20.4997 H   0  0  0  0  0  0
  -26.9855  -24.1117   20.5534 H   0  0  0  0  0  0
  -28.9428  -19.9778   16.9554 H   0  0  0  0  0  0
  -29.4349  -21.5709   17.4943 H   0  0  0  0  0  0
  -27.7399  -21.0624   17.6367 H   0  0  0  0  0  0
  -31.2050  -21.8241   23.9419 H   0  0  0  0  0  0
  -31.4850  -21.9863   22.2100 H   0  0  0  0  0  0
  -31.6987  -20.4230   22.9937 H   0  0  0  0  0  0
  -29.2323  -20.3497   23.5096 H   0  0  0  0  0  0
  -29.0126  -21.8992   22.7539 H   0  0  0  0  0  0
  -28.6542  -16.0625   20.6568 H   0  0  0  0  0  0
  1 25  1  0  0  0
  1 30  2  0  0  0
  1 83  1  0  0  0
  2  3  1  0  0  0
  2 25  1  0  0  0
  2 84  1  0  0  0
  2 85  1  0  0  0
  3  4  1  0  0  0
  3 86  1  0  0  0
  3 87  1  0  0  0
  4  5  1  0  0  0
  4 88  1  0  0  0
  4 89  1  0  0  0
  5  6  1  0  0  0
  5 26  1  0  0  0
  5 90  1  0  0  0
  6 25  1  0  0  0
  6 91  1  0  0  0
  6 92  1  0  0  0
  7  8  2  0  0  0
  7 26  1  0  0  0
  7 29  1  0  0  0
  8  9  1  0  0  0
  8 22  1  0  0  0
  9 10  1  0  0  0
  9 27  2  0  0  0
 10 11  2  0  0  0
 10 15  1  0  0  0
 11 12  1  0  0  0
 11 93  1  0  0  0
 12 13  2  0  0  0
 12 94  1  0  0  0
 13 14  1  0  0  0
 13 31  1  0  0  0
 14 15  2  0  0  0
 14 95  1  0  0  0
 15 96  1  0  0  0
 16 17  2  0  0  0
 16 21  1  0  0  0
 16 31  1  0  0  0
 17 18  1  0  0  0
 17 97  1  0  0  0
 18 19  2  0  0  0
 18 98  1  0  0  0
 19 20  1  0  0  0
 19 24  1  0  0  0
 20 21  2  0  0  0
 20 99  1  0  0  0
 21 23  1  0  0  0
 22 28  1  0  0  0
 22 32  2  0  0  0
 26 27  1  0  0  0
 28100  1  0  0  0
 28101  1  0  0  0
 29102  1  0  0  0
 29103  1  0  0  0
 33 34  1  0  0  0
 33 66  1  0  0  0
 33 70  2  0  0  0
 34 36  1  0  0  0
 34 59  1  0  0  0
 34104  1  0  0  0
 35 44  2  0  0  0
 35 45  1  0  0  0
 35 68  1  0  0  0
 36 56  1  0  0  0
 36105  1  0  0  0
 37 39  1  0  0  0
 37 47  1  0  0  0
 37 66  1  0  0  0
 37106  1  0  0  0
 38 43  2  0  0  0
 38 46  1  0  0  0
 38 47  1  0  0  0
 39 64  1  0  0  0
 39 67  2  0  0  0
 40 52  1  0  0  0
 40 53  2  0  0  0
 40 58  1  0  0  0
 41107  1  0  0  0
 41108  1  0  0  0
 41109  1  0  0  0
 41 48  1  0  0  0
 42 43  1  0  0  0
 42 66  1  0  0  0
 42110  1  0  0  0
 42111  1  0  0  0
 43 44  1  0  0  0
 44112  1  0  0  0
 45 46  2  0  0  0
 45113  1  0  0  0
 46114  1  0  0  0
 47115  1  0  0  0
 47116  1  0  0  0
 48 56  1  0  0  0
 48 65  1  0  0  0
 48117  1  0  0  0
 49 50  1  0  0  0
 49 53  1  0  0  0
 49 64  1  0  0  0
 49118  1  0  0  0
 50 51  1  0  0  0
 50119  1  0  0  0
 50120  1  0  0  0
 51 52  1  0  0  0
 51121  1  0  0  0
 51122  1  0  0  0
 52123  1  0  0  0
 52124  1  0  0  0
 53 54  1  0  0  0
 54 55  2  0  0  0
 54125  1  0  0  0
 55 57  1  0  0  0
 55126  1  0  0  0
 56 69  2  0  0  0
 57 58  2  0  0  0
 57127  1  0  0  0
 58128  1  0  0  0
 59 60  1  0  0  0
 59 61  1  0  0  0
 59 62  1  0  0  0
 60129  1  0  0  0
 60130  1  0  0  0
 60131  1  0  0  0
 61132  1  0  0  0
 61133  1  0  0  0
 61134  1  0  0  0
 62135  1  0  0  0
 62136  1  0  0  0
 62137  1  0  0  0
 63 65  1  0  0  0
 63138  1  0  0  0
 63139  1  0  0  0
 63140  1  0  0  0
 64141  1  0  0  0
 65142  1  0  0  0
 68 78  1  0  0  0
 71 73  2  0  0  0
 71 75  1  0  0  0
 71143  1  0  0  0
 72 73  1  0  0  0
 72 74  2  0  0  0
 72 77  1  0  0  0
 73 79  1  0  0  0
 74 81  1  0  0  0
 74 82  1  0  0  0
 75 82  2  0  0  0
 75 83  1  0  0  0
 76 77  1  0  0  0
 76 78  1  0  0  0
 76144  1  0  0  0
 76145  1  0  0  0
 77 78  1  0  0  0
 77146  1  0  0  0
 78147  1  0  0  0
 79148  1  0  0  0
 79149  1  0  0  0
 79150  1  0  0  0
 80 81  1  0  0  0
 80151  1  0  0  0
 80152  1  0  0  0
 80153  1  0  0  0
 81154  1  0  0  0
 81155  1  0  0  0
 83156  1  0  0  0
M  ISO  4   1 100  68 101  78 101  83 100
M  END
> <chiral flag>
0

> <version>
0

> <s_m_source_file>
/data/baiqing/PycharmProjects/Reinvent-master-3.2/result/LINK_invent/BTK/process_docking_weight1_custom_sum_contain_oxygen_bond_distance_aromatic_linkinvent_7_9_3/rearranged_h_0143.sdf

> <i_m_source_file_index>
54

> <r_mmod_Potential_Energy-OPLS-2005>
877.370300292969

> <r_mmod_Stretch_Energy-OPLS-2005>
459.233917236328

> <r_mmod_Bend_Energy-OPLS-2005>
387.379913330078

> <r_mmod_Torsional_Energy-OPLS-2005>
264.083587646484

> <r_mmod_Improper_Torsional_Energy-OPLS-2005>
8.10666751861572

> <r_mmod_Van_der_Waal_Energy-OPLS-2005>
128.393539428711

> <r_mmod_Electrostatic_Energy-OPLS-2005>
-520.664489746094

> <r_mmod_Solvation_Energy-OPLS-2005>
-225.119323730469

> <b_mmod_Minimization_Converged-OPLS-2005>
0

> <r_mmod_RMS_Derivative-OPLS-2005>
0.755346894264221

$$$$
54
                    3D
 Structure written by MMmdl.
155164  0  0  1  0            999 V2000
  -30.5391  -14.9228   20.4114 C   0  0  0  0  0  0
  -30.4353  -12.5667   19.4999 C   0  0  0  0  0  0
  -29.5201  -12.5247   18.2547 C   0  0  0  0  0  0
  -28.0503  -12.3202   18.6684 C   0  0  0  0  0  0
  -27.6291  -13.2470   19.8393 C   0  0  2  0  0  0
  -28.6696  -13.2621   20.9786 C   0  0  0  0  0  0
  -25.2456  -13.8218   20.5708 C   0  0  0  0  0  0
  -24.1775  -13.0441   20.9227 C   0  0  0  0  0  0
  -24.6390  -11.6924   20.8754 C   0  0  0  0  0  0
  -23.9079  -10.4292   21.0408 C   0  0  0  0  0  0
  -24.3628   -9.4206   21.9183 C   0  0  0  0  0  0
  -23.6299   -8.2245   22.0753 C   0  0  0  0  0  0
  -22.4281   -8.0285   21.3544 C   0  0  0  0  0  0
  -21.9916   -9.0261   20.4651 C   0  0  0  0  0  0
  -22.7250  -10.2136   20.3058 C   0  0  0  0  0  0
  -21.6854   -6.0741   22.5279 C   0  0  0  0  0  0
  -21.4020   -6.5644   23.8215 C   0  0  0  0  0  0
  -21.3657   -5.6794   24.9175 C   0  0  0  0  0  0
  -21.6041   -4.3057   24.7223 C   0  0  0  0  0  0
  -21.8819   -3.8151   23.4344 C   0  0  0  0  0  0
  -21.9194   -4.6968   22.3401 C   0  0  0  0  0  0
  -22.7794  -13.5210   21.1880 C   0  0  0  0  0  0
  -22.1661   -4.2156   21.0978 F   0  0  0  0  0  0
  -21.5623   -3.4538   25.7734 F   0  0  0  0  0  0
  -29.9480  -13.6641   20.3822 N   0  0  0  0  0  0
  -26.2877  -12.9449   20.3237 N   0  0  0  0  0  0
  -25.9321  -11.6577   20.5735 N   0  0  0  0  0  0
  -22.0443  -12.8202   22.0437 N   0  0  0  0  0  0
  -25.4105  -15.1950   20.4133 N   0  0  0  0  0  0
  -31.7393  -14.9957   20.1303 O   0  0  0  0  0  0
  -21.6641   -6.8884   21.4241 O   0  0  0  0  0  0
  -22.3475  -14.5510   20.6718 O   0  0  0  0  0  0
  -24.6405  -31.8432   23.1861 C   0  0  0  0  0  0
  -25.9185  -32.4689   23.8247 C   0  0  1  0  0  0
  -27.2213  -27.1453   20.1576 C   0  0  0  0  0  0
  -25.5941  -33.8497   24.2175 N   0  0  0  0  0  0
  -23.4425  -30.4591   21.5314 C   0  0  2  0  0  0
  -24.8900  -28.8741   20.1142 C   0  0  0  0  0  0
  -22.7543  -29.4540   22.4875 C   0  0  0  0  0  0
  -18.0298  -28.1397   22.8478 C   0  0  0  0  0  0
  -24.1490  -36.7253   23.2642 C   0  0  0  0  0  0
  -25.9938  -30.7188   21.3809 C   0  0  0  0  0  0
  -26.0624  -29.3262   20.7320 C   0  0  0  0  0  0
  -27.2251  -28.4753   20.7371 C   0  0  0  0  0  0
  -26.0261  -26.7792   19.5071 C   0  0  0  0  0  0
  -24.8824  -27.6138   19.4889 C   0  0  0  0  0  0
  -23.6667  -29.7777   20.1533 C   0  0  0  0  0  0
  -25.4122  -36.3031   24.0315 C   0  0  1  0  0  0
  -20.5905  -28.3714   23.1250 C   0  0  2  0  0  0
  -20.6782  -26.9421   22.5411 C   0  0  0  0  0  0
  -19.5760  -26.6384   21.5214 C   0  0  0  0  0  0
  -18.1941  -26.7936   22.1622 C   0  0  0  0  0  0
  -19.1552  -28.8873   23.2858 C   0  0  0  0  0  0
  -18.9472  -30.1471   23.8880 C   0  0  0  0  0  0
  -17.6471  -30.6594   24.0560 C   0  0  0  0  0  0
  -25.9071  -34.9407   23.5057 C   0  0  0  0  0  0
  -16.5361  -29.9089   23.6339 C   0  0  0  0  0  0
  -16.7283  -28.6507   23.0356 C   0  0  0  0  0  0
  -26.4519  -31.6559   25.0685 C   0  0  0  0  0  0
  -25.3711  -31.3745   26.1384 C   0  0  0  0  0  0
  -27.0386  -30.2959   24.6255 C   0  0  0  0  0  0
  -27.6047  -32.4324   25.7474 C   0  0  0  0  0  0
  -27.5576  -37.1784   24.8467 C   0  0  0  0  0  0
  -21.4238  -29.3039   22.3621 N   0  0  0  0  0  0
  -26.4288  -37.3743   23.9408 N   0  0  0  0  0  0
  -24.7120  -31.0293   22.0883 N   0  0  0  0  0  0
  -23.4194  -28.8107   23.3034 O   0  0  0  0  0  0
  -28.3437  -26.2521   20.1710 O   0  0  0  0  0  0
  -26.5663  -34.8907   22.4640 O   0  0  0  0  0  0
  -23.5533  -32.1310   23.7099 O   0  0  0  0  0  0
  -29.6085  -24.1840   19.5609 C   0  0  0  0  0  0
  -29.9078  -22.7713   19.5679 C   0  0  0  0  0  0
  -27.5913  -23.7565   20.6765 C   0  0  0  0  0  0
  -27.8773  -22.3092   20.6767 C   0  0  0  0  0  0
  -28.4406  -24.7847   20.1204 C   0  0  0  0  0  0
  -29.0914  -21.7382   20.1291 C   0  0  0  0  0  0
  -26.0337  -20.4567   20.4593 C   0  0  0  0  0  0
  -25.3785  -21.6303   21.1435 C   0  0  0  0  0  0
  -26.8662  -21.3948   21.3024 C   0  0  0  0  0  0
  -30.1220  -17.6195   20.2771 C   0  0  0  0  0  0
  -29.1262  -18.9729   20.4749 C   0  0  0  0  0  0
  -29.7591  -16.1028   20.5341 N   0  0  0  0  0  0
  -29.6220  -20.3675   20.0586 O   0  0  0  0  0  0
  -31.4723  -12.7160   19.1951 H   0  0  0  0  0  0
  -30.4157  -11.6119   20.0278 H   0  0  0  0  0  0
  -29.8337  -11.7279   17.5788 H   0  0  0  0  0  0
  -29.6181  -13.4572   17.6967 H   0  0  0  0  0  0
  -27.9365  -11.2770   18.9664 H   0  0  0  0  0  0
  -27.3907  -12.4654   17.8122 H   0  0  0  0  0  0
  -27.5967  -14.2528   19.4192 H   0  0  0  0  0  0
  -28.7473  -12.2842   21.4566 H   0  0  0  0  0  0
  -28.3749  -13.9654   21.7590 H   0  0  0  0  0  0
  -25.2773   -9.5682   22.4758 H   0  0  0  0  0  0
  -24.0007   -7.4636   22.7473 H   0  0  0  0  0  0
  -21.0847   -8.8787   19.8960 H   0  0  0  0  0  0
  -22.3710  -10.9677   19.6171 H   0  0  0  0  0  0
  -21.2020   -7.6152   23.9722 H   0  0  0  0  0  0
  -21.1473   -6.0521   25.9077 H   0  0  0  0  0  0
  -22.0600   -2.7613   23.2841 H   0  0  0  0  0  0
  -22.4070  -11.9875   22.4840 H   0  0  0  0  0  0
  -21.1059  -13.1224   22.2639 H   0  0  0  0  0  0
  -24.6368  -15.8411   20.5253 H   0  0  0  0  0  0
  -26.2469  -15.6382   20.0567 H   0  0  0  0  0  0
  -26.7244  -32.5296   23.0971 H   0  0  0  0  0  0
  -25.0062  -33.9604   25.0305 H   0  0  0  0  0  0
  -22.7450  -31.2843   21.3739 H   0  0  0  0  0  0
  -23.3756  -35.9582   23.3299 H   0  0  0  0  0  0
  -24.3571  -36.8890   22.2058 H   0  0  0  0  0  0
  -23.7246  -37.6448   23.6681 H   0  0  0  0  0  0
  -26.1441  -31.4689   20.6033 H   0  0  0  0  0  0
  -26.8669  -30.7737   22.0199 H   0  0  0  0  0  0
  -28.1268  -28.8209   21.2222 H   0  0  0  0  0  0
  -25.9663  -25.8135   19.0246 H   0  0  0  0  0  0
  -23.9860  -27.2646   18.9948 H   0  0  0  0  0  0
  -23.8010  -30.5464   19.3913 H   0  0  0  0  0  0
  -22.7816  -29.2166   19.8480 H   0  0  0  0  0  0
  -25.1317  -36.1855   25.0809 H   0  0  0  0  0  0
  -20.9997  -28.3303   24.1371 H   0  0  0  0  0  0
  -20.5677  -26.2325   23.3626 H   0  0  0  0  0  0
  -21.6650  -26.7435   22.1210 H   0  0  0  0  0  0
  -19.6923  -25.6292   21.1254 H   0  0  0  0  0  0
  -19.6700  -27.3186   20.6738 H   0  0  0  0  0  0
  -17.4211  -26.6680   21.4025 H   0  0  0  0  0  0
  -18.0340  -26.0082   22.9024 H   0  0  0  0  0  0
  -19.7947  -30.7292   24.2241 H   0  0  0  0  0  0
  -17.5023  -31.6271   24.5167 H   0  0  0  0  0  0
  -15.5360  -30.2987   23.7671 H   0  0  0  0  0  0
  -15.8682  -28.0820   22.7084 H   0  0  0  0  0  0
  -24.5896  -30.7084   25.7708 H   0  0  0  0  0  0
  -24.8891  -32.2924   26.4752 H   0  0  0  0  0  0
  -25.7997  -30.8958   27.0197 H   0  0  0  0  0  0
  -26.3000  -29.6677   24.1263 H   0  0  0  0  0  0
  -27.4009  -29.7258   25.4821 H   0  0  0  0  0  0
  -27.8899  -30.4201   23.9560 H   0  0  0  0  0  0
  -27.2635  -33.3636   26.2008 H   0  0  0  0  0  0
  -28.3883  -32.6866   25.0326 H   0  0  0  0  0  0
  -28.0688  -31.8481   26.5431 H   0  0  0  0  0  0
  -28.2593  -38.0082   24.7509 H   0  0  0  0  0  0
  -28.1074  -36.2612   24.6303 H   0  0  0  0  0  0
  -27.2290  -37.1442   25.8869 H   0  0  0  0  0  0
  -20.9449  -29.8725   21.6778 H   0  0  0  0  0  0
  -26.0155  -38.2812   24.1404 H   0  0  0  0  0  0
  -30.3426  -24.8433   19.1201 H   0  0  0  0  0  0
  -30.8439  -22.4699   19.1196 H   0  0  0  0  0  0
  -26.6804  -24.0895   21.1523 H   0  0  0  0  0  0
  -26.1466  -20.5077   19.3779 H   0  0  0  0  0  0
  -25.8163  -19.4693   20.8620 H   0  0  0  0  0  0
  -24.7345  -21.4066   21.9915 H   0  0  0  0  0  0
  -25.0413  -22.4422   20.5018 H   0  0  0  0  0  0
  -27.2184  -21.0285   22.2653 H   0  0  0  0  0  0
  -31.0254  -17.8091   20.8575 H   0  0  0  0  0  0
  -30.4594  -17.6485   19.2403 H   0  0  0  0  0  0
  -28.2073  -18.7888   19.9196 H   0  0  0  0  0  0
  -28.8329  -19.0335   21.5232 H   0  0  0  0  0  0
  -28.7863  -15.9314   20.7420 H   0  0  0  0  0  0
  1 25  1  0  0  0
  1 30  2  0  0  0
  1 82  1  0  0  0
  2  3  1  0  0  0
  2 25  1  0  0  0
  2 84  1  0  0  0
  2 85  1  0  0  0
  3  4  1  0  0  0
  3 86  1  0  0  0
  3 87  1  0  0  0
  4  5  1  0  0  0
  4 88  1  0  0  0
  4 89  1  0  0  0
  5  6  1  0  0  0
  5 26  1  0  0  0
  5 90  1  0  0  0
  6 25  1  0  0  0
  6 91  1  0  0  0
  6 92  1  0  0  0
  7  8  2  0  0  0
  7 26  1  0  0  0
  7 29  1  0  0  0
  8  9  1  0  0  0
  8 22  1  0  0  0
  9 10  1  0  0  0
  9 27  2  0  0  0
 10 11  2  0  0  0
 10 15  1  0  0  0
 11 12  1  0  0  0
 11 93  1  0  0  0
 12 13  2  0  0  0
 12 94  1  0  0  0
 13 14  1  0  0  0
 13 31  1  0  0  0
 14 15  2  0  0  0
 14 95  1  0  0  0
 15 96  1  0  0  0
 16 17  2  0  0  0
 16 21  1  0  0  0
 16 31  1  0  0  0
 17 18  1  0  0  0
 17 97  1  0  0  0
 18 19  2  0  0  0
 18 98  1  0  0  0
 19 20  1  0  0  0
 19 24  1  0  0  0
 20 21  2  0  0  0
 20 99  1  0  0  0
 21 23  1  0  0  0
 22 28  1  0  0  0
 22 32  2  0  0  0
 26 27  1  0  0  0
 28100  1  0  0  0
 28101  1  0  0  0
 29102  1  0  0  0
 29103  1  0  0  0
 33 34  1  0  0  0
 33 66  1  0  0  0
 33 70  2  0  0  0
 34 36  1  0  0  0
 34 59  1  0  0  0
 34104  1  0  0  0
 35 44  2  0  0  0
 35 45  1  0  0  0
 35 68  1  0  0  0
 36 56  1  0  0  0
 36105  1  0  0  0
 37 39  1  0  0  0
 37 47  1  0  0  0
 37 66  1  0  0  0
 37106  1  0  0  0
 38 43  2  0  0  0
 38 46  1  0  0  0
 38 47  1  0  0  0
 39 64  1  0  0  0
 39 67  2  0  0  0
 40 52  1  0  0  0
 40 53  2  0  0  0
 40 58  1  0  0  0
 41107  1  0  0  0
 41108  1  0  0  0
 41109  1  0  0  0
 41 48  1  0  0  0
 42 43  1  0  0  0
 42 66  1  0  0  0
 42110  1  0  0  0
 42111  1  0  0  0
 43 44  1  0  0  0
 44112  1  0  0  0
 45 46  2  0  0  0
 45113  1  0  0  0
 46114  1  0  0  0
 47115  1  0  0  0
 47116  1  0  0  0
 48 56  1  0  0  0
 48 65  1  0  0  0
 48117  1  0  0  0
 49 50  1  0  0  0
 49 53  1  0  0  0
 49 64  1  0  0  0
 49118  1  0  0  0
 50 51  1  0  0  0
 50119  1  0  0  0
 50120  1  0  0  0
 51 52  1  0  0  0
 51121  1  0  0  0
 51122  1  0  0  0
 52123  1  0  0  0
 52124  1  0  0  0
 53 54  1  0  0  0
 54 55  2  0  0  0
 54125  1  0  0  0
 55 57  1  0  0  0
 55126  1  0  0  0
 56 69  2  0  0  0
 57 58  2  0  0  0
 57127  1  0  0  0
 58128  1  0  0  0
 59 60  1  0  0  0
 59 61  1  0  0  0
 59 62  1  0  0  0
 60129  1  0  0  0
 60130  1  0  0  0
 60131  1  0  0  0
 61132  1  0  0  0
 61133  1  0  0  0
 61134  1  0  0  0
 62135  1  0  0  0
 62136  1  0  0  0
 62137  1  0  0  0
 63 65  1  0  0  0
 63138  1  0  0  0
 63139  1  0  0  0
 63140  1  0  0  0
 64141  1  0  0  0
 65142  1  0  0  0
 68 75  1  0  0  0
 71 72  2  0  0  0
 71 75  1  0  0  0
 71143  1  0  0  0
 72 76  1  0  0  0
 72144  1  0  0  0
 73 74  1  0  0  0
 73 75  2  0  0  0
 73145  1  0  0  0
 74 76  2  0  0  0
 74 79  1  0  0  0
 76 83  1  0  0  0
 77 78  1  0  0  0
 77 79  1  0  0  0
 77146  1  0  0  0
 77147  1  0  0  0
 78 79  1  0  0  0
 78148  1  0  0  0
 78149  1  0  0  0
 79150  1  0  0  0
 80 81  1  0  0  0
 80 82  1  0  0  0
 80151  1  0  0  0
 80152  1  0  0  0
 81 83  1  0  0  0
 81153  1  0  0  0
 81154  1  0  0  0
 82155  1  0  0  0
M  ISO  4   1 100  68 101  75 101  82 100
M  END
> <chiral flag>
0

> <version>
0

> <s_m_source_file>
/data/baiqing/PycharmProjects/Reinvent-master-3.2/result/LINK_invent/BTK/process_docking_weight1_custom_sum_contain_oxygen_bond_distance_aromatic_linkinvent_7_9_3/rearranged_h_0143.sdf

> <i_m_source_file_index>
55

> <r_mmod_Potential_Energy-OPLS-2005>
416.841674804688

> <r_mmod_Stretch_Energy-OPLS-2005>
218.089218139648

> <r_mmod_Bend_Energy-OPLS-2005>
296.418579101562

> <r_mmod_Torsional_Energy-OPLS-2005>
229.513259887695

> <r_mmod_Improper_Torsional_Energy-OPLS-2005>
5.38749551773071

> <r_mmod_Van_der_Waal_Energy-OPLS-2005>
121.576393127441

> <r_mmod_Electrostatic_Energy-OPLS-2005>
-408.606292724609

> <r_mmod_Solvation_Energy-OPLS-2005>
-214.841720581055

> <b_mmod_Minimization_Converged-OPLS-2005>
0

> <r_mmod_RMS_Derivative-OPLS-2005>
0.651147425174713

$$$$
55
                    3D
 Structure written by MMmdl.
165174  0  0  1  0            999 V2000
  -30.5295  -14.9789   20.4086 C   0  0  0  0  0  0
  -30.4372  -12.6102   19.4908 C   0  0  0  0  0  0
  -29.5188  -12.5361   18.2497 C   0  0  0  0  0  0
  -28.0533  -12.3184   18.6707 C   0  0  0  0  0  0
  -27.6259  -13.2539   19.8322 C   0  0  2  0  0  0
  -28.6683  -13.3001   20.9677 C   0  0  0  0  0  0
  -25.2467  -13.8225   20.5729 C   0  0  0  0  0  0
  -24.1777  -13.0443   20.9211 C   0  0  0  0  0  0
  -24.6402  -11.6924   20.8735 C   0  0  0  0  0  0
  -23.9084  -10.4293   21.0396 C   0  0  0  0  0  0
  -24.3633   -9.4206   21.9178 C   0  0  0  0  0  0
  -23.6299   -8.2246   22.0759 C   0  0  0  0  0  0
  -22.4277   -8.0284   21.3548 C   0  0  0  0  0  0
  -21.9920   -9.0255   20.4643 C   0  0  0  0  0  0
  -22.7257  -10.2130   20.3050 C   0  0  0  0  0  0
  -21.6859   -6.0732   22.5277 C   0  0  0  0  0  0
  -21.4019   -6.5639   23.8210 C   0  0  0  0  0  0
  -21.3659   -5.6795   24.9172 C   0  0  0  0  0  0
  -21.6046   -4.3057   24.7224 C   0  0  0  0  0  0
  -21.8820   -3.8143   23.4346 C   0  0  0  0  0  0
  -21.9198   -4.6959   22.3401 C   0  0  0  0  0  0
  -22.7797  -13.5202   21.1868 C   0  0  0  0  0  0
  -22.1666   -4.2144   21.0978 F   0  0  0  0  0  0
  -21.5627   -3.4543   25.7736 F   0  0  0  0  0  0
  -29.9356  -13.7169   20.3576 N   0  0  0  0  0  0
  -26.2880  -12.9463   20.3235 N   0  0  0  0  0  0
  -25.9333  -11.6583   20.5723 N   0  0  0  0  0  0
  -22.0468  -12.8178   22.0424 N   0  0  0  0  0  0
  -25.4188  -15.1956   20.4220 N   0  0  0  0  0  0
  -31.7426  -15.0265   20.1744 O   0  0  0  0  0  0
  -21.6646   -6.8877   21.4240 O   0  0  0  0  0  0
  -22.3467  -14.5506   20.6716 O   0  0  0  0  0  0
  -24.6500  -31.8417   23.1877 C   0  0  0  0  0  0
  -25.9257  -32.4680   23.8273 C   0  0  1  0  0  0
  -27.2008  -27.0863   20.1449 C   0  0  0  0  0  0
  -25.5992  -33.8489   24.2183 N   0  0  0  0  0  0
  -23.4548  -30.4648   21.5357 C   0  0  2  0  0  0
  -24.9007  -28.8920   20.1096 C   0  0  0  0  0  0
  -22.7601  -29.4547   22.4844 C   0  0  0  0  0  0
  -18.0308  -28.1403   22.8482 C   0  0  0  0  0  0
  -24.1492  -36.7235   23.2642 C   0  0  0  0  0  0
  -26.0181  -30.6974   21.3985 C   0  0  0  0  0  0
  -26.0843  -29.3074   20.7335 C   0  0  0  0  0  0
  -27.2354  -28.4217   20.7361 C   0  0  0  0  0  0
  -25.9892  -26.7992   19.4713 C   0  0  0  0  0  0
  -24.8686  -27.6521   19.4634 C   0  0  0  0  0  0
  -23.6832  -29.8018   20.1542 C   0  0  0  0  0  0
  -25.4128  -36.3017   24.0313 C   0  0  1  0  0  0
  -20.5928  -28.3738   23.1217 C   0  0  2  0  0  0
  -20.6796  -26.9435   22.5398 C   0  0  0  0  0  0
  -19.5761  -26.6385   21.5215 C   0  0  0  0  0  0
  -18.1942  -26.7946   22.1624 C   0  0  0  0  0  0
  -19.1568  -28.8888   23.2844 C   0  0  0  0  0  0
  -18.9481  -30.1485   23.8868 C   0  0  0  0  0  0
  -17.6475  -30.6599   24.0560 C   0  0  0  0  0  0
  -25.9085  -34.9397   23.5049 C   0  0  0  0  0  0
  -16.5366  -29.9088   23.6345 C   0  0  0  0  0  0
  -16.7293  -28.6504   23.0372 C   0  0  0  0  0  0
  -26.4554  -31.6570   25.0739 C   0  0  0  0  0  0
  -25.3711  -31.3783   26.1413 C   0  0  0  0  0  0
  -27.0440  -30.2953   24.6383 C   0  0  0  0  0  0
  -27.6067  -32.4358   25.7528 C   0  0  0  0  0  0
  -27.5576  -37.1772   24.8464 C   0  0  0  0  0  0
  -21.4287  -29.3063   22.3589 N   0  0  0  0  0  0
  -26.4279  -37.3742   23.9416 N   0  0  0  0  0  0
  -24.7278  -31.0231   22.0944 N   0  0  0  0  0  0
  -23.4219  -28.8080   23.3006 O   0  0  0  0  0  0
  -28.2033  -26.0297   20.2249 O   0  0  0  0  0  0
  -26.5661  -34.8901   22.4623 O   0  0  0  0  0  0
  -23.5605  -32.1318   23.7062 O   0  0  0  0  0  0
  -29.4366  -22.5460   21.0872 C   0  0  0  0  0  0
  -28.0102  -21.9116   19.3656 C   0  0  0  0  0  0
  -28.4847  -23.0379   20.1347 C   0  0  0  0  0  0
  -29.8357  -21.1367   21.1832 C   0  0  0  0  0  0
  -29.3046  -20.0860   20.3422 C   0  0  0  0  0  0
  -29.7276  -17.3387   21.4423 C   0  0  0  0  0  0
  -29.8023  -18.4766   20.3342 C   0  0  1  0  0  0
  -29.4209  -17.2467   19.3987 C   0  0  1  0  0  0
  -30.8659  -20.7608   22.2329 C   0  0  0  0  0  0
  -30.8871  -17.8393   15.8036 C   0  0  0  0  0  0
  -28.5046  -18.2033   16.5535 C   0  0  0  0  0  0
  -27.7656  -24.5409   19.9620 C   0  0  0  0  0  0
  -30.1714  -16.9969   18.0817 C   0  0  0  0  0  0
  -29.9685  -18.0876   17.0103 C   0  0  0  0  0  0
  -28.3772  -20.5645   19.4510 N   0  0  0  0  0  0
  -29.7419  -16.1821   20.4534 N   0  0  0  0  0  0
  -31.4696  -12.7724   19.1767 H   0  0  0  0  0  0
  -30.4350  -11.6635   20.0329 H   0  0  0  0  0  0
  -29.8408  -11.7349   17.5827 H   0  0  0  0  0  0
  -29.6010  -13.4622   17.6785 H   0  0  0  0  0  0
  -27.9516  -11.2773   18.9797 H   0  0  0  0  0  0
  -27.3893  -12.4480   17.8149 H   0  0  0  0  0  0
  -27.5829  -14.2538   19.3980 H   0  0  0  0  0  0
  -28.7620  -12.3327   21.4627 H   0  0  0  0  0  0
  -28.3662  -14.0169   21.7328 H   0  0  0  0  0  0
  -25.2783   -9.5681   22.4746 H   0  0  0  0  0  0
  -24.0010   -7.4640   22.7481 H   0  0  0  0  0  0
  -21.0860   -8.8767   19.8941 H   0  0  0  0  0  0
  -22.3718  -10.9663   19.6153 H   0  0  0  0  0  0
  -21.2016   -7.6151   23.9703 H   0  0  0  0  0  0
  -21.1481   -6.0532   25.9073 H   0  0  0  0  0  0
  -22.0601   -2.7605   23.2848 H   0  0  0  0  0  0
  -22.4119  -11.9845   22.4793 H   0  0  0  0  0  0
  -21.1084  -13.1171   22.2643 H   0  0  0  0  0  0
  -24.6608  -15.8572   20.5475 H   0  0  0  0  0  0
  -26.2866  -15.6340   20.1397 H   0  0  0  0  0  0
  -26.7323  -32.5264   23.0996 H   0  0  0  0  0  0
  -25.0152  -33.9603   25.0340 H   0  0  0  0  0  0
  -22.7594  -31.2929   21.3836 H   0  0  0  0  0  0
  -23.3774  -35.9544   23.3271 H   0  0  0  0  0  0
  -24.3571  -36.8905   22.2061 H   0  0  0  0  0  0
  -23.7222  -37.6410   23.6704 H   0  0  0  0  0  0
  -26.1894  -31.4523   20.6301 H   0  0  0  0  0  0
  -26.8822  -30.7383   22.0498 H   0  0  0  0  0  0
  -28.1320  -28.7314   21.2548 H   0  0  0  0  0  0
  -25.8437  -25.8617   18.9595 H   0  0  0  0  0  0
  -23.9666  -27.3292   18.9620 H   0  0  0  0  0  0
  -23.8273  -30.5801   19.4041 H   0  0  0  0  0  0
  -22.7946  -29.2528   19.8373 H   0  0  0  0  0  0
  -25.1314  -36.1835   25.0803 H   0  0  0  0  0  0
  -21.0016  -28.3334   24.1340 H   0  0  0  0  0  0
  -20.5698  -26.2352   23.3625 H   0  0  0  0  0  0
  -21.6661  -26.7445   22.1189 H   0  0  0  0  0  0
  -19.6921  -25.6286   21.1270 H   0  0  0  0  0  0
  -19.6694  -27.3172   20.6726 H   0  0  0  0  0  0
  -17.4216  -26.6704   21.4021 H   0  0  0  0  0  0
  -18.0323  -26.0089   22.9015 H   0  0  0  0  0  0
  -19.7955  -30.7317   24.2218 H   0  0  0  0  0  0
  -17.5027  -31.6275   24.5170 H   0  0  0  0  0  0
  -15.5365  -30.2979   23.7691 H   0  0  0  0  0  0
  -15.8692  -28.0811   22.7112 H   0  0  0  0  0  0
  -24.5894  -30.7132   25.7726 H   0  0  0  0  0  0
  -24.8898  -32.2975   26.4759 H   0  0  0  0  0  0
  -25.7964  -30.9002   27.0245 H   0  0  0  0  0  0
  -26.3088  -29.6652   24.1362 H   0  0  0  0  0  0
  -27.3995  -29.7284   25.4999 H   0  0  0  0  0  0
  -27.9020  -30.4174   23.9767 H   0  0  0  0  0  0
  -27.2649  -33.3693   26.2013 H   0  0  0  0  0  0
  -28.3920  -32.6869   25.0385 H   0  0  0  0  0  0
  -28.0688  -31.8550   26.5521 H   0  0  0  0  0  0
  -28.2568  -38.0098   24.7548 H   0  0  0  0  0  0
  -28.1103  -36.2626   24.6247 H   0  0  0  0  0  0
  -27.2294  -37.1361   25.8867 H   0  0  0  0  0  0
  -20.9498  -29.8778   21.6767 H   0  0  0  0  0  0
  -26.0140  -38.2801   24.1449 H   0  0  0  0  0  0
  -29.8626  -23.2585   21.7795 H   0  0  0  0  0  0
  -27.2415  -22.0966   18.6295 H   0  0  0  0  0  0
  -28.7948  -17.3836   22.0061 H   0  0  0  0  0  0
  -30.5718  -17.3597   22.1323 H   0  0  0  0  0  0
  -30.8704  -18.6157   20.1675 H   0  0  0  0  0  0
  -28.3434  -17.2696   19.2302 H   0  0  0  0  0  0
  -31.1783  -21.6254   22.8193 H   0  0  0  0  0  0
  -31.7542  -20.3387   21.7627 H   0  0  0  0  0  0
  -30.4557  -20.0217   22.9221 H   0  0  0  0  0  0
  -30.7750  -18.6229   15.0529 H   0  0  0  0  0  0
  -30.6667  -16.8855   15.3228 H   0  0  0  0  0  0
  -31.9363  -17.8261   16.1019 H   0  0  0  0  0  0
  -28.4009  -18.9267   15.7441 H   0  0  0  0  0  0
  -27.8553  -18.5397   17.3614 H   0  0  0  0  0  0
  -28.1227  -17.2485   16.1907 H   0  0  0  0  0  0
  -26.8265  -24.4198   20.5029 H   0  0  0  0  0  0
  -27.4987  -24.5328   18.9050 H   0  0  0  0  0  0
  -29.8748  -16.0339   17.6631 H   0  0  0  0  0  0
  -31.2408  -16.9165   18.2814 H   0  0  0  0  0  0
  -30.2578  -19.0462   17.4443 H   0  0  0  0  0  0
  1 25  1  0  0  0
  1 30  2  0  0  0
  1 86  1  0  0  0
  2  3  1  0  0  0
  2 25  1  0  0  0
  2 87  1  0  0  0
  2 88  1  0  0  0
  3  4  1  0  0  0
  3 89  1  0  0  0
  3 90  1  0  0  0
  4  5  1  0  0  0
  4 91  1  0  0  0
  4 92  1  0  0  0
  5  6  1  0  0  0
  5 26  1  0  0  0
  5 93  1  0  0  0
  6 25  1  0  0  0
  6 94  1  0  0  0
  6 95  1  0  0  0
  7  8  2  0  0  0
  7 26  1  0  0  0
  7 29  1  0  0  0
  8  9  1  0  0  0
  8 22  1  0  0  0
  9 10  1  0  0  0
  9 27  2  0  0  0
 10 11  2  0  0  0
 10 15  1  0  0  0
 11 12  1  0  0  0
 11 96  1  0  0  0
 12 13  2  0  0  0
 12 97  1  0  0  0
 13 14  1  0  0  0
 13 31  1  0  0  0
 14 15  2  0  0  0
 14 98  1  0  0  0
 15 99  1  0  0  0
 16 17  2  0  0  0
 16 21  1  0  0  0
 16 31  1  0  0  0
 17 18  1  0  0  0
 17100  1  0  0  0
 18 19  2  0  0  0
 18101  1  0  0  0
 19 20  1  0  0  0
 19 24  1  0  0  0
 20 21  2  0  0  0
 20102  1  0  0  0
 21 23  1  0  0  0
 22 28  1  0  0  0
 22 32  2  0  0  0
 26 27  1  0  0  0
 28103  1  0  0  0
 28104  1  0  0  0
 29105  1  0  0  0
 29106  1  0  0  0
 33 34  1  0  0  0
 33 66  1  0  0  0
 33 70  2  0  0  0
 34 36  1  0  0  0
 34 59  1  0  0  0
 34107  1  0  0  0
 35 44  2  0  0  0
 35 45  1  0  0  0
 35 68  1  0  0  0
 36 56  1  0  0  0
 36108  1  0  0  0
 37 39  1  0  0  0
 37 47  1  0  0  0
 37 66  1  0  0  0
 37109  1  0  0  0
 38 43  2  0  0  0
 38 46  1  0  0  0
 38 47  1  0  0  0
 39 64  1  0  0  0
 39 67  2  0  0  0
 40 52  1  0  0  0
 40 53  2  0  0  0
 40 58  1  0  0  0
 41110  1  0  0  0
 41111  1  0  0  0
 41112  1  0  0  0
 41 48  1  0  0  0
 42 43  1  0  0  0
 42 66  1  0  0  0
 42113  1  0  0  0
 42114  1  0  0  0
 43 44  1  0  0  0
 44115  1  0  0  0
 45 46  2  0  0  0
 45116  1  0  0  0
 46117  1  0  0  0
 47118  1  0  0  0
 47119  1  0  0  0
 48 56  1  0  0  0
 48 65  1  0  0  0
 48120  1  0  0  0
 49 50  1  0  0  0
 49 53  1  0  0  0
 49 64  1  0  0  0
 49121  1  0  0  0
 50 51  1  0  0  0
 50122  1  0  0  0
 50123  1  0  0  0
 51 52  1  0  0  0
 51124  1  0  0  0
 51125  1  0  0  0
 52126  1  0  0  0
 52127  1  0  0  0
 53 54  1  0  0  0
 54 55  2  0  0  0
 54128  1  0  0  0
 55 57  1  0  0  0
 55129  1  0  0  0
 56 69  2  0  0  0
 57 58  2  0  0  0
 57130  1  0  0  0
 58131  1  0  0  0
 59 60  1  0  0  0
 59 61  1  0  0  0
 59 62  1  0  0  0
 60132  1  0  0  0
 60133  1  0  0  0
 60134  1  0  0  0
 61135  1  0  0  0
 61136  1  0  0  0
 61137  1  0  0  0
 62138  1  0  0  0
 62139  1  0  0  0
 62140  1  0  0  0
 63 65  1  0  0  0
 63141  1  0  0  0
 63142  1  0  0  0
 63143  1  0  0  0
 64144  1  0  0  0
 65145  1  0  0  0
 68 82  1  0  0  0
 71 73  2  0  0  0
 71 74  1  0  0  0
 71146  1  0  0  0
 72 73  1  0  0  0
 72 85  2  0  0  0
 72147  1  0  0  0
 73 82  1  0  0  0
 74 75  2  0  0  0
 74 79  1  0  0  0
 75 85  1  0  0  0
 75 77  1  0  0  0
 76 77  1  0  0  0
 76 86  1  0  0  0
 76148  1  0  0  0
 76149  1  0  0  0
 77 78  1  0  0  0
 77150  1  0  0  0
 78 83  1  0  0  0
 78 86  1  0  0  0
 78151  1  0  0  0
 79152  1  0  0  0
 79153  1  0  0  0
 79154  1  0  0  0
 80155  1  0  0  0
 80156  1  0  0  0
 80157  1  0  0  0
 80 84  1  0  0  0
 81 84  1  0  0  0
 81158  1  0  0  0
 81159  1  0  0  0
 81160  1  0  0  0
 82161  1  0  0  0
 82162  1  0  0  0
 83 84  1  0  0  0
 83163  1  0  0  0
 83164  1  0  0  0
 84165  1  0  0  0
M  ISO  4   1 100  68 101  82 101  86 100
M  END
> <chiral flag>
0

> <version>
0

> <s_m_source_file>
/data/baiqing/PycharmProjects/Reinvent-master-3.2/result/LINK_invent/BTK/process_docking_weight1_custom_sum_contain_oxygen_bond_distance_aromatic_linkinvent_7_9_3/rearranged_h_0143.sdf

> <i_m_source_file_index>
56

> <r_mmod_Potential_Energy-OPLS-2005>
631.709533691406

> <r_mmod_Stretch_Energy-OPLS-2005>
261.012237548828

> <r_mmod_Bend_Energy-OPLS-2005>
314.969696044922

> <r_mmod_Torsional_Energy-OPLS-2005>
305.762634277344

> <r_mmod_Improper_Torsional_Energy-OPLS-2005>
11.9753789901733

> <r_mmod_Van_der_Waal_Energy-OPLS-2005>
124.523330688477

> <r_mmod_Electrostatic_Energy-OPLS-2005>
-417.850311279297

> <r_mmod_Solvation_Energy-OPLS-2005>
-202.780426025391

> <b_mmod_Minimization_Converged-OPLS-2005>
0

> <r_mmod_RMS_Derivative-OPLS-2005>
1.08978033065796

$$$$
56
                    3D
 Structure written by MMmdl.
179188  0  0  1  0            999 V2000
  -30.6556  -14.6354   20.5011 C   0  0  0  0  0  0
  -30.4251  -12.3987   19.4431 C   0  0  0  0  0  0
  -29.4979  -12.5123   18.2148 C   0  0  0  0  0  0
  -28.0219  -12.3587   18.6304 C   0  0  0  0  0  0
  -27.6474  -13.2289   19.8626 C   0  0  2  0  0  0
  -28.6951  -13.1035   20.9901 C   0  0  0  0  0  0
  -25.2529  -13.8183   20.5756 C   0  0  0  0  0  0
  -24.1818  -13.0434   20.9248 C   0  0  0  0  0  0
  -24.6397  -11.6909   20.8769 C   0  0  0  0  0  0
  -23.9055  -10.4289   21.0378 C   0  0  0  0  0  0
  -24.3606   -9.4199   21.9150 C   0  0  0  0  0  0
  -23.6276   -8.2230   22.0733 C   0  0  0  0  0  0
  -22.4256   -8.0271   21.3545 C   0  0  0  0  0  0
  -21.9899   -9.0228   20.4642 C   0  0  0  0  0  0
  -22.7230  -10.2101   20.3027 C   0  0  0  0  0  0
  -21.6834   -6.0734   22.5261 C   0  0  0  0  0  0
  -21.4033   -6.5632   23.8206 C   0  0  0  0  0  0
  -21.3664   -5.6778   24.9155 C   0  0  0  0  0  0
  -21.6036   -4.3040   24.7209 C   0  0  0  0  0  0
  -21.8826   -3.8146   23.4329 C   0  0  0  0  0  0
  -21.9194   -4.6966   22.3397 C   0  0  0  0  0  0
  -22.7842  -13.5216   21.1878 C   0  0  0  0  0  0
  -22.1649   -4.2173   21.0969 F   0  0  0  0  0  0
  -21.5617   -3.4528   25.7717 F   0  0  0  0  0  0
  -30.0055  -13.4324   20.4105 N   0  0  0  0  0  0
  -26.2975  -12.9381   20.3349 N   0  0  0  0  0  0
  -25.9321  -11.6529   20.5778 N   0  0  0  0  0  0
  -22.0483  -12.8195   22.0436 N   0  0  0  0  0  0
  -25.4173  -15.1908   20.4217 N   0  0  0  0  0  0
  -31.8296  -14.7558   20.1521 O   0  0  0  0  0  0
  -21.6610   -6.8872   21.4230 O   0  0  0  0  0  0
  -22.3505  -14.5508   20.6707 O   0  0  0  0  0  0
  -24.6227  -31.8616   23.2021 C   0  0  0  0  0  0
  -25.9088  -32.4791   23.8359 C   0  0  1  0  0  0
  -27.2311  -27.3433   20.1003 C   0  0  0  0  0  0
  -25.5924  -33.8600   24.2273 N   0  0  0  0  0  0
  -23.4144  -30.4859   21.5427 C   0  0  2  0  0  0
  -24.8593  -28.9397   20.1103 C   0  0  0  0  0  0
  -22.7443  -29.4649   22.4940 C   0  0  0  0  0  0
  -18.0262  -28.1371   22.8478 C   0  0  0  0  0  0
  -24.1488  -36.7283   23.2653 C   0  0  0  0  0  0
  -25.9533  -30.7976   21.3708 C   0  0  0  0  0  0
  -26.0236  -29.4271   20.7133 C   0  0  0  0  0  0
  -27.2050  -28.6354   20.7066 C   0  0  0  0  0  0
  -26.0320  -26.8888   19.5049 C   0  0  0  0  0  0
  -24.8629  -27.6728   19.5056 C   0  0  0  0  0  0
  -23.6256  -29.8161   20.1584 C   0  0  0  0  0  0
  -25.4118  -36.3084   24.0330 C   0  0  1  0  0  0
  -20.5869  -28.3661   23.1288 C   0  0  2  0  0  0
  -20.6764  -26.9384   22.5401 C   0  0  0  0  0  0
  -19.5768  -26.6360   21.5194 C   0  0  0  0  0  0
  -18.1935  -26.7922   22.1583 C   0  0  0  0  0  0
  -19.1528  -28.8826   23.2895 C   0  0  0  0  0  0
  -18.9465  -30.1432   23.8915 C   0  0  0  0  0  0
  -17.6479  -30.6584   24.0555 C   0  0  0  0  0  0
  -25.9059  -34.9462   23.5096 C   0  0  0  0  0  0
  -16.5355  -29.9089   23.6325 C   0  0  0  0  0  0
  -16.7260  -28.6497   23.0349 C   0  0  0  0  0  0
  -26.4470  -31.6620   25.0734 C   0  0  0  0  0  0
  -25.3701  -31.3749   26.1463 C   0  0  0  0  0  0
  -27.0317  -30.3062   24.6167 C   0  0  0  0  0  0
  -27.6050  -32.4336   25.7481 C   0  0  0  0  0  0
  -27.5578  -37.1798   24.8468 C   0  0  0  0  0  0
  -21.4162  -29.3044   22.3698 N   0  0  0  0  0  0
  -26.4294  -37.3779   23.9416 N   0  0  0  0  0  0
  -24.6815  -31.0672   22.0939 N   0  0  0  0  0  0
  -23.4195  -28.8221   23.3027 O   0  0  0  0  0  0
  -28.3949  -26.5661   20.1421 O   0  0  0  0  0  0
  -26.5628  -34.8924   22.4660 O   0  0  0  0  0  0
  -23.5391  -32.1403   23.7368 O   0  0  0  0  0  0
  -33.2603  -20.2840   19.4346 C   0  0  0  0  0  0
  -31.5269  -21.8889   19.8885 C   0  0  0  0  0  0
  -30.9326  -19.4807   19.7848 C   0  0  0  0  0  0
  -32.8738  -21.6074   19.6439 C   0  0  0  0  0  0
  -32.3242  -19.2355   19.5048 C   0  0  0  0  0  0
  -30.5264  -20.8836   19.9188 C   0  0  0  0  0  0
  -28.4852  -18.4234   19.6758 C   0  0  0  0  0  0
  -29.7201  -17.7100   22.3537 C   0  0  0  0  0  0
  -30.0077  -18.1953   19.8433 C   0  0  2  0  0  0
  -27.6479  -18.1507   20.9455 C   0  0  1  0  0  0
  -28.4303  -18.5608   22.2124 C   0  0  1  0  0  0
  -30.3166  -17.1700   21.0247 C   0  0  2  0  0  0
  -33.8985  -22.7211   19.5826 C   0  0  0  0  0  0
  -32.9276  -17.8540   19.2494 C   0  0  0  0  0  0
  -26.2559  -18.7871   20.8162 C   0  0  0  0  0  0
  -27.5907  -18.4767   23.5016 C   0  0  0  0  0  0
  -28.6819  -23.9482   20.2946 C   0  0  0  0  0  0
  -28.5298  -25.2778   19.4453 C   0  0  0  0  0  0
  -28.8355  -22.6243   19.4373 C   0  0  0  0  0  0
  -29.8993  -15.7308   20.8232 N   0  0  0  0  0  0
  -29.2204  -21.3558   20.0847 O   0  0  0  0  0  0
  -31.4675  -12.5159   19.1394 H   0  0  0  0  0  0
  -30.3552  -11.4068   19.8945 H   0  0  0  0  0  0
  -29.7554  -11.7459   17.4831 H   0  0  0  0  0  0
  -29.6506  -13.4724   17.7181 H   0  0  0  0  0  0
  -27.8598  -11.3053   18.8570 H   0  0  0  0  0  0
  -27.3602  -12.5878   17.7955 H   0  0  0  0  0  0
  -27.6559  -14.2650   19.5225 H   0  0  0  0  0  0
  -28.7120  -12.0916   21.3964 H   0  0  0  0  0  0
  -28.4497  -13.7608   21.8243 H   0  0  0  0  0  0
  -25.2749   -9.5651   22.4743 H   0  0  0  0  0  0
  -23.9991   -7.4600   22.7427 H   0  0  0  0  0  0
  -21.0840   -8.8717   19.8940 H   0  0  0  0  0  0
  -22.3680  -10.9618   19.6129 H   0  0  0  0  0  0
  -21.2049   -7.6145   23.9736 H   0  0  0  0  0  0
  -21.1467   -6.0489   25.9059 H   0  0  0  0  0  0
  -22.0619   -2.7623   23.2792 H   0  0  0  0  0  0
  -22.4108  -11.9883   22.4870 H   0  0  0  0  0  0
  -21.1085  -13.1180   22.2616 H   0  0  0  0  0  0
  -24.6505  -15.8391   20.5628 H   0  0  0  0  0  0
  -26.2591  -15.6430   20.0923 H   0  0  0  0  0  0
  -26.7154  -32.5455   23.1113 H   0  0  0  0  0  0
  -25.0085  -33.9762   25.0423 H   0  0  0  0  0  0
  -22.7074  -31.3052   21.3953 H   0  0  0  0  0  0
  -23.3770  -35.9599   23.3299 H   0  0  0  0  0  0
  -24.3595  -36.8910   22.2071 H   0  0  0  0  0  0
  -23.7200  -37.6461   23.6683 H   0  0  0  0  0  0
  -26.0880  -31.5622   20.6060 H   0  0  0  0  0  0
  -26.8322  -30.8414   22.0011 H   0  0  0  0  0  0
  -28.0978  -29.0065   21.1889 H   0  0  0  0  0  0
  -25.9514  -25.9132   19.0519 H   0  0  0  0  0  0
  -23.9641  -27.2827   19.0510 H   0  0  0  0  0  0
  -23.7371  -30.5885   19.3950 H   0  0  0  0  0  0
  -22.7463  -29.2398   19.8635 H   0  0  0  0  0  0
  -25.1295  -36.1937   25.0823 H   0  0  0  0  0  0
  -20.9954  -28.3201   24.1415 H   0  0  0  0  0  0
  -20.5621  -26.2277   23.3595 H   0  0  0  0  0  0
  -21.6648  -26.7398   22.1237 H   0  0  0  0  0  0
  -19.6949  -25.6269   21.1244 H   0  0  0  0  0  0
  -19.6735  -27.3158   20.6732 H   0  0  0  0  0  0
  -17.4205  -26.6657   21.3975 H   0  0  0  0  0  0
  -18.0325  -26.0054   22.8967 H   0  0  0  0  0  0
  -19.7964  -30.7221   24.2295 H   0  0  0  0  0  0
  -17.5048  -31.6283   24.5135 H   0  0  0  0  0  0
  -15.5371  -30.3001   23.7678 H   0  0  0  0  0  0
  -15.8642  -28.0833   22.7075 H   0  0  0  0  0  0
  -24.5902  -30.7058   25.7793 H   0  0  0  0  0  0
  -24.8863  -32.2899   26.4885 H   0  0  0  0  0  0
  -25.8031  -30.8937   27.0243 H   0  0  0  0  0  0
  -26.2881  -29.6816   24.1201 H   0  0  0  0  0  0
  -27.4050  -29.7323   25.4660 H   0  0  0  0  0  0
  -27.8729  -30.4394   23.9369 H   0  0  0  0  0  0
  -27.2713  -33.3662   26.2056 H   0  0  0  0  0  0
  -28.3862  -32.6854   25.0289 H   0  0  0  0  0  0
  -28.0727  -31.8457   26.5389 H   0  0  0  0  0  0
  -28.2598  -38.0096   24.7517 H   0  0  0  0  0  0
  -28.1064  -36.2624   24.6273 H   0  0  0  0  0  0
  -27.2318  -37.1418   25.8881 H   0  0  0  0  0  0
  -20.9306  -29.8794   21.6946 H   0  0  0  0  0  0
  -26.0168  -38.2857   24.1413 H   0  0  0  0  0  0
  -34.3000  -20.0711   19.2249 H   0  0  0  0  0  0
  -31.2699  -22.9252   20.0444 H   0  0  0  0  0  0
  -28.1294  -17.7302   18.9117 H   0  0  0  0  0  0
  -28.2706  -19.3969   19.2443 H   0  0  0  0  0  0
  -29.5522  -16.8781   23.0385 H   0  0  0  0  0  0
  -30.4646  -18.3351   22.8505 H   0  0  0  0  0  0
  -30.2530  -17.6881   18.9139 H   0  0  0  0  0  0
  -27.4895  -17.0752   21.0108 H   0  0  0  0  0  0
  -28.7223  -19.6050   22.0944 H   0  0  0  0  0  0
  -31.3880  -17.1262   21.1882 H   0  0  0  0  0  0
  -34.8665  -22.3788   19.9470 H   0  0  0  0  0  0
  -33.5977  -23.5739   20.1909 H   0  0  0  0  0  0
  -34.0262  -23.0634   18.5556 H   0  0  0  0  0  0
  -33.7687  -17.9280   18.5584 H   0  0  0  0  0  0
  -32.2531  -17.1222   18.8100 H   0  0  0  0  0  0
  -33.3333  -17.4403   20.1734 H   0  0  0  0  0  0
  -26.2977  -19.8751   20.8796 H   0  0  0  0  0  0
  -25.5815  -18.4270   21.5934 H   0  0  0  0  0  0
  -25.7959  -18.5254   19.8621 H   0  0  0  0  0  0
  -27.1326  -17.4925   23.6137 H   0  0  0  0  0  0
  -26.7907  -19.2185   23.5133 H   0  0  0  0  0  0
  -28.2035  -18.6603   24.3848 H   0  0  0  0  0  0
  -27.8140  -23.8413   20.9457 H   0  0  0  0  0  0
  -29.5397  -24.0524   20.9575 H   0  0  0  0  0  0
  -27.7892  -25.1308   18.6644 H   0  0  0  0  0  0
  -29.4575  -25.3771   18.8844 H   0  0  0  0  0  0
  -29.4867  -22.8274   18.5863 H   0  0  0  0  0  0
  -27.8688  -22.4327   18.9705 H   0  0  0  0  0  0
  -28.9330  -15.5272   21.0246 H   0  0  0  0  0  0
  1 25  1  0  0  0
  1 30  2  0  0  0
  1 90  1  0  0  0
  2  3  1  0  0  0
  2 25  1  0  0  0
  2 92  1  0  0  0
  2 93  1  0  0  0
  3  4  1  0  0  0
  3 94  1  0  0  0
  3 95  1  0  0  0
  4  5  1  0  0  0
  4 96  1  0  0  0
  4 97  1  0  0  0
  5  6  1  0  0  0
  5 26  1  0  0  0
  5 98  1  0  0  0
  6 25  1  0  0  0
  6 99  1  0  0  0
  6100  1  0  0  0
  7  8  2  0  0  0
  7 26  1  0  0  0
  7 29  1  0  0  0
  8  9  1  0  0  0
  8 22  1  0  0  0
  9 10  1  0  0  0
  9 27  2  0  0  0
 10 11  2  0  0  0
 10 15  1  0  0  0
 11 12  1  0  0  0
 11101  1  0  0  0
 12 13  2  0  0  0
 12102  1  0  0  0
 13 14  1  0  0  0
 13 31  1  0  0  0
 14 15  2  0  0  0
 14103  1  0  0  0
 15104  1  0  0  0
 16 17  2  0  0  0
 16 21  1  0  0  0
 16 31  1  0  0  0
 17 18  1  0  0  0
 17105  1  0  0  0
 18 19  2  0  0  0
 18106  1  0  0  0
 19 20  1  0  0  0
 19 24  1  0  0  0
 20 21  2  0  0  0
 20107  1  0  0  0
 21 23  1  0  0  0
 22 28  1  0  0  0
 22 32  2  0  0  0
 26 27  1  0  0  0
 28108  1  0  0  0
 28109  1  0  0  0
 29110  1  0  0  0
 29111  1  0  0  0
 33 34  1  0  0  0
 33 66  1  0  0  0
 33 70  2  0  0  0
 34 36  1  0  0  0
 34 59  1  0  0  0
 34112  1  0  0  0
 35 44  2  0  0  0
 35 45  1  0  0  0
 35 68  1  0  0  0
 36 56  1  0  0  0
 36113  1  0  0  0
 37 39  1  0  0  0
 37 47  1  0  0  0
 37 66  1  0  0  0
 37114  1  0  0  0
 38 43  2  0  0  0
 38 46  1  0  0  0
 38 47  1  0  0  0
 39 64  1  0  0  0
 39 67  2  0  0  0
 40 52  1  0  0  0
 40 53  2  0  0  0
 40 58  1  0  0  0
 41115  1  0  0  0
 41116  1  0  0  0
 41117  1  0  0  0
 41 48  1  0  0  0
 42 43  1  0  0  0
 42 66  1  0  0  0
 42118  1  0  0  0
 42119  1  0  0  0
 43 44  1  0  0  0
 44120  1  0  0  0
 45 46  2  0  0  0
 45121  1  0  0  0
 46122  1  0  0  0
 47123  1  0  0  0
 47124  1  0  0  0
 48 56  1  0  0  0
 48 65  1  0  0  0
 48125  1  0  0  0
 49 50  1  0  0  0
 49 53  1  0  0  0
 49 64  1  0  0  0
 49126  1  0  0  0
 50 51  1  0  0  0
 50127  1  0  0  0
 50128  1  0  0  0
 51 52  1  0  0  0
 51129  1  0  0  0
 51130  1  0  0  0
 52131  1  0  0  0
 52132  1  0  0  0
 53 54  1  0  0  0
 54 55  2  0  0  0
 54133  1  0  0  0
 55 57  1  0  0  0
 55134  1  0  0  0
 56 69  2  0  0  0
 57 58  2  0  0  0
 57135  1  0  0  0
 58136  1  0  0  0
 59 60  1  0  0  0
 59 61  1  0  0  0
 59 62  1  0  0  0
 60137  1  0  0  0
 60138  1  0  0  0
 60139  1  0  0  0
 61140  1  0  0  0
 61141  1  0  0  0
 61142  1  0  0  0
 62143  1  0  0  0
 62144  1  0  0  0
 62145  1  0  0  0
 63 65  1  0  0  0
 63146  1  0  0  0
 63147  1  0  0  0
 63148  1  0  0  0
 64149  1  0  0  0
 65150  1  0  0  0
 68 88  1  0  0  0
 71 74  2  0  0  0
 71 75  1  0  0  0
 71151  1  0  0  0
 72 74  1  0  0  0
 72 76  2  0  0  0
 72152  1  0  0  0
 73 75  2  0  0  0
 73 76  1  0  0  0
 73 79  1  0  0  0
 74 83  1  0  0  0
 75 84  1  0  0  0
 76 91  1  0  0  0
 77 79  1  0  0  0
 77 80  1  0  0  0
 77153  1  0  0  0
 77154  1  0  0  0
 78 81  1  0  0  0
 78 82  1  0  0  0
 78155  1  0  0  0
 78156  1  0  0  0
 79 82  1  0  0  0
 79157  1  0  0  0
 80 81  1  0  0  0
 80 85  1  0  0  0
 80158  1  0  0  0
 81 86  1  0  0  0
 81159  1  0  0  0
 82 90  1  0  0  0
 82160  1  0  0  0
 83161  1  0  0  0
 83162  1  0  0  0
 83163  1  0  0  0
 84164  1  0  0  0
 84165  1  0  0  0
 84166  1  0  0  0
 85167  1  0  0  0
 85168  1  0  0  0
 85169  1  0  0  0
 86170  1  0  0  0
 86171  1  0  0  0
 86172  1  0  0  0
 87 88  1  0  0  0
 87 89  1  0  0  0
 87173  1  0  0  0
 87174  1  0  0  0
 88175  1  0  0  0
 88176  1  0  0  0
 89 91  1  0  0  0
 89177  1  0  0  0
 89178  1  0  0  0
 90179  1  0  0  0
M  ISO  4   1 100  68 101  88 101  90 100
M  END
> <chiral flag>
0

> <version>
0

> <s_m_source_file>
/data/baiqing/PycharmProjects/Reinvent-master-3.2/result/LINK_invent/BTK/process_docking_weight1_custom_sum_contain_oxygen_bond_distance_aromatic_linkinvent_7_9_3/rearranged_h_0143.sdf

> <i_m_source_file_index>
57

> <r_mmod_Potential_Energy-OPLS-2005>
127.856292724609

> <r_mmod_Stretch_Energy-OPLS-2005>
91.8233489990234

> <r_mmod_Bend_Energy-OPLS-2005>
179.659439086914

> <r_mmod_Torsional_Energy-OPLS-2005>
257.606872558594

> <r_mmod_Improper_Torsional_Energy-OPLS-2005>
3.84673547744751

> <r_mmod_Van_der_Waal_Energy-OPLS-2005>
156.115570068359

> <r_mmod_Electrostatic_Energy-OPLS-2005>
-410.5732421875

> <r_mmod_Solvation_Energy-OPLS-2005>
-192.392700195312

> <b_mmod_Minimization_Converged-OPLS-2005>
0

> <r_mmod_RMS_Derivative-OPLS-2005>
4.21837186813354

$$$$
57
                    3D
 Structure written by MMmdl.
168178  0  0  1  0            999 V2000
  -30.6793  -14.5429   20.4498 C   0  0  0  0  0  0
  -30.4239  -12.3213   19.4300 C   0  0  0  0  0  0
  -29.4931  -12.4612   18.2069 C   0  0  0  0  0  0
  -28.0134  -12.3326   18.6245 C   0  0  0  0  0  0
  -27.6488  -13.1971   19.8613 C   0  0  2  0  0  0
  -28.7044  -13.0680   20.9821 C   0  0  0  0  0  0
  -25.2578  -13.8120   20.5719 C   0  0  0  0  0  0
  -24.1823  -13.0416   20.9213 C   0  0  0  0  0  0
  -24.6369  -11.6880   20.8778 C   0  0  0  0  0  0
  -23.9037  -10.4273   21.0417 C   0  0  0  0  0  0
  -24.3598   -9.4189   21.9187 C   0  0  0  0  0  0
  -23.6287   -8.2217   22.0750 C   0  0  0  0  0  0
  -22.4270   -8.0258   21.3539 C   0  0  0  0  0  0
  -21.9898   -9.0229   20.4643 C   0  0  0  0  0  0
  -22.7218  -10.2113   20.3055 C   0  0  0  0  0  0
  -21.6844   -6.0729   22.5281 C   0  0  0  0  0  0
  -21.4004   -6.5639   23.8214 C   0  0  0  0  0  0
  -21.3660   -5.6793   24.9177 C   0  0  0  0  0  0
  -21.6046   -4.3057   24.7224 C   0  0  0  0  0  0
  -21.8821   -3.8146   23.4346 C   0  0  0  0  0  0
  -21.9193   -4.6961   22.3401 C   0  0  0  0  0  0
  -22.7853  -13.5234   21.1853 C   0  0  0  0  0  0
  -22.1661   -4.2150   21.0978 F   0  0  0  0  0  0
  -21.5635   -3.4540   25.7735 F   0  0  0  0  0  0
  -30.0205  -13.3526   20.3947 N   0  0  0  0  0  0
  -26.2977  -12.9253   20.3372 N   0  0  0  0  0  0
  -25.9291  -11.6436   20.5822 N   0  0  0  0  0  0
  -22.0473  -12.8239   22.0403 N   0  0  0  0  0  0
  -25.4343  -15.1839   20.4139 N   0  0  0  0  0  0
  -31.8868  -14.6476   20.2240 O   0  0  0  0  0  0
  -21.6629   -6.8864   21.4243 O   0  0  0  0  0  0
  -22.3558  -14.5543   20.6689 O   0  0  0  0  0  0
  -24.6158  -31.8662   23.2072 C   0  0  0  0  0  0
  -25.9043  -32.4811   23.8384 C   0  0  1  0  0  0
  -27.2422  -27.4190   20.0912 C   0  0  0  0  0  0
  -25.5892  -33.8608   24.2316 N   0  0  0  0  0  0
  -23.4051  -30.4876   21.5477 C   0  0  2  0  0  0
  -24.8514  -28.9473   20.1124 C   0  0  0  0  0  0
  -22.7420  -29.4647   22.4983 C   0  0  0  0  0  0
  -18.0272  -28.1380   22.8497 C   0  0  0  0  0  0
  -24.1482  -36.7309   23.2640 C   0  0  0  0  0  0
  -25.9346  -30.8253   21.3624 C   0  0  0  0  0  0
  -26.0100  -29.4582   20.7087 C   0  0  0  0  0  0
  -27.2035  -28.7000   20.6957 C   0  0  0  0  0  0
  -26.0595  -26.9200   19.4990 C   0  0  0  0  0  0
  -24.8713  -27.6785   19.5051 C   0  0  0  0  0  0
  -23.6133  -29.8154   20.1632 C   0  0  0  0  0  0
  -25.4104  -36.3108   24.0342 C   0  0  1  0  0  0
  -20.5866  -28.3666   23.1322 C   0  0  2  0  0  0
  -20.6759  -26.9404   22.5421 C   0  0  0  0  0  0
  -19.5739  -26.6388   21.5217 C   0  0  0  0  0  0
  -18.1918  -26.7928   22.1628 C   0  0  0  0  0  0
  -19.1525  -28.8838   23.2906 C   0  0  0  0  0  0
  -18.9448  -30.1446   23.8914 C   0  0  0  0  0  0
  -17.6453  -30.6585   24.0566 C   0  0  0  0  0  0
  -25.9032  -34.9473   23.5132 C   0  0  0  0  0  0
  -16.5344  -29.9090   23.6327 C   0  0  0  0  0  0
  -16.7263  -28.6505   23.0352 C   0  0  0  0  0  0
  -26.4466  -31.6600   25.0723 C   0  0  0  0  0  0
  -25.3726  -31.3704   26.1467 C   0  0  0  0  0  0
  -27.0303  -30.3045   24.6106 C   0  0  0  0  0  0
  -27.6042  -32.4322   25.7479 C   0  0  0  0  0  0
  -27.5587  -37.1804   24.8461 C   0  0  0  0  0  0
  -21.4143  -29.3027   22.3721 N   0  0  0  0  0  0
  -26.4287  -37.3797   23.9421 N   0  0  0  0  0  0
  -24.6703  -31.0744   22.0975 N   0  0  0  0  0  0
  -23.4185  -28.8194   23.3033 O   0  0  0  0  0  0
  -28.4254  -26.6999   20.1456 O   0  0  0  0  0  0
  -26.5600  -34.8929   22.4696 O   0  0  0  0  0  0
  -23.5345  -32.1416   23.7462 O   0  0  0  0  0  0
  -30.0263  -22.2730   15.9460 C   0  0  0  0  0  0
  -29.5366  -23.4266   15.3143 C   0  0  0  0  0  0
  -30.0139  -22.1806   17.3496 C   0  0  0  0  0  0
  -29.0563  -24.4915   16.0962 C   0  0  0  0  0  0
  -29.5035  -23.2384   18.1455 C   0  0  0  0  0  0
  -29.4675  -23.1604   19.5674 C   0  0  0  0  0  0
  -29.0043  -24.3193   20.2635 C   0  0  0  0  0  0
  -29.0442  -24.4263   17.5037 C   0  0  0  0  0  0
  -28.6305  -25.4763   19.5277 C   0  0  0  0  0  0
  -29.8298  -17.6752   18.9936 C   0  0  0  0  0  0
  -29.6176  -16.1581   18.9949 C   0  0  0  0  0  0
  -30.0991  -16.8557   21.1950 C   0  0  0  0  0  0
  -29.4908  -18.0591   20.4238 C   0  0  1  0  0  0
  -28.9593  -24.3651   21.7847 C   0  0  0  0  0  0
  -30.0418  -21.9222   20.3122 C   0  0  0  0  0  0
  -29.2385  -20.5843   20.2196 C   0  0  0  0  0  0
  -28.6316  -25.5117   18.1851 N   0  0  0  0  0  0
  -29.8877  -15.6505   20.3585 N   0  0  0  0  0  0
  -29.9566  -19.4202   20.8352 N   0  3  0  0  0  0
  -31.4678  -12.4206   19.1248 H   0  0  0  0  0  0
  -30.3330  -11.3298   19.8754 H   0  0  0  0  0  0
  -29.7356  -11.6981   17.4661 H   0  0  0  0  0  0
  -29.6577  -13.4215   17.7175 H   0  0  0  0  0  0
  -27.8254  -11.2815   18.8426 H   0  0  0  0  0  0
  -27.3637  -12.5856   17.7864 H   0  0  0  0  0  0
  -27.6504  -14.2245   19.5188 H   0  0  0  0  0  0
  -28.6944  -12.0661   21.4129 H   0  0  0  0  0  0
  -28.4840  -13.7581   21.7982 H   0  0  0  0  0  0
  -25.2736   -9.5682   22.4770 H   0  0  0  0  0  0
  -24.0006   -7.4607   22.7466 H   0  0  0  0  0  0
  -21.0830   -8.8741   19.8945 H   0  0  0  0  0  0
  -22.3670  -10.9653   19.6168 H   0  0  0  0  0  0
  -21.1983   -7.6146   23.9721 H   0  0  0  0  0  0
  -21.1489   -6.0518   25.9086 H   0  0  0  0  0  0
  -22.0601   -2.7611   23.2839 H   0  0  0  0  0  0
  -22.4069  -11.9899   22.4805 H   0  0  0  0  0  0
  -21.1077  -13.1266   22.2560 H   0  0  0  0  0  0
  -24.6737  -15.8450   20.5266 H   0  0  0  0  0  0
  -26.2989  -15.6198   20.1208 H   0  0  0  0  0  0
  -26.7115  -32.5517   23.1149 H   0  0  0  0  0  0
  -25.0039  -33.9764   25.0459 H   0  0  0  0  0  0
  -22.6950  -31.3050   21.4064 H   0  0  0  0  0  0
  -23.3754  -35.9633   23.3289 H   0  0  0  0  0  0
  -24.3581  -36.8933   22.2058 H   0  0  0  0  0  0
  -23.7213  -37.6504   23.6655 H   0  0  0  0  0  0
  -26.0501  -31.5902   20.5930 H   0  0  0  0  0  0
  -26.8217  -30.8768   21.9828 H   0  0  0  0  0  0
  -28.0988  -29.0901   21.1601 H   0  0  0  0  0  0
  -26.0435  -25.9441   19.0349 H   0  0  0  0  0  0
  -23.9781  -27.2784   19.0450 H   0  0  0  0  0  0
  -23.7200  -30.5878   19.4008 H   0  0  0  0  0  0
  -22.7374  -29.2334   19.8710 H   0  0  0  0  0  0
  -25.1277  -36.1974   25.0833 H   0  0  0  0  0  0
  -20.9964  -28.3226   24.1442 H   0  0  0  0  0  0
  -20.5664  -26.2276   23.3604 H   0  0  0  0  0  0
  -21.6624  -26.7441   22.1207 H   0  0  0  0  0  0
  -19.6895  -25.6303   21.1233 H   0  0  0  0  0  0
  -19.6681  -27.3209   20.6754 H   0  0  0  0  0  0
  -17.4194  -26.6692   21.4023 H   0  0  0  0  0  0
  -18.0311  -26.0062   22.9013 H   0  0  0  0  0  0
  -19.7922  -30.7251   24.2298 H   0  0  0  0  0  0
  -17.5007  -31.6267   24.5166 H   0  0  0  0  0  0
  -15.5344  -30.2995   23.7634 H   0  0  0  0  0  0
  -15.8664  -28.0825   22.7058 H   0  0  0  0  0  0
  -24.5888  -30.7069   25.7795 H   0  0  0  0  0  0
  -24.8929  -32.2856   26.4941 H   0  0  0  0  0  0
  -25.8070  -30.8844   27.0211 H   0  0  0  0  0  0
  -26.2855  -29.6804   24.1155 H   0  0  0  0  0  0
  -27.4069  -29.7281   25.4565 H   0  0  0  0  0  0
  -27.8687  -30.4369   23.9264 H   0  0  0  0  0  0
  -27.2667  -33.3613   26.2081 H   0  0  0  0  0  0
  -28.3832  -32.6896   25.0292 H   0  0  0  0  0  0
  -28.0734  -31.8435   26.5370 H   0  0  0  0  0  0
  -28.2583  -38.0125   24.7544 H   0  0  0  0  0  0
  -28.1101  -36.2654   24.6230 H   0  0  0  0  0  0
  -27.2313  -37.1383   25.8866 H   0  0  0  0  0  0
  -20.9313  -29.8753   21.6939 H   0  0  0  0  0  0
  -26.0178  -38.2877   24.1431 H   0  0  0  0  0  0
  -30.4168  -21.4564   15.3505 H   0  0  0  0  0  0
  -29.5437  -23.5015   14.2345 H   0  0  0  0  0  0
  -30.4232  -21.2826   17.7842 H   0  0  0  0  0  0
  -28.7022  -25.3890   15.6092 H   0  0  0  0  0  0
  -29.2097  -18.1771   18.2504 H   0  0  0  0  0  0
  -30.8756  -17.8991   18.7716 H   0  0  0  0  0  0
  -30.2385  -15.6878   18.2291 H   0  0  0  0  0  0
  -28.5834  -15.9549   18.7257 H   0  0  0  0  0  0
  -29.6311  -16.7322   22.1723 H   0  0  0  0  0  0
  -31.1676  -17.0063   21.3599 H   0  0  0  0  0  0
  -28.4060  -18.0242   20.5486 H   0  0  0  0  0  0
  -28.4564  -23.4837   22.1839 H   0  0  0  0  0  0
  -28.4111  -25.2348   22.1491 H   0  0  0  0  0  0
  -29.9671  -24.4114   22.1983 H   0  0  0  0  0  0
  -30.2058  -22.1541   21.3630 H   0  0  0  0  0  0
  -31.0477  -21.7625   19.9225 H   0  0  0  0  0  0
  -29.0205  -20.3578   19.1779 H   0  0  0  0  0  0
  -28.2671  -20.7021   20.7003 H   0  0  0  0  0  0
  -30.9378  -19.4937   20.6210 H   0  0  0  0  0  0
  -29.8662  -19.4982   21.8364 H   0  0  0  0  0  0
  1 25  1  0  0  0
  1 30  2  0  0  0
  1 88  1  0  0  0
  2  3  1  0  0  0
  2 25  1  0  0  0
  2 90  1  0  0  0
  2 91  1  0  0  0
  3  4  1  0  0  0
  3 92  1  0  0  0
  3 93  1  0  0  0
  4  5  1  0  0  0
  4 94  1  0  0  0
  4 95  1  0  0  0
  5  6  1  0  0  0
  5 26  1  0  0  0
  5 96  1  0  0  0
  6 25  1  0  0  0
  6 97  1  0  0  0
  6 98  1  0  0  0
  7  8  2  0  0  0
  7 26  1  0  0  0
  7 29  1  0  0  0
  8  9  1  0  0  0
  8 22  1  0  0  0
  9 10  1  0  0  0
  9 27  2  0  0  0
 10 11  2  0  0  0
 10 15  1  0  0  0
 11 12  1  0  0  0
 11 99  1  0  0  0
 12 13  2  0  0  0
 12100  1  0  0  0
 13 14  1  0  0  0
 13 31  1  0  0  0
 14 15  2  0  0  0
 14101  1  0  0  0
 15102  1  0  0  0
 16 17  2  0  0  0
 16 21  1  0  0  0
 16 31  1  0  0  0
 17 18  1  0  0  0
 17103  1  0  0  0
 18 19  2  0  0  0
 18104  1  0  0  0
 19 20  1  0  0  0
 19 24  1  0  0  0
 20 21  2  0  0  0
 20105  1  0  0  0
 21 23  1  0  0  0
 22 28  1  0  0  0
 22 32  2  0  0  0
 26 27  1  0  0  0
 28106  1  0  0  0
 28107  1  0  0  0
 29108  1  0  0  0
 29109  1  0  0  0
 33 34  1  0  0  0
 33 66  1  0  0  0
 33 70  2  0  0  0
 34 36  1  0  0  0
 34 59  1  0  0  0
 34110  1  0  0  0
 35 44  2  0  0  0
 35 45  1  0  0  0
 35 68  1  0  0  0
 36 56  1  0  0  0
 36111  1  0  0  0
 37 39  1  0  0  0
 37 47  1  0  0  0
 37 66  1  0  0  0
 37112  1  0  0  0
 38 43  2  0  0  0
 38 46  1  0  0  0
 38 47  1  0  0  0
 39 64  1  0  0  0
 39 67  2  0  0  0
 40 52  1  0  0  0
 40 53  2  0  0  0
 40 58  1  0  0  0
 41113  1  0  0  0
 41114  1  0  0  0
 41115  1  0  0  0
 41 48  1  0  0  0
 42 43  1  0  0  0
 42 66  1  0  0  0
 42116  1  0  0  0
 42117  1  0  0  0
 43 44  1  0  0  0
 44118  1  0  0  0
 45 46  2  0  0  0
 45119  1  0  0  0
 46120  1  0  0  0
 47121  1  0  0  0
 47122  1  0  0  0
 48 56  1  0  0  0
 48 65  1  0  0  0
 48123  1  0  0  0
 49 50  1  0  0  0
 49 53  1  0  0  0
 49 64  1  0  0  0
 49124  1  0  0  0
 50 51  1  0  0  0
 50125  1  0  0  0
 50126  1  0  0  0
 51 52  1  0  0  0
 51127  1  0  0  0
 51128  1  0  0  0
 52129  1  0  0  0
 52130  1  0  0  0
 53 54  1  0  0  0
 54 55  2  0  0  0
 54131  1  0  0  0
 55 57  1  0  0  0
 55132  1  0  0  0
 56 69  2  0  0  0
 57 58  2  0  0  0
 57133  1  0  0  0
 58134  1  0  0  0
 59 60  1  0  0  0
 59 61  1  0  0  0
 59 62  1  0  0  0
 60135  1  0  0  0
 60136  1  0  0  0
 60137  1  0  0  0
 61138  1  0  0  0
 61139  1  0  0  0
 61140  1  0  0  0
 62141  1  0  0  0
 62142  1  0  0  0
 62143  1  0  0  0
 63 65  1  0  0  0
 63144  1  0  0  0
 63145  1  0  0  0
 63146  1  0  0  0
 64147  1  0  0  0
 65148  1  0  0  0
 68 79  1  0  0  0
 71 72  2  0  0  0
 71 73  1  0  0  0
 71149  1  0  0  0
 72 74  1  0  0  0
 72150  1  0  0  0
 73 75  2  0  0  0
 73151  1  0  0  0
 74 78  2  0  0  0
 74152  1  0  0  0
 75 76  1  0  0  0
 75 78  1  0  0  0
 76 77  2  0  0  0
 76 85  1  0  0  0
 77 79  1  0  0  0
 77 84  1  0  0  0
 78 87  1  0  0  0
 79 87  2  0  0  0
 80 81  1  0  0  0
 80 83  1  0  0  0
 80153  1  0  0  0
 80154  1  0  0  0
 81 88  1  0  0  0
 81155  1  0  0  0
 81156  1  0  0  0
 82 83  1  0  0  0
 82 88  1  0  0  0
 82157  1  0  0  0
 82158  1  0  0  0
 83 89  1  0  0  0
 83159  1  0  0  0
 84160  1  0  0  0
 84161  1  0  0  0
 84162  1  0  0  0
 85 86  1  0  0  0
 85163  1  0  0  0
 85164  1  0  0  0
 86 89  1  0  0  0
 86165  1  0  0  0
 86166  1  0  0  0
 89167  1  0  0  0
 89168  1  0  0  0
M  CHG  1  89   1
M  ISO  4   1 100  68 101  79 101  88 100
M  END
> <chiral flag>
0

> <version>
0

> <s_m_source_file>
/data/baiqing/PycharmProjects/Reinvent-master-3.2/result/LINK_invent/BTK/process_docking_weight1_custom_sum_contain_oxygen_bond_distance_aromatic_linkinvent_7_9_3/rearranged_h_0143.sdf

> <i_m_source_file_index>
58

> <r_mmod_Potential_Energy-OPLS-2005>
-36.1857299804688

> <r_mmod_Stretch_Energy-OPLS-2005>
49.3591690063477

> <r_mmod_Bend_Energy-OPLS-2005>
141.374588012695

> <r_mmod_Torsional_Energy-OPLS-2005>
354.606048583984

> <r_mmod_Improper_Torsional_Energy-OPLS-2005>
16.7605495452881

> <r_mmod_Van_der_Waal_Energy-OPLS-2005>
164.472808837891

> <r_mmod_Electrostatic_Energy-OPLS-2005>
-305.278228759766

> <r_mmod_Solvation_Energy-OPLS-2005>
-485.713592529297

> <b_mmod_Minimization_Converged-OPLS-2005>
0

> <r_mmod_RMS_Derivative-OPLS-2005>
1.36455166339874

$$$$
58
                    3D
 Structure written by MMmdl.
157165  0  0  1  0            999 V2000
  -30.5607  -14.8723   20.5231 C   0  0  0  0  0  0
  -30.4494  -12.5544   19.4826 C   0  0  0  0  0  0
  -29.5183  -12.5519   18.2474 C   0  0  0  0  0  0
  -28.0483  -12.3445   18.6609 C   0  0  0  0  0  0
  -27.6439  -13.2388   19.8619 C   0  0  2  0  0  0
  -28.6917  -13.1702   20.9947 C   0  0  0  0  0  0
  -25.2444  -13.8131   20.5601 C   0  0  0  0  0  0
  -24.1779  -13.0386   20.9209 C   0  0  0  0  0  0
  -24.6411  -11.6882   20.8775 C   0  0  0  0  0  0
  -23.9087  -10.4264   21.0420 C   0  0  0  0  0  0
  -24.3628   -9.4179   21.9197 C   0  0  0  0  0  0
  -23.6292   -8.2222   22.0760 C   0  0  0  0  0  0
  -22.4276   -8.0272   21.3546 C   0  0  0  0  0  0
  -21.9920   -9.0249   20.4648 C   0  0  0  0  0  0
  -22.7260  -10.2121   20.3062 C   0  0  0  0  0  0
  -21.6849   -6.0731   22.5279 C   0  0  0  0  0  0
  -21.4011   -6.5636   23.8212 C   0  0  0  0  0  0
  -21.3656   -5.6791   24.9175 C   0  0  0  0  0  0
  -21.6043   -4.3054   24.7227 C   0  0  0  0  0  0
  -21.8819   -3.8146   23.4348 C   0  0  0  0  0  0
  -21.9191   -4.6960   22.3403 C   0  0  0  0  0  0
  -22.7800  -13.5175   21.1863 C   0  0  0  0  0  0
  -22.1661   -4.2146   21.0979 F   0  0  0  0  0  0
  -21.5629   -3.4538   25.7739 F   0  0  0  0  0  0
  -29.9766  -13.6086   20.4244 N   0  0  0  0  0  0
  -26.2946  -12.9395   20.3326 N   0  0  0  0  0  0
  -25.9360  -11.6532   20.5813 N   0  0  0  0  0  0
  -22.0454  -12.8178   22.0432 N   0  0  0  0  0  0
  -25.3978  -15.1812   20.3759 N   0  0  0  0  0  0
  -31.6945  -14.9960   20.0461 O   0  0  0  0  0  0
  -21.6634   -6.8876   21.4242 O   0  0  0  0  0  0
  -22.3485  -14.5484   20.6712 O   0  0  0  0  0  0
  -24.6405  -31.8470   23.1911 C   0  0  0  0  0  0
  -25.9191  -32.4712   23.8289 C   0  0  1  0  0  0
  -27.2228  -27.1717   20.1422 C   0  0  0  0  0  0
  -25.5953  -33.8517   24.2208 N   0  0  0  0  0  0
  -23.4426  -30.4678   21.5361 C   0  0  2  0  0  0
  -24.8921  -28.9013   20.1111 C   0  0  0  0  0  0
  -22.7552  -29.4562   22.4872 C   0  0  0  0  0  0
  -18.0298  -28.1397   22.8474 C   0  0  0  0  0  0
  -24.1489  -36.7266   23.2641 C   0  0  0  0  0  0
  -25.9966  -30.7327   21.3844 C   0  0  0  0  0  0
  -26.0693  -29.3472   20.7256 C   0  0  0  0  0  0
  -27.2356  -28.4989   20.7240 C   0  0  0  0  0  0
  -26.0166  -26.8199   19.4935 C   0  0  0  0  0  0
  -24.8769  -27.6492   19.4809 C   0  0  0  0  0  0
  -23.6674  -29.7995   20.1544 C   0  0  0  0  0  0
  -25.4122  -36.3042   24.0318 C   0  0  1  0  0  0
  -20.5910  -28.3718   23.1243 C   0  0  2  0  0  0
  -20.6786  -26.9424   22.5404 C   0  0  0  0  0  0
  -19.5762  -26.6383   21.5210 C   0  0  0  0  0  0
  -18.1942  -26.7936   22.1620 C   0  0  0  0  0  0
  -19.1554  -28.8874   23.2852 C   0  0  0  0  0  0
  -18.9475  -30.1471   23.8875 C   0  0  0  0  0  0
  -17.6474  -30.6593   24.0559 C   0  0  0  0  0  0
  -25.9073  -34.9417   23.5070 C   0  0  0  0  0  0
  -16.5363  -29.9089   23.6336 C   0  0  0  0  0  0
  -16.7284  -28.6509   23.0353 C   0  0  0  0  0  0
  -26.4523  -31.6568   25.0718 C   0  0  0  0  0  0
  -25.3717  -31.3747   26.1418 C   0  0  0  0  0  0
  -27.0382  -30.2969   24.6274 C   0  0  0  0  0  0
  -27.6055  -32.4329   25.7504 C   0  0  0  0  0  0
  -27.5575  -37.1790   24.8466 C   0  0  0  0  0  0
  -21.4245  -29.3055   22.3623 N   0  0  0  0  0  0
  -26.4286  -37.3754   23.9409 N   0  0  0  0  0  0
  -24.7127  -31.0355   22.0930 N   0  0  0  0  0  0
  -23.4207  -28.8096   23.3004 O   0  0  0  0  0  0
  -28.2895  -26.2097   20.2065 O   0  0  0  0  0  0
  -26.5651  -34.8908   22.4644 O   0  0  0  0  0  0
  -23.5535  -32.1327   23.7156 O   0  0  0  0  0  0
  -30.1966  -20.1035   20.0718 C   0  0  0  0  0  0
  -30.5161  -18.6835   20.2154 C   0  0  0  0  0  0
  -29.6113  -17.7388   20.8282 C   0  0  0  0  0  0
  -28.4119  -18.4194   21.2479 C   0  0  0  0  0  0
  -28.9578  -20.6614   20.5159 C   0  0  0  0  0  0
  -31.8682  -18.2012   19.7306 C   0  0  0  0  0  0
  -27.3388  -17.7030   22.0469 C   0  0  0  0  0  0
  -30.5821  -16.2348   22.6768 C   0  0  0  0  0  0
  -27.9959  -24.6965   20.0879 C   0  0  0  0  0  0
  -29.0066  -23.3805   20.3062 C   0  0  0  0  0  0
  -29.8924  -16.1693   21.3005 C   0  0  2  0  0  0
  -28.1119  -19.7545   21.0727 N   0  0  0  0  0  0
  -28.3877  -21.9962   20.4186 O   0  0  0  0  0  0
  -31.4812  -12.7158   19.1674 H   0  0  0  0  0  0
  -30.4454  -11.5775   19.9687 H   0  0  0  0  0  0
  -29.8229  -11.7759   17.5441 H   0  0  0  0  0  0
  -29.6171  -13.5012   17.7187 H   0  0  0  0  0  0
  -27.9241  -11.2941   18.9270 H   0  0  0  0  0  0
  -27.3859  -12.5242   17.8133 H   0  0  0  0  0  0
  -27.6360  -14.2639   19.4900 H   0  0  0  0  0  0
  -28.7691  -12.1520   21.3791 H   0  0  0  0  0  0
  -28.3908  -13.7736   21.8499 H   0  0  0  0  0  0
  -25.2771   -9.5647   22.4779 H   0  0  0  0  0  0
  -23.9992   -7.4609   22.7479 H   0  0  0  0  0  0
  -21.0852   -8.8777   19.8951 H   0  0  0  0  0  0
  -22.3729  -10.9664   19.6172 H   0  0  0  0  0  0
  -21.2004   -7.6144   23.9714 H   0  0  0  0  0  0
  -21.1478   -6.0522   25.9078 H   0  0  0  0  0  0
  -22.0603   -2.7609   23.2850 H   0  0  0  0  0  0
  -22.4075  -11.9839   22.4818 H   0  0  0  0  0  0
  -21.1074  -13.1204   22.2647 H   0  0  0  0  0  0
  -24.6123  -15.8181   20.4494 H   0  0  0  0  0  0
  -26.2192  -15.6083   19.9689 H   0  0  0  0  0  0
  -26.7256  -32.5324   23.1020 H   0  0  0  0  0  0
  -25.0085  -33.9641   25.0344 H   0  0  0  0  0  0
  -22.7438  -31.2927   21.3837 H   0  0  0  0  0  0
  -23.3755  -35.9595   23.3294 H   0  0  0  0  0  0
  -24.3574  -36.8904   22.2057 H   0  0  0  0  0  0
  -23.7245  -37.6462   23.6682 H   0  0  0  0  0  0
  -26.1472  -31.4889   20.6127 H   0  0  0  0  0  0
  -26.8694  -30.7831   22.0240 H   0  0  0  0  0  0
  -28.1334  -28.8361   21.2231 H   0  0  0  0  0  0
  -25.9135  -25.8661   19.0006 H   0  0  0  0  0  0
  -23.9775  -27.3020   18.9909 H   0  0  0  0  0  0
  -23.8027  -30.5749   19.3993 H   0  0  0  0  0  0
  -22.7832  -29.2405   19.8435 H   0  0  0  0  0  0
  -25.1308  -36.1874   25.0811 H   0  0  0  0  0  0
  -21.0002  -28.3302   24.1365 H   0  0  0  0  0  0
  -20.5681  -26.2329   23.3617 H   0  0  0  0  0  0
  -21.6654  -26.7436   22.1202 H   0  0  0  0  0  0
  -19.6927  -25.6288   21.1253 H   0  0  0  0  0  0
  -19.6703  -27.3180   20.6728 H   0  0  0  0  0  0
  -17.4212  -26.6673   21.4023 H   0  0  0  0  0  0
  -18.0346  -26.0085   22.9022 H   0  0  0  0  0  0
  -19.7950  -30.7292   24.2235 H   0  0  0  0  0  0
  -17.5027  -31.6271   24.5169 H   0  0  0  0  0  0
  -15.5364  -30.2985   23.7678 H   0  0  0  0  0  0
  -15.8681  -28.0823   22.7081 H   0  0  0  0  0  0
  -24.5917  -30.7068   25.7749 H   0  0  0  0  0  0
  -24.8881  -32.2922   26.4781 H   0  0  0  0  0  0
  -25.8014  -30.8973   27.0233 H   0  0  0  0  0  0
  -26.2991  -29.6698   24.1276 H   0  0  0  0  0  0
  -27.4003  -29.7261   25.4835 H   0  0  0  0  0  0
  -27.8893  -30.4214   23.9576 H   0  0  0  0  0  0
  -27.2654  -33.3657   26.2018 H   0  0  0  0  0  0
  -28.3904  -32.6843   25.0360 H   0  0  0  0  0  0
  -28.0677  -31.8492   26.5475 H   0  0  0  0  0  0
  -28.2586  -38.0091   24.7512 H   0  0  0  0  0  0
  -28.1075  -36.2620   24.6293 H   0  0  0  0  0  0
  -27.2291  -37.1444   25.8868 H   0  0  0  0  0  0
  -20.9448  -29.8776   21.6813 H   0  0  0  0  0  0
  -26.0151  -38.2822   24.1412 H   0  0  0  0  0  0
  -30.9117  -20.7650   19.6027 H   0  0  0  0  0  0
  -32.4824  -19.0249   19.3669 H   0  0  0  0  0  0
  -31.7445  -17.4914   18.9129 H   0  0  0  0  0  0
  -32.4146  -17.7094   20.5350 H   0  0  0  0  0  0
  -27.7295  -17.3630   23.0054 H   0  0  0  0  0  0
  -26.9667  -16.8431   21.5019 H   0  0  0  0  0  0
  -26.4830  -18.3470   22.2532 H   0  0  0  0  0  0
  -29.9822  -16.7855   23.4002 H   0  0  0  0  0  0
  -31.5506  -16.7303   22.6080 H   0  0  0  0  0  0
  -30.7518  -15.2425   23.0978 H   0  0  0  0  0  0
  -27.1601  -24.5261   20.7674 H   0  0  0  0  0  0
  -27.5876  -24.5482   19.0892 H   0  0  0  0  0  0
  -29.5729  -23.5375   21.2240 H   0  0  0  0  0  0
  -29.7440  -23.3580   19.5036 H   0  0  0  0  0  0
  -28.8957  -15.7942   21.4874 H   0  0  0  0  0  0
  1 25  1  0  0  0
  1 30  2  0  0  0
  1 81  1  0  0  0
  2  3  1  0  0  0
  2 25  1  0  0  0
  2 84  1  0  0  0
  2 85  1  0  0  0
  3  4  1  0  0  0
  3 86  1  0  0  0
  3 87  1  0  0  0
  4  5  1  0  0  0
  4 88  1  0  0  0
  4 89  1  0  0  0
  5  6  1  0  0  0
  5 26  1  0  0  0
  5 90  1  0  0  0
  6 25  1  0  0  0
  6 91  1  0  0  0
  6 92  1  0  0  0
  7  8  2  0  0  0
  7 26  1  0  0  0
  7 29  1  0  0  0
  8  9  1  0  0  0
  8 22  1  0  0  0
  9 10  1  0  0  0
  9 27  2  0  0  0
 10 11  2  0  0  0
 10 15  1  0  0  0
 11 12  1  0  0  0
 11 93  1  0  0  0
 12 13  2  0  0  0
 12 94  1  0  0  0
 13 14  1  0  0  0
 13 31  1  0  0  0
 14 15  2  0  0  0
 14 95  1  0  0  0
 15 96  1  0  0  0
 16 17  2  0  0  0
 16 21  1  0  0  0
 16 31  1  0  0  0
 17 18  1  0  0  0
 17 97  1  0  0  0
 18 19  2  0  0  0
 18 98  1  0  0  0
 19 20  1  0  0  0
 19 24  1  0  0  0
 20 21  2  0  0  0
 20 99  1  0  0  0
 21 23  1  0  0  0
 22 28  1  0  0  0
 22 32  2  0  0  0
 26 27  1  0  0  0
 28100  1  0  0  0
 28101  1  0  0  0
 29102  1  0  0  0
 29103  1  0  0  0
 33 34  1  0  0  0
 33 66  1  0  0  0
 33 70  2  0  0  0
 34 36  1  0  0  0
 34 59  1  0  0  0
 34104  1  0  0  0
 35 44  2  0  0  0
 35 45  1  0  0  0
 35 68  1  0  0  0
 36 56  1  0  0  0
 36105  1  0  0  0
 37 39  1  0  0  0
 37 47  1  0  0  0
 37 66  1  0  0  0
 37106  1  0  0  0
 38 43  2  0  0  0
 38 46  1  0  0  0
 38 47  1  0  0  0
 39 64  1  0  0  0
 39 67  2  0  0  0
 40 52  1  0  0  0
 40 53  2  0  0  0
 40 58  1  0  0  0
 41107  1  0  0  0
 41108  1  0  0  0
 41109  1  0  0  0
 41 48  1  0  0  0
 42 43  1  0  0  0
 42 66  1  0  0  0
 42110  1  0  0  0
 42111  1  0  0  0
 43 44  1  0  0  0
 44112  1  0  0  0
 45 46  2  0  0  0
 45113  1  0  0  0
 46114  1  0  0  0
 47115  1  0  0  0
 47116  1  0  0  0
 48 56  1  0  0  0
 48 65  1  0  0  0
 48117  1  0  0  0
 49 50  1  0  0  0
 49 53  1  0  0  0
 49 64  1  0  0  0
 49118  1  0  0  0
 50 51  1  0  0  0
 50119  1  0  0  0
 50120  1  0  0  0
 51 52  1  0  0  0
 51121  1  0  0  0
 51122  1  0  0  0
 52123  1  0  0  0
 52124  1  0  0  0
 53 54  1  0  0  0
 54 55  2  0  0  0
 54125  1  0  0  0
 55 57  1  0  0  0
 55126  1  0  0  0
 56 69  2  0  0  0
 57 58  2  0  0  0
 57127  1  0  0  0
 58128  1  0  0  0
 59 60  1  0  0  0
 59 61  1  0  0  0
 59 62  1  0  0  0
 60129  1  0  0  0
 60130  1  0  0  0
 60131  1  0  0  0
 61132  1  0  0  0
 61133  1  0  0  0
 61134  1  0  0  0
 62135  1  0  0  0
 62136  1  0  0  0
 62137  1  0  0  0
 63 65  1  0  0  0
 63138  1  0  0  0
 63139  1  0  0  0
 63140  1  0  0  0
 64141  1  0  0  0
 65142  1  0  0  0
 68 79  1  0  0  0
 71 72  2  0  0  0
 71 75  1  0  0  0
 71143  1  0  0  0
 72 73  1  0  0  0
 72 76  1  0  0  0
 73 74  2  0  0  0
 73 81  1  0  0  0
 74 77  1  0  0  0
 74 82  1  0  0  0
 75 82  2  0  0  0
 75 83  1  0  0  0
 76144  1  0  0  0
 76145  1  0  0  0
 76146  1  0  0  0
 77147  1  0  0  0
 77148  1  0  0  0
 77149  1  0  0  0
 78150  1  0  0  0
 78151  1  0  0  0
 78152  1  0  0  0
 78 81  1  0  0  0
 79 80  1  0  0  0
 79153  1  0  0  0
 79154  1  0  0  0
 80 83  1  0  0  0
 80155  1  0  0  0
 80156  1  0  0  0
 81157  1  0  0  0
M  ISO  4   1 100  68 101  79 101  81 100
M  END
> <chiral flag>
0

> <version>
0

> <s_m_source_file>
/data/baiqing/PycharmProjects/Reinvent-master-3.2/result/LINK_invent/BTK/process_docking_weight1_custom_sum_contain_oxygen_bond_distance_aromatic_linkinvent_7_9_3/rearranged_h_0143.sdf

> <i_m_source_file_index>
59

> <r_mmod_Potential_Energy-OPLS-2005>
281.614105224609

> <r_mmod_Stretch_Energy-OPLS-2005>
213.754409790039

> <r_mmod_Bend_Energy-OPLS-2005>
301.169921875

> <r_mmod_Torsional_Energy-OPLS-2005>
182.695907592773

> <r_mmod_Improper_Torsional_Energy-OPLS-2005>
4.41847133636475

> <r_mmod_Van_der_Waal_Energy-OPLS-2005>
139.660491943359

> <r_mmod_Electrostatic_Energy-OPLS-2005>
-500.956756591797

> <r_mmod_Solvation_Energy-OPLS-2005>
-205.368041992188

> <b_mmod_Minimization_Converged-OPLS-2005>
0

> <r_mmod_RMS_Derivative-OPLS-2005>
0.615677714347839

$$$$
59
                    3D
 Structure written by MMmdl.
165175  0  0  1  0            999 V2000
  -30.7304  -14.4139   20.5271 C   0  0  0  0  0  0
  -30.4069  -12.2565   19.4232 C   0  0  0  0  0  0
  -29.4920  -12.4873   18.2034 C   0  0  0  0  0  0
  -28.0101  -12.3666   18.6111 C   0  0  0  0  0  0
  -27.6601  -13.2077   19.8694 C   0  0  2  0  0  0
  -28.7006  -12.9924   20.9927 C   0  0  0  0  0  0
  -25.2584  -13.8165   20.5671 C   0  0  0  0  0  0
  -24.1834  -13.0443   20.9180 C   0  0  0  0  0  0
  -24.6385  -11.6916   20.8738 C   0  0  0  0  0  0
  -23.9056  -10.4294   21.0415 C   0  0  0  0  0  0
  -24.3613   -9.4210   21.9189 C   0  0  0  0  0  0
  -23.6296   -8.2242   22.0759 C   0  0  0  0  0  0
  -22.4279   -8.0277   21.3547 C   0  0  0  0  0  0
  -21.9910   -9.0252   20.4650 C   0  0  0  0  0  0
  -22.7236  -10.2133   20.3063 C   0  0  0  0  0  0
  -21.6846   -6.0746   22.5288 C   0  0  0  0  0  0
  -21.4009   -6.5647   23.8226 C   0  0  0  0  0  0
  -21.3654   -5.6793   24.9183 C   0  0  0  0  0  0
  -21.6047   -4.3056   24.7225 C   0  0  0  0  0  0
  -21.8814   -3.8156   23.4340 C   0  0  0  0  0  0
  -21.9189   -4.6974   22.3404 C   0  0  0  0  0  0
  -22.7853  -13.5244   21.1850 C   0  0  0  0  0  0
  -22.1656   -4.2164   21.0978 F   0  0  0  0  0  0
  -21.5631   -3.4535   25.7733 F   0  0  0  0  0  0
  -30.0364  -13.2527   20.4369 N   0  0  0  0  0  0
  -26.3012  -12.9341   20.3340 N   0  0  0  0  0  0
  -25.9316  -11.6497   20.5765 N   0  0  0  0  0  0
  -22.0485  -12.8242   22.0393 N   0  0  0  0  0  0
  -25.4303  -15.1884   20.4080 N   0  0  0  0  0  0
  -31.9036  -14.5123   20.1651 O   0  0  0  0  0  0
  -21.6636   -6.8883   21.4248 O   0  0  0  0  0  0
  -22.3543  -14.5553   20.6694 O   0  0  0  0  0  0
  -24.6125  -31.8720   23.2167 C   0  0  0  0  0  0
  -25.9026  -32.4847   23.8448 C   0  0  1  0  0  0
  -27.2192  -27.4596   20.0882 C   0  0  0  0  0  0
  -25.5899  -33.8648   24.2367 N   0  0  0  0  0  0
  -23.3976  -30.4992   21.5575 C   0  0  2  0  0  0
  -24.8395  -28.9710   20.1228 C   0  0  0  0  0  0
  -22.7390  -29.4687   22.5029 C   0  0  0  0  0  0
  -18.0268  -28.1376   22.8495 C   0  0  0  0  0  0
  -24.1483  -36.7319   23.2636 C   0  0  0  0  0  0
  -25.9260  -30.8390   21.3740 C   0  0  0  0  0  0
  -25.9982  -29.4738   20.7290 C   0  0  0  0  0  0
  -27.1916  -28.7185   20.7242 C   0  0  0  0  0  0
  -26.0554  -26.9920   19.4391 C   0  0  0  0  0  0
  -24.8596  -27.7248   19.4810 C   0  0  0  0  0  0
  -23.6040  -29.8366   20.1709 C   0  0  0  0  0  0
  -25.4105  -36.3126   24.0337 C   0  0  1  0  0  0
  -20.5859  -28.3642   23.1341 C   0  0  2  0  0  0
  -20.6769  -26.9394   22.5415 C   0  0  0  0  0  0
  -19.5744  -26.6389   21.5214 C   0  0  0  0  0  0
  -18.1918  -26.7927   22.1627 C   0  0  0  0  0  0
  -19.1518  -28.8826   23.2913 C   0  0  0  0  0  0
  -18.9449  -30.1440   23.8912 C   0  0  0  0  0  0
  -17.6452  -30.6581   24.0569 C   0  0  0  0  0  0
  -25.9024  -34.9489   23.5140 C   0  0  0  0  0  0
  -16.5340  -29.9087   23.6338 C   0  0  0  0  0  0
  -16.7258  -28.6508   23.0349 C   0  0  0  0  0  0
  -26.4468  -31.6607   25.0750 C   0  0  0  0  0  0
  -25.3741  -31.3701   26.1497 C   0  0  0  0  0  0
  -27.0301  -30.3057   24.6101 C   0  0  0  0  0  0
  -27.6055  -32.4315   25.7504 C   0  0  0  0  0  0
  -27.5580  -37.1818   24.8465 C   0  0  0  0  0  0
  -21.4124  -29.3026   22.3761 N   0  0  0  0  0  0
  -26.4298  -37.3800   23.9402 N   0  0  0  0  0  0
  -24.6628  -31.0845   22.1070 N   0  0  0  0  0  0
  -23.4180  -28.8222   23.3046 O   0  0  0  0  0  0
  -28.3838  -26.7352   20.0149 O   0  0  0  0  0  0
  -26.5583  -34.8920   22.4704 O   0  0  0  0  0  0
  -23.5324  -32.1485   23.7562 O   0  0  0  0  0  0
  -31.1446  -17.1625   19.3938 C   0  0  0  0  0  0
  -29.4419  -17.8670   21.0864 C   0  0  0  0  0  0
  -31.2225  -18.5141   19.0927 C   0  0  0  0  0  0
  -29.5323  -19.2451   20.7258 C   0  0  0  0  0  0
  -30.2282  -16.8412   20.4509 C   0  0  0  0  0  0
  -30.4593  -19.5247   19.7203 C   0  0  0  0  0  0
  -31.8168  -19.5467   18.2058 C   0  0  0  0  0  0
  -29.4863  -21.4812   21.9156 C   0  0  0  0  0  0
  -27.6996  -20.8372   20.1809 C   0  0  0  0  0  0
  -28.6757  -22.7645   22.1692 C   0  0  0  0  0  0
  -27.0094  -22.1638   20.5076 C   0  0  0  0  0  0
  -28.6418  -20.3362   21.2998 C   0  0  1  0  0  0
  -27.4869  -24.5573   20.8588 C   0  0  0  0  0  0
  -28.5487  -25.6809   20.9718 C   0  0  0  0  0  0
  -30.0045  -15.4934   20.8667 N   0  0  0  0  0  0
  -28.0216  -23.1745   20.9044 N   0  3  1  0  0  0
  -30.9559  -20.5483   18.9399 O   0  0  0  0  0  0
  -31.4558  -12.3174   19.1277 H   0  0  0  0  0  0
  -30.2701  -11.2492   19.8205 H   0  0  0  0  0  0
  -29.7240  -11.7665   17.4182 H   0  0  0  0  0  0
  -29.6787  -13.4748   17.7778 H   0  0  0  0  0  0
  -27.8056  -11.3126   18.8013 H   0  0  0  0  0  0
  -27.3672  -12.6525   17.7779 H   0  0  0  0  0  0
  -27.7049  -14.2544   19.5686 H   0  0  0  0  0  0
  -28.6567  -11.9655   21.3591 H   0  0  0  0  0  0
  -28.4852  -13.6235   21.8562 H   0  0  0  0  0  0
  -25.2763   -9.5680   22.4756 H   0  0  0  0  0  0
  -24.0008   -7.4627   22.7473 H   0  0  0  0  0  0
  -21.0844   -8.8771   19.8950 H   0  0  0  0  0  0
  -22.3707  -10.9668   19.6162 H   0  0  0  0  0  0
  -21.2000   -7.6157   23.9730 H   0  0  0  0  0  0
  -21.1484   -6.0526   25.9088 H   0  0  0  0  0  0
  -22.0598   -2.7621   23.2838 H   0  0  0  0  0  0
  -22.4087  -11.9900   22.4786 H   0  0  0  0  0  0
  -21.1102  -13.1277   22.2591 H   0  0  0  0  0  0
  -24.6637  -15.8431   20.5195 H   0  0  0  0  0  0
  -26.2808  -15.6266   20.0773 H   0  0  0  0  0  0
  -26.7113  -32.5573   23.1237 H   0  0  0  0  0  0
  -25.0094  -33.9832   25.0537 H   0  0  0  0  0  0
  -22.6863  -31.3165   21.4249 H   0  0  0  0  0  0
  -23.3739  -35.9657   23.3314 H   0  0  0  0  0  0
  -24.3587  -36.8903   22.2046 H   0  0  0  0  0  0
  -23.7233  -37.6530   23.6636 H   0  0  0  0  0  0
  -26.0373  -31.6012   20.6019 H   0  0  0  0  0  0
  -26.8158  -30.8930   21.9896 H   0  0  0  0  0  0
  -28.0880  -29.1039   21.1919 H   0  0  0  0  0  0
  -26.0566  -26.0824   18.8597 H   0  0  0  0  0  0
  -23.9758  -27.3483   18.9848 H   0  0  0  0  0  0
  -23.7157  -30.6122   19.4130 H   0  0  0  0  0  0
  -22.7277  -29.2569   19.8734 H   0  0  0  0  0  0
  -25.1282  -36.2006   25.0830 H   0  0  0  0  0  0
  -20.9942  -28.3183   24.1463 H   0  0  0  0  0  0
  -20.5685  -26.2242   23.3582 H   0  0  0  0  0  0
  -21.6645  -26.7463   22.1203 H   0  0  0  0  0  0
  -19.6894  -25.6302   21.1233 H   0  0  0  0  0  0
  -19.6683  -27.3210   20.6751 H   0  0  0  0  0  0
  -17.4194  -26.6679   21.4019 H   0  0  0  0  0  0
  -18.0316  -26.0066   22.9021 H   0  0  0  0  0  0
  -19.7922  -30.7261   24.2281 H   0  0  0  0  0  0
  -17.5005  -31.6266   24.5166 H   0  0  0  0  0  0
  -15.5340  -30.2989   23.7657 H   0  0  0  0  0  0
  -15.8662  -28.0837   22.7045 H   0  0  0  0  0  0
  -24.5915  -30.7048   25.7832 H   0  0  0  0  0  0
  -24.8944  -32.2854   26.4965 H   0  0  0  0  0  0
  -25.8094  -30.8862   27.0244 H   0  0  0  0  0  0
  -26.2846  -29.6821   24.1158 H   0  0  0  0  0  0
  -27.4081  -29.7277   25.4541 H   0  0  0  0  0  0
  -27.8671  -30.4391   23.9250 H   0  0  0  0  0  0
  -27.2692  -33.3605   26.2122 H   0  0  0  0  0  0
  -28.3844  -32.6882   25.0313 H   0  0  0  0  0  0
  -28.0752  -31.8418   26.5386 H   0  0  0  0  0  0
  -28.2616  -38.0100   24.7512 H   0  0  0  0  0  0
  -28.1061  -36.2634   24.6305 H   0  0  0  0  0  0
  -27.2299  -37.1475   25.8867 H   0  0  0  0  0  0
  -20.9262  -29.8749   21.7000 H   0  0  0  0  0  0
  -26.0186  -38.2875   24.1408 H   0  0  0  0  0  0
  -31.7291  -16.4518   18.8303 H   0  0  0  0  0  0
  -28.7327  -17.5829   21.8516 H   0  0  0  0  0  0
  -31.5458  -19.4262   17.1562 H   0  0  0  0  0  0
  -32.8863  -19.6945   18.3618 H   0  0  0  0  0  0
  -29.9555  -21.1446   22.8402 H   0  0  0  0  0  0
  -30.3067  -21.7417   21.2479 H   0  0  0  0  0  0
  -28.2600  -20.9873   19.2574 H   0  0  0  0  0  0
  -26.9541  -20.0737   19.9523 H   0  0  0  0  0  0
  -29.3432  -23.5431   22.5384 H   0  0  0  0  0  0
  -27.9285  -22.6039   22.9483 H   0  0  0  0  0  0
  -26.2717  -22.0344   21.3007 H   0  0  0  0  0  0
  -26.4590  -22.4903   19.6237 H   0  0  0  0  0  0
  -28.0283  -19.9085   22.0939 H   0  0  0  0  0  0
  -27.0441  -24.6131   19.8711 H   0  0  0  0  0  0
  -26.6789  -24.7047   21.5774 H   0  0  0  0  0  0
  -29.5436  -25.2719   20.7914 H   0  0  0  0  0  0
  -28.5723  -26.0914   21.9824 H   0  0  0  0  0  0
  -29.1116  -15.2965   21.2919 H   0  0  0  0  0  0
  -28.7389  -23.1416   20.1931 H   0  0  0  0  0  0
  1 25  1  0  0  0
  1 30  2  0  0  0
  1 85  1  0  0  0
  2  3  1  0  0  0
  2 25  1  0  0  0
  2 88  1  0  0  0
  2 89  1  0  0  0
  3  4  1  0  0  0
  3 90  1  0  0  0
  3 91  1  0  0  0
  4  5  1  0  0  0
  4 92  1  0  0  0
  4 93  1  0  0  0
  5  6  1  0  0  0
  5 26  1  0  0  0
  5 94  1  0  0  0
  6 25  1  0  0  0
  6 95  1  0  0  0
  6 96  1  0  0  0
  7  8  2  0  0  0
  7 26  1  0  0  0
  7 29  1  0  0  0
  8  9  1  0  0  0
  8 22  1  0  0  0
  9 10  1  0  0  0
  9 27  2  0  0  0
 10 11  2  0  0  0
 10 15  1  0  0  0
 11 12  1  0  0  0
 11 97  1  0  0  0
 12 13  2  0  0  0
 12 98  1  0  0  0
 13 14  1  0  0  0
 13 31  1  0  0  0
 14 15  2  0  0  0
 14 99  1  0  0  0
 15100  1  0  0  0
 16 17  2  0  0  0
 16 21  1  0  0  0
 16 31  1  0  0  0
 17 18  1  0  0  0
 17101  1  0  0  0
 18 19  2  0  0  0
 18102  1  0  0  0
 19 20  1  0  0  0
 19 24  1  0  0  0
 20 21  2  0  0  0
 20103  1  0  0  0
 21 23  1  0  0  0
 22 28  1  0  0  0
 22 32  2  0  0  0
 26 27  1  0  0  0
 28104  1  0  0  0
 28105  1  0  0  0
 29106  1  0  0  0
 29107  1  0  0  0
 33 34  1  0  0  0
 33 66  1  0  0  0
 33 70  2  0  0  0
 34 36  1  0  0  0
 34 59  1  0  0  0
 34108  1  0  0  0
 35 44  2  0  0  0
 35 45  1  0  0  0
 35 68  1  0  0  0
 36 56  1  0  0  0
 36109  1  0  0  0
 37 39  1  0  0  0
 37 47  1  0  0  0
 37 66  1  0  0  0
 37110  1  0  0  0
 38 43  2  0  0  0
 38 46  1  0  0  0
 38 47  1  0  0  0
 39 64  1  0  0  0
 39 67  2  0  0  0
 40 52  1  0  0  0
 40 53  2  0  0  0
 40 58  1  0  0  0
 41111  1  0  0  0
 41112  1  0  0  0
 41113  1  0  0  0
 41 48  1  0  0  0
 42 43  1  0  0  0
 42 66  1  0  0  0
 42114  1  0  0  0
 42115  1  0  0  0
 43 44  1  0  0  0
 44116  1  0  0  0
 45 46  2  0  0  0
 45117  1  0  0  0
 46118  1  0  0  0
 47119  1  0  0  0
 47120  1  0  0  0
 48 56  1  0  0  0
 48 65  1  0  0  0
 48121  1  0  0  0
 49 50  1  0  0  0
 49 53  1  0  0  0
 49 64  1  0  0  0
 49122  1  0  0  0
 50 51  1  0  0  0
 50123  1  0  0  0
 50124  1  0  0  0
 51 52  1  0  0  0
 51125  1  0  0  0
 51126  1  0  0  0
 52127  1  0  0  0
 52128  1  0  0  0
 53 54  1  0  0  0
 54 55  2  0  0  0
 54129  1  0  0  0
 55 57  1  0  0  0
 55130  1  0  0  0
 56 69  2  0  0  0
 57 58  2  0  0  0
 57131  1  0  0  0
 58132  1  0  0  0
 59 60  1  0  0  0
 59 61  1  0  0  0
 59 62  1  0  0  0
 60133  1  0  0  0
 60134  1  0  0  0
 60135  1  0  0  0
 61136  1  0  0  0
 61137  1  0  0  0
 61138  1  0  0  0
 62139  1  0  0  0
 62140  1  0  0  0
 62141  1  0  0  0
 63 65  1  0  0  0
 63142  1  0  0  0
 63143  1  0  0  0
 63144  1  0  0  0
 64145  1  0  0  0
 65146  1  0  0  0
 68 84  1  0  0  0
 71 73  2  0  0  0
 71 75  1  0  0  0
 71147  1  0  0  0
 72 74  1  0  0  0
 72 75  2  0  0  0
 72148  1  0  0  0
 73 76  1  0  0  0
 73 77  1  0  0  0
 74 76  2  0  0  0
 74 82  1  0  0  0
 75 85  1  0  0  0
 76 87  1  0  0  0
 77 87  1  0  0  0
 77149  1  0  0  0
 77150  1  0  0  0
 78 80  1  0  0  0
 78 82  1  0  0  0
 78151  1  0  0  0
 78152  1  0  0  0
 79 81  1  0  0  0
 79 82  1  0  0  0
 79153  1  0  0  0
 79154  1  0  0  0
 80 86  1  0  0  0
 80155  1  0  0  0
 80156  1  0  0  0
 81 86  1  0  0  0
 81157  1  0  0  0
 81158  1  0  0  0
 82159  1  0  0  0
 83 84  1  0  0  0
 83160  1  0  0  0
 83161  1  0  0  0
 83 86  1  0  0  0
 84162  1  0  0  0
 84163  1  0  0  0
 85164  1  0  0  0
 86165  1  0  0  0
M  CHG  1  86   1
M  ISO  4   1 100  68 101  84 101  85 100
M  END
> <chiral flag>
0

> <version>
0

> <s_m_source_file>
/data/baiqing/PycharmProjects/Reinvent-master-3.2/result/LINK_invent/BTK/process_docking_weight1_custom_sum_contain_oxygen_bond_distance_aromatic_linkinvent_7_9_3/rearranged_h_0143.sdf

> <i_m_source_file_index>
60

> <r_mmod_Potential_Energy-OPLS-2005>
322.160797119141

> <r_mmod_Stretch_Energy-OPLS-2005>
58.2251281738281

> <r_mmod_Bend_Energy-OPLS-2005>
475.261138916016

> <r_mmod_Torsional_Energy-OPLS-2005>
297.668395996094

> <r_mmod_Improper_Torsional_Energy-OPLS-2005>
5.33621549606323

> <r_mmod_Van_der_Waal_Energy-OPLS-2005>
169.509460449219

> <r_mmod_Electrostatic_Energy-OPLS-2005>
-277.936950683594

> <r_mmod_Solvation_Energy-OPLS-2005>
-421.494995117188

> <b_mmod_Minimization_Converged-OPLS-2005>
0

> <r_mmod_RMS_Derivative-OPLS-2005>
1.66693699359894

$$$$
60
                    3D
 Structure written by MMmdl.
173182  0  0  1  0            999 V2000
  -30.5989  -14.8862   20.4719 C   0  0  0  0  0  0
  -30.4201  -12.5588   19.4839 C   0  0  0  0  0  0
  -29.5024  -12.5261   18.2397 C   0  0  0  0  0  0
  -28.0265  -12.3481   18.6475 C   0  0  0  0  0  0
  -27.6234  -13.2439   19.8474 C   0  0  2  0  0  0
  -28.6808  -13.2168   20.9731 C   0  0  0  0  0  0
  -25.2297  -13.8109   20.5553 C   0  0  0  0  0  0
  -24.1683  -13.0352   20.9252 C   0  0  0  0  0  0
  -24.6354  -11.6871   20.8822 C   0  0  0  0  0  0
  -23.9051  -10.4269   21.0459 C   0  0  0  0  0  0
  -24.3603   -9.4183   21.9224 C   0  0  0  0  0  0
  -23.6291   -8.2212   22.0755 C   0  0  0  0  0  0
  -22.4276   -8.0268   21.3535 C   0  0  0  0  0  0
  -21.9934   -9.0237   20.4637 C   0  0  0  0  0  0
  -22.7249  -10.2106   20.3069 C   0  0  0  0  0  0
  -21.6842   -6.0741   22.5280 C   0  0  0  0  0  0
  -21.4013   -6.5622   23.8215 C   0  0  0  0  0  0
  -21.3672   -5.6766   24.9170 C   0  0  0  0  0  0
  -21.6037   -4.3022   24.7224 C   0  0  0  0  0  0
  -21.8800   -3.8135   23.4336 C   0  0  0  0  0  0
  -21.9174   -4.6966   22.3400 C   0  0  0  0  0  0
  -22.7708  -13.5153   21.1922 C   0  0  0  0  0  0
  -22.1652   -4.2153   21.0979 F   0  0  0  0  0  0
  -21.5649   -3.4519   25.7747 F   0  0  0  0  0  0
  -29.9436  -13.6559   20.3787 N   0  0  0  0  0  0
  -26.2825  -12.9406   20.3302 N   0  0  0  0  0  0
  -25.9288  -11.6545   20.5830 N   0  0  0  0  0  0
  -22.0301  -12.8197   22.0493 N   0  0  0  0  0  0
  -25.3740  -15.1778   20.3621 N   0  0  0  0  0  0
  -31.7949  -14.8762   20.1655 O   0  0  0  0  0  0
  -21.6603   -6.8890   21.4252 O   0  0  0  0  0  0
  -22.3416  -14.5483   20.6787 O   0  0  0  0  0  0
  -24.6390  -31.8502   23.1913 C   0  0  0  0  0  0
  -25.9176  -32.4730   23.8296 C   0  0  1  0  0  0
  -27.2183  -27.1767   20.1583 C   0  0  0  0  0  0
  -25.5950  -33.8534   24.2216 N   0  0  0  0  0  0
  -23.4406  -30.4698   21.5376 C   0  0  2  0  0  0
  -24.8915  -28.9052   20.1179 C   0  0  0  0  0  0
  -22.7550  -29.4566   22.4886 C   0  0  0  0  0  0
  -18.0305  -28.1369   22.8487 C   0  0  0  0  0  0
  -24.1497  -36.7255   23.2640 C   0  0  0  0  0  0
  -25.9950  -30.7380   21.3885 C   0  0  0  0  0  0
  -26.0674  -29.3521   20.7331 C   0  0  0  0  0  0
  -27.2346  -28.5041   20.7362 C   0  0  0  0  0  0
  -26.0234  -26.8356   19.4918 C   0  0  0  0  0  0
  -24.8799  -27.6577   19.4810 C   0  0  0  0  0  0
  -23.6656  -29.8006   20.1575 C   0  0  0  0  0  0
  -25.4128  -36.3052   24.0319 C   0  0  1  0  0  0
  -20.5916  -28.3695   23.1245 C   0  0  2  0  0  0
  -20.6785  -26.9401   22.5396 C   0  0  0  0  0  0
  -19.5752  -26.6367   21.5204 C   0  0  0  0  0  0
  -18.1936  -26.7917   22.1618 C   0  0  0  0  0  0
  -19.1561  -28.8847   23.2852 C   0  0  0  0  0  0
  -18.9474  -30.1454   23.8847 C   0  0  0  0  0  0
  -17.6471  -30.6570   24.0543 C   0  0  0  0  0  0
  -25.9068  -34.9429   23.5072 C   0  0  0  0  0  0
  -16.5359  -29.9053   23.6334 C   0  0  0  0  0  0
  -16.7290  -28.6480   23.0350 C   0  0  0  0  0  0
  -26.4494  -31.6571   25.0723 C   0  0  0  0  0  0
  -25.3670  -31.3753   26.1405 C   0  0  0  0  0  0
  -27.0366  -30.2974   24.6285 C   0  0  0  0  0  0
  -27.6028  -32.4339   25.7514 C   0  0  0  0  0  0
  -27.5582  -37.1781   24.8453 C   0  0  0  0  0  0
  -21.4246  -29.3043   22.3635 N   0  0  0  0  0  0
  -26.4291  -37.3760   23.9405 N   0  0  0  0  0  0
  -24.7107  -31.0398   22.0941 N   0  0  0  0  0  0
  -23.4221  -28.8122   23.3014 O   0  0  0  0  0  0
  -28.2945  -26.2285   20.1963 O   0  0  0  0  0  0
  -26.5646  -34.8913   22.4636 O   0  0  0  0  0  0
  -23.5512  -32.1371   23.7146 O   0  0  0  0  0  0
  -27.7380  -22.3686   19.4254 C   0  0  0  0  0  0
  -27.3037  -23.8778   19.4189 C   0  0  0  0  0  0
  -30.8281  -17.1490   21.6260 C   0  0  0  0  0  0
  -30.9514  -18.6417   21.0769 C   0  0  0  0  0  0
  -28.9917  -18.3664   19.7894 C   0  0  0  0  0  0
  -28.7961  -22.1117   20.5218 C   0  0  2  0  0  0
  -28.0811  -24.7179   20.4707 C   0  0  1  0  0  0
  -29.2813  -23.6518   20.7278 C   0  0  1  0  0  0
  -28.7751  -16.8952   20.4402 C   0  0  2  0  0  0
  -27.6163  -16.1164   22.7388 C   0  0  0  0  0  0
  -30.5517  -20.9808   18.8809 C   0  0  0  0  0  0
  -30.3807  -24.9663   22.3999 C   0  0  0  0  0  0
  -27.7601  -17.1429   21.6081 C   0  0  0  0  0  0
  -29.8865  -20.8760   20.2669 C   0  0  2  0  0  0
  -30.0135  -16.1298   20.8798 N   0  0  0  0  0  0
  -29.6815  -19.3647   20.6931 N   0  3  2  0  0  0
  -29.7853  -23.7205   22.0613 O   0  0  0  0  0  0
  -31.4575  -12.6853   19.1723 H   0  0  0  0  0  0
  -30.3940  -11.6004   20.0040 H   0  0  0  0  0  0
  -29.8051  -11.7204   17.5691 H   0  0  0  0  0  0
  -29.6176  -13.4484   17.6708 H   0  0  0  0  0  0
  -27.8771  -11.3006   18.9041 H   0  0  0  0  0  0
  -27.3690  -12.5483   17.7994 H   0  0  0  0  0  0
  -27.5941  -14.2560   19.4509 H   0  0  0  0  0  0
  -28.7627  -12.2127   21.3935 H   0  0  0  0  0  0
  -28.4263  -13.8542   21.8067 H   0  0  0  0  0  0
  -25.2726   -9.5683   22.4825 H   0  0  0  0  0  0
  -23.9986   -7.4592   22.7459 H   0  0  0  0  0  0
  -21.0870   -8.8759   19.8923 H   0  0  0  0  0  0
  -22.3713  -10.9663   19.6192 H   0  0  0  0  0  0
  -21.2005   -7.6121   23.9746 H   0  0  0  0  0  0
  -21.1533   -6.0477   25.9075 H   0  0  0  0  0  0
  -22.0580   -2.7609   23.2798 H   0  0  0  0  0  0
  -22.3851  -11.9864   22.4960 H   0  0  0  0  0  0
  -21.0906  -13.1247   22.2618 H   0  0  0  0  0  0
  -24.6044  -15.8222   20.5042 H   0  0  0  0  0  0
  -26.2183  -15.6279   20.0427 H   0  0  0  0  0  0
  -26.7250  -32.5354   23.1039 H   0  0  0  0  0  0
  -25.0102  -33.9659   25.0375 H   0  0  0  0  0  0
  -22.7386  -31.2927   21.3842 H   0  0  0  0  0  0
  -23.3780  -35.9556   23.3271 H   0  0  0  0  0  0
  -24.3589  -36.8914   22.2057 H   0  0  0  0  0  0
  -23.7227  -37.6430   23.6694 H   0  0  0  0  0  0
  -26.1523  -31.4967   20.6199 H   0  0  0  0  0  0
  -26.8642  -30.7807   22.0331 H   0  0  0  0  0  0
  -28.1330  -28.8469   21.2301 H   0  0  0  0  0  0
  -25.9382  -25.9105   18.9543 H   0  0  0  0  0  0
  -23.9899  -27.3141   18.9731 H   0  0  0  0  0  0
  -23.7938  -30.5723   19.3974 H   0  0  0  0  0  0
  -22.7854  -29.2340   19.8515 H   0  0  0  0  0  0
  -25.1316  -36.1870   25.0810 H   0  0  0  0  0  0
  -21.0004  -28.3263   24.1367 H   0  0  0  0  0  0
  -20.5678  -26.2300   23.3608 H   0  0  0  0  0  0
  -21.6650  -26.7400   22.1197 H   0  0  0  0  0  0
  -19.6907  -25.6270   21.1252 H   0  0  0  0  0  0
  -19.6693  -27.3153   20.6714 H   0  0  0  0  0  0
  -17.4210  -26.6669   21.4005 H   0  0  0  0  0  0
  -18.0318  -26.0057   22.9011 H   0  0  0  0  0  0
  -19.7945  -30.7281   24.2210 H   0  0  0  0  0  0
  -17.5013  -31.6251   24.5142 H   0  0  0  0  0  0
  -15.5343  -30.2929   23.7684 H   0  0  0  0  0  0
  -15.8701  -28.0778   22.7078 H   0  0  0  0  0  0
  -24.5832  -30.7129   25.7692 H   0  0  0  0  0  0
  -24.8867  -32.2936   26.4794 H   0  0  0  0  0  0
  -25.7928  -30.8919   27.0206 H   0  0  0  0  0  0
  -26.2971  -29.6696   24.1286 H   0  0  0  0  0  0
  -27.3977  -29.7266   25.4851 H   0  0  0  0  0  0
  -27.8885  -30.4212   23.9599 H   0  0  0  0  0  0
  -27.2603  -33.3648   26.2037 H   0  0  0  0  0  0
  -28.3854  -32.6877   25.0359 H   0  0  0  0  0  0
  -28.0664  -31.8498   26.5471 H   0  0  0  0  0  0
  -28.2561  -38.0120   24.7549 H   0  0  0  0  0  0
  -28.1122  -36.2644   24.6220 H   0  0  0  0  0  0
  -27.2300  -37.1348   25.8856 H   0  0  0  0  0  0
  -20.9448  -29.8767   21.6835 H   0  0  0  0  0  0
  -26.0159  -38.2825   24.1398 H   0  0  0  0  0  0
  -28.1328  -22.1252   18.4385 H   0  0  0  0  0  0
  -26.8735  -21.7163   19.5686 H   0  0  0  0  0  0
  -26.2345  -23.9331   19.6243 H   0  0  0  0  0  0
  -27.4663  -24.2848   18.4216 H   0  0  0  0  0  0
  -30.4085  -17.2016   22.6300 H   0  0  0  0  0  0
  -31.8401  -16.7765   21.7876 H   0  0  0  0  0  0
  -31.6081  -18.6146   20.2069 H   0  0  0  0  0  0
  -31.4803  -19.2332   21.8242 H   0  0  0  0  0  0
  -28.0292  -18.7857   19.4945 H   0  0  0  0  0  0
  -29.5561  -18.2726   18.8624 H   0  0  0  0  0  0
  -28.2436  -21.8502   21.4248 H   0  0  0  0  0  0
  -27.4823  -24.6897   21.3821 H   0  0  0  0  0  0
  -30.0879  -23.8527   20.0223 H   0  0  0  0  0  0
  -28.2917  -16.2869   19.6765 H   0  0  0  0  0  0
  -27.0837  -16.5699   23.5749 H   0  0  0  0  0  0
  -28.5765  -15.7775   23.1280 H   0  0  0  0  0  0
  -27.0214  -15.2588   22.4400 H   0  0  0  0  0  0
  -30.7492  -22.0204   18.6175 H   0  0  0  0  0  0
  -29.9282  -20.5523   18.0967 H   0  0  0  0  0  0
  -31.5151  -20.4714   18.8630 H   0  0  0  0  0  0
  -30.9095  -24.8725   23.3488 H   0  0  0  0  0  0
  -29.6326  -25.7507   22.5188 H   0  0  0  0  0  0
  -31.1049  -25.2819   21.6492 H   0  0  0  0  0  0
  -26.7777  -17.3603   21.1872 H   0  0  0  0  0  0
  -28.0260  -18.0644   22.1236 H   0  0  0  0  0  0
  -30.6685  -21.1839   20.9639 H   0  0  0  0  0  0
  -29.1274  -19.4086   21.5358 H   0  0  0  0  0  0
  1 25  1  0  0  0
  1 30  2  0  0  0
  1 85  1  0  0  0
  2  3  1  0  0  0
  2 25  1  0  0  0
  2 88  1  0  0  0
  2 89  1  0  0  0
  3  4  1  0  0  0
  3 90  1  0  0  0
  3 91  1  0  0  0
  4  5  1  0  0  0
  4 92  1  0  0  0
  4 93  1  0  0  0
  5  6  1  0  0  0
  5 26  1  0  0  0
  5 94  1  0  0  0
  6 25  1  0  0  0
  6 95  1  0  0  0
  6 96  1  0  0  0
  7  8  2  0  0  0
  7 26  1  0  0  0
  7 29  1  0  0  0
  8  9  1  0  0  0
  8 22  1  0  0  0
  9 10  1  0  0  0
  9 27  2  0  0  0
 10 11  2  0  0  0
 10 15  1  0  0  0
 11 12  1  0  0  0
 11 97  1  0  0  0
 12 13  2  0  0  0
 12 98  1  0  0  0
 13 14  1  0  0  0
 13 31  1  0  0  0
 14 15  2  0  0  0
 14 99  1  0  0  0
 15100  1  0  0  0
 16 17  2  0  0  0
 16 21  1  0  0  0
 16 31  1  0  0  0
 17 18  1  0  0  0
 17101  1  0  0  0
 18 19  2  0  0  0
 18102  1  0  0  0
 19 20  1  0  0  0
 19 24  1  0  0  0
 20 21  2  0  0  0
 20103  1  0  0  0
 21 23  1  0  0  0
 22 28  1  0  0  0
 22 32  2  0  0  0
 26 27  1  0  0  0
 28104  1  0  0  0
 28105  1  0  0  0
 29106  1  0  0  0
 29107  1  0  0  0
 33 34  1  0  0  0
 33 66  1  0  0  0
 33 70  2  0  0  0
 34 36  1  0  0  0
 34 59  1  0  0  0
 34108  1  0  0  0
 35 44  2  0  0  0
 35 45  1  0  0  0
 35 68  1  0  0  0
 36 56  1  0  0  0
 36109  1  0  0  0
 37 39  1  0  0  0
 37 47  1  0  0  0
 37 66  1  0  0  0
 37110  1  0  0  0
 38 43  2  0  0  0
 38 46  1  0  0  0
 38 47  1  0  0  0
 39 64  1  0  0  0
 39 67  2  0  0  0
 40 52  1  0  0  0
 40 53  2  0  0  0
 40 58  1  0  0  0
 41111  1  0  0  0
 41112  1  0  0  0
 41113  1  0  0  0
 41 48  1  0  0  0
 42 43  1  0  0  0
 42 66  1  0  0  0
 42114  1  0  0  0
 42115  1  0  0  0
 43 44  1  0  0  0
 44116  1  0  0  0
 45 46  2  0  0  0
 45117  1  0  0  0
 46118  1  0  0  0
 47119  1  0  0  0
 47120  1  0  0  0
 48 56  1  0  0  0
 48 65  1  0  0  0
 48121  1  0  0  0
 49 50  1  0  0  0
 49 53  1  0  0  0
 49 64  1  0  0  0
 49122  1  0  0  0
 50 51  1  0  0  0
 50123  1  0  0  0
 50124  1  0  0  0
 51 52  1  0  0  0
 51125  1  0  0  0
 51126  1  0  0  0
 52127  1  0  0  0
 52128  1  0  0  0
 53 54  1  0  0  0
 54 55  2  0  0  0
 54129  1  0  0  0
 55 57  1  0  0  0
 55130  1  0  0  0
 56 69  2  0  0  0
 57 58  2  0  0  0
 57131  1  0  0  0
 58132  1  0  0  0
 59 60  1  0  0  0
 59 61  1  0  0  0
 59 62  1  0  0  0
 60133  1  0  0  0
 60134  1  0  0  0
 60135  1  0  0  0
 61136  1  0  0  0
 61137  1  0  0  0
 61138  1  0  0  0
 62139  1  0  0  0
 62140  1  0  0  0
 62141  1  0  0  0
 63 65  1  0  0  0
 63142  1  0  0  0
 63143  1  0  0  0
 63144  1  0  0  0
 64145  1  0  0  0
 65146  1  0  0  0
 68 77  1  0  0  0
 71 72  1  0  0  0
 71147  1  0  0  0
 71148  1  0  0  0
 71 76  1  0  0  0
 72 77  1  0  0  0
 72149  1  0  0  0
 72150  1  0  0  0
 73 74  1  0  0  0
 73 85  1  0  0  0
 73151  1  0  0  0
 73152  1  0  0  0
 74153  1  0  0  0
 74154  1  0  0  0
 74 86  1  0  0  0
 75 79  1  0  0  0
 75 86  1  0  0  0
 75155  1  0  0  0
 75156  1  0  0  0
 76 78  1  0  0  0
 76 84  1  0  0  0
 76157  1  0  0  0
 77 78  1  0  0  0
 77158  1  0  0  0
 78 87  1  0  0  0
 78159  1  0  0  0
 79 83  1  0  0  0
 79 85  1  0  0  0
 79160  1  0  0  0
 80 83  1  0  0  0
 80161  1  0  0  0
 80162  1  0  0  0
 80163  1  0  0  0
 81164  1  0  0  0
 81165  1  0  0  0
 81166  1  0  0  0
 81 84  1  0  0  0
 82 87  1  0  0  0
 82167  1  0  0  0
 82168  1  0  0  0
 82169  1  0  0  0
 83170  1  0  0  0
 83171  1  0  0  0
 84 86  1  0  0  0
 84172  1  0  0  0
 86173  1  0  0  0
M  CHG  1  86   1
M  ISO  4   1 100  68 101  77 101  85 100
M  END
> <chiral flag>
0

> <version>
0

> <s_m_source_file>
/data/baiqing/PycharmProjects/Reinvent-master-3.2/result/LINK_invent/BTK/process_docking_weight1_custom_sum_contain_oxygen_bond_distance_aromatic_linkinvent_7_9_3/rearranged_h_0143.sdf

> <i_m_source_file_index>
61

> <r_mmod_Potential_Energy-OPLS-2005>
666.55810546875

> <r_mmod_Stretch_Energy-OPLS-2005>
202.395248413086

> <r_mmod_Bend_Energy-OPLS-2005>
323.632049560547

> <r_mmod_Torsional_Energy-OPLS-2005>
477.869537353516

> <r_mmod_Improper_Torsional_Energy-OPLS-2005>
2.25306272506714

> <r_mmod_Van_der_Waal_Energy-OPLS-2005>
125.409187316895

> <r_mmod_Electrostatic_Energy-OPLS-2005>
-195.731826782227

> <r_mmod_Solvation_Energy-OPLS-2005>
-415.299865722656

> <b_mmod_Minimization_Converged-OPLS-2005>
0

> <r_mmod_RMS_Derivative-OPLS-2005>
3.71431040763855

$$$$
61
                    3D
 Structure written by MMmdl.
157166  0  0  1  0            999 V2000
  -30.6052  -14.8971   20.4336 C   0  0  0  0  0  0
  -30.4345  -12.5717   19.4491 C   0  0  0  0  0  0
  -29.5083  -12.5561   18.2119 C   0  0  0  0  0  0
  -28.0372  -12.3433   18.6259 C   0  0  0  0  0  0
  -27.6325  -13.2339   19.8281 C   0  0  2  0  0  0
  -28.6935  -13.2171   20.9566 C   0  0  0  0  0  0
  -25.2412  -13.8152   20.5565 C   0  0  0  0  0  0
  -24.1777  -13.0380   20.9189 C   0  0  0  0  0  0
  -24.6413  -11.6882   20.8750 C   0  0  0  0  0  0
  -23.9102  -10.4251   21.0419 C   0  0  0  0  0  0
  -24.3622   -9.4160   21.9209 C   0  0  0  0  0  0
  -23.6279   -8.2199   22.0765 C   0  0  0  0  0  0
  -22.4264   -8.0254   21.3544 C   0  0  0  0  0  0
  -21.9920   -9.0242   20.4653 C   0  0  0  0  0  0
  -22.7267  -10.2106   20.3062 C   0  0  0  0  0  0
  -21.6829   -6.0713   22.5282 C   0  0  0  0  0  0
  -21.4004   -6.5621   23.8216 C   0  0  0  0  0  0
  -21.3673   -5.6779   24.9181 C   0  0  0  0  0  0
  -21.6046   -4.3041   24.7236 C   0  0  0  0  0  0
  -21.8814   -3.8126   23.4361 C   0  0  0  0  0  0
  -21.9182   -4.6942   22.3406 C   0  0  0  0  0  0
  -22.7787  -13.5169   21.1862 C   0  0  0  0  0  0
  -22.1642   -4.2127   21.0983 F   0  0  0  0  0  0
  -21.5654   -3.4528   25.7754 F   0  0  0  0  0  0
  -29.9595  -13.6605   20.3529 N   0  0  0  0  0  0
  -26.2898  -12.9393   20.3190 N   0  0  0  0  0  0
  -25.9346  -11.6539   20.5719 N   0  0  0  0  0  0
  -22.0451  -12.8181   22.0451 N   0  0  0  0  0  0
  -25.3954  -15.1851   20.3790 N   0  0  0  0  0  0
  -31.8057  -14.9131   20.1413 O   0  0  0  0  0  0
  -21.6614   -6.8857   21.4242 O   0  0  0  0  0  0
  -22.3477  -14.5447   20.6685 O   0  0  0  0  0  0
  -24.6402  -31.8514   23.1976 C   0  0  0  0  0  0
  -25.9190  -32.4753   23.8345 C   0  0  1  0  0  0
  -27.1998  -27.1742   20.1389 C   0  0  0  0  0  0
  -25.5950  -33.8559   24.2251 N   0  0  0  0  0  0
  -23.4393  -30.4779   21.5446 C   0  0  2  0  0  0
  -24.8826  -28.9222   20.1101 C   0  0  0  0  0  0
  -22.7551  -29.4594   22.4902 C   0  0  0  0  0  0
  -18.0299  -28.1389   22.8489 C   0  0  0  0  0  0
  -24.1477  -36.7297   23.2648 C   0  0  0  0  0  0
  -25.9952  -30.7385   21.3882 C   0  0  0  0  0  0
  -26.0647  -29.3563   20.7246 C   0  0  0  0  0  0
  -27.2261  -28.4995   20.7238 C   0  0  0  0  0  0
  -25.9884  -26.8480   19.4787 C   0  0  0  0  0  0
  -24.8554  -27.6780   19.4750 C   0  0  0  0  0  0
  -23.6605  -29.8231   20.1588 C   0  0  0  0  0  0
  -25.4109  -36.3087   24.0327 C   0  0  1  0  0  0
  -20.5920  -28.3721   23.1257 C   0  0  2  0  0  0
  -20.6795  -26.9429   22.5408 C   0  0  0  0  0  0
  -19.5776  -26.6370   21.5220 C   0  0  0  0  0  0
  -18.1942  -26.7924   22.1623 C   0  0  0  0  0  0
  -19.1562  -28.8872   23.2865 C   0  0  0  0  0  0
  -18.9484  -30.1470   23.8886 C   0  0  0  0  0  0
  -17.6488  -30.6597   24.0566 C   0  0  0  0  0  0
  -25.9055  -34.9453   23.5091 C   0  0  0  0  0  0
  -16.5377  -29.9093   23.6350 C   0  0  0  0  0  0
  -16.7288  -28.6507   23.0376 C   0  0  0  0  0  0
  -26.4502  -31.6608   25.0773 C   0  0  0  0  0  0
  -25.3702  -31.3765   26.1474 C   0  0  0  0  0  0
  -27.0366  -30.3024   24.6307 C   0  0  0  0  0  0
  -27.6011  -32.4390   25.7581 C   0  0  0  0  0  0
  -27.5575  -37.1808   24.8460 C   0  0  0  0  0  0
  -21.4257  -29.3054   22.3634 N   0  0  0  0  0  0
  -26.4286  -37.3787   23.9406 N   0  0  0  0  0  0
  -24.7122  -31.0410   22.0988 N   0  0  0  0  0  0
  -23.4212  -28.8132   23.3029 O   0  0  0  0  0  0
  -28.2317  -26.1715   20.2233 O   0  0  0  0  0  0
  -26.5642  -34.8932   22.4670 O   0  0  0  0  0  0
  -23.5529  -32.1371   23.7223 O   0  0  0  0  0  0
  -28.9167  -21.2031   21.6786 C   0  0  0  0  0  0
  -29.3506  -21.0203   19.3619 C   0  0  0  0  0  0
  -28.5798  -22.6013   21.5292 C   0  0  0  0  0  0
  -29.0228  -22.4293   19.2134 C   0  0  0  0  0  0
  -29.2811  -20.3160   20.6073 C   0  0  0  0  0  0
  -28.5922  -23.2955   20.2791 C   0  0  0  0  0  0
  -30.4048  -17.5830   20.2112 C   0  0  0  0  0  0
  -28.6136  -16.4109   21.1606 C   0  0  0  0  0  0
  -29.4412  -18.7026   20.8834 C   0  0  2  0  0  0
  -28.1633  -17.8629   20.8202 C   0  0  2  0  0  0
  -26.9980  -18.3596   21.6820 C   0  0  0  0  0  0
  -27.8056  -24.7055   20.0169 C   0  0  0  0  0  0
  -29.9157  -16.1459   20.5292 N   0  0  0  0  0  0
  -31.4678  -12.7168   19.1275 H   0  0  0  0  0  0
  -30.4161  -11.6032   19.9487 H   0  0  0  0  0  0
  -29.8210  -11.7820   17.5100 H   0  0  0  0  0  0
  -29.6013  -13.5070   17.6824 H   0  0  0  0  0  0
  -27.9016  -11.2888   18.8654 H   0  0  0  0  0  0
  -27.3797  -12.5471   17.7782 H   0  0  0  0  0  0
  -27.5958  -14.2317   19.3968 H   0  0  0  0  0  0
  -28.7933  -12.2138   21.3702 H   0  0  0  0  0  0
  -28.4072  -13.8467   21.7989 H   0  0  0  0  0  0
  -25.2771   -9.5597   22.4791 H   0  0  0  0  0  0
  -23.9970   -7.4568   22.7465 H   0  0  0  0  0  0
  -21.0858   -8.8755   19.8940 H   0  0  0  0  0  0
  -22.3755  -10.9633   19.6142 H   0  0  0  0  0  0
  -21.1981   -7.6129   23.9722 H   0  0  0  0  0  0
  -21.1516   -6.0506   25.9094 H   0  0  0  0  0  0
  -22.0581   -2.7593   23.2859 H   0  0  0  0  0  0
  -22.4035  -11.9827   22.4829 H   0  0  0  0  0  0
  -21.1041  -13.1196   22.2598 H   0  0  0  0  0  0
  -24.6256  -15.8379   20.4752 H   0  0  0  0  0  0
  -26.2499  -15.6257   20.0696 H   0  0  0  0  0  0
  -26.7263  -32.5359   23.1076 H   0  0  0  0  0  0
  -25.0056  -33.9680   25.0376 H   0  0  0  0  0  0
  -22.7383  -31.3037   21.4032 H   0  0  0  0  0  0
  -23.3749  -35.9619   23.3303 H   0  0  0  0  0  0
  -24.3549  -36.8935   22.2062 H   0  0  0  0  0  0
  -23.7212  -37.6483   23.6689 H   0  0  0  0  0  0
  -26.1435  -31.4974   20.6181 H   0  0  0  0  0  0
  -26.8687  -30.7839   22.0262 H   0  0  0  0  0  0
  -28.1221  -28.8293   21.2311 H   0  0  0  0  0  0
  -25.8455  -25.9054   18.9755 H   0  0  0  0  0  0
  -23.9520  -27.3392   18.9853 H   0  0  0  0  0  0
  -23.7970  -30.6077   19.4134 H   0  0  0  0  0  0
  -22.7725  -29.2730   19.8436 H   0  0  0  0  0  0
  -25.1292  -36.1932   25.0822 H   0  0  0  0  0  0
  -21.0010  -28.3320   24.1373 H   0  0  0  0  0  0
  -20.5698  -26.2328   23.3623 H   0  0  0  0  0  0
  -21.6675  -26.7472   22.1219 H   0  0  0  0  0  0
  -19.6935  -25.6249   21.1308 H   0  0  0  0  0  0
  -19.6732  -27.3146   20.6725 H   0  0  0  0  0  0
  -17.4204  -26.6676   21.4040 H   0  0  0  0  0  0
  -18.0342  -26.0078   22.9040 H   0  0  0  0  0  0
  -19.7965  -30.7299   24.2226 H   0  0  0  0  0  0
  -17.5045  -31.6282   24.5173 H   0  0  0  0  0  0
  -15.5380  -30.2993   23.7687 H   0  0  0  0  0  0
  -15.8675  -28.0827   22.7101 H   0  0  0  0  0  0
  -24.5843  -30.7163   25.7778 H   0  0  0  0  0  0
  -24.8939  -32.2937   26.4952 H   0  0  0  0  0  0
  -25.7989  -30.8881   27.0231 H   0  0  0  0  0  0
  -26.2971  -29.6773   24.1276 H   0  0  0  0  0  0
  -27.3951  -29.7290   25.4861 H   0  0  0  0  0  0
  -27.8897  -30.4289   23.9641 H   0  0  0  0  0  0
  -27.2552  -33.3663   26.2163 H   0  0  0  0  0  0
  -28.3826  -32.7002   25.0441 H   0  0  0  0  0  0
  -28.0676  -31.8535   26.5504 H   0  0  0  0  0  0
  -28.2600  -38.0103   24.7523 H   0  0  0  0  0  0
  -28.1068  -36.2632   24.6278 H   0  0  0  0  0  0
  -27.2294  -37.1455   25.8867 H   0  0  0  0  0  0
  -20.9461  -29.8753   21.6814 H   0  0  0  0  0  0
  -26.0167  -38.2862   24.1408 H   0  0  0  0  0  0
  -28.8170  -20.7777   22.6690 H   0  0  0  0  0  0
  -29.6116  -20.4638   18.4712 H   0  0  0  0  0  0
  -28.2148  -23.1312   22.4013 H   0  0  0  0  0  0
  -29.0277  -22.8341   18.2100 H   0  0  0  0  0  0
  -30.4055  -17.7039   19.1262 H   0  0  0  0  0  0
  -31.4373  -17.7174   20.5387 H   0  0  0  0  0  0
  -27.8455  -15.7286   20.8414 H   0  0  0  0  0  0
  -28.7214  -16.2822   22.2383 H   0  0  0  0  0  0
  -29.7444  -18.6852   21.9315 H   0  0  0  0  0  0
  -27.8198  -17.8700   19.7826 H   0  0  0  0  0  0
  -26.6969  -19.3675   21.3963 H   0  0  0  0  0  0
  -27.2588  -18.3693   22.7398 H   0  0  0  0  0  0
  -26.1232  -17.7203   21.5572 H   0  0  0  0  0  0
  -26.8883  -24.5890   20.6005 H   0  0  0  0  0  0
  -27.5065  -24.6214   18.9737 H   0  0  0  0  0  0
  1 25  1  0  0  0
  1 30  2  0  0  0
  1 83  1  0  0  0
  2  3  1  0  0  0
  2 25  1  0  0  0
  2 84  1  0  0  0
  2 85  1  0  0  0
  3  4  1  0  0  0
  3 86  1  0  0  0
  3 87  1  0  0  0
  4  5  1  0  0  0
  4 88  1  0  0  0
  4 89  1  0  0  0
  5  6  1  0  0  0
  5 26  1  0  0  0
  5 90  1  0  0  0
  6 25  1  0  0  0
  6 91  1  0  0  0
  6 92  1  0  0  0
  7  8  2  0  0  0
  7 26  1  0  0  0
  7 29  1  0  0  0
  8  9  1  0  0  0
  8 22  1  0  0  0
  9 10  1  0  0  0
  9 27  2  0  0  0
 10 11  2  0  0  0
 10 15  1  0  0  0
 11 12  1  0  0  0
 11 93  1  0  0  0
 12 13  2  0  0  0
 12 94  1  0  0  0
 13 14  1  0  0  0
 13 31  1  0  0  0
 14 15  2  0  0  0
 14 95  1  0  0  0
 15 96  1  0  0  0
 16 17  2  0  0  0
 16 21  1  0  0  0
 16 31  1  0  0  0
 17 18  1  0  0  0
 17 97  1  0  0  0
 18 19  2  0  0  0
 18 98  1  0  0  0
 19 20  1  0  0  0
 19 24  1  0  0  0
 20 21  2  0  0  0
 20 99  1  0  0  0
 21 23  1  0  0  0
 22 28  1  0  0  0
 22 32  2  0  0  0
 26 27  1  0  0  0
 28100  1  0  0  0
 28101  1  0  0  0
 29102  1  0  0  0
 29103  1  0  0  0
 33 34  1  0  0  0
 33 66  1  0  0  0
 33 70  2  0  0  0
 34 36  1  0  0  0
 34 59  1  0  0  0
 34104  1  0  0  0
 35 44  2  0  0  0
 35 45  1  0  0  0
 35 68  1  0  0  0
 36 56  1  0  0  0
 36105  1  0  0  0
 37 39  1  0  0  0
 37 47  1  0  0  0
 37 66  1  0  0  0
 37106  1  0  0  0
 38 43  2  0  0  0
 38 46  1  0  0  0
 38 47  1  0  0  0
 39 64  1  0  0  0
 39 67  2  0  0  0
 40 52  1  0  0  0
 40 53  2  0  0  0
 40 58  1  0  0  0
 41107  1  0  0  0
 41108  1  0  0  0
 41109  1  0  0  0
 41 48  1  0  0  0
 42 43  1  0  0  0
 42 66  1  0  0  0
 42110  1  0  0  0
 42111  1  0  0  0
 43 44  1  0  0  0
 44112  1  0  0  0
 45 46  2  0  0  0
 45113  1  0  0  0
 46114  1  0  0  0
 47115  1  0  0  0
 47116  1  0  0  0
 48 56  1  0  0  0
 48 65  1  0  0  0
 48117  1  0  0  0
 49 50  1  0  0  0
 49 53  1  0  0  0
 49 64  1  0  0  0
 49118  1  0  0  0
 50 51  1  0  0  0
 50119  1  0  0  0
 50120  1  0  0  0
 51 52  1  0  0  0
 51121  1  0  0  0
 51122  1  0  0  0
 52123  1  0  0  0
 52124  1  0  0  0
 53 54  1  0  0  0
 54 55  2  0  0  0
 54125  1  0  0  0
 55 57  1  0  0  0
 55126  1  0  0  0
 56 69  2  0  0  0
 57 58  2  0  0  0
 57127  1  0  0  0
 58128  1  0  0  0
 59 60  1  0  0  0
 59 61  1  0  0  0
 59 62  1  0  0  0
 60129  1  0  0  0
 60130  1  0  0  0
 60131  1  0  0  0
 61132  1  0  0  0
 61133  1  0  0  0
 61134  1  0  0  0
 62135  1  0  0  0
 62136  1  0  0  0
 62137  1  0  0  0
 63 65  1  0  0  0
 63138  1  0  0  0
 63139  1  0  0  0
 63140  1  0  0  0
 64141  1  0  0  0
 65142  1  0  0  0
 68 82  1  0  0  0
 71 73  2  0  0  0
 71 75  1  0  0  0
 71143  1  0  0  0
 72 74  1  0  0  0
 72 75  2  0  0  0
 72144  1  0  0  0
 73 76  1  0  0  0
 73145  1  0  0  0
 74 76  2  0  0  0
 74146  1  0  0  0
 75 79  1  0  0  0
 76 82  1  0  0  0
 77 79  1  0  0  0
 77 83  1  0  0  0
 77147  1  0  0  0
 77148  1  0  0  0
 78 80  1  0  0  0
 78 83  1  0  0  0
 78149  1  0  0  0
 78150  1  0  0  0
 79 80  1  0  0  0
 79151  1  0  0  0
 80 81  1  0  0  0
 80152  1  0  0  0
 81153  1  0  0  0
 81154  1  0  0  0
 81155  1  0  0  0
 82156  1  0  0  0
 82157  1  0  0  0
M  ISO  4   1 100  68 101  82 101  83 100
M  END
> <chiral flag>
0

> <version>
0

> <s_m_source_file>
/data/baiqing/PycharmProjects/Reinvent-master-3.2/result/LINK_invent/BTK/process_docking_weight1_custom_sum_contain_oxygen_bond_distance_aromatic_linkinvent_7_9_3/rearranged_h_0143.sdf

> <i_m_source_file_index>
62

> <r_mmod_Potential_Energy-OPLS-2005>
632.417602539062

> <r_mmod_Stretch_Energy-OPLS-2005>
192.740951538086

> <r_mmod_Bend_Energy-OPLS-2005>
296.109527587891

> <r_mmod_Torsional_Energy-OPLS-2005>
318.391845703125

> <r_mmod_Improper_Torsional_Energy-OPLS-2005>
11.8121795654297

> <r_mmod_Van_der_Waal_Energy-OPLS-2005>
141.237426757812

> <r_mmod_Electrostatic_Energy-OPLS-2005>
-288.345184326172

> <r_mmod_Solvation_Energy-OPLS-2005>
-198.994918823242

> <b_mmod_Minimization_Converged-OPLS-2005>
0

> <r_mmod_RMS_Derivative-OPLS-2005>
3.70479798316956

$$$$
62
                    3D
 Structure written by MMmdl.
156165  0  0  1  0            999 V2000
  -30.5364  -15.0251   20.3644 C   0  0  0  0  0  0
  -30.4403  -12.6293   19.5112 C   0  0  0  0  0  0
  -29.5285  -12.5267   18.2676 C   0  0  0  0  0  0
  -28.0723  -12.2869   18.7041 C   0  0  0  0  0  0
  -27.6310  -13.2509   19.8365 C   0  0  2  0  0  0
  -28.6714  -13.3410   20.9747 C   0  0  0  0  0  0
  -25.2516  -13.8216   20.5719 C   0  0  0  0  0  0
  -24.1823  -13.0441   20.9224 C   0  0  0  0  0  0
  -24.6444  -11.6922   20.8779 C   0  0  0  0  0  0
  -23.9126  -10.4287   21.0442 C   0  0  0  0  0  0
  -24.3661   -9.4198   21.9206 C   0  0  0  0  0  0
  -23.6308   -8.2244   22.0784 C   0  0  0  0  0  0
  -22.4299   -8.0310   21.3572 C   0  0  0  0  0  0
  -21.9943   -9.0292   20.4670 C   0  0  0  0  0  0
  -22.7297  -10.2148   20.3077 C   0  0  0  0  0  0
  -21.6843   -6.0761   22.5279 C   0  0  0  0  0  0
  -21.4008   -6.5656   23.8202 C   0  0  0  0  0  0
  -21.3641   -5.6802   24.9169 C   0  0  0  0  0  0
  -21.6033   -4.3070   24.7220 C   0  0  0  0  0  0
  -21.8822   -3.8163   23.4323 C   0  0  0  0  0  0
  -21.9191   -4.6986   22.3394 C   0  0  0  0  0  0
  -22.7836  -13.5215   21.1856 C   0  0  0  0  0  0
  -22.1664   -4.2164   21.0966 F   0  0  0  0  0  0
  -21.5617   -3.4549   25.7719 F   0  0  0  0  0  0
  -29.9406  -13.7559   20.3626 N   0  0  0  0  0  0
  -26.2937  -12.9436   20.3268 N   0  0  0  0  0  0
  -25.9379  -11.6578   20.5792 N   0  0  0  0  0  0
  -22.0483  -12.8223   22.0412 N   0  0  0  0  0  0
  -25.4164  -15.1955   20.4130 N   0  0  0  0  0  0
  -31.7463  -15.0364   20.1011 O   0  0  0  0  0  0
  -21.6653   -6.8920   21.4247 O   0  0  0  0  0  0
  -22.3507  -14.5516   20.6690 O   0  0  0  0  0  0
  -24.6439  -31.8385   23.1829 C   0  0  0  0  0  0
  -25.9176  -32.4685   23.8238 C   0  0  1  0  0  0
  -27.2192  -27.1077   20.1461 C   0  0  0  0  0  0
  -25.5934  -33.8502   24.2146 N   0  0  0  0  0  0
  -23.4480  -30.4534   21.5307 C   0  0  2  0  0  0
  -24.8963  -28.8777   20.0978 C   0  0  0  0  0  0
  -22.7593  -29.4477   22.4885 C   0  0  0  0  0  0
  -18.0279  -28.1342   22.8522 C   0  0  0  0  0  0
  -24.1493  -36.7235   23.2670 C   0  0  0  0  0  0
  -26.0037  -30.7045   21.3843 C   0  0  0  0  0  0
  -26.0716  -29.3133   20.7242 C   0  0  0  0  0  0
  -27.2240  -28.4408   20.7363 C   0  0  0  0  0  0
  -26.0204  -26.7772   19.4783 C   0  0  0  0  0  0
  -24.8863  -27.6250   19.4627 C   0  0  0  0  0  0
  -23.6697  -29.7777   20.1486 C   0  0  0  0  0  0
  -25.4129  -36.3017   24.0313 C   0  0  1  0  0  0
  -20.5915  -28.3643   23.1283 C   0  0  2  0  0  0
  -20.6771  -26.9355   22.5425 C   0  0  0  0  0  0
  -19.5713  -26.6313   21.5261 C   0  0  0  0  0  0
  -18.1879  -26.7898   22.1642 C   0  0  0  0  0  0
  -19.1558  -28.8811   23.2883 C   0  0  0  0  0  0
  -18.9480  -30.1440   23.8849 C   0  0  0  0  0  0
  -17.6479  -30.6568   24.0540 C   0  0  0  0  0  0
  -25.9059  -34.9411   23.5017 C   0  0  0  0  0  0
  -16.5343  -29.9046   23.6353 C   0  0  0  0  0  0
  -16.7261  -28.6467   23.0380 C   0  0  0  0  0  0
  -26.4487  -31.6613   25.0714 C   0  0  0  0  0  0
  -25.3661  -31.3833   26.1421 C   0  0  0  0  0  0
  -27.0403  -30.3036   24.6302 C   0  0  0  0  0  0
  -27.6006  -32.4424   25.7483 C   0  0  0  0  0  0
  -27.5547  -37.1775   24.8467 C   0  0  0  0  0  0
  -21.4281  -29.3004   22.3704 N   0  0  0  0  0  0
  -26.4256  -37.3756   23.9429 N   0  0  0  0  0  0
  -24.7197  -31.0223   22.0868 N   0  0  0  0  0  0
  -23.4287  -28.8042   23.3009 O   0  0  0  0  0  0
  -28.2776  -26.1282   20.2761 O   0  0  0  0  0  0
  -26.5668  -34.8916   22.4610 O   0  0  0  0  0  0
  -23.5543  -32.1236   23.7047 O   0  0  0  0  0  0
  -30.4854  -20.3622   19.0233 C   0  0  0  0  0  0
  -29.3065  -18.9572   20.5724 C   0  0  0  0  0  0
  -29.5378  -20.3472   20.0621 C   0  0  0  0  0  0
  -31.1407  -19.1858   18.5952 C   0  0  0  0  0  0
  -29.9918  -17.7153   20.0757 C   0  0  0  0  0  0
  -32.5802  -20.4426   16.7399 C   0  0  0  0  0  0
  -31.9331  -19.2368   16.0925 C   0  0  0  0  0  0
  -32.2447  -19.2229   17.5682 C   0  0  0  0  0  0
  -29.1317  -21.8576   20.6471 C   0  0  0  0  0  0
  -28.1468  -23.0795   19.9993 C   0  0  0  0  0  0
  -28.4342  -24.7209   19.6004 C   0  0  0  0  0  0
  -30.8861  -17.9450   19.0839 N   0  0  0  0  0  0
  -29.7822  -16.2449   20.5188 N   0  0  0  0  0  0
  -31.4735  -12.7793   19.1949 H   0  0  0  0  0  0
  -30.4349  -11.6910   20.0664 H   0  0  0  0  0  0
  -29.8622  -11.7189   17.6170 H   0  0  0  0  0  0
  -29.5954  -13.4417   17.6760 H   0  0  0  0  0  0
  -28.0136  -11.2584   19.0660 H   0  0  0  0  0  0
  -27.3927  -12.3495   17.8518 H   0  0  0  0  0  0
  -27.5800  -14.2366   19.3738 H   0  0  0  0  0  0
  -28.7817  -12.3920   21.5033 H   0  0  0  0  0  0
  -28.3570  -14.0758   21.7170 H   0  0  0  0  0  0
  -25.2817   -9.5640   22.4780 H   0  0  0  0  0  0
  -23.9985   -7.4639   22.7522 H   0  0  0  0  0  0
  -21.0858   -8.8849   19.8985 H   0  0  0  0  0  0
  -22.3797  -10.9706   19.6186 H   0  0  0  0  0  0
  -21.2008   -7.6169   23.9710 H   0  0  0  0  0  0
  -21.1445   -6.0540   25.9063 H   0  0  0  0  0  0
  -22.0612   -2.7625   23.2825 H   0  0  0  0  0  0
  -22.4081  -11.9858   22.4764 H   0  0  0  0  0  0
  -21.1139  -13.1288   22.2677 H   0  0  0  0  0  0
  -24.6409  -15.8431   20.5120 H   0  0  0  0  0  0
  -26.2602  -15.6388   20.0710 H   0  0  0  0  0  0
  -26.7246  -32.5262   23.0980 H   0  0  0  0  0  0
  -25.0171  -33.9670   25.0345 H   0  0  0  0  0  0
  -22.7508  -31.2778   21.3760 H   0  0  0  0  0  0
  -23.3764  -35.9548   23.3285 H   0  0  0  0  0  0
  -24.3595  -36.8877   22.2092 H   0  0  0  0  0  0
  -23.7206  -37.6401   23.6728 H   0  0  0  0  0  0
  -26.1658  -31.4621   20.6156 H   0  0  0  0  0  0
  -26.8780  -30.7514   22.0239 H   0  0  0  0  0  0
  -28.1134  -28.7667   21.2578 H   0  0  0  0  0  0
  -25.9198  -25.8116   19.0050 H   0  0  0  0  0  0
  -23.9874  -27.2830   18.9672 H   0  0  0  0  0  0
  -23.7865  -30.5491   19.3859 H   0  0  0  0  0  0
  -22.7850  -29.2097   19.8551 H   0  0  0  0  0  0
  -25.1322  -36.1796   25.0792 H   0  0  0  0  0  0
  -20.9972  -28.3115   24.1408 H   0  0  0  0  0  0
  -20.5668  -26.2228   23.3641 H   0  0  0  0  0  0
  -21.6622  -26.7320   22.1195 H   0  0  0  0  0  0
  -19.6880  -25.6229   21.1269 H   0  0  0  0  0  0
  -19.6633  -27.3165   20.6844 H   0  0  0  0  0  0
  -17.4192  -26.6707   21.4000 H   0  0  0  0  0  0
  -18.0151  -26.0022   22.8996 H   0  0  0  0  0  0
  -19.7956  -30.7281   24.2142 H   0  0  0  0  0  0
  -17.5021  -31.6255   24.5135 H   0  0  0  0  0  0
  -15.5353  -30.2935   23.7729 H   0  0  0  0  0  0
  -15.8651  -28.0784   22.7109 H   0  0  0  0  0  0
  -24.5812  -30.7204   25.7749 H   0  0  0  0  0  0
  -24.8908  -32.3070   26.4774 H   0  0  0  0  0  0
  -25.7941  -30.9045   27.0245 H   0  0  0  0  0  0
  -26.3054  -29.6765   24.1261 H   0  0  0  0  0  0
  -27.4033  -29.7312   25.4843 H   0  0  0  0  0  0
  -27.8925  -30.4356   23.9625 H   0  0  0  0  0  0
  -27.2577  -33.3792   26.1915 H   0  0  0  0  0  0
  -28.3892  -32.6890   25.0347 H   0  0  0  0  0  0
  -28.0611  -31.8649   26.5521 H   0  0  0  0  0  0
  -28.2552  -38.0090   24.7531 H   0  0  0  0  0  0
  -28.1028  -36.2615   24.6231 H   0  0  0  0  0  0
  -27.2278  -37.1317   25.8872 H   0  0  0  0  0  0
  -20.9454  -29.8815   21.7009 H   0  0  0  0  0  0
  -26.0069  -38.2781   24.1482 H   0  0  0  0  0  0
  -30.7689  -21.3206   18.6114 H   0  0  0  0  0  0
  -28.6187  -18.8487   21.4009 H   0  0  0  0  0  0
  -31.9701  -21.3382   16.8254 H   0  0  0  0  0  0
  -33.6392  -20.6187   16.5529 H   0  0  0  0  0  0
  -32.5516  -18.6410   15.4244 H   0  0  0  0  0  0
  -30.8878  -19.3307   15.8026 H   0  0  0  0  0  0
  -33.0967  -18.6270   17.8926 H   0  0  0  0  0  0
  -30.0979  -22.3415   20.7907 H   0  0  0  0  0  0
  -28.7851  -21.6900   21.6658 H   0  0  0  0  0  0
  -27.2025  -23.0452   20.5437 H   0  0  0  0  0  0
  -27.8728  -22.6460   19.0377 H   0  0  0  0  0  0
  -27.8772  -24.8538   18.6719 H   0  0  0  0  0  0
  -29.4666  -24.7216   19.2499 H   0  0  0  0  0  0
  -28.8627  -16.0746   20.8937 H   0  0  0  0  0  0
  1 25  1  0  0  0
  1 30  2  0  0  0
  1 83  1  0  0  0
  2  3  1  0  0  0
  2 25  1  0  0  0
  2 84  1  0  0  0
  2 85  1  0  0  0
  3  4  1  0  0  0
  3 86  1  0  0  0
  3 87  1  0  0  0
  4  5  1  0  0  0
  4 88  1  0  0  0
  4 89  1  0  0  0
  5  6  1  0  0  0
  5 26  1  0  0  0
  5 90  1  0  0  0
  6 25  1  0  0  0
  6 91  1  0  0  0
  6 92  1  0  0  0
  7  8  2  0  0  0
  7 26  1  0  0  0
  7 29  1  0  0  0
  8  9  1  0  0  0
  8 22  1  0  0  0
  9 10  1  0  0  0
  9 27  2  0  0  0
 10 11  2  0  0  0
 10 15  1  0  0  0
 11 12  1  0  0  0
 11 93  1  0  0  0
 12 13  2  0  0  0
 12 94  1  0  0  0
 13 14  1  0  0  0
 13 31  1  0  0  0
 14 15  2  0  0  0
 14 95  1  0  0  0
 15 96  1  0  0  0
 16 17  2  0  0  0
 16 21  1  0  0  0
 16 31  1  0  0  0
 17 18  1  0  0  0
 17 97  1  0  0  0
 18 19  2  0  0  0
 18 98  1  0  0  0
 19 20  1  0  0  0
 19 24  1  0  0  0
 20 21  2  0  0  0
 20 99  1  0  0  0
 21 23  1  0  0  0
 22 28  1  0  0  0
 22 32  2  0  0  0
 26 27  1  0  0  0
 28100  1  0  0  0
 28101  1  0  0  0
 29102  1  0  0  0
 29103  1  0  0  0
 33 34  1  0  0  0
 33 66  1  0  0  0
 33 70  2  0  0  0
 34 36  1  0  0  0
 34 59  1  0  0  0
 34104  1  0  0  0
 35 44  2  0  0  0
 35 45  1  0  0  0
 35 68  1  0  0  0
 36 56  1  0  0  0
 36105  1  0  0  0
 37 39  1  0  0  0
 37 47  1  0  0  0
 37 66  1  0  0  0
 37106  1  0  0  0
 38 43  2  0  0  0
 38 46  1  0  0  0
 38 47  1  0  0  0
 39 64  1  0  0  0
 39 67  2  0  0  0
 40 52  1  0  0  0
 40 53  2  0  0  0
 40 58  1  0  0  0
 41107  1  0  0  0
 41108  1  0  0  0
 41109  1  0  0  0
 41 48  1  0  0  0
 42 43  1  0  0  0
 42 66  1  0  0  0
 42110  1  0  0  0
 42111  1  0  0  0
 43 44  1  0  0  0
 44112  1  0  0  0
 45 46  2  0  0  0
 45113  1  0  0  0
 46114  1  0  0  0
 47115  1  0  0  0
 47116  1  0  0  0
 48 56  1  0  0  0
 48 65  1  0  0  0
 48117  1  0  0  0
 49 50  1  0  0  0
 49 53  1  0  0  0
 49 64  1  0  0  0
 49118  1  0  0  0
 50 51  1  0  0  0
 50119  1  0  0  0
 50120  1  0  0  0
 51 52  1  0  0  0
 51121  1  0  0  0
 51122  1  0  0  0
 52123  1  0  0  0
 52124  1  0  0  0
 53 54  1  0  0  0
 54 55  2  0  0  0
 54125  1  0  0  0
 55 57  1  0  0  0
 55126  1  0  0  0
 56 69  2  0  0  0
 57 58  2  0  0  0
 57127  1  0  0  0
 58128  1  0  0  0
 59 60  1  0  0  0
 59 61  1  0  0  0
 59 62  1  0  0  0
 60129  1  0  0  0
 60130  1  0  0  0
 60131  1  0  0  0
 61132  1  0  0  0
 61133  1  0  0  0
 61134  1  0  0  0
 62135  1  0  0  0
 62136  1  0  0  0
 62137  1  0  0  0
 63 65  1  0  0  0
 63138  1  0  0  0
 63139  1  0  0  0
 63140  1  0  0  0
 64141  1  0  0  0
 65142  1  0  0  0
 68 81  1  0  0  0
 71 73  2  0  0  0
 71 74  1  0  0  0
 71143  1  0  0  0
 72 73  1  0  0  0
 72 75  2  0  0  0
 72144  1  0  0  0
 73 79  1  0  0  0
 74 82  2  0  0  0
 74 78  1  0  0  0
 75 82  1  0  0  0
 75 83  1  0  0  0
 76 77  1  0  0  0
 76 78  1  0  0  0
 76145  1  0  0  0
 76146  1  0  0  0
 77 78  1  0  0  0
 77147  1  0  0  0
 77148  1  0  0  0
 78149  1  0  0  0
 79 80  1  0  0  0
 79150  1  0  0  0
 79151  1  0  0  0
 80 81  1  0  0  0
 80152  1  0  0  0
 80153  1  0  0  0
 81154  1  0  0  0
 81155  1  0  0  0
 83156  1  0  0  0
M  ISO  4   1 100  68 101  81 101  83 100
M  END
> <chiral flag>
0

> <version>
0

> <s_m_source_file>
/data/baiqing/PycharmProjects/Reinvent-master-3.2/result/LINK_invent/BTK/process_docking_weight1_custom_sum_contain_oxygen_bond_distance_aromatic_linkinvent_7_9_3/rearranged_h_0143.sdf

> <i_m_source_file_index>
63

> <r_mmod_Potential_Energy-OPLS-2005>
538.652770996094

> <r_mmod_Stretch_Energy-OPLS-2005>
303.489318847656

> <r_mmod_Bend_Energy-OPLS-2005>
358.380676269531

> <r_mmod_Torsional_Energy-OPLS-2005>
253.038131713867

> <r_mmod_Improper_Torsional_Energy-OPLS-2005>
5.28607797622681

> <r_mmod_Van_der_Waal_Energy-OPLS-2005>
129.369506835938

> <r_mmod_Electrostatic_Energy-OPLS-2005>
-512.015380859375

> <r_mmod_Solvation_Energy-OPLS-2005>
-233.960479736328

> <b_mmod_Minimization_Converged-OPLS-2005>
0

> <r_mmod_RMS_Derivative-OPLS-2005>
5.13536214828491

$$$$
63
                    3D
 Structure written by MMmdl.
170180  0  0  1  0            999 V2000
  -30.7745  -14.3652   20.6985 C   0  0  0  0  0  0
  -30.4122  -12.2939   19.3952 C   0  0  0  0  0  0
  -29.4807  -12.5220   18.1910 C   0  0  0  0  0  0
  -28.0072  -12.3724   18.6098 C   0  0  0  0  0  0
  -27.6644  -13.2006   19.8751 C   0  0  2  0  0  0
  -28.7020  -12.9582   20.9925 C   0  0  0  0  0  0
  -25.2607  -13.8157   20.5676 C   0  0  0  0  0  0
  -24.1847  -13.0437   20.9164 C   0  0  0  0  0  0
  -24.6383  -11.6902   20.8720 C   0  0  0  0  0  0
  -23.9045  -10.4295   21.0392 C   0  0  0  0  0  0
  -24.3606   -9.4219   21.9173 C   0  0  0  0  0  0
  -23.6290   -8.2252   22.0752 C   0  0  0  0  0  0
  -22.4272   -8.0279   21.3543 C   0  0  0  0  0  0
  -21.9905   -9.0247   20.4637 C   0  0  0  0  0  0
  -22.7227  -10.2129   20.3045 C   0  0  0  0  0  0
  -21.6848   -6.0735   22.5281 C   0  0  0  0  0  0
  -21.4011   -6.5643   23.8211 C   0  0  0  0  0  0
  -21.3660   -5.6793   24.9176 C   0  0  0  0  0  0
  -21.6050   -4.3057   24.7224 C   0  0  0  0  0  0
  -21.8823   -3.8150   23.4344 C   0  0  0  0  0  0
  -21.9190   -4.6965   22.3404 C   0  0  0  0  0  0
  -22.7877  -13.5244   21.1833 C   0  0  0  0  0  0
  -22.1659   -4.2149   21.0982 F   0  0  0  0  0  0
  -21.5634   -3.4540   25.7741 F   0  0  0  0  0  0
  -30.0431  -13.2458   20.4542 N   0  0  0  0  0  0
  -26.3030  -12.9312   20.3350 N   0  0  0  0  0  0
  -25.9307  -11.6476   20.5742 N   0  0  0  0  0  0
  -22.0512  -12.8214   22.0381 N   0  0  0  0  0  0
  -25.4359  -15.1872   20.4104 N   0  0  0  0  0  0
  -31.7969  -14.6160   20.0572 O   0  0  0  0  0  0
  -21.6639   -6.8876   21.4244 O   0  0  0  0  0  0
  -22.3560  -14.5556   20.6699 O   0  0  0  0  0  0
  -24.6112  -31.8724   23.2127 C   0  0  0  0  0  0
  -25.9022  -32.4858   23.8420 C   0  0  1  0  0  0
  -27.2353  -27.4487   20.1070 C   0  0  0  0  0  0
  -25.5900  -33.8650   24.2355 N   0  0  0  0  0  0
  -23.3990  -30.4938   21.5553 C   0  0  2  0  0  0
  -24.8468  -28.9569   20.1257 C   0  0  0  0  0  0
  -22.7394  -29.4679   22.5031 C   0  0  0  0  0  0
  -18.0263  -28.1392   22.8518 C   0  0  0  0  0  0
  -24.1474  -36.7303   23.2632 C   0  0  0  0  0  0
  -25.9241  -30.8391   21.3640 C   0  0  0  0  0  0
  -26.0037  -29.4698   20.7263 C   0  0  0  0  0  0
  -27.2009  -28.7192   20.7225 C   0  0  0  0  0  0
  -26.0672  -26.9568   19.4853 C   0  0  0  0  0  0
  -24.8714  -27.6963   19.5061 C   0  0  0  0  0  0
  -23.6072  -29.8223   20.1719 C   0  0  0  0  0  0
  -25.4095  -36.3128   24.0337 C   0  0  1  0  0  0
  -20.5851  -28.3676   23.1344 C   0  0  2  0  0  0
  -20.6760  -26.9433   22.5420 C   0  0  0  0  0  0
  -19.5739  -26.6415   21.5218 C   0  0  0  0  0  0
  -18.1910  -26.7938   22.1631 C   0  0  0  0  0  0
  -19.1511  -28.8847   23.2926 C   0  0  0  0  0  0
  -18.9444  -30.1447   23.8939 C   0  0  0  0  0  0
  -17.6454  -30.6604   24.0581 C   0  0  0  0  0  0
  -25.9047  -34.9498   23.5151 C   0  0  0  0  0  0
  -16.5344  -29.9110   23.6339 C   0  0  0  0  0  0
  -16.7253  -28.6514   23.0387 C   0  0  0  0  0  0
  -26.4484  -31.6622   25.0725 C   0  0  0  0  0  0
  -25.3758  -31.3650   26.1463 C   0  0  0  0  0  0
  -27.0312  -30.3090   24.6034 C   0  0  0  0  0  0
  -27.6056  -32.4334   25.7481 C   0  0  0  0  0  0
  -27.5594  -37.1792   24.8454 C   0  0  0  0  0  0
  -21.4129  -29.3037   22.3756 N   0  0  0  0  0  0
  -26.4277  -37.3821   23.9433 N   0  0  0  0  0  0
  -24.6628  -31.0825   22.1032 N   0  0  0  0  0  0
  -23.4168  -28.8233   23.3080 O   0  0  0  0  0  0
  -28.4258  -26.7709   19.9884 O   0  0  0  0  0  0
  -26.5607  -34.8946   22.4716 O   0  0  0  0  0  0
  -23.5317  -32.1479   23.7546 O   0  0  0  0  0  0
  -30.9141  -18.5171   21.1862 C   0  0  0  0  0  0
  -31.7487  -17.4041   21.3882 C   0  0  0  0  0  0
  -31.3739  -19.4893   20.2888 C   0  0  0  0  0  0
  -33.2396  -18.2640   19.9078 C   0  0  0  0  0  0
  -28.0349  -23.1388   21.2301 C   0  0  0  0  0  0
  -30.4222  -23.6883   20.7691 C   0  0  0  0  0  0
  -27.5826  -24.4885   20.6423 C   0  0  0  0  0  0
  -30.0200  -25.0755   20.2345 C   0  0  0  0  0  0
  -31.3750  -16.6436   23.8241 C   0  0  0  0  0  0
  -32.4697  -15.7674   23.2899 C   0  0  0  0  0  0
  -29.3104  -22.6496   20.5241 C   0  0  1  0  0  0
  -28.6626  -25.5895   20.7654 C   0  0  1  0  0  0
  -31.3992  -16.2929   22.3444 C   0  0  0  0  0  0
  -30.3257  -15.3460   21.7976 C   0  0  0  0  0  0
  -29.7233  -21.2222   20.9426 C   0  0  0  0  0  0
  -32.9284  -17.2977   20.7430 N   0  0  0  0  0  0
  -32.5395  -19.3518   19.6401 N   0  0  0  0  0  0
  -34.4402  -18.1392   19.2844 N   0  0  0  0  0  0
  -30.6749  -20.6593   19.9912 N   0  0  0  0  0  0
  -31.4549  -12.3872   19.0865 H   0  0  0  0  0  0
  -30.3111  -11.2730   19.7669 H   0  0  0  0  0  0
  -29.7151  -11.8133   17.3964 H   0  0  0  0  0  0
  -29.6489  -13.5170   17.7759 H   0  0  0  0  0  0
  -27.8194  -11.3150   18.7979 H   0  0  0  0  0  0
  -27.3504  -12.6543   17.7862 H   0  0  0  0  0  0
  -27.7202  -14.2524   19.5947 H   0  0  0  0  0  0
  -28.6638  -11.9211   21.3285 H   0  0  0  0  0  0
  -28.4333  -13.5528   21.8623 H   0  0  0  0  0  0
  -25.2749   -9.5709   22.4742 H   0  0  0  0  0  0
  -24.0010   -7.4654   22.7476 H   0  0  0  0  0  0
  -21.0844   -8.8759   19.8934 H   0  0  0  0  0  0
  -22.3685  -10.9667   19.6152 H   0  0  0  0  0  0
  -21.2005   -7.6144   23.9717 H   0  0  0  0  0  0
  -21.1476   -6.0519   25.9080 H   0  0  0  0  0  0
  -22.0598   -2.7607   23.2847 H   0  0  0  0  0  0
  -22.4128  -11.9876   22.4759 H   0  0  0  0  0  0
  -21.1123  -13.1232   22.2582 H   0  0  0  0  0  0
  -24.6759  -15.8484   20.5259 H   0  0  0  0  0  0
  -26.2989  -15.6235   20.1088 H   0  0  0  0  0  0
  -26.7089  -32.5596   23.1178 H   0  0  0  0  0  0
  -25.0058  -33.9815   25.0511 H   0  0  0  0  0  0
  -22.6868  -31.3100   21.4155 H   0  0  0  0  0  0
  -23.3773  -35.9601   23.3255 H   0  0  0  0  0  0
  -24.3587  -36.8965   22.2062 H   0  0  0  0  0  0
  -23.7173  -37.6464   23.6685 H   0  0  0  0  0  0
  -26.0270  -31.5965   20.5862 H   0  0  0  0  0  0
  -26.8150  -30.9041   21.9755 H   0  0  0  0  0  0
  -28.0995  -29.1197   21.1713 H   0  0  0  0  0  0
  -26.0785  -26.0175   18.9530 H   0  0  0  0  0  0
  -23.9856  -27.3008   19.0266 H   0  0  0  0  0  0
  -23.7151  -30.5932   19.4083 H   0  0  0  0  0  0
  -22.7313  -29.2394   19.8817 H   0  0  0  0  0  0
  -25.1264  -36.1996   25.0824 H   0  0  0  0  0  0
  -20.9950  -28.3252   24.1461 H   0  0  0  0  0  0
  -20.5716  -26.2285   23.3591 H   0  0  0  0  0  0
  -21.6633  -26.7513   22.1208 H   0  0  0  0  0  0
  -19.6916  -25.6336   21.1236 H   0  0  0  0  0  0
  -19.6677  -27.3235   20.6751 H   0  0  0  0  0  0
  -17.4200  -26.6711   21.4012 H   0  0  0  0  0  0
  -18.0292  -26.0058   22.9001 H   0  0  0  0  0  0
  -19.7912  -30.7230   24.2376 H   0  0  0  0  0  0
  -17.5008  -31.6303   24.5164 H   0  0  0  0  0  0
  -15.5350  -30.3034   23.7621 H   0  0  0  0  0  0
  -15.8640  -28.0817   22.7131 H   0  0  0  0  0  0
  -24.5954  -30.6984   25.7771 H   0  0  0  0  0  0
  -24.8905  -32.2761   26.4971 H   0  0  0  0  0  0
  -25.8131  -30.8783   27.0184 H   0  0  0  0  0  0
  -26.2820  -29.6827   24.1166 H   0  0  0  0  0  0
  -27.4212  -29.7353   25.4446 H   0  0  0  0  0  0
  -27.8599  -30.4452   23.9073 H   0  0  0  0  0  0
  -27.2703  -33.3658   26.2031 H   0  0  0  0  0  0
  -28.3874  -32.6847   25.0301 H   0  0  0  0  0  0
  -28.0695  -31.8452   26.5413 H   0  0  0  0  0  0
  -28.2561  -38.0157   24.7663 H   0  0  0  0  0  0
  -28.1157  -36.2703   24.6096 H   0  0  0  0  0  0
  -27.2333  -37.1209   25.8858 H   0  0  0  0  0  0
  -20.9303  -29.8735   21.6949 H   0  0  0  0  0  0
  -26.0173  -38.2880   24.1518 H   0  0  0  0  0  0
  -29.9716  -18.6001   21.7074 H   0  0  0  0  0  0
  -27.2363  -22.4062   21.1071 H   0  0  0  0  0  0
  -28.2040  -23.2348   22.3045 H   0  0  0  0  0  0
  -30.6442  -23.7534   21.8347 H   0  0  0  0  0  0
  -31.3481  -23.3757   20.2843 H   0  0  0  0  0  0
  -26.6647  -24.8059   21.1390 H   0  0  0  0  0  0
  -27.3428  -24.3318   19.5913 H   0  0  0  0  0  0
  -29.9738  -25.0164   19.1465 H   0  0  0  0  0  0
  -30.8023  -25.8006   20.4620 H   0  0  0  0  0  0
  -31.6475  -17.6577   24.1114 H   0  0  0  0  0  0
  -30.6361  -16.1633   24.4626 H   0  0  0  0  0  0
  -32.4372  -14.7157   23.5679 H   0  0  0  0  0  0
  -33.4677  -16.1955   23.2153 H   0  0  0  0  0  0
  -29.0913  -22.6236   19.4541 H   0  0  0  0  0  0
  -28.7674  -25.8728   21.8133 H   0  0  0  0  0  0
  -29.4775  -15.9281   21.4383 H   0  0  0  0  0  0
  -29.9773  -14.7627   22.6479 H   0  0  0  0  0  0
  -28.8431  -20.5780   20.9722 H   0  0  0  0  0  0
  -30.1507  -21.2224   21.9467 H   0  0  0  0  0  0
  -34.8368  -17.2095   19.2661 H   0  0  0  0  0  0
  -34.5694  -18.6814   18.4396 H   0  0  0  0  0  0
  -31.1431  -21.3066   19.3679 H   0  0  0  0  0  0
  1 25  1  0  0  0
  1 30  2  0  0  0
  1 84  1  0  0  0
  2  3  1  0  0  0
  2 25  1  0  0  0
  2 90  1  0  0  0
  2 91  1  0  0  0
  3  4  1  0  0  0
  3 92  1  0  0  0
  3 93  1  0  0  0
  4  5  1  0  0  0
  4 94  1  0  0  0
  4 95  1  0  0  0
  5  6  1  0  0  0
  5 26  1  0  0  0
  5 96  1  0  0  0
  6 25  1  0  0  0
  6 97  1  0  0  0
  6 98  1  0  0  0
  7  8  2  0  0  0
  7 26  1  0  0  0
  7 29  1  0  0  0
  8  9  1  0  0  0
  8 22  1  0  0  0
  9 10  1  0  0  0
  9 27  2  0  0  0
 10 11  2  0  0  0
 10 15  1  0  0  0
 11 12  1  0  0  0
 11 99  1  0  0  0
 12 13  2  0  0  0
 12100  1  0  0  0
 13 14  1  0  0  0
 13 31  1  0  0  0
 14 15  2  0  0  0
 14101  1  0  0  0
 15102  1  0  0  0
 16 17  2  0  0  0
 16 21  1  0  0  0
 16 31  1  0  0  0
 17 18  1  0  0  0
 17103  1  0  0  0
 18 19  2  0  0  0
 18104  1  0  0  0
 19 20  1  0  0  0
 19 24  1  0  0  0
 20 21  2  0  0  0
 20105  1  0  0  0
 21 23  1  0  0  0
 22 28  1  0  0  0
 22 32  2  0  0  0
 26 27  1  0  0  0
 28106  1  0  0  0
 28107  1  0  0  0
 29108  1  0  0  0
 29109  1  0  0  0
 33 34  1  0  0  0
 33 66  1  0  0  0
 33 70  2  0  0  0
 34 36  1  0  0  0
 34 59  1  0  0  0
 34110  1  0  0  0
 35 44  2  0  0  0
 35 45  1  0  0  0
 35 68  1  0  0  0
 36 56  1  0  0  0
 36111  1  0  0  0
 37 39  1  0  0  0
 37 47  1  0  0  0
 37 66  1  0  0  0
 37112  1  0  0  0
 38 43  2  0  0  0
 38 46  1  0  0  0
 38 47  1  0  0  0
 39 64  1  0  0  0
 39 67  2  0  0  0
 40 52  1  0  0  0
 40 53  2  0  0  0
 40 58  1  0  0  0
 41113  1  0  0  0
 41114  1  0  0  0
 41115  1  0  0  0
 41 48  1  0  0  0
 42 43  1  0  0  0
 42 66  1  0  0  0
 42116  1  0  0  0
 42117  1  0  0  0
 43 44  1  0  0  0
 44118  1  0  0  0
 45 46  2  0  0  0
 45119  1  0  0  0
 46120  1  0  0  0
 47121  1  0  0  0
 47122  1  0  0  0
 48 56  1  0  0  0
 48 65  1  0  0  0
 48123  1  0  0  0
 49 50  1  0  0  0
 49 53  1  0  0  0
 49 64  1  0  0  0
 49124  1  0  0  0
 50 51  1  0  0  0
 50125  1  0  0  0
 50126  1  0  0  0
 51 52  1  0  0  0
 51127  1  0  0  0
 51128  1  0  0  0
 52129  1  0  0  0
 52130  1  0  0  0
 53 54  1  0  0  0
 54 55  2  0  0  0
 54131  1  0  0  0
 55 57  1  0  0  0
 55132  1  0  0  0
 56 69  2  0  0  0
 57 58  2  0  0  0
 57133  1  0  0  0
 58134  1  0  0  0
 59 60  1  0  0  0
 59 61  1  0  0  0
 59 62  1  0  0  0
 60135  1  0  0  0
 60136  1  0  0  0
 60137  1  0  0  0
 61138  1  0  0  0
 61139  1  0  0  0
 61140  1  0  0  0
 62141  1  0  0  0
 62142  1  0  0  0
 62143  1  0  0  0
 63 65  1  0  0  0
 63144  1  0  0  0
 63145  1  0  0  0
 63146  1  0  0  0
 64147  1  0  0  0
 65148  1  0  0  0
 68 82  1  0  0  0
 71 72  2  0  0  0
 71 73  1  0  0  0
 71149  1  0  0  0
 72 83  1  0  0  0
 72 86  1  0  0  0
 73 87  2  0  0  0
 73 89  1  0  0  0
 74 86  2  0  0  0
 74 87  1  0  0  0
 74 88  1  0  0  0
 75 77  1  0  0  0
 75 81  1  0  0  0
 75150  1  0  0  0
 75151  1  0  0  0
 76 78  1  0  0  0
 76 81  1  0  0  0
 76152  1  0  0  0
 76153  1  0  0  0
 77 82  1  0  0  0
 77154  1  0  0  0
 77155  1  0  0  0
 78 82  1  0  0  0
 78156  1  0  0  0
 78157  1  0  0  0
 79 80  1  0  0  0
 79 83  1  0  0  0
 79158  1  0  0  0
 79159  1  0  0  0
 80 83  1  0  0  0
 80160  1  0  0  0
 80161  1  0  0  0
 81 85  1  0  0  0
 81162  1  0  0  0
 82163  1  0  0  0
 83 84  1  0  0  0
 84164  1  0  0  0
 84165  1  0  0  0
 85 89  1  0  0  0
 85166  1  0  0  0
 85167  1  0  0  0
 88168  1  0  0  0
 88169  1  0  0  0
 89170  1  0  0  0
M  ISO  4   1 100  68 101  82 101  84 100
M  END
> <chiral flag>
0

> <version>
0

> <s_m_source_file>
/data/baiqing/PycharmProjects/Reinvent-master-3.2/result/LINK_invent/BTK/process_docking_weight1_custom_sum_contain_oxygen_bond_distance_aromatic_linkinvent_7_9_3/rearranged_h_0143.sdf

> <i_m_source_file_index>
64

> <r_mmod_Potential_Energy-OPLS-2005>
-756.576965332031

> <r_mmod_Stretch_Energy-OPLS-2005>
33.2556838989258

> <r_mmod_Bend_Energy-OPLS-2005>
116.092720031738

> <r_mmod_Torsional_Energy-OPLS-2005>
245.907669067383

> <r_mmod_Improper_Torsional_Energy-OPLS-2005>
7.32724761962891

> <r_mmod_Van_der_Waal_Energy-OPLS-2005>
163.434158325195

> <r_mmod_Electrostatic_Energy-OPLS-2005>
-1096.76013183594

> <r_mmod_Solvation_Energy-OPLS-2005>
-233.093170166016

> <b_mmod_Minimization_Converged-OPLS-2005>
0

> <r_mmod_RMS_Derivative-OPLS-2005>
2.34650421142578

$$$$
64
                    3D
 Structure written by MMmdl.
180190  0  0  1  0            999 V2000
  -30.7133  -14.4851   20.5134 C   0  0  0  0  0  0
  -30.4054  -12.2980   19.4316 C   0  0  0  0  0  0
  -29.4850  -12.4872   18.2092 C   0  0  0  0  0  0
  -28.0069  -12.3569   18.6235 C   0  0  0  0  0  0
  -27.6503  -13.2115   19.8701 C   0  0  2  0  0  0
  -28.6984  -13.0460   20.9944 C   0  0  0  0  0  0
  -25.2548  -13.8170   20.5717 C   0  0  0  0  0  0
  -24.1802  -13.0440   20.9193 C   0  0  0  0  0  0
  -24.6366  -11.6907   20.8755 C   0  0  0  0  0  0
  -23.9040  -10.4288   21.0413 C   0  0  0  0  0  0
  -24.3600   -9.4205   21.9189 C   0  0  0  0  0  0
  -23.6280   -8.2241   22.0757 C   0  0  0  0  0  0
  -22.4260   -8.0279   21.3544 C   0  0  0  0  0  0
  -21.9891   -9.0247   20.4646 C   0  0  0  0  0  0
  -22.7217  -10.2129   20.3058 C   0  0  0  0  0  0
  -21.6851   -6.0730   22.5275 C   0  0  0  0  0  0
  -21.4018   -6.5637   23.8207 C   0  0  0  0  0  0
  -21.3660   -5.6793   24.9175 C   0  0  0  0  0  0
  -21.6041   -4.3055   24.7227 C   0  0  0  0  0  0
  -21.8818   -3.8144   23.4348 C   0  0  0  0  0  0
  -21.9192   -4.6956   22.3403 C   0  0  0  0  0  0
  -22.7830  -13.5239   21.1858 C   0  0  0  0  0  0
  -22.1657   -4.2142   21.0979 F   0  0  0  0  0  0
  -21.5624   -3.4541   25.7742 F   0  0  0  0  0  0
  -30.0209  -13.3178   20.4186 N   0  0  0  0  0  0
  -26.2973  -12.9340   20.3400 N   0  0  0  0  0  0
  -25.9299  -11.6495   20.5812 N   0  0  0  0  0  0
  -22.0477  -12.8224   22.0417 N   0  0  0  0  0  0
  -25.4283  -15.1889   20.4141 N   0  0  0  0  0  0
  -31.8967  -14.5815   20.1730 O   0  0  0  0  0  0
  -21.6637   -6.8870   21.4234 O   0  0  0  0  0  0
  -22.3511  -14.5545   20.6714 O   0  0  0  0  0  0
  -24.6160  -31.8686   23.2133 C   0  0  0  0  0  0
  -25.9056  -32.4826   23.8419 C   0  0  1  0  0  0
  -27.2100  -27.4056   20.1127 C   0  0  0  0  0  0
  -25.5927  -33.8631   24.2349 N   0  0  0  0  0  0
  -23.4042  -30.4950   21.5543 C   0  0  2  0  0  0
  -24.8491  -28.9672   20.1124 C   0  0  0  0  0  0
  -22.7422  -29.4651   22.4993 C   0  0  0  0  0  0
  -18.0278  -28.1363   22.8489 C   0  0  0  0  0  0
  -24.1483  -36.7313   23.2634 C   0  0  0  0  0  0
  -25.9370  -30.8237   21.3758 C   0  0  0  0  0  0
  -26.0092  -29.4563   20.7276 C   0  0  0  0  0  0
  -27.1931  -28.6772   20.7366 C   0  0  0  0  0  0
  -26.0580  -26.9829   19.4256 C   0  0  0  0  0  0
  -24.8688  -27.7278   19.4572 C   0  0  0  0  0  0
  -23.6120  -29.8345   20.1672 C   0  0  0  0  0  0
  -25.4108  -36.3121   24.0334 C   0  0  1  0  0  0
  -20.5865  -28.3650   23.1317 C   0  0  2  0  0  0
  -20.6779  -26.9388   22.5416 C   0  0  0  0  0  0
  -19.5752  -26.6368   21.5215 C   0  0  0  0  0  0
  -18.1922  -26.7919   22.1616 C   0  0  0  0  0  0
  -19.1521  -28.8822   23.2900 C   0  0  0  0  0  0
  -18.9455  -30.1434   23.8902 C   0  0  0  0  0  0
  -17.6458  -30.6576   24.0550 C   0  0  0  0  0  0
  -25.9040  -34.9481   23.5135 C   0  0  0  0  0  0
  -16.5344  -29.9072   23.6331 C   0  0  0  0  0  0
  -16.7269  -28.6490   23.0357 C   0  0  0  0  0  0
  -26.4470  -31.6611   25.0754 C   0  0  0  0  0  0
  -25.3726  -31.3720   26.1496 C   0  0  0  0  0  0
  -27.0305  -30.3058   24.6136 C   0  0  0  0  0  0
  -27.6045  -32.4331   25.7512 C   0  0  0  0  0  0
  -27.5575  -37.1820   24.8461 C   0  0  0  0  0  0
  -21.4147  -29.3029   22.3735 N   0  0  0  0  0  0
  -26.4295  -37.3807   23.9405 N   0  0  0  0  0  0
  -24.6710  -31.0767   22.1061 N   0  0  0  0  0  0
  -23.4192  -28.8192   23.3034 O   0  0  0  0  0  0
  -28.3365  -26.6080   20.1148 O   0  0  0  0  0  0
  -26.5570  -34.8916   22.4677 O   0  0  0  0  0  0
  -23.5349  -32.1438   23.7538 O   0  0  0  0  0  0
  -28.7150  -20.7544   21.6462 C   0  0  0  0  0  0
  -28.2544  -22.0879   21.5374 C   0  0  0  0  0  0
  -29.2319  -20.7609   19.2841 C   0  0  0  0  0  0
  -29.1882  -20.0607   20.5092 C   0  0  0  0  0  0
  -28.2218  -22.7635   20.2906 C   0  0  0  0  0  0
  -28.7534  -22.0858   19.1601 C   0  0  0  0  0  0
  -23.8647  -21.2008   19.1093 C   0  0  0  0  0  0
  -22.8269  -22.2863   19.4311 C   0  0  0  0  0  0
  -25.2258  -21.7570   19.5555 C   0  0  0  0  0  0
  -23.5899  -23.3883   20.1758 C   0  0  0  0  0  0
  -29.6807  -17.8743   21.8996 C   0  0  0  0  0  0
  -28.9572  -17.6742   19.5740 C   0  0  0  0  0  0
  -30.3952  -16.4955   21.8152 C   0  0  0  0  0  0
  -29.7143  -16.3410   19.4260 C   0  0  0  0  0  0
  -29.6972  -18.6053   20.5450 C   0  0  0  0  0  0
  -25.0416  -23.2744   19.6966 C   0  0  0  0  0  0
  -28.7898  -22.7313   17.7854 C   0  0  0  0  0  0
  -26.0307  -24.0013   20.6483 C   0  0  0  0  0  0
  -28.2670  -25.3380   20.8277 C   0  0  0  0  0  0
  -27.5081  -24.1354   20.1616 C   0  0  1  0  0  0
  -29.9813  -15.6176   20.6928 N   0  0  0  0  0  0
  -25.0811  -23.8385   18.3990 O   0  0  0  0  0  0
  -31.4525  -12.3709   19.1330 H   0  0  0  0  0  0
  -30.2837  -11.2994   19.8549 H   0  0  0  0  0  0
  -29.7222  -11.7512   17.4402 H   0  0  0  0  0  0
  -29.6580  -13.4669   17.7606 H   0  0  0  0  0  0
  -27.8140  -11.3037   18.8301 H   0  0  0  0  0  0
  -27.3562  -12.6237   17.7895 H   0  0  0  0  0  0
  -27.6688  -14.2510   19.5499 H   0  0  0  0  0  0
  -28.6715  -12.0338   21.4009 H   0  0  0  0  0  0
  -28.4808  -13.7163   21.8278 H   0  0  0  0  0  0
  -25.2740   -9.5691   22.4769 H   0  0  0  0  0  0
  -23.9988   -7.4633   22.7477 H   0  0  0  0  0  0
  -21.0827   -8.8765   19.8948 H   0  0  0  0  0  0
  -22.3670  -10.9672   19.6174 H   0  0  0  0  0  0
  -21.2013   -7.6146   23.9711 H   0  0  0  0  0  0
  -21.1479   -6.0526   25.9075 H   0  0  0  0  0  0
  -22.0595   -2.7605   23.2858 H   0  0  0  0  0  0
  -22.4064  -11.9852   22.4769 H   0  0  0  0  0  0
  -21.1110  -13.1269   22.2657 H   0  0  0  0  0  0
  -24.6716  -15.8521   20.5364 H   0  0  0  0  0  0
  -26.2996  -15.6257   20.1418 H   0  0  0  0  0  0
  -26.7127  -32.5525   23.1179 H   0  0  0  0  0  0
  -25.0183  -33.9805   25.0564 H   0  0  0  0  0  0
  -22.6940  -31.3135   21.4183 H   0  0  0  0  0  0
  -23.3750  -35.9642   23.3312 H   0  0  0  0  0  0
  -24.3577  -36.8915   22.2046 H   0  0  0  0  0  0
  -23.7237  -37.6525   23.6636 H   0  0  0  0  0  0
  -26.0516  -31.5871   20.6051 H   0  0  0  0  0  0
  -26.8266  -30.8790   21.9916 H   0  0  0  0  0  0
  -28.0831  -29.0382   21.2332 H   0  0  0  0  0  0
  -26.0663  -26.0666   18.8626 H   0  0  0  0  0  0
  -23.9891  -27.3545   18.9523 H   0  0  0  0  0  0
  -23.7174  -30.6106   19.4086 H   0  0  0  0  0  0
  -22.7365  -29.2537   19.8715 H   0  0  0  0  0  0
  -25.1286  -36.1998   25.0831 H   0  0  0  0  0  0
  -20.9946  -28.3195   24.1439 H   0  0  0  0  0  0
  -20.5688  -26.2245   23.3590 H   0  0  0  0  0  0
  -21.6648  -26.7439   22.1185 H   0  0  0  0  0  0
  -19.6915  -25.6279   21.1242 H   0  0  0  0  0  0
  -19.6698  -27.3179   20.6742 H   0  0  0  0  0  0
  -17.4202  -26.6678   21.4005 H   0  0  0  0  0  0
  -18.0292  -26.0050   22.8999 H   0  0  0  0  0  0
  -19.7931  -30.7242   24.2270 H   0  0  0  0  0  0
  -17.5018  -31.6262   24.5141 H   0  0  0  0  0  0
  -15.5345  -30.2973   23.7665 H   0  0  0  0  0  0
  -15.8668  -28.0806   22.7080 H   0  0  0  0  0  0
  -24.5923  -30.7031   25.7838 H   0  0  0  0  0  0
  -24.8873  -32.2871   26.4915 H   0  0  0  0  0  0
  -25.8078  -30.8933   27.0280 H   0  0  0  0  0  0
  -26.2871  -29.6842   24.1134 H   0  0  0  0  0  0
  -27.4015  -29.7268   25.4603 H   0  0  0  0  0  0
  -27.8723  -30.4378   23.9328 H   0  0  0  0  0  0
  -27.2687  -33.3649   26.2076 H   0  0  0  0  0  0
  -28.3862  -32.6877   25.0341 H   0  0  0  0  0  0
  -28.0699  -31.8464   26.5438 H   0  0  0  0  0  0
  -28.2614  -38.0099   24.7520 H   0  0  0  0  0  0
  -28.1060  -36.2643   24.6296 H   0  0  0  0  0  0
  -27.2281  -37.1469   25.8859 H   0  0  0  0  0  0
  -20.9297  -29.8790   21.7003 H   0  0  0  0  0  0
  -26.0182  -38.2886   24.1421 H   0  0  0  0  0  0
  -28.6851  -20.2731   22.6130 H   0  0  0  0  0  0
  -27.8754  -22.5758   22.4245 H   0  0  0  0  0  0
  -29.6217  -20.2586   18.4090 H   0  0  0  0  0  0
  -23.8679  -20.9891   18.0388 H   0  0  0  0  0  0
  -23.6402  -20.2631   19.6195 H   0  0  0  0  0  0
  -21.9939  -21.9021   20.0202 H   0  0  0  0  0  0
  -22.4099  -22.6838   18.5049 H   0  0  0  0  0  0
  -26.0242  -21.4808   18.8660 H   0  0  0  0  0  0
  -25.4837  -21.3304   20.5265 H   0  0  0  0  0  0
  -23.5411  -23.1895   21.2479 H   0  0  0  0  0  0
  -23.1615  -24.3799   20.0168 H   0  0  0  0  0  0
  -30.1810  -18.4758   22.6590 H   0  0  0  0  0  0
  -28.6525  -17.7385   22.2399 H   0  0  0  0  0  0
  -27.9330  -17.5047   19.9109 H   0  0  0  0  0  0
  -28.8764  -18.1269   18.5858 H   0  0  0  0  0  0
  -30.2456  -15.9578   22.7527 H   0  0  0  0  0  0
  -31.4702  -16.6768   21.7451 H   0  0  0  0  0  0
  -30.6628  -16.5494   18.9247 H   0  0  0  0  0  0
  -29.1611  -15.6989   18.7398 H   0  0  0  0  0  0
  -30.7384  -18.6733   20.2232 H   0  0  0  0  0  0
  -29.3110  -22.1072   17.0602 H   0  0  0  0  0  0
  -29.3084  -23.6898   17.8259 H   0  0  0  0  0  0
  -27.7785  -22.8917   17.4089 H   0  0  0  0  0  0
  -25.9990  -23.5251   21.6267 H   0  0  0  0  0  0
  -25.6221  -24.9856   20.8553 H   0  0  0  0  0  0
  -29.3106  -25.0414   20.9377 H   0  0  0  0  0  0
  -27.9137  -25.4944   21.8477 H   0  0  0  0  0  0
  -27.4751  -24.3946   19.1094 H   0  0  0  0  0  0
  -24.4619  -23.3533   17.8667 H   0  0  0  0  0  0
  1 25  1  0  0  0
  1 30  2  0  0  0
  1 91  1  0  0  0
  2  3  1  0  0  0
  2 25  1  0  0  0
  2 93  1  0  0  0
  2 94  1  0  0  0
  3  4  1  0  0  0
  3 95  1  0  0  0
  3 96  1  0  0  0
  4  5  1  0  0  0
  4 97  1  0  0  0
  4 98  1  0  0  0
  5  6  1  0  0  0
  5 26  1  0  0  0
  5 99  1  0  0  0
  6 25  1  0  0  0
  6100  1  0  0  0
  6101  1  0  0  0
  7  8  2  0  0  0
  7 26  1  0  0  0
  7 29  1  0  0  0
  8  9  1  0  0  0
  8 22  1  0  0  0
  9 10  1  0  0  0
  9 27  2  0  0  0
 10 11  2  0  0  0
 10 15  1  0  0  0
 11 12  1  0  0  0
 11102  1  0  0  0
 12 13  2  0  0  0
 12103  1  0  0  0
 13 14  1  0  0  0
 13 31  1  0  0  0
 14 15  2  0  0  0
 14104  1  0  0  0
 15105  1  0  0  0
 16 17  2  0  0  0
 16 21  1  0  0  0
 16 31  1  0  0  0
 17 18  1  0  0  0
 17106  1  0  0  0
 18 19  2  0  0  0
 18107  1  0  0  0
 19 20  1  0  0  0
 19 24  1  0  0  0
 20 21  2  0  0  0
 20108  1  0  0  0
 21 23  1  0  0  0
 22 28  1  0  0  0
 22 32  2  0  0  0
 26 27  1  0  0  0
 28109  1  0  0  0
 28110  1  0  0  0
 29111  1  0  0  0
 29112  1  0  0  0
 33 34  1  0  0  0
 33 66  1  0  0  0
 33 70  2  0  0  0
 34 36  1  0  0  0
 34 59  1  0  0  0
 34113  1  0  0  0
 35 44  2  0  0  0
 35 45  1  0  0  0
 35 68  1  0  0  0
 36 56  1  0  0  0
 36114  1  0  0  0
 37 39  1  0  0  0
 37 47  1  0  0  0
 37 66  1  0  0  0
 37115  1  0  0  0
 38 43  2  0  0  0
 38 46  1  0  0  0
 38 47  1  0  0  0
 39 64  1  0  0  0
 39 67  2  0  0  0
 40 52  1  0  0  0
 40 53  2  0  0  0
 40 58  1  0  0  0
 41116  1  0  0  0
 41117  1  0  0  0
 41118  1  0  0  0
 41 48  1  0  0  0
 42 43  1  0  0  0
 42 66  1  0  0  0
 42119  1  0  0  0
 42120  1  0  0  0
 43 44  1  0  0  0
 44121  1  0  0  0
 45 46  2  0  0  0
 45122  1  0  0  0
 46123  1  0  0  0
 47124  1  0  0  0
 47125  1  0  0  0
 48 56  1  0  0  0
 48 65  1  0  0  0
 48126  1  0  0  0
 49 50  1  0  0  0
 49 53  1  0  0  0
 49 64  1  0  0  0
 49127  1  0  0  0
 50 51  1  0  0  0
 50128  1  0  0  0
 50129  1  0  0  0
 51 52  1  0  0  0
 51130  1  0  0  0
 51131  1  0  0  0
 52132  1  0  0  0
 52133  1  0  0  0
 53 54  1  0  0  0
 54 55  2  0  0  0
 54134  1  0  0  0
 55 57  1  0  0  0
 55135  1  0  0  0
 56 69  2  0  0  0
 57 58  2  0  0  0
 57136  1  0  0  0
 58137  1  0  0  0
 59 60  1  0  0  0
 59 61  1  0  0  0
 59 62  1  0  0  0
 60138  1  0  0  0
 60139  1  0  0  0
 60140  1  0  0  0
 61141  1  0  0  0
 61142  1  0  0  0
 61143  1  0  0  0
 62144  1  0  0  0
 62145  1  0  0  0
 62146  1  0  0  0
 63 65  1  0  0  0
 63147  1  0  0  0
 63148  1  0  0  0
 63149  1  0  0  0
 64150  1  0  0  0
 65151  1  0  0  0
 68 89  1  0  0  0
 71 72  2  0  0  0
 71 74  1  0  0  0
 71152  1  0  0  0
 72 75  1  0  0  0
 72153  1  0  0  0
 73 74  2  0  0  0
 73 76  1  0  0  0
 73154  1  0  0  0
 74 85  1  0  0  0
 75 76  2  0  0  0
 75 90  1  0  0  0
 76 87  1  0  0  0
 77 78  1  0  0  0
 77 79  1  0  0  0
 77155  1  0  0  0
 77156  1  0  0  0
 78 80  1  0  0  0
 78157  1  0  0  0
 78158  1  0  0  0
 79 86  1  0  0  0
 79159  1  0  0  0
 79160  1  0  0  0
 80 86  1  0  0  0
 80161  1  0  0  0
 80162  1  0  0  0
 81 83  1  0  0  0
 81 85  1  0  0  0
 81163  1  0  0  0
 81164  1  0  0  0
 82 84  1  0  0  0
 82 85  1  0  0  0
 82165  1  0  0  0
 82166  1  0  0  0
 83 91  1  0  0  0
 83167  1  0  0  0
 83168  1  0  0  0
 84 91  1  0  0  0
 84169  1  0  0  0
 84170  1  0  0  0
 85171  1  0  0  0
 86 88  1  0  0  0
 86 92  1  0  0  0
 87172  1  0  0  0
 87173  1  0  0  0
 87174  1  0  0  0
 88175  1  0  0  0
 88176  1  0  0  0
 88 90  1  0  0  0
 89 90  1  0  0  0
 89177  1  0  0  0
 89178  1  0  0  0
 90179  1  0  0  0
 92180  1  0  0  0
M  ISO  4   1 100  68 101  89 101  91 100
M  END
> <chiral flag>
0

> <version>
0

> <s_m_source_file>
/data/baiqing/PycharmProjects/Reinvent-master-3.2/result/LINK_invent/BTK/process_docking_weight1_custom_sum_contain_oxygen_bond_distance_aromatic_linkinvent_7_9_3/rearranged_h_0143.sdf

> <i_m_source_file_index>
65

> <r_mmod_Potential_Energy-OPLS-2005>
280.124969482422

> <r_mmod_Stretch_Energy-OPLS-2005>
48.8480529785156

> <r_mmod_Bend_Energy-OPLS-2005>
152.368499755859

> <r_mmod_Torsional_Energy-OPLS-2005>
428.678436279297

> <r_mmod_Improper_Torsional_Energy-OPLS-2005>
12.1245918273926

> <r_mmod_Van_der_Waal_Energy-OPLS-2005>
151.278350830078

> <r_mmod_Electrostatic_Energy-OPLS-2005>
-350.437286376953

> <r_mmod_Solvation_Energy-OPLS-2005>
-186.041595458984

> <b_mmod_Minimization_Converged-OPLS-2005>
0

> <r_mmod_RMS_Derivative-OPLS-2005>
1.85983991622925

$$$$
65
                    3D
 Structure written by MMmdl.
164173  0  0  1  0            999 V2000
  -30.6961  -14.5167   20.6010 C   0  0  0  0  0  0
  -30.4251  -12.3467   19.4276 C   0  0  0  0  0  0
  -29.4939  -12.5154   18.2098 C   0  0  0  0  0  0
  -28.0187  -12.3621   18.6264 C   0  0  0  0  0  0
  -27.6591  -13.2121   19.8739 C   0  0  2  0  0  0
  -28.6999  -13.0162   20.9977 C   0  0  0  0  0  0
  -25.2580  -13.8168   20.5693 C   0  0  0  0  0  0
  -24.1836  -13.0438   20.9179 C   0  0  0  0  0  0
  -24.6398  -11.6907   20.8733 C   0  0  0  0  0  0
  -23.9066  -10.4294   21.0400 C   0  0  0  0  0  0
  -24.3610   -9.4210   21.9185 C   0  0  0  0  0  0
  -23.6287   -8.2243   22.0756 C   0  0  0  0  0  0
  -22.4274   -8.0279   21.3541 C   0  0  0  0  0  0
  -21.9907   -9.0254   20.4648 C   0  0  0  0  0  0
  -22.7234  -10.2136   20.3056 C   0  0  0  0  0  0
  -21.6855   -6.0732   22.5278 C   0  0  0  0  0  0
  -21.4014   -6.5640   23.8211 C   0  0  0  0  0  0
  -21.3660   -5.6792   24.9174 C   0  0  0  0  0  0
  -21.6042   -4.3053   24.7224 C   0  0  0  0  0  0
  -21.8821   -3.8147   23.4348 C   0  0  0  0  0  0
  -21.9195   -4.6962   22.3403 C   0  0  0  0  0  0
  -22.7859  -13.5235   21.1847 C   0  0  0  0  0  0
  -22.1663   -4.2146   21.0978 F   0  0  0  0  0  0
  -21.5630   -3.4539   25.7739 F   0  0  0  0  0  0
  -30.0278  -13.3354   20.4465 N   0  0  0  0  0  0
  -26.3016  -12.9350   20.3374 N   0  0  0  0  0  0
  -25.9327  -11.6504   20.5769 N   0  0  0  0  0  0
  -22.0502  -12.8221   22.0400 N   0  0  0  0  0  0
  -25.4302  -15.1885   20.4118 N   0  0  0  0  0  0
  -31.7763  -14.7403   20.0437 O   0  0  0  0  0  0
  -21.6638   -6.8876   21.4240 O   0  0  0  0  0  0
  -22.3547  -14.5548   20.6711 O   0  0  0  0  0  0
  -24.6174  -31.8629   23.2041 C   0  0  0  0  0  0
  -25.9050  -32.4788   23.8355 C   0  0  1  0  0  0
  -27.2420  -27.3859   20.1028 C   0  0  0  0  0  0
  -25.5898  -33.8592   24.2282 N   0  0  0  0  0  0
  -23.4081  -30.4830   21.5444 C   0  0  2  0  0  0
  -24.8569  -28.9390   20.1116 C   0  0  0  0  0  0
  -22.7422  -29.4622   22.4956 C   0  0  0  0  0  0
  -18.0267  -28.1361   22.8491 C   0  0  0  0  0  0
  -24.1489  -36.7303   23.2644 C   0  0  0  0  0  0
  -25.9410  -30.8115   21.3658 C   0  0  0  0  0  0
  -26.0165  -29.4420   20.7120 C   0  0  0  0  0  0
  -27.2060  -28.6720   20.7048 C   0  0  0  0  0  0
  -26.0590  -26.9043   19.4984 C   0  0  0  0  0  0
  -24.8756  -27.6716   19.5020 C   0  0  0  0  0  0
  -23.6194  -29.8103   20.1608 C   0  0  0  0  0  0
  -25.4111  -36.3091   24.0335 C   0  0  1  0  0  0
  -20.5867  -28.3654   23.1303 C   0  0  2  0  0  0
  -20.6760  -26.9386   22.5409 C   0  0  0  0  0  0
  -19.5747  -26.6372   21.5200 C   0  0  0  0  0  0
  -18.1921  -26.7909   22.1610 C   0  0  0  0  0  0
  -19.1520  -28.8825   23.2893 C   0  0  0  0  0  0
  -18.9458  -30.1438   23.8895 C   0  0  0  0  0  0
  -17.6463  -30.6573   24.0566 C   0  0  0  0  0  0
  -25.9045  -34.9460   23.5106 C   0  0  0  0  0  0
  -16.5350  -29.9082   23.6327 C   0  0  0  0  0  0
  -16.7259  -28.6498   23.0341 C   0  0  0  0  0  0
  -26.4461  -31.6595   25.0712 C   0  0  0  0  0  0
  -25.3727  -31.3736   26.1472 C   0  0  0  0  0  0
  -27.0307  -30.3032   24.6127 C   0  0  0  0  0  0
  -27.6021  -32.4339   25.7475 C   0  0  0  0  0  0
  -27.5578  -37.1804   24.8464 C   0  0  0  0  0  0
  -21.4145  -29.3026   22.3708 N   0  0  0  0  0  0
  -26.4289  -37.3782   23.9414 N   0  0  0  0  0  0
  -24.6733  -31.0693   22.0954 N   0  0  0  0  0  0
  -23.4184  -28.8162   23.3007 O   0  0  0  0  0  0
  -28.4244  -26.6578   20.1459 O   0  0  0  0  0  0
  -26.5616  -34.8925   22.4677 O   0  0  0  0  0  0
  -23.5357  -32.1389   23.7414 O   0  0  0  0  0  0
  -27.3731  -21.4820   21.4051 C   0  0  0  0  0  0
  -29.4149  -20.5396   20.5400 C   0  0  0  0  0  0
  -27.0969  -20.2206   21.9556 C   0  0  0  0  0  0
  -28.5598  -21.6744   20.6692 C   0  0  0  0  0  0
  -29.0769  -19.2945   21.1523 C   0  0  0  0  0  0
  -31.5240  -16.7786   22.9191 C   0  0  0  0  0  0
  -30.5874  -15.5721   22.7825 C   0  0  0  0  0  0
  -29.3843  -16.6681   20.9296 C   0  0  0  0  0  0
  -30.0472  -18.0732   21.2495 C   0  0  2  0  0  0
  -30.7668  -18.0869   22.6269 C   0  0  2  0  0  0
  -31.9826  -19.6612   23.9638 C   0  0  0  0  0  0
  -28.5571  -25.3410   19.5460 C   0  0  0  0  0  0
  -28.1491  -24.1026   20.4138 C   0  0  0  0  0  0
  -27.9235  -19.1618   21.8455 N   0  0  0  0  0  0
  -30.1183  -15.4539   21.4025 N   0  0  0  0  0  0
  -28.9046  -22.9001   20.0912 O   0  0  0  0  0  0
  -31.6771  -19.1863   22.6588 O   0  0  0  0  0  0
  -31.4675  -12.4578   19.1223 H   0  0  0  0  0  0
  -30.3430  -11.3379   19.8349 H   0  0  0  0  0  0
  -29.7420  -11.7823   17.4410 H   0  0  0  0  0  0
  -29.6480  -13.4961   17.7580 H   0  0  0  0  0  0
  -27.8436  -11.3062   18.8371 H   0  0  0  0  0  0
  -27.3619  -12.6175   17.7942 H   0  0  0  0  0  0
  -27.6971  -14.2570   19.5660 H   0  0  0  0  0  0
  -28.6889  -11.9858   21.3549 H   0  0  0  0  0  0
  -28.4442  -13.6280   21.8635 H   0  0  0  0  0  0
  -25.2755   -9.5690   22.4758 H   0  0  0  0  0  0
  -24.0001   -7.4638   22.7475 H   0  0  0  0  0  0
  -21.0837   -8.8768   19.8954 H   0  0  0  0  0  0
  -22.3689  -10.9670   19.6162 H   0  0  0  0  0  0
  -21.2002   -7.6148   23.9713 H   0  0  0  0  0  0
  -21.1482   -6.0523   25.9075 H   0  0  0  0  0  0
  -22.0599   -2.7609   23.2846 H   0  0  0  0  0  0
  -22.4106  -11.9863   22.4758 H   0  0  0  0  0  0
  -21.1126  -13.1255   22.2621 H   0  0  0  0  0  0
  -24.6678  -15.8463   20.5316 H   0  0  0  0  0  0
  -26.2921  -15.6314   20.1194 H   0  0  0  0  0  0
  -26.7115  -32.5477   23.1108 H   0  0  0  0  0  0
  -25.0069  -33.9757   25.0440 H   0  0  0  0  0  0
  -22.6995  -31.3015   21.3996 H   0  0  0  0  0  0
  -23.3755  -35.9634   23.3305 H   0  0  0  0  0  0
  -24.3582  -36.8913   22.2058 H   0  0  0  0  0  0
  -23.7231  -37.6502   23.6660 H   0  0  0  0  0  0
  -26.0667  -31.5758   20.5977 H   0  0  0  0  0  0
  -26.8232  -30.8594   21.9926 H   0  0  0  0  0  0
  -28.0991  -29.0581   21.1751 H   0  0  0  0  0  0
  -26.0275  -25.9316   19.0308 H   0  0  0  0  0  0
  -23.9826  -27.2769   19.0371 H   0  0  0  0  0  0
  -23.7293  -30.5835   19.4004 H   0  0  0  0  0  0
  -22.7428  -29.2322   19.8632 H   0  0  0  0  0  0
  -25.1280  -36.1951   25.0824 H   0  0  0  0  0  0
  -20.9959  -28.3217   24.1421 H   0  0  0  0  0  0
  -20.5646  -26.2256   23.3595 H   0  0  0  0  0  0
  -21.6629  -26.7411   22.1207 H   0  0  0  0  0  0
  -19.6924  -25.6289   21.1213 H   0  0  0  0  0  0
  -19.6702  -27.3199   20.6749 H   0  0  0  0  0  0
  -17.4191  -26.6656   21.4012 H   0  0  0  0  0  0
  -18.0333  -26.0035   22.8992 H   0  0  0  0  0  0
  -19.7942  -30.7243   24.2254 H   0  0  0  0  0  0
  -17.5028  -31.6254   24.5166 H   0  0  0  0  0  0
  -15.5357  -30.2991   23.7658 H   0  0  0  0  0  0
  -15.8649  -28.0830   22.7051 H   0  0  0  0  0  0
  -24.5876  -30.7096   25.7830 H   0  0  0  0  0  0
  -24.8965  -32.2921   26.4924 H   0  0  0  0  0  0
  -25.8084  -30.8905   27.0233 H   0  0  0  0  0  0
  -26.2874  -29.6795   24.1148 H   0  0  0  0  0  0
  -27.4030  -29.7256   25.4603 H   0  0  0  0  0  0
  -27.8722  -30.4338   23.9319 H   0  0  0  0  0  0
  -27.2605  -33.3628   26.2059 H   0  0  0  0  0  0
  -28.3820  -32.6925   25.0296 H   0  0  0  0  0  0
  -28.0704  -31.8475   26.5389 H   0  0  0  0  0  0
  -28.2583  -38.0110   24.7507 H   0  0  0  0  0  0
  -28.1074  -36.2639   24.6275 H   0  0  0  0  0  0
  -27.2305  -37.1430   25.8868 H   0  0  0  0  0  0
  -20.9298  -29.8767   21.6949 H   0  0  0  0  0  0
  -26.0176  -38.2858   24.1420 H   0  0  0  0  0  0
  -26.6543  -22.2692   21.5692 H   0  0  0  0  0  0
  -30.3570  -20.6405   20.0192 H   0  0  0  0  0  0
  -26.1911  -20.0610   22.5215 H   0  0  0  0  0  0
  -32.3721  -16.6738   22.2407 H   0  0  0  0  0  0
  -31.9366  -16.7930   23.9277 H   0  0  0  0  0  0
  -29.7274  -15.6782   23.4451 H   0  0  0  0  0  0
  -31.1014  -14.6627   23.1035 H   0  0  0  0  0  0
  -29.1776  -16.5973   19.8604 H   0  0  0  0  0  0
  -28.4103  -16.6182   21.4166 H   0  0  0  0  0  0
  -30.8172  -18.2186   20.4902 H   0  0  0  0  0  0
  -30.0035  -18.2110   23.3981 H   0  0  0  0  0  0
  -32.6290  -20.5363   23.8885 H   0  0  0  0  0  0
  -32.5087  -18.9153   24.5597 H   0  0  0  0  0  0
  -31.0803  -19.9634   24.4970 H   0  0  0  0  0  0
  -28.0997  -25.2989   18.5579 H   0  0  0  0  0  0
  -29.6260  -25.2478   19.3522 H   0  0  0  0  0  0
  -27.0778  -23.9465   20.2912 H   0  0  0  0  0  0
  -28.3235  -24.3307   21.4660 H   0  0  0  0  0  0
  1 25  1  0  0  0
  1 30  2  0  0  0
  1 85  1  0  0  0
  2  3  1  0  0  0
  2 25  1  0  0  0
  2 88  1  0  0  0
  2 89  1  0  0  0
  3  4  1  0  0  0
  3 90  1  0  0  0
  3 91  1  0  0  0
  4  5  1  0  0  0
  4 92  1  0  0  0
  4 93  1  0  0  0
  5  6  1  0  0  0
  5 26  1  0  0  0
  5 94  1  0  0  0
  6 25  1  0  0  0
  6 95  1  0  0  0
  6 96  1  0  0  0
  7  8  2  0  0  0
  7 26  1  0  0  0
  7 29  1  0  0  0
  8  9  1  0  0  0
  8 22  1  0  0  0
  9 10  1  0  0  0
  9 27  2  0  0  0
 10 11  2  0  0  0
 10 15  1  0  0  0
 11 12  1  0  0  0
 11 97  1  0  0  0
 12 13  2  0  0  0
 12 98  1  0  0  0
 13 14  1  0  0  0
 13 31  1  0  0  0
 14 15  2  0  0  0
 14 99  1  0  0  0
 15100  1  0  0  0
 16 17  2  0  0  0
 16 21  1  0  0  0
 16 31  1  0  0  0
 17 18  1  0  0  0
 17101  1  0  0  0
 18 19  2  0  0  0
 18102  1  0  0  0
 19 20  1  0  0  0
 19 24  1  0  0  0
 20 21  2  0  0  0
 20103  1  0  0  0
 21 23  1  0  0  0
 22 28  1  0  0  0
 22 32  2  0  0  0
 26 27  1  0  0  0
 28104  1  0  0  0
 28105  1  0  0  0
 29106  1  0  0  0
 29107  1  0  0  0
 33 34  1  0  0  0
 33 66  1  0  0  0
 33 70  2  0  0  0
 34 36  1  0  0  0
 34 59  1  0  0  0
 34108  1  0  0  0
 35 44  2  0  0  0
 35 45  1  0  0  0
 35 68  1  0  0  0
 36 56  1  0  0  0
 36109  1  0  0  0
 37 39  1  0  0  0
 37 47  1  0  0  0
 37 66  1  0  0  0
 37110  1  0  0  0
 38 43  2  0  0  0
 38 46  1  0  0  0
 38 47  1  0  0  0
 39 64  1  0  0  0
 39 67  2  0  0  0
 40 52  1  0  0  0
 40 53  2  0  0  0
 40 58  1  0  0  0
 41111  1  0  0  0
 41112  1  0  0  0
 41113  1  0  0  0
 41 48  1  0  0  0
 42 43  1  0  0  0
 42 66  1  0  0  0
 42114  1  0  0  0
 42115  1  0  0  0
 43 44  1  0  0  0
 44116  1  0  0  0
 45 46  2  0  0  0
 45117  1  0  0  0
 46118  1  0  0  0
 47119  1  0  0  0
 47120  1  0  0  0
 48 56  1  0  0  0
 48 65  1  0  0  0
 48121  1  0  0  0
 49 50  1  0  0  0
 49 53  1  0  0  0
 49 64  1  0  0  0
 49122  1  0  0  0
 50 51  1  0  0  0
 50123  1  0  0  0
 50124  1  0  0  0
 51 52  1  0  0  0
 51125  1  0  0  0
 51126  1  0  0  0
 52127  1  0  0  0
 52128  1  0  0  0
 53 54  1  0  0  0
 54 55  2  0  0  0
 54129  1  0  0  0
 55 57  1  0  0  0
 55130  1  0  0  0
 56 69  2  0  0  0
 57 58  2  0  0  0
 57131  1  0  0  0
 58132  1  0  0  0
 59 60  1  0  0  0
 59 61  1  0  0  0
 59 62  1  0  0  0
 60133  1  0  0  0
 60134  1  0  0  0
 60135  1  0  0  0
 61136  1  0  0  0
 61137  1  0  0  0
 61138  1  0  0  0
 62139  1  0  0  0
 62140  1  0  0  0
 62141  1  0  0  0
 63 65  1  0  0  0
 63142  1  0  0  0
 63143  1  0  0  0
 63144  1  0  0  0
 64145  1  0  0  0
 65146  1  0  0  0
 68 82  1  0  0  0
 71 73  2  0  0  0
 71 74  1  0  0  0
 71147  1  0  0  0
 72 74  2  0  0  0
 72 75  1  0  0  0
 72148  1  0  0  0
 73 84  1  0  0  0
 73149  1  0  0  0
 74 86  1  0  0  0
 75 84  2  0  0  0
 75 79  1  0  0  0
 76 77  1  0  0  0
 76 80  1  0  0  0
 76150  1  0  0  0
 76151  1  0  0  0
 77 85  1  0  0  0
 77152  1  0  0  0
 77153  1  0  0  0
 78 79  1  0  0  0
 78 85  1  0  0  0
 78154  1  0  0  0
 78155  1  0  0  0
 79 80  1  0  0  0
 79156  1  0  0  0
 80 87  1  0  0  0
 80157  1  0  0  0
 81 87  1  0  0  0
 81158  1  0  0  0
 81159  1  0  0  0
 81160  1  0  0  0
 82 83  1  0  0  0
 82161  1  0  0  0
 82162  1  0  0  0
 83 86  1  0  0  0
 83163  1  0  0  0
 83164  1  0  0  0
M  ISO  4   1 100  68 101  82 101  85 100
M  END
> <chiral flag>
0

> <version>
0

> <s_m_source_file>
/data/baiqing/PycharmProjects/Reinvent-master-3.2/result/LINK_invent/BTK/process_docking_weight1_custom_sum_contain_oxygen_bond_distance_aromatic_linkinvent_7_9_3/rearranged_h_0143.sdf

> <i_m_source_file_index>
66

> <r_mmod_Potential_Energy-OPLS-2005>
52.8892364501953

> <r_mmod_Stretch_Energy-OPLS-2005>
58.9956855773926

> <r_mmod_Bend_Energy-OPLS-2005>
130.875045776367

> <r_mmod_Torsional_Energy-OPLS-2005>
310.126281738281

> <r_mmod_Improper_Torsional_Energy-OPLS-2005>
3.49779105186462

> <r_mmod_Van_der_Waal_Energy-OPLS-2005>
150.913024902344

> <r_mmod_Electrostatic_Energy-OPLS-2005>
-411.759033203125

> <r_mmod_Solvation_Energy-OPLS-2005>
-209.180587768555

> <b_mmod_Minimization_Converged-OPLS-2005>
0

> <r_mmod_RMS_Derivative-OPLS-2005>
1.22716295719147

$$$$
66
                    3D
 Structure written by MMmdl.
171179  0  0  1  0            999 V2000
  -30.7027  -14.5514   20.5351 C   0  0  0  0  0  0
  -30.4268  -12.3445   19.4469 C   0  0  0  0  0  0
  -29.5086  -12.5141   18.2213 C   0  0  0  0  0  0
  -28.0325  -12.3563   18.6355 C   0  0  0  0  0  0
  -27.6615  -13.2176   19.8717 C   0  0  2  0  0  0
  -28.7081  -13.0571   20.9986 C   0  0  0  0  0  0
  -25.2604  -13.8174   20.5679 C   0  0  0  0  0  0
  -24.1865  -13.0436   20.9148 C   0  0  0  0  0  0
  -24.6423  -11.6896   20.8694 C   0  0  0  0  0  0
  -23.9076  -10.4279   21.0393 C   0  0  0  0  0  0
  -24.3614   -9.4202   21.9182 C   0  0  0  0  0  0
  -23.6296   -8.2246   22.0758 C   0  0  0  0  0  0
  -22.4273   -8.0281   21.3547 C   0  0  0  0  0  0
  -21.9913   -9.0250   20.4649 C   0  0  0  0  0  0
  -22.7236  -10.2129   20.3040 C   0  0  0  0  0  0
  -21.6861   -6.0718   22.5252 C   0  0  0  0  0  0
  -21.4034   -6.5617   23.8184 C   0  0  0  0  0  0
  -21.3679   -5.6776   24.9148 C   0  0  0  0  0  0
  -21.6041   -4.3027   24.7207 C   0  0  0  0  0  0
  -21.8829   -3.8128   23.4323 C   0  0  0  0  0  0
  -21.9215   -4.6946   22.3375 C   0  0  0  0  0  0
  -22.7891  -13.5228   21.1815 C   0  0  0  0  0  0
  -22.1660   -4.2135   21.0950 F   0  0  0  0  0  0
  -21.5647   -3.4512   25.7725 F   0  0  0  0  0  0
  -30.0317  -13.3632   20.4334 N   0  0  0  0  0  0
  -26.3054  -12.9348   20.3392 N   0  0  0  0  0  0
  -25.9351  -11.6490   20.5769 N   0  0  0  0  0  0
  -22.0513  -12.8234   22.0361 N   0  0  0  0  0  0
  -25.4363  -15.1884   20.4012 N   0  0  0  0  0  0
  -31.8467  -14.7002   20.1048 O   0  0  0  0  0  0
  -21.6647   -6.8873   21.4220 O   0  0  0  0  0  0
  -22.3560  -14.5536   20.6682 O   0  0  0  0  0  0
  -24.6191  -31.8692   23.2087 C   0  0  0  0  0  0
  -25.9063  -32.4833   23.8378 C   0  0  1  0  0  0
  -27.2170  -27.3974   20.0921 C   0  0  0  0  0  0
  -25.5907  -33.8621   24.2312 N   0  0  0  0  0  0
  -23.4060  -30.4947   21.5533 C   0  0  2  0  0  0
  -24.8429  -28.9563   20.1150 C   0  0  0  0  0  0
  -22.7409  -29.4689   22.5022 C   0  0  0  0  0  0
  -18.0265  -28.1369   22.8520 C   0  0  0  0  0  0
  -24.1488  -36.7301   23.2639 C   0  0  0  0  0  0
  -25.9385  -30.8211   21.3666 C   0  0  0  0  0  0
  -26.0101  -29.4558   20.7078 C   0  0  0  0  0  0
  -27.2010  -28.6878   20.6843 C   0  0  0  0  0  0
  -26.0286  -26.9277   19.4879 C   0  0  0  0  0  0
  -24.8496  -27.6929   19.5038 C   0  0  0  0  0  0
  -23.6092  -29.8287   20.1680 C   0  0  0  0  0  0
  -25.4114  -36.3123   24.0344 C   0  0  1  0  0  0
  -20.5870  -28.3654   23.1334 C   0  0  2  0  0  0
  -20.6757  -26.9403   22.5420 C   0  0  0  0  0  0
  -19.5714  -26.6390   21.5234 C   0  0  0  0  0  0
  -18.1903  -26.7930   22.1651 C   0  0  0  0  0  0
  -19.1531  -28.8828   23.2911 C   0  0  0  0  0  0
  -18.9442  -30.1440   23.8921 C   0  0  0  0  0  0
  -17.6447  -30.6586   24.0566 C   0  0  0  0  0  0
  -25.9048  -34.9493   23.5134 C   0  0  0  0  0  0
  -16.5330  -29.9098   23.6317 C   0  0  0  0  0  0
  -16.7260  -28.6497   23.0368 C   0  0  0  0  0  0
  -26.4440  -31.6616   25.0727 C   0  0  0  0  0  0
  -25.3673  -31.3727   26.1453 C   0  0  0  0  0  0
  -27.0247  -30.3047   24.6129 C   0  0  0  0  0  0
  -27.6021  -32.4328   25.7483 C   0  0  0  0  0  0
  -27.5591  -37.1815   24.8464 C   0  0  0  0  0  0
  -21.4143  -29.3031   22.3740 N   0  0  0  0  0  0
  -26.4298  -37.3808   23.9415 N   0  0  0  0  0  0
  -24.6740  -31.0773   22.1012 N   0  0  0  0  0  0
  -23.4166  -28.8238   23.3094 O   0  0  0  0  0  0
  -28.3795  -26.6431   20.0768 O   0  0  0  0  0  0
  -26.5620  -34.8947   22.4705 O   0  0  0  0  0  0
  -23.5380  -32.1453   23.7467 O   0  0  0  0  0  0
  -31.9256  -24.2193   20.4463 C   0  0  0  0  0  0
  -30.8089  -25.2400   20.5424 C   0  0  0  0  0  0
  -31.2309  -22.8665   20.6843 C   0  0  1  0  0  0
  -29.6218  -24.4985   19.9272 C   0  0  2  0  0  0
  -31.3943  -22.4082   22.1439 C   0  0  0  0  0  0
  -28.0033  -19.2905   20.8001 C   0  0  0  0  0  0
  -29.1061  -20.0528   17.9044 C   0  0  0  0  0  0
  -28.2822  -25.2068   20.2922 C   0  0  0  0  0  0
  -30.0118  -17.9941   19.9670 C   0  0  0  0  0  0
  -30.4012  -17.0290   21.1394 C   0  0  0  0  0  0
  -29.1067  -22.0249   19.4790 C   0  0  0  0  0  0
  -29.4773  -19.4297   20.3606 C   0  0  1  0  0  0
  -29.6805  -20.5487   19.2512 C   0  0  1  0  0  0
  -29.9888  -15.6069   20.9892 N   0  0  0  0  0  0
  -29.7851  -23.0542   20.3619 N   0  3  1  0  0  0
  -31.4724  -12.4265   19.1548 H   0  0  0  0  0  0
  -30.3127  -11.3477   19.8726 H   0  0  0  0  0  0
  -29.7654  -11.7881   17.4493 H   0  0  0  0  0  0
  -29.6691  -13.5005   17.7785 H   0  0  0  0  0  0
  -27.8645  -11.3028   18.8614 H   0  0  0  0  0  0
  -27.3790  -12.5936   17.7971 H   0  0  0  0  0  0
  -27.6876  -14.2563   19.5469 H   0  0  0  0  0  0
  -28.6965  -12.0359   21.3825 H   0  0  0  0  0  0
  -28.4673  -13.6929   21.8502 H   0  0  0  0  0  0
  -25.2766   -9.5688   22.4765 H   0  0  0  0  0  0
  -24.0000   -7.4644   22.7473 H   0  0  0  0  0  0
  -21.0861   -8.8750   19.8940 H   0  0  0  0  0  0
  -22.3694  -10.9663   19.6149 H   0  0  0  0  0  0
  -21.1999   -7.6124   23.9691 H   0  0  0  0  0  0
  -21.1509   -6.0490   25.9061 H   0  0  0  0  0  0
  -22.0609   -2.7590   23.2815 H   0  0  0  0  0  0
  -22.4097  -11.9881   22.4747 H   0  0  0  0  0  0
  -21.1150  -13.1295   22.2553 H   0  0  0  0  0  0
  -24.6761  -15.8547   20.4919 H   0  0  0  0  0  0
  -26.2940  -15.6145   20.0698 H   0  0  0  0  0  0
  -26.7141  -32.5497   23.1130 H   0  0  0  0  0  0
  -25.0006  -33.9763   25.0427 H   0  0  0  0  0  0
  -22.6972  -31.3136   21.4178 H   0  0  0  0  0  0
  -23.3780  -35.9604   23.3303 H   0  0  0  0  0  0
  -24.3589  -36.8916   22.2057 H   0  0  0  0  0  0
  -23.7225  -37.6498   23.6646 H   0  0  0  0  0  0
  -26.0655  -31.5938   20.6064 H   0  0  0  0  0  0
  -26.8217  -30.8636   21.9916 H   0  0  0  0  0  0
  -28.1049  -29.0756   21.1317 H   0  0  0  0  0  0
  -25.9859  -25.9805   18.9729 H   0  0  0  0  0  0
  -23.9523  -27.3099   19.0378 H   0  0  0  0  0  0
  -23.7172  -30.6043   19.4103 H   0  0  0  0  0  0
  -22.7286  -29.2546   19.8744 H   0  0  0  0  0  0
  -25.1318  -36.1982   25.0845 H   0  0  0  0  0  0
  -20.9945  -28.3212   24.1456 H   0  0  0  0  0  0
  -20.5708  -26.2261   23.3604 H   0  0  0  0  0  0
  -21.6619  -26.7469   22.1183 H   0  0  0  0  0  0
  -19.6872  -25.6309   21.1254 H   0  0  0  0  0  0
  -19.6654  -27.3216   20.6782 H   0  0  0  0  0  0
  -17.4187  -26.6712   21.4034 H   0  0  0  0  0  0
  -18.0254  -26.0053   22.9019 H   0  0  0  0  0  0
  -19.7908  -30.7259   24.2311 H   0  0  0  0  0  0
  -17.4989  -31.6292   24.5141 H   0  0  0  0  0  0
  -15.5334  -30.3008   23.7626 H   0  0  0  0  0  0
  -15.8640  -28.0819   22.7087 H   0  0  0  0  0  0
  -24.5851  -30.7076   25.7767 H   0  0  0  0  0  0
  -24.8832  -32.2869   26.4892 H   0  0  0  0  0  0
  -25.7994  -30.8887   27.0215 H   0  0  0  0  0  0
  -26.2781  -29.6859   24.1124 H   0  0  0  0  0  0
  -27.3918  -29.7266   25.4618 H   0  0  0  0  0  0
  -27.8676  -30.4357   23.9336 H   0  0  0  0  0  0
  -27.2645  -33.3618   26.2072 H   0  0  0  0  0  0
  -28.3792  -32.6900   25.0281 H   0  0  0  0  0  0
  -28.0699  -31.8433   26.5367 H   0  0  0  0  0  0
  -28.2623  -38.0102   24.7546 H   0  0  0  0  0  0
  -28.1083  -36.2652   24.6261 H   0  0  0  0  0  0
  -27.2301  -37.1429   25.8859 H   0  0  0  0  0  0
  -20.9320  -29.8675   21.6896 H   0  0  0  0  0  0
  -26.0200  -38.2893   24.1407 H   0  0  0  0  0  0
  -32.7434  -24.4263   21.1411 H   0  0  0  0  0  0
  -32.3442  -24.2443   19.4391 H   0  0  0  0  0  0
  -31.0439  -26.1709   20.0206 H   0  0  0  0  0  0
  -30.6077  -25.4923   21.5874 H   0  0  0  0  0  0
  -31.7211  -22.1478   20.0315 H   0  0  0  0  0  0
  -29.7470  -24.5480   18.8438 H   0  0  0  0  0  0
  -30.9976  -23.1427   22.8462 H   0  0  0  0  0  0
  -32.4470  -22.2594   22.3925 H   0  0  0  0  0  0
  -30.8845  -21.4656   22.3312 H   0  0  0  0  0  0
  -27.9072  -18.5739   21.6162 H   0  0  0  0  0  0
  -27.3769  -18.9276   19.9846 H   0  0  0  0  0  0
  -27.5744  -20.2247   21.1532 H   0  0  0  0  0  0
  -29.3552  -20.7340   17.0905 H   0  0  0  0  0  0
  -28.0186  -19.9735   17.9369 H   0  0  0  0  0  0
  -29.5020  -19.0800   17.6123 H   0  0  0  0  0  0
  -28.0390  -25.0341   21.3415 H   0  0  0  0  0  0
  -27.4908  -24.7427   19.7094 H   0  0  0  0  0  0
  -29.2816  -17.4960   19.3265 H   0  0  0  0  0  0
  -30.8958  -18.1112   19.3375 H   0  0  0  0  0  0
  -29.9469  -17.3910   22.0627 H   0  0  0  0  0  0
  -31.4800  -17.0898   21.3069 H   0  0  0  0  0  0
  -28.0654  -21.9674   19.7955 H   0  0  0  0  0  0
  -29.0467  -22.4852   18.4943 H   0  0  0  0  0  0
  -30.0520  -19.7435   21.2283 H   0  0  0  0  0  0
  -30.7501  -20.6102   19.0607 H   0  0  0  0  0  0
  -29.0667  -15.3814   21.3270 H   0  0  0  0  0  0
  -29.3295  -22.9779   21.2600 H   0  0  0  0  0  0
  1 25  1  0  0  0
  1 30  2  0  0  0
  1 84  1  0  0  0
  2  3  1  0  0  0
  2 25  1  0  0  0
  2 86  1  0  0  0
  2 87  1  0  0  0
  3  4  1  0  0  0
  3 88  1  0  0  0
  3 89  1  0  0  0
  4  5  1  0  0  0
  4 90  1  0  0  0
  4 91  1  0  0  0
  5  6  1  0  0  0
  5 26  1  0  0  0
  5 92  1  0  0  0
  6 25  1  0  0  0
  6 93  1  0  0  0
  6 94  1  0  0  0
  7  8  2  0  0  0
  7 26  1  0  0  0
  7 29  1  0  0  0
  8  9  1  0  0  0
  8 22  1  0  0  0
  9 10  1  0  0  0
  9 27  2  0  0  0
 10 11  2  0  0  0
 10 15  1  0  0  0
 11 12  1  0  0  0
 11 95  1  0  0  0
 12 13  2  0  0  0
 12 96  1  0  0  0
 13 14  1  0  0  0
 13 31  1  0  0  0
 14 15  2  0  0  0
 14 97  1  0  0  0
 15 98  1  0  0  0
 16 17  2  0  0  0
 16 21  1  0  0  0
 16 31  1  0  0  0
 17 18  1  0  0  0
 17 99  1  0  0  0
 18 19  2  0  0  0
 18100  1  0  0  0
 19 20  1  0  0  0
 19 24  1  0  0  0
 20 21  2  0  0  0
 20101  1  0  0  0
 21 23  1  0  0  0
 22 28  1  0  0  0
 22 32  2  0  0  0
 26 27  1  0  0  0
 28102  1  0  0  0
 28103  1  0  0  0
 29104  1  0  0  0
 29105  1  0  0  0
 33 34  1  0  0  0
 33 66  1  0  0  0
 33 70  2  0  0  0
 34 36  1  0  0  0
 34 59  1  0  0  0
 34106  1  0  0  0
 35 44  2  0  0  0
 35 45  1  0  0  0
 35 68  1  0  0  0
 36 56  1  0  0  0
 36107  1  0  0  0
 37 39  1  0  0  0
 37 47  1  0  0  0
 37 66  1  0  0  0
 37108  1  0  0  0
 38 43  2  0  0  0
 38 46  1  0  0  0
 38 47  1  0  0  0
 39 64  1  0  0  0
 39 67  2  0  0  0
 40 52  1  0  0  0
 40 53  2  0  0  0
 40 58  1  0  0  0
 41109  1  0  0  0
 41110  1  0  0  0
 41111  1  0  0  0
 41 48  1  0  0  0
 42 43  1  0  0  0
 42 66  1  0  0  0
 42112  1  0  0  0
 42113  1  0  0  0
 43 44  1  0  0  0
 44114  1  0  0  0
 45 46  2  0  0  0
 45115  1  0  0  0
 46116  1  0  0  0
 47117  1  0  0  0
 47118  1  0  0  0
 48 56  1  0  0  0
 48 65  1  0  0  0
 48119  1  0  0  0
 49 50  1  0  0  0
 49 53  1  0  0  0
 49 64  1  0  0  0
 49120  1  0  0  0
 50 51  1  0  0  0
 50121  1  0  0  0
 50122  1  0  0  0
 51 52  1  0  0  0
 51123  1  0  0  0
 51124  1  0  0  0
 52125  1  0  0  0
 52126  1  0  0  0
 53 54  1  0  0  0
 54 55  2  0  0  0
 54127  1  0  0  0
 55 57  1  0  0  0
 55128  1  0  0  0
 56 69  2  0  0  0
 57 58  2  0  0  0
 57129  1  0  0  0
 58130  1  0  0  0
 59 60  1  0  0  0
 59 61  1  0  0  0
 59 62  1  0  0  0
 60131  1  0  0  0
 60132  1  0  0  0
 60133  1  0  0  0
 61134  1  0  0  0
 61135  1  0  0  0
 61136  1  0  0  0
 62137  1  0  0  0
 62138  1  0  0  0
 62139  1  0  0  0
 63 65  1  0  0  0
 63140  1  0  0  0
 63141  1  0  0  0
 63142  1  0  0  0
 64143  1  0  0  0
 65144  1  0  0  0
 68 78  1  0  0  0
 71 72  1  0  0  0
 71 73  1  0  0  0
 71145  1  0  0  0
 71146  1  0  0  0
 72 74  1  0  0  0
 72147  1  0  0  0
 72148  1  0  0  0
 73 75  1  0  0  0
 73 85  1  0  0  0
 73149  1  0  0  0
 74 78  1  0  0  0
 74 85  1  0  0  0
 74150  1  0  0  0
 75151  1  0  0  0
 75152  1  0  0  0
 75153  1  0  0  0
 76154  1  0  0  0
 76155  1  0  0  0
 76156  1  0  0  0
 76 82  1  0  0  0
 77157  1  0  0  0
 77158  1  0  0  0
 77159  1  0  0  0
 77 83  1  0  0  0
 78160  1  0  0  0
 78161  1  0  0  0
 79 80  1  0  0  0
 79 82  1  0  0  0
 79162  1  0  0  0
 79163  1  0  0  0
 80 84  1  0  0  0
 80164  1  0  0  0
 80165  1  0  0  0
 81 83  1  0  0  0
 81166  1  0  0  0
 81167  1  0  0  0
 81 85  1  0  0  0
 82 83  1  0  0  0
 82168  1  0  0  0
 83169  1  0  0  0
 84170  1  0  0  0
 85171  1  0  0  0
M  CHG  1  85   1
M  ISO  4   1 100  68 101  78 101  84 100
M  END
> <chiral flag>
0

> <version>
0

> <s_m_source_file>
/data/baiqing/PycharmProjects/Reinvent-master-3.2/result/LINK_invent/BTK/process_docking_weight1_custom_sum_contain_oxygen_bond_distance_aromatic_linkinvent_7_9_3/rearranged_h_0143.sdf

> <i_m_source_file_index>
67

> <r_mmod_Potential_Energy-OPLS-2005>
71.3094024658203

> <r_mmod_Stretch_Energy-OPLS-2005>
60.8642654418945

> <r_mmod_Bend_Energy-OPLS-2005>
167.142990112305

> <r_mmod_Torsional_Energy-OPLS-2005>
310.11669921875

> <r_mmod_Improper_Torsional_Energy-OPLS-2005>
3.46041131019592

> <r_mmod_Van_der_Waal_Energy-OPLS-2005>
130.263076782227

> <r_mmod_Electrostatic_Energy-OPLS-2005>
-213.687927246094

> <r_mmod_Solvation_Energy-OPLS-2005>
-409.393768310547

> <b_mmod_Minimization_Converged-OPLS-2005>
0

> <r_mmod_RMS_Derivative-OPLS-2005>
4.25272369384766

$$$$
67
                    3D
 Structure written by MMmdl.
165173  0  0  1  0            999 V2000
  -30.6541  -14.5278   20.4832 C   0  0  0  0  0  0
  -30.4116  -12.3163   19.4161 C   0  0  0  0  0  0
  -29.4826  -12.4724   18.1917 C   0  0  0  0  0  0
  -28.0043  -12.3297   18.6070 C   0  0  0  0  0  0
  -27.6439  -13.1937   19.8477 C   0  0  2  0  0  0
  -28.6902  -13.0206   20.9727 C   0  0  0  0  0  0
  -25.2505  -13.8117   20.5577 C   0  0  0  0  0  0
  -24.1806  -13.0398   20.9156 C   0  0  0  0  0  0
  -24.6336  -11.6864   20.8696 C   0  0  0  0  0  0
  -23.9033  -10.4262   21.0346 C   0  0  0  0  0  0
  -24.3607   -9.4188   21.9111 C   0  0  0  0  0  0
  -23.6289   -8.2236   22.0724 C   0  0  0  0  0  0
  -22.4259   -8.0274   21.3553 C   0  0  0  0  0  0
  -21.9907   -9.0216   20.4615 C   0  0  0  0  0  0
  -22.7209  -10.2087   20.3001 C   0  0  0  0  0  0
  -21.6871   -6.0713   22.5262 C   0  0  0  0  0  0
  -21.4016   -6.5619   23.8190 C   0  0  0  0  0  0
  -21.3668   -5.6774   24.9157 C   0  0  0  0  0  0
  -21.6042   -4.3046   24.7213 C   0  0  0  0  0  0
  -21.8832   -3.8132   23.4344 C   0  0  0  0  0  0
  -21.9184   -4.6945   22.3392 C   0  0  0  0  0  0
  -22.7799  -13.5161   21.1849 C   0  0  0  0  0  0
  -22.1650   -4.2124   21.0971 F   0  0  0  0  0  0
  -21.5649   -3.4538   25.7745 F   0  0  0  0  0  0
  -30.0104  -13.3302   20.4046 N   0  0  0  0  0  0
  -26.2915  -12.9245   20.3219 N   0  0  0  0  0  0
  -25.9248  -11.6419   20.5720 N   0  0  0  0  0  0
  -22.0516  -12.8121   22.0437 N   0  0  0  0  0  0
  -25.4250  -15.1819   20.3884 N   0  0  0  0  0  0
  -31.8253  -14.6815   20.1265 O   0  0  0  0  0  0
  -21.6651   -6.8848   21.4231 O   0  0  0  0  0  0
  -22.3428  -14.5429   20.6674 O   0  0  0  0  0  0
  -24.6144  -31.8632   23.2049 C   0  0  0  0  0  0
  -25.9026  -32.4783   23.8351 C   0  0  1  0  0  0
  -27.2737  -27.4292   20.0948 C   0  0  0  0  0  0
  -25.5882  -33.8580   24.2303 N   0  0  0  0  0  0
  -23.4080  -30.4851   21.5387 C   0  0  2  0  0  0
  -24.8658  -28.9393   20.1186 C   0  0  0  0  0  0
  -22.7404  -29.4714   22.4960 C   0  0  0  0  0  0
  -18.0289  -28.1412   22.8465 C   0  0  0  0  0  0
  -24.1494  -36.7304   23.2640 C   0  0  0  0  0  0
  -25.9341  -30.8370   21.3527 C   0  0  0  0  0  0
  -26.0215  -29.4650   20.7073 C   0  0  0  0  0  0
  -27.2186  -28.7115   20.6990 C   0  0  0  0  0  0
  -26.0919  -26.9206   19.5050 C   0  0  0  0  0  0
  -24.8957  -27.6660   19.5240 C   0  0  0  0  0  0
  -23.6219  -29.7954   20.1626 C   0  0  0  0  0  0
  -25.4106  -36.3075   24.0337 C   0  0  1  0  0  0
  -20.5869  -28.3711   23.1306 C   0  0  2  0  0  0
  -20.6771  -26.9440   22.5439 C   0  0  0  0  0  0
  -19.5743  -26.6401   21.5232 C   0  0  0  0  0  0
  -18.1925  -26.7949   22.1625 C   0  0  0  0  0  0
  -19.1541  -28.8866   23.2869 C   0  0  0  0  0  0
  -18.9463  -30.1458   23.8890 C   0  0  0  0  0  0
  -17.6473  -30.6588   24.0575 C   0  0  0  0  0  0
  -25.9041  -34.9444   23.5123 C   0  0  0  0  0  0
  -16.5360  -29.9104   23.6317 C   0  0  0  0  0  0
  -16.7284  -28.6539   23.0297 C   0  0  0  0  0  0
  -26.4473  -31.6567   25.0669 C   0  0  0  0  0  0
  -25.3729  -31.3690   26.1410 C   0  0  0  0  0  0
  -27.0324  -30.2995   24.6087 C   0  0  0  0  0  0
  -27.6042  -32.4288   25.7434 C   0  0  0  0  0  0
  -27.5575  -37.1793   24.8456 C   0  0  0  0  0  0
  -21.4129  -29.3081   22.3682 N   0  0  0  0  0  0
  -26.4280  -37.3769   23.9404 N   0  0  0  0  0  0
  -24.6697  -31.0776   22.0918 N   0  0  0  0  0  0
  -23.4159  -28.8294   23.3051 O   0  0  0  0  0  0
  -28.4874  -26.7557   20.1114 O   0  0  0  0  0  0
  -26.5602  -34.8911   22.4688 O   0  0  0  0  0  0
  -23.5335  -32.1361   23.7469 O   0  0  0  0  0  0
  -29.2701  -20.6040   20.1956 C   0  0  0  0  0  0
  -28.8905  -21.9896   22.1476 C   0  0  0  0  0  0
  -29.1422  -19.4217   20.9808 C   0  0  0  0  0  0
  -28.7306  -20.8392   22.9529 C   0  0  0  0  0  0
  -28.8350  -19.5586   22.3564 C   0  0  0  0  0  0
  -29.1065  -21.8986   20.7543 C   0  0  0  0  0  0
  -26.8800  -21.6258   24.4477 C   0  0  0  0  0  0
  -29.2814  -21.8630   25.2422 C   0  0  0  0  0  0
  -29.1564  -18.0146   20.3357 C   0  0  0  0  0  0
  -30.2661  -17.0188   20.8149 C   0  0  0  0  0  0
  -28.6985  -25.4756   19.4765 C   0  0  0  0  0  0
  -28.7519  -24.3001   20.4910 C   0  0  0  0  0  0
  -28.2948  -21.0297   24.4092 C   0  0  0  0  0  0
  -28.5740  -18.4076   23.0996 N   0  0  0  0  0  0
  -29.8696  -15.5892   20.7775 N   0  0  0  0  0  0
  -29.1064  -23.0174   19.9223 O   0  0  0  0  0  0
  -31.4558  -12.4136   19.1163 H   0  0  0  0  0  0
  -30.3128  -11.3155   19.8391 H   0  0  0  0  0  0
  -29.7326  -11.7199   17.4416 H   0  0  0  0  0  0
  -29.6355  -13.4427   17.7153 H   0  0  0  0  0  0
  -27.8193  -11.2749   18.8178 H   0  0  0  0  0  0
  -27.3561  -12.5757   17.7652 H   0  0  0  0  0  0
  -27.6695  -14.2301   19.5174 H   0  0  0  0  0  0
  -28.6826  -11.9947   21.3450 H   0  0  0  0  0  0
  -28.4482  -13.6514   21.8315 H   0  0  0  0  0  0
  -25.2788   -9.5681   22.4615 H   0  0  0  0  0  0
  -24.0033   -7.4632   22.7420 H   0  0  0  0  0  0
  -21.0878   -8.8670   19.8888 H   0  0  0  0  0  0
  -22.3669  -10.9583   19.6079 H   0  0  0  0  0  0
  -21.2027   -7.6131   23.9694 H   0  0  0  0  0  0
  -21.1477   -6.0511   25.9045 H   0  0  0  0  0  0
  -22.0620   -2.7606   23.2848 H   0  0  0  0  0  0
  -22.4270  -11.9866   22.4876 H   0  0  0  0  0  0
  -21.1052  -13.0970   22.2565 H   0  0  0  0  0  0
  -24.6736  -15.8503   20.5216 H   0  0  0  0  0  0
  -26.2792  -15.6129   20.0606 H   0  0  0  0  0  0
  -26.7090  -32.5532   23.1116 H   0  0  0  0  0  0
  -25.0023  -33.9748   25.0442 H   0  0  0  0  0  0
  -22.7013  -31.3006   21.3749 H   0  0  0  0  0  0
  -23.3726  -35.9657   23.3295 H   0  0  0  0  0  0
  -24.3589  -36.8940   22.2052 H   0  0  0  0  0  0
  -23.7280  -37.6524   23.6670 H   0  0  0  0  0  0
  -26.0478  -31.6039   20.5838 H   0  0  0  0  0  0
  -26.8221  -30.9041   21.9692 H   0  0  0  0  0  0
  -28.1085  -29.1206   21.1589 H   0  0  0  0  0  0
  -26.0682  -25.9509   19.0329 H   0  0  0  0  0  0
  -24.0022  -27.2502   19.0805 H   0  0  0  0  0  0
  -23.7236  -30.5535   19.3849 H   0  0  0  0  0  0
  -22.7564  -29.1959   19.8764 H   0  0  0  0  0  0
  -25.1284  -36.1921   25.0822 H   0  0  0  0  0  0
  -20.9958  -28.3295   24.1424 H   0  0  0  0  0  0
  -20.5689  -26.2320   23.3634 H   0  0  0  0  0  0
  -21.6630  -26.7484   22.1205 H   0  0  0  0  0  0
  -19.6906  -25.6320   21.1235 H   0  0  0  0  0  0
  -19.6672  -27.3222   20.6764 H   0  0  0  0  0  0
  -17.4194  -26.6686   21.4031 H   0  0  0  0  0  0
  -18.0297  -26.0134   22.9054 H   0  0  0  0  0  0
  -19.7954  -30.7252   24.2264 H   0  0  0  0  0  0
  -17.5044  -31.6267   24.5190 H   0  0  0  0  0  0
  -15.5362  -30.2990   23.7665 H   0  0  0  0  0  0
  -15.8680  -28.0873   22.6964 H   0  0  0  0  0  0
  -24.5900  -30.7047   25.7740 H   0  0  0  0  0  0
  -24.8918  -32.2860   26.4818 H   0  0  0  0  0  0
  -25.8052  -30.8869   27.0184 H   0  0  0  0  0  0
  -26.2903  -29.6701   24.1153 H   0  0  0  0  0  0
  -27.4102  -29.7285   25.4587 H   0  0  0  0  0  0
  -27.8724  -30.4288   23.9244 H   0  0  0  0  0  0
  -27.2663  -33.3592   26.2002 H   0  0  0  0  0  0
  -28.3852  -32.6832   25.0253 H   0  0  0  0  0  0
  -28.0689  -31.8391   26.5349 H   0  0  0  0  0  0
  -28.2572  -38.0112   24.7503 H   0  0  0  0  0  0
  -28.1105  -36.2637   24.6272 H   0  0  0  0  0  0
  -27.2303  -37.1431   25.8867 H   0  0  0  0  0  0
  -20.9298  -29.8783   21.6871 H   0  0  0  0  0  0
  -26.0162  -38.2846   24.1383 H   0  0  0  0  0  0
  -29.4272  -20.5256   19.1303 H   0  0  0  0  0  0
  -28.7663  -22.9525   22.6158 H   0  0  0  0  0  0
  -26.1811  -20.9820   23.9117 H   0  0  0  0  0  0
  -26.8520  -22.6089   23.9754 H   0  0  0  0  0  0
  -26.5178  -21.7336   25.4706 H   0  0  0  0  0  0
  -30.2541  -21.3756   25.3027 H   0  0  0  0  0  0
  -28.9107  -21.9737   26.2637 H   0  0  0  0  0  0
  -29.4266  -22.8643   24.8409 H   0  0  0  0  0  0
  -29.2358  -18.1287   19.2559 H   0  0  0  0  0  0
  -28.1658  -17.5849   20.5113 H   0  0  0  0  0  0
  -30.5560  -17.2296   21.8424 H   0  0  0  0  0  0
  -31.1612  -17.1896   20.2117 H   0  0  0  0  0  0
  -28.0111  -25.2704   18.6587 H   0  0  0  0  0  0
  -29.6851  -25.5463   19.0150 H   0  0  0  0  0  0
  -27.7928  -24.2343   21.0091 H   0  0  0  0  0  0
  -29.5110  -24.5484   21.2332 H   0  0  0  0  0  0
  -28.2462  -20.0675   24.9151 H   0  0  0  0  0  0
  -28.6442  -17.4868   22.6866 H   0  0  0  0  0  0
  -28.3910  -18.4308   24.0946 H   0  0  0  0  0  0
  -28.9091  -15.3737   20.9973 H   0  0  0  0  0  0
  1 25  1  0  0  0
  1 30  2  0  0  0
  1 85  1  0  0  0
  2  3  1  0  0  0
  2 25  1  0  0  0
  2 87  1  0  0  0
  2 88  1  0  0  0
  3  4  1  0  0  0
  3 89  1  0  0  0
  3 90  1  0  0  0
  4  5  1  0  0  0
  4 91  1  0  0  0
  4 92  1  0  0  0
  5  6  1  0  0  0
  5 26  1  0  0  0
  5 93  1  0  0  0
  6 25  1  0  0  0
  6 94  1  0  0  0
  6 95  1  0  0  0
  7  8  2  0  0  0
  7 26  1  0  0  0
  7 29  1  0  0  0
  8  9  1  0  0  0
  8 22  1  0  0  0
  9 10  1  0  0  0
  9 27  2  0  0  0
 10 11  2  0  0  0
 10 15  1  0  0  0
 11 12  1  0  0  0
 11 96  1  0  0  0
 12 13  2  0  0  0
 12 97  1  0  0  0
 13 14  1  0  0  0
 13 31  1  0  0  0
 14 15  2  0  0  0
 14 98  1  0  0  0
 15 99  1  0  0  0
 16 17  2  0  0  0
 16 21  1  0  0  0
 16 31  1  0  0  0
 17 18  1  0  0  0
 17100  1  0  0  0
 18 19  2  0  0  0
 18101  1  0  0  0
 19 20  1  0  0  0
 19 24  1  0  0  0
 20 21  2  0  0  0
 20102  1  0  0  0
 21 23  1  0  0  0
 22 28  1  0  0  0
 22 32  2  0  0  0
 26 27  1  0  0  0
 28103  1  0  0  0
 28104  1  0  0  0
 29105  1  0  0  0
 29106  1  0  0  0
 33 34  1  0  0  0
 33 66  1  0  0  0
 33 70  2  0  0  0
 34 36  1  0  0  0
 34 59  1  0  0  0
 34107  1  0  0  0
 35 44  2  0  0  0
 35 45  1  0  0  0
 35 68  1  0  0  0
 36 56  1  0  0  0
 36108  1  0  0  0
 37 39  1  0  0  0
 37 47  1  0  0  0
 37 66  1  0  0  0
 37109  1  0  0  0
 38 43  2  0  0  0
 38 46  1  0  0  0
 38 47  1  0  0  0
 39 64  1  0  0  0
 39 67  2  0  0  0
 40 52  1  0  0  0
 40 53  2  0  0  0
 40 58  1  0  0  0
 41110  1  0  0  0
 41111  1  0  0  0
 41112  1  0  0  0
 41 48  1  0  0  0
 42 43  1  0  0  0
 42 66  1  0  0  0
 42113  1  0  0  0
 42114  1  0  0  0
 43 44  1  0  0  0
 44115  1  0  0  0
 45 46  2  0  0  0
 45116  1  0  0  0
 46117  1  0  0  0
 47118  1  0  0  0
 47119  1  0  0  0
 48 56  1  0  0  0
 48 65  1  0  0  0
 48120  1  0  0  0
 49 50  1  0  0  0
 49 53  1  0  0  0
 49 64  1  0  0  0
 49121  1  0  0  0
 50 51  1  0  0  0
 50122  1  0  0  0
 50123  1  0  0  0
 51 52  1  0  0  0
 51124  1  0  0  0
 51125  1  0  0  0
 52126  1  0  0  0
 52127  1  0  0  0
 53 54  1  0  0  0
 54 55  2  0  0  0
 54128  1  0  0  0
 55 57  1  0  0  0
 55129  1  0  0  0
 56 69  2  0  0  0
 57 58  2  0  0  0
 57130  1  0  0  0
 58131  1  0  0  0
 59 60  1  0  0  0
 59 61  1  0  0  0
 59 62  1  0  0  0
 60132  1  0  0  0
 60133  1  0  0  0
 60134  1  0  0  0
 61135  1  0  0  0
 61136  1  0  0  0
 61137  1  0  0  0
 62138  1  0  0  0
 62139  1  0  0  0
 62140  1  0  0  0
 63 65  1  0  0  0
 63141  1  0  0  0
 63142  1  0  0  0
 63143  1  0  0  0
 64144  1  0  0  0
 65145  1  0  0  0
 68 81  1  0  0  0
 71 73  2  0  0  0
 71 76  1  0  0  0
 71146  1  0  0  0
 72 74  1  0  0  0
 72 76  2  0  0  0
 72147  1  0  0  0
 73 75  1  0  0  0
 73 79  1  0  0  0
 74 75  2  0  0  0
 74 83  1  0  0  0
 75 84  1  0  0  0
 76 86  1  0  0  0
 77148  1  0  0  0
 77149  1  0  0  0
 77150  1  0  0  0
 77 83  1  0  0  0
 78 83  1  0  0  0
 78151  1  0  0  0
 78152  1  0  0  0
 78153  1  0  0  0
 79 80  1  0  0  0
 79154  1  0  0  0
 79155  1  0  0  0
 80 85  1  0  0  0
 80156  1  0  0  0
 80157  1  0  0  0
 81 82  1  0  0  0
 81158  1  0  0  0
 81159  1  0  0  0
 82 86  1  0  0  0
 82160  1  0  0  0
 82161  1  0  0  0
 83162  1  0  0  0
 84163  1  0  0  0
 84164  1  0  0  0
 85165  1  0  0  0
M  ISO  4   1 100  68 101  81 101  85 100
M  END
> <chiral flag>
0

> <version>
0

> <s_m_source_file>
/data/baiqing/PycharmProjects/Reinvent-master-3.2/result/LINK_invent/BTK/process_docking_weight1_custom_sum_contain_oxygen_bond_distance_aromatic_linkinvent_7_9_3/rearranged_h_0143.sdf

> <i_m_source_file_index>
68

> <r_mmod_Potential_Energy-OPLS-2005>
-89.517936706543

> <r_mmod_Stretch_Energy-OPLS-2005>
46.9777641296387

> <r_mmod_Bend_Energy-OPLS-2005>
129.257446289062

> <r_mmod_Torsional_Energy-OPLS-2005>
205.136917114258

> <r_mmod_Improper_Torsional_Energy-OPLS-2005>
6.06609582901001

> <r_mmod_Van_der_Waal_Energy-OPLS-2005>
164.231292724609

> <r_mmod_Electrostatic_Energy-OPLS-2005>
-448.0224609375

> <r_mmod_Solvation_Energy-OPLS-2005>
-214.665023803711

> <b_mmod_Minimization_Converged-OPLS-2005>
0

> <r_mmod_RMS_Derivative-OPLS-2005>
5.41942310333252

$$$$
68
                    3D
 Structure written by MMmdl.
160168  0  0  1  0            999 V2000
  -30.3260  -13.2444   20.1453 C   0  0  0  0  0  0
  -31.0971  -12.2908   19.1570 C   0  0  0  0  0  0
  -29.8040  -12.3444   17.9652 C   0  0  0  0  0  0
  -28.2676  -12.6972   18.4404 C   0  0  0  0  0  0
  -28.0376  -13.7239   19.7257 C   0  0  2  0  0  0
  -29.1110  -13.8298   21.1035 C   0  0  0  0  0  0
  -25.9672  -14.5204   20.5652 C   0  0  0  0  0  0
  -24.2420  -13.7998   20.9713 C   0  0  0  0  0  0
  -24.1420  -12.4431   20.9973 C   0  0  0  0  0  0
  -23.7446  -10.8748   21.0651 C   0  0  0  0  0  0
  -24.2451   -9.8358   21.9492 C   0  0  0  0  0  0
  -23.6564   -8.5240   22.0772 C   0  0  0  0  0  0
  -22.4952   -8.1737   21.3425 C   0  0  0  0  0  0
  -22.0400   -9.1387   20.4221 C   0  0  0  0  0  0
  -22.6492  -10.4189   20.2843 C   0  0  0  0  0  0
  -21.7613   -6.1349   22.5137 C   0  0  0  0  0  0
  -21.4570   -6.6072   23.8105 C   0  0  0  0  0  0
  -21.3820   -5.7108   24.9002 C   0  0  0  0  0  0
  -21.6008   -4.3336   24.7035 C   0  0  0  0  0  0
  -21.8731   -3.8504   23.4127 C   0  0  0  0  0  0
  -21.9420   -4.7427   22.3249 C   0  0  0  0  0  0
  -22.6727  -14.1369   21.2785 C   0  0  0  0  0  0
  -22.1773   -4.2506   21.0848 F   0  0  0  0  0  0
  -21.5470   -3.4753   25.7507 F   0  0  0  0  0  0
  -30.6307  -12.8406   20.9034 N   0  0  0  0  0  0
  -26.6831  -14.0615   20.2145 N   0  0  0  0  0  0
  -24.9829  -13.6524   20.7813 N   0  0  0  0  0  0
  -21.9944  -13.3330   22.1310 N   0  0  0  0  0  0
  -26.8684  -15.6971   20.4923 N   0  0  0  0  0  0
  -31.1866  -14.2877   20.2189 O   0  0  0  0  0  0
  -21.7977   -6.9679   21.4083 O   0  0  0  0  0  0
  -22.0708  -14.9643   20.6245 O   0  0  0  0  0  0
  -24.7239  -31.7412   23.1273 C   0  0  0  0  0  0
  -25.9673  -32.4116   23.7872 C   0  0  1  0  0  0
  -26.4575  -25.9426   20.3618 C   0  0  0  0  0  0
  -25.6094  -33.8011   24.1664 N   0  0  0  0  0  0
  -23.5307  -30.3738   21.4987 C   0  0  2  0  0  0
  -24.8592  -28.6162   20.0770 C   0  0  0  0  0  0
  -22.7768  -29.4087   22.4549 C   0  0  0  0  0  0
  -18.0318  -28.1428   22.8432 C   0  0  0  0  0  0
  -24.1499  -36.7002   23.2660 C   0  0  0  0  0  0
  -26.1037  -30.1847   21.5080 C   0  0  0  0  0  0
  -26.0094  -28.6972   20.8558 C   0  0  0  0  0  0
  -26.8137  -27.3817   20.9647 C   0  0  0  0  0  0
  -25.5121  -26.2900   19.3793 C   0  0  0  0  0  0
  -24.7198  -27.4726   19.2840 C   0  0  0  0  0  0
  -23.7763  -29.7111   20.1111 C   0  0  0  0  0  0
  -25.4179  -36.2707   24.0230 C   0  0  1  0  0  0
  -20.5952  -28.3779   23.1080 C   0  0  2  0  0  0
  -20.6769  -26.9413   22.5410 C   0  0  0  0  0  0
  -19.5762  -26.6341   21.5214 C   0  0  0  0  0  0
  -18.1938  -26.7950   22.1600 C   0  0  0  0  0  0
  -19.1590  -28.8934   23.2735 C   0  0  0  0  0  0
  -18.9508  -30.1513   23.8792 C   0  0  0  0  0  0
  -17.6502  -30.6609   24.0544 C   0  0  0  0  0  0
  -25.9209  -34.9110   23.4814 C   0  0  0  0  0  0
  -16.5384  -29.9090   23.6366 C   0  0  0  0  0  0
  -16.7301  -28.6515   23.0372 C   0  0  0  0  0  0
  -26.4686  -31.6453   25.0753 C   0  0  0  0  0  0
  -25.3607  -31.3964   26.1271 C   0  0  0  0  0  0
  -27.0716  -30.2729   24.7159 C   0  0  0  0  0  0
  -27.6032  -32.4483   25.7550 C   0  0  0  0  0  0
  -27.5549  -37.1663   24.8464 C   0  0  0  0  0  0
  -21.4403  -29.2965   22.3330 N   0  0  0  0  0  0
  -26.4248  -37.3540   23.9408 N   0  0  0  0  0  0
  -24.8266  -30.8262   22.0883 N   0  0  0  0  0  0
  -23.4092  -28.7681   23.2985 O   0  0  0  0  0  0
  -26.7441  -24.2711   20.5314 O   0  0  0  0  0  0
  -26.5904  -34.8788   22.4475 O   0  0  0  0  0  0
  -23.6215  -32.0893   23.5932 O   0  0  0  0  0  0
  -25.4142  -12.8586   18.7921 C   0  0  0  0  0  0
  -24.5855  -14.9615   18.8806 C   0  0  0  0  0  0
  -25.3311  -15.2782   22.5326 C   0  0  0  0  0  0
  -26.4029  -11.9424   20.7101 C   0  0  0  0  0  0
  -26.2854  -13.2708   22.5194 C   0  0  0  0  0  0
  -24.6051  -16.3076   20.6977 C   0  0  0  0  0  0
  -26.8310  -12.7513   23.8340 C   0  0  0  0  0  0
  -28.8359  -10.6642   20.4245 C   0  0  0  0  0  0
  -25.8696  -22.3621   20.3971 C   0  0  0  0  0  0
  -25.6470  -20.0424   20.7456 C   0  0  0  0  0  0
  -27.2800  -10.6593   20.7867 C   0  0  2  0  0  0
  -29.7720  -11.7845   20.8051 N   0  0  0  0  0  0
  -26.6062   -9.5412   20.1079 N   0  3  0  0  0  0
  -24.8111  -18.1395   20.4612 O   0  0  0  0  0  0
  -32.0334  -12.6999   18.7127 H   0  0  0  0  0  0
  -31.4367  -11.2412   19.1877 H   0  0  0  0  0  0
  -29.8039  -11.4231   17.3806 H   0  0  0  0  0  0
  -30.0879  -13.1136   17.2436 H   0  0  0  0  0  0
  -27.6974  -11.7808   18.4920 H   0  0  0  0  0  0
  -27.8038  -13.1771   17.5768 H   0  0  0  0  0  0
  -28.3526  -14.5855   19.1234 H   0  0  0  0  0  0
  -28.6267  -13.4815   22.0107 H   0  0  0  0  0  0
  -29.2460  -14.8860   21.4105 H   0  0  0  0  0  0
  -25.0472  -10.0891   22.6277 H   0  0  0  0  0  0
  -24.0693   -7.8244   22.7909 H   0  0  0  0  0  0
  -21.1761   -8.9094   19.8141 H   0  0  0  0  0  0
  -22.1995  -11.1181   19.5930 H   0  0  0  0  0  0
  -21.2837   -7.6612   23.9732 H   0  0  0  0  0  0
  -21.1615   -6.0823   25.8903 H   0  0  0  0  0  0
  -22.0255   -2.7939   23.2534 H   0  0  0  0  0  0
  -22.4679  -12.6253   22.6714 H   0  0  0  0  0  0
  -21.0074  -13.4839   22.2833 H   0  0  0  0  0  0
  -26.5345  -16.6097   20.7722 H   0  0  0  0  0  0
  -27.8295  -15.6988   20.1935 H   0  0  0  0  0  0
  -26.7755  -32.4335   23.0542 H   0  0  0  0  0  0
  -25.0074  -33.8990   24.9705 H   0  0  0  0  0  0
  -22.8862  -31.2390   21.3281 H   0  0  0  0  0  0
  -23.3810  -35.9277   23.3212 H   0  0  0  0  0  0
  -24.3539  -36.8815   22.2096 H   0  0  0  0  0  0
  -23.7208  -37.6104   23.6860 H   0  0  0  0  0  0
  -26.4357  -30.8489   20.7092 H   0  0  0  0  0  0
  -26.9317  -30.1868   22.2001 H   0  0  0  0  0  0
  -27.6257  -27.4010   21.6776 H   0  0  0  0  0  0
  -25.1843  -25.4780   18.7455 H   0  0  0  0  0  0
  -23.8937  -27.4452   18.5866 H   0  0  0  0  0  0
  -24.0657  -30.4820   19.3958 H   0  0  0  0  0  0
  -22.8388  -29.3009   19.7319 H   0  0  0  0  0  0
  -25.1409  -36.1389   25.0713 H   0  0  0  0  0  0
  -21.0032  -28.3450   24.1209 H   0  0  0  0  0  0
  -20.5614  -26.2408   23.3694 H   0  0  0  0  0  0
  -21.6628  -26.7322   22.1240 H   0  0  0  0  0  0
  -19.6914  -25.6224   21.1311 H   0  0  0  0  0  0
  -19.6733  -27.3093   20.6702 H   0  0  0  0  0  0
  -17.4215  -26.6689   21.3998 H   0  0  0  0  0  0
  -18.0312  -26.0121   22.9019 H   0  0  0  0  0  0
  -19.7989  -30.7346   24.2115 H   0  0  0  0  0  0
  -17.5060  -31.6282   24.5161 H   0  0  0  0  0  0
  -15.5384  -30.2967   23.7762 H   0  0  0  0  0  0
  -15.8690  -28.0811   22.7150 H   0  0  0  0  0  0
  -24.5839  -30.7259   25.7576 H   0  0  0  0  0  0
  -24.8752  -32.3246   26.4293 H   0  0  0  0  0  0
  -25.7648  -30.9392   27.0311 H   0  0  0  0  0  0
  -26.3435  -29.6033   24.2577 H   0  0  0  0  0  0
  -27.4240  -29.7592   25.6114 H   0  0  0  0  0  0
  -27.9417  -30.3698   24.0664 H   0  0  0  0  0  0
  -27.2509  -33.3939   26.1684 H   0  0  0  0  0  0
  -28.4033  -32.6801   25.0507 H   0  0  0  0  0  0
  -28.0495  -31.8949   26.5822 H   0  0  0  0  0  0
  -28.2488  -38.0030   24.7543 H   0  0  0  0  0  0
  -28.1124  -36.2547   24.6258 H   0  0  0  0  0  0
  -27.2263  -37.1238   25.8863 H   0  0  0  0  0  0
  -20.9739  -29.8633   21.6385 H   0  0  0  0  0  0
  -26.0019  -38.2553   24.1455 H   0  0  0  0  0  0
  -25.4355  -12.3283   17.8507 H   0  0  0  0  0  0
  -24.2917  -15.4054   17.9409 H   0  0  0  0  0  0
  -25.4173  -15.8593   23.4383 H   0  0  0  0  0  0
  -26.1961  -13.0845   24.6540 H   0  0  0  0  0  0
  -27.8414  -13.1115   24.0247 H   0  0  0  0  0  0
  -26.8457  -11.6621   23.8393 H   0  0  0  0  0  0
  -29.0013  -10.3815   19.3880 H   0  0  0  0  0  0
  -29.2549   -9.7971   20.9359 H   0  0  0  0  0  0
  -24.8742  -22.6625   20.7237 H   0  0  0  0  0  0
  -25.7934  -22.3537   19.3094 H   0  0  0  0  0  0
  -25.6010  -20.0446   21.8343 H   0  0  0  0  0  0
  -26.6756  -19.7527   20.5314 H   0  0  0  0  0  0
  -27.2497  -10.4129   21.8475 H   0  0  0  0  0  0
  -30.2721  -11.5980   21.6607 H   0  0  0  0  0  0
  -26.5815   -9.6779   19.1132 H   0  0  0  0  0  0
  -25.6602   -9.4682   20.4424 H   0  0  0  0  0  0
  -27.0774   -8.6743   20.3026 H   0  0  0  0  0  0
  1 25  1  0  0  0
  1 30  2  0  0  0
  1 82  1  0  0  0
  2  3  1  0  0  0
  2 25  1  0  0  0
  2 85  1  0  0  0
  2 86  1  0  0  0
  3  4  1  0  0  0
  3 87  1  0  0  0
  3 88  1  0  0  0
  4  5  1  0  0  0
  4 89  1  0  0  0
  4 90  1  0  0  0
  5  6  1  0  0  0
  5 26  1  0  0  0
  5 91  1  0  0  0
  6 25  1  0  0  0
  6 92  1  0  0  0
  6 93  1  0  0  0
  7  8  2  0  0  0
  7 26  1  0  0  0
  7 29  1  0  0  0
  8  9  1  0  0  0
  8 22  1  0  0  0
  9 10  1  0  0  0
  9 27  2  0  0  0
 10 11  2  0  0  0
 10 15  1  0  0  0
 11 12  1  0  0  0
 11 94  1  0  0  0
 12 13  2  0  0  0
 12 95  1  0  0  0
 13 14  1  0  0  0
 13 31  1  0  0  0
 14 15  2  0  0  0
 14 96  1  0  0  0
 15 97  1  0  0  0
 16 17  2  0  0  0
 16 21  1  0  0  0
 16 31  1  0  0  0
 17 18  1  0  0  0
 17 98  1  0  0  0
 18 19  2  0  0  0
 18 99  1  0  0  0
 19 20  1  0  0  0
 19 24  1  0  0  0
 20 21  2  0  0  0
 20100  1  0  0  0
 21 23  1  0  0  0
 22 28  1  0  0  0
 22 32  2  0  0  0
 26 27  1  0  0  0
 28101  1  0  0  0
 28102  1  0  0  0
 29103  1  0  0  0
 29104  1  0  0  0
 33 34  1  0  0  0
 33 66  1  0  0  0
 33 70  2  0  0  0
 34 36  1  0  0  0
 34 59  1  0  0  0
 34105  1  0  0  0
 35 44  2  0  0  0
 35 45  1  0  0  0
 35 68  1  0  0  0
 36 56  1  0  0  0
 36106  1  0  0  0
 37 39  1  0  0  0
 37 47  1  0  0  0
 37 66  1  0  0  0
 37107  1  0  0  0
 38 43  2  0  0  0
 38 46  1  0  0  0
 38 47  1  0  0  0
 39 64  1  0  0  0
 39 67  2  0  0  0
 40 52  1  0  0  0
 40 53  2  0  0  0
 40 58  1  0  0  0
 41108  1  0  0  0
 41109  1  0  0  0
 41110  1  0  0  0
 41 48  1  0  0  0
 42 43  1  0  0  0
 42 66  1  0  0  0
 42111  1  0  0  0
 42112  1  0  0  0
 43 44  1  0  0  0
 44113  1  0  0  0
 45 46  2  0  0  0
 45114  1  0  0  0
 46115  1  0  0  0
 47116  1  0  0  0
 47117  1  0  0  0
 48 56  1  0  0  0
 48 65  1  0  0  0
 48118  1  0  0  0
 49 50  1  0  0  0
 49 53  1  0  0  0
 49 64  1  0  0  0
 49119  1  0  0  0
 50 51  1  0  0  0
 50120  1  0  0  0
 50121  1  0  0  0
 51 52  1  0  0  0
 51122  1  0  0  0
 51123  1  0  0  0
 52124  1  0  0  0
 52125  1  0  0  0
 53 54  1  0  0  0
 54 55  2  0  0  0
 54126  1  0  0  0
 55 57  1  0  0  0
 55127  1  0  0  0
 56 69  2  0  0  0
 57 58  2  0  0  0
 57128  1  0  0  0
 58129  1  0  0  0
 59 60  1  0  0  0
 59 61  1  0  0  0
 59 62  1  0  0  0
 60130  1  0  0  0
 60131  1  0  0  0
 60132  1  0  0  0
 61133  1  0  0  0
 61134  1  0  0  0
 61135  1  0  0  0
 62136  1  0  0  0
 62137  1  0  0  0
 62138  1  0  0  0
 63 65  1  0  0  0
 63139  1  0  0  0
 63140  1  0  0  0
 63141  1  0  0  0
 64142  1  0  0  0
 65143  1  0  0  0
 68 79  1  0  0  0
 71 72  2  0  0  0
 71 74  1  0  0  0
 71144  1  0  0  0
 72 76  1  0  0  0
 72145  1  0  0  0
 73 75  1  0  0  0
 73 76  2  0  0  0
 73146  1  0  0  0
 74 75  2  0  0  0
 74 81  1  0  0  0
 75 77  1  0  0  0
 76 84  1  0  0  0
 77147  1  0  0  0
 77148  1  0  0  0
 77149  1  0  0  0
 78 81  1  0  0  0
 78 82  1  0  0  0
 78150  1  0  0  0
 78151  1  0  0  0
 79 80  1  0  0  0
 79152  1  0  0  0
 79153  1  0  0  0
 80 84  1  0  0  0
 80154  1  0  0  0
 80155  1  0  0  0
 81 83  1  0  0  0
 81156  1  0  0  0
 82157  1  0  0  0
 83158  1  0  0  0
 83159  1  0  0  0
 83160  1  0  0  0
M  CHG  1  83   1
M  ISO  4   1 100  68 101  79 101  82 100
M  END
> <chiral flag>
0

> <version>
0

> <s_m_source_file>
/data/baiqing/PycharmProjects/Reinvent-master-3.2/result/LINK_invent/BTK/process_docking_weight1_custom_sum_contain_oxygen_bond_distance_aromatic_linkinvent_7_9_3/rearranged_h_0143.sdf

> <i_m_source_file_index>
69

> <r_mmod_Potential_Energy-OPLS-2005>
26295.13671875

> <r_mmod_Stretch_Energy-OPLS-2005>
14578.2724609375

> <r_mmod_Bend_Energy-OPLS-2005>
3865.51025390625

> <r_mmod_Torsional_Energy-OPLS-2005>
389.94921875

> <r_mmod_Improper_Torsional_Energy-OPLS-2005>
17.2820281982422

> <r_mmod_Van_der_Waal_Energy-OPLS-2005>
4856.318359375

> <r_mmod_Electrostatic_Energy-OPLS-2005>
-343.542999267578

> <r_mmod_Solvation_Energy-OPLS-2005>
-556.29638671875

> <b_mmod_Minimization_Converged-OPLS-2005>
0

> <r_mmod_RMS_Derivative-OPLS-2005>
1.96791791915894

$$$$
69
                    3D
 Structure written by MMmdl.
159168  0  0  1  0            999 V2000
  -30.5704  -14.8550   20.4650 C   0  0  0  0  0  0
  -30.4470  -12.5383   19.4641 C   0  0  0  0  0  0
  -29.5059  -12.4935   18.2375 C   0  0  0  0  0  0
  -28.0422  -12.2936   18.6719 C   0  0  0  0  0  0
  -27.6352  -13.2291   19.8397 C   0  0  2  0  0  0
  -28.6873  -13.2176   20.9692 C   0  0  0  0  0  0
  -25.2488  -13.8189   20.5705 C   0  0  0  0  0  0
  -24.1790  -13.0428   20.9231 C   0  0  0  0  0  0
  -24.6397  -11.6917   20.8804 C   0  0  0  0  0  0
  -23.9082  -10.4291   21.0442 C   0  0  0  0  0  0
  -24.3626   -9.4213   21.9220 C   0  0  0  0  0  0
  -23.6303   -8.2239   22.0779 C   0  0  0  0  0  0
  -22.4288   -8.0293   21.3552 C   0  0  0  0  0  0
  -21.9928   -9.0280   20.4655 C   0  0  0  0  0  0
  -22.7250  -10.2154   20.3086 C   0  0  0  0  0  0
  -21.6866   -6.0757   22.5282 C   0  0  0  0  0  0
  -21.4009   -6.5651   23.8215 C   0  0  0  0  0  0
  -21.3635   -5.6799   24.9173 C   0  0  0  0  0  0
  -21.6050   -4.3072   24.7226 C   0  0  0  0  0  0
  -21.8813   -3.8166   23.4334 C   0  0  0  0  0  0
  -21.9194   -4.6980   22.3393 C   0  0  0  0  0  0
  -22.7822  -13.5226   21.1897 C   0  0  0  0  0  0
  -22.1672   -4.2165   21.0974 F   0  0  0  0  0  0
  -21.5614   -3.4565   25.7737 F   0  0  0  0  0  0
  -29.9669  -13.6132   20.3666 N   0  0  0  0  0  0
  -26.2912  -12.9395   20.3283 N   0  0  0  0  0  0
  -25.9326  -11.6539   20.5790 N   0  0  0  0  0  0
  -22.0491  -12.8203   22.0443 N   0  0  0  0  0  0
  -25.4139  -15.1927   20.4088 N   0  0  0  0  0  0
  -31.7786  -14.9564   20.2369 O   0  0  0  0  0  0
  -21.6649   -6.8898   21.4239 O   0  0  0  0  0  0
  -22.3504  -14.5543   20.6750 O   0  0  0  0  0  0
  -24.6420  -31.8436   23.1954 C   0  0  0  0  0  0
  -25.9208  -32.4699   23.8316 C   0  0  1  0  0  0
  -27.1969  -27.1436   20.1302 C   0  0  0  0  0  0
  -25.5950  -33.8512   24.2220 N   0  0  0  0  0  0
  -23.4449  -30.4716   21.5366 C   0  0  2  0  0  0
  -24.8905  -28.9209   20.0924 C   0  0  0  0  0  0
  -22.7594  -29.4533   22.4807 C   0  0  0  0  0  0
  -18.0284  -28.1392   22.8456 C   0  0  0  0  0  0
  -24.1483  -36.7260   23.2622 C   0  0  0  0  0  0
  -26.0021  -30.7170   21.3972 C   0  0  0  0  0  0
  -26.0649  -29.3343   20.7329 C   0  0  0  0  0  0
  -27.2151  -28.4570   20.7492 C   0  0  0  0  0  0
  -26.0062  -26.8637   19.4152 C   0  0  0  0  0  0
  -24.8774  -27.6982   19.4154 C   0  0  0  0  0  0
  -23.6650  -29.8177   20.1485 C   0  0  0  0  0  0
  -25.4125  -36.3032   24.0285 C   0  0  1  0  0  0
  -20.5909  -28.3702   23.1239 C   0  0  2  0  0  0
  -20.6787  -26.9392   22.5418 C   0  0  0  0  0  0
  -19.5746  -26.6357   21.5242 C   0  0  0  0  0  0
  -18.1922  -26.7918   22.1621 C   0  0  0  0  0  0
  -19.1554  -28.8858   23.2833 C   0  0  0  0  0  0
  -18.9486  -30.1467   23.8843 C   0  0  0  0  0  0
  -17.6491  -30.6579   24.0549 C   0  0  0  0  0  0
  -25.9103  -34.9407   23.5075 C   0  0  0  0  0  0
  -16.5382  -29.9064   23.6354 C   0  0  0  0  0  0
  -16.7278  -28.6499   23.0342 C   0  0  0  0  0  0
  -26.4545  -31.6554   25.0746 C   0  0  0  0  0  0
  -25.3700  -31.3713   26.1433 C   0  0  0  0  0  0
  -27.0421  -30.2935   24.6333 C   0  0  0  0  0  0
  -27.6072  -32.4330   25.7495 C   0  0  0  0  0  0
  -27.5551  -37.1783   24.8445 C   0  0  0  0  0  0
  -21.4259  -29.3041   22.3617 N   0  0  0  0  0  0
  -26.4281  -37.3732   23.9377 N   0  0  0  0  0  0
  -24.7161  -31.0345   22.0936 N   0  0  0  0  0  0
  -23.4270  -28.8007   23.2880 O   0  0  0  0  0  0
  -28.1993  -26.1065   20.2407 O   0  0  0  0  0  0
  -26.5710  -34.8899   22.4672 O   0  0  0  0  0  0
  -23.5564  -32.1273   23.7234 O   0  0  0  0  0  0
  -30.0894  -21.4835   20.2704 C   0  0  0  0  0  0
  -27.4235  -22.0186   20.3689 C   0  0  0  0  0  0
  -29.2709  -20.3030   20.3858 C   0  0  0  0  0  0
  -27.8962  -20.6500   20.5203 C   0  0  0  0  0  0
  -28.3308  -23.1485   20.2612 C   0  0  0  0  0  0
  -25.0581  -21.4469   19.2795 C   0  0  0  0  0  0
  -25.2556  -22.9198   19.0844 C   0  0  0  0  0  0
  -25.9218  -22.2284   20.2671 C   0  0  0  0  0  0
  -26.8967  -19.5226   20.7768 C   0  0  0  0  0  0
  -29.7808  -18.7704   20.0610 C   0  0  0  0  0  0
  -27.7473  -24.6583   19.9203 C   0  0  0  0  0  0
  -29.9310  -17.4711   21.0740 C   0  0  0  0  0  0
  -29.6623  -22.8101   20.2314 N   0  0  0  0  0  0
  -29.7512  -15.9845   20.6231 N   0  0  0  0  0  0
  -31.4735  -12.7094   19.1334 H   0  0  0  0  0  0
  -30.4565  -11.5801   19.9836 H   0  0  0  0  0  0
  -29.8035  -11.6868   17.5681 H   0  0  0  0  0  0
  -29.5921  -13.4154   17.6616 H   0  0  0  0  0  0
  -27.9371  -11.2545   18.9891 H   0  0  0  0  0  0
  -27.3657  -12.4219   17.8253 H   0  0  0  0  0  0
  -27.6086  -14.2345   19.4190 H   0  0  0  0  0  0
  -28.7620  -12.2309   21.4245 H   0  0  0  0  0  0
  -28.4018  -13.9040   21.7681 H   0  0  0  0  0  0
  -25.2768   -9.5700   22.4804 H   0  0  0  0  0  0
  -24.0023   -7.4632   22.7510 H   0  0  0  0  0  0
  -21.0863   -8.8783   19.8976 H   0  0  0  0  0  0
  -22.3710  -10.9698   19.6201 H   0  0  0  0  0  0
  -21.2008   -7.6167   23.9710 H   0  0  0  0  0  0
  -21.1459   -6.0553   25.9072 H   0  0  0  0  0  0
  -22.0616   -2.7639   23.2841 H   0  0  0  0  0  0
  -22.4108  -11.9809   22.4731 H   0  0  0  0  0  0
  -21.1121  -13.1207   22.2731 H   0  0  0  0  0  0
  -24.6337  -15.8325   20.5057 H   0  0  0  0  0  0
  -26.2420  -15.6335   20.0344 H   0  0  0  0  0  0
  -26.7201  -32.5306   23.0964 H   0  0  0  0  0  0
  -24.9997  -33.9595   25.0296 H   0  0  0  0  0  0
  -22.7437  -31.2943   21.3919 H   0  0  0  0  0  0
  -23.3731  -35.9605   23.3329 H   0  0  0  0  0  0
  -24.3531  -36.8927   22.2030 H   0  0  0  0  0  0
  -23.7321  -37.6472   23.6704 H   0  0  0  0  0  0
  -26.1780  -31.4632   20.6230 H   0  0  0  0  0  0
  -26.8683  -30.7536   22.0453 H   0  0  0  0  0  0
  -28.0904  -28.7521   21.3050 H   0  0  0  0  0  0
  -25.8813  -25.9557   18.8495 H   0  0  0  0  0  0
  -23.9924  -27.3932   18.8735 H   0  0  0  0  0  0
  -23.7814  -30.6040   19.4008 H   0  0  0  0  0  0
  -22.7817  -29.2544   19.8438 H   0  0  0  0  0  0
  -25.1320  -36.1828   25.0765 H   0  0  0  0  0  0
  -21.0004  -28.3267   24.1358 H   0  0  0  0  0  0
  -20.5766  -26.2241   23.3602 H   0  0  0  0  0  0
  -21.6637  -26.7407   22.1151 H   0  0  0  0  0  0
  -19.6949  -25.6292   21.1222 H   0  0  0  0  0  0
  -19.6745  -27.3196   20.6813 H   0  0  0  0  0  0
  -17.4207  -26.6657   21.4006 H   0  0  0  0  0  0
  -18.0278  -26.0109   22.9044 H   0  0  0  0  0  0
  -19.7979  -30.7283   24.2164 H   0  0  0  0  0  0
  -17.5043  -31.6268   24.5159 H   0  0  0  0  0  0
  -15.5374  -30.2939   23.7746 H   0  0  0  0  0  0
  -15.8644  -28.0812   22.7060 H   0  0  0  0  0  0
  -24.5884  -30.7065   25.7713 H   0  0  0  0  0  0
  -24.8857  -32.2859   26.4841 H   0  0  0  0  0  0
  -25.7947  -30.8864   27.0226 H   0  0  0  0  0  0
  -26.3032  -29.6624   24.1364 H   0  0  0  0  0  0
  -27.4035  -29.7277   25.4936 H   0  0  0  0  0  0
  -27.8940  -30.4153   23.9644 H   0  0  0  0  0  0
  -27.2671  -33.3658   26.1992 H   0  0  0  0  0  0
  -28.3879  -32.6892   25.0313 H   0  0  0  0  0  0
  -28.0707  -31.8504   26.5461 H   0  0  0  0  0  0
  -28.2561  -38.0077   24.7505 H   0  0  0  0  0  0
  -28.1086  -36.2632   24.6289 H   0  0  0  0  0  0
  -27.2256  -37.1421   25.8840 H   0  0  0  0  0  0
  -20.9442  -29.8750   21.6816 H   0  0  0  0  0  0
  -26.0157  -38.2780   24.1454 H   0  0  0  0  0  0
  -31.1554  -21.3659   20.1276 H   0  0  0  0  0  0
  -25.5395  -20.8145   18.5329 H   0  0  0  0  0  0
  -24.0739  -21.1163   19.6079 H   0  0  0  0  0  0
  -24.3970  -23.5586   19.2862 H   0  0  0  0  0  0
  -25.8498  -23.1985   18.2171 H   0  0  0  0  0  0
  -25.4987  -22.3950   21.2584 H   0  0  0  0  0  0
  -26.0701  -19.8594   21.4032 H   0  0  0  0  0  0
  -27.3411  -18.6924   21.3204 H   0  0  0  0  0  0
  -26.4939  -19.1388   19.8398 H   0  0  0  0  0  0
  -30.7681  -18.8877   19.6136 H   0  0  0  0  0  0
  -29.1606  -18.4405   19.2285 H   0  0  0  0  0  0
  -26.7582  -24.6177   20.3732 H   0  0  0  0  0  0
  -27.6147  -24.6356   18.8376 H   0  0  0  0  0  0
  -29.1691  -17.5895   21.8435 H   0  0  0  0  0  0
  -30.8673  -17.5437   21.6290 H   0  0  0  0  0  0
  -28.7787  -15.7160   20.5842 H   0  0  0  0  0  0
  1 25  1  0  0  0
  1 30  2  0  0  0
  1 84  1  0  0  0
  2  3  1  0  0  0
  2 25  1  0  0  0
  2 85  1  0  0  0
  2 86  1  0  0  0
  3  4  1  0  0  0
  3 87  1  0  0  0
  3 88  1  0  0  0
  4  5  1  0  0  0
  4 89  1  0  0  0
  4 90  1  0  0  0
  5  6  1  0  0  0
  5 26  1  0  0  0
  5 91  1  0  0  0
  6 25  1  0  0  0
  6 92  1  0  0  0
  6 93  1  0  0  0
  7  8  2  0  0  0
  7 26  1  0  0  0
  7 29  1  0  0  0
  8  9  1  0  0  0
  8 22  1  0  0  0
  9 10  1  0  0  0
  9 27  2  0  0  0
 10 11  2  0  0  0
 10 15  1  0  0  0
 11 12  1  0  0  0
 11 94  1  0  0  0
 12 13  2  0  0  0
 12 95  1  0  0  0
 13 14  1  0  0  0
 13 31  1  0  0  0
 14 15  2  0  0  0
 14 96  1  0  0  0
 15 97  1  0  0  0
 16 17  2  0  0  0
 16 21  1  0  0  0
 16 31  1  0  0  0
 17 18  1  0  0  0
 17 98  1  0  0  0
 18 19  2  0  0  0
 18 99  1  0  0  0
 19 20  1  0  0  0
 19 24  1  0  0  0
 20 21  2  0  0  0
 20100  1  0  0  0
 21 23  1  0  0  0
 22 28  1  0  0  0
 22 32  2  0  0  0
 26 27  1  0  0  0
 28101  1  0  0  0
 28102  1  0  0  0
 29103  1  0  0  0
 29104  1  0  0  0
 33 34  1  0  0  0
 33 66  1  0  0  0
 33 70  2  0  0  0
 34 36  1  0  0  0
 34 59  1  0  0  0
 34105  1  0  0  0
 35 44  2  0  0  0
 35 45  1  0  0  0
 35 68  1  0  0  0
 36 56  1  0  0  0
 36106  1  0  0  0
 37 39  1  0  0  0
 37 47  1  0  0  0
 37 66  1  0  0  0
 37107  1  0  0  0
 38 43  2  0  0  0
 38 46  1  0  0  0
 38 47  1  0  0  0
 39 64  1  0  0  0
 39 67  2  0  0  0
 40 52  1  0  0  0
 40 53  2  0  0  0
 40 58  1  0  0  0
 41108  1  0  0  0
 41109  1  0  0  0
 41110  1  0  0  0
 41 48  1  0  0  0
 42 43  1  0  0  0
 42 66  1  0  0  0
 42111  1  0  0  0
 42112  1  0  0  0
 43 44  1  0  0  0
 44113  1  0  0  0
 45 46  2  0  0  0
 45114  1  0  0  0
 46115  1  0  0  0
 47116  1  0  0  0
 47117  1  0  0  0
 48 56  1  0  0  0
 48 65  1  0  0  0
 48118  1  0  0  0
 49 50  1  0  0  0
 49 53  1  0  0  0
 49 64  1  0  0  0
 49119  1  0  0  0
 50 51  1  0  0  0
 50120  1  0  0  0
 50121  1  0  0  0
 51 52  1  0  0  0
 51122  1  0  0  0
 51123  1  0  0  0
 52124  1  0  0  0
 52125  1  0  0  0
 53 54  1  0  0  0
 54 55  2  0  0  0
 54126  1  0  0  0
 55 57  1  0  0  0
 55127  1  0  0  0
 56 69  2  0  0  0
 57 58  2  0  0  0
 57128  1  0  0  0
 58129  1  0  0  0
 59 60  1  0  0  0
 59 61  1  0  0  0
 59 62  1  0  0  0
 60130  1  0  0  0
 60131  1  0  0  0
 60132  1  0  0  0
 61133  1  0  0  0
 61134  1  0  0  0
 61135  1  0  0  0
 62136  1  0  0  0
 62137  1  0  0  0
 62138  1  0  0  0
 63 65  1  0  0  0
 63139  1  0  0  0
 63140  1  0  0  0
 63141  1  0  0  0
 64142  1  0  0  0
 65143  1  0  0  0
 68 81  1  0  0  0
 71 73  2  0  0  0
 71 83  1  0  0  0
 71144  1  0  0  0
 72 74  2  0  0  0
 72 75  1  0  0  0
 72 78  1  0  0  0
 73 74  1  0  0  0
 73 80  1  0  0  0
 74 79  1  0  0  0
 75 81  1  0  0  0
 75 83  2  0  0  0
 76 77  1  0  0  0
 76 78  1  0  0  0
 76145  1  0  0  0
 76146  1  0  0  0
 77 78  1  0  0  0
 77147  1  0  0  0
 77148  1  0  0  0
 78149  1  0  0  0
 79150  1  0  0  0
 79151  1  0  0  0
 79152  1  0  0  0
 80 82  1  0  0  0
 80153  1  0  0  0
 80154  1  0  0  0
 81155  1  0  0  0
 81156  1  0  0  0
 82 84  1  0  0  0
 82157  1  0  0  0
 82158  1  0  0  0
 84159  1  0  0  0
M  ISO  4   1 100  68 101  81 101  84 100
M  END
> <chiral flag>
0

> <version>
0

> <s_m_source_file>
/data/baiqing/PycharmProjects/Reinvent-master-3.2/result/LINK_invent/BTK/process_docking_weight1_custom_sum_contain_oxygen_bond_distance_aromatic_linkinvent_7_9_3/rearranged_h_0143.sdf

> <i_m_source_file_index>
70

> <r_mmod_Potential_Energy-OPLS-2005>
354.779876708984

> <r_mmod_Stretch_Energy-OPLS-2005>
211.132339477539

> <r_mmod_Bend_Energy-OPLS-2005>
271.854156494141

> <r_mmod_Torsional_Energy-OPLS-2005>
264.871063232422

> <r_mmod_Improper_Torsional_Energy-OPLS-2005>
8.38152885437012

> <r_mmod_Van_der_Waal_Energy-OPLS-2005>
149.756958007812

> <r_mmod_Electrostatic_Energy-OPLS-2005>
-485.672912597656

> <r_mmod_Solvation_Energy-OPLS-2005>
-237.018890380859

> <b_mmod_Minimization_Converged-OPLS-2005>
0

> <r_mmod_RMS_Derivative-OPLS-2005>
5.54135751724243

$$$$
70
                    3D
 Structure written by MMmdl.
158167  0  0  1  0            999 V2000
  -30.4333  -15.3400   20.3513 C   0  0  0  0  0  0
  -30.4317  -12.8690   19.5082 C   0  0  0  0  0  0
  -29.5311  -12.5871   18.2804 C   0  0  0  0  0  0
  -28.0856  -12.2978   18.7167 C   0  0  0  0  0  0
  -27.6032  -13.2836   19.8096 C   0  0  2  0  0  0
  -28.6385  -13.5044   20.9338 C   0  0  0  0  0  0
  -25.2360  -13.8245   20.5743 C   0  0  0  0  0  0
  -24.1729  -13.0425   20.9259 C   0  0  0  0  0  0
  -24.6409  -11.6924   20.8761 C   0  0  0  0  0  0
  -23.9103  -10.4287   21.0405 C   0  0  0  0  0  0
  -24.3654   -9.4188   21.9170 C   0  0  0  0  0  0
  -23.6324   -8.2227   22.0742 C   0  0  0  0  0  0
  -22.4295   -8.0282   21.3539 C   0  0  0  0  0  0
  -21.9947   -9.0245   20.4641 C   0  0  0  0  0  0
  -22.7282  -10.2117   20.3047 C   0  0  0  0  0  0
  -21.6852   -6.0749   22.5275 C   0  0  0  0  0  0
  -21.4024   -6.5657   23.8206 C   0  0  0  0  0  0
  -21.3653   -5.6803   24.9167 C   0  0  0  0  0  0
  -21.6035   -4.3065   24.7215 C   0  0  0  0  0  0
  -21.8820   -3.8160   23.4337 C   0  0  0  0  0  0
  -21.9189   -4.6978   22.3397 C   0  0  0  0  0  0
  -22.7748  -13.5167   21.1902 C   0  0  0  0  0  0
  -22.1659   -4.2166   21.0974 F   0  0  0  0  0  0
  -21.5617   -3.4548   25.7724 F   0  0  0  0  0  0
  -29.8529  -14.0330   20.2854 N   0  0  0  0  0  0
  -26.2786  -12.9543   20.3183 N   0  0  0  0  0  0
  -25.9345  -11.6633   20.5704 N   0  0  0  0  0  0
  -22.0426  -12.8132   22.0468 N   0  0  0  0  0  0
  -25.3999  -15.1985   20.4199 N   0  0  0  0  0  0
  -31.6634  -15.2758   20.2141 O   0  0  0  0  0  0
  -21.6648   -6.8884   21.4238 O   0  0  0  0  0  0
  -22.3410  -14.5445   20.6719 O   0  0  0  0  0  0
  -24.6661  -31.8198   23.1687 C   0  0  0  0  0  0
  -25.9334  -32.4574   23.8145 C   0  0  1  0  0  0
  -27.2173  -26.8872   20.1998 C   0  0  0  0  0  0
  -25.5991  -33.8387   24.2060 N   0  0  0  0  0  0
  -23.4824  -30.4305   21.5173 C   0  0  2  0  0  0
  -24.9366  -28.8041   20.1243 C   0  0  0  0  0  0
  -22.7668  -29.4426   22.4759 C   0  0  0  0  0  0
  -18.0323  -28.1422   22.8467 C   0  0  0  0  0  0
  -24.1481  -36.7197   23.2645 C   0  0  0  0  0  0
  -26.0547  -30.6170   21.4007 C   0  0  0  0  0  0
  -26.1240  -29.1984   20.7541 C   0  0  0  0  0  0
  -27.2624  -28.2637   20.7566 C   0  0  0  0  0  0
  -25.9975  -26.6528   19.5256 C   0  0  0  0  0  0
  -24.9008  -27.5521   19.4887 C   0  0  0  0  0  0
  -23.7263  -29.7375   20.1474 C   0  0  0  0  0  0
  -25.4118  -36.2942   24.0298 C   0  0  1  0  0  0
  -20.5946  -28.3766   23.1188 C   0  0  2  0  0  0
  -20.6779  -26.9439   22.5403 C   0  0  0  0  0  0
  -19.5747  -26.6383   21.5216 C   0  0  0  0  0  0
  -18.1932  -26.7955   22.1622 C   0  0  0  0  0  0
  -19.1580  -28.8910   23.2814 C   0  0  0  0  0  0
  -18.9484  -30.1500   23.8852 C   0  0  0  0  0  0
  -17.6477  -30.6605   24.0552 C   0  0  0  0  0  0
  -25.9086  -34.9338   23.4991 C   0  0  0  0  0  0
  -16.5363  -29.9087   23.6352 C   0  0  0  0  0  0
  -16.7301  -28.6515   23.0374 C   0  0  0  0  0  0
  -26.4580  -31.6545   25.0690 C   0  0  0  0  0  0
  -25.3699  -31.3833   26.1346 C   0  0  0  0  0  0
  -27.0468  -30.2896   24.6459 C   0  0  0  0  0  0
  -27.6051  -32.4366   25.7510 C   0  0  0  0  0  0
  -27.5547  -37.1745   24.8448 C   0  0  0  0  0  0
  -21.4331  -29.3058   22.3531 N   0  0  0  0  0  0
  -26.4245  -37.3687   23.9410 N   0  0  0  0  0  0
  -24.7566  -30.9831   22.0831 N   0  0  0  0  0  0
  -23.4194  -28.7992   23.3011 O   0  0  0  0  0  0
  -28.2230  -25.7716   20.1833 O   0  0  0  0  0  0
  -26.5667  -34.8884   22.4568 O   0  0  0  0  0  0
  -23.5727  -32.1168   23.6774 O   0  0  0  0  0  0
  -28.7707  -22.5110   18.6085 C   0  0  0  0  0  0
  -29.1849  -21.3175   17.9557 C   0  0  0  0  0  0
  -28.9178  -21.2253   20.6510 C   0  0  0  0  0  0
  -29.3404  -19.8751   19.9971 C   0  0  0  0  0  0
  -28.6248  -22.6176   20.0070 C   0  0  0  0  0  0
  -29.5018  -20.0921   18.6084 C   0  0  0  0  0  0
  -30.0396  -18.3291   20.5273 C   0  0  2  0  0  0
  -31.4531  -18.4932   19.9118 C   0  0  1  0  0  0
  -31.3217  -18.5649   18.3519 C   0  0  2  0  0  0
  -32.2411  -19.6682   20.5401 C   0  0  0  0  0  0
  -32.4696  -19.3033   17.6378 C   0  0  0  0  0  0
  -28.0111  -24.1695   20.5962 C   0  0  0  0  0  0
  -29.7082  -16.6620   20.3752 N   0  0  0  0  0  0
  -30.0832  -19.1038   17.8572 O   0  0  0  0  0  0
  -31.4416  -13.0861   19.1575 H   0  0  0  0  0  0
  -30.5244  -11.9825   20.1373 H   0  0  0  0  0  0
  -29.9314  -11.7543   17.6997 H   0  0  0  0  0  0
  -29.5439  -13.4543   17.6177 H   0  0  0  0  0  0
  -28.0544  -11.2797   19.1054 H   0  0  0  0  0  0
  -27.4139  -12.3134   17.8562 H   0  0  0  0  0  0
  -27.5007  -14.2391   19.2920 H   0  0  0  0  0  0
  -28.8291  -12.5870   21.4930 H   0  0  0  0  0  0
  -28.2659  -14.2349   21.6523 H   0  0  0  0  0  0
  -25.2810   -9.5656   22.4725 H   0  0  0  0  0  0
  -24.0026   -7.4622   22.7473 H   0  0  0  0  0  0
  -21.0859   -8.8769   19.8967 H   0  0  0  0  0  0
  -22.3744  -10.9642   19.6144 H   0  0  0  0  0  0
  -21.2043   -7.6172   23.9714 H   0  0  0  0  0  0
  -21.1470   -6.0541   25.9062 H   0  0  0  0  0  0
  -22.0614   -2.7628   23.2824 H   0  0  0  0  0  0
  -22.4103  -11.9810   22.4837 H   0  0  0  0  0  0
  -21.1034  -13.1105   22.2686 H   0  0  0  0  0  0
  -24.6347  -15.8538   20.5416 H   0  0  0  0  0  0
  -26.2457  -15.6357   20.0811 H   0  0  0  0  0  0
  -26.7387  -32.5107   23.0849 H   0  0  0  0  0  0
  -25.0159  -33.9458   25.0223 H   0  0  0  0  0  0
  -22.7994  -31.2630   21.3386 H   0  0  0  0  0  0
  -23.3749  -35.9516   23.3260 H   0  0  0  0  0  0
  -24.3568  -36.8893   22.2069 H   0  0  0  0  0  0
  -23.7237  -37.6374   23.6735 H   0  0  0  0  0  0
  -26.2243  -31.3520   20.6129 H   0  0  0  0  0  0
  -26.9203  -30.6877   22.0495 H   0  0  0  0  0  0
  -28.1726  -28.5734   21.2521 H   0  0  0  0  0  0
  -25.8705  -25.7016   19.0282 H   0  0  0  0  0  0
  -24.0011  -27.2470   18.9733 H   0  0  0  0  0  0
  -23.8882  -30.4993   19.3838 H   0  0  0  0  0  0
  -22.8366  -29.1907   19.8302 H   0  0  0  0  0  0
  -25.1324  -36.1709   25.0784 H   0  0  0  0  0  0
  -21.0036  -28.3358   24.1315 H   0  0  0  0  0  0
  -20.5631  -26.2384   23.3647 H   0  0  0  0  0  0
  -21.6641  -26.7386   22.1220 H   0  0  0  0  0  0
  -19.6882  -25.6274   21.1293 H   0  0  0  0  0  0
  -19.6693  -27.3148   20.6711 H   0  0  0  0  0  0
  -17.4203  -26.6726   21.4024 H   0  0  0  0  0  0
  -18.0305  -26.0116   22.9032 H   0  0  0  0  0  0
  -19.7956  -30.7337   24.2194 H   0  0  0  0  0  0
  -17.5030  -31.6290   24.5150 H   0  0  0  0  0  0
  -15.5361  -30.2971   23.7724 H   0  0  0  0  0  0
  -15.8705  -28.0822   22.7113 H   0  0  0  0  0  0
  -24.5885  -30.7172   25.7675 H   0  0  0  0  0  0
  -24.8889  -32.3062   26.4596 H   0  0  0  0  0  0
  -25.7928  -30.9122   27.0225 H   0  0  0  0  0  0
  -26.3140  -29.6584   24.1423 H   0  0  0  0  0  0
  -27.3929  -29.7263   25.5133 H   0  0  0  0  0  0
  -27.9118  -30.4059   23.9923 H   0  0  0  0  0  0
  -27.2596  -33.3717   26.1932 H   0  0  0  0  0  0
  -28.3966  -32.6850   25.0427 H   0  0  0  0  0  0
  -28.0608  -31.8594   26.5566 H   0  0  0  0  0  0
  -28.2518  -38.0080   24.7508 H   0  0  0  0  0  0
  -28.1085  -36.2608   24.6244 H   0  0  0  0  0  0
  -27.2278  -37.1355   25.8852 H   0  0  0  0  0  0
  -20.9570  -29.8800   21.6718 H   0  0  0  0  0  0
  -26.0079  -38.2729   24.1459 H   0  0  0  0  0  0
  -28.5682  -23.3836   18.0039 H   0  0  0  0  0  0
  -29.3212  -21.3643   16.8834 H   0  0  0  0  0  0
  -28.8451  -21.2050   21.7295 H   0  0  0  0  0  0
  -30.1240  -18.4503   21.6070 H   0  0  0  0  0  0
  -32.0739  -17.6371   20.1563 H   0  0  0  0  0  0
  -31.3304  -17.5359   17.9892 H   0  0  0  0  0  0
  -31.8449  -20.6466   20.2695 H   0  0  0  0  0  0
  -33.2864  -19.6450   20.2290 H   0  0  0  0  0  0
  -32.2432  -19.5988   21.6277 H   0  0  0  0  0  0
  -32.4483  -20.3719   17.8512 H   0  0  0  0  0  0
  -32.3977  -19.1929   16.5559 H   0  0  0  0  0  0
  -33.4428  -18.9155   17.9407 H   0  0  0  0  0  0
  -28.2664  -24.1486   21.6563 H   0  0  0  0  0  0
  -26.9297  -24.0312   20.5923 H   0  0  0  0  0  0
  -28.7124  -16.4990   20.3985 H   0  0  0  0  0  0
  1 25  1  0  0  0
  1 30  2  0  0  0
  1 83  1  0  0  0
  2  3  1  0  0  0
  2 25  1  0  0  0
  2 85  1  0  0  0
  2 86  1  0  0  0
  3  4  1  0  0  0
  3 87  1  0  0  0
  3 88  1  0  0  0
  4  5  1  0  0  0
  4 89  1  0  0  0
  4 90  1  0  0  0
  5  6  1  0  0  0
  5 26  1  0  0  0
  5 91  1  0  0  0
  6 25  1  0  0  0
  6 92  1  0  0  0
  6 93  1  0  0  0
  7  8  2  0  0  0
  7 26  1  0  0  0
  7 29  1  0  0  0
  8  9  1  0  0  0
  8 22  1  0  0  0
  9 10  1  0  0  0
  9 27  2  0  0  0
 10 11  2  0  0  0
 10 15  1  0  0  0
 11 12  1  0  0  0
 11 94  1  0  0  0
 12 13  2  0  0  0
 12 95  1  0  0  0
 13 14  1  0  0  0
 13 31  1  0  0  0
 14 15  2  0  0  0
 14 96  1  0  0  0
 15 97  1  0  0  0
 16 17  2  0  0  0
 16 21  1  0  0  0
 16 31  1  0  0  0
 17 18  1  0  0  0
 17 98  1  0  0  0
 18 19  2  0  0  0
 18 99  1  0  0  0
 19 20  1  0  0  0
 19 24  1  0  0  0
 20 21  2  0  0  0
 20100  1  0  0  0
 21 23  1  0  0  0
 22 28  1  0  0  0
 22 32  2  0  0  0
 26 27  1  0  0  0
 28101  1  0  0  0
 28102  1  0  0  0
 29103  1  0  0  0
 29104  1  0  0  0
 33 34  1  0  0  0
 33 66  1  0  0  0
 33 70  2  0  0  0
 34 36  1  0  0  0
 34 59  1  0  0  0
 34105  1  0  0  0
 35 44  2  0  0  0
 35 45  1  0  0  0
 35 68  1  0  0  0
 36 56  1  0  0  0
 36106  1  0  0  0
 37 39  1  0  0  0
 37 47  1  0  0  0
 37 66  1  0  0  0
 37107  1  0  0  0
 38 43  2  0  0  0
 38 46  1  0  0  0
 38 47  1  0  0  0
 39 64  1  0  0  0
 39 67  2  0  0  0
 40 52  1  0  0  0
 40 53  2  0  0  0
 40 58  1  0  0  0
 41108  1  0  0  0
 41109  1  0  0  0
 41110  1  0  0  0
 41 48  1  0  0  0
 42 43  1  0  0  0
 42 66  1  0  0  0
 42111  1  0  0  0
 42112  1  0  0  0
 43 44  1  0  0  0
 44113  1  0  0  0
 45 46  2  0  0  0
 45114  1  0  0  0
 46115  1  0  0  0
 47116  1  0  0  0
 47117  1  0  0  0
 48 56  1  0  0  0
 48 65  1  0  0  0
 48118  1  0  0  0
 49 50  1  0  0  0
 49 53  1  0  0  0
 49 64  1  0  0  0
 49119  1  0  0  0
 50 51  1  0  0  0
 50120  1  0  0  0
 50121  1  0  0  0
 51 52  1  0  0  0
 51122  1  0  0  0
 51123  1  0  0  0
 52124  1  0  0  0
 52125  1  0  0  0
 53 54  1  0  0  0
 54 55  2  0  0  0
 54126  1  0  0  0
 55 57  1  0  0  0
 55127  1  0  0  0
 56 69  2  0  0  0
 57 58  2  0  0  0
 57128  1  0  0  0
 58129  1  0  0  0
 59 60  1  0  0  0
 59 61  1  0  0  0
 59 62  1  0  0  0
 60130  1  0  0  0
 60131  1  0  0  0
 60132  1  0  0  0
 61133  1  0  0  0
 61134  1  0  0  0
 61135  1  0  0  0
 62136  1  0  0  0
 62137  1  0  0  0
 62138  1  0  0  0
 63 65  1  0  0  0
 63139  1  0  0  0
 63140  1  0  0  0
 63141  1  0  0  0
 64142  1  0  0  0
 65143  1  0  0  0
 68 82  1  0  0  0
 71 72  2  0  0  0
 71 75  1  0  0  0
 71144  1  0  0  0
 72 76  1  0  0  0
 72145  1  0  0  0
 73 74  1  0  0  0
 73 75  2  0  0  0
 73146  1  0  0  0
 74 76  2  0  0  0
 74 77  1  0  0  0
 75 82  1  0  0  0
 76 84  1  0  0  0
 77 78  1  0  0  0
 77 83  1  0  0  0
 77147  1  0  0  0
 78 79  1  0  0  0
 78 80  1  0  0  0
 78148  1  0  0  0
 79 81  1  0  0  0
 79 84  1  0  0  0
 79149  1  0  0  0
 80150  1  0  0  0
 80151  1  0  0  0
 80152  1  0  0  0
 81153  1  0  0  0
 81154  1  0  0  0
 81155  1  0  0  0
 82156  1  0  0  0
 82157  1  0  0  0
 83158  1  0  0  0
M  ISO  4   1 100  68 101  82 101  83 100
M  END
> <chiral flag>
0

> <version>
0

> <s_m_source_file>
/data/baiqing/PycharmProjects/Reinvent-master-3.2/result/LINK_invent/BTK/process_docking_weight1_custom_sum_contain_oxygen_bond_distance_aromatic_linkinvent_7_9_3/rearranged_h_0143.sdf

> <i_m_source_file_index>
71

> <r_mmod_Potential_Energy-OPLS-2005>
1485.68383789062

> <r_mmod_Stretch_Energy-OPLS-2005>
659.388854980469

> <r_mmod_Bend_Energy-OPLS-2005>
489.410888671875

> <r_mmod_Torsional_Energy-OPLS-2005>
278.222076416016

> <r_mmod_Improper_Torsional_Energy-OPLS-2005>
8.66546535491943

> <r_mmod_Van_der_Waal_Energy-OPLS-2005>
138.11344909668

> <r_mmod_Electrostatic_Energy-OPLS-2005>
-403.744415283203

> <r_mmod_Solvation_Energy-OPLS-2005>
-208.997344970703

> <b_mmod_Minimization_Converged-OPLS-2005>
0

> <r_mmod_RMS_Derivative-OPLS-2005>
2.59421396255493

$$$$
71
                    3D
 Structure written by MMmdl.
161170  0  0  1  0            999 V2000
  -30.6064  -14.8232   20.4469 C   0  0  0  0  0  0
  -30.4332  -12.5061   19.4917 C   0  0  0  0  0  0
  -29.5149  -12.5135   18.2491 C   0  0  0  0  0  0
  -28.0445  -12.3224   18.6645 C   0  0  0  0  0  0
  -27.6374  -13.2409   19.8473 C   0  0  2  0  0  0
  -28.6813  -13.2239   20.9861 C   0  0  0  0  0  0
  -25.2491  -13.8213   20.5711 C   0  0  0  0  0  0
  -24.1794  -13.0445   20.9220 C   0  0  0  0  0  0
  -24.6397  -11.6927   20.8750 C   0  0  0  0  0  0
  -23.9075  -10.4298   21.0404 C   0  0  0  0  0  0
  -24.3624   -9.4211   21.9183 C   0  0  0  0  0  0
  -23.6299   -8.2245   22.0752 C   0  0  0  0  0  0
  -22.4281   -8.0282   21.3544 C   0  0  0  0  0  0
  -21.9917   -9.0253   20.4644 C   0  0  0  0  0  0
  -22.7245  -10.2135   20.3054 C   0  0  0  0  0  0
  -21.6856   -6.0736   22.5279 C   0  0  0  0  0  0
  -21.4014   -6.5640   23.8211 C   0  0  0  0  0  0
  -21.3659   -5.6794   24.9173 C   0  0  0  0  0  0
  -21.6045   -4.3056   24.7225 C   0  0  0  0  0  0
  -21.8818   -3.8147   23.4346 C   0  0  0  0  0  0
  -21.9193   -4.6964   22.3402 C   0  0  0  0  0  0
  -22.7813  -13.5220   21.1876 C   0  0  0  0  0  0
  -22.1663   -4.2149   21.0980 F   0  0  0  0  0  0
  -21.5628   -3.4539   25.7737 F   0  0  0  0  0  0
  -29.9754  -13.5916   20.3985 N   0  0  0  0  0  0
  -26.2920  -12.9436   20.3281 N   0  0  0  0  0  0
  -25.9332  -11.6571   20.5759 N   0  0  0  0  0  0
  -22.0467  -12.8202   22.0429 N   0  0  0  0  0  0
  -25.4162  -15.1938   20.4121 N   0  0  0  0  0  0
  -31.7949  -14.8910   20.1235 O   0  0  0  0  0  0
  -21.6645   -6.8878   21.4241 O   0  0  0  0  0  0
  -22.3495  -14.5527   20.6723 O   0  0  0  0  0  0
  -24.6395  -31.8509   23.1971 C   0  0  0  0  0  0
  -25.9196  -32.4731   23.8325 C   0  0  1  0  0  0
  -27.2065  -27.1848   20.1295 C   0  0  0  0  0  0
  -25.5969  -33.8536   24.2235 N   0  0  0  0  0  0
  -23.4395  -30.4776   21.5418 C   0  0  2  0  0  0
  -24.8871  -28.9272   20.1052 C   0  0  0  0  0  0
  -22.7548  -29.4592   22.4874 C   0  0  0  0  0  0
  -18.0306  -28.1391   22.8484 C   0  0  0  0  0  0
  -24.1492  -36.7266   23.2640 C   0  0  0  0  0  0
  -25.9957  -30.7370   21.3952 C   0  0  0  0  0  0
  -26.0642  -29.3563   20.7318 C   0  0  0  0  0  0
  -27.2238  -28.4977   20.7398 C   0  0  0  0  0  0
  -26.0099  -26.8758   19.4341 C   0  0  0  0  0  0
  -24.8706  -27.6969   19.4431 C   0  0  0  0  0  0
  -23.6621  -29.8212   20.1562 C   0  0  0  0  0  0
  -25.4120  -36.3051   24.0321 C   0  0  1  0  0  0
  -20.5921  -28.3718   23.1240 C   0  0  2  0  0  0
  -20.6793  -26.9427   22.5397 C   0  0  0  0  0  0
  -19.5762  -26.6382   21.5211 C   0  0  0  0  0  0
  -18.1944  -26.7932   22.1624 C   0  0  0  0  0  0
  -19.1563  -28.8872   23.2859 C   0  0  0  0  0  0
  -18.9480  -30.1470   23.8881 C   0  0  0  0  0  0
  -17.6476  -30.6590   24.0563 C   0  0  0  0  0  0
  -25.9072  -34.9426   23.5078 C   0  0  0  0  0  0
  -16.5368  -29.9083   23.6339 C   0  0  0  0  0  0
  -16.7291  -28.6502   23.0360 C   0  0  0  0  0  0
  -26.4527  -31.6576   25.0743 C   0  0  0  0  0  0
  -25.3721  -31.3756   26.1443 C   0  0  0  0  0  0
  -27.0391  -30.2979   24.6300 C   0  0  0  0  0  0
  -27.6065  -32.4338   25.7518 C   0  0  0  0  0  0
  -27.5578  -37.1789   24.8467 C   0  0  0  0  0  0
  -21.4247  -29.3059   22.3621 N   0  0  0  0  0  0
  -26.4283  -37.3760   23.9415 N   0  0  0  0  0  0
  -24.7110  -31.0411   22.0993 N   0  0  0  0  0  0
  -23.4218  -28.8117   23.2987 O   0  0  0  0  0  0
  -28.2302  -26.1771   20.2300 O   0  0  0  0  0  0
  -26.5641  -34.8915   22.4647 O   0  0  0  0  0  0
  -23.5526  -32.1367   23.7217 O   0  0  0  0  0  0
  -29.7590  -22.8789   20.6058 C   0  0  0  0  0  0
  -27.6182  -22.1466   19.9511 C   0  0  0  0  0  0
  -29.2668  -20.3481   20.6214 C   0  0  0  0  0  0
  -28.4539  -23.2797   20.1921 C   0  0  0  0  0  0
  -30.1530  -21.4882   20.8094 C   0  0  0  0  0  0
  -27.9819  -20.7656   20.1395 C   0  0  0  0  0  0
  -31.3843  -17.8444   21.4080 C   0  0  0  0  0  0
  -29.5498  -18.7778   21.0479 C   0  0  1  0  0  0
  -30.3033  -17.4777   20.3917 C   0  0  2  0  0  0
  -31.5937  -21.2734   21.2394 C   0  0  0  0  0  0
  -25.9253  -19.5311   20.9762 C   0  0  0  0  0  0
  -26.9076  -19.7348   19.8159 C   0  0  0  0  0  0
  -27.8281  -24.7456   19.8537 C   0  0  0  0  0  0
  -29.8715  -16.0004   20.6408 N   0  0  0  0  0  0
  -30.4960  -18.7312   22.1484 O   0  0  0  0  0  0
  -31.4729  -12.6331   19.1863 H   0  0  0  0  0  0
  -30.3900  -11.5416   20.0001 H   0  0  0  0  0  0
  -29.8126  -11.7274   17.5538 H   0  0  0  0  0  0
  -29.6258  -13.4569   17.7124 H   0  0  0  0  0  0
  -27.9201  -11.2775   18.9513 H   0  0  0  0  0  0
  -27.3834  -12.4838   17.8124 H   0  0  0  0  0  0
  -27.6168  -14.2528   19.4421 H   0  0  0  0  0  0
  -28.7347  -12.2397   21.4539 H   0  0  0  0  0  0
  -28.4021  -13.9246   21.7746 H   0  0  0  0  0  0
  -25.2766   -9.5690   22.4760 H   0  0  0  0  0  0
  -24.0009   -7.4637   22.7471 H   0  0  0  0  0  0
  -21.0849   -8.8768   19.8949 H   0  0  0  0  0  0
  -22.3699  -10.9672   19.6164 H   0  0  0  0  0  0
  -21.2007   -7.6148   23.9715 H   0  0  0  0  0  0
  -21.1484   -6.0524   25.9077 H   0  0  0  0  0  0
  -22.0598   -2.7610   23.2846 H   0  0  0  0  0  0
  -22.4097  -11.9863   22.4810 H   0  0  0  0  0  0
  -21.1080  -13.1210   22.2639 H   0  0  0  0  0  0
  -24.6421  -15.8411   20.5145 H   0  0  0  0  0  0
  -26.2539  -15.6329   20.0543 H   0  0  0  0  0  0
  -26.7260  -32.5348   23.1055 H   0  0  0  0  0  0
  -25.0126  -33.9663   25.0388 H   0  0  0  0  0  0
  -22.7402  -31.3037   21.3965 H   0  0  0  0  0  0
  -23.3762  -35.9591   23.3285 H   0  0  0  0  0  0
  -24.3581  -36.8905   22.2058 H   0  0  0  0  0  0
  -23.7234  -37.6456   23.6679 H   0  0  0  0  0  0
  -26.1523  -31.4960   20.6274 H   0  0  0  0  0  0
  -26.8671  -30.7800   22.0364 H   0  0  0  0  0  0
  -28.1115  -28.8139   21.2694 H   0  0  0  0  0  0
  -25.8902  -25.9571   18.8825 H   0  0  0  0  0  0
  -23.9781  -27.3689   18.9277 H   0  0  0  0  0  0
  -23.7942  -30.6025   19.4068 H   0  0  0  0  0  0
  -22.7778  -29.2628   19.8431 H   0  0  0  0  0  0
  -25.1300  -36.1883   25.0812 H   0  0  0  0  0  0
  -21.0017  -28.3299   24.1360 H   0  0  0  0  0  0
  -20.5695  -26.2331   23.3613 H   0  0  0  0  0  0
  -21.6657  -26.7441   22.1188 H   0  0  0  0  0  0
  -19.6926  -25.6287   21.1252 H   0  0  0  0  0  0
  -19.6692  -27.3186   20.6737 H   0  0  0  0  0  0
  -17.4212  -26.6688   21.4027 H   0  0  0  0  0  0
  -18.0341  -26.0071   22.9017 H   0  0  0  0  0  0
  -19.7956  -30.7297   24.2235 H   0  0  0  0  0  0
  -17.5029  -31.6269   24.5166 H   0  0  0  0  0  0
  -15.5368  -30.2981   23.7671 H   0  0  0  0  0  0
  -15.8690  -28.0816   22.7084 H   0  0  0  0  0  0
  -24.5907  -30.7095   25.7763 H   0  0  0  0  0  0
  -24.8908  -32.2937   26.4819 H   0  0  0  0  0  0
  -25.8011  -30.8958   27.0251 H   0  0  0  0  0  0
  -26.3007  -29.6703   24.1297 H   0  0  0  0  0  0
  -27.4008  -29.7265   25.4859 H   0  0  0  0  0  0
  -27.8915  -30.4222   23.9619 H   0  0  0  0  0  0
  -27.2668  -33.3664   26.2032 H   0  0  0  0  0  0
  -28.3907  -32.6850   25.0365 H   0  0  0  0  0  0
  -28.0700  -31.8503   26.5483 H   0  0  0  0  0  0
  -28.2581  -38.0100   24.7526 H   0  0  0  0  0  0
  -28.1085  -36.2628   24.6270 H   0  0  0  0  0  0
  -27.2302  -37.1410   25.8872 H   0  0  0  0  0  0
  -20.9442  -29.8790   21.6825 H   0  0  0  0  0  0
  -26.0151  -38.2829   24.1424 H   0  0  0  0  0  0
  -30.4854  -23.6629   20.7704 H   0  0  0  0  0  0
  -26.6176  -22.3484   19.5935 H   0  0  0  0  0  0
  -32.2303  -18.3706   20.9650 H   0  0  0  0  0  0
  -31.7453  -17.0179   22.0218 H   0  0  0  0  0  0
  -28.5949  -18.4108   21.4215 H   0  0  0  0  0  0
  -30.6272  -17.6662   19.3678 H   0  0  0  0  0  0
  -32.1683  -22.1992   21.1991 H   0  0  0  0  0  0
  -32.0865  -20.5679   20.5728 H   0  0  0  0  0  0
  -31.6513  -20.9053   22.2633 H   0  0  0  0  0  0
  -25.1644  -18.7954   20.7149 H   0  0  0  0  0  0
  -25.4129  -20.4607   21.2257 H   0  0  0  0  0  0
  -26.4297  -19.1800   21.8761 H   0  0  0  0  0  0
  -27.3544  -18.7850   19.5213 H   0  0  0  0  0  0
  -26.3557  -20.0683   18.9358 H   0  0  0  0  0  0
  -26.8282  -24.6169   20.2688 H   0  0  0  0  0  0
  -27.7198  -24.7426   18.7684 H   0  0  0  0  0  0
  -28.9025  -15.8664   20.8862 H   0  0  0  0  0  0
  1 25  1  0  0  0
  1 30  2  0  0  0
  1 84  1  0  0  0
  2  3  1  0  0  0
  2 25  1  0  0  0
  2 86  1  0  0  0
  2 87  1  0  0  0
  3  4  1  0  0  0
  3 88  1  0  0  0
  3 89  1  0  0  0
  4  5  1  0  0  0
  4 90  1  0  0  0
  4 91  1  0  0  0
  5  6  1  0  0  0
  5 26  1  0  0  0
  5 92  1  0  0  0
  6 25  1  0  0  0
  6 93  1  0  0  0
  6 94  1  0  0  0
  7  8  2  0  0  0
  7 26  1  0  0  0
  7 29  1  0  0  0
  8  9  1  0  0  0
  8 22  1  0  0  0
  9 10  1  0  0  0
  9 27  2  0  0  0
 10 11  2  0  0  0
 10 15  1  0  0  0
 11 12  1  0  0  0
 11 95  1  0  0  0
 12 13  2  0  0  0
 12 96  1  0  0  0
 13 14  1  0  0  0
 13 31  1  0  0  0
 14 15  2  0  0  0
 14 97  1  0  0  0
 15 98  1  0  0  0
 16 17  2  0  0  0
 16 21  1  0  0  0
 16 31  1  0  0  0
 17 18  1  0  0  0
 17 99  1  0  0  0
 18 19  2  0  0  0
 18100  1  0  0  0
 19 20  1  0  0  0
 19 24  1  0  0  0
 20 21  2  0  0  0
 20101  1  0  0  0
 21 23  1  0  0  0
 22 28  1  0  0  0
 22 32  2  0  0  0
 26 27  1  0  0  0
 28102  1  0  0  0
 28103  1  0  0  0
 29104  1  0  0  0
 29105  1  0  0  0
 33 34  1  0  0  0
 33 66  1  0  0  0
 33 70  2  0  0  0
 34 36  1  0  0  0
 34 59  1  0  0  0
 34106  1  0  0  0
 35 44  2  0  0  0
 35 45  1  0  0  0
 35 68  1  0  0  0
 36 56  1  0  0  0
 36107  1  0  0  0
 37 39  1  0  0  0
 37 47  1  0  0  0
 37 66  1  0  0  0
 37108  1  0  0  0
 38 43  2  0  0  0
 38 46  1  0  0  0
 38 47  1  0  0  0
 39 64  1  0  0  0
 39 67  2  0  0  0
 40 52  1  0  0  0
 40 53  2  0  0  0
 40 58  1  0  0  0
 41109  1  0  0  0
 41110  1  0  0  0
 41111  1  0  0  0
 41 48  1  0  0  0
 42 43  1  0  0  0
 42 66  1  0  0  0
 42112  1  0  0  0
 42113  1  0  0  0
 43 44  1  0  0  0
 44114  1  0  0  0
 45 46  2  0  0  0
 45115  1  0  0  0
 46116  1  0  0  0
 47117  1  0  0  0
 47118  1  0  0  0
 48 56  1  0  0  0
 48 65  1  0  0  0
 48119  1  0  0  0
 49 50  1  0  0  0
 49 53  1  0  0  0
 49 64  1  0  0  0
 49120  1  0  0  0
 50 51  1  0  0  0
 50121  1  0  0  0
 50122  1  0  0  0
 51 52  1  0  0  0
 51123  1  0  0  0
 51124  1  0  0  0
 52125  1  0  0  0
 52126  1  0  0  0
 53 54  1  0  0  0
 54 55  2  0  0  0
 54127  1  0  0  0
 55 57  1  0  0  0
 55128  1  0  0  0
 56 69  2  0  0  0
 57 58  2  0  0  0
 57129  1  0  0  0
 58130  1  0  0  0
 59 60  1  0  0  0
 59 61  1  0  0  0
 59 62  1  0  0  0
 60131  1  0  0  0
 60132  1  0  0  0
 60133  1  0  0  0
 61134  1  0  0  0
 61135  1  0  0  0
 61136  1  0  0  0
 62137  1  0  0  0
 62138  1  0  0  0
 62139  1  0  0  0
 63 65  1  0  0  0
 63140  1  0  0  0
 63141  1  0  0  0
 63142  1  0  0  0
 64143  1  0  0  0
 65144  1  0  0  0
 68 83  1  0  0  0
 71 74  2  0  0  0
 71 75  1  0  0  0
 71145  1  0  0  0
 72 74  1  0  0  0
 72 76  2  0  0  0
 72146  1  0  0  0
 73 75  2  0  0  0
 73 76  1  0  0  0
 73 78  1  0  0  0
 74 83  1  0  0  0
 75 80  1  0  0  0
 76 82  1  0  0  0
 77 79  1  0  0  0
 77 85  1  0  0  0
 77147  1  0  0  0
 77148  1  0  0  0
 78 79  1  0  0  0
 78 85  1  0  0  0
 78149  1  0  0  0
 79 84  1  0  0  0
 79150  1  0  0  0
 80151  1  0  0  0
 80152  1  0  0  0
 80153  1  0  0  0
 81 82  1  0  0  0
 81154  1  0  0  0
 81155  1  0  0  0
 81156  1  0  0  0
 82157  1  0  0  0
 82158  1  0  0  0
 83159  1  0  0  0
 83160  1  0  0  0
 84161  1  0  0  0
M  ISO  4   1 100  68 101  83 101  84 100
M  END
> <chiral flag>
0

> <version>
0

> <s_m_source_file>
/data/baiqing/PycharmProjects/Reinvent-master-3.2/result/LINK_invent/BTK/process_docking_weight1_custom_sum_contain_oxygen_bond_distance_aromatic_linkinvent_7_9_3/rearranged_h_0143.sdf

> <i_m_source_file_index>
72

> <r_mmod_Potential_Energy-OPLS-2005>
376.365661621094

> <r_mmod_Stretch_Energy-OPLS-2005>
183.770965576172

> <r_mmod_Bend_Energy-OPLS-2005>
265.926940917969

> <r_mmod_Torsional_Energy-OPLS-2005>
240.30224609375

> <r_mmod_Improper_Torsional_Energy-OPLS-2005>
5.884192943573

> <r_mmod_Van_der_Waal_Energy-OPLS-2005>
148.015686035156

> <r_mmod_Electrostatic_Energy-OPLS-2005>
-388.90234375

> <r_mmod_Solvation_Energy-OPLS-2005>
-218.230621337891

> <b_mmod_Minimization_Converged-OPLS-2005>
0

> <r_mmod_RMS_Derivative-OPLS-2005>
0.583198308944702

$$$$
72
                    3D
 Structure written by MMmdl.
165174  0  0  1  0            999 V2000
  -30.6836  -14.5645   20.4818 C   0  0  0  0  0  0
  -30.4145  -12.3404   19.4475 C   0  0  0  0  0  0
  -29.4979  -12.4940   18.2176 C   0  0  0  0  0  0
  -28.0232  -12.3362   18.6339 C   0  0  0  0  0  0
  -27.6495  -13.2123   19.8606 C   0  0  2  0  0  0
  -28.6942  -13.0836   20.9915 C   0  0  0  0  0  0
  -25.2556  -13.8170   20.5705 C   0  0  0  0  0  0
  -24.1814  -13.0430   20.9186 C   0  0  0  0  0  0
  -24.6379  -11.6902   20.8734 C   0  0  0  0  0  0
  -23.9052  -10.4289   21.0407 C   0  0  0  0  0  0
  -24.3607   -9.4205   21.9183 C   0  0  0  0  0  0
  -23.6282   -8.2236   22.0754 C   0  0  0  0  0  0
  -22.4265   -8.0279   21.3545 C   0  0  0  0  0  0
  -21.9904   -9.0250   20.4647 C   0  0  0  0  0  0
  -22.7228  -10.2130   20.3055 C   0  0  0  0  0  0
  -21.6852   -6.0730   22.5279 C   0  0  0  0  0  0
  -21.4018   -6.5638   23.8216 C   0  0  0  0  0  0
  -21.3664   -5.6792   24.9178 C   0  0  0  0  0  0
  -21.6045   -4.3053   24.7231 C   0  0  0  0  0  0
  -21.8813   -3.8143   23.4354 C   0  0  0  0  0  0
  -21.9187   -4.6956   22.3409 C   0  0  0  0  0  0
  -22.7844  -13.5238   21.1851 C   0  0  0  0  0  0
  -22.1654   -4.2146   21.0985 F   0  0  0  0  0  0
  -21.5627   -3.4538   25.7743 F   0  0  0  0  0  0
  -30.0150  -13.3757   20.4173 N   0  0  0  0  0  0
  -26.2971  -12.9335   20.3329 N   0  0  0  0  0  0
  -25.9305  -11.6498   20.5756 N   0  0  0  0  0  0
  -22.0480  -12.8235   22.0414 N   0  0  0  0  0  0
  -25.4296  -15.1884   20.4150 N   0  0  0  0  0  0
  -31.8593  -14.6644   20.1206 O   0  0  0  0  0  0
  -21.6633   -6.8871   21.4241 O   0  0  0  0  0  0
  -22.3535  -14.5554   20.6719 O   0  0  0  0  0  0
  -24.6212  -31.8653   23.2076 C   0  0  0  0  0  0
  -25.9087  -32.4799   23.8385 C   0  0  1  0  0  0
  -27.2192  -27.3679   20.0964 C   0  0  0  0  0  0
  -25.5922  -33.8594   24.2316 N   0  0  0  0  0  0
  -23.4111  -30.4923   21.5499 C   0  0  2  0  0  0
  -24.8527  -28.9553   20.1147 C   0  0  0  0  0  0
  -22.7433  -29.4666   22.4957 C   0  0  0  0  0  0
  -18.0276  -28.1389   22.8487 C   0  0  0  0  0  0
  -24.1483  -36.7287   23.2641 C   0  0  0  0  0  0
  -25.9493  -30.8073   21.3745 C   0  0  0  0  0  0
  -26.0207  -29.4390   20.7166 C   0  0  0  0  0  0
  -27.2065  -28.6534   20.7060 C   0  0  0  0  0  0
  -26.0251  -26.9281   19.4744 C   0  0  0  0  0  0
  -24.8525  -27.7000   19.4919 C   0  0  0  0  0  0
  -23.6212  -29.8311   20.1641 C   0  0  0  0  0  0
  -25.4104  -36.3094   24.0341 C   0  0  1  0  0  0
  -20.5873  -28.3694   23.1290 C   0  0  2  0  0  0
  -20.6765  -26.9424   22.5407 C   0  0  0  0  0  0
  -19.5749  -26.6395   21.5204 C   0  0  0  0  0  0
  -18.1929  -26.7929   22.1621 C   0  0  0  0  0  0
  -19.1530  -28.8856   23.2885 C   0  0  0  0  0  0
  -18.9458  -30.1450   23.8911 C   0  0  0  0  0  0
  -17.6466  -30.6595   24.0569 C   0  0  0  0  0  0
  -25.9042  -34.9460   23.5126 C   0  0  0  0  0  0
  -16.5353  -29.9101   23.6329 C   0  0  0  0  0  0
  -16.7264  -28.6514   23.0353 C   0  0  0  0  0  0
  -26.4492  -31.6582   25.0725 C   0  0  0  0  0  0
  -25.3733  -31.3702   26.1455 C   0  0  0  0  0  0
  -27.0344  -30.3018   24.6146 C   0  0  0  0  0  0
  -27.6068  -32.4298   25.7479 C   0  0  0  0  0  0
  -27.5572  -37.1801   24.8471 C   0  0  0  0  0  0
  -21.4153  -29.3060   22.3691 N   0  0  0  0  0  0
  -26.4288  -37.3781   23.9415 N   0  0  0  0  0  0
  -24.6792  -31.0701   22.1012 N   0  0  0  0  0  0
  -23.4173  -28.8203   23.3024 O   0  0  0  0  0  0
  -28.3523  -26.5532   20.1292 O   0  0  0  0  0  0
  -26.5609  -34.8923   22.4689 O   0  0  0  0  0  0
  -23.5388  -32.1445   23.7436 O   0  0  0  0  0  0
  -30.8744  -19.3008   18.9976 C   0  0  0  0  0  0
  -29.2308  -20.3564   20.4449 C   0  0  0  0  0  0
  -30.5409  -21.7261   18.9198 C   0  0  0  0  0  0
  -29.8864  -19.1685   19.9945 C   0  0  0  0  0  0
  -31.1944  -20.5634   18.4632 C   0  0  0  0  0  0
  -29.5451  -21.6520   19.9258 C   0  0  0  0  0  0
  -29.4501  -16.5229   19.6501 C   0  0  0  0  0  0
  -29.5605  -17.7567   20.5548 C   0  0  1  0  0  0
  -30.5966  -16.9174   21.3154 C   0  0  1  0  0  0
  -29.9931  -15.7787   23.5803 C   0  0  0  0  0  0
  -32.0543  -17.2301   23.3688 C   0  0  0  0  0  0
  -28.1310  -25.1193   19.9334 C   0  0  0  0  0  0
  -29.3067  -24.1336   20.2263 C   0  0  0  0  0  0
  -30.6282  -16.9811   22.8573 C   0  0  0  0  0  0
  -29.9542  -15.6850   20.7652 N   0  0  0  0  0  0
  -32.1492  -20.6507   17.4909 O   0  0  0  0  0  0
  -28.8368  -22.7624   20.3969 O   0  0  0  0  0  0
  -31.4623  -12.4208   19.1513 H   0  0  0  0  0  0
  -30.3050  -11.3484   19.8892 H   0  0  0  0  0  0
  -29.7556  -11.7528   17.4604 H   0  0  0  0  0  0
  -29.6522  -13.4701   17.7553 H   0  0  0  0  0  0
  -27.8623  -11.2856   18.8738 H   0  0  0  0  0  0
  -27.3648  -12.5584   17.7934 H   0  0  0  0  0  0
  -27.6619  -14.2425   19.5135 H   0  0  0  0  0  0
  -28.6824  -12.0793   21.4173 H   0  0  0  0  0  0
  -28.4544  -13.7648   21.8083 H   0  0  0  0  0  0
  -25.2746   -9.5681   22.4773 H   0  0  0  0  0  0
  -23.9988   -7.4629   22.7485 H   0  0  0  0  0  0
  -21.0831   -8.8775   19.8960 H   0  0  0  0  0  0
  -22.3684  -10.9673   19.6176 H   0  0  0  0  0  0
  -21.2017   -7.6149   23.9722 H   0  0  0  0  0  0
  -21.1496   -6.0524   25.9085 H   0  0  0  0  0  0
  -22.0587   -2.7608   23.2855 H   0  0  0  0  0  0
  -22.4081  -11.9883   22.4791 H   0  0  0  0  0  0
  -21.1110  -13.1295   22.2638 H   0  0  0  0  0  0
  -24.6714  -15.8512   20.5383 H   0  0  0  0  0  0
  -26.3008  -15.6270   20.1471 H   0  0  0  0  0  0
  -26.7143  -32.5491   23.1126 H   0  0  0  0  0  0
  -25.0068  -33.9750   25.0463 H   0  0  0  0  0  0
  -22.7036  -31.3120   21.4114 H   0  0  0  0  0  0
  -23.3749  -35.9619   23.3321 H   0  0  0  0  0  0
  -24.3576  -36.8881   22.2053 H   0  0  0  0  0  0
  -23.7232  -37.6493   23.6645 H   0  0  0  0  0  0
  -26.0763  -31.5716   20.6069 H   0  0  0  0  0  0
  -26.8317  -30.8540   22.0004 H   0  0  0  0  0  0
  -28.1006  -29.0172   21.1927 H   0  0  0  0  0  0
  -25.9588  -25.9780   18.9678 H   0  0  0  0  0  0
  -23.9553  -27.3209   19.0212 H   0  0  0  0  0  0
  -23.7411  -30.6090   19.4090 H   0  0  0  0  0  0
  -22.7419  -29.2590   19.8621 H   0  0  0  0  0  0
  -25.1284  -36.1952   25.0834 H   0  0  0  0  0  0
  -20.9964  -28.3273   24.1413 H   0  0  0  0  0  0
  -20.5666  -26.2311   23.3609 H   0  0  0  0  0  0
  -21.6638  -26.7464   22.1212 H   0  0  0  0  0  0
  -19.6917  -25.6309   21.1235 H   0  0  0  0  0  0
  -19.6679  -27.3205   20.6739 H   0  0  0  0  0  0
  -17.4191  -26.6664   21.4030 H   0  0  0  0  0  0
  -18.0342  -26.0069   22.9023 H   0  0  0  0  0  0
  -19.7935  -30.7250   24.2293 H   0  0  0  0  0  0
  -17.5028  -31.6279   24.5167 H   0  0  0  0  0  0
  -15.5357  -30.3020   23.7641 H   0  0  0  0  0  0
  -15.8656  -28.0839   22.7072 H   0  0  0  0  0  0
  -24.5910  -30.7050   25.7779 H   0  0  0  0  0  0
  -24.8923  -32.2863   26.4889 H   0  0  0  0  0  0
  -25.8067  -30.8869   27.0221 H   0  0  0  0  0  0
  -26.2922  -29.6748   24.1190 H   0  0  0  0  0  0
  -27.4097  -29.7277   25.4628 H   0  0  0  0  0  0
  -27.8759  -30.4327   23.9337 H   0  0  0  0  0  0
  -27.2702  -33.3599   26.2064 H   0  0  0  0  0  0
  -28.3867  -32.6842   25.0290 H   0  0  0  0  0  0
  -28.0743  -31.8407   26.5377 H   0  0  0  0  0  0
  -28.2610  -38.0081   24.7508 H   0  0  0  0  0  0
  -28.1052  -36.2613   24.6316 H   0  0  0  0  0  0
  -27.2294  -37.1472   25.8878 H   0  0  0  0  0  0
  -20.9322  -29.8782   21.6910 H   0  0  0  0  0  0
  -26.0172  -38.2860   24.1413 H   0  0  0  0  0  0
  -31.3946  -18.4285   18.6297 H   0  0  0  0  0  0
  -28.4705  -20.2749   21.2085 H   0  0  0  0  0  0
  -30.8142  -22.6609   18.4594 H   0  0  0  0  0  0
  -30.1135  -16.5469   18.7844 H   0  0  0  0  0  0
  -28.4264  -16.3263   19.3348 H   0  0  0  0  0  0
  -28.6482  -17.8324   21.1522 H   0  0  0  0  0  0
  -31.5841  -17.0911   20.8769 H   0  0  0  0  0  0
  -28.9542  -15.6348   23.2808 H   0  0  0  0  0  0
  -29.9971  -15.9286   24.6602 H   0  0  0  0  0  0
  -30.5343  -14.8537   23.3835 H   0  0  0  0  0  0
  -32.4517  -18.1665   22.9753 H   0  0  0  0  0  0
  -32.7327  -16.4319   23.0646 H   0  0  0  0  0  0
  -32.0811  -17.2994   24.4570 H   0  0  0  0  0  0
  -27.8225  -24.9411   18.9028 H   0  0  0  0  0  0
  -27.2976  -24.8164   20.5683 H   0  0  0  0  0  0
  -29.7893  -24.4202   21.1606 H   0  0  0  0  0  0
  -30.0576  -24.2642   19.4547 H   0  0  0  0  0  0
  -30.0459  -17.8531   23.1614 H   0  0  0  0  0  0
  -32.2491  -21.5276   17.1336 H   0  0  0  0  0  0
  1 25  1  0  0  0
  1 30  2  0  0  0
  1 85  1  0  0  0
  2  3  1  0  0  0
  2 25  1  0  0  0
  2 88  1  0  0  0
  2 89  1  0  0  0
  3  4  1  0  0  0
  3 90  1  0  0  0
  3 91  1  0  0  0
  4  5  1  0  0  0
  4 92  1  0  0  0
  4 93  1  0  0  0
  5  6  1  0  0  0
  5 26  1  0  0  0
  5 94  1  0  0  0
  6 25  1  0  0  0
  6 95  1  0  0  0
  6 96  1  0  0  0
  7  8  2  0  0  0
  7 26  1  0  0  0
  7 29  1  0  0  0
  8  9  1  0  0  0
  8 22  1  0  0  0
  9 10  1  0  0  0
  9 27  2  0  0  0
 10 11  2  0  0  0
 10 15  1  0  0  0
 11 12  1  0  0  0
 11 97  1  0  0  0
 12 13  2  0  0  0
 12 98  1  0  0  0
 13 14  1  0  0  0
 13 31  1  0  0  0
 14 15  2  0  0  0
 14 99  1  0  0  0
 15100  1  0  0  0
 16 17  2  0  0  0
 16 21  1  0  0  0
 16 31  1  0  0  0
 17 18  1  0  0  0
 17101  1  0  0  0
 18 19  2  0  0  0
 18102  1  0  0  0
 19 20  1  0  0  0
 19 24  1  0  0  0
 20 21  2  0  0  0
 20103  1  0  0  0
 21 23  1  0  0  0
 22 28  1  0  0  0
 22 32  2  0  0  0
 26 27  1  0  0  0
 28104  1  0  0  0
 28105  1  0  0  0
 29106  1  0  0  0
 29107  1  0  0  0
 33 34  1  0  0  0
 33 66  1  0  0  0
 33 70  2  0  0  0
 34 36  1  0  0  0
 34 59  1  0  0  0
 34108  1  0  0  0
 35 44  2  0  0  0
 35 45  1  0  0  0
 35 68  1  0  0  0
 36 56  1  0  0  0
 36109  1  0  0  0
 37 39  1  0  0  0
 37 47  1  0  0  0
 37 66  1  0  0  0
 37110  1  0  0  0
 38 43  2  0  0  0
 38 46  1  0  0  0
 38 47  1  0  0  0
 39 64  1  0  0  0
 39 67  2  0  0  0
 40 52  1  0  0  0
 40 53  2  0  0  0
 40 58  1  0  0  0
 41111  1  0  0  0
 41112  1  0  0  0
 41113  1  0  0  0
 41 48  1  0  0  0
 42 43  1  0  0  0
 42 66  1  0  0  0
 42114  1  0  0  0
 42115  1  0  0  0
 43 44  1  0  0  0
 44116  1  0  0  0
 45 46  2  0  0  0
 45117  1  0  0  0
 46118  1  0  0  0
 47119  1  0  0  0
 47120  1  0  0  0
 48 56  1  0  0  0
 48 65  1  0  0  0
 48121  1  0  0  0
 49 50  1  0  0  0
 49 53  1  0  0  0
 49 64  1  0  0  0
 49122  1  0  0  0
 50 51  1  0  0  0
 50123  1  0  0  0
 50124  1  0  0  0
 51 52  1  0  0  0
 51125  1  0  0  0
 51126  1  0  0  0
 52127  1  0  0  0
 52128  1  0  0  0
 53 54  1  0  0  0
 54 55  2  0  0  0
 54129  1  0  0  0
 55 57  1  0  0  0
 55130  1  0  0  0
 56 69  2  0  0  0
 57 58  2  0  0  0
 57131  1  0  0  0
 58132  1  0  0  0
 59 60  1  0  0  0
 59 61  1  0  0  0
 59 62  1  0  0  0
 60133  1  0  0  0
 60134  1  0  0  0
 60135  1  0  0  0
 61136  1  0  0  0
 61137  1  0  0  0
 61138  1  0  0  0
 62139  1  0  0  0
 62140  1  0  0  0
 62141  1  0  0  0
 63 65  1  0  0  0
 63142  1  0  0  0
 63143  1  0  0  0
 63144  1  0  0  0
 64145  1  0  0  0
 65146  1  0  0  0
 68 82  1  0  0  0
 71 74  2  0  0  0
 71 75  1  0  0  0
 71147  1  0  0  0
 72 74  1  0  0  0
 72 76  2  0  0  0
 72148  1  0  0  0
 73 75  2  0  0  0
 73 76  1  0  0  0
 73149  1  0  0  0
 74 78  1  0  0  0
 75 86  1  0  0  0
 76 87  1  0  0  0
 77 78  1  0  0  0
 77 85  1  0  0  0
 77150  1  0  0  0
 77151  1  0  0  0
 78 79  1  0  0  0
 78152  1  0  0  0
 79 84  1  0  0  0
 79 85  1  0  0  0
 79153  1  0  0  0
 80154  1  0  0  0
 80155  1  0  0  0
 80156  1  0  0  0
 80 84  1  0  0  0
 81 84  1  0  0  0
 81157  1  0  0  0
 81158  1  0  0  0
 81159  1  0  0  0
 82 83  1  0  0  0
 82160  1  0  0  0
 82161  1  0  0  0
 83 87  1  0  0  0
 83162  1  0  0  0
 83163  1  0  0  0
 84164  1  0  0  0
 86165  1  0  0  0
M  ISO  4   1 100  68 101  82 101  85 100
M  END
> <chiral flag>
0

> <version>
0

> <s_m_source_file>
/data/baiqing/PycharmProjects/Reinvent-master-3.2/result/LINK_invent/BTK/process_docking_weight1_custom_sum_contain_oxygen_bond_distance_aromatic_linkinvent_7_9_3/rearranged_h_0143.sdf

> <i_m_source_file_index>
73

> <r_mmod_Potential_Energy-OPLS-2005>
127.061614990234

> <r_mmod_Stretch_Energy-OPLS-2005>
58.7195510864258

> <r_mmod_Bend_Energy-OPLS-2005>
128.316452026367

> <r_mmod_Torsional_Energy-OPLS-2005>
296.707824707031

> <r_mmod_Improper_Torsional_Energy-OPLS-2005>
11.9615888595581

> <r_mmod_Van_der_Waal_Energy-OPLS-2005>
154.082183837891

> <r_mmod_Electrostatic_Energy-OPLS-2005>
-340.297821044922

> <r_mmod_Solvation_Energy-OPLS-2005>
-214.648300170898

> <b_mmod_Minimization_Converged-OPLS-2005>
0

> <r_mmod_RMS_Derivative-OPLS-2005>
2.13289999961853

$$$$
74
                    3D
 Structure written by MMmdl.
158167  0  0  1  0            999 V2000
  -30.5289  -14.9141   20.4362 C   0  0  0  0  0  0
  -30.4566  -12.5645   19.4881 C   0  0  0  0  0  0
  -29.5279  -12.5352   18.2502 C   0  0  0  0  0  0
  -28.0582  -12.3241   18.6643 C   0  0  0  0  0  0
  -27.6397  -13.2401   19.8425 C   0  0  2  0  0  0
  -28.6850  -13.2265   20.9804 C   0  0  0  0  0  0
  -25.2514  -13.8190   20.5711 C   0  0  0  0  0  0
  -24.1817  -13.0434   20.9232 C   0  0  0  0  0  0
  -24.6411  -11.6919   20.8744 C   0  0  0  0  0  0
  -23.9077  -10.4293   21.0398 C   0  0  0  0  0  0
  -24.3618   -9.4210   21.9179 C   0  0  0  0  0  0
  -23.6290   -8.2245   22.0755 C   0  0  0  0  0  0
  -22.4269   -8.0275   21.3547 C   0  0  0  0  0  0
  -21.9904   -9.0259   20.4656 C   0  0  0  0  0  0
  -22.7235  -10.2133   20.3057 C   0  0  0  0  0  0
  -21.6853   -6.0730   22.5276 C   0  0  0  0  0  0
  -21.4019   -6.5635   23.8209 C   0  0  0  0  0  0
  -21.3664   -5.6784   24.9170 C   0  0  0  0  0  0
  -21.6042   -4.3045   24.7219 C   0  0  0  0  0  0
  -21.8819   -3.8144   23.4339 C   0  0  0  0  0  0
  -21.9198   -4.6958   22.3401 C   0  0  0  0  0  0
  -22.7832  -13.5230   21.1869 C   0  0  0  0  0  0
  -22.1663   -4.2148   21.0977 F   0  0  0  0  0  0
  -21.5627   -3.4531   25.7733 F   0  0  0  0  0  0
  -29.9719  -13.6381   20.3981 N   0  0  0  0  0  0
  -26.2940  -12.9413   20.3229 N   0  0  0  0  0  0
  -25.9340  -11.6555   20.5694 N   0  0  0  0  0  0
  -22.0460  -12.8235   22.0422 N   0  0  0  0  0  0
  -25.4187  -15.1910   20.4150 N   0  0  0  0  0  0
  -31.7207  -15.0332   20.1271 O   0  0  0  0  0  0
  -21.6641   -6.8869   21.4236 O   0  0  0  0  0  0
  -22.3522  -14.5530   20.6700 O   0  0  0  0  0  0
  -24.6416  -31.8458   23.1888 C   0  0  0  0  0  0
  -25.9200  -32.4706   23.8267 C   0  0  1  0  0  0
  -27.2218  -27.1563   20.1557 C   0  0  0  0  0  0
  -25.5958  -33.8509   24.2189 N   0  0  0  0  0  0
  -23.4427  -30.4661   21.5343 C   0  0  2  0  0  0
  -24.8931  -28.8959   20.1118 C   0  0  0  0  0  0
  -22.7550  -29.4559   22.4862 C   0  0  0  0  0  0
  -18.0303  -28.1372   22.8479 C   0  0  0  0  0  0
  -24.1491  -36.7259   23.2640 C   0  0  0  0  0  0
  -25.9976  -30.7283   21.3832 C   0  0  0  0  0  0
  -26.0704  -29.3407   20.7269 C   0  0  0  0  0  0
  -27.2358  -28.4887   20.7294 C   0  0  0  0  0  0
  -26.0158  -26.8075   19.5059 C   0  0  0  0  0  0
  -24.8785  -27.6420   19.4852 C   0  0  0  0  0  0
  -23.6675  -29.7943   20.1541 C   0  0  0  0  0  0
  -25.4122  -36.3039   24.0316 C   0  0  1  0  0  0
  -20.5912  -28.3707   23.1237 C   0  0  2  0  0  0
  -20.6777  -26.9408   22.5406 C   0  0  0  0  0  0
  -19.5760  -26.6367   21.5202 C   0  0  0  0  0  0
  -18.1940  -26.7912   22.1613 C   0  0  0  0  0  0
  -19.1557  -28.8854   23.2851 C   0  0  0  0  0  0
  -18.9474  -30.1450   23.8881 C   0  0  0  0  0  0
  -17.6472  -30.6576   24.0549 C   0  0  0  0  0  0
  -25.9073  -34.9419   23.5065 C   0  0  0  0  0  0
  -16.5365  -29.9064   23.6330 C   0  0  0  0  0  0
  -16.7288  -28.6476   23.0364 C   0  0  0  0  0  0
  -26.4527  -31.6564   25.0702 C   0  0  0  0  0  0
  -25.3719  -31.3762   26.1408 C   0  0  0  0  0  0
  -27.0370  -30.2954   24.6267 C   0  0  0  0  0  0
  -27.6056  -32.4325   25.7496 C   0  0  0  0  0  0
  -27.5580  -37.1783   24.8460 C   0  0  0  0  0  0
  -21.4243  -29.3041   22.3614 N   0  0  0  0  0  0
  -26.4284  -37.3753   23.9414 N   0  0  0  0  0  0
  -24.7135  -31.0342   22.0909 N   0  0  0  0  0  0
  -23.4214  -28.8108   23.2998 O   0  0  0  0  0  0
  -28.2850  -26.1860   20.2253 O   0  0  0  0  0  0
  -26.5653  -34.8914   22.4636 O   0  0  0  0  0  0
  -23.5541  -32.1312   23.7139 O   0  0  0  0  0  0
  -28.2807  -18.0732   20.8310 C   0  0  0  0  0  0
  -27.9529  -19.4746   20.7815 C   0  0  0  0  0  0
  -28.9171  -20.4931   20.4725 C   0  0  0  0  0  0
  -30.2092  -19.8796   20.2461 C   0  0  0  0  0  0
  -29.5671  -17.5242   20.5720 C   0  0  0  0  0  0
  -25.3495  -19.0277   20.6719 C   0  0  0  0  0  0
  -25.5939  -20.3733   20.0346 C   0  0  0  0  0  0
  -26.5353  -19.8644   21.1032 C   0  0  0  0  0  0
  -31.3863  -20.7758   19.9212 C   0  0  0  0  0  0
  -29.0327  -23.3542   20.3750 C   0  0  0  0  0  0
  -27.9907  -24.6630   20.1712 C   0  0  0  0  0  0
  -30.5051  -18.5015   20.2860 N   0  0  0  0  0  0
  -28.4569  -21.9123   20.4095 N   0  0  0  0  0  0
  -29.6550  -16.0021   20.6659 N   0  0  0  0  0  0
  -31.4878  -12.7333   19.1745 H   0  0  0  0  0  0
  -30.4534  -11.5994   19.9982 H   0  0  0  0  0  0
  -29.8404  -11.7500   17.5615 H   0  0  0  0  0  0
  -29.6201  -13.4737   17.7004 H   0  0  0  0  0  0
  -27.9420  -11.2774   18.9503 H   0  0  0  0  0  0
  -27.3987  -12.4820   17.8104 H   0  0  0  0  0  0
  -27.6125  -14.2499   19.4324 H   0  0  0  0  0  0
  -28.7610  -12.2342   21.4279 H   0  0  0  0  0  0
  -28.3872  -13.8995   21.7856 H   0  0  0  0  0  0
  -25.2762   -9.5687   22.4746 H   0  0  0  0  0  0
  -24.0009   -7.4637   22.7467 H   0  0  0  0  0  0
  -21.0837   -8.8777   19.8958 H   0  0  0  0  0  0
  -22.3694  -10.9673   19.6165 H   0  0  0  0  0  0
  -21.2011   -7.6140   23.9705 H   0  0  0  0  0  0
  -21.1485   -6.0516   25.9070 H   0  0  0  0  0  0
  -22.0598   -2.7604   23.2836 H   0  0  0  0  0  0
  -22.4077  -11.9916   22.4843 H   0  0  0  0  0  0
  -21.1072  -13.1262   22.2602 H   0  0  0  0  0  0
  -24.6392  -15.8301   20.5224 H   0  0  0  0  0  0
  -26.2305  -15.6227   19.9967 H   0  0  0  0  0  0
  -26.7273  -32.5308   23.1000 H   0  0  0  0  0  0
  -25.0094  -33.9617   25.0334 H   0  0  0  0  0  0
  -22.7436  -31.2911   21.3812 H   0  0  0  0  0  0
  -23.3765  -35.9576   23.3269 H   0  0  0  0  0  0
  -24.3588  -36.8915   22.2061 H   0  0  0  0  0  0
  -23.7231  -37.6441   23.6693 H   0  0  0  0  0  0
  -26.1493  -31.4824   20.6096 H   0  0  0  0  0  0
  -26.8714  -30.7790   22.0221 H   0  0  0  0  0  0
  -28.1328  -28.8264   21.2292 H   0  0  0  0  0  0
  -25.9115  -25.8499   19.0213 H   0  0  0  0  0  0
  -23.9806  -27.2947   18.9936 H   0  0  0  0  0  0
  -23.7973  -30.5662   19.3944 H   0  0  0  0  0  0
  -22.7830  -29.2326   19.8489 H   0  0  0  0  0  0
  -25.1308  -36.1855   25.0806 H   0  0  0  0  0  0
  -21.0008  -28.3287   24.1354 H   0  0  0  0  0  0
  -20.5637  -26.2318   23.3621 H   0  0  0  0  0  0
  -21.6646  -26.7393   22.1227 H   0  0  0  0  0  0
  -19.6918  -25.6270   21.1246 H   0  0  0  0  0  0
  -19.6694  -27.3160   20.6715 H   0  0  0  0  0  0
  -17.4206  -26.6660   21.4014 H   0  0  0  0  0  0
  -18.0345  -26.0051   22.9010 H   0  0  0  0  0  0
  -19.7953  -30.7260   24.2245 H   0  0  0  0  0  0
  -17.5030  -31.6256   24.5146 H   0  0  0  0  0  0
  -15.5364  -30.2964   23.7654 H   0  0  0  0  0  0
  -15.8685  -28.0779   22.7108 H   0  0  0  0  0  0
  -24.5886  -30.7120   25.7738 H   0  0  0  0  0  0
  -24.8930  -32.2952   26.4795 H   0  0  0  0  0  0
  -25.8009  -30.8957   27.0209 H   0  0  0  0  0  0
  -26.2963  -29.6697   24.1272 H   0  0  0  0  0  0
  -27.3974  -29.7239   25.4830 H   0  0  0  0  0  0
  -27.8884  -30.4184   23.9572 H   0  0  0  0  0  0
  -27.2647  -33.3647   26.2016 H   0  0  0  0  0  0
  -28.3908  -32.6845   25.0356 H   0  0  0  0  0  0
  -28.0680  -31.8482   26.5463 H   0  0  0  0  0  0
  -28.2577  -38.0100   24.7530 H   0  0  0  0  0  0
  -28.1092  -36.2628   24.6247 H   0  0  0  0  0  0
  -27.2303  -37.1393   25.8864 H   0  0  0  0  0  0
  -20.9435  -29.8763   21.6815 H   0  0  0  0  0  0
  -26.0143  -38.2813   24.1431 H   0  0  0  0  0  0
  -27.4841  -17.3913   21.0890 H   0  0  0  0  0  0
  -25.5228  -18.1561   20.0457 H   0  0  0  0  0  0
  -24.5116  -18.9484   21.3619 H   0  0  0  0  0  0
  -24.9118  -21.1783   20.3014 H   0  0  0  0  0  0
  -25.9484  -20.3788   19.0055 H   0  0  0  0  0  0
  -26.4872  -20.3360   22.0830 H   0  0  0  0  0  0
  -31.5038  -21.5327   20.6972 H   0  0  0  0  0  0
  -31.2177  -21.2843   18.9716 H   0  0  0  0  0  0
  -32.3200  -20.2162   19.8534 H   0  0  0  0  0  0
  -29.5653  -23.5004   21.3157 H   0  0  0  0  0  0
  -29.7979  -23.4005   19.5997 H   0  0  0  0  0  0
  -27.1912  -24.5156   20.8991 H   0  0  0  0  0  0
  -27.5335  -24.4864   19.1987 H   0  0  0  0  0  0
  -27.4457  -21.9623   20.5078 H   0  0  0  0  0  0
  -28.7605  -15.6156   20.9161 H   0  0  0  0  0  0
  1 25  1  0  0  0
  1 30  2  0  0  0
  1 84  1  0  0  0
  2  3  1  0  0  0
  2 25  1  0  0  0
  2 85  1  0  0  0
  2 86  1  0  0  0
  3  4  1  0  0  0
  3 87  1  0  0  0
  3 88  1  0  0  0
  4  5  1  0  0  0
  4 89  1  0  0  0
  4 90  1  0  0  0
  5  6  1  0  0  0
  5 26  1  0  0  0
  5 91  1  0  0  0
  6 25  1  0  0  0
  6 92  1  0  0  0
  6 93  1  0  0  0
  7  8  2  0  0  0
  7 26  1  0  0  0
  7 29  1  0  0  0
  8  9  1  0  0  0
  8 22  1  0  0  0
  9 10  1  0  0  0
  9 27  2  0  0  0
 10 11  2  0  0  0
 10 15  1  0  0  0
 11 12  1  0  0  0
 11 94  1  0  0  0
 12 13  2  0  0  0
 12 95  1  0  0  0
 13 14  1  0  0  0
 13 31  1  0  0  0
 14 15  2  0  0  0
 14 96  1  0  0  0
 15 97  1  0  0  0
 16 17  2  0  0  0
 16 21  1  0  0  0
 16 31  1  0  0  0
 17 18  1  0  0  0
 17 98  1  0  0  0
 18 19  2  0  0  0
 18 99  1  0  0  0
 19 20  1  0  0  0
 19 24  1  0  0  0
 20 21  2  0  0  0
 20100  1  0  0  0
 21 23  1  0  0  0
 22 28  1  0  0  0
 22 32  2  0  0  0
 26 27  1  0  0  0
 28101  1  0  0  0
 28102  1  0  0  0
 29103  1  0  0  0
 29104  1  0  0  0
 33 34  1  0  0  0
 33 66  1  0  0  0
 33 70  2  0  0  0
 34 36  1  0  0  0
 34 59  1  0  0  0
 34105  1  0  0  0
 35 44  2  0  0  0
 35 45  1  0  0  0
 35 68  1  0  0  0
 36 56  1  0  0  0
 36106  1  0  0  0
 37 39  1  0  0  0
 37 47  1  0  0  0
 37 66  1  0  0  0
 37107  1  0  0  0
 38 43  2  0  0  0
 38 46  1  0  0  0
 38 47  1  0  0  0
 39 64  1  0  0  0
 39 67  2  0  0  0
 40 52  1  0  0  0
 40 53  2  0  0  0
 40 58  1  0  0  0
 41108  1  0  0  0
 41109  1  0  0  0
 41110  1  0  0  0
 41 48  1  0  0  0
 42 43  1  0  0  0
 42 66  1  0  0  0
 42111  1  0  0  0
 42112  1  0  0  0
 43 44  1  0  0  0
 44113  1  0  0  0
 45 46  2  0  0  0
 45114  1  0  0  0
 46115  1  0  0  0
 47116  1  0  0  0
 47117  1  0  0  0
 48 56  1  0  0  0
 48 65  1  0  0  0
 48118  1  0  0  0
 49 50  1  0  0  0
 49 53  1  0  0  0
 49 64  1  0  0  0
 49119  1  0  0  0
 50 51  1  0  0  0
 50120  1  0  0  0
 50121  1  0  0  0
 51 52  1  0  0  0
 51122  1  0  0  0
 51123  1  0  0  0
 52124  1  0  0  0
 52125  1  0  0  0
 53 54  1  0  0  0
 54 55  2  0  0  0
 54126  1  0  0  0
 55 57  1  0  0  0
 55127  1  0  0  0
 56 69  2  0  0  0
 57 58  2  0  0  0
 57128  1  0  0  0
 58129  1  0  0  0
 59 60  1  0  0  0
 59 61  1  0  0  0
 59 62  1  0  0  0
 60130  1  0  0  0
 60131  1  0  0  0
 60132  1  0  0  0
 61133  1  0  0  0
 61134  1  0  0  0
 61135  1  0  0  0
 62136  1  0  0  0
 62137  1  0  0  0
 62138  1  0  0  0
 63 65  1  0  0  0
 63139  1  0  0  0
 63140  1  0  0  0
 63141  1  0  0  0
 64142  1  0  0  0
 65143  1  0  0  0
 68 81  1  0  0  0
 71 72  2  0  0  0
 71 75  1  0  0  0
 71144  1  0  0  0
 72 73  1  0  0  0
 72 78  1  0  0  0
 73 74  2  0  0  0
 73 83  1  0  0  0
 74 79  1  0  0  0
 74 82  1  0  0  0
 75 82  2  0  0  0
 75 84  1  0  0  0
 76 77  1  0  0  0
 76 78  1  0  0  0
 76145  1  0  0  0
 76146  1  0  0  0
 77 78  1  0  0  0
 77147  1  0  0  0
 77148  1  0  0  0
 78149  1  0  0  0
 79150  1  0  0  0
 79151  1  0  0  0
 79152  1  0  0  0
 80 81  1  0  0  0
 80 83  1  0  0  0
 80153  1  0  0  0
 80154  1  0  0  0
 81155  1  0  0  0
 81156  1  0  0  0
 83157  1  0  0  0
 84158  1  0  0  0
M  ISO  4   1 100  68 101  81 101  84 100
M  END
> <chiral flag>
0

> <version>
0

> <s_m_source_file>
/data/baiqing/PycharmProjects/Reinvent-master-3.2/result/LINK_invent/BTK/process_docking_weight1_custom_sum_contain_oxygen_bond_distance_aromatic_linkinvent_7_9_3/rearranged_h_0143.sdf

> <i_m_source_file_index>
74

> <r_mmod_Potential_Energy-OPLS-2005>
337.757263183594

> <r_mmod_Stretch_Energy-OPLS-2005>
213.691757202148

> <r_mmod_Bend_Energy-OPLS-2005>
303.8271484375

> <r_mmod_Torsional_Energy-OPLS-2005>
225.555160522461

> <r_mmod_Improper_Torsional_Energy-OPLS-2005>
4.26651763916016

> <r_mmod_Van_der_Waal_Energy-OPLS-2005>
130.055938720703

> <r_mmod_Electrostatic_Energy-OPLS-2005>
-470.263732910156

> <r_mmod_Solvation_Energy-OPLS-2005>
-240.213912963867

> <b_mmod_Minimization_Converged-OPLS-2005>
0

> <r_mmod_RMS_Derivative-OPLS-2005>
1.82539343833923

$$$$
76
                    3D
 Structure written by MMmdl.
159167  0  0  1  0            999 V2000
  -30.4235  -15.2649   20.3420 C   0  0  0  0  0  0
  -30.4234  -12.7982   19.5277 C   0  0  0  0  0  0
  -29.5349  -12.5641   18.2796 C   0  0  0  0  0  0
  -28.0798  -12.2928   18.7029 C   0  0  0  0  0  0
  -27.6034  -13.2710   19.8081 C   0  0  2  0  0  0
  -28.6306  -13.4488   20.9442 C   0  0  0  0  0  0
  -25.2343  -13.8231   20.5668 C   0  0  0  0  0  0
  -24.1697  -13.0412   20.9215 C   0  0  0  0  0  0
  -24.6331  -11.6904   20.8682 C   0  0  0  0  0  0
  -23.9027  -10.4275   21.0345 C   0  0  0  0  0  0
  -24.3596   -9.4213   21.9134 C   0  0  0  0  0  0
  -23.6288   -8.2242   22.0736 C   0  0  0  0  0  0
  -22.4267   -8.0256   21.3527 C   0  0  0  0  0  0
  -21.9874   -9.0219   20.4636 C   0  0  0  0  0  0
  -22.7188  -10.2100   20.3022 C   0  0  0  0  0  0
  -21.6866   -6.0706   22.5273 C   0  0  0  0  0  0
  -21.4019   -6.5604   23.8206 C   0  0  0  0  0  0
  -21.3651   -5.6760   24.9163 C   0  0  0  0  0  0
  -21.6056   -4.3033   24.7227 C   0  0  0  0  0  0
  -21.8820   -3.8114   23.4345 C   0  0  0  0  0  0
  -21.9188   -4.6926   22.3397 C   0  0  0  0  0  0
  -22.7723  -13.5174   21.1910 C   0  0  0  0  0  0
  -22.1655   -4.2099   21.0982 F   0  0  0  0  0  0
  -21.5636   -3.4525   25.7752 F   0  0  0  0  0  0
  -29.8576  -13.9576   20.3178 N   0  0  0  0  0  0
  -26.2747  -12.9480   20.3110 N   0  0  0  0  0  0
  -25.9273  -11.6589   20.5621 N   0  0  0  0  0  0
  -22.0366  -12.8193   22.0476 N   0  0  0  0  0  0
  -25.4026  -15.1971   20.4093 N   0  0  0  0  0  0
  -31.6431  -15.2071   20.1441 O   0  0  0  0  0  0
  -21.6642   -6.8846   21.4228 O   0  0  0  0  0  0
  -22.3409  -14.5475   20.6748 O   0  0  0  0  0  0
  -24.6643  -31.8238   23.1667 C   0  0  0  0  0  0
  -25.9327  -32.4586   23.8139 C   0  0  1  0  0  0
  -27.2038  -26.9158   20.2043 C   0  0  0  0  0  0
  -25.5991  -33.8386   24.2072 N   0  0  0  0  0  0
  -23.4774  -30.4322   21.5166 C   0  0  2  0  0  0
  -24.9267  -28.8148   20.1116 C   0  0  0  0  0  0
  -22.7668  -29.4417   22.4776 C   0  0  0  0  0  0
  -18.0323  -28.1414   22.8484 C   0  0  0  0  0  0
  -24.1463  -36.7240   23.2644 C   0  0  0  0  0  0
  -26.0458  -30.6259   21.3946 C   0  0  0  0  0  0
  -26.1093  -29.2115   20.7497 C   0  0  0  0  0  0
  -27.2469  -28.2866   20.7634 C   0  0  0  0  0  0
  -25.9934  -26.6679   19.5209 C   0  0  0  0  0  0
  -24.8980  -27.5653   19.4709 C   0  0  0  0  0  0
  -23.7142  -29.7432   20.1436 C   0  0  0  0  0  0
  -25.4112  -36.2995   24.0307 C   0  0  1  0  0  0
  -20.5945  -28.3763   23.1196 C   0  0  2  0  0  0
  -20.6797  -26.9435   22.5417 C   0  0  0  0  0  0
  -19.5759  -26.6380   21.5235 C   0  0  0  0  0  0
  -18.1947  -26.7953   22.1635 C   0  0  0  0  0  0
  -19.1585  -28.8915   23.2825 C   0  0  0  0  0  0
  -18.9487  -30.1503   23.8842 C   0  0  0  0  0  0
  -17.6474  -30.6603   24.0570 C   0  0  0  0  0  0
  -25.9082  -34.9376   23.5025 C   0  0  0  0  0  0
  -16.5373  -29.9083   23.6352 C   0  0  0  0  0  0
  -16.7301  -28.6506   23.0370 C   0  0  0  0  0  0
  -26.4577  -31.6528   25.0682 C   0  0  0  0  0  0
  -25.3701  -31.3807   26.1332 C   0  0  0  0  0  0
  -27.0466  -30.2884   24.6437 C   0  0  0  0  0  0
  -27.6053  -32.4362   25.7491 C   0  0  0  0  0  0
  -27.5569  -37.1766   24.8463 C   0  0  0  0  0  0
  -21.4345  -29.3040   22.3537 N   0  0  0  0  0  0
  -26.4269  -37.3740   23.9408 N   0  0  0  0  0  0
  -24.7511  -30.9884   22.0800 N   0  0  0  0  0  0
  -23.4228  -28.8008   23.3026 O   0  0  0  0  0  0
  -28.2175  -25.8268   20.2203 O   0  0  0  0  0  0
  -26.5675  -34.8930   22.4604 O   0  0  0  0  0  0
  -23.5713  -32.1193   23.6776 O   0  0  0  0  0  0
  -28.8334  -19.6328   18.5257 C   0  0  0  0  0  0
  -29.7323  -19.1342   17.5762 C   0  0  0  0  0  0
  -29.1029  -19.4326   19.8949 C   0  0  0  0  0  0
  -29.9674  -18.1382   20.1330 C   0  0  0  0  0  0
  -31.0476  -18.1818   19.2254 C   0  0  0  0  0  0
  -34.7388  -20.3228   20.5343 C   0  0  0  0  0  0
  -28.8275  -20.9658   20.6739 C   0  0  0  0  0  0
  -33.5849  -19.3165   20.6644 C   0  0  0  0  0  0
  -28.7139  -22.6510   20.0097 C   0  0  0  0  0  0
  -33.3894  -18.4896   19.3823 C   0  0  0  0  0  0
  -28.0160  -24.2211   20.5679 C   0  0  0  0  0  0
  -30.8956  -18.5576   17.9372 N   0  0  0  0  0  0
  -29.6739  -16.5621   20.4304 N   0  0  0  0  0  0
  -32.2642  -17.6394   19.5423 O   0  0  0  0  0  0
  -31.4527  -12.9711   19.2111 H   0  0  0  0  0  0
  -30.4666  -11.8964   20.1419 H   0  0  0  0  0  0
  -29.9225  -11.7361   17.6846 H   0  0  0  0  0  0
  -29.5739  -13.4456   17.6348 H   0  0  0  0  0  0
  -28.0286  -11.2692   19.0771 H   0  0  0  0  0  0
  -27.4153  -12.3303   17.8386 H   0  0  0  0  0  0
  -27.5203  -14.2345   19.3034 H   0  0  0  0  0  0
  -28.7965  -12.5105   21.4754 H   0  0  0  0  0  0
  -28.2721  -14.1673   21.6788 H   0  0  0  0  0  0
  -25.2725   -9.5727   22.4691 H   0  0  0  0  0  0
  -23.9990   -7.4658   22.7481 H   0  0  0  0  0  0
  -21.0779   -8.8700   19.8998 H   0  0  0  0  0  0
  -22.3581  -10.9601   19.6128 H   0  0  0  0  0  0
  -21.2029   -7.6114   23.9690 H   0  0  0  0  0  0
  -21.1474   -6.0489   25.9055 H   0  0  0  0  0  0
  -22.0621   -2.7571   23.2862 H   0  0  0  0  0  0
  -22.3976  -11.9859   22.4886 H   0  0  0  0  0  0
  -21.1000  -13.1262   22.2691 H   0  0  0  0  0  0
  -24.6401  -15.8536   20.5387 H   0  0  0  0  0  0
  -26.2454  -15.6300   20.0571 H   0  0  0  0  0  0
  -26.7399  -32.5140   23.0853 H   0  0  0  0  0  0
  -25.0163  -33.9426   25.0240 H   0  0  0  0  0  0
  -22.7932  -31.2661   21.3433 H   0  0  0  0  0  0
  -23.3741  -35.9550   23.3276 H   0  0  0  0  0  0
  -24.3554  -36.8922   22.2068 H   0  0  0  0  0  0
  -23.7187  -37.6421   23.6699 H   0  0  0  0  0  0
  -26.2174  -31.3583   20.6048 H   0  0  0  0  0  0
  -26.9088  -30.6898   22.0427 H   0  0  0  0  0  0
  -28.1494  -28.5964   21.2734 H   0  0  0  0  0  0
  -25.8755  -25.7115   19.0285 H   0  0  0  0  0  0
  -24.0082  -27.2596   18.9368 H   0  0  0  0  0  0
  -23.8613  -30.5047   19.3775 H   0  0  0  0  0  0
  -22.8249  -29.1919   19.8347 H   0  0  0  0  0  0
  -25.1292  -36.1826   25.0801 H   0  0  0  0  0  0
  -21.0029  -28.3371   24.1313 H   0  0  0  0  0  0
  -20.5704  -26.2374   23.3671 H   0  0  0  0  0  0
  -21.6673  -26.7442   22.1197 H   0  0  0  0  0  0
  -19.6925  -25.6275   21.1298 H   0  0  0  0  0  0
  -19.6700  -27.3168   20.6743 H   0  0  0  0  0  0
  -17.4235  -26.6734   21.4015 H   0  0  0  0  0  0
  -18.0305  -26.0108   22.9027 H   0  0  0  0  0  0
  -19.7954  -30.7359   24.2171 H   0  0  0  0  0  0
  -17.5013  -31.6264   24.5190 H   0  0  0  0  0  0
  -15.5360  -30.2955   23.7694 H   0  0  0  0  0  0
  -15.8714  -28.0802   22.7090 H   0  0  0  0  0  0
  -24.5866  -30.7179   25.7633 H   0  0  0  0  0  0
  -24.8901  -32.3024   26.4631 H   0  0  0  0  0  0
  -25.7913  -30.9054   27.0190 H   0  0  0  0  0  0
  -26.3129  -29.6551   24.1435 H   0  0  0  0  0  0
  -27.3956  -29.7287   25.5122 H   0  0  0  0  0  0
  -27.9099  -30.4037   23.9886 H   0  0  0  0  0  0
  -27.2580  -33.3681   26.1961 H   0  0  0  0  0  0
  -28.3912  -32.6887   25.0363 H   0  0  0  0  0  0
  -28.0670  -31.8583   26.5505 H   0  0  0  0  0  0
  -28.2578  -38.0071   24.7530 H   0  0  0  0  0  0
  -28.1083  -36.2609   24.6256 H   0  0  0  0  0  0
  -27.2321  -37.1408   25.8880 H   0  0  0  0  0  0
  -20.9594  -29.8745   21.6675 H   0  0  0  0  0  0
  -26.0151  -38.2814   24.1402 H   0  0  0  0  0  0
  -28.1145  -20.3717   18.1961 H   0  0  0  0  0  0
  -29.6159  -19.3829   16.5283 H   0  0  0  0  0  0
  -34.9247  -20.8403   21.4767 H   0  0  0  0  0  0
  -34.5184  -21.0818   19.7812 H   0  0  0  0  0  0
  -35.6663  -19.8277   20.2392 H   0  0  0  0  0  0
  -29.5738  -21.0059   21.4686 H   0  0  0  0  0  0
  -27.8915  -20.8111   21.2079 H   0  0  0  0  0  0
  -32.6611  -19.8418   20.9219 H   0  0  0  0  0  0
  -33.7798  -18.6329   21.4931 H   0  0  0  0  0  0
  -28.2258  -22.5183   19.0467 H   0  0  0  0  0  0
  -29.7442  -22.8910   19.7494 H   0  0  0  0  0  0
  -34.2627  -17.8571   19.2241 H   0  0  0  0  0  0
  -33.3071  -19.1321   18.5046 H   0  0  0  0  0  0
  -28.2370  -24.2196   21.6367 H   0  0  0  0  0  0
  -26.9361  -24.0680   20.5430 H   0  0  0  0  0  0
  -28.7068  -16.3923   20.6668 H   0  0  0  0  0  0
  1 25  1  0  0  0
  1 30  2  0  0  0
  1 83  1  0  0  0
  2  3  1  0  0  0
  2 25  1  0  0  0
  2 85  1  0  0  0
  2 86  1  0  0  0
  3  4  1  0  0  0
  3 87  1  0  0  0
  3 88  1  0  0  0
  4  5  1  0  0  0
  4 89  1  0  0  0
  4 90  1  0  0  0
  5  6  1  0  0  0
  5 26  1  0  0  0
  5 91  1  0  0  0
  6 25  1  0  0  0
  6 92  1  0  0  0
  6 93  1  0  0  0
  7  8  2  0  0  0
  7 26  1  0  0  0
  7 29  1  0  0  0
  8  9  1  0  0  0
  8 22  1  0  0  0
  9 10  1  0  0  0
  9 27  2  0  0  0
 10 11  2  0  0  0
 10 15  1  0  0  0
 11 12  1  0  0  0
 11 94  1  0  0  0
 12 13  2  0  0  0
 12 95  1  0  0  0
 13 14  1  0  0  0
 13 31  1  0  0  0
 14 15  2  0  0  0
 14 96  1  0  0  0
 15 97  1  0  0  0
 16 17  2  0  0  0
 16 21  1  0  0  0
 16 31  1  0  0  0
 17 18  1  0  0  0
 17 98  1  0  0  0
 18 19  2  0  0  0
 18 99  1  0  0  0
 19 20  1  0  0  0
 19 24  1  0  0  0
 20 21  2  0  0  0
 20100  1  0  0  0
 21 23  1  0  0  0
 22 28  1  0  0  0
 22 32  2  0  0  0
 26 27  1  0  0  0
 28101  1  0  0  0
 28102  1  0  0  0
 29103  1  0  0  0
 29104  1  0  0  0
 33 34  1  0  0  0
 33 66  1  0  0  0
 33 70  2  0  0  0
 34 36  1  0  0  0
 34 59  1  0  0  0
 34105  1  0  0  0
 35 44  2  0  0  0
 35 45  1  0  0  0
 35 68  1  0  0  0
 36 56  1  0  0  0
 36106  1  0  0  0
 37 39  1  0  0  0
 37 47  1  0  0  0
 37 66  1  0  0  0
 37107  1  0  0  0
 38 43  2  0  0  0
 38 46  1  0  0  0
 38 47  1  0  0  0
 39 64  1  0  0  0
 39 67  2  0  0  0
 40 52  1  0  0  0
 40 53  2  0  0  0
 40 58  1  0  0  0
 41108  1  0  0  0
 41109  1  0  0  0
 41110  1  0  0  0
 41 48  1  0  0  0
 42 43  1  0  0  0
 42 66  1  0  0  0
 42111  1  0  0  0
 42112  1  0  0  0
 43 44  1  0  0  0
 44113  1  0  0  0
 45 46  2  0  0  0
 45114  1  0  0  0
 46115  1  0  0  0
 47116  1  0  0  0
 47117  1  0  0  0
 48 56  1  0  0  0
 48 65  1  0  0  0
 48118  1  0  0  0
 49 50  1  0  0  0
 49 53  1  0  0  0
 49 64  1  0  0  0
 49119  1  0  0  0
 50 51  1  0  0  0
 50120  1  0  0  0
 50121  1  0  0  0
 51 52  1  0  0  0
 51122  1  0  0  0
 51123  1  0  0  0
 52124  1  0  0  0
 52125  1  0  0  0
 53 54  1  0  0  0
 54 55  2  0  0  0
 54126  1  0  0  0
 55 57  1  0  0  0
 55127  1  0  0  0
 56 69  2  0  0  0
 57 58  2  0  0  0
 57128  1  0  0  0
 58129  1  0  0  0
 59 60  1  0  0  0
 59 61  1  0  0  0
 59 62  1  0  0  0
 60130  1  0  0  0
 60131  1  0  0  0
 60132  1  0  0  0
 61133  1  0  0  0
 61134  1  0  0  0
 61135  1  0  0  0
 62136  1  0  0  0
 62137  1  0  0  0
 62138  1  0  0  0
 63 65  1  0  0  0
 63139  1  0  0  0
 63140  1  0  0  0
 63141  1  0  0  0
 64142  1  0  0  0
 65143  1  0  0  0
 68 81  1  0  0  0
 71 72  2  0  0  0
 71 73  1  0  0  0
 71144  1  0  0  0
 72 82  1  0  0  0
 72145  1  0  0  0
 73 74  2  0  0  0
 73 77  1  0  0  0
 74 75  1  0  0  0
 74 83  1  0  0  0
 75 82  2  0  0  0
 75 84  1  0  0  0
 76 78  1  0  0  0
 76146  1  0  0  0
 76147  1  0  0  0
 76148  1  0  0  0
 77 79  1  0  0  0
 77149  1  0  0  0
 77150  1  0  0  0
 78 80  1  0  0  0
 78151  1  0  0  0
 78152  1  0  0  0
 79 81  1  0  0  0
 79153  1  0  0  0
 79154  1  0  0  0
 80 84  1  0  0  0
 80155  1  0  0  0
 80156  1  0  0  0
 81157  1  0  0  0
 81158  1  0  0  0
 83159  1  0  0  0
M  ISO  4   1 100  68 101  81 101  83 100
M  END
> <chiral flag>
0

> <version>
0

> <s_m_source_file>
/data/baiqing/PycharmProjects/Reinvent-master-3.2/result/LINK_invent/BTK/process_docking_weight1_custom_sum_contain_oxygen_bond_distance_aromatic_linkinvent_7_9_3/rearranged_h_0143.sdf

> <i_m_source_file_index>
75

> <r_mmod_Potential_Energy-OPLS-2005>
1376.60607910156

> <r_mmod_Stretch_Energy-OPLS-2005>
633.787475585938

> <r_mmod_Bend_Energy-OPLS-2005>
471.083099365234

> <r_mmod_Torsional_Energy-OPLS-2005>
460.199066162109

> <r_mmod_Improper_Torsional_Energy-OPLS-2005>
25.8288974761963

> <r_mmod_Van_der_Waal_Energy-OPLS-2005>
140.534408569336

> <r_mmod_Electrostatic_Energy-OPLS-2005>
-581.220336914062

> <r_mmod_Solvation_Energy-OPLS-2005>
-230.465515136719

> <b_mmod_Minimization_Converged-OPLS-2005>
0

> <r_mmod_RMS_Derivative-OPLS-2005>
4.452805519104

$$$$
77
                    3D
 Structure written by MMmdl.
169179  0  0  1  0            999 V2000
  -30.6919  -14.4595   20.5887 C   0  0  0  0  0  0
  -30.4251  -12.2993   19.4188 C   0  0  0  0  0  0
  -29.4966  -12.5038   18.2038 C   0  0  0  0  0  0
  -28.0167  -12.3622   18.6125 C   0  0  0  0  0  0
  -27.6620  -13.2022   19.8680 C   0  0  2  0  0  0
  -28.7023  -12.9837   20.9897 C   0  0  0  0  0  0
  -25.2606  -13.8148   20.5665 C   0  0  0  0  0  0
  -24.1853  -13.0433   20.9160 C   0  0  0  0  0  0
  -24.6401  -11.6900   20.8721 C   0  0  0  0  0  0
  -23.9064  -10.4289   21.0401 C   0  0  0  0  0  0
  -24.3621   -9.4204   21.9180 C   0  0  0  0  0  0
  -23.6293   -8.2240   22.0755 C   0  0  0  0  0  0
  -22.4274   -8.0277   21.3546 C   0  0  0  0  0  0
  -21.9911   -9.0251   20.4647 C   0  0  0  0  0  0
  -22.7236  -10.2130   20.3053 C   0  0  0  0  0  0
  -21.6853   -6.0732   22.5280 C   0  0  0  0  0  0
  -21.4012   -6.5637   23.8211 C   0  0  0  0  0  0
  -21.3662   -5.6792   24.9173 C   0  0  0  0  0  0
  -21.6047   -4.3055   24.7226 C   0  0  0  0  0  0
  -21.8823   -3.8146   23.4349 C   0  0  0  0  0  0
  -21.9192   -4.6960   22.3404 C   0  0  0  0  0  0
  -22.7876  -13.5232   21.1834 C   0  0  0  0  0  0
  -22.1662   -4.2146   21.0984 F   0  0  0  0  0  0
  -21.5630   -3.4542   25.7738 F   0  0  0  0  0  0
  -30.0346  -13.2779   20.4438 N   0  0  0  0  0  0
  -26.3033  -12.9308   20.3322 N   0  0  0  0  0  0
  -25.9320  -11.6476   20.5734 N   0  0  0  0  0  0
  -22.0520  -12.8224   22.0393 N   0  0  0  0  0  0
  -25.4341  -15.1867   20.4102 N   0  0  0  0  0  0
  -31.8197  -14.6347   20.1160 O   0  0  0  0  0  0
  -21.6638   -6.8875   21.4244 O   0  0  0  0  0  0
  -22.3557  -14.5532   20.6675 O   0  0  0  0  0  0
  -24.6124  -31.8691   23.2112 C   0  0  0  0  0  0
  -25.9025  -32.4830   23.8403 C   0  0  1  0  0  0
  -27.2397  -27.4543   20.0878 C   0  0  0  0  0  0
  -25.5889  -33.8628   24.2334 N   0  0  0  0  0  0
  -23.4007  -30.4913   21.5507 C   0  0  2  0  0  0
  -24.8493  -28.9563   20.1171 C   0  0  0  0  0  0
  -22.7398  -29.4660   22.4996 C   0  0  0  0  0  0
  -18.0269  -28.1374   22.8496 C   0  0  0  0  0  0
  -24.1487  -36.7320   23.2637 C   0  0  0  0  0  0
  -25.9275  -30.8364   21.3649 C   0  0  0  0  0  0
  -26.0062  -29.4693   20.7184 C   0  0  0  0  0  0
  -27.2032  -28.7189   20.7141 C   0  0  0  0  0  0
  -26.0668  -26.9443   19.4932 C   0  0  0  0  0  0
  -24.8721  -27.6894   19.5063 C   0  0  0  0  0  0
  -23.6102  -29.8217   20.1655 C   0  0  0  0  0  0
  -25.4106  -36.3118   24.0339 C   0  0  1  0  0  0
  -20.5857  -28.3659   23.1325 C   0  0  2  0  0  0
  -20.6758  -26.9397   22.5422 C   0  0  0  0  0  0
  -19.5739  -26.6385   21.5214 C   0  0  0  0  0  0
  -18.1917  -26.7922   22.1625 C   0  0  0  0  0  0
  -19.1518  -28.8833   23.2909 C   0  0  0  0  0  0
  -18.9446  -30.1440   23.8917 C   0  0  0  0  0  0
  -17.6450  -30.6584   24.0567 C   0  0  0  0  0  0
  -25.9030  -34.9482   23.5134 C   0  0  0  0  0  0
  -16.5341  -29.9088   23.6325 C   0  0  0  0  0  0
  -16.7259  -28.6504   23.0348 C   0  0  0  0  0  0
  -26.4465  -31.6604   25.0723 C   0  0  0  0  0  0
  -25.3738  -31.3700   26.1475 C   0  0  0  0  0  0
  -27.0292  -30.3049   24.6086 C   0  0  0  0  0  0
  -27.6046  -32.4319   25.7481 C   0  0  0  0  0  0
  -27.5584  -37.1810   24.8462 C   0  0  0  0  0  0
  -21.4127  -29.3028   22.3733 N   0  0  0  0  0  0
  -26.4294  -37.3800   23.9410 N   0  0  0  0  0  0
  -24.6648  -31.0799   22.1010 N   0  0  0  0  0  0
  -23.4173  -28.8207   23.3039 O   0  0  0  0  0  0
  -28.3981  -26.7140   20.0642 O   0  0  0  0  0  0
  -26.5596  -34.8930   22.4697 O   0  0  0  0  0  0
  -23.5319  -32.1437   23.7513 O   0  0  0  0  0  0
  -30.2025  -23.5831   16.6965 C   0  0  0  0  0  0
  -29.7515  -24.8525   17.0857 C   0  0  0  0  0  0
  -29.4463  -24.0457   19.3573 C   0  0  0  0  0  0
  -30.2833  -22.5195   17.6219 C   0  0  0  0  0  0
  -29.3727  -25.1014   18.4157 C   0  0  0  0  0  0
  -29.9008  -22.7529   18.9744 C   0  0  0  0  0  0
  -30.8763  -20.7875   15.6901 C   0  0  0  0  0  0
  -29.8866  -20.1238   16.6100 C   0  0  0  0  0  0
  -28.8357  -18.2240   19.4116 C   0  0  0  0  0  0
  -30.8145  -21.1883   17.1538 C   0  0  0  0  0  0
  -29.5641  -18.1682   20.7331 C   0  0  2  0  0  0
  -29.8604  -19.2852   19.7453 C   0  0  2  0  0  0
  -31.5706  -17.4645   22.0980 C   0  0  0  0  0  0
  -28.9507  -26.5279   18.7622 C   0  0  0  0  0  0
  -30.0544  -21.6633   20.0459 C   0  0  0  0  0  0
  -29.9539  -15.6654   21.2300 C   0  0  0  0  0  0
  -30.5967  -17.0661   20.9775 C   0  0  1  0  0  0
  -29.1867  -20.5395   19.8677 O   0  0  0  0  0  0
  -31.4694  -12.3984   19.1186 H   0  0  0  0  0  0
  -30.3243  -11.2867   19.8126 H   0  0  0  0  0  0
  -29.7369  -11.7843   17.4206 H   0  0  0  0  0  0
  -29.6652  -13.4925   17.7734 H   0  0  0  0  0  0
  -27.8245  -11.3062   18.8073 H   0  0  0  0  0  0
  -27.3686  -12.6393   17.7801 H   0  0  0  0  0  0
  -27.7028  -14.2471   19.5621 H   0  0  0  0  0  0
  -28.6727  -11.9502   21.3369 H   0  0  0  0  0  0
  -28.4671  -13.5913   21.8643 H   0  0  0  0  0  0
  -25.2775   -9.5670   22.4745 H   0  0  0  0  0  0
  -24.0000   -7.4633   22.7478 H   0  0  0  0  0  0
  -21.0838   -8.8773   19.8954 H   0  0  0  0  0  0
  -22.3704  -10.9669   19.6157 H   0  0  0  0  0  0
  -21.2005   -7.6144   23.9710 H   0  0  0  0  0  0
  -21.1482   -6.0524   25.9075 H   0  0  0  0  0  0
  -22.0602   -2.7607   23.2852 H   0  0  0  0  0  0
  -22.4139  -11.9885   22.4782 H   0  0  0  0  0  0
  -21.1137  -13.1243   22.2600 H   0  0  0  0  0  0
  -24.6718  -15.8449   20.5263 H   0  0  0  0  0  0
  -26.2945  -15.6274   20.1105 H   0  0  0  0  0  0
  -26.7098  -32.5555   23.1173 H   0  0  0  0  0  0
  -25.0039  -33.9795   25.0479 H   0  0  0  0  0  0
  -22.6887  -31.3074   21.4110 H   0  0  0  0  0  0
  -23.3747  -35.9655   23.3305 H   0  0  0  0  0  0
  -24.3582  -36.8928   22.2050 H   0  0  0  0  0  0
  -23.7240  -37.6529   23.6645 H   0  0  0  0  0  0
  -26.0365  -31.6001   20.5935 H   0  0  0  0  0  0
  -26.8166  -30.8937   21.9808 H   0  0  0  0  0  0
  -28.0981  -29.1109   21.1769 H   0  0  0  0  0  0
  -26.0802  -25.9711   19.0220 H   0  0  0  0  0  0
  -23.9818  -27.2859   19.0434 H   0  0  0  0  0  0
  -23.7165  -30.5958   19.4046 H   0  0  0  0  0  0
  -22.7353  -29.2394   19.8713 H   0  0  0  0  0  0
  -25.1281  -36.1987   25.0832 H   0  0  0  0  0  0
  -20.9950  -28.3222   24.1445 H   0  0  0  0  0  0
  -20.5661  -26.2264   23.3604 H   0  0  0  0  0  0
  -21.6630  -26.7442   22.1214 H   0  0  0  0  0  0
  -19.6900  -25.6302   21.1230 H   0  0  0  0  0  0
  -19.6681  -27.3208   20.6754 H   0  0  0  0  0  0
  -17.4188  -26.6676   21.4025 H   0  0  0  0  0  0
  -18.0315  -26.0059   22.9015 H   0  0  0  0  0  0
  -19.7922  -30.7249   24.2296 H   0  0  0  0  0  0
  -17.5006  -31.6266   24.5165 H   0  0  0  0  0  0
  -15.5342  -30.2997   23.7636 H   0  0  0  0  0  0
  -15.8658  -28.0830   22.7050 H   0  0  0  0  0  0
  -24.5908  -30.7052   25.7811 H   0  0  0  0  0  0
  -24.8933  -32.2853   26.4944 H   0  0  0  0  0  0
  -25.8100  -30.8854   27.0220 H   0  0  0  0  0  0
  -26.2828  -29.6814   24.1149 H   0  0  0  0  0  0
  -27.4078  -29.7280   25.4536 H   0  0  0  0  0  0
  -27.8658  -30.4373   23.9220 H   0  0  0  0  0  0
  -27.2669  -33.3606   26.2092 H   0  0  0  0  0  0
  -28.3836  -32.6897   25.0294 H   0  0  0  0  0  0
  -28.0735  -31.8421   26.5368 H   0  0  0  0  0  0
  -28.2600  -38.0111   24.7524 H   0  0  0  0  0  0
  -28.1084  -36.2644   24.6268 H   0  0  0  0  0  0
  -27.2305  -37.1439   25.8866 H   0  0  0  0  0  0
  -20.9280  -29.8752   21.6961 H   0  0  0  0  0  0
  -26.0188  -38.2879   24.1417 H   0  0  0  0  0  0
  -30.5081  -23.4509   15.6695 H   0  0  0  0  0  0
  -29.7145  -25.6492   16.3553 H   0  0  0  0  0  0
  -29.1754  -24.2371   20.3863 H   0  0  0  0  0  0
  -30.4489  -21.4246   14.9197 H   0  0  0  0  0  0
  -31.7225  -20.1828   15.3691 H   0  0  0  0  0  0
  -30.0865  -19.0821   16.8515 H   0  0  0  0  0  0
  -28.8362  -20.3828   16.4914 H   0  0  0  0  0  0
  -27.7836  -18.5017   19.4345 H   0  0  0  0  0  0
  -29.1034  -17.4906   18.6529 H   0  0  0  0  0  0
  -31.6620  -20.8790   17.7625 H   0  0  0  0  0  0
  -28.9795  -18.4384   21.6112 H   0  0  0  0  0  0
  -30.7912  -19.2833   19.1822 H   0  0  0  0  0  0
  -32.0687  -18.4074   21.8687 H   0  0  0  0  0  0
  -32.3452  -16.7094   22.2372 H   0  0  0  0  0  0
  -31.0515  -17.5880   23.0496 H   0  0  0  0  0  0
  -28.2811  -26.8815   17.9748 H   0  0  0  0  0  0
  -29.8375  -27.1592   18.6958 H   0  0  0  0  0  0
  -29.8338  -22.0878   21.0261 H   0  0  0  0  0  0
  -31.1042  -21.3679   20.0941 H   0  0  0  0  0  0
  -28.9466  -15.6859   20.8164 H   0  0  0  0  0  0
  -29.8353  -15.4869   22.2993 H   0  0  0  0  0  0
  -31.1822  -17.0157   20.0582 H   0  0  0  0  0  0
  1 25  1  0  0  0
  1 30  2  0  0  0
  1 86  1  0  0  0
  2  3  1  0  0  0
  2 25  1  0  0  0
  2 89  1  0  0  0
  2 90  1  0  0  0
  3  4  1  0  0  0
  3 91  1  0  0  0
  3 92  1  0  0  0
  4  5  1  0  0  0
  4 93  1  0  0  0
  4 94  1  0  0  0
  5  6  1  0  0  0
  5 26  1  0  0  0
  5 95  1  0  0  0
  6 25  1  0  0  0
  6 96  1  0  0  0
  6 97  1  0  0  0
  7  8  2  0  0  0
  7 26  1  0  0  0
  7 29  1  0  0  0
  8  9  1  0  0  0
  8 22  1  0  0  0
  9 10  1  0  0  0
  9 27  2  0  0  0
 10 11  2  0  0  0
 10 15  1  0  0  0
 11 12  1  0  0  0
 11 98  1  0  0  0
 12 13  2  0  0  0
 12 99  1  0  0  0
 13 14  1  0  0  0
 13 31  1  0  0  0
 14 15  2  0  0  0
 14100  1  0  0  0
 15101  1  0  0  0
 16 17  2  0  0  0
 16 21  1  0  0  0
 16 31  1  0  0  0
 17 18  1  0  0  0
 17102  1  0  0  0
 18 19  2  0  0  0
 18103  1  0  0  0
 19 20  1  0  0  0
 19 24  1  0  0  0
 20 21  2  0  0  0
 20104  1  0  0  0
 21 23  1  0  0  0
 22 28  1  0  0  0
 22 32  2  0  0  0
 26 27  1  0  0  0
 28105  1  0  0  0
 28106  1  0  0  0
 29107  1  0  0  0
 29108  1  0  0  0
 33 34  1  0  0  0
 33 66  1  0  0  0
 33 70  2  0  0  0
 34 36  1  0  0  0
 34 59  1  0  0  0
 34109  1  0  0  0
 35 44  2  0  0  0
 35 45  1  0  0  0
 35 68  1  0  0  0
 36 56  1  0  0  0
 36110  1  0  0  0
 37 39  1  0  0  0
 37 47  1  0  0  0
 37 66  1  0  0  0
 37111  1  0  0  0
 38 43  2  0  0  0
 38 46  1  0  0  0
 38 47  1  0  0  0
 39 64  1  0  0  0
 39 67  2  0  0  0
 40 52  1  0  0  0
 40 53  2  0  0  0
 40 58  1  0  0  0
 41112  1  0  0  0
 41113  1  0  0  0
 41114  1  0  0  0
 41 48  1  0  0  0
 42 43  1  0  0  0
 42 66  1  0  0  0
 42115  1  0  0  0
 42116  1  0  0  0
 43 44  1  0  0  0
 44117  1  0  0  0
 45 46  2  0  0  0
 45118  1  0  0  0
 46119  1  0  0  0
 47120  1  0  0  0
 47121  1  0  0  0
 48 56  1  0  0  0
 48 65  1  0  0  0
 48122  1  0  0  0
 49 50  1  0  0  0
 49 53  1  0  0  0
 49 64  1  0  0  0
 49123  1  0  0  0
 50 51  1  0  0  0
 50124  1  0  0  0
 50125  1  0  0  0
 51 52  1  0  0  0
 51126  1  0  0  0
 51127  1  0  0  0
 52128  1  0  0  0
 52129  1  0  0  0
 53 54  1  0  0  0
 54 55  2  0  0  0
 54130  1  0  0  0
 55 57  1  0  0  0
 55131  1  0  0  0
 56 69  2  0  0  0
 57 58  2  0  0  0
 57132  1  0  0  0
 58133  1  0  0  0
 59 60  1  0  0  0
 59 61  1  0  0  0
 59 62  1  0  0  0
 60134  1  0  0  0
 60135  1  0  0  0
 60136  1  0  0  0
 61137  1  0  0  0
 61138  1  0  0  0
 61139  1  0  0  0
 62140  1  0  0  0
 62141  1  0  0  0
 62142  1  0  0  0
 63 65  1  0  0  0
 63143  1  0  0  0
 63144  1  0  0  0
 63145  1  0  0  0
 64146  1  0  0  0
 65147  1  0  0  0
 68 84  1  0  0  0
 71 72  2  0  0  0
 71 74  1  0  0  0
 71148  1  0  0  0
 72 75  1  0  0  0
 72149  1  0  0  0
 73 75  2  0  0  0
 73 76  1  0  0  0
 73150  1  0  0  0
 74 76  2  0  0  0
 74 80  1  0  0  0
 75 84  1  0  0  0
 76 85  1  0  0  0
 77 78  1  0  0  0
 77 80  1  0  0  0
 77151  1  0  0  0
 77152  1  0  0  0
 78 80  1  0  0  0
 78153  1  0  0  0
 78154  1  0  0  0
 79 82  1  0  0  0
 79155  1  0  0  0
 79156  1  0  0  0
 79 81  1  0  0  0
 80157  1  0  0  0
 81 82  1  0  0  0
 81 87  1  0  0  0
 81158  1  0  0  0
 82 88  1  0  0  0
 82159  1  0  0  0
 83160  1  0  0  0
 83161  1  0  0  0
 83162  1  0  0  0
 83 87  1  0  0  0
 84163  1  0  0  0
 84164  1  0  0  0
 85 88  1  0  0  0
 85165  1  0  0  0
 85166  1  0  0  0
 86 87  1  0  0  0
 86167  1  0  0  0
 86168  1  0  0  0
 87169  1  0  0  0
M  ISO  4   1 100  68 101  84 101  86 100
M  END
> <chiral flag>
0

> <version>
0

> <s_m_source_file>
/data/baiqing/PycharmProjects/Reinvent-master-3.2/result/LINK_invent/BTK/process_docking_weight1_custom_sum_contain_oxygen_bond_distance_aromatic_linkinvent_7_9_3/rearranged_h_0143.sdf

> <i_m_source_file_index>
76

> <r_mmod_Potential_Energy-OPLS-2005>
101.387001037598

> <r_mmod_Stretch_Energy-OPLS-2005>
38.0579566955566

> <r_mmod_Bend_Energy-OPLS-2005>
102.811317443848

> <r_mmod_Torsional_Energy-OPLS-2005>
294.801544189453

> <r_mmod_Improper_Torsional_Energy-OPLS-2005>
3.20418477058411

> <r_mmod_Van_der_Waal_Energy-OPLS-2005>
145.847808837891

> <r_mmod_Electrostatic_Energy-OPLS-2005>
-301.3369140625

> <r_mmod_Solvation_Energy-OPLS-2005>
-192.625900268555

> <b_mmod_Minimization_Converged-OPLS-2005>
0

> <r_mmod_RMS_Derivative-OPLS-2005>
0.761558055877686

$$$$
78
                    3D
 Structure written by MMmdl.
163172  0  0  1  0            999 V2000
  -30.7668  -14.3713   20.6519 C   0  0  0  0  0  0
  -30.4079  -12.2800   19.3907 C   0  0  0  0  0  0
  -29.4764  -12.5187   18.1878 C   0  0  0  0  0  0
  -28.0026  -12.3797   18.6098 C   0  0  0  0  0  0
  -27.6644  -13.2049   19.8793 C   0  0  2  0  0  0
  -28.7058  -12.9507   20.9913 C   0  0  0  0  0  0
  -25.2594  -13.8167   20.5701 C   0  0  0  0  0  0
  -24.1842  -13.0445   20.9179 C   0  0  0  0  0  0
  -24.6383  -11.6905   20.8729 C   0  0  0  0  0  0
  -23.9052  -10.4297   21.0406 C   0  0  0  0  0  0
  -24.3596   -9.4215   21.9194 C   0  0  0  0  0  0
  -23.6278   -8.2247   22.0760 C   0  0  0  0  0  0
  -22.4267   -8.0279   21.3539 C   0  0  0  0  0  0
  -21.9905   -9.0250   20.4644 C   0  0  0  0  0  0
  -22.7221  -10.2137   20.3056 C   0  0  0  0  0  0
  -21.6852   -6.0728   22.5270 C   0  0  0  0  0  0
  -21.4014   -6.5633   23.8200 C   0  0  0  0  0  0
  -21.3662   -5.6788   24.9167 C   0  0  0  0  0  0
  -21.6046   -4.3052   24.7223 C   0  0  0  0  0  0
  -21.8818   -3.8143   23.4342 C   0  0  0  0  0  0
  -21.9190   -4.6956   22.3395 C   0  0  0  0  0  0
  -22.7861  -13.5242   21.1853 C   0  0  0  0  0  0
  -22.1656   -4.2147   21.0973 F   0  0  0  0  0  0
  -21.5639   -3.4535   25.7737 F   0  0  0  0  0  0
  -30.0458  -13.2386   20.4450 N   0  0  0  0  0  0
  -26.3037  -12.9343   20.3399 N   0  0  0  0  0  0
  -25.9312  -11.6502   20.5765 N   0  0  0  0  0  0
  -22.0508  -12.8224   22.0401 N   0  0  0  0  0  0
  -25.4350  -15.1887   20.4109 N   0  0  0  0  0  0
  -31.8168  -14.6241   20.0531 O   0  0  0  0  0  0
  -21.6631   -6.8875   21.4235 O   0  0  0  0  0  0
  -22.3556  -14.5562   20.6716 O   0  0  0  0  0  0
  -24.6145  -31.8654   23.2130 C   0  0  0  0  0  0
  -25.9039  -32.4806   23.8420 C   0  0  1  0  0  0
  -27.2435  -27.4453   20.0753 C   0  0  0  0  0  0
  -25.5894  -33.8607   24.2343 N   0  0  0  0  0  0
  -23.4009  -30.4889   21.5533 C   0  0  2  0  0  0
  -24.8469  -28.9507   20.1171 C   0  0  0  0  0  0
  -22.7397  -29.4636   22.5012 C   0  0  0  0  0  0
  -18.0263  -28.1375   22.8511 C   0  0  0  0  0  0
  -24.1476  -36.7322   23.2651 C   0  0  0  0  0  0
  -25.9298  -30.8271   21.3672 C   0  0  0  0  0  0
  -26.0038  -29.4628   20.7150 C   0  0  0  0  0  0
  -27.2004  -28.7135   20.6972 C   0  0  0  0  0  0
  -26.0618  -26.9360   19.4857 C   0  0  0  0  0  0
  -24.8683  -27.6846   19.5059 C   0  0  0  0  0  0
  -23.6084  -29.8168   20.1699 C   0  0  0  0  0  0
  -25.4095  -36.3104   24.0342 C   0  0  1  0  0  0
  -20.5842  -28.3656   23.1340 C   0  0  2  0  0  0
  -20.6742  -26.9400   22.5433 C   0  0  0  0  0  0
  -19.5715  -26.6383   21.5227 C   0  0  0  0  0  0
  -18.1891  -26.7932   22.1626 C   0  0  0  0  0  0
  -19.1515  -28.8837   23.2907 C   0  0  0  0  0  0
  -18.9447  -30.1459   23.8887 C   0  0  0  0  0  0
  -17.6448  -30.6591   24.0568 C   0  0  0  0  0  0
  -25.9020  -34.9464   23.5138 C   0  0  0  0  0  0
  -16.5335  -29.9091   23.6338 C   0  0  0  0  0  0
  -16.7255  -28.6510   23.0356 C   0  0  0  0  0  0
  -26.4486  -31.6601   25.0753 C   0  0  0  0  0  0
  -25.3773  -31.3620   26.1513 C   0  0  0  0  0  0
  -27.0386  -30.3058   24.6145 C   0  0  0  0  0  0
  -27.6058  -32.4349   25.7506 C   0  0  0  0  0  0
  -27.5578  -37.1801   24.8465 C   0  0  0  0  0  0
  -21.4121  -29.3026   22.3758 N   0  0  0  0  0  0
  -26.4276  -37.3798   23.9435 N   0  0  0  0  0  0
  -24.6662  -31.0757   22.1026 N   0  0  0  0  0  0
  -23.4182  -28.8168   23.3037 O   0  0  0  0  0  0
  -28.4486  -26.7737   20.0745 O   0  0  0  0  0  0
  -26.5578  -34.8917   22.4697 O   0  0  0  0  0  0
  -23.5341  -32.1421   23.7521 O   0  0  0  0  0  0
  -31.4547  -19.2821   19.5030 C   0  0  0  0  0  0
  -31.6485  -18.1253   20.2840 C   0  0  0  0  0  0
  -29.1934  -19.4749   20.3551 C   0  0  0  0  0  0
  -30.2302  -19.9834   19.5393 C   0  0  0  0  0  0
  -30.6236  -17.6456   21.1257 C   0  0  0  0  0  0
  -29.3781  -18.3195   21.1454 C   0  0  0  0  0  0
  -28.7401  -21.9354   18.5131 C   0  0  0  0  0  0
  -30.0860  -21.2683   18.7557 C   0  0  1  0  0  0
  -29.7335  -22.5583   19.4695 C   0  0  1  0  0  0
  -28.2391  -17.8519   22.0337 C   0  0  0  0  0  0
  -30.9060  -16.4405   22.0201 C   0  0  0  0  0  0
  -30.0189  -25.0318   19.6306 C   0  0  0  0  0  0
  -28.5738  -25.5179   19.4012 C   0  0  0  0  0  0
  -30.2710  -15.2065   21.5684 N   0  0  0  0  0  0
  -30.3746  -23.7752   18.9231 N   0  3  0  0  0  0
  -31.4526  -12.3636   19.0857 H   0  0  0  0  0  0
  -30.2897  -11.2618   19.7637 H   0  0  0  0  0  0
  -29.7016  -11.8110   17.3890 H   0  0  0  0  0  0
  -29.6519  -13.5143   17.7763 H   0  0  0  0  0  0
  -27.8079  -11.3227   18.7932 H   0  0  0  0  0  0
  -27.3449  -12.6706   17.7900 H   0  0  0  0  0  0
  -27.7218  -14.2581   19.6035 H   0  0  0  0  0  0
  -28.6688  -11.9071   21.3086 H   0  0  0  0  0  0
  -28.4622  -13.5284   21.8829 H   0  0  0  0  0  0
  -25.2738   -9.5695   22.4775 H   0  0  0  0  0  0
  -23.9981   -7.4651   22.7488 H   0  0  0  0  0  0
  -21.0842   -8.8767   19.8951 H   0  0  0  0  0  0
  -22.3683  -10.9671   19.6166 H   0  0  0  0  0  0
  -21.2001   -7.6143   23.9708 H   0  0  0  0  0  0
  -21.1496   -6.0518   25.9071 H   0  0  0  0  0  0
  -22.0597   -2.7604   23.2842 H   0  0  0  0  0  0
  -22.4096  -11.9839   22.4729 H   0  0  0  0  0  0
  -21.1145  -13.1273   22.2654 H   0  0  0  0  0  0
  -24.6751  -15.8498   20.5234 H   0  0  0  0  0  0
  -26.2930  -15.6217   20.0938 H   0  0  0  0  0  0
  -26.7101  -32.5519   23.1185 H   0  0  0  0  0  0
  -25.0045  -33.9771   25.0486 H   0  0  0  0  0  0
  -22.6889  -31.3049   21.4134 H   0  0  0  0  0  0
  -23.3752  -35.9637   23.3256 H   0  0  0  0  0  0
  -24.3571  -36.9026   22.2077 H   0  0  0  0  0  0
  -23.7193  -37.6488   23.6728 H   0  0  0  0  0  0
  -26.0424  -31.5879   20.5943 H   0  0  0  0  0  0
  -26.8199  -30.8819   21.9840 H   0  0  0  0  0  0
  -28.0975  -29.1030   21.1584 H   0  0  0  0  0  0
  -26.0390  -25.9698   19.0035 H   0  0  0  0  0  0
  -23.9753  -27.2843   19.0446 H   0  0  0  0  0  0
  -23.7145  -30.5879   19.4055 H   0  0  0  0  0  0
  -22.7314  -29.2352   19.8813 H   0  0  0  0  0  0
  -25.1251  -36.1960   25.0826 H   0  0  0  0  0  0
  -20.9931  -28.3242   24.1458 H   0  0  0  0  0  0
  -20.5662  -26.2259   23.3602 H   0  0  0  0  0  0
  -21.6608  -26.7441   22.1221 H   0  0  0  0  0  0
  -19.6866  -25.6308   21.1226 H   0  0  0  0  0  0
  -19.6648  -27.3208   20.6764 H   0  0  0  0  0  0
  -17.4169  -26.6717   21.4022 H   0  0  0  0  0  0
  -18.0239  -26.0069   22.8998 H   0  0  0  0  0  0
  -19.7922  -30.7287   24.2228 H   0  0  0  0  0  0
  -17.5004  -31.6260   24.5217 H   0  0  0  0  0  0
  -15.5339  -30.2983   23.7693 H   0  0  0  0  0  0
  -15.8647  -28.0847   22.7049 H   0  0  0  0  0  0
  -24.5985  -30.6918   25.7852 H   0  0  0  0  0  0
  -24.8905  -32.2718   26.5021 H   0  0  0  0  0  0
  -25.8176  -30.8770   27.0236 H   0  0  0  0  0  0
  -26.2943  -29.6689   24.1339 H   0  0  0  0  0  0
  -27.4340  -29.7401   25.4599 H   0  0  0  0  0  0
  -27.8682  -30.4419   23.9198 H   0  0  0  0  0  0
  -27.2716  -33.3696   26.2014 H   0  0  0  0  0  0
  -28.3902  -32.6822   25.0345 H   0  0  0  0  0  0
  -28.0682  -31.8507   26.5474 H   0  0  0  0  0  0
  -28.2552  -38.0144   24.7600 H   0  0  0  0  0  0
  -28.1130  -36.2678   24.6204 H   0  0  0  0  0  0
  -27.2297  -37.1350   25.8867 H   0  0  0  0  0  0
  -20.9275  -29.8791   21.7020 H   0  0  0  0  0  0
  -26.0155  -38.2865   24.1501 H   0  0  0  0  0  0
  -32.2697  -19.6425   18.8892 H   0  0  0  0  0  0
  -32.6025  -17.6164   20.2530 H   0  0  0  0  0  0
  -28.2456  -19.9881   20.4079 H   0  0  0  0  0  0
  -27.8413  -21.4950   18.9340 H   0  0  0  0  0  0
  -28.5848  -22.4318   17.5563 H   0  0  0  0  0  0
  -30.7980  -21.3038   17.9312 H   0  0  0  0  0  0
  -29.5952  -22.5261   20.5490 H   0  0  0  0  0  0
  -27.3308  -18.4246   21.8447 H   0  0  0  0  0  0
  -28.4996  -17.9783   23.0853 H   0  0  0  0  0  0
  -28.0047  -16.8023   21.8554 H   0  0  0  0  0  0
  -30.5634  -16.6560   23.0324 H   0  0  0  0  0  0
  -31.9843  -16.2912   22.1112 H   0  0  0  0  0  0
  -30.1941  -24.9091   20.7000 H   0  0  0  0  0  0
  -30.7082  -25.8068   19.2988 H   0  0  0  0  0  0
  -27.8645  -24.7919   19.8012 H   0  0  0  0  0  0
  -28.3737  -25.6405   18.3362 H   0  0  0  0  0  0
  -29.4087  -14.9349   22.0147 H   0  0  0  0  0  0
  -30.1954  -23.8606   17.9345 H   0  0  0  0  0  0
  -31.3720  -23.6558   19.0198 H   0  0  0  0  0  0
  1 25  1  0  0  0
  1 30  2  0  0  0
  1 84  1  0  0  0
  2  3  1  0  0  0
  2 25  1  0  0  0
  2 86  1  0  0  0
  2 87  1  0  0  0
  3  4  1  0  0  0
  3 88  1  0  0  0
  3 89  1  0  0  0
  4  5  1  0  0  0
  4 90  1  0  0  0
  4 91  1  0  0  0
  5  6  1  0  0  0
  5 26  1  0  0  0
  5 92  1  0  0  0
  6 25  1  0  0  0
  6 93  1  0  0  0
  6 94  1  0  0  0
  7  8  2  0  0  0
  7 26  1  0  0  0
  7 29  1  0  0  0
  8  9  1  0  0  0
  8 22  1  0  0  0
  9 10  1  0  0  0
  9 27  2  0  0  0
 10 11  2  0  0  0
 10 15  1  0  0  0
 11 12  1  0  0  0
 11 95  1  0  0  0
 12 13  2  0  0  0
 12 96  1  0  0  0
 13 14  1  0  0  0
 13 31  1  0  0  0
 14 15  2  0  0  0
 14 97  1  0  0  0
 15 98  1  0  0  0
 16 17  2  0  0  0
 16 21  1  0  0  0
 16 31  1  0  0  0
 17 18  1  0  0  0
 17 99  1  0  0  0
 18 19  2  0  0  0
 18100  1  0  0  0
 19 20  1  0  0  0
 19 24  1  0  0  0
 20 21  2  0  0  0
 20101  1  0  0  0
 21 23  1  0  0  0
 22 28  1  0  0  0
 22 32  2  0  0  0
 26 27  1  0  0  0
 28102  1  0  0  0
 28103  1  0  0  0
 29104  1  0  0  0
 29105  1  0  0  0
 33 34  1  0  0  0
 33 66  1  0  0  0
 33 70  2  0  0  0
 34 36  1  0  0  0
 34 59  1  0  0  0
 34106  1  0  0  0
 35 44  2  0  0  0
 35 45  1  0  0  0
 35 68  1  0  0  0
 36 56  1  0  0  0
 36107  1  0  0  0
 37 39  1  0  0  0
 37 47  1  0  0  0
 37 66  1  0  0  0
 37108  1  0  0  0
 38 43  2  0  0  0
 38 46  1  0  0  0
 38 47  1  0  0  0
 39 64  1  0  0  0
 39 67  2  0  0  0
 40 52  1  0  0  0
 40 53  2  0  0  0
 40 58  1  0  0  0
 41109  1  0  0  0
 41110  1  0  0  0
 41111  1  0  0  0
 41 48  1  0  0  0
 42 43  1  0  0  0
 42 66  1  0  0  0
 42112  1  0  0  0
 42113  1  0  0  0
 43 44  1  0  0  0
 44114  1  0  0  0
 45 46  2  0  0  0
 45115  1  0  0  0
 46116  1  0  0  0
 47117  1  0  0  0
 47118  1  0  0  0
 48 56  1  0  0  0
 48 65  1  0  0  0
 48119  1  0  0  0
 49 50  1  0  0  0
 49 53  1  0  0  0
 49 64  1  0  0  0
 49120  1  0  0  0
 50 51  1  0  0  0
 50121  1  0  0  0
 50122  1  0  0  0
 51 52  1  0  0  0
 51123  1  0  0  0
 51124  1  0  0  0
 52125  1  0  0  0
 52126  1  0  0  0
 53 54  1  0  0  0
 54 55  2  0  0  0
 54127  1  0  0  0
 55 57  1  0  0  0
 55128  1  0  0  0
 56 69  2  0  0  0
 57 58  2  0  0  0
 57129  1  0  0  0
 58130  1  0  0  0
 59 60  1  0  0  0
 59 61  1  0  0  0
 59 62  1  0  0  0
 60131  1  0  0  0
 60132  1  0  0  0
 60133  1  0  0  0
 61134  1  0  0  0
 61135  1  0  0  0
 61136  1  0  0  0
 62137  1  0  0  0
 62138  1  0  0  0
 62139  1  0  0  0
 63 65  1  0  0  0
 63140  1  0  0  0
 63141  1  0  0  0
 63142  1  0  0  0
 64143  1  0  0  0
 65144  1  0  0  0
 68 83  1  0  0  0
 71 72  2  0  0  0
 71 74  1  0  0  0
 71145  1  0  0  0
 72 75  1  0  0  0
 72146  1  0  0  0
 73 74  2  0  0  0
 73 76  1  0  0  0
 73147  1  0  0  0
 74 78  1  0  0  0
 75 76  2  0  0  0
 75 81  1  0  0  0
 76 80  1  0  0  0
 77 78  1  0  0  0
 77 79  1  0  0  0
 77148  1  0  0  0
 77149  1  0  0  0
 78 79  1  0  0  0
 78150  1  0  0  0
 79 85  1  0  0  0
 79151  1  0  0  0
 80152  1  0  0  0
 80153  1  0  0  0
 80154  1  0  0  0
 81 84  1  0  0  0
 81155  1  0  0  0
 81156  1  0  0  0
 82 83  1  0  0  0
 82 85  1  0  0  0
 82157  1  0  0  0
 82158  1  0  0  0
 83159  1  0  0  0
 83160  1  0  0  0
 84161  1  0  0  0
 85162  1  0  0  0
 85163  1  0  0  0
M  CHG  1  85   1
M  ISO  4   1 100  68 101  83 101  84 100
M  END
> <chiral flag>
0

> <version>
0

> <s_m_source_file>
/data/baiqing/PycharmProjects/Reinvent-master-3.2/result/LINK_invent/BTK/process_docking_weight1_custom_sum_contain_oxygen_bond_distance_aromatic_linkinvent_7_9_3/rearranged_h_0143.sdf

> <i_m_source_file_index>
77

> <r_mmod_Potential_Energy-OPLS-2005>
-267.581329345703

> <r_mmod_Stretch_Energy-OPLS-2005>
33.8800354003906

> <r_mmod_Bend_Energy-OPLS-2005>
101.217330932617

> <r_mmod_Torsional_Energy-OPLS-2005>
235.6943359375

> <r_mmod_Improper_Torsional_Energy-OPLS-2005>
1.83767771720886

> <r_mmod_Van_der_Waal_Energy-OPLS-2005>
149.135131835938

> <r_mmod_Electrostatic_Energy-OPLS-2005>
-331.017150878906

> <r_mmod_Solvation_Energy-OPLS-2005>
-466.724365234375

> <b_mmod_Minimization_Converged-OPLS-2005>
0

> <r_mmod_RMS_Derivative-OPLS-2005>
2.48117303848267

$$$$
79
                    3D
 Structure written by MMmdl.
159168  0  0  1  0            999 V2000
  -30.6361  -14.5613   20.5188 C   0  0  0  0  0  0
  -30.4394  -12.3447   19.4406 C   0  0  0  0  0  0
  -29.5068  -12.5052   18.2188 C   0  0  0  0  0  0
  -28.0274  -12.3524   18.6281 C   0  0  0  0  0  0
  -27.6610  -13.2045   19.8720 C   0  0  2  0  0  0
  -28.7045  -13.0123   20.9981 C   0  0  0  0  0  0
  -25.2597  -13.8148   20.5674 C   0  0  0  0  0  0
  -24.1846  -13.0433   20.9178 C   0  0  0  0  0  0
  -24.6395  -11.6897   20.8735 C   0  0  0  0  0  0
  -23.9057  -10.4289   21.0406 C   0  0  0  0  0  0
  -24.3612   -9.4206   21.9183 C   0  0  0  0  0  0
  -23.6289   -8.2242   22.0755 C   0  0  0  0  0  0
  -22.4271   -8.0280   21.3545 C   0  0  0  0  0  0
  -21.9904   -9.0253   20.4647 C   0  0  0  0  0  0
  -22.7232  -10.2132   20.3055 C   0  0  0  0  0  0
  -21.6853   -6.0734   22.5279 C   0  0  0  0  0  0
  -21.4013   -6.5638   23.8212 C   0  0  0  0  0  0
  -21.3660   -5.6791   24.9174 C   0  0  0  0  0  0
  -21.6045   -4.3055   24.7225 C   0  0  0  0  0  0
  -21.8820   -3.8146   23.4347 C   0  0  0  0  0  0
  -21.9193   -4.6962   22.3403 C   0  0  0  0  0  0
  -22.7870  -13.5237   21.1843 C   0  0  0  0  0  0
  -22.1662   -4.2148   21.0980 F   0  0  0  0  0  0
  -21.5629   -3.4539   25.7738 F   0  0  0  0  0  0
  -30.0309  -13.3399   20.4467 N   0  0  0  0  0  0
  -26.3024  -12.9308   20.3343 N   0  0  0  0  0  0
  -25.9321  -11.6474   20.5759 N   0  0  0  0  0  0
  -22.0507  -12.8234   22.0400 N   0  0  0  0  0  0
  -25.4327  -15.1866   20.4078 N   0  0  0  0  0  0
  -31.7812  -14.7616   20.1054 O   0  0  0  0  0  0
  -21.6638   -6.8877   21.4241 O   0  0  0  0  0  0
  -22.3560  -14.5546   20.6692 O   0  0  0  0  0  0
  -24.6208  -31.8641   23.2067 C   0  0  0  0  0  0
  -25.9078  -32.4802   23.8378 C   0  0  1  0  0  0
  -27.2300  -27.3754   20.1019 C   0  0  0  0  0  0
  -25.5911  -33.8601   24.2304 N   0  0  0  0  0  0
  -23.4113  -30.4889   21.5487 C   0  0  2  0  0  0
  -24.8565  -28.9512   20.1127 C   0  0  0  0  0  0
  -22.7443  -29.4645   22.4963 C   0  0  0  0  0  0
  -18.0278  -28.1379   22.8488 C   0  0  0  0  0  0
  -24.1487  -36.7308   23.2639 C   0  0  0  0  0  0
  -25.9473  -30.8122   21.3689 C   0  0  0  0  0  0
  -26.0227  -29.4441   20.7111 C   0  0  0  0  0  0
  -27.2118  -28.6668   20.6976 C   0  0  0  0  0  0
  -26.0388  -26.9196   19.4875 C   0  0  0  0  0  0
  -24.8631  -27.6913   19.4954 C   0  0  0  0  0  0
  -23.6220  -29.8244   20.1632 C   0  0  0  0  0  0
  -25.4110  -36.3101   24.0333 C   0  0  1  0  0  0
  -20.5873  -28.3675   23.1297 C   0  0  2  0  0  0
  -20.6766  -26.9405   22.5410 C   0  0  0  0  0  0
  -19.5746  -26.6384   21.5207 C   0  0  0  0  0  0
  -18.1925  -26.7924   22.1622 C   0  0  0  0  0  0
  -19.1529  -28.8843   23.2890 C   0  0  0  0  0  0
  -18.9457  -30.1446   23.8904 C   0  0  0  0  0  0
  -17.6459  -30.6584   24.0563 C   0  0  0  0  0  0
  -25.9042  -34.9466   23.5118 C   0  0  0  0  0  0
  -16.5349  -29.9086   23.6326 C   0  0  0  0  0  0
  -16.7267  -28.6502   23.0350 C   0  0  0  0  0  0
  -26.4482  -31.6597   25.0728 C   0  0  0  0  0  0
  -25.3732  -31.3718   26.1466 C   0  0  0  0  0  0
  -27.0320  -30.3031   24.6143 C   0  0  0  0  0  0
  -27.6050  -32.4323   25.7495 C   0  0  0  0  0  0
  -27.5580  -37.1810   24.8466 C   0  0  0  0  0  0
  -21.4164  -29.3040   22.3703 N   0  0  0  0  0  0
  -26.4294  -37.3788   23.9407 N   0  0  0  0  0  0
  -24.6784  -31.0701   22.0991 N   0  0  0  0  0  0
  -23.4192  -28.8180   23.3020 O   0  0  0  0  0  0
  -28.3765  -26.5820   20.1411 O   0  0  0  0  0  0
  -26.5610  -34.8924   22.4684 O   0  0  0  0  0  0
  -23.5385  -32.1415   23.7429 O   0  0  0  0  0  0
  -29.7543  -21.0614   23.3532 C   0  0  0  0  0  0
  -29.4511  -22.0731   22.4193 C   0  0  0  0  0  0
  -29.8287  -20.4962   20.5853 C   0  0  0  0  0  0
  -30.1133  -19.4713   21.5394 C   0  0  0  0  0  0
  -30.0920  -19.7794   22.8938 C   0  0  0  0  0  0
  -29.5089  -21.8274   21.0214 C   0  0  0  0  0  0
  -30.5785  -17.5716   22.8834 C   0  0  0  0  0  0
  -30.5802  -18.0109   21.3936 C   0  0  1  0  0  0
  -30.0341  -17.2261   18.9825 C   0  0  0  0  0  0
  -28.2067  -25.1401   19.9762 C   0  0  0  0  0  0
  -29.4228  -24.2427   20.3794 C   0  0  0  0  0  0
  -29.7575  -17.0277   20.4849 C   0  0  1  0  0  0
  -29.7975  -15.5757   20.8531 N   0  0  0  0  0  0
  -30.4525  -18.7409   23.7002 O   0  0  0  0  0  0
  -29.2343  -22.8242   20.0804 O   0  0  0  0  0  0
  -31.4817  -12.4662   19.1404 H   0  0  0  0  0  0
  -30.3630  -11.3381   19.8546 H   0  0  0  0  0  0
  -29.7594  -11.7700   17.4535 H   0  0  0  0  0  0
  -29.6615  -13.4849   17.7637 H   0  0  0  0  0  0
  -27.8499  -11.2971   18.8386 H   0  0  0  0  0  0
  -27.3763  -12.6080   17.7914 H   0  0  0  0  0  0
  -27.6931  -14.2463   19.5533 H   0  0  0  0  0  0
  -28.6965  -11.9803   21.3518 H   0  0  0  0  0  0
  -28.4598  -13.6215   21.8697 H   0  0  0  0  0  0
  -25.2760   -9.5682   22.4754 H   0  0  0  0  0  0
  -24.0002   -7.4633   22.7471 H   0  0  0  0  0  0
  -21.0838   -8.8770   19.8951 H   0  0  0  0  0  0
  -22.3693  -10.9670   19.6163 H   0  0  0  0  0  0
  -21.2003   -7.6147   23.9715 H   0  0  0  0  0  0
  -21.1483   -6.0521   25.9077 H   0  0  0  0  0  0
  -22.0598   -2.7609   23.2847 H   0  0  0  0  0  0
  -22.4119  -11.9895   22.4792 H   0  0  0  0  0  0
  -21.1125  -13.1264   22.2600 H   0  0  0  0  0  0
  -24.6643  -15.8404   20.5112 H   0  0  0  0  0  0
  -26.2787  -15.6237   20.0654 H   0  0  0  0  0  0
  -26.7149  -32.5489   23.1135 H   0  0  0  0  0  0
  -25.0055  -33.9754   25.0445 H   0  0  0  0  0  0
  -22.7026  -31.3078   21.4087 H   0  0  0  0  0  0
  -23.3745  -35.9646   23.3310 H   0  0  0  0  0  0
  -24.3578  -36.8917   22.2051 H   0  0  0  0  0  0
  -23.7244  -37.6516   23.6651 H   0  0  0  0  0  0
  -26.0700  -31.5783   20.6020 H   0  0  0  0  0  0
  -26.8313  -30.8612   21.9931 H   0  0  0  0  0  0
  -28.1089  -29.0429   21.1693 H   0  0  0  0  0  0
  -25.9882  -25.9587   18.9977 H   0  0  0  0  0  0
  -23.9680  -27.3071   19.0257 H   0  0  0  0  0  0
  -23.7357  -30.6008   19.4057 H   0  0  0  0  0  0
  -22.7437  -29.2498   19.8637 H   0  0  0  0  0  0
  -25.1287  -36.1963   25.0826 H   0  0  0  0  0  0
  -20.9963  -28.3242   24.1418 H   0  0  0  0  0  0
  -20.5659  -26.2285   23.3604 H   0  0  0  0  0  0
  -21.6638  -26.7437   22.1209 H   0  0  0  0  0  0
  -19.6908  -25.6296   21.1234 H   0  0  0  0  0  0
  -19.6684  -27.3195   20.6738 H   0  0  0  0  0  0
  -17.4193  -26.6665   21.4027 H   0  0  0  0  0  0
  -18.0335  -26.0063   22.9018 H   0  0  0  0  0  0
  -19.7934  -30.7257   24.2278 H   0  0  0  0  0  0
  -17.5017  -31.6266   24.5163 H   0  0  0  0  0  0
  -15.5351  -30.2993   23.7646 H   0  0  0  0  0  0
  -15.8665  -28.0824   22.7064 H   0  0  0  0  0  0
  -24.5903  -30.7069   25.7800 H   0  0  0  0  0  0
  -24.8927  -32.2880   26.4912 H   0  0  0  0  0  0
  -25.8072  -30.8886   27.0229 H   0  0  0  0  0  0
  -26.2882  -29.6789   24.1177 H   0  0  0  0  0  0
  -27.4051  -29.7274   25.4624 H   0  0  0  0  0  0
  -27.8735  -30.4336   23.9333 H   0  0  0  0  0  0
  -27.2663  -33.3614   26.2093 H   0  0  0  0  0  0
  -28.3851  -32.6898   25.0319 H   0  0  0  0  0  0
  -28.0729  -31.8437   26.5396 H   0  0  0  0  0  0
  -28.2605  -38.0099   24.7506 H   0  0  0  0  0  0
  -28.1067  -36.2631   24.6300 H   0  0  0  0  0  0
  -27.2297  -37.1471   25.8869 H   0  0  0  0  0  0
  -20.9329  -29.8776   21.6932 H   0  0  0  0  0  0
  -26.0181  -38.2867   24.1401 H   0  0  0  0  0  0
  -29.7292  -21.2731   24.4128 H   0  0  0  0  0  0
  -29.1658  -23.0347   22.8160 H   0  0  0  0  0  0
  -29.8803  -20.2855   19.5277 H   0  0  0  0  0  0
  -31.4707  -16.9990   23.1381 H   0  0  0  0  0  0
  -29.7136  -16.9474   23.1109 H   0  0  0  0  0  0
  -31.6150  -18.0388   21.0493 H   0  0  0  0  0  0
  -29.7892  -18.2367   18.6609 H   0  0  0  0  0  0
  -29.4339  -16.5473   18.3756 H   0  0  0  0  0  0
  -31.0829  -17.0516   18.7403 H   0  0  0  0  0  0
  -27.3485  -24.8063   20.5617 H   0  0  0  0  0  0
  -27.9768  -24.9390   18.9292 H   0  0  0  0  0  0
  -29.6966  -24.4518   21.4101 H   0  0  0  0  0  0
  -30.2862  -24.5653   19.7969 H   0  0  0  0  0  0
  -28.7100  -17.2881   20.6441 H   0  0  0  0  0  0
  -28.9241  -15.2339   21.2262 H   0  0  0  0  0  0
  1 25  1  0  0  0
  1 30  2  0  0  0
  1 83  1  0  0  0
  2  3  1  0  0  0
  2 25  1  0  0  0
  2 86  1  0  0  0
  2 87  1  0  0  0
  3  4  1  0  0  0
  3 88  1  0  0  0
  3 89  1  0  0  0
  4  5  1  0  0  0
  4 90  1  0  0  0
  4 91  1  0  0  0
  5  6  1  0  0  0
  5 26  1  0  0  0
  5 92  1  0  0  0
  6 25  1  0  0  0
  6 93  1  0  0  0
  6 94  1  0  0  0
  7  8  2  0  0  0
  7 26  1  0  0  0
  7 29  1  0  0  0
  8  9  1  0  0  0
  8 22  1  0  0  0
  9 10  1  0  0  0
  9 27  2  0  0  0
 10 11  2  0  0  0
 10 15  1  0  0  0
 11 12  1  0  0  0
 11 95  1  0  0  0
 12 13  2  0  0  0
 12 96  1  0  0  0
 13 14  1  0  0  0
 13 31  1  0  0  0
 14 15  2  0  0  0
 14 97  1  0  0  0
 15 98  1  0  0  0
 16 17  2  0  0  0
 16 21  1  0  0  0
 16 31  1  0  0  0
 17 18  1  0  0  0
 17 99  1  0  0  0
 18 19  2  0  0  0
 18100  1  0  0  0
 19 20  1  0  0  0
 19 24  1  0  0  0
 20 21  2  0  0  0
 20101  1  0  0  0
 21 23  1  0  0  0
 22 28  1  0  0  0
 22 32  2  0  0  0
 26 27  1  0  0  0
 28102  1  0  0  0
 28103  1  0  0  0
 29104  1  0  0  0
 29105  1  0  0  0
 33 34  1  0  0  0
 33 66  1  0  0  0
 33 70  2  0  0  0
 34 36  1  0  0  0
 34 59  1  0  0  0
 34106  1  0  0  0
 35 44  2  0  0  0
 35 45  1  0  0  0
 35 68  1  0  0  0
 36 56  1  0  0  0
 36107  1  0  0  0
 37 39  1  0  0  0
 37 47  1  0  0  0
 37 66  1  0  0  0
 37108  1  0  0  0
 38 43  2  0  0  0
 38 46  1  0  0  0
 38 47  1  0  0  0
 39 64  1  0  0  0
 39 67  2  0  0  0
 40 52  1  0  0  0
 40 53  2  0  0  0
 40 58  1  0  0  0
 41109  1  0  0  0
 41110  1  0  0  0
 41111  1  0  0  0
 41 48  1  0  0  0
 42 43  1  0  0  0
 42 66  1  0  0  0
 42112  1  0  0  0
 42113  1  0  0  0
 43 44  1  0  0  0
 44114  1  0  0  0
 45 46  2  0  0  0
 45115  1  0  0  0
 46116  1  0  0  0
 47117  1  0  0  0
 47118  1  0  0  0
 48 56  1  0  0  0
 48 65  1  0  0  0
 48119  1  0  0  0
 49 50  1  0  0  0
 49 53  1  0  0  0
 49 64  1  0  0  0
 49120  1  0  0  0
 50 51  1  0  0  0
 50121  1  0  0  0
 50122  1  0  0  0
 51 52  1  0  0  0
 51123  1  0  0  0
 51124  1  0  0  0
 52125  1  0  0  0
 52126  1  0  0  0
 53 54  1  0  0  0
 54 55  2  0  0  0
 54127  1  0  0  0
 55 57  1  0  0  0
 55128  1  0  0  0
 56 69  2  0  0  0
 57 58  2  0  0  0
 57129  1  0  0  0
 58130  1  0  0  0
 59 60  1  0  0  0
 59 61  1  0  0  0
 59 62  1  0  0  0
 60131  1  0  0  0
 60132  1  0  0  0
 60133  1  0  0  0
 61134  1  0  0  0
 61135  1  0  0  0
 61136  1  0  0  0
 62137  1  0  0  0
 62138  1  0  0  0
 62139  1  0  0  0
 63 65  1  0  0  0
 63140  1  0  0  0
 63141  1  0  0  0
 63142  1  0  0  0
 64143  1  0  0  0
 65144  1  0  0  0
 68 80  1  0  0  0
 71 72  2  0  0  0
 71 75  1  0  0  0
 71145  1  0  0  0
 72 76  1  0  0  0
 72146  1  0  0  0
 73 74  1  0  0  0
 73 76  2  0  0  0
 73147  1  0  0  0
 74 75  2  0  0  0
 74 78  1  0  0  0
 75 84  1  0  0  0
 76 85  1  0  0  0
 77 84  1  0  0  0
 77148  1  0  0  0
 77149  1  0  0  0
 77 78  1  0  0  0
 78 82  1  0  0  0
 78150  1  0  0  0
 79151  1  0  0  0
 79152  1  0  0  0
 79153  1  0  0  0
 79 82  1  0  0  0
 80 81  1  0  0  0
 80154  1  0  0  0
 80155  1  0  0  0
 81 85  1  0  0  0
 81156  1  0  0  0
 81157  1  0  0  0
 82 83  1  0  0  0
 82158  1  0  0  0
 83159  1  0  0  0
M  ISO  4   1 100  68 101  80 101  83 100
M  END
> <chiral flag>
0

> <version>
0

> <s_m_source_file>
/data/baiqing/PycharmProjects/Reinvent-master-3.2/result/LINK_invent/BTK/process_docking_weight1_custom_sum_contain_oxygen_bond_distance_aromatic_linkinvent_7_9_3/rearranged_h_0143.sdf

> <i_m_source_file_index>
78

> <r_mmod_Potential_Energy-OPLS-2005>
53.7722206115723

> <r_mmod_Stretch_Energy-OPLS-2005>
58.8760147094727

> <r_mmod_Bend_Energy-OPLS-2005>
172.495361328125

> <r_mmod_Torsional_Energy-OPLS-2005>
226.701034545898

> <r_mmod_Improper_Torsional_Energy-OPLS-2005>
6.76500988006592

> <r_mmod_Van_der_Waal_Energy-OPLS-2005>
147.894958496094

> <r_mmod_Electrostatic_Energy-OPLS-2005>
-366.76123046875

> <r_mmod_Solvation_Energy-OPLS-2005>
-219.420486450195

> <b_mmod_Minimization_Converged-OPLS-2005>
0

> <r_mmod_RMS_Derivative-OPLS-2005>
0.284830927848816

$$$$
80
                    3D
 Structure written by MMmdl.
167175  0  0  1  0            999 V2000
  -30.7548  -14.3953   20.6505 C   0  0  0  0  0  0
  -30.4160  -12.2937   19.4036 C   0  0  0  0  0  0
  -29.4863  -12.5169   18.1964 C   0  0  0  0  0  0
  -28.0101  -12.3732   18.6129 C   0  0  0  0  0  0
  -27.6643  -13.2035   19.8776 C   0  0  2  0  0  0
  -28.7032  -12.9619   20.9946 C   0  0  0  0  0  0
  -25.2598  -13.8155   20.5671 C   0  0  0  0  0  0
  -24.1841  -13.0436   20.9155 C   0  0  0  0  0  0
  -24.6389  -11.6901   20.8723 C   0  0  0  0  0  0
  -23.9053  -10.4290   21.0398 C   0  0  0  0  0  0
  -24.3610   -9.4209   21.9177 C   0  0  0  0  0  0
  -23.6288   -8.2246   22.0750 C   0  0  0  0  0  0
  -22.4270   -8.0281   21.3543 C   0  0  0  0  0  0
  -21.9903   -9.0251   20.4644 C   0  0  0  0  0  0
  -22.7228  -10.2131   20.3048 C   0  0  0  0  0  0
  -21.6854   -6.0735   22.5278 C   0  0  0  0  0  0
  -21.4015   -6.5639   23.8211 C   0  0  0  0  0  0
  -21.3659   -5.6791   24.9173 C   0  0  0  0  0  0
  -21.6044   -4.3054   24.7224 C   0  0  0  0  0  0
  -21.8820   -3.8145   23.4345 C   0  0  0  0  0  0
  -21.9193   -4.6961   22.3401 C   0  0  0  0  0  0
  -22.7867  -13.5239   21.1829 C   0  0  0  0  0  0
  -22.1662   -4.2147   21.0978 F   0  0  0  0  0  0
  -21.5628   -3.4538   25.7738 F   0  0  0  0  0  0
  -30.0415  -13.2562   20.4506 N   0  0  0  0  0  0
  -26.3035  -12.9318   20.3373 N   0  0  0  0  0  0
  -25.9316  -11.6478   20.5757 N   0  0  0  0  0  0
  -22.0511  -12.8232   22.0389 N   0  0  0  0  0  0
  -25.4339  -15.1870   20.4092 N   0  0  0  0  0  0
  -31.8163  -14.6364   20.0683 O   0  0  0  0  0  0
  -21.6638   -6.8876   21.4239 O   0  0  0  0  0  0
  -22.3552  -14.5551   20.6689 O   0  0  0  0  0  0
  -24.6128  -31.8693   23.2114 C   0  0  0  0  0  0
  -25.9031  -32.4826   23.8401 C   0  0  1  0  0  0
  -27.2330  -27.4547   20.0925 C   0  0  0  0  0  0
  -25.5899  -33.8626   24.2337 N   0  0  0  0  0  0
  -23.3989  -30.4934   21.5517 C   0  0  2  0  0  0
  -24.8433  -28.9628   20.1137 C   0  0  0  0  0  0
  -22.7399  -29.4669   22.5006 C   0  0  0  0  0  0
  -18.0272  -28.1378   22.8495 C   0  0  0  0  0  0
  -24.1484  -36.7325   23.2638 C   0  0  0  0  0  0
  -25.9257  -30.8421   21.3592 C   0  0  0  0  0  0
  -26.0025  -29.4789   20.7056 C   0  0  0  0  0  0
  -27.2007  -28.7333   20.6886 C   0  0  0  0  0  0
  -26.0578  -26.9508   19.4887 C   0  0  0  0  0  0
  -24.8650  -27.6972   19.5022 C   0  0  0  0  0  0
  -23.6042  -29.8268   20.1652 C   0  0  0  0  0  0
  -25.4101  -36.3120   24.0340 C   0  0  1  0  0  0
  -20.5863  -28.3657   23.1332 C   0  0  2  0  0  0
  -20.6764  -26.9397   22.5424 C   0  0  0  0  0  0
  -19.5742  -26.6389   21.5219 C   0  0  0  0  0  0
  -18.1919  -26.7929   22.1626 C   0  0  0  0  0  0
  -19.1522  -28.8837   23.2912 C   0  0  0  0  0  0
  -18.9450  -30.1447   23.8911 C   0  0  0  0  0  0
  -17.6451  -30.6580   24.0571 C   0  0  0  0  0  0
  -25.9028  -34.9481   23.5136 C   0  0  0  0  0  0
  -16.5344  -29.9085   23.6324 C   0  0  0  0  0  0
  -16.7262  -28.6508   23.0337 C   0  0  0  0  0  0
  -26.4460  -31.6596   25.0721 C   0  0  0  0  0  0
  -25.3740  -31.3693   26.1477 C   0  0  0  0  0  0
  -27.0280  -30.3047   24.6069 C   0  0  0  0  0  0
  -27.6049  -32.4304   25.7472 C   0  0  0  0  0  0
  -27.5580  -37.1813   24.8463 C   0  0  0  0  0  0
  -21.4133  -29.3028   22.3743 N   0  0  0  0  0  0
  -26.4293  -37.3801   23.9408 N   0  0  0  0  0  0
  -24.6640  -31.0818   22.0996 N   0  0  0  0  0  0
  -23.4185  -28.8212   23.3038 O   0  0  0  0  0  0
  -28.4080  -26.7370   20.1128 O   0  0  0  0  0  0
  -26.5596  -34.8932   22.4697 O   0  0  0  0  0  0
  -23.5329  -32.1432   23.7528 O   0  0  0  0  0  0
  -30.3023  -22.4568   19.4623 C   0  0  0  0  0  0
  -30.5567  -20.0378   19.2664 C   0  0  0  0  0  0
  -29.5130  -21.0009   21.2444 C   0  0  0  0  0  0
  -30.7297  -21.3330   18.7250 C   0  0  0  0  0  0
  -29.6958  -22.3040   20.7283 C   0  0  0  0  0  0
  -29.9472  -19.8624   20.5288 C   0  0  0  0  0  0
  -31.4034  -20.3510   16.4320 C   0  0  0  0  0  0
  -30.3210  -16.9289   23.3527 C   0  0  0  0  0  0
  -29.4588  -24.7912   21.0930 C   0  0  0  0  0  0
  -30.8315  -17.6080   20.8881 C   0  0  0  0  0  0
  -28.2878  -25.3194   20.2473 C   0  0  0  0  0  0
  -31.3858  -21.5666   17.3699 C   0  0  2  0  0  0
  -30.8678  -16.5036   21.9772 C   0  0  2  0  0  0
  -29.2750  -23.3987   21.5029 N   0  0  0  0  0  0
  -29.7675  -18.5869   21.0914 N   0  0  0  0  0  0
  -30.2317  -15.2649   21.5272 N   0  0  0  0  0  0
  -32.7116  -22.0315   17.5214 O   0  0  0  0  0  0
  -31.4602  -12.3880   19.0998 H   0  0  0  0  0  0
  -30.3116  -11.2760   19.7833 H   0  0  0  0  0  0
  -29.7217  -11.8065   17.4029 H   0  0  0  0  0  0
  -29.6553  -13.5106   17.7785 H   0  0  0  0  0  0
  -27.8202  -11.3155   18.8010 H   0  0  0  0  0  0
  -27.3566  -12.6553   17.7868 H   0  0  0  0  0  0
  -27.7183  -14.2552   19.5950 H   0  0  0  0  0  0
  -28.6700  -11.9214   21.3217 H   0  0  0  0  0  0
  -28.4544  -13.5471   21.8800 H   0  0  0  0  0  0
  -25.2758   -9.5688   22.4744 H   0  0  0  0  0  0
  -24.0000   -7.4639   22.7471 H   0  0  0  0  0  0
  -21.0834   -8.8764   19.8952 H   0  0  0  0  0  0
  -22.3685  -10.9664   19.6153 H   0  0  0  0  0  0
  -21.2010   -7.6148   23.9713 H   0  0  0  0  0  0
  -21.1479   -6.0523   25.9076 H   0  0  0  0  0  0
  -22.0600   -2.7608   23.2845 H   0  0  0  0  0  0
  -22.4131  -11.9890   22.4767 H   0  0  0  0  0  0
  -21.1130  -13.1254   22.2601 H   0  0  0  0  0  0
  -24.6733  -15.8484   20.5231 H   0  0  0  0  0  0
  -26.2996  -15.6250   20.1174 H   0  0  0  0  0  0
  -26.7104  -32.5534   23.1172 H   0  0  0  0  0  0
  -25.0053  -33.9797   25.0484 H   0  0  0  0  0  0
  -22.6869  -31.3098   21.4145 H   0  0  0  0  0  0
  -23.3742  -35.9662   23.3309 H   0  0  0  0  0  0
  -24.3588  -36.8928   22.2053 H   0  0  0  0  0  0
  -23.7234  -37.6534   23.6639 H   0  0  0  0  0  0
  -26.0372  -31.6099   20.5920 H   0  0  0  0  0  0
  -26.8149  -30.8948   21.9751 H   0  0  0  0  0  0
  -28.0964  -29.1288   21.1467 H   0  0  0  0  0  0
  -26.0550  -25.9861   19.0011 H   0  0  0  0  0  0
  -23.9748  -27.2946   19.0386 H   0  0  0  0  0  0
  -23.7097  -30.6025   19.4058 H   0  0  0  0  0  0
  -22.7284  -29.2463   19.8701 H   0  0  0  0  0  0
  -25.1273  -36.1996   25.0833 H   0  0  0  0  0  0
  -20.9951  -28.3214   24.1456 H   0  0  0  0  0  0
  -20.5677  -26.2260   23.3604 H   0  0  0  0  0  0
  -21.6635  -26.7451   22.1209 H   0  0  0  0  0  0
  -19.6902  -25.6308   21.1228 H   0  0  0  0  0  0
  -19.6682  -27.3219   20.6767 H   0  0  0  0  0  0
  -17.4194  -26.6689   21.4021 H   0  0  0  0  0  0
  -18.0308  -26.0063   22.9014 H   0  0  0  0  0  0
  -19.7927  -30.7265   24.2272 H   0  0  0  0  0  0
  -17.5005  -31.6259   24.5181 H   0  0  0  0  0  0
  -15.5344  -30.2990   23.7639 H   0  0  0  0  0  0
  -15.8665  -28.0835   22.7026 H   0  0  0  0  0  0
  -24.5927  -30.7014   25.7832 H   0  0  0  0  0  0
  -24.8910  -32.2841   26.4925 H   0  0  0  0  0  0
  -25.8113  -30.8880   27.0236 H   0  0  0  0  0  0
  -26.2811  -29.6821   24.1129 H   0  0  0  0  0  0
  -27.4075  -29.7262   25.4505 H   0  0  0  0  0  0
  -27.8633  -30.4380   23.9190 H   0  0  0  0  0  0
  -27.2685  -33.3601   26.2070 H   0  0  0  0  0  0
  -28.3842  -32.6863   25.0284 H   0  0  0  0  0  0
  -28.0726  -31.8408   26.5368 H   0  0  0  0  0  0
  -28.2606  -38.0106   24.7520 H   0  0  0  0  0  0
  -28.1070  -36.2645   24.6271 H   0  0  0  0  0  0
  -27.2311  -37.1444   25.8872 H   0  0  0  0  0  0
  -20.9283  -29.8755   21.6976 H   0  0  0  0  0  0
  -26.0188  -38.2882   24.1408 H   0  0  0  0  0  0
  -30.4580  -23.4342   19.0301 H   0  0  0  0  0  0
  -30.8842  -19.1732   18.7096 H   0  0  0  0  0  0
  -29.0482  -20.8735   22.2118 H   0  0  0  0  0  0
  -30.3947  -19.9685   16.2722 H   0  0  0  0  0  0
  -32.0169  -19.5363   16.8173 H   0  0  0  0  0  0
  -31.8023  -20.6218   15.4542 H   0  0  0  0  0  0
  -30.7985  -17.8474   23.6965 H   0  0  0  0  0  0
  -30.5162  -16.1644   24.1056 H   0  0  0  0  0  0
  -29.2438  -17.0966   23.3323 H   0  0  0  0  0  0
  -29.5235  -25.3875   22.0041 H   0  0  0  0  0  0
  -30.4096  -24.9401   20.5796 H   0  0  0  0  0  0
  -30.7545  -17.1759   19.8894 H   0  0  0  0  0  0
  -31.7872  -18.1364   20.9143 H   0  0  0  0  0  0
  -27.3583  -25.0514   20.7538 H   0  0  0  0  0  0
  -28.2720  -24.8514   19.2623 H   0  0  0  0  0  0
  -30.8190  -22.3557   16.8711 H   0  0  0  0  0  0
  -31.9221  -16.2620   22.1319 H   0  0  0  0  0  0
  -28.8479  -23.2303   22.4113 H   0  0  0  0  0  0
  -29.3519  -18.5637   22.0177 H   0  0  0  0  0  0
  -29.3463  -15.0179   21.9414 H   0  0  0  0  0  0
  -33.1947  -21.3633   17.9972 H   0  0  0  0  0  0
  1 25  1  0  0  0
  1 30  2  0  0  0
  1 86  1  0  0  0
  2  3  1  0  0  0
  2 25  1  0  0  0
  2 88  1  0  0  0
  2 89  1  0  0  0
  3  4  1  0  0  0
  3 90  1  0  0  0
  3 91  1  0  0  0
  4  5  1  0  0  0
  4 92  1  0  0  0
  4 93  1  0  0  0
  5  6  1  0  0  0
  5 26  1  0  0  0
  5 94  1  0  0  0
  6 25  1  0  0  0
  6 95  1  0  0  0
  6 96  1  0  0  0
  7  8  2  0  0  0
  7 26  1  0  0  0
  7 29  1  0  0  0
  8  9  1  0  0  0
  8 22  1  0  0  0
  9 10  1  0  0  0
  9 27  2  0  0  0
 10 11  2  0  0  0
 10 15  1  0  0  0
 11 12  1  0  0  0
 11 97  1  0  0  0
 12 13  2  0  0  0
 12 98  1  0  0  0
 13 14  1  0  0  0
 13 31  1  0  0  0
 14 15  2  0  0  0
 14 99  1  0  0  0
 15100  1  0  0  0
 16 17  2  0  0  0
 16 21  1  0  0  0
 16 31  1  0  0  0
 17 18  1  0  0  0
 17101  1  0  0  0
 18 19  2  0  0  0
 18102  1  0  0  0
 19 20  1  0  0  0
 19 24  1  0  0  0
 20 21  2  0  0  0
 20103  1  0  0  0
 21 23  1  0  0  0
 22 28  1  0  0  0
 22 32  2  0  0  0
 26 27  1  0  0  0
 28104  1  0  0  0
 28105  1  0  0  0
 29106  1  0  0  0
 29107  1  0  0  0
 33 34  1  0  0  0
 33 66  1  0  0  0
 33 70  2  0  0  0
 34 36  1  0  0  0
 34 59  1  0  0  0
 34108  1  0  0  0
 35 44  2  0  0  0
 35 45  1  0  0  0
 35 68  1  0  0  0
 36 56  1  0  0  0
 36109  1  0  0  0
 37 39  1  0  0  0
 37 47  1  0  0  0
 37 66  1  0  0  0
 37110  1  0  0  0
 38 43  2  0  0  0
 38 46  1  0  0  0
 38 47  1  0  0  0
 39 64  1  0  0  0
 39 67  2  0  0  0
 40 52  1  0  0  0
 40 53  2  0  0  0
 40 58  1  0  0  0
 41111  1  0  0  0
 41112  1  0  0  0
 41113  1  0  0  0
 41 48  1  0  0  0
 42 43  1  0  0  0
 42 66  1  0  0  0
 42114  1  0  0  0
 42115  1  0  0  0
 43 44  1  0  0  0
 44116  1  0  0  0
 45 46  2  0  0  0
 45117  1  0  0  0
 46118  1  0  0  0
 47119  1  0  0  0
 47120  1  0  0  0
 48 56  1  0  0  0
 48 65  1  0  0  0
 48121  1  0  0  0
 49 50  1  0  0  0
 49 53  1  0  0  0
 49 64  1  0  0  0
 49122  1  0  0  0
 50 51  1  0  0  0
 50123  1  0  0  0
 50124  1  0  0  0
 51 52  1  0  0  0
 51125  1  0  0  0
 51126  1  0  0  0
 52127  1  0  0  0
 52128  1  0  0  0
 53 54  1  0  0  0
 54 55  2  0  0  0
 54129  1  0  0  0
 55 57  1  0  0  0
 55130  1  0  0  0
 56 69  2  0  0  0
 57 58  2  0  0  0
 57131  1  0  0  0
 58132  1  0  0  0
 59 60  1  0  0  0
 59 61  1  0  0  0
 59 62  1  0  0  0
 60133  1  0  0  0
 60134  1  0  0  0
 60135  1  0  0  0
 61136  1  0  0  0
 61137  1  0  0  0
 61138  1  0  0  0
 62139  1  0  0  0
 62140  1  0  0  0
 62141  1  0  0  0
 63 65  1  0  0  0
 63142  1  0  0  0
 63143  1  0  0  0
 63144  1  0  0  0
 64145  1  0  0  0
 65146  1  0  0  0
 68 81  1  0  0  0
 71 74  2  0  0  0
 71 75  1  0  0  0
 71147  1  0  0  0
 72 74  1  0  0  0
 72 76  2  0  0  0
 72148  1  0  0  0
 73 75  2  0  0  0
 73 76  1  0  0  0
 73149  1  0  0  0
 74 82  1  0  0  0
 75 84  1  0  0  0
 76 85  1  0  0  0
 77150  1  0  0  0
 77151  1  0  0  0
 77152  1  0  0  0
 77 82  1  0  0  0
 78153  1  0  0  0
 78154  1  0  0  0
 78155  1  0  0  0
 78 83  1  0  0  0
 79 81  1  0  0  0
 79 84  1  0  0  0
 79156  1  0  0  0
 79157  1  0  0  0
 80 83  1  0  0  0
 80 85  1  0  0  0
 80158  1  0  0  0
 80159  1  0  0  0
 81160  1  0  0  0
 81161  1  0  0  0
 82 87  1  0  0  0
 82162  1  0  0  0
 83 86  1  0  0  0
 83163  1  0  0  0
 84164  1  0  0  0
 85165  1  0  0  0
 86166  1  0  0  0
 87167  1  0  0  0
M  ISO  4   1 100  68 101  81 101  86 100
M  END
> <chiral flag>
0

> <version>
0

> <s_m_source_file>
/data/baiqing/PycharmProjects/Reinvent-master-3.2/result/LINK_invent/BTK/process_docking_weight1_custom_sum_contain_oxygen_bond_distance_aromatic_linkinvent_7_9_3/rearranged_h_0143.sdf

> <i_m_source_file_index>
79

> <r_mmod_Potential_Energy-OPLS-2005>
-181.969985961914

> <r_mmod_Stretch_Energy-OPLS-2005>
34.2560234069824

> <r_mmod_Bend_Energy-OPLS-2005>
109.259086608887

> <r_mmod_Torsional_Energy-OPLS-2005>
209.086654663086

> <r_mmod_Improper_Torsional_Energy-OPLS-2005>
5.11555194854736

> <r_mmod_Van_der_Waal_Energy-OPLS-2005>
165.668258666992

> <r_mmod_Electrostatic_Energy-OPLS-2005>
-476.236511230469

> <r_mmod_Solvation_Energy-OPLS-2005>
-237.501052856445

> <b_mmod_Minimization_Converged-OPLS-2005>
0

> <r_mmod_RMS_Derivative-OPLS-2005>
0.8197221159935

$$$$
81
                    3D
 Structure written by MMmdl.
155164  0  0  1  0            999 V2000
  -30.6576  -14.6517   20.4584 C   0  0  0  0  0  0
  -30.4198  -12.3942   19.4638 C   0  0  0  0  0  0
  -29.5057  -12.4995   18.2248 C   0  0  0  0  0  0
  -28.0277  -12.3437   18.6333 C   0  0  0  0  0  0
  -27.6450  -13.2287   19.8504 C   0  0  2  0  0  0
  -28.6889  -13.1371   20.9851 C   0  0  0  0  0  0
  -25.2538  -13.8196   20.5686 C   0  0  0  0  0  0
  -24.1815  -13.0449   20.9187 C   0  0  0  0  0  0
  -24.6393  -11.6921   20.8722 C   0  0  0  0  0  0
  -23.9069  -10.4297   21.0393 C   0  0  0  0  0  0
  -24.3620   -9.4215   21.9175 C   0  0  0  0  0  0
  -23.6296   -8.2247   22.0744 C   0  0  0  0  0  0
  -22.4279   -8.0281   21.3537 C   0  0  0  0  0  0
  -21.9912   -9.0251   20.4636 C   0  0  0  0  0  0
  -22.7237  -10.2132   20.3044 C   0  0  0  0  0  0
  -21.6862   -6.0735   22.5272 C   0  0  0  0  0  0
  -21.4013   -6.5643   23.8204 C   0  0  0  0  0  0
  -21.3660   -5.6795   24.9169 C   0  0  0  0  0  0
  -21.6043   -4.3056   24.7218 C   0  0  0  0  0  0
  -21.8824   -3.8146   23.4342 C   0  0  0  0  0  0
  -21.9195   -4.6961   22.3399 C   0  0  0  0  0  0
  -22.7839  -13.5232   21.1849 C   0  0  0  0  0  0
  -22.1668   -4.2145   21.0975 F   0  0  0  0  0  0
  -21.5628   -3.4540   25.7732 F   0  0  0  0  0  0
  -29.9986  -13.4522   20.4049 N   0  0  0  0  0  0
  -26.2958  -12.9400   20.3270 N   0  0  0  0  0  0
  -25.9324  -11.6542   20.5722 N   0  0  0  0  0  0
  -22.0485  -12.8221   22.0405 N   0  0  0  0  0  0
  -25.4254  -15.1913   20.4105 N   0  0  0  0  0  0
  -31.8522  -14.7190   20.1615 O   0  0  0  0  0  0
  -21.6648   -6.8874   21.4232 O   0  0  0  0  0  0
  -22.3523  -14.5533   20.6691 O   0  0  0  0  0  0
  -24.6266  -31.8582   23.2035 C   0  0  0  0  0  0
  -25.9126  -32.4757   23.8359 C   0  0  1  0  0  0
  -27.2190  -27.3170   20.1300 C   0  0  0  0  0  0
  -25.5958  -33.8564   24.2293 N   0  0  0  0  0  0
  -23.4209  -30.4818   21.5439 C   0  0  2  0  0  0
  -24.8689  -28.9342   20.1124 C   0  0  0  0  0  0
  -22.7472  -29.4626   22.4937 C   0  0  0  0  0  0
  -18.0282  -28.1383   22.8482 C   0  0  0  0  0  0
  -24.1497  -36.7274   23.2641 C   0  0  0  0  0  0
  -25.9618  -30.7898   21.3745 C   0  0  0  0  0  0
  -26.0366  -29.4165   20.7186 C   0  0  0  0  0  0
  -27.2194  -28.6198   20.7160 C   0  0  0  0  0  0
  -26.0346  -26.8848   19.4993 C   0  0  0  0  0  0
  -24.8691  -27.6743   19.4929 C   0  0  0  0  0  0
  -23.6362  -29.8129   20.1607 C   0  0  0  0  0  0
  -25.4119  -36.3066   24.0336 C   0  0  1  0  0  0
  -20.5880  -28.3690   23.1284 C   0  0  2  0  0  0
  -20.6775  -26.9414   22.5413 C   0  0  0  0  0  0
  -19.5762  -26.6383   21.5214 C   0  0  0  0  0  0
  -18.1936  -26.7936   22.1608 C   0  0  0  0  0  0
  -19.1532  -28.8859   23.2877 C   0  0  0  0  0  0
  -18.9449  -30.1459   23.8897 C   0  0  0  0  0  0
  -17.6450  -30.6590   24.0558 C   0  0  0  0  0  0
  -25.9061  -34.9436   23.5108 C   0  0  0  0  0  0
  -16.5339  -29.9087   23.6337 C   0  0  0  0  0  0
  -16.7264  -28.6499   23.0366 C   0  0  0  0  0  0
  -26.4514  -31.6565   25.0723 C   0  0  0  0  0  0
  -25.3752  -31.3670   26.1447 C   0  0  0  0  0  0
  -27.0361  -30.2993   24.6183 C   0  0  0  0  0  0
  -27.6100  -32.4282   25.7474 C   0  0  0  0  0  0
  -27.5584  -37.1781   24.8457 C   0  0  0  0  0  0
  -21.4187  -29.3041   22.3672 N   0  0  0  0  0  0
  -26.4284  -37.3770   23.9421 N   0  0  0  0  0  0
  -24.6885  -31.0607   22.0974 N   0  0  0  0  0  0
  -23.4195  -28.8175   23.3028 O   0  0  0  0  0  0
  -28.3178  -26.4510   20.1524 O   0  0  0  0  0  0
  -26.5608  -34.8904   22.4659 O   0  0  0  0  0  0
  -23.5430  -32.1373   23.7370 O   0  0  0  0  0  0
  -29.0754  -18.9590   21.7081 C   0  0  0  0  0  0
  -28.6512  -20.3224   21.8154 C   0  0  0  0  0  0
  -29.4623  -20.8220   19.5933 C   0  0  0  0  0  0
  -29.7100  -18.5182   20.5278 C   0  0  0  0  0  0
  -29.8695  -19.4566   19.4947 C   0  0  0  0  0  0
  -28.8471  -21.2944   20.7872 C   0  0  0  0  0  0
  -30.5806  -18.8312   18.3231 C   0  0  0  0  0  0
  -30.7103  -17.3297   18.6926 C   0  0  0  0  0  0
  -30.4452  -17.1778   20.2167 C   0  0  2  0  0  0
  -28.1032  -25.1267   20.7856 C   0  0  0  0  0  0
  -28.6710  -23.7681   20.1630 C   0  0  0  0  0  0
  -29.9211  -15.8075   20.5793 N   0  0  0  0  0  0
  -28.4231  -22.6167   21.0388 O   0  0  0  0  0  0
  -31.4669  -12.4868   19.1705 H   0  0  0  0  0  0
  -30.3288  -11.4121   19.9292 H   0  0  0  0  0  0
  -29.7745  -11.7374   17.4919 H   0  0  0  0  0  0
  -29.6534  -13.4635   17.7343 H   0  0  0  0  0  0
  -27.8628  -11.2930   18.8734 H   0  0  0  0  0  0
  -27.3774  -12.5665   17.7865 H   0  0  0  0  0  0
  -27.6477  -14.2557   19.4849 H   0  0  0  0  0  0
  -28.7009  -12.1386   21.4235 H   0  0  0  0  0  0
  -28.4446  -13.8258   21.7954 H   0  0  0  0  0  0
  -25.2764   -9.5703   22.4757 H   0  0  0  0  0  0
  -24.0007   -7.4648   22.7474 H   0  0  0  0  0  0
  -21.0840   -8.8762   19.8952 H   0  0  0  0  0  0
  -22.3684  -10.9667   19.6154 H   0  0  0  0  0  0
  -21.2003   -7.6152   23.9706 H   0  0  0  0  0  0
  -21.1478   -6.0525   25.9072 H   0  0  0  0  0  0
  -22.0602   -2.7606   23.2840 H   0  0  0  0  0  0
  -22.4114  -11.9889   22.4784 H   0  0  0  0  0  0
  -21.1095  -13.1235   22.2597 H   0  0  0  0  0  0
  -24.6606  -15.8490   20.5163 H   0  0  0  0  0  0
  -26.2779  -15.6281   20.0839 H   0  0  0  0  0  0
  -26.7198  -32.5424   23.1115 H   0  0  0  0  0  0
  -25.0151  -33.9702   25.0473 H   0  0  0  0  0  0
  -22.7159  -31.3030   21.3989 H   0  0  0  0  0  0
  -23.3771  -35.9594   23.3265 H   0  0  0  0  0  0
  -24.3600  -36.8921   22.2063 H   0  0  0  0  0  0
  -23.7238  -37.6461   23.6680 H   0  0  0  0  0  0
  -26.0947  -31.5534   20.6071 H   0  0  0  0  0  0
  -26.8428  -30.8368   22.0033 H   0  0  0  0  0  0
  -28.1164  -28.9808   21.1989 H   0  0  0  0  0  0
  -26.0014  -25.9152   19.0221 H   0  0  0  0  0  0
  -23.9742  -27.3003   19.0145 H   0  0  0  0  0  0
  -23.7534  -30.5861   19.4012 H   0  0  0  0  0  0
  -22.7579  -29.2383   19.8588 H   0  0  0  0  0  0
  -25.1302  -36.1900   25.0828 H   0  0  0  0  0  0
  -20.9954  -28.3255   24.1415 H   0  0  0  0  0  0
  -20.5684  -26.2295   23.3607 H   0  0  0  0  0  0
  -21.6643  -26.7462   22.1200 H   0  0  0  0  0  0
  -19.6924  -25.6296   21.1248 H   0  0  0  0  0  0
  -19.6714  -27.3193   20.6743 H   0  0  0  0  0  0
  -17.4213  -26.6696   21.3999 H   0  0  0  0  0  0
  -18.0321  -26.0071   22.8991 H   0  0  0  0  0  0
  -19.7924  -30.7274   24.2273 H   0  0  0  0  0  0
  -17.5006  -31.6282   24.5146 H   0  0  0  0  0  0
  -15.5342  -30.2989   23.7687 H   0  0  0  0  0  0
  -15.8653  -28.0820   22.7106 H   0  0  0  0  0  0
  -24.6006  -30.6925   25.7772 H   0  0  0  0  0  0
  -24.8848  -32.2799   26.4834 H   0  0  0  0  0  0
  -25.8104  -30.8901   27.0239 H   0  0  0  0  0  0
  -26.2921  -29.6717   24.1269 H   0  0  0  0  0  0
  -27.4108  -29.7286   25.4689 H   0  0  0  0  0  0
  -27.8773  -30.4267   23.9369 H   0  0  0  0  0  0
  -27.2769  -33.3615   26.2023 H   0  0  0  0  0  0
  -28.3929  -32.6770   25.0295 H   0  0  0  0  0  0
  -28.0753  -31.8405   26.5397 H   0  0  0  0  0  0
  -28.2564  -38.0113   24.7557 H   0  0  0  0  0  0
  -28.1108  -36.2650   24.6211 H   0  0  0  0  0  0
  -27.2303  -37.1326   25.8853 H   0  0  0  0  0  0
  -20.9373  -29.8718   21.6837 H   0  0  0  0  0  0
  -26.0149  -38.2827   24.1459 H   0  0  0  0  0  0
  -28.9490  -18.2814   22.5411 H   0  0  0  0  0  0
  -28.1818  -20.6379   22.7361 H   0  0  0  0  0  0
  -29.6419  -21.4977   18.7692 H   0  0  0  0  0  0
  -31.5637  -19.2915   18.2146 H   0  0  0  0  0  0
  -30.0291  -18.9795   17.3937 H   0  0  0  0  0  0
  -31.6597  -16.8974   18.3744 H   0  0  0  0  0  0
  -29.9268  -16.7957   18.1531 H   0  0  0  0  0  0
  -31.4019  -17.2844   20.7313 H   0  0  0  0  0  0
  -28.5516  -25.2210   21.7755 H   0  0  0  0  0  0
  -27.0437  -24.9695   20.9907 H   0  0  0  0  0  0
  -29.7447  -23.8610   19.9954 H   0  0  0  0  0  0
  -28.2117  -23.5866   19.1906 H   0  0  0  0  0  0
  -28.9365  -15.7199   20.7778 H   0  0  0  0  0  0
  1 25  1  0  0  0
  1 30  2  0  0  0
  1 82  1  0  0  0
  2  3  1  0  0  0
  2 25  1  0  0  0
  2 84  1  0  0  0
  2 85  1  0  0  0
  3  4  1  0  0  0
  3 86  1  0  0  0
  3 87  1  0  0  0
  4  5  1  0  0  0
  4 88  1  0  0  0
  4 89  1  0  0  0
  5  6  1  0  0  0
  5 26  1  0  0  0
  5 90  1  0  0  0
  6 25  1  0  0  0
  6 91  1  0  0  0
  6 92  1  0  0  0
  7  8  2  0  0  0
  7 26  1  0  0  0
  7 29  1  0  0  0
  8  9  1  0  0  0
  8 22  1  0  0  0
  9 10  1  0  0  0
  9 27  2  0  0  0
 10 11  2  0  0  0
 10 15  1  0  0  0
 11 12  1  0  0  0
 11 93  1  0  0  0
 12 13  2  0  0  0
 12 94  1  0  0  0
 13 14  1  0  0  0
 13 31  1  0  0  0
 14 15  2  0  0  0
 14 95  1  0  0  0
 15 96  1  0  0  0
 16 17  2  0  0  0
 16 21  1  0  0  0
 16 31  1  0  0  0
 17 18  1  0  0  0
 17 97  1  0  0  0
 18 19  2  0  0  0
 18 98  1  0  0  0
 19 20  1  0  0  0
 19 24  1  0  0  0
 20 21  2  0  0  0
 20 99  1  0  0  0
 21 23  1  0  0  0
 22 28  1  0  0  0
 22 32  2  0  0  0
 26 27  1  0  0  0
 28100  1  0  0  0
 28101  1  0  0  0
 29102  1  0  0  0
 29103  1  0  0  0
 33 34  1  0  0  0
 33 66  1  0  0  0
 33 70  2  0  0  0
 34 36  1  0  0  0
 34 59  1  0  0  0
 34104  1  0  0  0
 35 44  2  0  0  0
 35 45  1  0  0  0
 35 68  1  0  0  0
 36 56  1  0  0  0
 36105  1  0  0  0
 37 39  1  0  0  0
 37 47  1  0  0  0
 37 66  1  0  0  0
 37106  1  0  0  0
 38 43  2  0  0  0
 38 46  1  0  0  0
 38 47  1  0  0  0
 39 64  1  0  0  0
 39 67  2  0  0  0
 40 52  1  0  0  0
 40 53  2  0  0  0
 40 58  1  0  0  0
 41107  1  0  0  0
 41108  1  0  0  0
 41109  1  0  0  0
 41 48  1  0  0  0
 42 43  1  0  0  0
 42 66  1  0  0  0
 42110  1  0  0  0
 42111  1  0  0  0
 43 44  1  0  0  0
 44112  1  0  0  0
 45 46  2  0  0  0
 45113  1  0  0  0
 46114  1  0  0  0
 47115  1  0  0  0
 47116  1  0  0  0
 48 56  1  0  0  0
 48 65  1  0  0  0
 48117  1  0  0  0
 49 50  1  0  0  0
 49 53  1  0  0  0
 49 64  1  0  0  0
 49118  1  0  0  0
 50 51  1  0  0  0
 50119  1  0  0  0
 50120  1  0  0  0
 51 52  1  0  0  0
 51121  1  0  0  0
 51122  1  0  0  0
 52123  1  0  0  0
 52124  1  0  0  0
 53 54  1  0  0  0
 54 55  2  0  0  0
 54125  1  0  0  0
 55 57  1  0  0  0
 55126  1  0  0  0
 56 69  2  0  0  0
 57 58  2  0  0  0
 57127  1  0  0  0
 58128  1  0  0  0
 59 60  1  0  0  0
 59 61  1  0  0  0
 59 62  1  0  0  0
 60129  1  0  0  0
 60130  1  0  0  0
 60131  1  0  0  0
 61132  1  0  0  0
 61133  1  0  0  0
 61134  1  0  0  0
 62135  1  0  0  0
 62136  1  0  0  0
 62137  1  0  0  0
 63 65  1  0  0  0
 63138  1  0  0  0
 63139  1  0  0  0
 63140  1  0  0  0
 64141  1  0  0  0
 65142  1  0  0  0
 68 80  1  0  0  0
 71 72  2  0  0  0
 71 74  1  0  0  0
 71143  1  0  0  0
 72 76  1  0  0  0
 72144  1  0  0  0
 73 75  1  0  0  0
 73 76  2  0  0  0
 73145  1  0  0  0
 74 75  2  0  0  0
 74 79  1  0  0  0
 75 77  1  0  0  0
 76 83  1  0  0  0
 77 78  1  0  0  0
 77146  1  0  0  0
 77147  1  0  0  0
 78 79  1  0  0  0
 78148  1  0  0  0
 78149  1  0  0  0
 79 82  1  0  0  0
 79150  1  0  0  0
 80 81  1  0  0  0
 80151  1  0  0  0
 80152  1  0  0  0
 81 83  1  0  0  0
 81153  1  0  0  0
 81154  1  0  0  0
 82155  1  0  0  0
M  ISO  4   1 100  68 101  80 101  82 100
M  END
> <chiral flag>
0

> <version>
0

> <s_m_source_file>
/data/baiqing/PycharmProjects/Reinvent-master-3.2/result/LINK_invent/BTK/process_docking_weight1_custom_sum_contain_oxygen_bond_distance_aromatic_linkinvent_7_9_3/rearranged_h_0143.sdf

> <i_m_source_file_index>
80

> <r_mmod_Potential_Energy-OPLS-2005>
84.5839462280273

> <r_mmod_Stretch_Energy-OPLS-2005>
77.5341415405273

> <r_mmod_Bend_Energy-OPLS-2005>
194.992935180664

> <r_mmod_Torsional_Energy-OPLS-2005>
232.002319335938

> <r_mmod_Improper_Torsional_Energy-OPLS-2005>
7.23947811126709

> <r_mmod_Van_der_Waal_Energy-OPLS-2005>
134.633163452148

> <r_mmod_Electrostatic_Energy-OPLS-2005>
-408.263305664062

> <r_mmod_Solvation_Energy-OPLS-2005>
-208.907348632812

> <b_mmod_Minimization_Converged-OPLS-2005>
0

> <r_mmod_RMS_Derivative-OPLS-2005>
1.76954221725464

$$$$
82
                    3D
 Structure written by MMmdl.
161170  0  0  1  0            999 V2000
  -30.7200  -14.4135   20.4624 C   0  0  0  0  0  0
  -30.3992  -12.2412   19.4107 C   0  0  0  0  0  0
  -29.4930  -12.4920   18.1887 C   0  0  0  0  0  0
  -28.0041  -12.3793   18.5786 C   0  0  0  0  0  0
  -27.6463  -13.2113   19.8482 C   0  0  2  0  0  0
  -28.6928  -12.9929   20.9601 C   0  0  0  0  0  0
  -25.2515  -13.8160   20.5707 C   0  0  0  0  0  0
  -24.1755  -13.0443   20.9098 C   0  0  0  0  0  0
  -24.6312  -11.6925   20.8619 C   0  0  0  0  0  0
  -23.9012  -10.4251   21.0386 C   0  0  0  0  0  0
  -24.3653   -9.4189   21.9120 C   0  0  0  0  0  0
  -23.6392   -8.2191   22.0644 C   0  0  0  0  0  0
  -22.4314   -8.0247   21.3500 C   0  0  0  0  0  0
  -21.9962   -9.0183   20.4584 C   0  0  0  0  0  0
  -22.7223  -10.2075   20.2999 C   0  0  0  0  0  0
  -21.6799   -6.0739   22.5317 C   0  0  0  0  0  0
  -21.4016   -6.5618   23.8246 C   0  0  0  0  0  0
  -21.3703   -5.6773   24.9158 C   0  0  0  0  0  0
  -21.6012   -4.3038   24.7194 C   0  0  0  0  0  0
  -21.8837   -3.8146   23.4319 C   0  0  0  0  0  0
  -21.9241   -4.7006   22.3403 C   0  0  0  0  0  0
  -22.7783  -13.5166   21.1746 C   0  0  0  0  0  0
  -22.1765   -4.2203   21.1006 F   0  0  0  0  0  0
  -21.5560   -3.4545   25.7694 F   0  0  0  0  0  0
  -30.0297  -13.2500   20.4054 N   0  0  0  0  0  0
  -26.2904  -12.9369   20.3215 N   0  0  0  0  0  0
  -25.9253  -11.6498   20.5621 N   0  0  0  0  0  0
  -22.0536  -12.8061   22.0341 N   0  0  0  0  0  0
  -25.4127  -15.1947   20.4360 N   0  0  0  0  0  0
  -31.9069  -14.5306   20.1392 O   0  0  0  0  0  0
  -21.6610   -6.8914   21.4302 O   0  0  0  0  0  0
  -22.3478  -14.5522   20.6676 O   0  0  0  0  0  0
  -24.6112  -31.8700   23.2141 C   0  0  0  0  0  0
  -25.9052  -32.4817   23.8389 C   0  0  1  0  0  0
  -27.1926  -27.4116   20.1103 C   0  0  0  0  0  0
  -25.5923  -33.8626   24.2330 N   0  0  0  0  0  0
  -23.3965  -30.4959   21.5550 C   0  0  2  0  0  0
  -24.8400  -28.9635   20.1079 C   0  0  0  0  0  0
  -22.7400  -29.4674   22.5025 C   0  0  0  0  0  0
  -18.0285  -28.1378   22.8494 C   0  0  0  0  0  0
  -24.1504  -36.7306   23.2628 C   0  0  0  0  0  0
  -25.9261  -30.8222   21.3727 C   0  0  0  0  0  0
  -25.9955  -29.4541   20.7295 C   0  0  0  0  0  0
  -27.1812  -28.6812   20.7406 C   0  0  0  0  0  0
  -26.0349  -26.9558   19.4527 C   0  0  0  0  0  0
  -24.8582  -27.7209   19.4560 C   0  0  0  0  0  0
  -23.6005  -29.8320   20.1676 C   0  0  0  0  0  0
  -25.4127  -36.3105   24.0332 C   0  0  1  0  0  0
  -20.5864  -28.3666   23.1343 C   0  0  2  0  0  0
  -20.6789  -26.9410   22.5427 C   0  0  0  0  0  0
  -19.5768  -26.6391   21.5222 C   0  0  0  0  0  0
  -18.1946  -26.7929   22.1623 C   0  0  0  0  0  0
  -19.1529  -28.8839   23.2907 C   0  0  0  0  0  0
  -18.9459  -30.1449   23.8905 C   0  0  0  0  0  0
  -17.6465  -30.6589   24.0565 C   0  0  0  0  0  0
  -25.9046  -34.9473   23.5119 C   0  0  0  0  0  0
  -16.5359  -29.9085   23.6323 C   0  0  0  0  0  0
  -16.7275  -28.6503   23.0339 C   0  0  0  0  0  0
  -26.4471  -31.6585   25.0718 C   0  0  0  0  0  0
  -25.3739  -31.3721   26.1466 C   0  0  0  0  0  0
  -27.0269  -30.3012   24.6091 C   0  0  0  0  0  0
  -27.6053  -32.4286   25.7489 C   0  0  0  0  0  0
  -27.5589  -37.1813   24.8456 C   0  0  0  0  0  0
  -21.4140  -29.3043   22.3754 N   0  0  0  0  0  0
  -26.4299  -37.3798   23.9406 N   0  0  0  0  0  0
  -24.6623  -31.0761   22.1068 N   0  0  0  0  0  0
  -23.4174  -28.8248   23.3094 O   0  0  0  0  0  0
  -28.2953  -26.5995   20.1066 O   0  0  0  0  0  0
  -26.5593  -34.8902   22.4668 O   0  0  0  0  0  0
  -23.5332  -32.1494   23.7547 O   0  0  0  0  0  0
  -28.7133  -22.4112   21.0448 C   0  0  0  0  0  0
  -27.1390  -22.9905   19.2842 C   0  0  0  0  0  0
  -28.9995  -21.1944   20.3954 C   0  0  0  0  0  0
  -27.4407  -21.7825   18.6268 C   0  0  0  0  0  0
  -27.7584  -23.3059   20.5070 C   0  0  0  0  0  0
  -28.3690  -20.8737   19.1667 C   0  0  0  0  0  0
  -26.7794  -24.1603   22.6879 C   0  0  0  0  0  0
  -25.8665  -24.6984   21.6262 C   0  0  0  0  0  0
  -27.3486  -24.5024   21.3196 C   0  0  0  0  0  0
  -28.3454  -25.6842   21.2257 C   0  0  0  0  0  0
  -29.2768  -17.7875   19.8119 C   0  0  0  0  0  0
  -30.4285  -16.8138   20.1126 C   0  0  0  0  0  0
  -29.6834  -18.8717   18.7962 C   0  0  0  0  0  0
  -29.9440  -15.4975   20.5220 N   0  0  0  0  0  0
  -28.5917  -19.7196   18.4434 O   0  0  0  0  0  0
  -31.4560  -12.2947   19.1322 H   0  0  0  0  0  0
  -30.2412  -11.2348   19.7980 H   0  0  0  0  0  0
  -29.7444  -11.7803   17.4034 H   0  0  0  0  0  0
  -29.6948  -13.4845   17.7858 H   0  0  0  0  0  0
  -27.7753  -11.3250   18.7361 H   0  0  0  0  0  0
  -27.3804  -12.7031   17.7437 H   0  0  0  0  0  0
  -27.6757  -14.2602   19.5549 H   0  0  0  0  0  0
  -28.6362  -11.9669   21.3168 H   0  0  0  0  0  0
  -28.4758  -13.6099   21.8335 H   0  0  0  0  0  0
  -25.2825   -9.5636   22.4690 H   0  0  0  0  0  0
  -24.0162   -7.4571   22.7344 H   0  0  0  0  0  0
  -21.0897   -8.8704   19.8878 H   0  0  0  0  0  0
  -22.3713  -10.9621   19.6133 H   0  0  0  0  0  0
  -21.2020   -7.6136   23.9798 H   0  0  0  0  0  0
  -21.1549   -6.0445   25.9075 H   0  0  0  0  0  0
  -22.0603   -2.7631   23.2770 H   0  0  0  0  0  0
  -22.4202  -11.9757   22.4670 H   0  0  0  0  0  0
  -21.1125  -13.0900   22.2585 H   0  0  0  0  0  0
  -24.6377  -15.8238   20.6164 H   0  0  0  0  0  0
  -26.2710  -15.6668   20.1754 H   0  0  0  0  0  0
  -26.7110  -32.5498   23.1118 H   0  0  0  0  0  0
  -25.0094  -33.9812   25.0493 H   0  0  0  0  0  0
  -22.6867  -31.3181   21.4228 H   0  0  0  0  0  0
  -23.3764  -35.9634   23.3312 H   0  0  0  0  0  0
  -24.3583  -36.8905   22.2030 H   0  0  0  0  0  0
  -23.7263  -37.6524   23.6630 H   0  0  0  0  0  0
  -26.0330  -31.5822   20.5974 H   0  0  0  0  0  0
  -26.8194  -30.8811   21.9853 H   0  0  0  0  0  0
  -28.0696  -29.0440   21.2363 H   0  0  0  0  0  0
  -26.0429  -25.9939   18.9616 H   0  0  0  0  0  0
  -23.9787  -27.3537   18.9441 H   0  0  0  0  0  0
  -23.6942  -30.6075   19.4060 H   0  0  0  0  0  0
  -22.7281  -29.2443   19.8701 H   0  0  0  0  0  0
  -25.1309  -36.1956   25.0827 H   0  0  0  0  0  0
  -20.9945  -28.3241   24.1466 H   0  0  0  0  0  0
  -20.5734  -26.2283   23.3614 H   0  0  0  0  0  0
  -21.6665  -26.7494   22.1196 H   0  0  0  0  0  0
  -19.6944  -25.6309   21.1236 H   0  0  0  0  0  0
  -19.6701  -27.3221   20.6767 H   0  0  0  0  0  0
  -17.4221  -26.6685   21.4018 H   0  0  0  0  0  0
  -18.0343  -26.0058   22.9007 H   0  0  0  0  0  0
  -19.7935  -30.7257   24.2291 H   0  0  0  0  0  0
  -17.5017  -31.6264   24.5172 H   0  0  0  0  0  0
  -15.5355  -30.2980   23.7648 H   0  0  0  0  0  0
  -15.8681  -28.0815   22.7047 H   0  0  0  0  0  0
  -24.5939  -30.7007   25.7843 H   0  0  0  0  0  0
  -24.8865  -32.2875   26.4830 H   0  0  0  0  0  0
  -25.8079  -30.8975   27.0279 H   0  0  0  0  0  0
  -26.2801  -29.6835   24.1064 H   0  0  0  0  0  0
  -27.3960  -29.7158   25.4533 H   0  0  0  0  0  0
  -27.8691  -30.4322   23.9286 H   0  0  0  0  0  0
  -27.2693  -33.3610   26.2035 H   0  0  0  0  0  0
  -28.3879  -32.6805   25.0324 H   0  0  0  0  0  0
  -28.0682  -31.8411   26.5424 H   0  0  0  0  0  0
  -28.2597  -38.0126   24.7522 H   0  0  0  0  0  0
  -28.1104  -36.2651   24.6265 H   0  0  0  0  0  0
  -27.2293  -37.1435   25.8856 H   0  0  0  0  0  0
  -20.9347  -29.8755   21.6947 H   0  0  0  0  0  0
  -26.0187  -38.2877   24.1413 H   0  0  0  0  0  0
  -29.1841  -22.6279   21.9939 H   0  0  0  0  0  0
  -26.3957  -23.6413   18.8484 H   0  0  0  0  0  0
  -29.6960  -20.5262   20.8774 H   0  0  0  0  0  0
  -26.9678  -21.5370   17.6857 H   0  0  0  0  0  0
  -26.6414  -23.1123   22.9430 H   0  0  0  0  0  0
  -26.9910  -24.8142   23.5279 H   0  0  0  0  0  0
  -25.4786  -25.6970   21.8083 H   0  0  0  0  0  0
  -25.1591  -23.9969   21.1884 H   0  0  0  0  0  0
  -29.3543  -25.2725   21.2603 H   0  0  0  0  0  0
  -28.2486  -26.2748   22.1386 H   0  0  0  0  0  0
  -28.9591  -18.2380   20.7530 H   0  0  0  0  0  0
  -28.4120  -17.2566   19.4103 H   0  0  0  0  0  0
  -31.0651  -17.2342   20.8936 H   0  0  0  0  0  0
  -31.0684  -16.7151   19.2270 H   0  0  0  0  0  0
  -30.0067  -18.3791   17.8798 H   0  0  0  0  0  0
  -30.5559  -19.4312   19.1436 H   0  0  0  0  0  0
  -28.9511  -15.3465   20.5783 H   0  0  0  0  0  0
  1 25  1  0  0  0
  1 30  2  0  0  0
  1 84  1  0  0  0
  2  3  1  0  0  0
  2 25  1  0  0  0
  2 86  1  0  0  0
  2 87  1  0  0  0
  3  4  1  0  0  0
  3 88  1  0  0  0
  3 89  1  0  0  0
  4  5  1  0  0  0
  4 90  1  0  0  0
  4 91  1  0  0  0
  5  6  1  0  0  0
  5 26  1  0  0  0
  5 92  1  0  0  0
  6 25  1  0  0  0
  6 93  1  0  0  0
  6 94  1  0  0  0
  7  8  2  0  0  0
  7 26  1  0  0  0
  7 29  1  0  0  0
  8  9  1  0  0  0
  8 22  1  0  0  0
  9 10  1  0  0  0
  9 27  2  0  0  0
 10 11  2  0  0  0
 10 15  1  0  0  0
 11 12  1  0  0  0
 11 95  1  0  0  0
 12 13  2  0  0  0
 12 96  1  0  0  0
 13 14  1  0  0  0
 13 31  1  0  0  0
 14 15  2  0  0  0
 14 97  1  0  0  0
 15 98  1  0  0  0
 16 17  2  0  0  0
 16 21  1  0  0  0
 16 31  1  0  0  0
 17 18  1  0  0  0
 17 99  1  0  0  0
 18 19  2  0  0  0
 18100  1  0  0  0
 19 20  1  0  0  0
 19 24  1  0  0  0
 20 21  2  0  0  0
 20101  1  0  0  0
 21 23  1  0  0  0
 22 28  1  0  0  0
 22 32  2  0  0  0
 26 27  1  0  0  0
 28102  1  0  0  0
 28103  1  0  0  0
 29104  1  0  0  0
 29105  1  0  0  0
 33 34  1  0  0  0
 33 66  1  0  0  0
 33 70  2  0  0  0
 34 36  1  0  0  0
 34 59  1  0  0  0
 34106  1  0  0  0
 35 44  2  0  0  0
 35 45  1  0  0  0
 35 68  1  0  0  0
 36 56  1  0  0  0
 36107  1  0  0  0
 37 39  1  0  0  0
 37 47  1  0  0  0
 37 66  1  0  0  0
 37108  1  0  0  0
 38 43  2  0  0  0
 38 46  1  0  0  0
 38 47  1  0  0  0
 39 64  1  0  0  0
 39 67  2  0  0  0
 40 52  1  0  0  0
 40 53  2  0  0  0
 40 58  1  0  0  0
 41109  1  0  0  0
 41110  1  0  0  0
 41111  1  0  0  0
 41 48  1  0  0  0
 42 43  1  0  0  0
 42 66  1  0  0  0
 42112  1  0  0  0
 42113  1  0  0  0
 43 44  1  0  0  0
 44114  1  0  0  0
 45 46  2  0  0  0
 45115  1  0  0  0
 46116  1  0  0  0
 47117  1  0  0  0
 47118  1  0  0  0
 48 56  1  0  0  0
 48 65  1  0  0  0
 48119  1  0  0  0
 49 50  1  0  0  0
 49 53  1  0  0  0
 49 64  1  0  0  0
 49120  1  0  0  0
 50 51  1  0  0  0
 50121  1  0  0  0
 50122  1  0  0  0
 51 52  1  0  0  0
 51123  1  0  0  0
 51124  1  0  0  0
 52125  1  0  0  0
 52126  1  0  0  0
 53 54  1  0  0  0
 54 55  2  0  0  0
 54127  1  0  0  0
 55 57  1  0  0  0
 55128  1  0  0  0
 56 69  2  0  0  0
 57 58  2  0  0  0
 57129  1  0  0  0
 58130  1  0  0  0
 59 60  1  0  0  0
 59 61  1  0  0  0
 59 62  1  0  0  0
 60131  1  0  0  0
 60132  1  0  0  0
 60133  1  0  0  0
 61134  1  0  0  0
 61135  1  0  0  0
 61136  1  0  0  0
 62137  1  0  0  0
 62138  1  0  0  0
 62139  1  0  0  0
 63 65  1  0  0  0
 63140  1  0  0  0
 63141  1  0  0  0
 63142  1  0  0  0
 64143  1  0  0  0
 65144  1  0  0  0
 68 80  1  0  0  0
 71 73  2  0  0  0
 71 75  1  0  0  0
 71145  1  0  0  0
 72 74  1  0  0  0
 72 75  2  0  0  0
 72146  1  0  0  0
 73 76  1  0  0  0
 73147  1  0  0  0
 74 76  2  0  0  0
 74148  1  0  0  0
 75 79  1  0  0  0
 76 85  1  0  0  0
 77 78  1  0  0  0
 77 79  1  0  0  0
 77149  1  0  0  0
 77150  1  0  0  0
 78 79  1  0  0  0
 78151  1  0  0  0
 78152  1  0  0  0
 79 80  1  0  0  0
 80153  1  0  0  0
 80154  1  0  0  0
 81 82  1  0  0  0
 81 83  1  0  0  0
 81155  1  0  0  0
 81156  1  0  0  0
 82 84  1  0  0  0
 82157  1  0  0  0
 82158  1  0  0  0
 83 85  1  0  0  0
 83159  1  0  0  0
 83160  1  0  0  0
 84161  1  0  0  0
M  ISO  4   1 100  68 101  80 101  84 100
M  END
> <chiral flag>
0

> <version>
0

> <s_m_source_file>
/data/baiqing/PycharmProjects/Reinvent-master-3.2/result/LINK_invent/BTK/process_docking_weight1_custom_sum_contain_oxygen_bond_distance_aromatic_linkinvent_7_9_3/rearranged_h_0143.sdf

> <i_m_source_file_index>
81

> <r_mmod_Potential_Energy-OPLS-2005>
27.5321369171143

> <r_mmod_Stretch_Energy-OPLS-2005>
35.2849960327148

> <r_mmod_Bend_Energy-OPLS-2005>
108.08618927002

> <r_mmod_Torsional_Energy-OPLS-2005>
274.503326416016

> <r_mmod_Improper_Torsional_Energy-OPLS-2005>
11.1711311340332

> <r_mmod_Van_der_Waal_Energy-OPLS-2005>
150.097183227539

> <r_mmod_Electrostatic_Energy-OPLS-2005>
-365.425964355469

> <r_mmod_Solvation_Energy-OPLS-2005>
-209.539932250977

> <b_mmod_Minimization_Converged-OPLS-2005>
0

> <r_mmod_RMS_Derivative-OPLS-2005>
12.5183334350586

$$$$
83
                    3D
 Structure written by MMmdl.
157166  0  0  1  0            999 V2000
  -30.5744  -14.7782   20.3852 C   0  0  0  0  0  0
  -30.4404  -12.4401   19.5103 C   0  0  0  0  0  0
  -29.5325  -12.4274   18.2627 C   0  0  0  0  0  0
  -28.0456  -12.3055   18.6585 C   0  0  0  0  0  0
  -27.6427  -13.2244   19.8448 C   0  0  2  0  0  0
  -28.6816  -13.1821   20.9853 C   0  0  0  0  0  0
  -25.2528  -13.8176   20.5631 C   0  0  0  0  0  0
  -24.1820  -13.0438   20.9190 C   0  0  0  0  0  0
  -24.6404  -11.6910   20.8756 C   0  0  0  0  0  0
  -23.9074  -10.4290   21.0409 C   0  0  0  0  0  0
  -24.3626   -9.4205   21.9186 C   0  0  0  0  0  0
  -23.6297   -8.2249   22.0758 C   0  0  0  0  0  0
  -22.4282   -8.0288   21.3550 C   0  0  0  0  0  0
  -21.9915   -9.0259   20.4646 C   0  0  0  0  0  0
  -22.7245  -10.2138   20.3057 C   0  0  0  0  0  0
  -21.6863   -6.0736   22.5275 C   0  0  0  0  0  0
  -21.4020   -6.5639   23.8205 C   0  0  0  0  0  0
  -21.3663   -5.6795   24.9171 C   0  0  0  0  0  0
  -21.6048   -4.3057   24.7225 C   0  0  0  0  0  0
  -21.8817   -3.8145   23.4346 C   0  0  0  0  0  0
  -21.9192   -4.6964   22.3400 C   0  0  0  0  0  0
  -22.7843  -13.5224   21.1850 C   0  0  0  0  0  0
  -22.1662   -4.2148   21.0980 F   0  0  0  0  0  0
  -21.5627   -3.4538   25.7737 F   0  0  0  0  0  0
  -29.9816  -13.5326   20.4017 N   0  0  0  0  0  0
  -26.2944  -12.9367   20.3231 N   0  0  0  0  0  0
  -25.9326  -11.6524   20.5760 N   0  0  0  0  0  0
  -22.0494  -12.8213   22.0414 N   0  0  0  0  0  0
  -25.4211  -15.1890   20.3943 N   0  0  0  0  0  0
  -31.7706  -14.8686   20.0881 O   0  0  0  0  0  0
  -21.6654   -6.8883   21.4238 O   0  0  0  0  0  0
  -22.3537  -14.5529   20.6695 O   0  0  0  0  0  0
  -24.6343  -31.8558   23.1983 C   0  0  0  0  0  0
  -25.9167  -32.4764   23.8343 C   0  0  1  0  0  0
  -27.2223  -27.2499   20.1351 C   0  0  0  0  0  0
  -25.5962  -33.8566   24.2276 N   0  0  0  0  0  0
  -23.4314  -30.4786   21.5415 C   0  0  2  0  0  0
  -24.8795  -28.9253   20.1091 C   0  0  0  0  0  0
  -22.7531  -29.4617   22.4914 C   0  0  0  0  0  0
  -18.0309  -28.1390   22.8480 C   0  0  0  0  0  0
  -24.1491  -36.7274   23.2636 C   0  0  0  0  0  0
  -25.9785  -30.7650   21.3806 C   0  0  0  0  0  0
  -26.0515  -29.3867   20.7215 C   0  0  0  0  0  0
  -27.2242  -28.5622   20.7228 C   0  0  0  0  0  0
  -26.0291  -26.8675   19.4783 C   0  0  0  0  0  0
  -24.8749  -27.6752   19.4733 C   0  0  0  0  0  0
  -23.6511  -29.8137   20.1572 C   0  0  0  0  0  0
  -25.4119  -36.3074   24.0332 C   0  0  1  0  0  0
  -20.5917  -28.3720   23.1259 C   0  0  2  0  0  0
  -20.6795  -26.9435   22.5410 C   0  0  0  0  0  0
  -19.5767  -26.6380   21.5218 C   0  0  0  0  0  0
  -18.1946  -26.7928   22.1621 C   0  0  0  0  0  0
  -19.1560  -28.8872   23.2859 C   0  0  0  0  0  0
  -18.9473  -30.1472   23.8876 C   0  0  0  0  0  0
  -17.6466  -30.6579   24.0567 C   0  0  0  0  0  0
  -25.9065  -34.9449   23.5101 C   0  0  0  0  0  0
  -16.5362  -29.9073   23.6327 C   0  0  0  0  0  0
  -16.7293  -28.6497   23.0335 C   0  0  0  0  0  0
  -26.4523  -31.6575   25.0730 C   0  0  0  0  0  0
  -25.3735  -31.3698   26.1435 C   0  0  0  0  0  0
  -27.0378  -30.2995   24.6212 C   0  0  0  0  0  0
  -27.6088  -32.4305   25.7505 C   0  0  0  0  0  0
  -27.5584  -37.1795   24.8466 C   0  0  0  0  0  0
  -21.4242  -29.3056   22.3645 N   0  0  0  0  0  0
  -26.4289  -37.3777   23.9419 N   0  0  0  0  0  0
  -24.7005  -31.0512   22.0965 N   0  0  0  0  0  0
  -23.4225  -28.8164   23.3021 O   0  0  0  0  0  0
  -28.3074  -26.3374   20.2236 O   0  0  0  0  0  0
  -26.5628  -34.8922   22.4663 O   0  0  0  0  0  0
  -23.5490  -32.1389   23.7266 O   0  0  0  0  0  0
  -30.0461  -18.6191   17.8713 C   0  0  0  0  0  0
  -29.8922  -19.7968   18.6056 C   0  0  0  0  0  0
  -29.9222  -17.3510   18.4792 C   0  0  0  0  0  0
  -29.8228  -17.2665   19.9043 C   0  0  0  0  0  0
  -29.6020  -19.7226   19.9701 C   0  0  0  0  0  0
  -29.4448  -16.2737   16.0798 C   0  0  0  0  0  0
  -28.4520  -15.7232   17.0637 C   0  0  0  0  0  0
  -29.8222  -16.1626   17.5497 C   0  0  0  0  0  0
  -29.0194  -23.6621   20.5497 C   0  0  0  0  0  0
  -28.0570  -24.8610   20.0159 C   0  0  0  0  0  0
  -28.6897  -22.1264   20.1148 C   0  0  0  0  0  0
  -29.6224  -18.4721   20.5992 N   0  0  0  0  0  0
  -29.7665  -15.9083   20.5271 N   0  0  0  0  0  0
  -29.3663  -20.9195   20.7154 O   0  0  0  0  0  0
  -31.4834  -12.5602   19.2125 H   0  0  0  0  0  0
  -30.3861  -11.4815   20.0280 H   0  0  0  0  0  0
  -29.8064  -11.5935   17.6146 H   0  0  0  0  0  0
  -29.7149  -13.3205   17.6751 H   0  0  0  0  0  0
  -27.8798  -11.2637   18.9335 H   0  0  0  0  0  0
  -27.4057  -12.4909   17.7956 H   0  0  0  0  0  0
  -27.6310  -14.2390   19.4495 H   0  0  0  0  0  0
  -28.7201  -12.1925   21.4429 H   0  0  0  0  0  0
  -28.4104  -13.8761   21.7831 H   0  0  0  0  0  0
  -25.2773   -9.5681   22.4765 H   0  0  0  0  0  0
  -23.9994   -7.4643   22.7484 H   0  0  0  0  0  0
  -21.0846   -8.8773   19.8961 H   0  0  0  0  0  0
  -22.3689  -10.9679   19.6170 H   0  0  0  0  0  0
  -21.2017   -7.6149   23.9703 H   0  0  0  0  0  0
  -21.1491   -6.0534   25.9075 H   0  0  0  0  0  0
  -22.0592   -2.7606   23.2849 H   0  0  0  0  0  0
  -22.4109  -11.9873   22.4801 H   0  0  0  0  0  0
  -21.1116  -13.1242   22.2614 H   0  0  0  0  0  0
  -24.6362  -15.8282   20.4574 H   0  0  0  0  0  0
  -26.2396  -15.6147   19.9789 H   0  0  0  0  0  0
  -26.7243  -32.5412   23.1090 H   0  0  0  0  0  0
  -25.0141  -33.9716   25.0445 H   0  0  0  0  0  0
  -22.7281  -31.3009   21.3953 H   0  0  0  0  0  0
  -23.3773  -35.9584   23.3285 H   0  0  0  0  0  0
  -24.3570  -36.8910   22.2050 H   0  0  0  0  0  0
  -23.7222  -37.6461   23.6665 H   0  0  0  0  0  0
  -26.1180  -31.5278   20.6134 H   0  0  0  0  0  0
  -26.8560  -30.8131   22.0138 H   0  0  0  0  0  0
  -28.1178  -28.9086   21.2226 H   0  0  0  0  0  0
  -25.9551  -25.9151   18.9751 H   0  0  0  0  0  0
  -23.9811  -27.3214   18.9784 H   0  0  0  0  0  0
  -23.7807  -30.5916   19.4040 H   0  0  0  0  0  0
  -22.7689  -29.2510   19.8478 H   0  0  0  0  0  0
  -25.1300  -36.1912   25.0823 H   0  0  0  0  0  0
  -20.9998  -28.3295   24.1383 H   0  0  0  0  0  0
  -20.5689  -26.2344   23.3628 H   0  0  0  0  0  0
  -21.6665  -26.7448   22.1207 H   0  0  0  0  0  0
  -19.6928  -25.6280   21.1269 H   0  0  0  0  0  0
  -19.6686  -27.3181   20.6737 H   0  0  0  0  0  0
  -17.4225  -26.6697   21.4015 H   0  0  0  0  0  0
  -18.0327  -26.0065   22.9008 H   0  0  0  0  0  0
  -19.7946  -30.7307   24.2223 H   0  0  0  0  0  0
  -17.5011  -31.6247   24.5186 H   0  0  0  0  0  0
  -15.5362  -30.2959   23.7650 H   0  0  0  0  0  0
  -15.8705  -28.0812   22.7032 H   0  0  0  0  0  0
  -24.5942  -30.7023   25.7735 H   0  0  0  0  0  0
  -24.8888  -32.2850   26.4844 H   0  0  0  0  0  0
  -25.8045  -30.8878   27.0218 H   0  0  0  0  0  0
  -26.2962  -29.6724   24.1248 H   0  0  0  0  0  0
  -27.4081  -29.7268   25.4724 H   0  0  0  0  0  0
  -27.8831  -30.4278   23.9449 H   0  0  0  0  0  0
  -27.2727  -33.3626   26.2056 H   0  0  0  0  0  0
  -28.3915  -32.6823   25.0337 H   0  0  0  0  0  0
  -28.0736  -31.8434   26.5434 H   0  0  0  0  0  0
  -28.2599  -38.0100   24.7542 H   0  0  0  0  0  0
  -28.1092  -36.2636   24.6260 H   0  0  0  0  0  0
  -27.2310  -37.1408   25.8872 H   0  0  0  0  0  0
  -20.9445  -29.8775   21.6840 H   0  0  0  0  0  0
  -26.0168  -38.2853   24.1409 H   0  0  0  0  0  0
  -30.2118  -18.7119   16.8097 H   0  0  0  0  0  0
  -29.9849  -20.7380   18.0847 H   0  0  0  0  0  0
  -29.1815  -17.2288   15.6329 H   0  0  0  0  0  0
  -29.8865  -15.5550   15.3903 H   0  0  0  0  0  0
  -28.2149  -14.6718   16.9340 H   0  0  0  0  0  0
  -27.5978  -16.3566   17.2990 H   0  0  0  0  0  0
  -30.5982  -15.4297   17.7480 H   0  0  0  0  0  0
  -29.0306  -23.7088   21.6389 H   0  0  0  0  0  0
  -30.0412  -23.8814   20.2415 H   0  0  0  0  0  0
  -27.0793  -24.6343   20.4440 H   0  0  0  0  0  0
  -27.9533  -24.7218   18.9391 H   0  0  0  0  0  0
  -28.7327  -22.1023   19.0288 H   0  0  0  0  0  0
  -27.6338  -21.9674   20.3341 H   0  0  0  0  0  0
  -28.8902  -15.7144   20.9832 H   0  0  0  0  0  0
  1 25  1  0  0  0
  1 30  2  0  0  0
  1 83  1  0  0  0
  2  3  1  0  0  0
  2 25  1  0  0  0
  2 85  1  0  0  0
  2 86  1  0  0  0
  3  4  1  0  0  0
  3 87  1  0  0  0
  3 88  1  0  0  0
  4  5  1  0  0  0
  4 89  1  0  0  0
  4 90  1  0  0  0
  5  6  1  0  0  0
  5 26  1  0  0  0
  5 91  1  0  0  0
  6 25  1  0  0  0
  6 92  1  0  0  0
  6 93  1  0  0  0
  7  8  2  0  0  0
  7 26  1  0  0  0
  7 29  1  0  0  0
  8  9  1  0  0  0
  8 22  1  0  0  0
  9 10  1  0  0  0
  9 27  2  0  0  0
 10 11  2  0  0  0
 10 15  1  0  0  0
 11 12  1  0  0  0
 11 94  1  0  0  0
 12 13  2  0  0  0
 12 95  1  0  0  0
 13 14  1  0  0  0
 13 31  1  0  0  0
 14 15  2  0  0  0
 14 96  1  0  0  0
 15 97  1  0  0  0
 16 17  2  0  0  0
 16 21  1  0  0  0
 16 31  1  0  0  0
 17 18  1  0  0  0
 17 98  1  0  0  0
 18 19  2  0  0  0
 18 99  1  0  0  0
 19 20  1  0  0  0
 19 24  1  0  0  0
 20 21  2  0  0  0
 20100  1  0  0  0
 21 23  1  0  0  0
 22 28  1  0  0  0
 22 32  2  0  0  0
 26 27  1  0  0  0
 28101  1  0  0  0
 28102  1  0  0  0
 29103  1  0  0  0
 29104  1  0  0  0
 33 34  1  0  0  0
 33 66  1  0  0  0
 33 70  2  0  0  0
 34 36  1  0  0  0
 34 59  1  0  0  0
 34105  1  0  0  0
 35 44  2  0  0  0
 35 45  1  0  0  0
 35 68  1  0  0  0
 36 56  1  0  0  0
 36106  1  0  0  0
 37 39  1  0  0  0
 37 47  1  0  0  0
 37 66  1  0  0  0
 37107  1  0  0  0
 38 43  2  0  0  0
 38 46  1  0  0  0
 38 47  1  0  0  0
 39 64  1  0  0  0
 39 67  2  0  0  0
 40 52  1  0  0  0
 40 53  2  0  0  0
 40 58  1  0  0  0
 41108  1  0  0  0
 41109  1  0  0  0
 41110  1  0  0  0
 41 48  1  0  0  0
 42 43  1  0  0  0
 42 66  1  0  0  0
 42111  1  0  0  0
 42112  1  0  0  0
 43 44  1  0  0  0
 44113  1  0  0  0
 45 46  2  0  0  0
 45114  1  0  0  0
 46115  1  0  0  0
 47116  1  0  0  0
 47117  1  0  0  0
 48 56  1  0  0  0
 48 65  1  0  0  0
 48118  1  0  0  0
 49 50  1  0  0  0
 49 53  1  0  0  0
 49 64  1  0  0  0
 49119  1  0  0  0
 50 51  1  0  0  0
 50120  1  0  0  0
 50121  1  0  0  0
 51 52  1  0  0  0
 51122  1  0  0  0
 51123  1  0  0  0
 52124  1  0  0  0
 52125  1  0  0  0
 53 54  1  0  0  0
 54 55  2  0  0  0
 54126  1  0  0  0
 55 57  1  0  0  0
 55127  1  0  0  0
 56 69  2  0  0  0
 57 58  2  0  0  0
 57128  1  0  0  0
 58129  1  0  0  0
 59 60  1  0  0  0
 59 61  1  0  0  0
 59 62  1  0  0  0
 60130  1  0  0  0
 60131  1  0  0  0
 60132  1  0  0  0
 61133  1  0  0  0
 61134  1  0  0  0
 61135  1  0  0  0
 62136  1  0  0  0
 62137  1  0  0  0
 62138  1  0  0  0
 63 65  1  0  0  0
 63139  1  0  0  0
 63140  1  0  0  0
 63141  1  0  0  0
 64142  1  0  0  0
 65143  1  0  0  0
 68 80  1  0  0  0
 71 72  2  0  0  0
 71 73  1  0  0  0
 71144  1  0  0  0
 72 75  1  0  0  0
 72145  1  0  0  0
 73 74  2  0  0  0
 73 78  1  0  0  0
 74 82  1  0  0  0
 74 83  1  0  0  0
 75 82  2  0  0  0
 75 84  1  0  0  0
 76 77  1  0  0  0
 76 78  1  0  0  0
 76146  1  0  0  0
 76147  1  0  0  0
 77 78  1  0  0  0
 77148  1  0  0  0
 77149  1  0  0  0
 78150  1  0  0  0
 79 80  1  0  0  0
 79 81  1  0  0  0
 79151  1  0  0  0
 79152  1  0  0  0
 80153  1  0  0  0
 80154  1  0  0  0
 81 84  1  0  0  0
 81155  1  0  0  0
 81156  1  0  0  0
 83157  1  0  0  0
M  ISO  4   1 100  68 101  80 101  83 100
M  END
> <chiral flag>
0

> <version>
0

> <s_m_source_file>
/data/baiqing/PycharmProjects/Reinvent-master-3.2/result/LINK_invent/BTK/process_docking_weight1_custom_sum_contain_oxygen_bond_distance_aromatic_linkinvent_7_9_3/rearranged_h_0143.sdf

> <i_m_source_file_index>
82

> <r_mmod_Potential_Energy-OPLS-2005>
127.798835754395

> <r_mmod_Stretch_Energy-OPLS-2005>
142.277709960938

> <r_mmod_Bend_Energy-OPLS-2005>
183.511566162109

> <r_mmod_Torsional_Energy-OPLS-2005>
287.070281982422

> <r_mmod_Improper_Torsional_Energy-OPLS-2005>
6.04484558105469

> <r_mmod_Van_der_Waal_Energy-OPLS-2005>
143.992095947266

> <r_mmod_Electrostatic_Energy-OPLS-2005>
-513.822326660156

> <r_mmod_Solvation_Energy-OPLS-2005>
-224.040283203125

> <b_mmod_Minimization_Converged-OPLS-2005>
0

> <r_mmod_RMS_Derivative-OPLS-2005>
1.64744889736176

$$$$
84
                    3D
 Structure written by MMmdl.
158167  0  0  1  0            999 V2000
  -30.6889  -14.5362   20.5433 C   0  0  0  0  0  0
  -30.4258  -12.3448   19.4308 C   0  0  0  0  0  0
  -29.4961  -12.4868   18.2087 C   0  0  0  0  0  0
  -28.0221  -12.3332   18.6307 C   0  0  0  0  0  0
  -27.6545  -13.2094   19.8584 C   0  0  2  0  0  0
  -28.6965  -13.0538   20.9879 C   0  0  0  0  0  0
  -25.2589  -13.8172   20.5699 C   0  0  0  0  0  0
  -24.1856  -13.0440   20.9218 C   0  0  0  0  0  0
  -24.6392  -11.6911   20.8754 C   0  0  0  0  0  0
  -23.9054  -10.4303   21.0437 C   0  0  0  0  0  0
  -24.3602   -9.4225   21.9213 C   0  0  0  0  0  0
  -23.6285   -8.2257   22.0774 C   0  0  0  0  0  0
  -22.4271   -8.0297   21.3563 C   0  0  0  0  0  0
  -21.9911   -9.0279   20.4676 C   0  0  0  0  0  0
  -22.7239  -10.2155   20.3079 C   0  0  0  0  0  0
  -21.6855   -6.0736   22.5297 C   0  0  0  0  0  0
  -21.4027   -6.5634   23.8234 C   0  0  0  0  0  0
  -21.3647   -5.6786   24.9193 C   0  0  0  0  0  0
  -21.6044   -4.3051   24.7248 C   0  0  0  0  0  0
  -21.8804   -3.8141   23.4368 C   0  0  0  0  0  0
  -21.9200   -4.6961   22.3426 C   0  0  0  0  0  0
  -22.7880  -13.5276   21.1854 C   0  0  0  0  0  0
  -22.1672   -4.2136   21.1003 F   0  0  0  0  0  0
  -21.5617   -3.4532   25.7766 F   0  0  0  0  0  0
  -30.0184  -13.3574   20.4199 N   0  0  0  0  0  0
  -26.2995  -12.9334   20.3304 N   0  0  0  0  0  0
  -25.9321  -11.6485   20.5750 N   0  0  0  0  0  0
  -22.0462  -12.8301   22.0392 N   0  0  0  0  0  0
  -25.4265  -15.1906   20.4136 N   0  0  0  0  0  0
  -31.8568  -14.6691   20.1714 O   0  0  0  0  0  0
  -21.6645   -6.8890   21.4263 O   0  0  0  0  0  0
  -22.3591  -14.5565   20.6678 O   0  0  0  0  0  0
  -24.6178  -31.8623   23.2075 C   0  0  0  0  0  0
  -25.9057  -32.4792   23.8372 C   0  0  1  0  0  0
  -27.2274  -27.3815   20.0864 C   0  0  0  0  0  0
  -25.5881  -33.8578   24.2309 N   0  0  0  0  0  0
  -23.4072  -30.4892   21.5486 C   0  0  2  0  0  0
  -24.8553  -28.9546   20.1120 C   0  0  0  0  0  0
  -22.7414  -29.4644   22.4971 C   0  0  0  0  0  0
  -18.0239  -28.1380   22.8502 C   0  0  0  0  0  0
  -24.1446  -36.7258   23.2656 C   0  0  0  0  0  0
  -25.9439  -30.8153   21.3677 C   0  0  0  0  0  0
  -26.0224  -29.4470   20.7085 C   0  0  0  0  0  0
  -27.2118  -28.6669   20.6970 C   0  0  0  0  0  0
  -26.0277  -26.9136   19.5207 C   0  0  0  0  0  0
  -24.8542  -27.6850   19.5173 C   0  0  0  0  0  0
  -23.6183  -29.8242   20.1630 C   0  0  0  0  0  0
  -25.4075  -36.3071   24.0354 C   0  0  1  0  0  0
  -20.5843  -28.3645   23.1321 C   0  0  2  0  0  0
  -20.6715  -26.9375   22.5426 C   0  0  0  0  0  0
  -19.5699  -26.6391   21.5204 C   0  0  0  0  0  0
  -18.1879  -26.7922   22.1632 C   0  0  0  0  0  0
  -19.1502  -28.8830   23.2905 C   0  0  0  0  0  0
  -18.9434  -30.1438   23.8909 C   0  0  0  0  0  0
  -17.6451  -30.6595   24.0554 C   0  0  0  0  0  0
  -25.9023  -34.9447   23.5129 C   0  0  0  0  0  0
  -16.5331  -29.9105   23.6334 C   0  0  0  0  0  0
  -16.7230  -28.6506   23.0372 C   0  0  0  0  0  0
  -26.4498  -31.6585   25.0713 C   0  0  0  0  0  0
  -25.3794  -31.3673   26.1480 C   0  0  0  0  0  0
  -27.0315  -30.3009   24.6135 C   0  0  0  0  0  0
  -27.6056  -32.4317   25.7491 C   0  0  0  0  0  0
  -27.5536  -37.1777   24.8487 C   0  0  0  0  0  0
  -21.4137  -29.3013   22.3728 N   0  0  0  0  0  0
  -26.4238  -37.3783   23.9441 N   0  0  0  0  0  0
  -24.6748  -31.0703   22.0996 N   0  0  0  0  0  0
  -23.4165  -28.8194   23.3039 O   0  0  0  0  0  0
  -28.3545  -26.5688   20.1258 O   0  0  0  0  0  0
  -26.5592  -34.8921   22.4702 O   0  0  0  0  0  0
  -23.5368  -32.1392   23.7454 O   0  0  0  0  0  0
  -30.0813  -22.6197   19.3007 C   0  0  0  0  0  0
  -27.9891  -22.4178   20.4897 C   0  0  0  0  0  0
  -30.5126  -21.3930   19.8566 C   0  0  0  0  0  0
  -28.4079  -21.1683   21.0257 C   0  0  0  0  0  0
  -28.7981  -23.1499   19.5801 C   0  0  0  0  0  0
  -29.6692  -20.6209   20.6828 C   0  0  0  0  0  0
  -26.9603  -23.9571   17.9214 C   0  0  0  0  0  0
  -28.2689  -23.9191   17.2141 C   0  0  0  0  0  0
  -28.2337  -24.2793   18.7021 C   0  0  0  0  0  0
  -28.7100  -25.7524   18.9751 C   0  0  0  0  0  0
  -30.4891  -16.9934   21.1362 C   0  0  0  0  0  0
  -29.5081  -18.1749   20.8319 C   0  0  0  0  0  0
  -29.9664  -15.6135   20.9353 N   0  0  0  0  0  0
  -30.1507  -19.4195   21.1868 O   0  0  0  0  0  0
  -31.4666  -12.4541   19.1214 H   0  0  0  0  0  0
  -30.3495  -11.3457   19.8604 H   0  0  0  0  0  0
  -29.7516  -11.7429   17.4524 H   0  0  0  0  0  0
  -29.6504  -13.4607   17.7436 H   0  0  0  0  0  0
  -27.8570  -11.2810   18.8666 H   0  0  0  0  0  0
  -27.3638  -12.5611   17.7913 H   0  0  0  0  0  0
  -27.6779  -14.2428   19.5129 H   0  0  0  0  0  0
  -28.6902  -12.0373   21.3860 H   0  0  0  0  0  0
  -28.4530  -13.7047   21.8287 H   0  0  0  0  0  0
  -25.2727   -9.5719   22.4792 H   0  0  0  0  0  0
  -24.0000   -7.4649   22.7476 H   0  0  0  0  0  0
  -21.0844   -8.8809   19.8972 H   0  0  0  0  0  0
  -22.3707  -10.9704   19.6184 H   0  0  0  0  0  0
  -21.2016   -7.6135   23.9750 H   0  0  0  0  0  0
  -21.1481   -6.0508   25.9101 H   0  0  0  0  0  0
  -22.0583   -2.7599   23.2884 H   0  0  0  0  0  0
  -22.4016  -11.9974   22.4837 H   0  0  0  0  0  0
  -21.1075  -13.1395   22.2490 H   0  0  0  0  0  0
  -24.6497  -15.8345   20.5312 H   0  0  0  0  0  0
  -26.2634  -15.6428   20.0687 H   0  0  0  0  0  0
  -26.7109  -32.5500   23.1109 H   0  0  0  0  0  0
  -24.9950  -33.9741   25.0401 H   0  0  0  0  0  0
  -22.6961  -31.3056   21.4096 H   0  0  0  0  0  0
  -23.3710  -35.9590   23.3354 H   0  0  0  0  0  0
  -24.3523  -36.8829   22.2061 H   0  0  0  0  0  0
  -23.7195  -37.6480   23.6637 H   0  0  0  0  0  0
  -26.0603  -31.5855   20.6033 H   0  0  0  0  0  0
  -26.8287  -30.8674   21.9908 H   0  0  0  0  0  0
  -28.1139  -29.0410   21.1614 H   0  0  0  0  0  0
  -25.9612  -25.9157   19.1429 H   0  0  0  0  0  0
  -23.9496  -27.2805   19.0836 H   0  0  0  0  0  0
  -23.7279  -30.5981   19.4033 H   0  0  0  0  0  0
  -22.7409  -29.2464   19.8649 H   0  0  0  0  0  0
  -25.1250  -36.1918   25.0846 H   0  0  0  0  0  0
  -20.9914  -28.3178   24.1449 H   0  0  0  0  0  0
  -20.5548  -26.2241   23.3610 H   0  0  0  0  0  0
  -21.6591  -26.7376   22.1252 H   0  0  0  0  0  0
  -19.6843  -25.6308   21.1204 H   0  0  0  0  0  0
  -19.6643  -27.3220   20.6754 H   0  0  0  0  0  0
  -17.4135  -26.6645   21.4056 H   0  0  0  0  0  0
  -18.0306  -26.0076   22.9047 H   0  0  0  0  0  0
  -19.7924  -30.7243   24.2283 H   0  0  0  0  0  0
  -17.5018  -31.6288   24.5146 H   0  0  0  0  0  0
  -15.5335  -30.3018   23.7689 H   0  0  0  0  0  0
  -15.8616  -28.0846   22.7114 H   0  0  0  0  0  0
  -24.5986  -30.6995   25.7842 H   0  0  0  0  0  0
  -24.8980  -32.2811   26.4960 H   0  0  0  0  0  0
  -25.8220  -30.8848   27.0204 H   0  0  0  0  0  0
  -26.2858  -29.6779   24.1188 H   0  0  0  0  0  0
  -27.4028  -29.7263   25.4630 H   0  0  0  0  0  0
  -27.8733  -30.4286   23.9331 H   0  0  0  0  0  0
  -27.2651  -33.3599   26.2097 H   0  0  0  0  0  0
  -28.3870  -32.6898   25.0332 H   0  0  0  0  0  0
  -28.0717  -31.8413   26.5397 H   0  0  0  0  0  0
  -28.2598  -38.0031   24.7470 H   0  0  0  0  0  0
  -28.0975  -36.2556   24.6361 H   0  0  0  0  0  0
  -27.2249  -37.1484   25.8895 H   0  0  0  0  0  0
  -20.9280  -29.8748   21.6980 H   0  0  0  0  0  0
  -26.0109  -38.2846   24.1496 H   0  0  0  0  0  0
  -30.7256  -23.1241   18.5935 H   0  0  0  0  0  0
  -26.9957  -22.7707   20.7272 H   0  0  0  0  0  0
  -31.5007  -21.0236   19.6171 H   0  0  0  0  0  0
  -27.7502  -20.6360   21.6985 H   0  0  0  0  0  0
  -26.2997  -24.7249   17.5316 H   0  0  0  0  0  0
  -26.4781  -23.0037   18.1284 H   0  0  0  0  0  0
  -28.4460  -24.7101   16.4844 H   0  0  0  0  0  0
  -28.6353  -22.9386   16.9153 H   0  0  0  0  0  0
  -29.7999  -25.7282   18.9645 H   0  0  0  0  0  0
  -28.4510  -26.3494   18.0992 H   0  0  0  0  0  0
  -30.7928  -17.0659   22.1796 H   0  0  0  0  0  0
  -31.3967  -17.1538   20.5470 H   0  0  0  0  0  0
  -28.5785  -18.0555   21.3925 H   0  0  0  0  0  0
  -29.2568  -18.1784   19.7705 H   0  0  0  0  0  0
  -28.9899  -15.4576   21.1398 H   0  0  0  0  0  0
  1 25  1  0  0  0
  1 30  2  0  0  0
  1 83  1  0  0  0
  2  3  1  0  0  0
  2 25  1  0  0  0
  2 85  1  0  0  0
  2 86  1  0  0  0
  3  4  1  0  0  0
  3 87  1  0  0  0
  3 88  1  0  0  0
  4  5  1  0  0  0
  4 89  1  0  0  0
  4 90  1  0  0  0
  5  6  1  0  0  0
  5 26  1  0  0  0
  5 91  1  0  0  0
  6 25  1  0  0  0
  6 92  1  0  0  0
  6 93  1  0  0  0
  7  8  2  0  0  0
  7 26  1  0  0  0
  7 29  1  0  0  0
  8  9  1  0  0  0
  8 22  1  0  0  0
  9 10  1  0  0  0
  9 27  2  0  0  0
 10 11  2  0  0  0
 10 15  1  0  0  0
 11 12  1  0  0  0
 11 94  1  0  0  0
 12 13  2  0  0  0
 12 95  1  0  0  0
 13 14  1  0  0  0
 13 31  1  0  0  0
 14 15  2  0  0  0
 14 96  1  0  0  0
 15 97  1  0  0  0
 16 17  2  0  0  0
 16 21  1  0  0  0
 16 31  1  0  0  0
 17 18  1  0  0  0
 17 98  1  0  0  0
 18 19  2  0  0  0
 18 99  1  0  0  0
 19 20  1  0  0  0
 19 24  1  0  0  0
 20 21  2  0  0  0
 20100  1  0  0  0
 21 23  1  0  0  0
 22 28  1  0  0  0
 22 32  2  0  0  0
 26 27  1  0  0  0
 28101  1  0  0  0
 28102  1  0  0  0
 29103  1  0  0  0
 29104  1  0  0  0
 33 34  1  0  0  0
 33 66  1  0  0  0
 33 70  2  0  0  0
 34 36  1  0  0  0
 34 59  1  0  0  0
 34105  1  0  0  0
 35 44  2  0  0  0
 35 45  1  0  0  0
 35 68  1  0  0  0
 36 56  1  0  0  0
 36106  1  0  0  0
 37 39  1  0  0  0
 37 47  1  0  0  0
 37 66  1  0  0  0
 37107  1  0  0  0
 38 43  2  0  0  0
 38 46  1  0  0  0
 38 47  1  0  0  0
 39 64  1  0  0  0
 39 67  2  0  0  0
 40 52  1  0  0  0
 40 53  2  0  0  0
 40 58  1  0  0  0
 41108  1  0  0  0
 41109  1  0  0  0
 41110  1  0  0  0
 41 48  1  0  0  0
 42 43  1  0  0  0
 42 66  1  0  0  0
 42111  1  0  0  0
 42112  1  0  0  0
 43 44  1  0  0  0
 44113  1  0  0  0
 45 46  2  0  0  0
 45114  1  0  0  0
 46115  1  0  0  0
 47116  1  0  0  0
 47117  1  0  0  0
 48 56  1  0  0  0
 48 65  1  0  0  0
 48118  1  0  0  0
 49 50  1  0  0  0
 49 53  1  0  0  0
 49 64  1  0  0  0
 49119  1  0  0  0
 50 51  1  0  0  0
 50120  1  0  0  0
 50121  1  0  0  0
 51 52  1  0  0  0
 51122  1  0  0  0
 51123  1  0  0  0
 52124  1  0  0  0
 52125  1  0  0  0
 53 54  1  0  0  0
 54 55  2  0  0  0
 54126  1  0  0  0
 55 57  1  0  0  0
 55127  1  0  0  0
 56 69  2  0  0  0
 57 58  2  0  0  0
 57128  1  0  0  0
 58129  1  0  0  0
 59 60  1  0  0  0
 59 61  1  0  0  0
 59 62  1  0  0  0
 60130  1  0  0  0
 60131  1  0  0  0
 60132  1  0  0  0
 61133  1  0  0  0
 61134  1  0  0  0
 61135  1  0  0  0
 62136  1  0  0  0
 62137  1  0  0  0
 62138  1  0  0  0
 63 65  1  0  0  0
 63139  1  0  0  0
 63140  1  0  0  0
 63141  1  0  0  0
 64142  1  0  0  0
 65143  1  0  0  0
 68 80  1  0  0  0
 71 73  2  0  0  0
 71 75  1  0  0  0
 71144  1  0  0  0
 72 74  1  0  0  0
 72 75  2  0  0  0
 72145  1  0  0  0
 73 76  1  0  0  0
 73146  1  0  0  0
 74 76  2  0  0  0
 74147  1  0  0  0
 75 79  1  0  0  0
 76 84  1  0  0  0
 77 78  1  0  0  0
 77 79  1  0  0  0
 77148  1  0  0  0
 77149  1  0  0  0
 78 79  1  0  0  0
 78150  1  0  0  0
 78151  1  0  0  0
 79 80  1  0  0  0
 80152  1  0  0  0
 80153  1  0  0  0
 81 82  1  0  0  0
 81 83  1  0  0  0
 81154  1  0  0  0
 81155  1  0  0  0
 82 84  1  0  0  0
 82156  1  0  0  0
 82157  1  0  0  0
 83158  1  0  0  0
M  ISO  4   1 100  68 101  80 101  83 100
M  END
> <chiral flag>
0

> <version>
0

> <s_m_source_file>
/data/baiqing/PycharmProjects/Reinvent-master-3.2/result/LINK_invent/BTK/process_docking_weight1_custom_sum_contain_oxygen_bond_distance_aromatic_linkinvent_7_9_3/rearranged_h_0143.sdf

> <i_m_source_file_index>
83

> <r_mmod_Potential_Energy-OPLS-2005>
32.9100074768066

> <r_mmod_Stretch_Energy-OPLS-2005>
54.4373321533203

> <r_mmod_Bend_Energy-OPLS-2005>
144.657241821289

> <r_mmod_Torsional_Energy-OPLS-2005>
274.645355224609

> <r_mmod_Improper_Torsional_Energy-OPLS-2005>
5.98449087142944

> <r_mmod_Van_der_Waal_Energy-OPLS-2005>
146.086975097656

> <r_mmod_Electrostatic_Energy-OPLS-2005>
-407.409851074219

> <r_mmod_Solvation_Energy-OPLS-2005>
-212.340255737305

> <b_mmod_Minimization_Converged-OPLS-2005>
0

> <r_mmod_RMS_Derivative-OPLS-2005>
4.03791475296021

$$$$
85
                    3D
 Structure written by MMmdl.
170180  0  0  1  0            999 V2000
  -30.6886  -14.6422   20.4964 C   0  0  0  0  0  0
  -30.4274  -12.3948   19.4689 C   0  0  0  0  0  0
  -29.5096  -12.5055   18.2346 C   0  0  0  0  0  0
  -28.0354  -12.3425   18.6482 C   0  0  0  0  0  0
  -27.6523  -13.2336   19.8601 C   0  0  2  0  0  0
  -28.6982  -13.1445   20.9961 C   0  0  0  0  0  0
  -25.2550  -13.8237   20.5707 C   0  0  0  0  0  0
  -24.1821  -13.0456   20.9198 C   0  0  0  0  0  0
  -24.6422  -11.6945   20.8748 C   0  0  0  0  0  0
  -23.9088  -10.4306   21.0409 C   0  0  0  0  0  0
  -24.3632   -9.4216   21.9191 C   0  0  0  0  0  0
  -23.6292   -8.2261   22.0772 C   0  0  0  0  0  0
  -22.4275   -8.0306   21.3560 C   0  0  0  0  0  0
  -21.9921   -9.0276   20.4655 C   0  0  0  0  0  0
  -22.7261  -10.2145   20.3052 C   0  0  0  0  0  0
  -21.6851   -6.0736   22.5272 C   0  0  0  0  0  0
  -21.4013   -6.5638   23.8204 C   0  0  0  0  0  0
  -21.3663   -5.6796   24.9174 C   0  0  0  0  0  0
  -21.6048   -4.3055   24.7227 C   0  0  0  0  0  0
  -21.8819   -3.8142   23.4348 C   0  0  0  0  0  0
  -21.9189   -4.6960   22.3399 C   0  0  0  0  0  0
  -22.7833  -13.5236   21.1847 C   0  0  0  0  0  0
  -22.1654   -4.2145   21.0973 F   0  0  0  0  0  0
  -21.5639   -3.4537   25.7738 F   0  0  0  0  0  0
  -30.0142  -13.4499   20.4209 N   0  0  0  0  0  0
  -26.2995  -12.9447   20.3331 N   0  0  0  0  0  0
  -25.9359  -11.6584   20.5787 N   0  0  0  0  0  0
  -22.0463  -12.8211   22.0397 N   0  0  0  0  0  0
  -25.4234  -15.1960   20.4131 N   0  0  0  0  0  0
  -31.8704  -14.7057   20.1532 O   0  0  0  0  0  0
  -21.6642   -6.8897   21.4241 O   0  0  0  0  0  0
  -22.3512  -14.5538   20.6704 O   0  0  0  0  0  0
  -24.6212  -31.8610   23.2054 C   0  0  0  0  0  0
  -25.9056  -32.4788   23.8368 C   0  0  1  0  0  0
  -27.2218  -27.3639   20.0995 C   0  0  0  0  0  0
  -25.5874  -33.8586   24.2282 N   0  0  0  0  0  0
  -23.4144  -30.4836   21.5484 C   0  0  2  0  0  0
  -24.8627  -28.9479   20.1053 C   0  0  0  0  0  0
  -22.7454  -29.4623   22.4980 C   0  0  0  0  0  0
  -18.0268  -28.1418   22.8488 C   0  0  0  0  0  0
  -24.1487  -36.7345   23.2646 C   0  0  0  0  0  0
  -25.9486  -30.8069   21.3649 C   0  0  0  0  0  0
  -26.0277  -29.4348   20.7138 C   0  0  0  0  0  0
  -27.2143  -28.6476   20.7139 C   0  0  0  0  0  0
  -26.0489  -26.9256   19.4525 C   0  0  0  0  0  0
  -24.8733  -27.6981   19.4644 C   0  0  0  0  0  0
  -23.6225  -29.8150   20.1640 C   0  0  0  0  0  0
  -25.4103  -36.3098   24.0328 C   0  0  1  0  0  0
  -20.5856  -28.3706   23.1321 C   0  0  2  0  0  0
  -20.6759  -26.9448   22.5415 C   0  0  0  0  0  0
  -19.5738  -26.6418   21.5219 C   0  0  0  0  0  0
  -18.1917  -26.7955   22.1627 C   0  0  0  0  0  0
  -19.1514  -28.8884   23.2889 C   0  0  0  0  0  0
  -18.9427  -30.1476   23.8926 C   0  0  0  0  0  0
  -17.6435  -30.6620   24.0574 C   0  0  0  0  0  0
  -25.9026  -34.9464   23.5109 C   0  0  0  0  0  0
  -16.5324  -29.9112   23.6336 C   0  0  0  0  0  0
  -16.7254  -28.6526   23.0363 C   0  0  0  0  0  0
  -26.4473  -31.6585   25.0713 C   0  0  0  0  0  0
  -25.3709  -31.3658   26.1432 C   0  0  0  0  0  0
  -27.0340  -30.3041   24.6085 C   0  0  0  0  0  0
  -27.6052  -32.4325   25.7464 C   0  0  0  0  0  0
  -27.5572  -37.1809   24.8467 C   0  0  0  0  0  0
  -21.4172  -29.3058   22.3737 N   0  0  0  0  0  0
  -26.4291  -37.3772   23.9403 N   0  0  0  0  0  0
  -24.6809  -31.0649   22.0987 N   0  0  0  0  0  0
  -23.4191  -28.8144   23.3029 O   0  0  0  0  0  0
  -28.2903  -26.4745   20.1556 O   0  0  0  0  0  0
  -26.5623  -34.8925   22.4691 O   0  0  0  0  0  0
  -23.5372  -32.1389   23.7389 O   0  0  0  0  0  0
  -29.5627  -23.4606   20.1834 C   0  0  0  0  0  0
  -27.7608  -22.9477   21.6623 C   0  0  0  0  0  0
  -29.9842  -22.0872   20.2012 C   0  0  0  0  0  0
  -29.3163  -21.1027   21.0229 C   0  0  0  0  0  0
  -28.4653  -23.9316   20.9366 C   0  0  0  0  0  0
  -28.1614  -21.5856   21.7180 C   0  0  0  0  0  0
  -31.4427  -22.4333   18.0296 C   0  0  0  0  0  0
  -31.1844  -20.9531   18.1303 C   0  0  0  0  0  0
  -31.3292  -19.3030   21.4158 C   0  0  0  0  0  0
  -31.4298  -17.7620   21.4234 C   0  0  0  0  0  0
  -29.2372  -18.3502   20.5793 C   0  0  0  0  0  0
  -31.2134  -21.7917   19.3867 C   0  0  0  0  0  0
  -29.8249  -19.6128   21.3209 C   0  0  2  0  0  0
  -30.3652  -17.2357   20.4336 C   0  0  1  0  0  0
  -27.3382  -20.6802   22.6254 C   0  0  0  0  0  0
  -30.8905  -17.3269   18.9830 C   0  0  0  0  0  0
  -28.0854  -25.4358   21.1681 C   0  0  0  0  0  0
  -29.9692  -15.7954   20.7297 N   0  0  0  0  0  0
  -31.4715  -12.4869   19.1639 H   0  0  0  0  0  0
  -30.3402  -11.4108   19.9317 H   0  0  0  0  0  0
  -29.7792  -11.7524   17.4926 H   0  0  0  0  0  0
  -29.6561  -13.4762   17.7568 H   0  0  0  0  0  0
  -27.8801  -11.2931   18.8996 H   0  0  0  0  0  0
  -27.3807  -12.5522   17.8015 H   0  0  0  0  0  0
  -27.6579  -14.2606   19.4936 H   0  0  0  0  0  0
  -28.7066  -12.1511   21.4435 H   0  0  0  0  0  0
  -28.4547  -13.8406   21.8004 H   0  0  0  0  0  0
  -25.2786   -9.5683   22.4764 H   0  0  0  0  0  0
  -23.9983   -7.4666   22.7513 H   0  0  0  0  0  0
  -21.0849   -8.8807   19.8969 H   0  0  0  0  0  0
  -22.3736  -10.9684   19.6155 H   0  0  0  0  0  0
  -21.1999   -7.6148   23.9707 H   0  0  0  0  0  0
  -21.1488   -6.0527   25.9079 H   0  0  0  0  0  0
  -22.0594   -2.7604   23.2847 H   0  0  0  0  0  0
  -22.4041  -11.9837   22.4744 H   0  0  0  0  0  0
  -21.1100  -13.1276   22.2628 H   0  0  0  0  0  0
  -24.6608  -15.8545   20.5342 H   0  0  0  0  0  0
  -26.2760  -15.6359   20.0903 H   0  0  0  0  0  0
  -26.7124  -32.5482   23.1123 H   0  0  0  0  0  0
  -24.9940  -33.9733   25.0370 H   0  0  0  0  0  0
  -22.7048  -31.3013   21.4069 H   0  0  0  0  0  0
  -23.3737  -35.9687   23.3274 H   0  0  0  0  0  0
  -24.3579  -36.9019   22.2068 H   0  0  0  0  0  0
  -23.7262  -37.6537   23.6705 H   0  0  0  0  0  0
  -26.0497  -31.5630   20.5848 H   0  0  0  0  0  0
  -26.8413  -30.8769   21.9743 H   0  0  0  0  0  0
  -28.1073  -29.0001   21.2123 H   0  0  0  0  0  0
  -26.0379  -25.9641   18.9578 H   0  0  0  0  0  0
  -23.9816  -27.3299   18.9749 H   0  0  0  0  0  0
  -23.7152  -30.5857   19.3990 H   0  0  0  0  0  0
  -22.7476  -29.2251   19.8821 H   0  0  0  0  0  0
  -25.1280  -36.1943   25.0813 H   0  0  0  0  0  0
  -20.9914  -28.3277   24.1451 H   0  0  0  0  0  0
  -20.5699  -26.2320   23.3600 H   0  0  0  0  0  0
  -21.6624  -26.7526   22.1183 H   0  0  0  0  0  0
  -19.6908  -25.6329   21.1258 H   0  0  0  0  0  0
  -19.6672  -27.3220   20.6745 H   0  0  0  0  0  0
  -17.4179  -26.6720   21.4025 H   0  0  0  0  0  0
  -18.0299  -26.0102   22.9021 H   0  0  0  0  0  0
  -19.7904  -30.7279   24.2326 H   0  0  0  0  0  0
  -17.4991  -31.6299   24.5180 H   0  0  0  0  0  0
  -15.5325  -30.3032   23.7670 H   0  0  0  0  0  0
  -15.8638  -28.0860   22.7097 H   0  0  0  0  0  0
  -24.5927  -30.6968   25.7740 H   0  0  0  0  0  0
  -24.8826  -32.2781   26.4856 H   0  0  0  0  0  0
  -25.8028  -30.8838   27.0207 H   0  0  0  0  0  0
  -26.2887  -29.6746   24.1201 H   0  0  0  0  0  0
  -27.4228  -29.7309   25.4518 H   0  0  0  0  0  0
  -27.8658  -30.4430   23.9177 H   0  0  0  0  0  0
  -27.2724  -33.3702   26.1923 H   0  0  0  0  0  0
  -28.3885  -32.6741   25.0273 H   0  0  0  0  0  0
  -28.0665  -31.8501   26.5443 H   0  0  0  0  0  0
  -28.2573  -38.0121   24.7502 H   0  0  0  0  0  0
  -28.1082  -36.2638   24.6306 H   0  0  0  0  0  0
  -27.2280  -37.1475   25.8869 H   0  0  0  0  0  0
  -20.9363  -29.8794   21.6953 H   0  0  0  0  0  0
  -26.0183  -38.2851   24.1373 H   0  0  0  0  0  0
  -30.1283  -24.1872   19.6167 H   0  0  0  0  0  0
  -26.9134  -23.2660   22.2540 H   0  0  0  0  0  0
  -30.6531  -23.0392   17.5881 H   0  0  0  0  0  0
  -32.4566  -22.7340   17.7714 H   0  0  0  0  0  0
  -32.0335  -20.2946   17.9540 H   0  0  0  0  0  0
  -30.2259  -20.5985   17.7552 H   0  0  0  0  0  0
  -31.8826  -19.6468   20.5495 H   0  0  0  0  0  0
  -31.7884  -19.7462   22.3007 H   0  0  0  0  0  0
  -31.2140  -17.4014   22.4316 H   0  0  0  0  0  0
  -32.4381  -17.4216   21.1730 H   0  0  0  0  0  0
  -28.8549  -18.6465   19.6023 H   0  0  0  0  0  0
  -28.3776  -17.9709   21.1317 H   0  0  0  0  0  0
  -32.0892  -21.7559   20.0313 H   0  0  0  0  0  0
  -29.5327  -19.4551   22.3590 H   0  0  0  0  0  0
  -26.3695  -21.1213   22.8644 H   0  0  0  0  0  0
  -27.8595  -20.5105   23.5684 H   0  0  0  0  0  0
  -27.1408  -19.7175   22.1568 H   0  0  0  0  0  0
  -30.9858  -18.3581   18.6554 H   0  0  0  0  0  0
  -30.2089  -16.8339   18.2895 H   0  0  0  0  0  0
  -31.8773  -16.8798   18.8644 H   0  0  0  0  0  0
  -28.6380  -25.7613   22.0499 H   0  0  0  0  0  0
  -27.0420  -25.4378   21.4887 H   0  0  0  0  0  0
  -29.0139  -15.6515   21.0200 H   0  0  0  0  0  0
  1 25  1  0  0  0
  1 30  2  0  0  0
  1 88  1  0  0  0
  2  3  1  0  0  0
  2 25  1  0  0  0
  2 89  1  0  0  0
  2 90  1  0  0  0
  3  4  1  0  0  0
  3 91  1  0  0  0
  3 92  1  0  0  0
  4  5  1  0  0  0
  4 93  1  0  0  0
  4 94  1  0  0  0
  5  6  1  0  0  0
  5 26  1  0  0  0
  5 95  1  0  0  0
  6 25  1  0  0  0
  6 96  1  0  0  0
  6 97  1  0  0  0
  7  8  2  0  0  0
  7 26  1  0  0  0
  7 29  1  0  0  0
  8  9  1  0  0  0
  8 22  1  0  0  0
  9 10  1  0  0  0
  9 27  2  0  0  0
 10 11  2  0  0  0
 10 15  1  0  0  0
 11 12  1  0  0  0
 11 98  1  0  0  0
 12 13  2  0  0  0
 12 99  1  0  0  0
 13 14  1  0  0  0
 13 31  1  0  0  0
 14 15  2  0  0  0
 14100  1  0  0  0
 15101  1  0  0  0
 16 17  2  0  0  0
 16 21  1  0  0  0
 16 31  1  0  0  0
 17 18  1  0  0  0
 17102  1  0  0  0
 18 19  2  0  0  0
 18103  1  0  0  0
 19 20  1  0  0  0
 19 24  1  0  0  0
 20 21  2  0  0  0
 20104  1  0  0  0
 21 23  1  0  0  0
 22 28  1  0  0  0
 22 32  2  0  0  0
 26 27  1  0  0  0
 28105  1  0  0  0
 28106  1  0  0  0
 29107  1  0  0  0
 29108  1  0  0  0
 33 34  1  0  0  0
 33 66  1  0  0  0
 33 70  2  0  0  0
 34 36  1  0  0  0
 34 59  1  0  0  0
 34109  1  0  0  0
 35 44  2  0  0  0
 35 45  1  0  0  0
 35 68  1  0  0  0
 36 56  1  0  0  0
 36110  1  0  0  0
 37 39  1  0  0  0
 37 47  1  0  0  0
 37 66  1  0  0  0
 37111  1  0  0  0
 38 43  2  0  0  0
 38 46  1  0  0  0
 38 47  1  0  0  0
 39 64  1  0  0  0
 39 67  2  0  0  0
 40 52  1  0  0  0
 40 53  2  0  0  0
 40 58  1  0  0  0
 41112  1  0  0  0
 41113  1  0  0  0
 41114  1  0  0  0
 41 48  1  0  0  0
 42 43  1  0  0  0
 42 66  1  0  0  0
 42115  1  0  0  0
 42116  1  0  0  0
 43 44  1  0  0  0
 44117  1  0  0  0
 45 46  2  0  0  0
 45118  1  0  0  0
 46119  1  0  0  0
 47120  1  0  0  0
 47121  1  0  0  0
 48 56  1  0  0  0
 48 65  1  0  0  0
 48122  1  0  0  0
 49 50  1  0  0  0
 49 53  1  0  0  0
 49 64  1  0  0  0
 49123  1  0  0  0
 50 51  1  0  0  0
 50124  1  0  0  0
 50125  1  0  0  0
 51 52  1  0  0  0
 51126  1  0  0  0
 51127  1  0  0  0
 52128  1  0  0  0
 52129  1  0  0  0
 53 54  1  0  0  0
 54 55  2  0  0  0
 54130  1  0  0  0
 55 57  1  0  0  0
 55131  1  0  0  0
 56 69  2  0  0  0
 57 58  2  0  0  0
 57132  1  0  0  0
 58133  1  0  0  0
 59 60  1  0  0  0
 59 61  1  0  0  0
 59 62  1  0  0  0
 60134  1  0  0  0
 60135  1  0  0  0
 60136  1  0  0  0
 61137  1  0  0  0
 61138  1  0  0  0
 61139  1  0  0  0
 62140  1  0  0  0
 62141  1  0  0  0
 62142  1  0  0  0
 63 65  1  0  0  0
 63143  1  0  0  0
 63144  1  0  0  0
 63145  1  0  0  0
 64146  1  0  0  0
 65147  1  0  0  0
 68 87  1  0  0  0
 71 73  2  0  0  0
 71 75  1  0  0  0
 71148  1  0  0  0
 72 75  2  0  0  0
 72 76  1  0  0  0
 72149  1  0  0  0
 73 74  1  0  0  0
 73 82  1  0  0  0
 74 76  2  0  0  0
 74 83  1  0  0  0
 75 87  1  0  0  0
 76 85  1  0  0  0
 77 78  1  0  0  0
 77 82  1  0  0  0
 77150  1  0  0  0
 77151  1  0  0  0
 78 82  1  0  0  0
 78152  1  0  0  0
 78153  1  0  0  0
 79 80  1  0  0  0
 79 83  1  0  0  0
 79154  1  0  0  0
 79155  1  0  0  0
 80 84  1  0  0  0
 80156  1  0  0  0
 80157  1  0  0  0
 81 83  1  0  0  0
 81 84  1  0  0  0
 81158  1  0  0  0
 81159  1  0  0  0
 82160  1  0  0  0
 83161  1  0  0  0
 84 86  1  0  0  0
 84 88  1  0  0  0
 85162  1  0  0  0
 85163  1  0  0  0
 85164  1  0  0  0
 86165  1  0  0  0
 86166  1  0  0  0
 86167  1  0  0  0
 87168  1  0  0  0
 87169  1  0  0  0
 88170  1  0  0  0
M  ISO  4   1 100  68 101  87 101  88 100
M  END
> <chiral flag>
0

> <version>
0

> <s_m_source_file>
/data/baiqing/PycharmProjects/Reinvent-master-3.2/result/LINK_invent/BTK/process_docking_weight1_custom_sum_contain_oxygen_bond_distance_aromatic_linkinvent_7_9_3/rearranged_h_0143.sdf

> <i_m_source_file_index>
84

> <r_mmod_Potential_Energy-OPLS-2005>
216.46418762207

> <r_mmod_Stretch_Energy-OPLS-2005>
84.8897094726562

> <r_mmod_Bend_Energy-OPLS-2005>
185.308517456055

> <r_mmod_Torsional_Energy-OPLS-2005>
317.628936767578

> <r_mmod_Improper_Torsional_Energy-OPLS-2005>
6.9030876159668

> <r_mmod_Van_der_Waal_Energy-OPLS-2005>
145.384292602539

> <r_mmod_Electrostatic_Energy-OPLS-2005>
-374.944793701172

> <r_mmod_Solvation_Energy-OPLS-2005>
-197.122131347656

> <b_mmod_Minimization_Converged-OPLS-2005>
0

> <r_mmod_RMS_Derivative-OPLS-2005>
3.09588170051575

$$$$
86
                    3D
 Structure written by MMmdl.
173183  0  0  1  0            999 V2000
  -30.6730  -14.5360   20.4158 C   0  0  0  0  0  0
  -30.4189  -12.3029   19.4285 C   0  0  0  0  0  0
  -29.4901  -12.4406   18.2029 C   0  0  0  0  0  0
  -28.0060  -12.3508   18.6172 C   0  0  0  0  0  0
  -27.6501  -13.2023   19.8666 C   0  0  2  0  0  0
  -28.7088  -13.0643   20.9838 C   0  0  0  0  0  0
  -25.2576  -13.8122   20.5734 C   0  0  0  0  0  0
  -24.1824  -13.0397   20.9203 C   0  0  0  0  0  0
  -24.6377  -11.6872   20.8759 C   0  0  0  0  0  0
  -23.9032  -10.4273   21.0434 C   0  0  0  0  0  0
  -24.3620   -9.4205   21.9204 C   0  0  0  0  0  0
  -23.6295   -8.2244   22.0784 C   0  0  0  0  0  0
  -22.4281   -8.0279   21.3564 C   0  0  0  0  0  0
  -21.9917   -9.0242   20.4672 C   0  0  0  0  0  0
  -22.7227  -10.2115   20.3083 C   0  0  0  0  0  0
  -21.6829   -6.0751   22.5283 C   0  0  0  0  0  0
  -21.3991   -6.5658   23.8211 C   0  0  0  0  0  0
  -21.3647   -5.6815   24.9168 C   0  0  0  0  0  0
  -21.6051   -4.3073   24.7223 C   0  0  0  0  0  0
  -21.8810   -3.8165   23.4337 C   0  0  0  0  0  0
  -21.9191   -4.6989   22.3396 C   0  0  0  0  0  0
  -22.7861  -13.5232   21.1867 C   0  0  0  0  0  0
  -22.1663   -4.2195   21.0970 F   0  0  0  0  0  0
  -21.5642   -3.4555   25.7718 F   0  0  0  0  0  0
  -30.0219  -13.3416   20.3888 N   0  0  0  0  0  0
  -26.3009  -12.9274   20.3436 N   0  0  0  0  0  0
  -25.9304  -11.6452   20.5846 N   0  0  0  0  0  0
  -22.0491  -12.8210   22.0390 N   0  0  0  0  0  0
  -25.4346  -15.1837   20.4165 N   0  0  0  0  0  0
  -31.8842  -14.6273   20.1998 O   0  0  0  0  0  0
  -21.6638   -6.8891   21.4247 O   0  0  0  0  0  0
  -22.3567  -14.5572   20.6747 O   0  0  0  0  0  0
  -24.6177  -31.8686   23.2089 C   0  0  0  0  0  0
  -25.9067  -32.4814   23.8404 C   0  0  1  0  0  0
  -27.2382  -27.4177   20.1186 C   0  0  0  0  0  0
  -25.5933  -33.8617   24.2338 N   0  0  0  0  0  0
  -23.4063  -30.4868   21.5502 C   0  0  2  0  0  0
  -24.8585  -28.9460   20.1180 C   0  0  0  0  0  0
  -22.7432  -29.4655   22.5021 C   0  0  0  0  0  0
  -18.0281  -28.1354   22.8498 C   0  0  0  0  0  0
  -24.1483  -36.7280   23.2633 C   0  0  0  0  0  0
  -25.9356  -30.8249   21.3672 C   0  0  0  0  0  0
  -26.0155  -29.4559   20.7210 C   0  0  0  0  0  0
  -27.2117  -28.6994   20.7188 C   0  0  0  0  0  0
  -26.0708  -26.9258   19.5045 C   0  0  0  0  0  0
  -24.8803  -27.6808   19.5050 C   0  0  0  0  0  0
  -23.6179  -29.8147   20.1663 C   0  0  0  0  0  0
  -25.4115  -36.3099   24.0336 C   0  0  1  0  0  0
  -20.5878  -28.3624   23.1328 C   0  0  2  0  0  0
  -20.6765  -26.9362   22.5408 C   0  0  0  0  0  0
  -19.5739  -26.6386   21.5203 C   0  0  0  0  0  0
  -18.1910  -26.7918   22.1592 C   0  0  0  0  0  0
  -19.1531  -28.8815   23.2913 C   0  0  0  0  0  0
  -18.9454  -30.1440   23.8896 C   0  0  0  0  0  0
  -17.6444  -30.6561   24.0566 C   0  0  0  0  0  0
  -25.9050  -34.9465   23.5129 C   0  0  0  0  0  0
  -16.5332  -29.9044   23.6346 C   0  0  0  0  0  0
  -16.7270  -28.6474   23.0344 C   0  0  0  0  0  0
  -26.4486  -31.6582   25.0733 C   0  0  0  0  0  0
  -25.3736  -31.3614   26.1456 C   0  0  0  0  0  0
  -27.0371  -30.3055   24.6093 C   0  0  0  0  0  0
  -27.6074  -32.4293   25.7499 C   0  0  0  0  0  0
  -27.5587  -37.1804   24.8462 C   0  0  0  0  0  0
  -21.4159  -29.3007   22.3757 N   0  0  0  0  0  0
  -26.4291  -37.3797   23.9419 N   0  0  0  0  0  0
  -24.6698  -31.0762   22.0998 N   0  0  0  0  0  0
  -23.4200  -28.8228   23.3092 O   0  0  0  0  0  0
  -28.3812  -26.6499   20.0802 O   0  0  0  0  0  0
  -26.5608  -34.8916   22.4690 O   0  0  0  0  0  0
  -23.5363  -32.1459   23.7462 O   0  0  0  0  0  0
  -30.6407  -21.8021   19.4720 C   0  0  0  0  0  0
  -28.9843  -20.1004   20.8244 C   0  0  0  0  0  0
  -30.8740  -20.4189   19.3482 C   0  0  0  0  0  0
  -30.0311  -19.5225   20.0597 C   0  0  0  0  0  0
  -29.5874  -22.2843   20.2579 C   0  0  0  0  0  0
  -33.2507  -19.3483   18.8723 C   0  0  0  0  0  0
  -33.2571  -20.7322   18.2733 C   0  0  0  0  0  0
  -29.5067  -17.4777   18.6488 C   0  0  0  0  0  0
  -29.6844  -15.9693   18.7635 C   0  0  0  0  0  0
  -31.9552  -19.9685   18.4001 C   0  0  0  0  0  0
  -30.2314  -17.9946   19.8740 C   0  0  2  0  0  0
  -29.8410  -16.9195   20.9359 C   0  0  2  0  0  0
  -32.0987  -17.2264   22.2161 C   0  0  0  0  0  0
  -29.9511  -17.9143   23.3070 C   0  0  0  0  0  0
  -28.6055  -25.7937   21.2186 C   0  0  0  0  0  0
  -28.3202  -24.2745   20.9997 C   0  0  0  0  0  0
  -30.5884  -16.9376   22.3086 C   0  0  0  0  0  0
  -28.7631  -21.4435   20.9285 N   0  0  0  0  0  0
  -29.8722  -15.6191   20.1916 N   0  0  0  0  0  0
  -29.4165  -23.6623   20.3083 O   0  0  0  0  0  0
  -31.4637  -12.3904   19.1238 H   0  0  0  0  0  0
  -30.3198  -11.3127   19.8769 H   0  0  0  0  0  0
  -29.7140  -11.6577   17.4772 H   0  0  0  0  0  0
  -29.6838  -13.3787   17.6805 H   0  0  0  0  0  0
  -27.7899  -11.3009   18.8116 H   0  0  0  0  0  0
  -27.3674  -12.6360   17.7805 H   0  0  0  0  0  0
  -27.6479  -14.2383   19.5484 H   0  0  0  0  0  0
  -28.6948  -12.0627   21.4154 H   0  0  0  0  0  0
  -28.4989  -13.7588   21.7999 H   0  0  0  0  0  0
  -25.2767   -9.5662   22.4772 H   0  0  0  0  0  0
  -23.9998   -7.4627   22.7499 H   0  0  0  0  0  0
  -21.0856   -8.8712   19.8969 H   0  0  0  0  0  0
  -22.3678  -10.9643   19.6190 H   0  0  0  0  0  0
  -21.1957   -7.6163   23.9704 H   0  0  0  0  0  0
  -21.1489   -6.0560   25.9065 H   0  0  0  0  0  0
  -22.0603   -2.7644   23.2812 H   0  0  0  0  0  0
  -22.4082  -11.9820   22.4701 H   0  0  0  0  0  0
  -21.1111  -13.1257   22.2638 H   0  0  0  0  0  0
  -24.6734  -15.8441   20.5213 H   0  0  0  0  0  0
  -26.3046  -15.6165   20.1318 H   0  0  0  0  0  0
  -26.7156  -32.5522   23.1185 H   0  0  0  0  0  0
  -25.0155  -33.9796   25.0525 H   0  0  0  0  0  0
  -22.6957  -31.3034   21.4056 H   0  0  0  0  0  0
  -23.3794  -35.9559   23.3242 H   0  0  0  0  0  0
  -24.3584  -36.8964   22.2063 H   0  0  0  0  0  0
  -23.7154  -37.6425   23.6694 H   0  0  0  0  0  0
  -26.0521  -31.5850   20.5940 H   0  0  0  0  0  0
  -26.8220  -30.8820   21.9872 H   0  0  0  0  0  0
  -28.1102  -29.0890   21.1729 H   0  0  0  0  0  0
  -26.0844  -25.9547   19.0309 H   0  0  0  0  0  0
  -23.9922  -27.2800   19.0363 H   0  0  0  0  0  0
  -23.7226  -30.5878   19.4034 H   0  0  0  0  0  0
  -22.7430  -29.2315   19.8742 H   0  0  0  0  0  0
  -25.1287  -36.1965   25.0822 H   0  0  0  0  0  0
  -20.9965  -28.3156   24.1457 H   0  0  0  0  0  0
  -20.5664  -26.2219   23.3592 H   0  0  0  0  0  0
  -21.6634  -26.7409   22.1180 H   0  0  0  0  0  0
  -19.6880  -25.6310   21.1198 H   0  0  0  0  0  0
  -19.6691  -27.3264   20.6793 H   0  0  0  0  0  0
  -17.4202  -26.6773   21.3951 H   0  0  0  0  0  0
  -18.0234  -26.0023   22.8937 H   0  0  0  0  0  0
  -19.7918  -30.7294   24.2236 H   0  0  0  0  0  0
  -17.4965  -31.6246   24.5139 H   0  0  0  0  0  0
  -15.5322  -30.2905   23.7680 H   0  0  0  0  0  0
  -15.8685  -28.0796   22.7005 H   0  0  0  0  0  0
  -24.5970  -30.6916   25.7740 H   0  0  0  0  0  0
  -24.8846  -32.2713   26.4940 H   0  0  0  0  0  0
  -25.8065  -30.8746   27.0202 H   0  0  0  0  0  0
  -26.2929  -29.6765   24.1194 H   0  0  0  0  0  0
  -27.4254  -29.7331   25.4525 H   0  0  0  0  0  0
  -27.8696  -30.4445   23.9197 H   0  0  0  0  0  0
  -27.2770  -33.3673   26.1981 H   0  0  0  0  0  0
  -28.3940  -32.6703   25.0330 H   0  0  0  0  0  0
  -28.0673  -31.8446   26.5483 H   0  0  0  0  0  0
  -28.2555  -38.0150   24.7576 H   0  0  0  0  0  0
  -28.1136  -36.2681   24.6205 H   0  0  0  0  0  0
  -27.2310  -37.1351   25.8864 H   0  0  0  0  0  0
  -20.9330  -29.8723   21.6965 H   0  0  0  0  0  0
  -26.0174  -38.2867   24.1442 H   0  0  0  0  0  0
  -31.2550  -22.5074   18.9314 H   0  0  0  0  0  0
  -28.2871  -19.4733   21.3616 H   0  0  0  0  0  0
  -33.4056  -19.2614   19.9445 H   0  0  0  0  0  0
  -33.6831  -18.5521   18.2692 H   0  0  0  0  0  0
  -33.6788  -20.8429   17.2767 H   0  0  0  0  0  0
  -33.4566  -21.5531   18.9590 H   0  0  0  0  0  0
  -28.4468  -17.7328   18.6949 H   0  0  0  0  0  0
  -29.9063  -17.8694   17.7122 H   0  0  0  0  0  0
  -30.5647  -15.6879   18.1790 H   0  0  0  0  0  0
  -28.8428  -15.4599   18.2991 H   0  0  0  0  0  0
  -31.5246  -19.5923   17.4752 H   0  0  0  0  0  0
  -31.2925  -17.8293   19.7006 H   0  0  0  0  0  0
  -28.7797  -17.0407   21.1590 H   0  0  0  0  0  0
  -32.6157  -16.5858   21.5069 H   0  0  0  0  0  0
  -32.5799  -17.0806   23.1842 H   0  0  0  0  0  0
  -32.2802  -18.2579   21.9139 H   0  0  0  0  0  0
  -28.8954  -17.6921   23.4660 H   0  0  0  0  0  0
  -30.0369  -18.9471   22.9720 H   0  0  0  0  0  0
  -30.4417  -17.8508   24.2792 H   0  0  0  0  0  0
  -29.6453  -25.9109   21.5220 H   0  0  0  0  0  0
  -28.0200  -26.1486   22.0701 H   0  0  0  0  0  0
  -27.3804  -24.1229   20.4685 H   0  0  0  0  0  0
  -28.2148  -23.8075   21.9805 H   0  0  0  0  0  0
  -30.4695  -15.9535   22.7662 H   0  0  0  0  0  0
  1 25  1  0  0  0
  1 30  2  0  0  0
  1 89  1  0  0  0
  2  3  1  0  0  0
  2 25  1  0  0  0
  2 91  1  0  0  0
  2 92  1  0  0  0
  3  4  1  0  0  0
  3 93  1  0  0  0
  3 94  1  0  0  0
  4  5  1  0  0  0
  4 95  1  0  0  0
  4 96  1  0  0  0
  5  6  1  0  0  0
  5 26  1  0  0  0
  5 97  1  0  0  0
  6 25  1  0  0  0
  6 98  1  0  0  0
  6 99  1  0  0  0
  7  8  2  0  0  0
  7 26  1  0  0  0
  7 29  1  0  0  0
  8  9  1  0  0  0
  8 22  1  0  0  0
  9 10  1  0  0  0
  9 27  2  0  0  0
 10 11  2  0  0  0
 10 15  1  0  0  0
 11 12  1  0  0  0
 11100  1  0  0  0
 12 13  2  0  0  0
 12101  1  0  0  0
 13 14  1  0  0  0
 13 31  1  0  0  0
 14 15  2  0  0  0
 14102  1  0  0  0
 15103  1  0  0  0
 16 17  2  0  0  0
 16 21  1  0  0  0
 16 31  1  0  0  0
 17 18  1  0  0  0
 17104  1  0  0  0
 18 19  2  0  0  0
 18105  1  0  0  0
 19 20  1  0  0  0
 19 24  1  0  0  0
 20 21  2  0  0  0
 20106  1  0  0  0
 21 23  1  0  0  0
 22 28  1  0  0  0
 22 32  2  0  0  0
 26 27  1  0  0  0
 28107  1  0  0  0
 28108  1  0  0  0
 29109  1  0  0  0
 29110  1  0  0  0
 33 34  1  0  0  0
 33 66  1  0  0  0
 33 70  2  0  0  0
 34 36  1  0  0  0
 34 59  1  0  0  0
 34111  1  0  0  0
 35 44  2  0  0  0
 35 45  1  0  0  0
 35 68  1  0  0  0
 36 56  1  0  0  0
 36112  1  0  0  0
 37 39  1  0  0  0
 37 47  1  0  0  0
 37 66  1  0  0  0
 37113  1  0  0  0
 38 43  2  0  0  0
 38 46  1  0  0  0
 38 47  1  0  0  0
 39 64  1  0  0  0
 39 67  2  0  0  0
 40 52  1  0  0  0
 40 53  2  0  0  0
 40 58  1  0  0  0
 41114  1  0  0  0
 41115  1  0  0  0
 41116  1  0  0  0
 41 48  1  0  0  0
 42 43  1  0  0  0
 42 66  1  0  0  0
 42117  1  0  0  0
 42118  1  0  0  0
 43 44  1  0  0  0
 44119  1  0  0  0
 45 46  2  0  0  0
 45120  1  0  0  0
 46121  1  0  0  0
 47122  1  0  0  0
 47123  1  0  0  0
 48 56  1  0  0  0
 48 65  1  0  0  0
 48124  1  0  0  0
 49 50  1  0  0  0
 49 53  1  0  0  0
 49 64  1  0  0  0
 49125  1  0  0  0
 50 51  1  0  0  0
 50126  1  0  0  0
 50127  1  0  0  0
 51 52  1  0  0  0
 51128  1  0  0  0
 51129  1  0  0  0
 52130  1  0  0  0
 52131  1  0  0  0
 53 54  1  0  0  0
 54 55  2  0  0  0
 54132  1  0  0  0
 55 57  1  0  0  0
 55133  1  0  0  0
 56 69  2  0  0  0
 57 58  2  0  0  0
 57134  1  0  0  0
 58135  1  0  0  0
 59 60  1  0  0  0
 59 61  1  0  0  0
 59 62  1  0  0  0
 60136  1  0  0  0
 60137  1  0  0  0
 60138  1  0  0  0
 61139  1  0  0  0
 61140  1  0  0  0
 61141  1  0  0  0
 62142  1  0  0  0
 62143  1  0  0  0
 62144  1  0  0  0
 63 65  1  0  0  0
 63145  1  0  0  0
 63146  1  0  0  0
 63147  1  0  0  0
 64148  1  0  0  0
 65149  1  0  0  0
 68 85  1  0  0  0
 71 73  2  0  0  0
 71 75  1  0  0  0
 71150  1  0  0  0
 72 74  2  0  0  0
 72 88  1  0  0  0
 72151  1  0  0  0
 73 74  1  0  0  0
 73 80  1  0  0  0
 74 81  1  0  0  0
 75 88  2  0  0  0
 75 90  1  0  0  0
 76 77  1  0  0  0
 76 80  1  0  0  0
 76152  1  0  0  0
 76153  1  0  0  0
 77 80  1  0  0  0
 77154  1  0  0  0
 77155  1  0  0  0
 78 79  1  0  0  0
 78 81  1  0  0  0
 78156  1  0  0  0
 78157  1  0  0  0
 79 89  1  0  0  0
 79158  1  0  0  0
 79159  1  0  0  0
 80160  1  0  0  0
 81 82  1  0  0  0
 81161  1  0  0  0
 82 87  1  0  0  0
 82 89  1  0  0  0
 82162  1  0  0  0
 83163  1  0  0  0
 83164  1  0  0  0
 83165  1  0  0  0
 83 87  1  0  0  0
 84 87  1  0  0  0
 84166  1  0  0  0
 84167  1  0  0  0
 84168  1  0  0  0
 85 86  1  0  0  0
 85169  1  0  0  0
 85170  1  0  0  0
 86 90  1  0  0  0
 86171  1  0  0  0
 86172  1  0  0  0
 87173  1  0  0  0
M  ISO  4   1 100  68 101  85 101  89 100
M  END
> <chiral flag>
0

> <version>
0

> <s_m_source_file>
/data/baiqing/PycharmProjects/Reinvent-master-3.2/result/LINK_invent/BTK/process_docking_weight1_custom_sum_contain_oxygen_bond_distance_aromatic_linkinvent_7_9_3/rearranged_h_0143.sdf

> <i_m_source_file_index>
85

> <r_mmod_Potential_Energy-OPLS-2005>
107.284156799316

> <r_mmod_Stretch_Energy-OPLS-2005>
50.1571083068848

> <r_mmod_Bend_Energy-OPLS-2005>
174.361328125

> <r_mmod_Torsional_Energy-OPLS-2005>
401.102264404297

> <r_mmod_Improper_Torsional_Energy-OPLS-2005>
19.2294063568115

> <r_mmod_Van_der_Waal_Energy-OPLS-2005>
140.214080810547

> <r_mmod_Electrostatic_Energy-OPLS-2005>
-511.120300292969

> <r_mmod_Solvation_Energy-OPLS-2005>
-193.954605102539

> <b_mmod_Minimization_Converged-OPLS-2005>
0

> <r_mmod_RMS_Derivative-OPLS-2005>
3.80166268348694

$$$$
87
                    3D
 Structure written by MMmdl.
163172  0  0  1  0            999 V2000
  -30.6562  -14.5131   20.6042 C   0  0  0  0  0  0
  -30.4491  -12.3361   19.4342 C   0  0  0  0  0  0
  -29.5131  -12.5197   18.2188 C   0  0  0  0  0  0
  -28.0321  -12.3699   18.6235 C   0  0  0  0  0  0
  -27.6725  -13.2009   19.8842 C   0  0  2  0  0  0
  -28.7106  -12.9563   21.0037 C   0  0  0  0  0  0
  -25.2641  -13.8146   20.5672 C   0  0  0  0  0  0
  -24.1876  -13.0435   20.9156 C   0  0  0  0  0  0
  -24.6419  -11.6897   20.8719 C   0  0  0  0  0  0
  -23.9080  -10.4295   21.0406 C   0  0  0  0  0  0
  -24.3628   -9.4209   21.9182 C   0  0  0  0  0  0
  -23.6303   -8.2242   22.0744 C   0  0  0  0  0  0
  -22.4280   -8.0287   21.3545 C   0  0  0  0  0  0
  -21.9928   -9.0258   20.4636 C   0  0  0  0  0  0
  -22.7257  -10.2136   20.3046 C   0  0  0  0  0  0
  -21.6850   -6.0751   22.5289 C   0  0  0  0  0  0
  -21.4010   -6.5650   23.8225 C   0  0  0  0  0  0
  -21.3659   -5.6799   24.9186 C   0  0  0  0  0  0
  -21.6037   -4.3061   24.7232 C   0  0  0  0  0  0
  -21.8821   -3.8158   23.4352 C   0  0  0  0  0  0
  -21.9192   -4.6980   22.3413 C   0  0  0  0  0  0
  -22.7898  -13.5236   21.1838 C   0  0  0  0  0  0
  -22.1660   -4.2168   21.0992 F   0  0  0  0  0  0
  -21.5629   -3.4540   25.7743 F   0  0  0  0  0  0
  -30.0472  -13.2979   20.4747 N   0  0  0  0  0  0
  -26.3087  -12.9298   20.3377 N   0  0  0  0  0  0
  -25.9347  -11.6469   20.5748 N   0  0  0  0  0  0
  -22.0534  -12.8217   22.0388 N   0  0  0  0  0  0
  -25.4398  -15.1854   20.4101 N   0  0  0  0  0  0
  -31.7206  -14.7936   20.0459 O   0  0  0  0  0  0
  -21.6635   -6.8888   21.4248 O   0  0  0  0  0  0
  -22.3590  -14.5562   20.6716 O   0  0  0  0  0  0
  -24.6183  -31.8641   23.2089 C   0  0  0  0  0  0
  -25.9058  -32.4808   23.8389 C   0  0  1  0  0  0
  -27.2332  -27.4079   20.0981 C   0  0  0  0  0  0
  -25.5896  -33.8607   24.2312 N   0  0  0  0  0  0
  -23.4084  -30.4903   21.5489 C   0  0  2  0  0  0
  -24.8551  -28.9557   20.1113 C   0  0  0  0  0  0
  -22.7431  -29.4655   22.4972 C   0  0  0  0  0  0
  -18.0284  -28.1375   22.8483 C   0  0  0  0  0  0
  -24.1492  -36.7308   23.2641 C   0  0  0  0  0  0
  -25.9417  -30.8231   21.3664 C   0  0  0  0  0  0
  -26.0192  -29.4579   20.7085 C   0  0  0  0  0  0
  -27.2137  -28.6941   20.6936 C   0  0  0  0  0  0
  -26.0543  -26.9362   19.4813 C   0  0  0  0  0  0
  -24.8698  -27.6945   19.4932 C   0  0  0  0  0  0
  -23.6175  -29.8241   20.1633 C   0  0  0  0  0  0
  -25.4109  -36.3097   24.0340 C   0  0  1  0  0  0
  -20.5878  -28.3658   23.1297 C   0  0  2  0  0  0
  -20.6772  -26.9388   22.5414 C   0  0  0  0  0  0
  -19.5756  -26.6373   21.5211 C   0  0  0  0  0  0
  -18.1927  -26.7930   22.1608 C   0  0  0  0  0  0
  -19.1538  -28.8835   23.2888 C   0  0  0  0  0  0
  -18.9460  -30.1440   23.8898 C   0  0  0  0  0  0
  -17.6459  -30.6574   24.0559 C   0  0  0  0  0  0
  -25.9026  -34.9463   23.5119 C   0  0  0  0  0  0
  -16.5347  -29.9073   23.6325 C   0  0  0  0  0  0
  -16.7272  -28.6495   23.0337 C   0  0  0  0  0  0
  -26.4471  -31.6606   25.0733 C   0  0  0  0  0  0
  -25.3720  -31.3728   26.1475 C   0  0  0  0  0  0
  -27.0319  -30.3048   24.6139 C   0  0  0  0  0  0
  -27.6050  -32.4324   25.7486 C   0  0  0  0  0  0
  -27.5581  -37.1802   24.8459 C   0  0  0  0  0  0
  -21.4155  -29.3034   22.3715 N   0  0  0  0  0  0
  -26.4287  -37.3787   23.9415 N   0  0  0  0  0  0
  -24.6747  -31.0735   22.0995 N   0  0  0  0  0  0
  -23.4209  -28.8194   23.3005 O   0  0  0  0  0  0
  -28.3656  -26.6110   20.1175 O   0  0  0  0  0  0
  -26.5601  -34.8927   22.4691 O   0  0  0  0  0  0
  -23.5365  -32.1384   23.7476 O   0  0  0  0  0  0
  -30.6346  -20.3206   21.0442 C   0  0  0  0  0  0
  -28.8683  -20.8891   19.0101 C   0  0  0  0  0  0
  -30.2062  -19.2392   20.2418 C   0  0  0  0  0  0
  -29.2979  -19.5422   19.1917 C   0  0  0  0  0  0
  -29.3462  -21.8869   19.8949 C   0  0  0  0  0  0
  -28.2179  -21.1524   16.4606 C   0  0  0  0  0  0
  -27.9621  -22.4976   17.0847 C   0  0  0  0  0  0
  -27.8670  -21.2430   17.9327 C   0  0  0  0  0  0
  -28.7500  -18.4403   18.2876 C   0  0  0  0  0  0
  -30.7398  -17.8065   20.5142 C   0  0  0  0  0  0
  -29.6830  -16.8675   21.1619 C   0  0  0  0  0  0
  -28.1698  -25.3322   20.7745 C   0  0  0  0  0  0
  -29.2946  -24.2623   20.6322 C   0  0  0  0  0  0
  -30.2229  -21.6021   20.8842 N   0  0  0  0  0  0
  -29.9322  -15.4122   21.3035 N   0  0  0  0  0  0
  -28.8802  -23.1933   19.7578 O   0  0  0  0  0  0
  -31.4911  -12.4677   19.1356 H   0  0  0  0  0  0
  -30.3815  -11.3173   19.8209 H   0  0  0  0  0  0
  -29.7625  -11.7952   17.4429 H   0  0  0  0  0  0
  -29.6740  -13.5059   17.7806 H   0  0  0  0  0  0
  -27.8441  -11.3115   18.8119 H   0  0  0  0  0  0
  -27.3842  -12.6465   17.7914 H   0  0  0  0  0  0
  -27.7248  -14.2529   19.6003 H   0  0  0  0  0  0
  -28.6972  -11.9081   21.3059 H   0  0  0  0  0  0
  -28.4456  -13.5100   21.9041 H   0  0  0  0  0  0
  -25.2775   -9.5678   22.4755 H   0  0  0  0  0  0
  -24.0013   -7.4631   22.7461 H   0  0  0  0  0  0
  -21.0859   -8.8776   19.8943 H   0  0  0  0  0  0
  -22.3723  -10.9670   19.6147 H   0  0  0  0  0  0
  -21.1991   -7.6154   23.9735 H   0  0  0  0  0  0
  -21.1476   -6.0526   25.9089 H   0  0  0  0  0  0
  -22.0596   -2.7622   23.2848 H   0  0  0  0  0  0
  -22.4139  -11.9847   22.4733 H   0  0  0  0  0  0
  -21.1148  -13.1231   22.2594 H   0  0  0  0  0  0
  -24.6809  -15.8471   20.5285 H   0  0  0  0  0  0
  -26.3016  -15.6216   20.1087 H   0  0  0  0  0  0
  -26.7126  -32.5507   23.1147 H   0  0  0  0  0  0
  -25.0086  -33.9780   25.0486 H   0  0  0  0  0  0
  -22.6980  -31.3072   21.4079 H   0  0  0  0  0  0
  -23.3757  -35.9635   23.3300 H   0  0  0  0  0  0
  -24.3591  -36.8925   22.2053 H   0  0  0  0  0  0
  -23.7242  -37.6513   23.6656 H   0  0  0  0  0  0
  -26.0629  -31.5911   20.6012 H   0  0  0  0  0  0
  -26.8273  -30.8707   21.9889 H   0  0  0  0  0  0
  -28.1113  -29.0763   21.1589 H   0  0  0  0  0  0
  -26.0421  -25.9726   18.9913 H   0  0  0  0  0  0
  -23.9768  -27.3019   19.0252 H   0  0  0  0  0  0
  -23.7272  -30.5994   19.4043 H   0  0  0  0  0  0
  -22.7402  -29.2461   19.8655 H   0  0  0  0  0  0
  -25.1288  -36.1956   25.0832 H   0  0  0  0  0  0
  -20.9964  -28.3220   24.1417 H   0  0  0  0  0  0
  -20.5675  -26.2263   23.3609 H   0  0  0  0  0  0
  -21.6637  -26.7427   22.1197 H   0  0  0  0  0  0
  -19.6923  -25.6290   21.1222 H   0  0  0  0  0  0
  -19.6700  -27.3199   20.6760 H   0  0  0  0  0  0
  -17.4204  -26.6679   21.4000 H   0  0  0  0  0  0
  -18.0303  -26.0074   22.8999 H   0  0  0  0  0  0
  -19.7943  -30.7248   24.2260 H   0  0  0  0  0  0
  -17.5022  -31.6261   24.5152 H   0  0  0  0  0  0
  -15.5349  -30.2973   23.7672 H   0  0  0  0  0  0
  -15.8669  -28.0821   22.7045 H   0  0  0  0  0  0
  -24.5909  -30.7051   25.7828 H   0  0  0  0  0  0
  -24.8892  -32.2890   26.4877 H   0  0  0  0  0  0
  -25.8065  -30.8937   27.0259 H   0  0  0  0  0  0
  -26.2878  -29.6801   24.1184 H   0  0  0  0  0  0
  -27.4088  -29.7293   25.4607 H   0  0  0  0  0  0
  -27.8714  -30.4376   23.9311 H   0  0  0  0  0  0
  -27.2680  -33.3640   26.2043 H   0  0  0  0  0  0
  -28.3866  -32.6849   25.0308 H   0  0  0  0  0  0
  -28.0706  -31.8450   26.5410 H   0  0  0  0  0  0
  -28.2587  -38.0107   24.7519 H   0  0  0  0  0  0
  -28.1087  -36.2647   24.6258 H   0  0  0  0  0  0
  -27.2308  -37.1411   25.8861 H   0  0  0  0  0  0
  -20.9316  -29.8755   21.6934 H   0  0  0  0  0  0
  -26.0179  -38.2869   24.1421 H   0  0  0  0  0  0
  -31.3283  -20.1546   21.8553 H   0  0  0  0  0  0
  -29.2476  -20.9301   16.1841 H   0  0  0  0  0  0
  -27.4602  -20.7677   15.7805 H   0  0  0  0  0  0
  -27.0316  -22.9952   16.8165 H   0  0  0  0  0  0
  -28.8262  -23.1502   17.1927 H   0  0  0  0  0  0
  -26.8686  -20.9301   18.2326 H   0  0  0  0  0  0
  -27.7260  -18.1990   18.5732 H   0  0  0  0  0  0
  -29.3287  -17.5215   18.3281 H   0  0  0  0  0  0
  -28.7496  -18.7356   17.2410 H   0  0  0  0  0  0
  -31.6080  -17.8704   21.1718 H   0  0  0  0  0  0
  -31.1199  -17.3878   19.5832 H   0  0  0  0  0  0
  -28.7541  -16.9406   20.5986 H   0  0  0  0  0  0
  -29.4432  -17.2513   22.1540 H   0  0  0  0  0  0
  -28.0626  -25.5610   21.8348 H   0  0  0  0  0  0
  -27.2267  -24.8618   20.4989 H   0  0  0  0  0  0
  -29.4954  -23.8790   21.6324 H   0  0  0  0  0  0
  -30.2226  -24.7091   20.2740 H   0  0  0  0  0  0
  -29.1993  -14.9525   21.8245 H   0  0  0  0  0  0
  1 25  1  0  0  0
  1 30  2  0  0  0
  1 85  1  0  0  0
  2  3  1  0  0  0
  2 25  1  0  0  0
  2 87  1  0  0  0
  2 88  1  0  0  0
  3  4  1  0  0  0
  3 89  1  0  0  0
  3 90  1  0  0  0
  4  5  1  0  0  0
  4 91  1  0  0  0
  4 92  1  0  0  0
  5  6  1  0  0  0
  5 26  1  0  0  0
  5 93  1  0  0  0
  6 25  1  0  0  0
  6 94  1  0  0  0
  6 95  1  0  0  0
  7  8  2  0  0  0
  7 26  1  0  0  0
  7 29  1  0  0  0
  8  9  1  0  0  0
  8 22  1  0  0  0
  9 10  1  0  0  0
  9 27  2  0  0  0
 10 11  2  0  0  0
 10 15  1  0  0  0
 11 12  1  0  0  0
 11 96  1  0  0  0
 12 13  2  0  0  0
 12 97  1  0  0  0
 13 14  1  0  0  0
 13 31  1  0  0  0
 14 15  2  0  0  0
 14 98  1  0  0  0
 15 99  1  0  0  0
 16 17  2  0  0  0
 16 21  1  0  0  0
 16 31  1  0  0  0
 17 18  1  0  0  0
 17100  1  0  0  0
 18 19  2  0  0  0
 18101  1  0  0  0
 19 20  1  0  0  0
 19 24  1  0  0  0
 20 21  2  0  0  0
 20102  1  0  0  0
 21 23  1  0  0  0
 22 28  1  0  0  0
 22 32  2  0  0  0
 26 27  1  0  0  0
 28103  1  0  0  0
 28104  1  0  0  0
 29105  1  0  0  0
 29106  1  0  0  0
 33 34  1  0  0  0
 33 66  1  0  0  0
 33 70  2  0  0  0
 34 36  1  0  0  0
 34 59  1  0  0  0
 34107  1  0  0  0
 35 44  2  0  0  0
 35 45  1  0  0  0
 35 68  1  0  0  0
 36 56  1  0  0  0
 36108  1  0  0  0
 37 39  1  0  0  0
 37 47  1  0  0  0
 37 66  1  0  0  0
 37109  1  0  0  0
 38 43  2  0  0  0
 38 46  1  0  0  0
 38 47  1  0  0  0
 39 64  1  0  0  0
 39 67  2  0  0  0
 40 52  1  0  0  0
 40 53  2  0  0  0
 40 58  1  0  0  0
 41110  1  0  0  0
 41111  1  0  0  0
 41112  1  0  0  0
 41 48  1  0  0  0
 42 43  1  0  0  0
 42 66  1  0  0  0
 42113  1  0  0  0
 42114  1  0  0  0
 43 44  1  0  0  0
 44115  1  0  0  0
 45 46  2  0  0  0
 45116  1  0  0  0
 46117  1  0  0  0
 47118  1  0  0  0
 47119  1  0  0  0
 48 56  1  0  0  0
 48 65  1  0  0  0
 48120  1  0  0  0
 49 50  1  0  0  0
 49 53  1  0  0  0
 49 64  1  0  0  0
 49121  1  0  0  0
 50 51  1  0  0  0
 50122  1  0  0  0
 50123  1  0  0  0
 51 52  1  0  0  0
 51124  1  0  0  0
 51125  1  0  0  0
 52126  1  0  0  0
 52127  1  0  0  0
 53 54  1  0  0  0
 54 55  2  0  0  0
 54128  1  0  0  0
 55 57  1  0  0  0
 55129  1  0  0  0
 56 69  2  0  0  0
 57 58  2  0  0  0
 57130  1  0  0  0
 58131  1  0  0  0
 59 60  1  0  0  0
 59 61  1  0  0  0
 59 62  1  0  0  0
 60132  1  0  0  0
 60133  1  0  0  0
 60134  1  0  0  0
 61135  1  0  0  0
 61136  1  0  0  0
 61137  1  0  0  0
 62138  1  0  0  0
 62139  1  0  0  0
 62140  1  0  0  0
 63 65  1  0  0  0
 63141  1  0  0  0
 63142  1  0  0  0
 63143  1  0  0  0
 64144  1  0  0  0
 65145  1  0  0  0
 68 82  1  0  0  0
 71 73  2  0  0  0
 71 84  1  0  0  0
 71146  1  0  0  0
 72 74  2  0  0  0
 72 75  1  0  0  0
 72 78  1  0  0  0
 73 74  1  0  0  0
 73 80  1  0  0  0
 74 79  1  0  0  0
 75 84  2  0  0  0
 75 86  1  0  0  0
 76 77  1  0  0  0
 76 78  1  0  0  0
 76147  1  0  0  0
 76148  1  0  0  0
 77 78  1  0  0  0
 77149  1  0  0  0
 77150  1  0  0  0
 78151  1  0  0  0
 79152  1  0  0  0
 79153  1  0  0  0
 79154  1  0  0  0
 80 81  1  0  0  0
 80155  1  0  0  0
 80156  1  0  0  0
 81 85  1  0  0  0
 81157  1  0  0  0
 81158  1  0  0  0
 82 83  1  0  0  0
 82159  1  0  0  0
 82160  1  0  0  0
 83 86  1  0  0  0
 83161  1  0  0  0
 83162  1  0  0  0
 85163  1  0  0  0
M  ISO  4   1 100  68 101  82 101  85 100
M  END
> <chiral flag>
0

> <version>
0

> <s_m_source_file>
/data/baiqing/PycharmProjects/Reinvent-master-3.2/result/LINK_invent/BTK/process_docking_weight1_custom_sum_contain_oxygen_bond_distance_aromatic_linkinvent_7_9_3/rearranged_h_0143.sdf

> <i_m_source_file_index>
86

> <r_mmod_Potential_Energy-OPLS-2005>
-180.785385131836

> <r_mmod_Stretch_Energy-OPLS-2005>
48.3631896972656

> <r_mmod_Bend_Energy-OPLS-2005>
131.993377685547

> <r_mmod_Torsional_Energy-OPLS-2005>
243.390396118164

> <r_mmod_Improper_Torsional_Energy-OPLS-2005>
4.31099700927734

> <r_mmod_Van_der_Waal_Energy-OPLS-2005>
158.164566040039

> <r_mmod_Electrostatic_Energy-OPLS-2005>
-563.547058105469

> <r_mmod_Solvation_Energy-OPLS-2005>
-222.78645324707

> <b_mmod_Minimization_Converged-OPLS-2005>
0

> <r_mmod_RMS_Derivative-OPLS-2005>
1.92288517951965

$$$$
88
                    3D
 Structure written by MMmdl.
162172  0  0  1  0            999 V2000
  -30.5153  -14.9191   20.4419 C   0  0  0  0  0  0
  -30.4509  -12.5677   19.4963 C   0  0  0  0  0  0
  -29.5271  -12.5397   18.2552 C   0  0  0  0  0  0
  -28.0562  -12.3283   18.6658 C   0  0  0  0  0  0
  -27.6376  -13.2400   19.8482 C   0  0  2  0  0  0
  -28.6802  -13.2207   20.9869 C   0  0  0  0  0  0
  -25.2463  -13.8167   20.5603 C   0  0  0  0  0  0
  -24.1795  -13.0426   20.9228 C   0  0  0  0  0  0
  -24.6411  -11.6912   20.8780 C   0  0  0  0  0  0
  -23.9085  -10.4288   21.0430 C   0  0  0  0  0  0
  -24.3635   -9.4197   21.9197 C   0  0  0  0  0  0
  -23.6293   -8.2242   22.0762 C   0  0  0  0  0  0
  -22.4275   -8.0295   21.3554 C   0  0  0  0  0  0
  -21.9916   -9.0279   20.4661 C   0  0  0  0  0  0
  -22.7263  -10.2145   20.3078 C   0  0  0  0  0  0
  -21.6854   -6.0736   22.5280 C   0  0  0  0  0  0
  -21.4018   -6.5638   23.8212 C   0  0  0  0  0  0
  -21.3659   -5.6795   24.9173 C   0  0  0  0  0  0
  -21.6042   -4.3059   24.7226 C   0  0  0  0  0  0
  -21.8818   -3.8148   23.4348 C   0  0  0  0  0  0
  -21.9191   -4.6964   22.3402 C   0  0  0  0  0  0
  -22.7819  -13.5219   21.1879 C   0  0  0  0  0  0
  -22.1665   -4.2150   21.0976 F   0  0  0  0  0  0
  -21.5617   -3.4537   25.7736 F   0  0  0  0  0  0
  -29.9635  -13.6404   20.4058 N   0  0  0  0  0  0
  -26.2920  -12.9405   20.3246 N   0  0  0  0  0  0
  -25.9348  -11.6549   20.5779 N   0  0  0  0  0  0
  -22.0458  -12.8229   22.0442 N   0  0  0  0  0  0
  -25.4040  -15.1857   20.3771 N   0  0  0  0  0  0
  -31.7041  -15.0378   20.1299 O   0  0  0  0  0  0
  -21.6643   -6.8889   21.4245 O   0  0  0  0  0  0
  -22.3512  -14.5519   20.6712 O   0  0  0  0  0  0
  -24.6397  -31.8464   23.1913 C   0  0  0  0  0  0
  -25.9181  -32.4712   23.8289 C   0  0  1  0  0  0
  -27.2197  -27.1555   20.1478 C   0  0  0  0  0  0
  -25.5931  -33.8519   24.2196 N   0  0  0  0  0  0
  -23.4419  -30.4672   21.5370 C   0  0  2  0  0  0
  -24.8925  -28.8985   20.1127 C   0  0  0  0  0  0
  -22.7546  -29.4550   22.4867 C   0  0  0  0  0  0
  -18.0302  -28.1386   22.8485 C   0  0  0  0  0  0
  -24.1489  -36.7261   23.2641 C   0  0  0  0  0  0
  -25.9986  -30.7253   21.3898 C   0  0  0  0  0  0
  -26.0706  -29.3399   20.7281 C   0  0  0  0  0  0
  -27.2354  -28.4858   20.7264 C   0  0  0  0  0  0
  -26.0105  -26.8103   19.5000 C   0  0  0  0  0  0
  -24.8738  -27.6457   19.4847 C   0  0  0  0  0  0
  -23.6684  -29.7988   20.1554 C   0  0  0  0  0  0
  -25.4122  -36.3038   24.0314 C   0  0  1  0  0  0
  -20.5911  -28.3703   23.1241 C   0  0  2  0  0  0
  -20.6783  -26.9405   22.5406 C   0  0  0  0  0  0
  -19.5759  -26.6366   21.5212 C   0  0  0  0  0  0
  -18.1940  -26.7927   22.1624 C   0  0  0  0  0  0
  -19.1558  -28.8865   23.2859 C   0  0  0  0  0  0
  -18.9475  -30.1465   23.8885 C   0  0  0  0  0  0
  -17.6472  -30.6586   24.0558 C   0  0  0  0  0  0
  -25.9071  -34.9414   23.5065 C   0  0  0  0  0  0
  -16.5363  -29.9076   23.6334 C   0  0  0  0  0  0
  -16.7287  -28.6486   23.0367 C   0  0  0  0  0  0
  -26.4504  -31.6584   25.0732 C   0  0  0  0  0  0
  -25.3691  -31.3818   26.1438 C   0  0  0  0  0  0
  -27.0343  -30.2962   24.6329 C   0  0  0  0  0  0
  -27.6037  -32.4357   25.7504 C   0  0  0  0  0  0
  -27.5582  -37.1782   24.8459 C   0  0  0  0  0  0
  -21.4240  -29.3036   22.3614 N   0  0  0  0  0  0
  -26.4288  -37.3746   23.9408 N   0  0  0  0  0  0
  -24.7129  -31.0332   22.0944 N   0  0  0  0  0  0
  -23.4198  -28.8096   23.3005 O   0  0  0  0  0  0
  -28.2829  -26.1838   20.2112 O   0  0  0  0  0  0
  -26.5661  -34.8906   22.4648 O   0  0  0  0  0  0
  -23.5520  -32.1331   23.7146 O   0  0  0  0  0  0
  -30.0716  -19.9718   19.9326 C   0  0  0  0  0  0
  -28.2177  -19.6008   21.3185 C   0  0  0  0  0  0
  -30.3651  -18.5280   19.9346 C   0  0  0  0  0  0
  -28.4962  -18.1860   21.3718 C   0  0  0  0  0  0
  -29.5748  -17.5494   20.6610 C   0  0  0  0  0  0
  -28.9538  -20.5856   20.5994 C   0  0  0  0  0  0
  -31.9785  -18.7161   17.8342 C   0  0  0  0  0  0
  -31.2741  -17.3839   17.7698 C   0  0  0  0  0  0
  -27.3206  -17.7106   23.6591 C   0  0  0  0  0  0
  -27.9640  -16.4033   23.2710 C   0  0  0  0  0  0
  -31.5226  -18.0389   19.1105 C   0  0  0  0  0  0
  -27.5332  -17.3793   22.1981 C   0  0  0  0  0  0
  -27.9859  -24.6605   20.1362 C   0  0  0  0  0  0
  -29.0072  -23.3318   20.3014 C   0  0  0  0  0  0
  -29.6482  -16.0114   20.6916 N   0  0  0  0  0  0
  -28.4212  -21.9493   20.5973 O   0  0  0  0  0  0
  -31.4847  -12.7363   19.1898 H   0  0  0  0  0  0
  -30.4446  -11.6041   20.0061 H   0  0  0  0  0  0
  -29.8389  -11.7527   17.5672 H   0  0  0  0  0  0
  -29.6246  -13.4811   17.7112 H   0  0  0  0  0  0
  -27.9374  -11.2810   18.9470 H   0  0  0  0  0  0
  -27.3997  -12.4926   17.8105 H   0  0  0  0  0  0
  -27.6145  -14.2525   19.4466 H   0  0  0  0  0  0
  -28.7567  -12.2271   21.4295 H   0  0  0  0  0  0
  -28.3814  -13.8891   21.7948 H   0  0  0  0  0  0
  -25.2776   -9.5664   22.4775 H   0  0  0  0  0  0
  -23.9998   -7.4622   22.7476 H   0  0  0  0  0  0
  -21.0840   -8.8823   19.8960 H   0  0  0  0  0  0
  -22.3733  -10.9702   19.6200 H   0  0  0  0  0  0
  -21.2018   -7.6149   23.9717 H   0  0  0  0  0  0
  -21.1479   -6.0521   25.9075 H   0  0  0  0  0  0
  -22.0591   -2.7609   23.2853 H   0  0  0  0  0  0
  -22.4074  -11.9908   22.4866 H   0  0  0  0  0  0
  -21.1094  -13.1291   22.2664 H   0  0  0  0  0  0
  -24.6056  -15.8091   20.4252 H   0  0  0  0  0  0
  -26.1955  -15.5966   19.9003 H   0  0  0  0  0  0
  -26.7239  -32.5325   23.1014 H   0  0  0  0  0  0
  -25.0041  -33.9644   25.0314 H   0  0  0  0  0  0
  -22.7423  -31.2921   21.3856 H   0  0  0  0  0  0
  -23.3756  -35.9588   23.3296 H   0  0  0  0  0  0
  -24.3562  -36.8901   22.2055 H   0  0  0  0  0  0
  -23.7247  -37.6454   23.6691 H   0  0  0  0  0  0
  -26.1564  -31.4817   20.6201 H   0  0  0  0  0  0
  -26.8672  -30.7696   22.0353 H   0  0  0  0  0  0
  -28.1334  -28.8215   21.2260 H   0  0  0  0  0  0
  -25.9001  -25.8558   19.0113 H   0  0  0  0  0  0
  -23.9719  -27.3017   18.9962 H   0  0  0  0  0  0
  -23.8041  -30.5747   19.4012 H   0  0  0  0  0  0
  -22.7832  -29.2408   19.8450 H   0  0  0  0  0  0
  -25.1309  -36.1868   25.0804 H   0  0  0  0  0  0
  -21.0010  -28.3296   24.1361 H   0  0  0  0  0  0
  -20.5647  -26.2319   23.3621 H   0  0  0  0  0  0
  -21.6655  -26.7390   22.1230 H   0  0  0  0  0  0
  -19.6913  -25.6267   21.1261 H   0  0  0  0  0  0
  -19.6706  -27.3156   20.6727 H   0  0  0  0  0  0
  -17.4208  -26.6671   21.4034 H   0  0  0  0  0  0
  -18.0345  -26.0065   22.9013 H   0  0  0  0  0  0
  -19.7952  -30.7287   24.2241 H   0  0  0  0  0  0
  -17.5024  -31.6267   24.5155 H   0  0  0  0  0  0
  -15.5364  -30.2973   23.7667 H   0  0  0  0  0  0
  -15.8685  -28.0791   22.7109 H   0  0  0  0  0  0
  -24.5809  -30.7238   25.7764 H   0  0  0  0  0  0
  -24.8964  -32.3036   26.4841 H   0  0  0  0  0  0
  -25.7950  -30.8977   27.0234 H   0  0  0  0  0  0
  -26.2951  -29.6712   24.1304 H   0  0  0  0  0  0
  -27.3886  -29.7247   25.4918 H   0  0  0  0  0  0
  -27.8899  -30.4164   23.9681 H   0  0  0  0  0  0
  -27.2616  -33.3666   26.2037 H   0  0  0  0  0  0
  -28.3861  -32.6910   25.0347 H   0  0  0  0  0  0
  -28.0689  -31.8525   26.5461 H   0  0  0  0  0  0
  -28.2594  -38.0083   24.7494 H   0  0  0  0  0  0
  -28.1082  -36.2612   24.6292 H   0  0  0  0  0  0
  -27.2300  -37.1437   25.8861 H   0  0  0  0  0  0
  -20.9434  -29.8744   21.6801 H   0  0  0  0  0  0
  -26.0159  -38.2811   24.1421 H   0  0  0  0  0  0
  -30.7076  -20.6270   19.3561 H   0  0  0  0  0  0
  -27.3543  -19.9537   21.8651 H   0  0  0  0  0  0
  -31.4297  -19.5791   17.4637 H   0  0  0  0  0  0
  -33.0438  -18.7125   17.6112 H   0  0  0  0  0  0
  -31.8765  -16.5174   17.5024 H   0  0  0  0  0  0
  -30.2565  -17.3827   17.3836 H   0  0  0  0  0  0
  -27.9685  -18.4531   24.1210 H   0  0  0  0  0  0
  -26.3054  -17.6646   24.0504 H   0  0  0  0  0  0
  -27.3625  -15.5063   23.4092 H   0  0  0  0  0  0
  -29.0277  -16.2933   23.4741 H   0  0  0  0  0  0
  -32.2989  -17.6222   19.7491 H   0  0  0  0  0  0
  -26.6391  -17.1614   21.6224 H   0  0  0  0  0  0
  -27.1974  -24.5072   20.8734 H   0  0  0  0  0  0
  -27.5072  -24.4929   19.1726 H   0  0  0  0  0  0
  -29.6899  -23.5437   21.1244 H   0  0  0  0  0  0
  -29.6334  -23.2571   19.4128 H   0  0  0  0  0  0
  -28.7692  -15.6292   21.0022 H   0  0  0  0  0  0
  1 25  1  0  0  0
  1 30  2  0  0  0
  1 85  1  0  0  0
  2  3  1  0  0  0
  2 25  1  0  0  0
  2 87  1  0  0  0
  2 88  1  0  0  0
  3  4  1  0  0  0
  3 89  1  0  0  0
  3 90  1  0  0  0
  4  5  1  0  0  0
  4 91  1  0  0  0
  4 92  1  0  0  0
  5  6  1  0  0  0
  5 26  1  0  0  0
  5 93  1  0  0  0
  6 25  1  0  0  0
  6 94  1  0  0  0
  6 95  1  0  0  0
  7  8  2  0  0  0
  7 26  1  0  0  0
  7 29  1  0  0  0
  8  9  1  0  0  0
  8 22  1  0  0  0
  9 10  1  0  0  0
  9 27  2  0  0  0
 10 11  2  0  0  0
 10 15  1  0  0  0
 11 12  1  0  0  0
 11 96  1  0  0  0
 12 13  2  0  0  0
 12 97  1  0  0  0
 13 14  1  0  0  0
 13 31  1  0  0  0
 14 15  2  0  0  0
 14 98  1  0  0  0
 15 99  1  0  0  0
 16 17  2  0  0  0
 16 21  1  0  0  0
 16 31  1  0  0  0
 17 18  1  0  0  0
 17100  1  0  0  0
 18 19  2  0  0  0
 18101  1  0  0  0
 19 20  1  0  0  0
 19 24  1  0  0  0
 20 21  2  0  0  0
 20102  1  0  0  0
 21 23  1  0  0  0
 22 28  1  0  0  0
 22 32  2  0  0  0
 26 27  1  0  0  0
 28103  1  0  0  0
 28104  1  0  0  0
 29105  1  0  0  0
 29106  1  0  0  0
 33 34  1  0  0  0
 33 66  1  0  0  0
 33 70  2  0  0  0
 34 36  1  0  0  0
 34 59  1  0  0  0
 34107  1  0  0  0
 35 44  2  0  0  0
 35 45  1  0  0  0
 35 68  1  0  0  0
 36 56  1  0  0  0
 36108  1  0  0  0
 37 39  1  0  0  0
 37 47  1  0  0  0
 37 66  1  0  0  0
 37109  1  0  0  0
 38 43  2  0  0  0
 38 46  1  0  0  0
 38 47  1  0  0  0
 39 64  1  0  0  0
 39 67  2  0  0  0
 40 52  1  0  0  0
 40 53  2  0  0  0
 40 58  1  0  0  0
 41110  1  0  0  0
 41111  1  0  0  0
 41112  1  0  0  0
 41 48  1  0  0  0
 42 43  1  0  0  0
 42 66  1  0  0  0
 42113  1  0  0  0
 42114  1  0  0  0
 43 44  1  0  0  0
 44115  1  0  0  0
 45 46  2  0  0  0
 45116  1  0  0  0
 46117  1  0  0  0
 47118  1  0  0  0
 47119  1  0  0  0
 48 56  1  0  0  0
 48 65  1  0  0  0
 48120  1  0  0  0
 49 50  1  0  0  0
 49 53  1  0  0  0
 49 64  1  0  0  0
 49121  1  0  0  0
 50 51  1  0  0  0
 50122  1  0  0  0
 50123  1  0  0  0
 51 52  1  0  0  0
 51124  1  0  0  0
 51125  1  0  0  0
 52126  1  0  0  0
 52127  1  0  0  0
 53 54  1  0  0  0
 54 55  2  0  0  0
 54128  1  0  0  0
 55 57  1  0  0  0
 55129  1  0  0  0
 56 69  2  0  0  0
 57 58  2  0  0  0
 57130  1  0  0  0
 58131  1  0  0  0
 59 60  1  0  0  0
 59 61  1  0  0  0
 59 62  1  0  0  0
 60132  1  0  0  0
 60133  1  0  0  0
 60134  1  0  0  0
 61135  1  0  0  0
 61136  1  0  0  0
 61137  1  0  0  0
 62138  1  0  0  0
 62139  1  0  0  0
 62140  1  0  0  0
 63 65  1  0  0  0
 63141  1  0  0  0
 63142  1  0  0  0
 63143  1  0  0  0
 64144  1  0  0  0
 65145  1  0  0  0
 68 83  1  0  0  0
 71 73  2  0  0  0
 71 76  1  0  0  0
 71146  1  0  0  0
 72 74  1  0  0  0
 72 76  2  0  0  0
 72147  1  0  0  0
 73 75  1  0  0  0
 73 81  1  0  0  0
 74 75  2  0  0  0
 74 82  1  0  0  0
 75 85  1  0  0  0
 76 86  1  0  0  0
 77 78  1  0  0  0
 77 81  1  0  0  0
 77148  1  0  0  0
 77149  1  0  0  0
 78 81  1  0  0  0
 78150  1  0  0  0
 78151  1  0  0  0
 79 80  1  0  0  0
 79 82  1  0  0  0
 79152  1  0  0  0
 79153  1  0  0  0
 80 82  1  0  0  0
 80154  1  0  0  0
 80155  1  0  0  0
 81156  1  0  0  0
 82157  1  0  0  0
 83 84  1  0  0  0
 83158  1  0  0  0
 83159  1  0  0  0
 84 86  1  0  0  0
 84160  1  0  0  0
 84161  1  0  0  0
 85162  1  0  0  0
M  ISO  4   1 100  68 101  83 101  85 100
M  END
> <chiral flag>
0

> <version>
0

> <s_m_source_file>
/data/baiqing/PycharmProjects/Reinvent-master-3.2/result/LINK_invent/BTK/process_docking_weight1_custom_sum_contain_oxygen_bond_distance_aromatic_linkinvent_7_9_3/rearranged_h_0143.sdf

> <i_m_source_file_index>
87

> <r_mmod_Potential_Energy-OPLS-2005>
519.0888671875

> <r_mmod_Stretch_Energy-OPLS-2005>
221.424331665039

> <r_mmod_Bend_Energy-OPLS-2005>
307.898712158203

> <r_mmod_Torsional_Energy-OPLS-2005>
280.956451416016

> <r_mmod_Improper_Torsional_Energy-OPLS-2005>
4.87210750579834

> <r_mmod_Van_der_Waal_Energy-OPLS-2005>
121.710594177246

> <r_mmod_Electrostatic_Energy-OPLS-2005>
-388.303436279297

> <r_mmod_Solvation_Energy-OPLS-2005>
-202.349197387695

> <b_mmod_Minimization_Converged-OPLS-2005>
0

> <r_mmod_RMS_Derivative-OPLS-2005>
1.80002820491791

$$$$
89
                    3D
 Structure written by MMmdl.
174184  0  0  1  0            999 V2000
  -30.6432  -14.6111   20.5128 C   0  0  0  0  0  0
  -30.4287  -12.3806   19.4416 C   0  0  0  0  0  0
  -29.4996  -12.5003   18.2151 C   0  0  0  0  0  0
  -28.0233  -12.3419   18.6309 C   0  0  0  0  0  0
  -27.6491  -13.2159   19.8578 C   0  0  2  0  0  0
  -28.6934  -13.0744   20.9858 C   0  0  0  0  0  0
  -25.2543  -13.8168   20.5681 C   0  0  0  0  0  0
  -24.1814  -13.0437   20.9194 C   0  0  0  0  0  0
  -24.6381  -11.6908   20.8740 C   0  0  0  0  0  0
  -23.9057  -10.4291   21.0405 C   0  0  0  0  0  0
  -24.3613   -9.4206   21.9182 C   0  0  0  0  0  0
  -23.6290   -8.2244   22.0751 C   0  0  0  0  0  0
  -22.4273   -8.0279   21.3543 C   0  0  0  0  0  0
  -21.9906   -9.0250   20.4646 C   0  0  0  0  0  0
  -22.7231  -10.2130   20.3053 C   0  0  0  0  0  0
  -21.6852   -6.0733   22.5279 C   0  0  0  0  0  0
  -21.4014   -6.5636   23.8213 C   0  0  0  0  0  0
  -21.3658   -5.6789   24.9174 C   0  0  0  0  0  0
  -21.6045   -4.3053   24.7224 C   0  0  0  0  0  0
  -21.8819   -3.8145   23.4347 C   0  0  0  0  0  0
  -21.9194   -4.6961   22.3402 C   0  0  0  0  0  0
  -22.7840  -13.5230   21.1859 C   0  0  0  0  0  0
  -22.1663   -4.2148   21.0981 F   0  0  0  0  0  0
  -21.5627   -3.4537   25.7738 F   0  0  0  0  0  0
  -30.0053  -13.4057   20.4145 N   0  0  0  0  0  0
  -26.2965  -12.9352   20.3297 N   0  0  0  0  0  0
  -25.9307  -11.6507   20.5748 N   0  0  0  0  0  0
  -22.0482  -12.8224   22.0413 N   0  0  0  0  0  0
  -25.4249  -15.1892   20.4094 N   0  0  0  0  0  0
  -31.8172  -14.7498   20.1599 O   0  0  0  0  0  0
  -21.6639   -6.8875   21.4242 O   0  0  0  0  0  0
  -22.3534  -14.5539   20.6703 O   0  0  0  0  0  0
  -24.6224  -31.8614   23.2024 C   0  0  0  0  0  0
  -25.9091  -32.4781   23.8343 C   0  0  1  0  0  0
  -27.2257  -27.3409   20.1274 C   0  0  0  0  0  0
  -25.5925  -33.8580   24.2280 N   0  0  0  0  0  0
  -23.4145  -30.4825   21.5442 C   0  0  2  0  0  0
  -24.8608  -28.9294   20.1194 C   0  0  0  0  0  0
  -22.7446  -29.4634   22.4953 C   0  0  0  0  0  0
  -18.0279  -28.1389   22.8481 C   0  0  0  0  0  0
  -24.1490  -36.7291   23.2638 C   0  0  0  0  0  0
  -25.9500  -30.7991   21.3673 C   0  0  0  0  0  0
  -26.0254  -29.4228   20.7215 C   0  0  0  0  0  0
  -27.2126  -28.6400   20.7135 C   0  0  0  0  0  0
  -26.0459  -26.8878   19.5041 C   0  0  0  0  0  0
  -24.8707  -27.6665   19.5027 C   0  0  0  0  0  0
  -23.6284  -29.8090   20.1619 C   0  0  0  0  0  0
  -25.4113  -36.3083   24.0331 C   0  0  1  0  0  0
  -20.5872  -28.3687   23.1301 C   0  0  2  0  0  0
  -20.6768  -26.9417   22.5417 C   0  0  0  0  0  0
  -19.5747  -26.6394   21.5212 C   0  0  0  0  0  0
  -18.1924  -26.7934   22.1620 C   0  0  0  0  0  0
  -19.1528  -28.8855   23.2887 C   0  0  0  0  0  0
  -18.9454  -30.1460   23.8898 C   0  0  0  0  0  0
  -17.6454  -30.6589   24.0567 C   0  0  0  0  0  0
  -25.9044  -34.9453   23.5099 C   0  0  0  0  0  0
  -16.5345  -29.9088   23.6334 C   0  0  0  0  0  0
  -16.7268  -28.6508   23.0347 C   0  0  0  0  0  0
  -26.4491  -31.6582   25.0699 C   0  0  0  0  0  0
  -25.3738  -31.3724   26.1434 C   0  0  0  0  0  0
  -27.0325  -30.3010   24.6125 C   0  0  0  0  0  0
  -27.6056  -32.4311   25.7473 C   0  0  0  0  0  0
  -27.5581  -37.1801   24.8465 C   0  0  0  0  0  0
  -21.4162  -29.3042   22.3694 N   0  0  0  0  0  0
  -26.4295  -37.3775   23.9406 N   0  0  0  0  0  0
  -24.6810  -31.0647   22.0956 N   0  0  0  0  0  0
  -23.4185  -28.8180   23.3025 O   0  0  0  0  0  0
  -28.3781  -26.5608   20.0850 O   0  0  0  0  0  0
  -26.5607  -34.8918   22.4660 O   0  0  0  0  0  0
  -23.5399  -32.1405   23.7373 O   0  0  0  0  0  0
  -28.9258  -21.4684   20.4993 C   0  0  0  0  0  0
  -30.2159  -22.5231   19.0388 C   0  0  0  0  0  0
  -29.0262  -22.6878   19.8291 C   0  0  0  0  0  0
  -30.8078  -21.3018   19.2926 C   0  0  0  0  0  0
  -31.7233  -24.6049   18.4542 C   0  0  0  0  0  0
  -30.4236  -24.9368   17.7703 C   0  0  0  0  0  0
  -30.6564  -17.9710   19.8399 C   0  0  0  0  0  0
  -29.2658  -18.2101   21.3442 C   0  0  0  0  0  0
  -30.8012  -23.4903   18.0143 C   0  0  0  0  0  0
  -30.2508  -19.2288   20.6870 C   0  0  2  0  0  0
  -30.3394  -17.1011   21.0789 C   0  0  1  0  0  0
  -33.2998  -21.6730   18.7752 C   0  0  0  0  0  0
  -31.9399  -20.0326   17.4167 C   0  0  0  0  0  0
  -28.4111  -25.2128   20.6841 C   0  0  0  0  0  0
  -28.0360  -23.9149   19.8332 C   0  0  2  0  0  0
  -32.1071  -20.7044   18.7879 C   0  0  0  0  0  0
  -29.9605  -20.5840   20.1408 N   0  0  0  0  0  0
  -29.8770  -15.6935   20.8479 N   0  0  0  0  0  0
  -26.6834  -23.4331   20.1794 N   0  3  0  0  0  0
  -31.4702  -12.5001   19.1380 H   0  0  0  0  0  0
  -30.3571  -11.3863   19.8850 H   0  0  0  0  0  0
  -29.7605  -11.7490   17.4684 H   0  0  0  0  0  0
  -29.6453  -13.4702   17.7367 H   0  0  0  0  0  0
  -27.8592  -11.2892   18.8653 H   0  0  0  0  0  0
  -27.3676  -12.5711   17.7900 H   0  0  0  0  0  0
  -27.6670  -14.2504   19.5142 H   0  0  0  0  0  0
  -28.7024  -12.0562   21.3771 H   0  0  0  0  0  0
  -28.4456  -13.7186   21.8308 H   0  0  0  0  0  0
  -25.2760   -9.5684   22.4752 H   0  0  0  0  0  0
  -24.0001   -7.4635   22.7466 H   0  0  0  0  0  0
  -21.0839   -8.8767   19.8952 H   0  0  0  0  0  0
  -22.3690  -10.9667   19.6160 H   0  0  0  0  0  0
  -21.2008   -7.6145   23.9714 H   0  0  0  0  0  0
  -21.1478   -6.0520   25.9076 H   0  0  0  0  0  0
  -22.0599   -2.7609   23.2848 H   0  0  0  0  0  0
  -22.4092  -11.9878   22.4797 H   0  0  0  0  0  0
  -21.1104  -13.1255   22.2618 H   0  0  0  0  0  0
  -24.6548  -15.8405   20.5153 H   0  0  0  0  0  0
  -26.2694  -15.6300   20.0680 H   0  0  0  0  0  0
  -26.7156  -32.5467   23.1094 H   0  0  0  0  0  0
  -25.0107  -33.9729   25.0447 H   0  0  0  0  0  0
  -22.7073  -31.3018   21.3987 H   0  0  0  0  0  0
  -23.3749  -35.9627   23.3304 H   0  0  0  0  0  0
  -24.3583  -36.8903   22.2052 H   0  0  0  0  0  0
  -23.7246  -37.6497   23.6651 H   0  0  0  0  0  0
  -26.0721  -31.5577   20.5928 H   0  0  0  0  0  0
  -26.8343  -30.8562   21.9904 H   0  0  0  0  0  0
  -28.1141  -29.0221   21.1724 H   0  0  0  0  0  0
  -26.0326  -25.9399   18.9894 H   0  0  0  0  0  0
  -23.9809  -27.2900   19.0168 H   0  0  0  0  0  0
  -23.7460  -30.5794   19.3988 H   0  0  0  0  0  0
  -22.7493  -29.2341   19.8652 H   0  0  0  0  0  0
  -25.1294  -36.1937   25.0827 H   0  0  0  0  0  0
  -20.9969  -28.3258   24.1422 H   0  0  0  0  0  0
  -20.5671  -26.2291   23.3608 H   0  0  0  0  0  0
  -21.6640  -26.7459   22.1213 H   0  0  0  0  0  0
  -19.6904  -25.6304   21.1246 H   0  0  0  0  0  0
  -19.6692  -27.3201   20.6740 H   0  0  0  0  0  0
  -17.4202  -26.6692   21.4014 H   0  0  0  0  0  0
  -18.0315  -26.0079   22.9021 H   0  0  0  0  0  0
  -19.7932  -30.7277   24.2264 H   0  0  0  0  0  0
  -17.5013  -31.6269   24.5170 H   0  0  0  0  0  0
  -15.5345  -30.2991   23.7660 H   0  0  0  0  0  0
  -15.8669  -28.0836   22.7052 H   0  0  0  0  0  0
  -24.5915  -30.7062   25.7778 H   0  0  0  0  0  0
  -24.8923  -32.2891   26.4846 H   0  0  0  0  0  0
  -25.8074  -30.8925   27.0214 H   0  0  0  0  0  0
  -26.2882  -29.6763   24.1170 H   0  0  0  0  0  0
  -27.4058  -29.7259   25.4609 H   0  0  0  0  0  0
  -27.8735  -30.4303   23.9308 H   0  0  0  0  0  0
  -27.2670  -33.3611   26.2051 H   0  0  0  0  0  0
  -28.3867  -32.6870   25.0302 H   0  0  0  0  0  0
  -28.0718  -31.8433   26.5390 H   0  0  0  0  0  0
  -28.2604  -38.0095   24.7507 H   0  0  0  0  0  0
  -28.1073  -36.2623   24.6295 H   0  0  0  0  0  0
  -27.2299  -37.1463   25.8871 H   0  0  0  0  0  0
  -20.9331  -29.8761   21.6908 H   0  0  0  0  0  0
  -26.0175  -38.2852   24.1401 H   0  0  0  0  0  0
  -28.1843  -21.1227   21.2072 H   0  0  0  0  0  0
  -31.7927  -24.8078   19.5214 H   0  0  0  0  0  0
  -32.6408  -24.7589   17.8905 H   0  0  0  0  0  0
  -30.4796  -25.2902   16.7425 H   0  0  0  0  0  0
  -29.6985  -25.4543   18.3779 H   0  0  0  0  0  0
  -31.7002  -17.9067   19.5362 H   0  0  0  0  0  0
  -29.9919  -17.7895   18.9924 H   0  0  0  0  0  0
  -28.3392  -18.0796   20.7808 H   0  0  0  0  0  0
  -29.0634  -18.4012   22.3984 H   0  0  0  0  0  0
  -31.0743  -22.9383   17.1174 H   0  0  0  0  0  0
  -31.0446  -19.4353   21.4096 H   0  0  0  0  0  0
  -31.1489  -17.1479   21.8124 H   0  0  0  0  0  0
  -33.3914  -22.1988   19.7260 H   0  0  0  0  0  0
  -33.2332  -22.4107   17.9794 H   0  0  0  0  0  0
  -34.2312  -21.1302   18.6127 H   0  0  0  0  0  0
  -31.1500  -19.2829   17.4337 H   0  0  0  0  0  0
  -32.8584  -19.5320   17.1094 H   0  0  0  0  0  0
  -31.6839  -20.7554   16.6429 H   0  0  0  0  0  0
  -29.4535  -25.0903   20.9787 H   0  0  0  0  0  0
  -27.8730  -25.2234   21.6330 H   0  0  0  0  0  0
  -27.9536  -24.2222   18.7914 H   0  0  0  0  0  0
  -32.4309  -19.9414   19.4902 H   0  0  0  0  0  0
  -28.9102  -15.4937   21.0567 H   0  0  0  0  0  0
  -26.6535  -23.1025   21.1281 H   0  0  0  0  0  0
  -26.4288  -22.6737   19.5724 H   0  0  0  0  0  0
  -25.9947  -24.1571   20.0779 H   0  0  0  0  0  0
  1 25  1  0  0  0
  1 30  2  0  0  0
  1 88  1  0  0  0
  2  3  1  0  0  0
  2 25  1  0  0  0
  2 90  1  0  0  0
  2 91  1  0  0  0
  3  4  1  0  0  0
  3 92  1  0  0  0
  3 93  1  0  0  0
  4  5  1  0  0  0
  4 94  1  0  0  0
  4 95  1  0  0  0
  5  6  1  0  0  0
  5 26  1  0  0  0
  5 96  1  0  0  0
  6 25  1  0  0  0
  6 97  1  0  0  0
  6 98  1  0  0  0
  7  8  2  0  0  0
  7 26  1  0  0  0
  7 29  1  0  0  0
  8  9  1  0  0  0
  8 22  1  0  0  0
  9 10  1  0  0  0
  9 27  2  0  0  0
 10 11  2  0  0  0
 10 15  1  0  0  0
 11 12  1  0  0  0
 11 99  1  0  0  0
 12 13  2  0  0  0
 12100  1  0  0  0
 13 14  1  0  0  0
 13 31  1  0  0  0
 14 15  2  0  0  0
 14101  1  0  0  0
 15102  1  0  0  0
 16 17  2  0  0  0
 16 21  1  0  0  0
 16 31  1  0  0  0
 17 18  1  0  0  0
 17103  1  0  0  0
 18 19  2  0  0  0
 18104  1  0  0  0
 19 20  1  0  0  0
 19 24  1  0  0  0
 20 21  2  0  0  0
 20105  1  0  0  0
 21 23  1  0  0  0
 22 28  1  0  0  0
 22 32  2  0  0  0
 26 27  1  0  0  0
 28106  1  0  0  0
 28107  1  0  0  0
 29108  1  0  0  0
 29109  1  0  0  0
 33 34  1  0  0  0
 33 66  1  0  0  0
 33 70  2  0  0  0
 34 36  1  0  0  0
 34 59  1  0  0  0
 34110  1  0  0  0
 35 44  2  0  0  0
 35 45  1  0  0  0
 35 68  1  0  0  0
 36 56  1  0  0  0
 36111  1  0  0  0
 37 39  1  0  0  0
 37 47  1  0  0  0
 37 66  1  0  0  0
 37112  1  0  0  0
 38 43  2  0  0  0
 38 46  1  0  0  0
 38 47  1  0  0  0
 39 64  1  0  0  0
 39 67  2  0  0  0
 40 52  1  0  0  0
 40 53  2  0  0  0
 40 58  1  0  0  0
 41113  1  0  0  0
 41114  1  0  0  0
 41115  1  0  0  0
 41 48  1  0  0  0
 42 43  1  0  0  0
 42 66  1  0  0  0
 42116  1  0  0  0
 42117  1  0  0  0
 43 44  1  0  0  0
 44118  1  0  0  0
 45 46  2  0  0  0
 45119  1  0  0  0
 46120  1  0  0  0
 47121  1  0  0  0
 47122  1  0  0  0
 48 56  1  0  0  0
 48 65  1  0  0  0
 48123  1  0  0  0
 49 50  1  0  0  0
 49 53  1  0  0  0
 49 64  1  0  0  0
 49124  1  0  0  0
 50 51  1  0  0  0
 50125  1  0  0  0
 50126  1  0  0  0
 51 52  1  0  0  0
 51127  1  0  0  0
 51128  1  0  0  0
 52129  1  0  0  0
 52130  1  0  0  0
 53 54  1  0  0  0
 54 55  2  0  0  0
 54131  1  0  0  0
 55 57  1  0  0  0
 55132  1  0  0  0
 56 69  2  0  0  0
 57 58  2  0  0  0
 57133  1  0  0  0
 58134  1  0  0  0
 59 60  1  0  0  0
 59 61  1  0  0  0
 59 62  1  0  0  0
 60135  1  0  0  0
 60136  1  0  0  0
 60137  1  0  0  0
 61138  1  0  0  0
 61139  1  0  0  0
 61140  1  0  0  0
 62141  1  0  0  0
 62142  1  0  0  0
 62143  1  0  0  0
 63 65  1  0  0  0
 63144  1  0  0  0
 63145  1  0  0  0
 63146  1  0  0  0
 64147  1  0  0  0
 65148  1  0  0  0
 68 84  1  0  0  0
 71 73  2  0  0  0
 71 87  1  0  0  0
 71149  1  0  0  0
 72 73  1  0  0  0
 72 74  2  0  0  0
 72 79  1  0  0  0
 73 85  1  0  0  0
 74 86  1  0  0  0
 74 87  1  0  0  0
 75 76  1  0  0  0
 75 79  1  0  0  0
 75150  1  0  0  0
 75151  1  0  0  0
 76 79  1  0  0  0
 76152  1  0  0  0
 76153  1  0  0  0
 77 80  1  0  0  0
 77 81  1  0  0  0
 77154  1  0  0  0
 77155  1  0  0  0
 78 80  1  0  0  0
 78 81  1  0  0  0
 78156  1  0  0  0
 78157  1  0  0  0
 79158  1  0  0  0
 80 87  1  0  0  0
 80159  1  0  0  0
 81 88  1  0  0  0
 81160  1  0  0  0
 82161  1  0  0  0
 82162  1  0  0  0
 82163  1  0  0  0
 82 86  1  0  0  0
 83 86  1  0  0  0
 83164  1  0  0  0
 83165  1  0  0  0
 83166  1  0  0  0
 84 85  1  0  0  0
 84167  1  0  0  0
 84168  1  0  0  0
 85 89  1  0  0  0
 85169  1  0  0  0
 86170  1  0  0  0
 88171  1  0  0  0
 89172  1  0  0  0
 89173  1  0  0  0
 89174  1  0  0  0
M  CHG  1  89   1
M  ISO  4   1 100  68 101  84 101  88 100
M  END
> <chiral flag>
0

> <version>
0

> <s_m_source_file>
/data/baiqing/PycharmProjects/Reinvent-master-3.2/result/LINK_invent/BTK/process_docking_weight1_custom_sum_contain_oxygen_bond_distance_aromatic_linkinvent_7_9_3/rearranged_h_0143.sdf

> <i_m_source_file_index>
88

> <r_mmod_Potential_Energy-OPLS-2005>
-118.130844116211

> <r_mmod_Stretch_Energy-OPLS-2005>
74.3691024780273

> <r_mmod_Bend_Energy-OPLS-2005>
184.123947143555

> <r_mmod_Torsional_Energy-OPLS-2005>
294.473419189453

> <r_mmod_Improper_Torsional_Energy-OPLS-2005>
5.36933279037476

> <r_mmod_Van_der_Waal_Energy-OPLS-2005>
118.489929199219

> <r_mmod_Electrostatic_Energy-OPLS-2005>
-373.433929443359

> <r_mmod_Solvation_Energy-OPLS-2005>
-458.466766357422

> <b_mmod_Minimization_Converged-OPLS-2005>
0

> <r_mmod_RMS_Derivative-OPLS-2005>
0.984718680381775

$$$$
90
                    3D
 Structure written by MMmdl.
172181  0  0  1  0            999 V2000
  -30.7033  -14.5681   20.5085 C   0  0  0  0  0  0
  -30.4142  -12.3559   19.4417 C   0  0  0  0  0  0
  -29.4953  -12.4910   18.2107 C   0  0  0  0  0  0
  -28.0166  -12.3504   18.6229 C   0  0  0  0  0  0
  -27.6472  -13.2223   19.8542 C   0  0  2  0  0  0
  -28.6919  -13.0775   20.9792 C   0  0  0  0  0  0
  -25.2535  -13.8185   20.5681 C   0  0  0  0  0  0
  -24.1817  -13.0444   20.9191 C   0  0  0  0  0  0
  -24.6392  -11.6915   20.8741 C   0  0  0  0  0  0
  -23.9068  -10.4294   21.0407 C   0  0  0  0  0  0
  -24.3618   -9.4208   21.9184 C   0  0  0  0  0  0
  -23.6294   -8.2243   22.0753 C   0  0  0  0  0  0
  -22.4277   -8.0282   21.3541 C   0  0  0  0  0  0
  -21.9909   -9.0257   20.4644 C   0  0  0  0  0  0
  -22.7240  -10.2137   20.3054 C   0  0  0  0  0  0
  -21.6857   -6.0733   22.5279 C   0  0  0  0  0  0
  -21.4014   -6.5637   23.8212 C   0  0  0  0  0  0
  -21.3660   -5.6792   24.9174 C   0  0  0  0  0  0
  -21.6045   -4.3054   24.7227 C   0  0  0  0  0  0
  -21.8819   -3.8144   23.4348 C   0  0  0  0  0  0
  -21.9193   -4.6959   22.3403 C   0  0  0  0  0  0
  -22.7838  -13.5227   21.1857 C   0  0  0  0  0  0
  -22.1663   -4.2146   21.0980 F   0  0  0  0  0  0
  -21.5628   -3.4538   25.7738 F   0  0  0  0  0  0
  -30.0034  -13.3973   20.4029 N   0  0  0  0  0  0
  -26.2960  -12.9384   20.3289 N   0  0  0  0  0  0
  -25.9319  -11.6529   20.5745 N   0  0  0  0  0  0
  -22.0485  -12.8222   22.0415 N   0  0  0  0  0  0
  -25.4242  -15.1900   20.4089 N   0  0  0  0  0  0
  -31.8979  -14.6053   20.1948 O   0  0  0  0  0  0
  -21.6641   -6.8875   21.4240 O   0  0  0  0  0  0
  -22.3519  -14.5533   20.6711 O   0  0  0  0  0  0
  -24.6195  -31.8636   23.2054 C   0  0  0  0  0  0
  -25.9060  -32.4805   23.8371 C   0  0  1  0  0  0
  -27.2292  -27.3795   20.1152 C   0  0  0  0  0  0
  -25.5899  -33.8605   24.2302 N   0  0  0  0  0  0
  -23.4112  -30.4840   21.5462 C   0  0  2  0  0  0
  -24.8597  -28.9382   20.1191 C   0  0  0  0  0  0
  -22.7444  -29.4623   22.4960 C   0  0  0  0  0  0
  -18.0280  -28.1381   22.8484 C   0  0  0  0  0  0
  -24.1486  -36.7310   23.2639 C   0  0  0  0  0  0
  -25.9447  -30.8108   21.3672 C   0  0  0  0  0  0
  -26.0220  -29.4381   20.7217 C   0  0  0  0  0  0
  -27.2130  -28.6657   20.7176 C   0  0  0  0  0  0
  -26.0526  -26.9037   19.5066 C   0  0  0  0  0  0
  -24.8715  -27.6717   19.5081 C   0  0  0  0  0  0
  -23.6252  -29.8142   20.1624 C   0  0  0  0  0  0
  -25.4108  -36.3105   24.0338 C   0  0  1  0  0  0
  -20.5874  -28.3668   23.1311 C   0  0  2  0  0  0
  -20.6769  -26.9397   22.5419 C   0  0  0  0  0  0
  -19.5747  -26.6381   21.5217 C   0  0  0  0  0  0
  -18.1925  -26.7926   22.1623 C   0  0  0  0  0  0
  -19.1528  -28.8840   23.2892 C   0  0  0  0  0  0
  -18.9459  -30.1446   23.8898 C   0  0  0  0  0  0
  -17.6461  -30.6585   24.0561 C   0  0  0  0  0  0
  -25.9038  -34.9472   23.5122 C   0  0  0  0  0  0
  -16.5348  -29.9087   23.6329 C   0  0  0  0  0  0
  -16.7268  -28.6506   23.0346 C   0  0  0  0  0  0
  -26.4468  -31.6602   25.0721 C   0  0  0  0  0  0
  -25.3723  -31.3734   26.1467 C   0  0  0  0  0  0
  -27.0307  -30.3041   24.6121 C   0  0  0  0  0  0
  -27.6035  -32.4331   25.7492 C   0  0  0  0  0  0
  -27.5583  -37.1809   24.8467 C   0  0  0  0  0  0
  -21.4161  -29.3030   22.3712 N   0  0  0  0  0  0
  -26.4295  -37.3795   23.9412 N   0  0  0  0  0  0
  -24.6769  -31.0690   22.0976 N   0  0  0  0  0  0
  -23.4191  -28.8166   23.3025 O   0  0  0  0  0  0
  -28.3633  -26.5888   20.0551 O   0  0  0  0  0  0
  -26.5609  -34.8930   22.4691 O   0  0  0  0  0  0
  -23.5374  -32.1401   23.7414 O   0  0  0  0  0  0
  -29.0984  -23.3975   19.9526 C   0  0  0  0  0  0
  -28.9498  -21.9844   19.8453 C   0  0  0  0  0  0
  -27.4950  -23.4183   21.7487 C   0  0  0  0  0  0
  -28.3563  -24.1454   20.8998 C   0  0  0  0  0  0
  -28.0483  -21.2551   20.6663 C   0  0  0  0  0  0
  -27.3399  -22.0101   21.6527 C   0  0  0  0  0  0
  -29.5003  -17.9860   19.3670 C   0  0  0  0  0  0
  -28.4617  -17.4764   21.5565 C   0  0  0  0  0  0
  -30.5118  -16.8429   19.6511 C   0  0  0  0  0  0
  -29.5323  -16.3637   21.7769 C   0  0  0  0  0  0
  -28.9149  -18.6544   20.6395 C   0  0  0  0  0  0
  -26.3839  -21.3578   22.6414 C   0  0  0  0  0  0
  -27.3426  -20.0467   17.8365 C   0  0  0  0  0  0
  -25.3978  -19.9937   19.4116 C   0  0  0  0  0  0
  -28.5689  -25.6650   21.1497 C   0  0  0  0  0  0
  -27.7546  -19.7293   20.4168 C   0  0  2  0  0  0
  -26.8300  -19.4807   19.1773 C   0  0  0  0  0  0
  -29.9954  -15.7500   20.5168 N   0  0  0  0  0  0
  -31.4593  -12.4427   19.1388 H   0  0  0  0  0  0
  -30.3180  -11.3653   19.8885 H   0  0  0  0  0  0
  -29.7487  -11.7346   17.4666 H   0  0  0  0  0  0
  -29.6562  -13.4582   17.7305 H   0  0  0  0  0  0
  -27.8400  -11.2982   18.8495 H   0  0  0  0  0  0
  -27.3661  -12.5919   17.7814 H   0  0  0  0  0  0
  -27.6669  -14.2595   19.5185 H   0  0  0  0  0  0
  -28.6942  -12.0593   21.3711 H   0  0  0  0  0  0
  -28.4408  -13.7169   21.8216 H   0  0  0  0  0  0
  -25.2764   -9.5686   22.4759 H   0  0  0  0  0  0
  -24.0008   -7.4629   22.7470 H   0  0  0  0  0  0
  -21.0842   -8.8772   19.8949 H   0  0  0  0  0  0
  -22.3698  -10.9673   19.6163 H   0  0  0  0  0  0
  -21.2009   -7.6146   23.9715 H   0  0  0  0  0  0
  -21.1482   -6.0521   25.9077 H   0  0  0  0  0  0
  -22.0600   -2.7606   23.2849 H   0  0  0  0  0  0
  -22.4109  -11.9890   22.4811 H   0  0  0  0  0  0
  -21.1097  -13.1234   22.2608 H   0  0  0  0  0  0
  -24.6611  -15.8474   20.5225 H   0  0  0  0  0  0
  -26.2845  -15.6252   20.1039 H   0  0  0  0  0  0
  -26.7126  -32.5494   23.1128 H   0  0  0  0  0  0
  -25.0066  -33.9760   25.0456 H   0  0  0  0  0  0
  -22.7026  -31.3023   21.4029 H   0  0  0  0  0  0
  -23.3750  -35.9641   23.3316 H   0  0  0  0  0  0
  -24.3578  -36.8915   22.2050 H   0  0  0  0  0  0
  -23.7242  -37.6519   23.6646 H   0  0  0  0  0  0
  -26.0643  -31.5688   20.5917 H   0  0  0  0  0  0
  -26.8300  -30.8681   21.9881 H   0  0  0  0  0  0
  -28.1122  -29.0489   21.1788 H   0  0  0  0  0  0
  -26.0514  -25.9304   19.0354 H   0  0  0  0  0  0
  -23.9784  -27.2816   19.0385 H   0  0  0  0  0  0
  -23.7438  -30.5881   19.4033 H   0  0  0  0  0  0
  -22.7473  -29.2396   19.8614 H   0  0  0  0  0  0
  -25.1288  -36.1966   25.0832 H   0  0  0  0  0  0
  -20.9960  -28.3230   24.1433 H   0  0  0  0  0  0
  -20.5690  -26.2263   23.3604 H   0  0  0  0  0  0
  -21.6641  -26.7446   22.1201 H   0  0  0  0  0  0
  -19.6917  -25.6299   21.1237 H   0  0  0  0  0  0
  -19.6703  -27.3197   20.6754 H   0  0  0  0  0  0
  -17.4204  -26.6675   21.4016 H   0  0  0  0  0  0
  -18.0316  -26.0066   22.9015 H   0  0  0  0  0  0
  -19.7936  -30.7258   24.2265 H   0  0  0  0  0  0
  -17.5021  -31.6267   24.5162 H   0  0  0  0  0  0
  -15.5351  -30.2995   23.7660 H   0  0  0  0  0  0
  -15.8662  -28.0835   22.7058 H   0  0  0  0  0  0
  -24.5883  -30.7094   25.7814 H   0  0  0  0  0  0
  -24.8930  -32.2904   26.4908 H   0  0  0  0  0  0
  -25.8063  -30.8909   27.0234 H   0  0  0  0  0  0
  -26.2866  -29.6806   24.1148 H   0  0  0  0  0  0
  -27.4054  -29.7275   25.4590 H   0  0  0  0  0  0
  -27.8711  -30.4376   23.9301 H   0  0  0  0  0  0
  -27.2641  -33.3623   26.2086 H   0  0  0  0  0  0
  -28.3831  -32.6908   25.0311 H   0  0  0  0  0  0
  -28.0711  -31.8446   26.5397 H   0  0  0  0  0  0
  -28.2602  -38.0103   24.7515 H   0  0  0  0  0  0
  -28.1076  -36.2640   24.6288 H   0  0  0  0  0  0
  -27.2306  -37.1460   25.8870 H   0  0  0  0  0  0
  -20.9326  -29.8756   21.6932 H   0  0  0  0  0  0
  -26.0184  -38.2876   24.1409 H   0  0  0  0  0  0
  -29.7986  -23.9078   19.3058 H   0  0  0  0  0  0
  -29.5170  -21.4577   19.0911 H   0  0  0  0  0  0
  -26.9464  -23.9589   22.5071 H   0  0  0  0  0  0
  -28.7087  -17.5649   18.7501 H   0  0  0  0  0  0
  -29.9958  -18.7432   18.7594 H   0  0  0  0  0  0
  -28.1679  -17.8710   22.5301 H   0  0  0  0  0  0
  -27.5637  -17.0212   21.1382 H   0  0  0  0  0  0
  -31.4125  -17.2618   20.1050 H   0  0  0  0  0  0
  -30.8252  -16.4311   18.6884 H   0  0  0  0  0  0
  -29.1380  -15.6157   22.4619 H   0  0  0  0  0  0
  -30.3958  -16.7910   22.2906 H   0  0  0  0  0  0
  -29.7308  -19.1589   21.1589 H   0  0  0  0  0  0
  -26.0135  -22.0753   23.3743 H   0  0  0  0  0  0
  -26.8840  -20.5630   23.1963 H   0  0  0  0  0  0
  -25.5167  -20.9412   22.1313 H   0  0  0  0  0  0
  -27.3115  -21.1360   17.8203 H   0  0  0  0  0  0
  -26.7211  -19.7004   17.0105 H   0  0  0  0  0  0
  -28.3627  -19.7442   17.6120 H   0  0  0  0  0  0
  -25.3750  -21.0741   19.5598 H   0  0  0  0  0  0
  -24.9448  -19.5248   20.2850 H   0  0  0  0  0  0
  -24.7552  -19.7675   18.5599 H   0  0  0  0  0  0
  -29.6037  -25.7886   21.4706 H   0  0  0  0  0  0
  -27.9708  -25.9737   22.0094 H   0  0  0  0  0  0
  -27.0932  -19.4650   21.2343 H   0  0  0  0  0  0
  -26.7230  -18.4025   19.0607 H   0  0  0  0  0  0
  1 25  1  0  0  0
  1 30  2  0  0  0
  1 88  1  0  0  0
  2  3  1  0  0  0
  2 25  1  0  0  0
  2 89  1  0  0  0
  2 90  1  0  0  0
  3  4  1  0  0  0
  3 91  1  0  0  0
  3 92  1  0  0  0
  4  5  1  0  0  0
  4 93  1  0  0  0
  4 94  1  0  0  0
  5  6  1  0  0  0
  5 26  1  0  0  0
  5 95  1  0  0  0
  6 25  1  0  0  0
  6 96  1  0  0  0
  6 97  1  0  0  0
  7  8  2  0  0  0
  7 26  1  0  0  0
  7 29  1  0  0  0
  8  9  1  0  0  0
  8 22  1  0  0  0
  9 10  1  0  0  0
  9 27  2  0  0  0
 10 11  2  0  0  0
 10 15  1  0  0  0
 11 12  1  0  0  0
 11 98  1  0  0  0
 12 13  2  0  0  0
 12 99  1  0  0  0
 13 14  1  0  0  0
 13 31  1  0  0  0
 14 15  2  0  0  0
 14100  1  0  0  0
 15101  1  0  0  0
 16 17  2  0  0  0
 16 21  1  0  0  0
 16 31  1  0  0  0
 17 18  1  0  0  0
 17102  1  0  0  0
 18 19  2  0  0  0
 18103  1  0  0  0
 19 20  1  0  0  0
 19 24  1  0  0  0
 20 21  2  0  0  0
 20104  1  0  0  0
 21 23  1  0  0  0
 22 28  1  0  0  0
 22 32  2  0  0  0
 26 27  1  0  0  0
 28105  1  0  0  0
 28106  1  0  0  0
 29107  1  0  0  0
 29108  1  0  0  0
 33 34  1  0  0  0
 33 66  1  0  0  0
 33 70  2  0  0  0
 34 36  1  0  0  0
 34 59  1  0  0  0
 34109  1  0  0  0
 35 44  2  0  0  0
 35 45  1  0  0  0
 35 68  1  0  0  0
 36 56  1  0  0  0
 36110  1  0  0  0
 37 39  1  0  0  0
 37 47  1  0  0  0
 37 66  1  0  0  0
 37111  1  0  0  0
 38 43  2  0  0  0
 38 46  1  0  0  0
 38 47  1  0  0  0
 39 64  1  0  0  0
 39 67  2  0  0  0
 40 52  1  0  0  0
 40 53  2  0  0  0
 40 58  1  0  0  0
 41112  1  0  0  0
 41113  1  0  0  0
 41114  1  0  0  0
 41 48  1  0  0  0
 42 43  1  0  0  0
 42 66  1  0  0  0
 42115  1  0  0  0
 42116  1  0  0  0
 43 44  1  0  0  0
 44117  1  0  0  0
 45 46  2  0  0  0
 45118  1  0  0  0
 46119  1  0  0  0
 47120  1  0  0  0
 47121  1  0  0  0
 48 56  1  0  0  0
 48 65  1  0  0  0
 48122  1  0  0  0
 49 50  1  0  0  0
 49 53  1  0  0  0
 49 64  1  0  0  0
 49123  1  0  0  0
 50 51  1  0  0  0
 50124  1  0  0  0
 50125  1  0  0  0
 51 52  1  0  0  0
 51126  1  0  0  0
 51127  1  0  0  0
 52128  1  0  0  0
 52129  1  0  0  0
 53 54  1  0  0  0
 54 55  2  0  0  0
 54130  1  0  0  0
 55 57  1  0  0  0
 55131  1  0  0  0
 56 69  2  0  0  0
 57 58  2  0  0  0
 57132  1  0  0  0
 58133  1  0  0  0
 59 60  1  0  0  0
 59 61  1  0  0  0
 59 62  1  0  0  0
 60134  1  0  0  0
 60135  1  0  0  0
 60136  1  0  0  0
 61137  1  0  0  0
 61138  1  0  0  0
 61139  1  0  0  0
 62140  1  0  0  0
 62141  1  0  0  0
 62142  1  0  0  0
 63 65  1  0  0  0
 63143  1  0  0  0
 63144  1  0  0  0
 63145  1  0  0  0
 64146  1  0  0  0
 65147  1  0  0  0
 68 85  1  0  0  0
 71 72  2  0  0  0
 71 74  1  0  0  0
 71148  1  0  0  0
 72 75  1  0  0  0
 72149  1  0  0  0
 73 74  2  0  0  0
 73 76  1  0  0  0
 73150  1  0  0  0
 74 85  1  0  0  0
 75 76  2  0  0  0
 75 86  1  0  0  0
 76 82  1  0  0  0
 77 79  1  0  0  0
 77151  1  0  0  0
 77152  1  0  0  0
 77 81  1  0  0  0
 78 80  1  0  0  0
 78 81  1  0  0  0
 78153  1  0  0  0
 78154  1  0  0  0
 79 88  1  0  0  0
 79155  1  0  0  0
 79156  1  0  0  0
 80 88  1  0  0  0
 80157  1  0  0  0
 80158  1  0  0  0
 81 86  1  0  0  0
 81159  1  0  0  0
 82160  1  0  0  0
 82161  1  0  0  0
 82162  1  0  0  0
 83163  1  0  0  0
 83164  1  0  0  0
 83165  1  0  0  0
 83 87  1  0  0  0
 84 87  1  0  0  0
 84166  1  0  0  0
 84167  1  0  0  0
 84168  1  0  0  0
 85169  1  0  0  0
 85170  1  0  0  0
 86 87  1  0  0  0
 86171  1  0  0  0
 87172  1  0  0  0
M  ISO  4   1 100  68 101  85 101  88 100
M  END
> <chiral flag>
0

> <version>
0

> <s_m_source_file>
/data/baiqing/PycharmProjects/Reinvent-master-3.2/result/LINK_invent/BTK/process_docking_weight1_custom_sum_contain_oxygen_bond_distance_aromatic_linkinvent_7_9_3/rearranged_h_0143.sdf

> <i_m_source_file_index>
89

> <r_mmod_Potential_Energy-OPLS-2005>
325.165466308594

> <r_mmod_Stretch_Energy-OPLS-2005>
64.8652648925781

> <r_mmod_Bend_Energy-OPLS-2005>
145.525573730469

> <r_mmod_Torsional_Energy-OPLS-2005>
367.876617431641

> <r_mmod_Improper_Torsional_Energy-OPLS-2005>
18.3618564605713

> <r_mmod_Van_der_Waal_Energy-OPLS-2005>
148.516723632812

> <r_mmod_Electrostatic_Energy-OPLS-2005>
-273.780700683594

> <r_mmod_Solvation_Energy-OPLS-2005>
-177.375

> <b_mmod_Minimization_Converged-OPLS-2005>
0

> <r_mmod_RMS_Derivative-OPLS-2005>
1.11774563789368

$$$$
91
                    3D
 Structure written by MMmdl.
147155  0  0  1  0            999 V2000
  -30.2976  -15.6506   20.3262 C   0  0  0  0  0  0
  -30.4231  -13.0947   19.5354 C   0  0  0  0  0  0
  -29.5501  -12.6550   18.3249 C   0  0  0  0  0  0
  -28.1266  -12.2930   18.7740 C   0  0  0  0  0  0
  -27.5946  -13.3075   19.8107 C   0  0  2  0  0  0
  -28.6096  -13.6525   20.9263 C   0  0  0  0  0  0
  -25.2323  -13.8283   20.5793 C   0  0  0  0  0  0
  -24.1711  -13.0434   20.9288 C   0  0  0  0  0  0
  -24.6409  -11.6944   20.8767 C   0  0  0  0  0  0
  -23.9114  -10.4292   21.0399 C   0  0  0  0  0  0
  -24.3648   -9.4207   21.9181 C   0  0  0  0  0  0
  -23.6310   -8.2247   22.0754 C   0  0  0  0  0  0
  -22.4293   -8.0286   21.3541 C   0  0  0  0  0  0
  -21.9939   -9.0262   20.4642 C   0  0  0  0  0  0
  -22.7279  -10.2133   20.3050 C   0  0  0  0  0  0
  -21.6858   -6.0740   22.5278 C   0  0  0  0  0  0
  -21.4015   -6.5642   23.8211 C   0  0  0  0  0  0
  -21.3660   -5.6793   24.9173 C   0  0  0  0  0  0
  -21.6045   -4.3056   24.7223 C   0  0  0  0  0  0
  -21.8818   -3.8149   23.4344 C   0  0  0  0  0  0
  -21.9192   -4.6967   22.3401 C   0  0  0  0  0  0
  -22.7724  -13.5165   21.1923 C   0  0  0  0  0  0
  -22.1662   -4.2152   21.0978 F   0  0  0  0  0  0
  -21.5630   -3.4539   25.7735 F   0  0  0  0  0  0
  -29.7792  -14.2804   20.2658 N   0  0  0  0  0  0
  -26.2769  -12.9611   20.3234 N   0  0  0  0  0  0
  -25.9355  -11.6684   20.5702 N   0  0  0  0  0  0
  -22.0386  -12.8137   22.0472 N   0  0  0  0  0  0
  -25.3924  -15.2022   20.4230 N   0  0  0  0  0  0
  -31.5346  -15.5847   20.1846 O   0  0  0  0  0  0
  -21.6649   -6.8886   21.4241 O   0  0  0  0  0  0
  -22.3399  -14.5463   20.6759 O   0  0  0  0  0  0
  -24.6859  -31.7963   23.1482 C   0  0  0  0  0  0
  -25.9430  -32.4445   23.8043 C   0  0  1  0  0  0
  -27.2286  -26.6780   20.2163 C   0  0  0  0  0  0
  -25.6002  -33.8271   24.1934 N   0  0  0  0  0  0
  -23.5131  -30.3967   21.5033 C   0  0  2  0  0  0
  -24.9705  -28.7314   20.1191 C   0  0  0  0  0  0
  -22.7780  -29.4293   22.4706 C   0  0  0  0  0  0
  -18.0339  -28.1429   22.8455 C   0  0  0  0  0  0
  -24.1489  -36.7131   23.2656 C   0  0  0  0  0  0
  -26.0947  -30.5221   21.4147 C   0  0  0  0  0  0
  -26.1607  -29.0838   20.7663 C   0  0  0  0  0  0
  -27.2740  -28.0867   20.7789 C   0  0  0  0  0  0
  -26.0031  -26.5392   19.5147 C   0  0  0  0  0  0
  -24.9321  -27.4851   19.4694 C   0  0  0  0  0  0
  -23.7678  -29.6896   20.1404 C   0  0  0  0  0  0
  -25.4142  -36.2876   24.0282 C   0  0  1  0  0  0
  -20.5976  -28.3781   23.1144 C   0  0  2  0  0  0
  -20.6799  -26.9439   22.5412 C   0  0  0  0  0  0
  -19.5774  -26.6377   21.5221 C   0  0  0  0  0  0
  -18.1956  -26.7956   22.1624 C   0  0  0  0  0  0
  -19.1608  -28.8930   23.2778 C   0  0  0  0  0  0
  -18.9517  -30.1513   23.8823 C   0  0  0  0  0  0
  -17.6507  -30.6612   24.0551 C   0  0  0  0  0  0
  -25.9130  -34.9270   23.4945 C   0  0  0  0  0  0
  -16.5394  -29.9097   23.6353 C   0  0  0  0  0  0
  -16.7317  -28.6521   23.0366 C   0  0  0  0  0  0
  -26.4602  -31.6484   25.0673 C   0  0  0  0  0  0
  -25.3666  -31.3807   26.1287 C   0  0  0  0  0  0
  -27.0541  -30.2819   24.6589 C   0  0  0  0  0  0
  -27.6045  -32.4353   25.7494 C   0  0  0  0  0  0
  -27.5550  -37.1721   24.8475 C   0  0  0  0  0  0
  -21.4422  -29.3020   22.3458 N   0  0  0  0  0  0
  -26.4262  -37.3642   23.9413 N   0  0  0  0  0  0
  -24.7886  -30.9387   22.0747 N   0  0  0  0  0  0
  -23.4213  -28.7897   23.3059 O   0  0  0  0  0  0
  -28.2001  -25.4565   20.2738 O   0  0  0  0  0  0
  -26.5772  -34.8856   22.4564 O   0  0  0  0  0  0
  -23.5874  -32.1051   23.6420 O   0  0  0  0  0  0
  -29.5842  -21.2695   19.0099 C   0  0  0  0  0  0
  -29.9250  -19.6405   19.0243 C   0  0  0  0  0  0
  -28.6213  -20.2353   20.7960 C   0  0  0  0  0  0
  -28.9369  -21.9584   20.3012 C   0  0  2  0  0  0
  -29.6630  -18.8126   20.3599 C   0  0  1  0  0  0
  -28.0062  -23.6921   20.2295 C   0  0  0  0  0  0
  -29.5331  -17.0195   20.3599 N   0  0  0  0  0  0
  -31.4128  -13.3629   19.1645 H   0  0  0  0  0  0
  -30.5931  -12.2587   20.2162 H   0  0  0  0  0  0
  -30.0095  -11.8117   17.8078 H   0  0  0  0  0  0
  -29.5043  -13.4709   17.6021 H   0  0  0  0  0  0
  -28.1617  -11.3001   19.2244 H   0  0  0  0  0  0
  -27.4554  -12.2198   17.9172 H   0  0  0  0  0  0
  -27.4535  -14.2233   19.2349 H   0  0  0  0  0  0
  -28.8754  -12.7764   21.5198 H   0  0  0  0  0  0
  -28.1721  -14.3724   21.6197 H   0  0  0  0  0  0
  -25.2786   -9.5684   22.4767 H   0  0  0  0  0  0
  -24.0009   -7.4642   22.7480 H   0  0  0  0  0  0
  -21.0869   -8.8787   19.8949 H   0  0  0  0  0  0
  -22.3735  -10.9674   19.6163 H   0  0  0  0  0  0
  -21.2008   -7.6149   23.9714 H   0  0  0  0  0  0
  -21.1483   -6.0525   25.9075 H   0  0  0  0  0  0
  -22.0596   -2.7610   23.2844 H   0  0  0  0  0  0
  -22.4025  -11.9812   22.4868 H   0  0  0  0  0  0
  -21.0994  -13.1134   22.2671 H   0  0  0  0  0  0
  -24.6203  -15.8507   20.5329 H   0  0  0  0  0  0
  -26.2327  -15.6430   20.0733 H   0  0  0  0  0  0
  -26.7514  -32.4913   23.0757 H   0  0  0  0  0  0
  -25.0067  -33.9306   25.0031 H   0  0  0  0  0  0
  -22.8394  -31.2342   21.3104 H   0  0  0  0  0  0
  -23.3770  -35.9440   23.3278 H   0  0  0  0  0  0
  -24.3551  -36.8830   22.2077 H   0  0  0  0  0  0
  -23.7230  -37.6293   23.6759 H   0  0  0  0  0  0
  -26.2993  -31.2451   20.6237 H   0  0  0  0  0  0
  -26.9451  -30.5913   22.0809 H   0  0  0  0  0  0
  -28.1708  -28.3662   21.3132 H   0  0  0  0  0  0
  -25.8340  -25.5976   19.0127 H   0  0  0  0  0  0
  -24.0343  -27.2065   18.9350 H   0  0  0  0  0  0
  -23.9433  -30.4471   19.3758 H   0  0  0  0  0  0
  -22.8724  -29.1554   19.8177 H   0  0  0  0  0  0
  -25.1350  -36.1629   25.0771 H   0  0  0  0  0  0
  -21.0054  -28.3407   24.1272 H   0  0  0  0  0  0
  -20.5658  -26.2403   23.3674 H   0  0  0  0  0  0
  -21.6658  -26.7374   22.1228 H   0  0  0  0  0  0
  -19.6928  -25.6273   21.1289 H   0  0  0  0  0  0
  -19.6719  -27.3156   20.6725 H   0  0  0  0  0  0
  -17.4225  -26.6700   21.4028 H   0  0  0  0  0  0
  -18.0336  -26.0125   22.9045 H   0  0  0  0  0  0
  -19.7995  -30.7347   24.2157 H   0  0  0  0  0  0
  -17.5064  -31.6283   24.5172 H   0  0  0  0  0  0
  -15.5394  -30.2979   23.7724 H   0  0  0  0  0  0
  -15.8715  -28.0820   22.7118 H   0  0  0  0  0  0
  -24.5895  -30.7102   25.7598 H   0  0  0  0  0  0
  -24.8811  -32.3028   26.4493 H   0  0  0  0  0  0
  -25.7852  -30.9131   27.0206 H   0  0  0  0  0  0
  -26.3261  -29.6422   24.1591 H   0  0  0  0  0  0
  -27.3970  -29.7278   25.5336 H   0  0  0  0  0  0
  -27.9237  -30.3938   24.0112 H   0  0  0  0  0  0
  -27.2583  -33.3735   26.1836 H   0  0  0  0  0  0
  -28.3974  -32.6777   25.0407 H   0  0  0  0  0  0
  -28.0575  -31.8638   26.5605 H   0  0  0  0  0  0
  -28.2550  -38.0031   24.7508 H   0  0  0  0  0  0
  -28.1062  -36.2554   24.6322 H   0  0  0  0  0  0
  -27.2266  -37.1377   25.8878 H   0  0  0  0  0  0
  -20.9733  -29.8676   21.6520 H   0  0  0  0  0  0
  -26.0082  -38.2684   24.1439 H   0  0  0  0  0  0
  -28.9066  -21.4466   18.1738 H   0  0  0  0  0  0
  -30.4898  -21.8162   18.7438 H   0  0  0  0  0  0
  -30.9558  -19.4846   18.7033 H   0  0  0  0  0  0
  -29.3211  -19.1822   18.2400 H   0  0  0  0  0  0
  -27.6272  -20.0008   20.4120 H   0  0  0  0  0  0
  -28.4904  -20.2268   21.8785 H   0  0  0  0  0  0
  -29.7756  -22.2125   20.9504 H   0  0  0  0  0  0
  -30.5530  -18.9526   20.9757 H   0  0  0  0  0  0
  -27.3094  -23.5830   21.0601 H   0  0  0  0  0  0
  -27.3678  -23.5752   19.3537 H   0  0  0  0  0  0
  -28.5522  -16.7825   20.4128 H   0  0  0  0  0  0
  1 25  1  0  0  0
  1 30  2  0  0  0
  1 77  1  0  0  0
  2  3  1  0  0  0
  2 25  1  0  0  0
  2 78  1  0  0  0
  2 79  1  0  0  0
  3  4  1  0  0  0
  3 80  1  0  0  0
  3 81  1  0  0  0
  4  5  1  0  0  0
  4 82  1  0  0  0
  4 83  1  0  0  0
  5  6  1  0  0  0
  5 26  1  0  0  0
  5 84  1  0  0  0
  6 25  1  0  0  0
  6 85  1  0  0  0
  6 86  1  0  0  0
  7  8  2  0  0  0
  7 26  1  0  0  0
  7 29  1  0  0  0
  8  9  1  0  0  0
  8 22  1  0  0  0
  9 10  1  0  0  0
  9 27  2  0  0  0
 10 11  2  0  0  0
 10 15  1  0  0  0
 11 12  1  0  0  0
 11 87  1  0  0  0
 12 13  2  0  0  0
 12 88  1  0  0  0
 13 14  1  0  0  0
 13 31  1  0  0  0
 14 15  2  0  0  0
 14 89  1  0  0  0
 15 90  1  0  0  0
 16 17  2  0  0  0
 16 21  1  0  0  0
 16 31  1  0  0  0
 17 18  1  0  0  0
 17 91  1  0  0  0
 18 19  2  0  0  0
 18 92  1  0  0  0
 19 20  1  0  0  0
 19 24  1  0  0  0
 20 21  2  0  0  0
 20 93  1  0  0  0
 21 23  1  0  0  0
 22 28  1  0  0  0
 22 32  2  0  0  0
 26 27  1  0  0  0
 28 94  1  0  0  0
 28 95  1  0  0  0
 29 96  1  0  0  0
 29 97  1  0  0  0
 33 34  1  0  0  0
 33 66  1  0  0  0
 33 70  2  0  0  0
 34 36  1  0  0  0
 34 59  1  0  0  0
 34 98  1  0  0  0
 35 44  2  0  0  0
 35 45  1  0  0  0
 35 68  1  0  0  0
 36 56  1  0  0  0
 36 99  1  0  0  0
 37 39  1  0  0  0
 37 47  1  0  0  0
 37 66  1  0  0  0
 37100  1  0  0  0
 38 43  2  0  0  0
 38 46  1  0  0  0
 38 47  1  0  0  0
 39 64  1  0  0  0
 39 67  2  0  0  0
 40 52  1  0  0  0
 40 53  2  0  0  0
 40 58  1  0  0  0
 41101  1  0  0  0
 41102  1  0  0  0
 41103  1  0  0  0
 41 48  1  0  0  0
 42 43  1  0  0  0
 42 66  1  0  0  0
 42104  1  0  0  0
 42105  1  0  0  0
 43 44  1  0  0  0
 44106  1  0  0  0
 45 46  2  0  0  0
 45107  1  0  0  0
 46108  1  0  0  0
 47109  1  0  0  0
 47110  1  0  0  0
 48 56  1  0  0  0
 48 65  1  0  0  0
 48111  1  0  0  0
 49 50  1  0  0  0
 49 53  1  0  0  0
 49 64  1  0  0  0
 49112  1  0  0  0
 50 51  1  0  0  0
 50113  1  0  0  0
 50114  1  0  0  0
 51 52  1  0  0  0
 51115  1  0  0  0
 51116  1  0  0  0
 52117  1  0  0  0
 52118  1  0  0  0
 53 54  1  0  0  0
 54 55  2  0  0  0
 54119  1  0  0  0
 55 57  1  0  0  0
 55120  1  0  0  0
 56 69  2  0  0  0
 57 58  2  0  0  0
 57121  1  0  0  0
 58122  1  0  0  0
 59 60  1  0  0  0
 59 61  1  0  0  0
 59 62  1  0  0  0
 60123  1  0  0  0
 60124  1  0  0  0
 60125  1  0  0  0
 61126  1  0  0  0
 61127  1  0  0  0
 61128  1  0  0  0
 62129  1  0  0  0
 62130  1  0  0  0
 62131  1  0  0  0
 63 65  1  0  0  0
 63132  1  0  0  0
 63133  1  0  0  0
 63134  1  0  0  0
 64135  1  0  0  0
 65136  1  0  0  0
 68 76  1  0  0  0
 71 72  1  0  0  0
 71 74  1  0  0  0
 71137  1  0  0  0
 71138  1  0  0  0
 72 75  1  0  0  0
 72139  1  0  0  0
 72140  1  0  0  0
 73 74  1  0  0  0
 73 75  1  0  0  0
 73141  1  0  0  0
 73142  1  0  0  0
 74 76  1  0  0  0
 74143  1  0  0  0
 75 77  1  0  0  0
 75144  1  0  0  0
 76145  1  0  0  0
 76146  1  0  0  0
 77147  1  0  0  0
M  ISO  4   1 100  68 101  76 101  77 100
M  END
> <chiral flag>
0

> <version>
0

> <s_m_source_file>
/data/baiqing/PycharmProjects/Reinvent-master-3.2/result/LINK_invent/BTK/process_docking_weight1_custom_sum_contain_oxygen_bond_distance_aromatic_linkinvent_7_9_3/rearranged_h_0143.sdf

> <i_m_source_file_index>
90

> <r_mmod_Potential_Energy-OPLS-2005>
2582.85791015625

> <r_mmod_Stretch_Energy-OPLS-2005>
1109.46252441406

> <r_mmod_Bend_Energy-OPLS-2005>
731.839660644531

> <r_mmod_Torsional_Energy-OPLS-2005>
257.028076171875

> <r_mmod_Improper_Torsional_Energy-OPLS-2005>
3.64261531829834

> <r_mmod_Van_der_Waal_Energy-OPLS-2005>
107.939117431641

> <r_mmod_Electrostatic_Energy-OPLS-2005>
-348.394592285156

> <r_mmod_Solvation_Energy-OPLS-2005>
-213.674270629883

> <b_mmod_Minimization_Converged-OPLS-2005>
0

> <r_mmod_RMS_Derivative-OPLS-2005>
0.677022039890289

$$$$
92
                    3D
 Structure written by MMmdl.
172180  0  0  1  0            999 V2000
  -30.4806  -14.8852   20.4789 C   0  0  0  0  0  0
  -30.4512  -12.5453   19.4973 C   0  0  0  0  0  0
  -29.5256  -12.5247   18.2567 C   0  0  0  0  0  0
  -28.0552  -12.3032   18.6633 C   0  0  0  0  0  0
  -27.6384  -13.2120   19.8440 C   0  0  2  0  0  0
  -28.6712  -13.1811   20.9874 C   0  0  0  0  0  0
  -25.2551  -13.7972   20.5506 C   0  0  0  0  0  0
  -24.1833  -13.0367   20.9168 C   0  0  0  0  0  0
  -24.6383  -11.6824   20.8777 C   0  0  0  0  0  0
  -23.9035  -10.4248   21.0449 C   0  0  0  0  0  0
  -24.3595   -9.4173   21.9216 C   0  0  0  0  0  0
  -23.6284   -8.2209   22.0769 C   0  0  0  0  0  0
  -22.4271   -8.0259   21.3541 C   0  0  0  0  0  0
  -21.9894   -9.0232   20.4652 C   0  0  0  0  0  0
  -22.7208  -10.2118   20.3094 C   0  0  0  0  0  0
  -21.6852   -6.0711   22.5264 C   0  0  0  0  0  0
  -21.3998   -6.5615   23.8190 C   0  0  0  0  0  0
  -21.3668   -5.6782   24.9161 C   0  0  0  0  0  0
  -21.6060   -4.3047   24.7219 C   0  0  0  0  0  0
  -21.8832   -3.8124   23.4342 C   0  0  0  0  0  0
  -21.9201   -4.6935   22.3389 C   0  0  0  0  0  0
  -22.7890  -13.5251   21.1801 C   0  0  0  0  0  0
  -22.1672   -4.2115   21.0972 F   0  0  0  0  0  0
  -21.5630   -3.4536   25.7736 F   0  0  0  0  0  0
  -29.9570  -13.6014   20.4227 N   0  0  0  0  0  0
  -26.2929  -12.9175   20.3165 N   0  0  0  0  0  0
  -25.9317  -11.6368   20.5761 N   0  0  0  0  0  0
  -22.0528  -12.8277   22.0358 N   0  0  0  0  0  0
  -25.4364  -15.1556   20.3506 N   0  0  0  0  0  0
  -31.6548  -15.0322   20.1140 O   0  0  0  0  0  0
  -21.6638   -6.8862   21.4231 O   0  0  0  0  0  0
  -22.3651  -14.5596   20.6638 O   0  0  0  0  0  0
  -24.6353  -31.8501   23.1895 C   0  0  0  0  0  0
  -25.9156  -32.4733   23.8257 C   0  0  1  0  0  0
  -27.2375  -27.2114   20.1688 C   0  0  0  0  0  0
  -25.5935  -33.8526   24.2212 N   0  0  0  0  0  0
  -23.4356  -30.4676   21.5354 C   0  0  2  0  0  0
  -24.8869  -28.8858   20.1281 C   0  0  0  0  0  0
  -22.7537  -29.4592   22.4915 C   0  0  0  0  0  0
  -18.0348  -28.1312   22.8574 C   0  0  0  0  0  0
  -24.1487  -36.7282   23.2638 C   0  0  0  0  0  0
  -25.9790  -30.7477   21.3719 C   0  0  0  0  0  0
  -26.0558  -29.3550   20.7398 C   0  0  0  0  0  0
  -27.2342  -28.5340   20.7393 C   0  0  0  0  0  0
  -26.0480  -26.8139   19.5288 C   0  0  0  0  0  0
  -24.8893  -27.6234   19.5091 C   0  0  0  0  0  0
  -23.6610  -29.7837   20.1589 C   0  0  0  0  0  0
  -25.4114  -36.3049   24.0320 C   0  0  1  0  0  0
  -20.5932  -28.3730   23.1276 C   0  0  2  0  0  0
  -20.6858  -26.9438   22.5411 C   0  0  0  0  0  0
  -19.5805  -26.6359   21.5273 C   0  0  0  0  0  0
  -18.2036  -26.7804   22.1820 C   0  0  0  0  0  0
  -19.1580  -28.8865   23.2872 C   0  0  0  0  0  0
  -18.9455  -30.1507   23.8801 C   0  0  0  0  0  0
  -17.6440  -30.6615   24.0426 C   0  0  0  0  0  0
  -25.9058  -34.9419   23.5074 C   0  0  0  0  0  0
  -16.5349  -29.9017   23.6293 C   0  0  0  0  0  0
  -16.7322  -28.6389   23.0440 C   0  0  0  0  0  0
  -26.4503  -31.6548   25.0656 C   0  0  0  0  0  0
  -25.3711  -31.3697   26.1369 C   0  0  0  0  0  0
  -27.0329  -30.2961   24.6116 C   0  0  0  0  0  0
  -27.6053  -32.4273   25.7447 C   0  0  0  0  0  0
  -27.5575  -37.1799   24.8462 C   0  0  0  0  0  0
  -21.4239  -29.3112   22.3689 N   0  0  0  0  0  0
  -26.4288  -37.3755   23.9411 N   0  0  0  0  0  0
  -24.7036  -31.0416   22.0896 N   0  0  0  0  0  0
  -23.4225  -28.8131   23.3019 O   0  0  0  0  0  0
  -28.3873  -26.3916   20.0256 O   0  0  0  0  0  0
  -26.5643  -34.8907   22.4653 O   0  0  0  0  0  0
  -23.5492  -32.1325   23.7185 O   0  0  0  0  0  0
  -27.3034  -22.0962   21.9241 C   0  0  1  0  0  0
  -26.8161  -23.4413   21.3858 C   0  0  1  0  0  0
  -28.5258  -22.0614   20.9863 C   0  0  2  0  0  0
  -28.0153  -23.5609   20.4297 C   0  0  2  0  0  0
  -27.4985  -21.9039   23.4212 C   0  0  0  0  0  0
  -25.3931  -23.5707   20.8451 C   0  0  0  0  0  0
  -24.9829  -18.1387   20.7940 C   0  0  0  0  0  0
  -25.6564  -20.1908   19.5706 C   0  0  0  0  0  0
  -29.5811  -16.2074   20.9024 C   0  0  0  0  0  0
  -28.9380  -20.6301   20.1908 C   0  0  0  0  0  0
  -28.7021  -25.0346   20.6458 C   0  0  0  0  0  0
  -29.8044  -17.8030   20.4368 C   0  0  0  0  0  0
  -26.1259  -19.1359   20.6008 C   0  0  0  0  0  0
  -28.6983  -19.0379   20.7155 C   0  0  2  0  0  0
  -27.4007  -18.4914   20.1979 N   0  3  0  0  0  0
  -31.4830  -12.7218   19.1899 H   0  0  0  0  0  0
  -30.4524  -11.5750   19.9972 H   0  0  0  0  0  0
  -29.8441  -11.7449   17.5654 H   0  0  0  0  0  0
  -29.6168  -13.4704   17.7218 H   0  0  0  0  0  0
  -27.9457  -11.2580   18.9541 H   0  0  0  0  0  0
  -27.3936  -12.4513   17.8084 H   0  0  0  0  0  0
  -27.6251  -14.2216   19.4381 H   0  0  0  0  0  0
  -28.7465  -12.1824   21.4192 H   0  0  0  0  0  0
  -28.3690  -13.8417   21.8014 H   0  0  0  0  0  0
  -25.2751   -9.5631   22.4786 H   0  0  0  0  0  0
  -23.9987   -7.4595   22.7489 H   0  0  0  0  0  0
  -21.0827   -8.8745   19.8958 H   0  0  0  0  0  0
  -22.3665  -10.9662   19.6211 H   0  0  0  0  0  0
  -21.1962   -7.6119   23.9656 H   0  0  0  0  0  0
  -21.1504   -6.0526   25.9061 H   0  0  0  0  0  0
  -22.0614   -2.7587   23.2847 H   0  0  0  0  0  0
  -22.4165  -11.9934   22.4720 H   0  0  0  0  0  0
  -21.1148  -13.1305   22.2568 H   0  0  0  0  0  0
  -24.5893  -15.7128   20.3119 H   0  0  0  0  0  0
  -26.1054  -15.4135   19.6394 H   0  0  0  0  0  0
  -26.7232  -32.5385   23.1001 H   0  0  0  0  0  0
  -25.0032  -33.9626   25.0327 H   0  0  0  0  0  0
  -22.7360  -31.2916   21.3783 H   0  0  0  0  0  0
  -23.3739  -35.9624   23.3275 H   0  0  0  0  0  0
  -24.3590  -36.8927   22.2056 H   0  0  0  0  0  0
  -23.7244  -37.6478   23.6676 H   0  0  0  0  0  0
  -26.1044  -31.4917   20.5833 H   0  0  0  0  0  0
  -26.8608  -30.8218   21.9940 H   0  0  0  0  0  0
  -28.1417  -28.9120   21.1879 H   0  0  0  0  0  0
  -26.0228  -25.8608   19.0211 H   0  0  0  0  0  0
  -24.0042  -27.2655   19.0034 H   0  0  0  0  0  0
  -23.7914  -30.5472   19.3912 H   0  0  0  0  0  0
  -22.7763  -29.2191   19.8595 H   0  0  0  0  0  0
  -25.1303  -36.1876   25.0814 H   0  0  0  0  0  0
  -21.0036  -28.3337   24.1388 H   0  0  0  0  0  0
  -20.5834  -26.2330   23.3630 H   0  0  0  0  0  0
  -21.6729  -26.7510   22.1154 H   0  0  0  0  0  0
  -19.6992  -25.6269   21.1271 H   0  0  0  0  0  0
  -19.6617  -27.3208   20.6816 H   0  0  0  0  0  0
  -17.4195  -26.6326   21.4392 H   0  0  0  0  0  0
  -18.0649  -26.0021   22.9333 H   0  0  0  0  0  0
  -19.7913  -30.7412   24.2040 H   0  0  0  0  0  0
  -17.4956  -31.6377   24.4853 H   0  0  0  0  0  0
  -15.5324  -30.2897   23.7541 H   0  0  0  0  0  0
  -15.8750  -28.0622   22.7244 H   0  0  0  0  0  0
  -24.5932  -30.7008   25.7693 H   0  0  0  0  0  0
  -24.8856  -32.2854   26.4733 H   0  0  0  0  0  0
  -25.8021  -30.8922   27.0178 H   0  0  0  0  0  0
  -26.2885  -29.6722   24.1158 H   0  0  0  0  0  0
  -27.4041  -29.7211   25.4609 H   0  0  0  0  0  0
  -27.8756  -30.4236   23.9319 H   0  0  0  0  0  0
  -27.2679  -33.3595   26.1978 H   0  0  0  0  0  0
  -28.3891  -32.6781   25.0296 H   0  0  0  0  0  0
  -28.0675  -31.8409   26.5389 H   0  0  0  0  0  0
  -28.2585  -38.0098   24.7521 H   0  0  0  0  0  0
  -28.1081  -36.2638   24.6282 H   0  0  0  0  0  0
  -27.2310  -37.1448   25.8868 H   0  0  0  0  0  0
  -20.9433  -29.8923   21.6972 H   0  0  0  0  0  0
  -26.0148  -38.2832   24.1405 H   0  0  0  0  0  0
  -26.5230  -21.4493   21.5898 H   0  0  0  0  0  0
  -26.9345  -24.1486   22.2086 H   0  0  0  0  0  0
  -29.3829  -22.3000   21.6154 H   0  0  0  0  0  0
  -27.6968  -23.4322   19.3953 H   0  0  0  0  0  0
  -27.7329  -20.8653   23.6533 H   0  0  0  0  0  0
  -26.5939  -22.1655   23.9717 H   0  0  0  0  0  0
  -28.3070  -22.5229   23.8094 H   0  0  0  0  0  0
  -25.3014  -23.1689   19.8354 H   0  0  0  0  0  0
  -25.0714  -24.6113   20.8198 H   0  0  0  0  0  0
  -24.6821  -23.0407   21.4791 H   0  0  0  0  0  0
  -24.0870  -18.6540   21.1409 H   0  0  0  0  0  0
  -25.2236  -17.4036   21.5619 H   0  0  0  0  0  0
  -24.7178  -17.6381   19.8634 H   0  0  0  0  0  0
  -24.7546  -20.6912   19.9243 H   0  0  0  0  0  0
  -25.4153  -19.7327   18.6114 H   0  0  0  0  0  0
  -26.3852  -20.9739   19.3778 H   0  0  0  0  0  0
  -28.5606  -15.9582   20.6262 H   0  0  0  0  0  0
  -29.5758  -16.1971   21.9933 H   0  0  0  0  0  0
  -30.0163  -20.6879   20.0452 H   0  0  0  0  0  0
  -28.5750  -20.6869   19.1646 H   0  0  0  0  0  0
  -29.7470  -24.9024   20.3653 H   0  0  0  0  0  0
  -28.7784  -25.2277   21.7172 H   0  0  0  0  0  0
  -30.0220  -17.7970   19.3686 H   0  0  0  0  0  0
  -30.7427  -18.1216   20.8933 H   0  0  0  0  0  0
  -26.2680  -19.5147   21.6079 H   0  0  0  0  0  0
  -28.6070  -19.0957   21.8005 H   0  0  0  0  0  0
  -27.4372  -18.4090   19.1936 H   0  0  0  0  0  0
  -27.3494  -17.5570   20.5669 H   0  0  0  0  0  0
  1 25  1  0  0  0
  1 30  2  0  0  0
  1 79  1  0  0  0
  2  3  1  0  0  0
  2 25  1  0  0  0
  2 86  1  0  0  0
  2 87  1  0  0  0
  3  4  1  0  0  0
  3 88  1  0  0  0
  3 89  1  0  0  0
  4  5  1  0  0  0
  4 90  1  0  0  0
  4 91  1  0  0  0
  5  6  1  0  0  0
  5 26  1  0  0  0
  5 92  1  0  0  0
  6 25  1  0  0  0
  6 93  1  0  0  0
  6 94  1  0  0  0
  7  8  2  0  0  0
  7 26  1  0  0  0
  7 29  1  0  0  0
  8  9  1  0  0  0
  8 22  1  0  0  0
  9 10  1  0  0  0
  9 27  2  0  0  0
 10 11  2  0  0  0
 10 15  1  0  0  0
 11 12  1  0  0  0
 11 95  1  0  0  0
 12 13  2  0  0  0
 12 96  1  0  0  0
 13 14  1  0  0  0
 13 31  1  0  0  0
 14 15  2  0  0  0
 14 97  1  0  0  0
 15 98  1  0  0  0
 16 17  2  0  0  0
 16 21  1  0  0  0
 16 31  1  0  0  0
 17 18  1  0  0  0
 17 99  1  0  0  0
 18 19  2  0  0  0
 18100  1  0  0  0
 19 20  1  0  0  0
 19 24  1  0  0  0
 20 21  2  0  0  0
 20101  1  0  0  0
 21 23  1  0  0  0
 22 28  1  0  0  0
 22 32  2  0  0  0
 26 27  1  0  0  0
 28102  1  0  0  0
 28103  1  0  0  0
 29104  1  0  0  0
 29105  1  0  0  0
 33 34  1  0  0  0
 33 66  1  0  0  0
 33 70  2  0  0  0
 34 36  1  0  0  0
 34 59  1  0  0  0
 34106  1  0  0  0
 35 44  2  0  0  0
 35 45  1  0  0  0
 35 68  1  0  0  0
 36 56  1  0  0  0
 36107  1  0  0  0
 37 39  1  0  0  0
 37 47  1  0  0  0
 37 66  1  0  0  0
 37108  1  0  0  0
 38 43  2  0  0  0
 38 46  1  0  0  0
 38 47  1  0  0  0
 39 64  1  0  0  0
 39 67  2  0  0  0
 40 52  1  0  0  0
 40 53  2  0  0  0
 40 58  1  0  0  0
 41109  1  0  0  0
 41110  1  0  0  0
 41111  1  0  0  0
 41 48  1  0  0  0
 42 43  1  0  0  0
 42 66  1  0  0  0
 42112  1  0  0  0
 42113  1  0  0  0
 43 44  1  0  0  0
 44114  1  0  0  0
 45 46  2  0  0  0
 45115  1  0  0  0
 46116  1  0  0  0
 47117  1  0  0  0
 47118  1  0  0  0
 48 56  1  0  0  0
 48 65  1  0  0  0
 48119  1  0  0  0
 49 50  1  0  0  0
 49 53  1  0  0  0
 49 64  1  0  0  0
 49120  1  0  0  0
 50 51  1  0  0  0
 50121  1  0  0  0
 50122  1  0  0  0
 51 52  1  0  0  0
 51123  1  0  0  0
 51124  1  0  0  0
 52125  1  0  0  0
 52126  1  0  0  0
 53 54  1  0  0  0
 54 55  2  0  0  0
 54127  1  0  0  0
 55 57  1  0  0  0
 55128  1  0  0  0
 56 69  2  0  0  0
 57 58  2  0  0  0
 57129  1  0  0  0
 58130  1  0  0  0
 59 60  1  0  0  0
 59 61  1  0  0  0
 59 62  1  0  0  0
 60131  1  0  0  0
 60132  1  0  0  0
 60133  1  0  0  0
 61134  1  0  0  0
 61135  1  0  0  0
 61136  1  0  0  0
 62137  1  0  0  0
 62138  1  0  0  0
 62139  1  0  0  0
 63 65  1  0  0  0
 63140  1  0  0  0
 63141  1  0  0  0
 63142  1  0  0  0
 64143  1  0  0  0
 65144  1  0  0  0
 68 81  1  0  0  0
 71 72  1  0  0  0
 71 73  1  0  0  0
 71 75  1  0  0  0
 71145  1  0  0  0
 72 74  1  0  0  0
 72 76  1  0  0  0
 72146  1  0  0  0
 73 74  1  0  0  0
 73 80  1  0  0  0
 73147  1  0  0  0
 74 81  1  0  0  0
 74148  1  0  0  0
 75149  1  0  0  0
 75150  1  0  0  0
 75151  1  0  0  0
 76152  1  0  0  0
 76153  1  0  0  0
 76154  1  0  0  0
 77155  1  0  0  0
 77156  1  0  0  0
 77157  1  0  0  0
 77 83  1  0  0  0
 78 83  1  0  0  0
 78158  1  0  0  0
 78159  1  0  0  0
 78160  1  0  0  0
 79 82  1  0  0  0
 79161  1  0  0  0
 79162  1  0  0  0
 80163  1  0  0  0
 80164  1  0  0  0
 80 84  1  0  0  0
 81165  1  0  0  0
 81166  1  0  0  0
 82 84  1  0  0  0
 82167  1  0  0  0
 82168  1  0  0  0
 83 85  1  0  0  0
 83169  1  0  0  0
 84 85  1  0  0  0
 84170  1  0  0  0
 85171  1  0  0  0
 85172  1  0  0  0
M  CHG  1  85   1
M  ISO  4   1 100  68 101  79 100  81 101
M  END
> <chiral flag>
0

> <version>
0

> <s_m_source_file>
/data/baiqing/PycharmProjects/Reinvent-master-3.2/result/LINK_invent/BTK/process_docking_weight1_custom_sum_contain_oxygen_bond_distance_aromatic_linkinvent_7_9_3/rearranged_h_0143.sdf

> <i_m_source_file_index>
91

> <r_mmod_Potential_Energy-OPLS-2005>
423.443267822266

> <r_mmod_Stretch_Energy-OPLS-2005>
245.024810791016

> <r_mmod_Bend_Energy-OPLS-2005>
307.185577392578

> <r_mmod_Torsional_Energy-OPLS-2005>
276.362945556641

> <r_mmod_Improper_Torsional_Energy-OPLS-2005>
7.65273714065552

> <r_mmod_Van_der_Waal_Energy-OPLS-2005>
111.07347869873

> <r_mmod_Electrostatic_Energy-OPLS-2005>
-221.645477294922

> <r_mmod_Solvation_Energy-OPLS-2005>
-433.492980957031

> <b_mmod_Minimization_Converged-OPLS-2005>
0

> <r_mmod_RMS_Derivative-OPLS-2005>
3.08811187744141

$$$$
93
                    3D
 Structure written by MMmdl.
175185  0  0  1  0            999 V2000
  -30.6838  -14.6269   20.4872 C   0  0  0  0  0  0
  -30.4194  -12.3781   19.4578 C   0  0  0  0  0  0
  -29.4977  -12.4835   18.2245 C   0  0  0  0  0  0
  -28.0191  -12.3496   18.6354 C   0  0  0  0  0  0
  -27.6492  -13.2287   19.8603 C   0  0  2  0  0  0
  -28.6978  -13.1113   20.9878 C   0  0  0  0  0  0
  -25.2537  -13.8218   20.5705 C   0  0  0  0  0  0
  -24.1817  -13.0453   20.9176 C   0  0  0  0  0  0
  -24.6400  -11.6927   20.8736 C   0  0  0  0  0  0
  -23.9072  -10.4304   21.0391 C   0  0  0  0  0  0
  -24.3619   -9.4221   21.9171 C   0  0  0  0  0  0
  -23.6289   -8.2257   22.0757 C   0  0  0  0  0  0
  -22.4271   -8.0286   21.3547 C   0  0  0  0  0  0
  -21.9911   -9.0252   20.4640 C   0  0  0  0  0  0
  -22.7241  -10.2128   20.3042 C   0  0  0  0  0  0
  -21.6855   -6.0735   22.5274 C   0  0  0  0  0  0
  -21.4007   -6.5640   23.8207 C   0  0  0  0  0  0
  -21.3662   -5.6791   24.9167 C   0  0  0  0  0  0
  -21.6051   -4.3054   24.7221 C   0  0  0  0  0  0
  -21.8822   -3.8144   23.4346 C   0  0  0  0  0  0
  -21.9187   -4.6959   22.3396 C   0  0  0  0  0  0
  -22.7834  -13.5214   21.1845 C   0  0  0  0  0  0
  -22.1660   -4.2141   21.0974 F   0  0  0  0  0  0
  -21.5634   -3.4537   25.7740 F   0  0  0  0  0  0
  -30.0082  -13.4339   20.4083 N   0  0  0  0  0  0
  -26.2984  -12.9429   20.3347 N   0  0  0  0  0  0
  -25.9343  -11.6572   20.5803 N   0  0  0  0  0  0
  -22.0493  -12.8186   22.0397 N   0  0  0  0  0  0
  -25.4250  -15.1944   20.4160 N   0  0  0  0  0  0
  -31.8532  -14.7013   20.0999 O   0  0  0  0  0  0
  -21.6641   -6.8877   21.4240 O   0  0  0  0  0  0
  -22.3511  -14.5524   20.6712 O   0  0  0  0  0  0
  -24.6281  -31.8618   23.2077 C   0  0  0  0  0  0
  -25.9119  -32.4793   23.8393 C   0  0  1  0  0  0
  -27.2069  -27.3071   20.0974 C   0  0  0  0  0  0
  -25.5921  -33.8597   24.2305 N   0  0  0  0  0  0
  -23.4199  -30.4928   21.5520 C   0  0  2  0  0  0
  -24.8641  -28.9623   20.1090 C   0  0  0  0  0  0
  -22.7482  -29.4648   22.4941 C   0  0  0  0  0  0
  -18.0293  -28.1383   22.8507 C   0  0  0  0  0  0
  -24.1491  -36.7298   23.2640 C   0  0  0  0  0  0
  -25.9689  -30.7864   21.3868 C   0  0  0  0  0  0
  -26.0389  -29.4178   20.7211 C   0  0  0  0  0  0
  -27.2138  -28.6009   20.7129 C   0  0  0  0  0  0
  -26.0059  -26.9353   19.4382 C   0  0  0  0  0  0
  -24.8510  -27.7262   19.4594 C   0  0  0  0  0  0
  -23.6351  -29.8435   20.1642 C   0  0  0  0  0  0
  -25.4122  -36.3097   24.0327 C   0  0  1  0  0  0
  -20.5894  -28.3704   23.1280 C   0  0  2  0  0  0
  -20.6780  -26.9426   22.5415 C   0  0  0  0  0  0
  -19.5751  -26.6393   21.5222 C   0  0  0  0  0  0
  -18.1931  -26.7938   22.1630 C   0  0  0  0  0  0
  -19.1546  -28.8865   23.2889 C   0  0  0  0  0  0
  -18.9463  -30.1465   23.8911 C   0  0  0  0  0  0
  -17.6462  -30.6589   24.0579 C   0  0  0  0  0  0
  -25.9050  -34.9459   23.5113 C   0  0  0  0  0  0
  -16.5355  -29.9088   23.6332 C   0  0  0  0  0  0
  -16.7282  -28.6497   23.0371 C   0  0  0  0  0  0
  -26.4490  -31.6596   25.0759 C   0  0  0  0  0  0
  -25.3705  -31.3697   26.1459 C   0  0  0  0  0  0
  -27.0348  -30.3026   24.6219 C   0  0  0  0  0  0
  -27.6058  -32.4328   25.7520 C   0  0  0  0  0  0
  -27.5592  -37.1807   24.8465 C   0  0  0  0  0  0
  -21.4199  -29.3051   22.3667 N   0  0  0  0  0  0
  -26.4309  -37.3785   23.9405 N   0  0  0  0  0  0
  -24.6913  -31.0627   22.1042 N   0  0  0  0  0  0
  -23.4212  -28.8172   23.3007 O   0  0  0  0  0  0
  -28.2843  -26.3927   20.1672 O   0  0  0  0  0  0
  -26.5625  -34.8912   22.4684 O   0  0  0  0  0  0
  -23.5436  -32.1423   23.7387 O   0  0  0  0  0  0
  -30.0734  -23.5037   19.6849 C   0  0  0  0  0  0
  -28.1739  -22.5652   20.7803 C   0  0  0  0  0  0
  -28.7800  -23.7143   20.2026 C   0  0  0  0  0  0
  -30.6608  -22.2027   19.7242 C   0  0  0  0  0  0
  -29.9430  -21.0955   20.2798 C   0  0  0  0  0  0
  -29.8403  -17.7664   17.2786 C   0  0  0  0  0  0
  -30.0535  -16.2707   17.2669 C   0  0  0  0  0  0
  -29.5055  -16.2619   21.9535 C   0  0  0  0  0  0
  -29.4276  -16.9367   18.4707 C   0  0  0  0  0  0
  -29.8548  -17.7638   22.0463 C   0  0  1  0  0  0
  -29.7163  -18.3128   20.6191 C   0  0  2  0  0  0
  -30.1517  -17.0225   19.8082 C   0  0  1  0  0  0
  -29.0220  -18.5117   23.0944 C   0  0  0  0  0  0
  -34.5621  -21.9222   19.5609 C   0  0  0  0  0  0
  -32.0542  -22.0460   19.1240 C   0  0  0  0  0  0
  -27.9058  -24.9799   19.9033 C   0  0  0  0  0  0
  -30.5600  -19.6431   20.3426 C   0  0  0  0  0  0
  -33.1720  -22.1188   20.1765 C   0  0  0  0  0  0
  -28.7269  -21.3165   20.8325 N   0  0  0  0  0  0
  -29.9498  -15.7883   20.6411 N   0  0  0  0  0  0
  -31.4632  -12.4667   19.1519 H   0  0  0  0  0  0
  -30.3304  -11.3949   19.9231 H   0  0  0  0  0  0
  -29.7514  -11.7126   17.4952 H   0  0  0  0  0  0
  -29.6575  -13.4399   17.7278 H   0  0  0  0  0  0
  -27.8358  -11.2990   18.8661 H   0  0  0  0  0  0
  -27.3703  -12.5891   17.7930 H   0  0  0  0  0  0
  -27.6613  -14.2610   19.5099 H   0  0  0  0  0  0
  -28.7061  -12.1034   21.4049 H   0  0  0  0  0  0
  -28.4506  -13.7768   21.8131 H   0  0  0  0  0  0
  -25.2758   -9.5684   22.4754 H   0  0  0  0  0  0
  -23.9987   -7.4647   22.7494 H   0  0  0  0  0  0
  -21.0841   -8.8753   19.8948 H   0  0  0  0  0  0
  -22.3688  -10.9656   19.6149 H   0  0  0  0  0  0
  -21.2005   -7.6145   23.9701 H   0  0  0  0  0  0
  -21.1486   -6.0525   25.9065 H   0  0  0  0  0  0
  -22.0603   -2.7603   23.2851 H   0  0  0  0  0  0
  -22.4147  -11.9819   22.4709 H   0  0  0  0  0  0
  -21.1119  -13.1213   22.2666 H   0  0  0  0  0  0
  -24.6612  -15.8512   20.5355 H   0  0  0  0  0  0
  -26.2902  -15.6378   20.1355 H   0  0  0  0  0  0
  -26.7197  -32.5457   23.1148 H   0  0  0  0  0  0
  -25.0043  -33.9754   25.0431 H   0  0  0  0  0  0
  -22.7145  -31.3148   21.4168 H   0  0  0  0  0  0
  -23.3761  -35.9620   23.3298 H   0  0  0  0  0  0
  -24.3570  -36.8936   22.2055 H   0  0  0  0  0  0
  -23.7229  -37.6486   23.6674 H   0  0  0  0  0  0
  -26.1078  -31.5523   20.6225 H   0  0  0  0  0  0
  -26.8455  -30.8273   22.0209 H   0  0  0  0  0  0
  -28.1089  -28.9387   21.2156 H   0  0  0  0  0  0
  -25.8969  -26.0073   18.8988 H   0  0  0  0  0  0
  -23.9543  -27.3779   18.9648 H   0  0  0  0  0  0
  -23.7554  -30.6259   19.4144 H   0  0  0  0  0  0
  -22.7523  -29.2781   19.8574 H   0  0  0  0  0  0
  -25.1300  -36.1958   25.0821 H   0  0  0  0  0  0
  -21.0001  -28.3291   24.1391 H   0  0  0  0  0  0
  -20.5700  -26.2318   23.3614 H   0  0  0  0  0  0
  -21.6643  -26.7455   22.1200 H   0  0  0  0  0  0
  -19.6901  -25.6302   21.1248 H   0  0  0  0  0  0
  -19.6678  -27.3211   20.6753 H   0  0  0  0  0  0
  -17.4205  -26.6734   21.4017 H   0  0  0  0  0  0
  -18.0301  -26.0063   22.9005 H   0  0  0  0  0  0
  -19.7930  -30.7290   24.2290 H   0  0  0  0  0  0
  -17.5000  -31.6261   24.5193 H   0  0  0  0  0  0
  -15.5351  -30.2993   23.7625 H   0  0  0  0  0  0
  -15.8689  -28.0807   22.7089 H   0  0  0  0  0  0
  -24.5955  -30.6966   25.7762 H   0  0  0  0  0  0
  -24.8787  -32.2832   26.4815 H   0  0  0  0  0  0
  -25.8011  -30.8935   27.0280 H   0  0  0  0  0  0
  -26.2930  -29.6763   24.1248 H   0  0  0  0  0  0
  -27.4057  -29.7284   25.4720 H   0  0  0  0  0  0
  -27.8798  -30.4319   23.9452 H   0  0  0  0  0  0
  -27.2705  -33.3662   26.2056 H   0  0  0  0  0  0
  -28.3879  -32.6838   25.0338 H   0  0  0  0  0  0
  -28.0720  -31.8475   26.5459 H   0  0  0  0  0  0
  -28.2603  -38.0115   24.7539 H   0  0  0  0  0  0
  -28.1108  -36.2644   24.6284 H   0  0  0  0  0  0
  -27.2306  -37.1448   25.8870 H   0  0  0  0  0  0
  -20.9371  -29.8794   21.6897 H   0  0  0  0  0  0
  -26.0194  -38.2864   24.1405 H   0  0  0  0  0  0
  -30.5902  -24.3219   19.2045 H   0  0  0  0  0  0
  -27.1634  -22.6236   21.1554 H   0  0  0  0  0  0
  -29.0454  -18.1654   16.6498 H   0  0  0  0  0  0
  -30.7307  -18.3870   17.3523 H   0  0  0  0  0  0
  -31.0778  -15.9119   17.3533 H   0  0  0  0  0  0
  -29.4037  -15.6788   16.6245 H   0  0  0  0  0  0
  -28.4254  -16.1226   22.0113 H   0  0  0  0  0  0
  -29.9571  -15.7024   22.7752 H   0  0  0  0  0  0
  -28.3549  -16.7869   18.5827 H   0  0  0  0  0  0
  -30.9062  -17.8289   22.3330 H   0  0  0  0  0  0
  -28.6655  -18.5088   20.4030 H   0  0  0  0  0  0
  -31.2206  -17.1117   19.6066 H   0  0  0  0  0  0
  -27.9553  -18.4390   22.8817 H   0  0  0  0  0  0
  -29.2831  -19.5697   23.1226 H   0  0  0  0  0  0
  -29.1901  -18.1055   24.0920 H   0  0  0  0  0  0
  -35.3375  -21.9446   20.3273 H   0  0  0  0  0  0
  -34.7909  -22.7072   18.8386 H   0  0  0  0  0  0
  -34.6339  -20.9634   19.0464 H   0  0  0  0  0  0
  -32.2083  -22.8329   18.3836 H   0  0  0  0  0  0
  -32.1230  -21.1188   18.5575 H   0  0  0  0  0  0
  -26.9666  -24.7822   20.4220 H   0  0  0  0  0  0
  -27.7040  -24.8951   18.8348 H   0  0  0  0  0  0
  -31.4086  -19.6755   21.0251 H   0  0  0  0  0  0
  -31.0055  -19.4904   19.3643 H   0  0  0  0  0  0
  -33.1358  -23.0824   20.6869 H   0  0  0  0  0  0
  -33.0179  -21.3607   20.9443 H   0  0  0  0  0  0
  1 25  1  0  0  0
  1 30  2  0  0  0
  1 90  1  0  0  0
  2  3  1  0  0  0
  2 25  1  0  0  0
  2 91  1  0  0  0
  2 92  1  0  0  0
  3  4  1  0  0  0
  3 93  1  0  0  0
  3 94  1  0  0  0
  4  5  1  0  0  0
  4 95  1  0  0  0
  4 96  1  0  0  0
  5  6  1  0  0  0
  5 26  1  0  0  0
  5 97  1  0  0  0
  6 25  1  0  0  0
  6 98  1  0  0  0
  6 99  1  0  0  0
  7  8  2  0  0  0
  7 26  1  0  0  0
  7 29  1  0  0  0
  8  9  1  0  0  0
  8 22  1  0  0  0
  9 10  1  0  0  0
  9 27  2  0  0  0
 10 11  2  0  0  0
 10 15  1  0  0  0
 11 12  1  0  0  0
 11100  1  0  0  0
 12 13  2  0  0  0
 12101  1  0  0  0
 13 14  1  0  0  0
 13 31  1  0  0  0
 14 15  2  0  0  0
 14102  1  0  0  0
 15103  1  0  0  0
 16 17  2  0  0  0
 16 21  1  0  0  0
 16 31  1  0  0  0
 17 18  1  0  0  0
 17104  1  0  0  0
 18 19  2  0  0  0
 18105  1  0  0  0
 19 20  1  0  0  0
 19 24  1  0  0  0
 20 21  2  0  0  0
 20106  1  0  0  0
 21 23  1  0  0  0
 22 28  1  0  0  0
 22 32  2  0  0  0
 26 27  1  0  0  0
 28107  1  0  0  0
 28108  1  0  0  0
 29109  1  0  0  0
 29110  1  0  0  0
 33 34  1  0  0  0
 33 66  1  0  0  0
 33 70  2  0  0  0
 34 36  1  0  0  0
 34 59  1  0  0  0
 34111  1  0  0  0
 35 44  2  0  0  0
 35 45  1  0  0  0
 35 68  1  0  0  0
 36 56  1  0  0  0
 36112  1  0  0  0
 37 39  1  0  0  0
 37 47  1  0  0  0
 37 66  1  0  0  0
 37113  1  0  0  0
 38 43  2  0  0  0
 38 46  1  0  0  0
 38 47  1  0  0  0
 39 64  1  0  0  0
 39 67  2  0  0  0
 40 52  1  0  0  0
 40 53  2  0  0  0
 40 58  1  0  0  0
 41114  1  0  0  0
 41115  1  0  0  0
 41116  1  0  0  0
 41 48  1  0  0  0
 42 43  1  0  0  0
 42 66  1  0  0  0
 42117  1  0  0  0
 42118  1  0  0  0
 43 44  1  0  0  0
 44119  1  0  0  0
 45 46  2  0  0  0
 45120  1  0  0  0
 46121  1  0  0  0
 47122  1  0  0  0
 47123  1  0  0  0
 48 56  1  0  0  0
 48 65  1  0  0  0
 48124  1  0  0  0
 49 50  1  0  0  0
 49 53  1  0  0  0
 49 64  1  0  0  0
 49125  1  0  0  0
 50 51  1  0  0  0
 50126  1  0  0  0
 50127  1  0  0  0
 51 52  1  0  0  0
 51128  1  0  0  0
 51129  1  0  0  0
 52130  1  0  0  0
 52131  1  0  0  0
 53 54  1  0  0  0
 54 55  2  0  0  0
 54132  1  0  0  0
 55 57  1  0  0  0
 55133  1  0  0  0
 56 69  2  0  0  0
 57 58  2  0  0  0
 57134  1  0  0  0
 58135  1  0  0  0
 59 60  1  0  0  0
 59 61  1  0  0  0
 59 62  1  0  0  0
 60136  1  0  0  0
 60137  1  0  0  0
 60138  1  0  0  0
 61139  1  0  0  0
 61140  1  0  0  0
 61141  1  0  0  0
 62142  1  0  0  0
 62143  1  0  0  0
 62144  1  0  0  0
 63 65  1  0  0  0
 63145  1  0  0  0
 63146  1  0  0  0
 63147  1  0  0  0
 64148  1  0  0  0
 65149  1  0  0  0
 68 86  1  0  0  0
 71 73  2  0  0  0
 71 74  1  0  0  0
 71150  1  0  0  0
 72 73  1  0  0  0
 72 89  2  0  0  0
 72151  1  0  0  0
 73 86  1  0  0  0
 74 75  2  0  0  0
 74 85  1  0  0  0
 75 87  1  0  0  0
 75 89  1  0  0  0
 76 77  1  0  0  0
 76152  1  0  0  0
 76153  1  0  0  0
 76 79  1  0  0  0
 77 79  1  0  0  0
 77154  1  0  0  0
 77155  1  0  0  0
 78 80  1  0  0  0
 78 90  1  0  0  0
 78156  1  0  0  0
 78157  1  0  0  0
 79 82  1  0  0  0
 79158  1  0  0  0
 80 81  1  0  0  0
 80 83  1  0  0  0
 80159  1  0  0  0
 81 82  1  0  0  0
 81 87  1  0  0  0
 81160  1  0  0  0
 82 90  1  0  0  0
 82161  1  0  0  0
 83162  1  0  0  0
 83163  1  0  0  0
 83164  1  0  0  0
 84 88  1  0  0  0
 84165  1  0  0  0
 84166  1  0  0  0
 84167  1  0  0  0
 85 88  1  0  0  0
 85168  1  0  0  0
 85169  1  0  0  0
 86170  1  0  0  0
 86171  1  0  0  0
 87172  1  0  0  0
 87173  1  0  0  0
 88174  1  0  0  0
 88175  1  0  0  0
M  ISO  4   1 100  68 101  86 101  90 100
M  END
> <chiral flag>
0

> <version>
0

> <s_m_source_file>
/data/baiqing/PycharmProjects/Reinvent-master-3.2/result/LINK_invent/BTK/process_docking_weight1_custom_sum_contain_oxygen_bond_distance_aromatic_linkinvent_7_9_3/rearranged_h_0143.sdf

> <i_m_source_file_index>
92

> <r_mmod_Potential_Energy-OPLS-2005>
258.450439453125

> <r_mmod_Stretch_Energy-OPLS-2005>
84.5823516845703

> <r_mmod_Bend_Energy-OPLS-2005>
177.793594360352

> <r_mmod_Torsional_Energy-OPLS-2005>
402.4423828125

> <r_mmod_Improper_Torsional_Energy-OPLS-2005>
14.9531440734863

> <r_mmod_Van_der_Waal_Energy-OPLS-2005>
137.310729980469

> <r_mmod_Electrostatic_Energy-OPLS-2005>
-419.156616210938

> <r_mmod_Solvation_Energy-OPLS-2005>
-195.287124633789

> <b_mmod_Minimization_Converged-OPLS-2005>
0

> <r_mmod_RMS_Derivative-OPLS-2005>
2.09536981582642

$$$$
94
                    3D
 Structure written by MMmdl.
162171  0  0  1  0            999 V2000
  -30.5696  -14.9365   20.3755 C   0  0  0  0  0  0
  -30.4267  -12.5752   19.4876 C   0  0  0  0  0  0
  -29.5087  -12.5050   18.2476 C   0  0  0  0  0  0
  -28.0445  -12.2962   18.6747 C   0  0  0  0  0  0
  -27.6231  -13.2452   19.8281 C   0  0  2  0  0  0
  -28.6693  -13.2968   20.9605 C   0  0  0  0  0  0
  -25.2450  -13.8220   20.5729 C   0  0  0  0  0  0
  -24.1763  -13.0451   20.9248 C   0  0  0  0  0  0
  -24.6366  -11.6932   20.8767 C   0  0  0  0  0  0
  -23.9051  -10.4301   21.0405 C   0  0  0  0  0  0
  -24.3608   -9.4215   21.9181 C   0  0  0  0  0  0
  -23.6295   -8.2244   22.0742 C   0  0  0  0  0  0
  -22.4278   -8.0278   21.3534 C   0  0  0  0  0  0
  -21.9905   -9.0244   20.4633 C   0  0  0  0  0  0
  -22.7220  -10.2133   20.3048 C   0  0  0  0  0  0
  -21.6851   -6.0728   22.5279 C   0  0  0  0  0  0
  -21.4011   -6.5629   23.8213 C   0  0  0  0  0  0
  -21.3669   -5.6783   24.9174 C   0  0  0  0  0  0
  -21.6047   -4.3040   24.7222 C   0  0  0  0  0  0
  -21.8823   -3.8135   23.4338 C   0  0  0  0  0  0
  -21.9200   -4.6961   22.3399 C   0  0  0  0  0  0
  -22.7784  -13.5238   21.1899 C   0  0  0  0  0  0
  -22.1661   -4.2147   21.0973 F   0  0  0  0  0  0
  -21.5644   -3.4527   25.7731 F   0  0  0  0  0  0
  -29.9400  -13.6954   20.3437 N   0  0  0  0  0  0
  -26.2848  -12.9438   20.3235 N   0  0  0  0  0  0
  -25.9295  -11.6569   20.5734 N   0  0  0  0  0  0
  -22.0413  -12.8234   22.0443 N   0  0  0  0  0  0
  -25.4147  -15.1942   20.4135 N   0  0  0  0  0  0
  -31.7849  -14.9202   20.1743 O   0  0  0  0  0  0
  -21.6644   -6.8868   21.4232 O   0  0  0  0  0  0
  -22.3479  -14.5549   20.6737 O   0  0  0  0  0  0
  -24.6435  -31.8450   23.1848 C   0  0  0  0  0  0
  -25.9224  -32.4693   23.8232 C   0  0  1  0  0  0
  -27.2079  -27.1373   20.1502 C   0  0  0  0  0  0
  -25.5987  -33.8503   24.2173 N   0  0  0  0  0  0
  -23.4435  -30.4635   21.5336 C   0  0  2  0  0  0
  -24.8876  -28.8844   20.1128 C   0  0  0  0  0  0
  -22.7554  -29.4558   22.4884 C   0  0  0  0  0  0
  -18.0307  -28.1384   22.8480 C   0  0  0  0  0  0
  -24.1493  -36.7254   23.2636 C   0  0  0  0  0  0
  -25.9969  -30.7218   21.3737 C   0  0  0  0  0  0
  -26.0665  -29.3288   20.7257 C   0  0  0  0  0  0
  -27.2296  -28.4720   20.7246 C   0  0  0  0  0  0
  -26.0075  -26.7928   19.4980 C   0  0  0  0  0  0
  -24.8706  -27.6298   19.4829 C   0  0  0  0  0  0
  -23.6632  -29.7855   20.1558 C   0  0  0  0  0  0
  -25.4118  -36.3029   24.0308 C   0  0  1  0  0  0
  -20.5920  -28.3706   23.1241 C   0  0  2  0  0  0
  -20.6788  -26.9405   22.5405 C   0  0  0  0  0  0
  -19.5762  -26.6370   21.5218 C   0  0  0  0  0  0
  -18.1943  -26.7932   22.1618 C   0  0  0  0  0  0
  -19.1561  -28.8861   23.2855 C   0  0  0  0  0  0
  -18.9481  -30.1472   23.8857 C   0  0  0  0  0  0
  -17.6473  -30.6575   24.0558 C   0  0  0  0  0  0
  -25.9076  -34.9412   23.5038 C   0  0  0  0  0  0
  -16.5363  -29.9064   23.6342 C   0  0  0  0  0  0
  -16.7293  -28.6489   23.0350 C   0  0  0  0  0  0
  -26.4546  -31.6557   25.0664 C   0  0  0  0  0  0
  -25.3745  -31.3734   26.1367 C   0  0  0  0  0  0
  -27.0390  -30.2962   24.6185 C   0  0  0  0  0  0
  -27.6092  -32.4311   25.7437 C   0  0  0  0  0  0
  -27.5562  -37.1769   24.8466 C   0  0  0  0  0  0
  -21.4249  -29.3047   22.3624 N   0  0  0  0  0  0
  -26.4267  -37.3753   23.9419 N   0  0  0  0  0  0
  -24.7150  -31.0304   22.0870 N   0  0  0  0  0  0
  -23.4211  -28.8098   23.3015 O   0  0  0  0  0  0
  -28.2738  -26.1700   20.1533 O   0  0  0  0  0  0
  -26.5649  -34.8924   22.4607 O   0  0  0  0  0  0
  -23.5561  -32.1300   23.7093 O   0  0  0  0  0  0
  -30.0471  -19.2002   22.0215 C   0  0  0  0  0  0
  -31.4232  -18.9909   22.2307 C   0  0  0  0  0  0
  -29.5454  -18.8685   20.7503 C   0  0  0  0  0  0
  -30.2379  -17.6476   20.2209 C   0  0  0  0  0  0
  -31.6380  -17.8557   20.2228 C   0  0  0  0  0  0
  -32.9948  -18.4631   18.0717 C   0  0  0  0  0  0
  -32.0823  -17.3279   17.6723 C   0  0  0  0  0  0
  -32.5625  -17.4476   19.1040 C   0  0  0  0  0  0
  -30.2156  -23.6391   19.5434 C   0  0  0  0  0  0
  -29.2248  -20.2742   19.9421 C   0  0  0  0  0  0
  -28.7741  -21.7559   20.6395 C   0  0  0  0  0  0
  -28.0664  -24.6793   20.5620 C   0  0  0  0  0  0
  -28.7670  -23.2855   19.9053 C   0  0  1  0  0  0
  -32.2281  -18.4713   21.2732 N   0  0  0  0  0  0
  -29.8371  -16.1660   20.4177 N   0  0  0  0  0  0
  -31.4616  -12.7102   19.1701 H   0  0  0  0  0  0
  -30.4067  -11.6325   20.0378 H   0  0  0  0  0  0
  -29.8247  -11.6927   17.5916 H   0  0  0  0  0  0
  -29.5980  -13.4237   17.6639 H   0  0  0  0  0  0
  -27.9497  -11.2589   19.0008 H   0  0  0  0  0  0
  -27.3746  -12.4054   17.8211 H   0  0  0  0  0  0
  -27.5801  -14.2407   19.3852 H   0  0  0  0  0  0
  -28.7587  -12.3287   21.4557 H   0  0  0  0  0  0
  -28.3728  -14.0134   21.7275 H   0  0  0  0  0  0
  -25.2745   -9.5716   22.4762 H   0  0  0  0  0  0
  -24.0016   -7.4636   22.7460 H   0  0  0  0  0  0
  -21.0842   -8.8747   19.8935 H   0  0  0  0  0  0
  -22.3660  -10.9670   19.6165 H   0  0  0  0  0  0
  -21.1978   -7.6132   23.9724 H   0  0  0  0  0  0
  -21.1496   -6.0496   25.9083 H   0  0  0  0  0  0
  -22.0596   -2.7597   23.2836 H   0  0  0  0  0  0
  -22.4006  -11.9896   22.4856 H   0  0  0  0  0  0
  -21.1020  -13.1251   22.2612 H   0  0  0  0  0  0
  -24.6500  -15.8495   20.5307 H   0  0  0  0  0  0
  -26.2601  -15.6318   20.0705 H   0  0  0  0  0  0
  -26.7278  -32.5310   23.0956 H   0  0  0  0  0  0
  -25.0184  -33.9616   25.0347 H   0  0  0  0  0  0
  -22.7478  -31.2905   21.3786 H   0  0  0  0  0  0
  -23.3761  -35.9585   23.3272 H   0  0  0  0  0  0
  -24.3568  -36.8901   22.2057 H   0  0  0  0  0  0
  -23.7257  -37.6442   23.6685 H   0  0  0  0  0  0
  -26.1428  -31.4678   20.5905 H   0  0  0  0  0  0
  -26.8739  -30.7826   22.0064 H   0  0  0  0  0  0
  -28.1320  -28.8107   21.2139 H   0  0  0  0  0  0
  -25.9361  -25.8356   19.0005 H   0  0  0  0  0  0
  -23.9692  -27.2883   18.9917 H   0  0  0  0  0  0
  -23.7931  -30.5550   19.3944 H   0  0  0  0  0  0
  -22.7776  -29.2226   19.8535 H   0  0  0  0  0  0
  -25.1314  -36.1825   25.0797 H   0  0  0  0  0  0
  -21.0022  -28.3289   24.1367 H   0  0  0  0  0  0
  -20.5686  -26.2315   23.3621 H   0  0  0  0  0  0
  -21.6647  -26.7416   22.1193 H   0  0  0  0  0  0
  -19.6916  -25.6289   21.1235 H   0  0  0  0  0  0
  -19.6689  -27.3193   20.6754 H   0  0  0  0  0  0
  -17.4215  -26.6698   21.4009 H   0  0  0  0  0  0
  -18.0307  -26.0076   22.9004 H   0  0  0  0  0  0
  -19.7953  -30.7313   24.2168 H   0  0  0  0  0  0
  -17.5020  -31.6251   24.5177 H   0  0  0  0  0  0
  -15.5360  -30.2945   23.7688 H   0  0  0  0  0  0
  -15.8697  -28.0798   22.7064 H   0  0  0  0  0  0
  -24.5972  -30.7018   25.7695 H   0  0  0  0  0  0
  -24.8882  -32.2911   26.4690 H   0  0  0  0  0  0
  -25.8047  -30.8994   27.0201 H   0  0  0  0  0  0
  -26.2969  -29.6699   24.1213 H   0  0  0  0  0  0
  -27.4070  -29.7229   25.4704 H   0  0  0  0  0  0
  -27.8859  -30.4210   23.9433 H   0  0  0  0  0  0
  -27.2711  -33.3653   26.1930 H   0  0  0  0  0  0
  -28.3946  -32.6787   25.0286 H   0  0  0  0  0  0
  -28.0724  -31.8487   26.5410 H   0  0  0  0  0  0
  -28.2578  -38.0064   24.7517 H   0  0  0  0  0  0
  -28.1044  -36.2592   24.6274 H   0  0  0  0  0  0
  -27.2277  -37.1414   25.8866 H   0  0  0  0  0  0
  -20.9440  -29.8756   21.6809 H   0  0  0  0  0  0
  -26.0117  -38.2808   24.1431 H   0  0  0  0  0  0
  -29.5537  -19.9198   22.6582 H   0  0  0  0  0  0
  -31.9124  -19.4089   23.0981 H   0  0  0  0  0  0
  -32.5592  -19.4583   18.1254 H   0  0  0  0  0  0
  -34.0229  -18.4185   17.7178 H   0  0  0  0  0  0
  -32.5152  -16.5505   17.0475 H   0  0  0  0  0  0
  -31.0422  -17.5706   17.4599 H   0  0  0  0  0  0
  -33.3347  -16.7619   19.4476 H   0  0  0  0  0  0
  -30.7071  -22.8242   19.0114 H   0  0  0  0  0  0
  -30.7998  -23.8543   20.4380 H   0  0  0  0  0  0
  -30.2533  -24.5224   18.9033 H   0  0  0  0  0  0
  -28.4803  -20.0284   19.1858 H   0  0  0  0  0  0
  -30.1338  -20.4675   19.3718 H   0  0  0  0  0  0
  -29.4033  -21.8843   21.5204 H   0  0  0  0  0  0
  -27.7752  -21.5975   21.0478 H   0  0  0  0  0  0
  -28.3757  -24.6780   21.6078 H   0  0  0  0  0  0
  -26.9934  -24.4970   20.6165 H   0  0  0  0  0  0
  -28.2467  -23.1308   18.9589 H   0  0  0  0  0  0
  -28.8506  -16.0237   20.5781 H   0  0  0  0  0  0
  1 25  1  0  0  0
  1 30  2  0  0  0
  1 85  1  0  0  0
  2  3  1  0  0  0
  2 25  1  0  0  0
  2 86  1  0  0  0
  2 87  1  0  0  0
  3  4  1  0  0  0
  3 88  1  0  0  0
  3 89  1  0  0  0
  4  5  1  0  0  0
  4 90  1  0  0  0
  4 91  1  0  0  0
  5  6  1  0  0  0
  5 26  1  0  0  0
  5 92  1  0  0  0
  6 25  1  0  0  0
  6 93  1  0  0  0
  6 94  1  0  0  0
  7  8  2  0  0  0
  7 26  1  0  0  0
  7 29  1  0  0  0
  8  9  1  0  0  0
  8 22  1  0  0  0
  9 10  1  0  0  0
  9 27  2  0  0  0
 10 11  2  0  0  0
 10 15  1  0  0  0
 11 12  1  0  0  0
 11 95  1  0  0  0
 12 13  2  0  0  0
 12 96  1  0  0  0
 13 14  1  0  0  0
 13 31  1  0  0  0
 14 15  2  0  0  0
 14 97  1  0  0  0
 15 98  1  0  0  0
 16 17  2  0  0  0
 16 21  1  0  0  0
 16 31  1  0  0  0
 17 18  1  0  0  0
 17 99  1  0  0  0
 18 19  2  0  0  0
 18100  1  0  0  0
 19 20  1  0  0  0
 19 24  1  0  0  0
 20 21  2  0  0  0
 20101  1  0  0  0
 21 23  1  0  0  0
 22 28  1  0  0  0
 22 32  2  0  0  0
 26 27  1  0  0  0
 28102  1  0  0  0
 28103  1  0  0  0
 29104  1  0  0  0
 29105  1  0  0  0
 33 34  1  0  0  0
 33 66  1  0  0  0
 33 70  2  0  0  0
 34 36  1  0  0  0
 34 59  1  0  0  0
 34106  1  0  0  0
 35 44  2  0  0  0
 35 45  1  0  0  0
 35 68  1  0  0  0
 36 56  1  0  0  0
 36107  1  0  0  0
 37 39  1  0  0  0
 37 47  1  0  0  0
 37 66  1  0  0  0
 37108  1  0  0  0
 38 43  2  0  0  0
 38 46  1  0  0  0
 38 47  1  0  0  0
 39 64  1  0  0  0
 39 67  2  0  0  0
 40 52  1  0  0  0
 40 53  2  0  0  0
 40 58  1  0  0  0
 41109  1  0  0  0
 41110  1  0  0  0
 41111  1  0  0  0
 41 48  1  0  0  0
 42 43  1  0  0  0
 42 66  1  0  0  0
 42112  1  0  0  0
 42113  1  0  0  0
 43 44  1  0  0  0
 44114  1  0  0  0
 45 46  2  0  0  0
 45115  1  0  0  0
 46116  1  0  0  0
 47117  1  0  0  0
 47118  1  0  0  0
 48 56  1  0  0  0
 48 65  1  0  0  0
 48119  1  0  0  0
 49 50  1  0  0  0
 49 53  1  0  0  0
 49 64  1  0  0  0
 49120  1  0  0  0
 50 51  1  0  0  0
 50121  1  0  0  0
 50122  1  0  0  0
 51 52  1  0  0  0
 51123  1  0  0  0
 51124  1  0  0  0
 52125  1  0  0  0
 52126  1  0  0  0
 53 54  1  0  0  0
 54 55  2  0  0  0
 54127  1  0  0  0
 55 57  1  0  0  0
 55128  1  0  0  0
 56 69  2  0  0  0
 57 58  2  0  0  0
 57129  1  0  0  0
 58130  1  0  0  0
 59 60  1  0  0  0
 59 61  1  0  0  0
 59 62  1  0  0  0
 60131  1  0  0  0
 60132  1  0  0  0
 60133  1  0  0  0
 61134  1  0  0  0
 61135  1  0  0  0
 61136  1  0  0  0
 62137  1  0  0  0
 62138  1  0  0  0
 62139  1  0  0  0
 63 65  1  0  0  0
 63140  1  0  0  0
 63141  1  0  0  0
 63142  1  0  0  0
 64143  1  0  0  0
 65144  1  0  0  0
 68 82  1  0  0  0
 71 72  2  0  0  0
 71 73  1  0  0  0
 71145  1  0  0  0
 72 84  1  0  0  0
 72146  1  0  0  0
 73 74  2  0  0  0
 73 80  1  0  0  0
 74 75  1  0  0  0
 74 85  1  0  0  0
 75 84  2  0  0  0
 75 78  1  0  0  0
 76 77  1  0  0  0
 76 78  1  0  0  0
 76147  1  0  0  0
 76148  1  0  0  0
 77 78  1  0  0  0
 77149  1  0  0  0
 77150  1  0  0  0
 78151  1  0  0  0
 79152  1  0  0  0
 79153  1  0  0  0
 79154  1  0  0  0
 79 83  1  0  0  0
 80 81  1  0  0  0
 80155  1  0  0  0
 80156  1  0  0  0
 81 83  1  0  0  0
 81157  1  0  0  0
 81158  1  0  0  0
 82 83  1  0  0  0
 82159  1  0  0  0
 82160  1  0  0  0
 83161  1  0  0  0
 85162  1  0  0  0
M  ISO  4   1 100  68 101  82 101  85 100
M  END
> <chiral flag>
0

> <version>
0

> <s_m_source_file>
/data/baiqing/PycharmProjects/Reinvent-master-3.2/result/LINK_invent/BTK/process_docking_weight1_custom_sum_contain_oxygen_bond_distance_aromatic_linkinvent_7_9_3/rearranged_h_0143.sdf

> <i_m_source_file_index>
93

> <r_mmod_Potential_Energy-OPLS-2005>
662.762573242188

> <r_mmod_Stretch_Energy-OPLS-2005>
282.128875732422

> <r_mmod_Bend_Energy-OPLS-2005>
279.258453369141

> <r_mmod_Torsional_Energy-OPLS-2005>
506.405609130859

> <r_mmod_Improper_Torsional_Energy-OPLS-2005>
34.7935333251953

> <r_mmod_Van_der_Waal_Energy-OPLS-2005>
138.792190551758

> <r_mmod_Electrostatic_Energy-OPLS-2005>
-548.236206054688

> <r_mmod_Solvation_Energy-OPLS-2005>
-214.879760742188

> <b_mmod_Minimization_Converged-OPLS-2005>
0

> <r_mmod_RMS_Derivative-OPLS-2005>
2.81322455406189

$$$$
95
                    3D
 Structure written by MMmdl.
158167  0  0  1  0            999 V2000
  -30.6246  -14.7439   20.4156 C   0  0  0  0  0  0
  -30.4266  -12.4460   19.4815 C   0  0  0  0  0  0
  -29.5105  -12.4992   18.2393 C   0  0  0  0  0  0
  -28.0363  -12.3273   18.6517 C   0  0  0  0  0  0
  -27.6393  -13.2353   19.8465 C   0  0  2  0  0  0
  -28.6838  -13.1903   20.9836 C   0  0  0  0  0  0
  -25.2498  -13.8205   20.5698 C   0  0  0  0  0  0
  -24.1796  -13.0443   20.9213 C   0  0  0  0  0  0
  -24.6394  -11.6923   20.8751 C   0  0  0  0  0  0
  -23.9074  -10.4296   21.0408 C   0  0  0  0  0  0
  -24.3623   -9.4210   21.9185 C   0  0  0  0  0  0
  -23.6297   -8.2245   22.0755 C   0  0  0  0  0  0
  -22.4279   -8.0283   21.3546 C   0  0  0  0  0  0
  -21.9915   -9.0257   20.4648 C   0  0  0  0  0  0
  -22.7245  -10.2136   20.3058 C   0  0  0  0  0  0
  -21.6856   -6.0736   22.5278 C   0  0  0  0  0  0
  -21.4017   -6.5640   23.8212 C   0  0  0  0  0  0
  -21.3660   -5.6793   24.9174 C   0  0  0  0  0  0
  -21.6044   -4.3055   24.7224 C   0  0  0  0  0  0
  -21.8817   -3.8147   23.4345 C   0  0  0  0  0  0
  -21.9192   -4.6964   22.3401 C   0  0  0  0  0  0
  -22.7816  -13.5220   21.1870 C   0  0  0  0  0  0
  -22.1660   -4.2149   21.0978 F   0  0  0  0  0  0
  -21.5630   -3.4538   25.7737 F   0  0  0  0  0  0
  -29.9869  -13.5237   20.3980 N   0  0  0  0  0  0
  -26.2927  -12.9420   20.3269 N   0  0  0  0  0  0
  -25.9325  -11.6560   20.5751 N   0  0  0  0  0  0
  -22.0464  -12.8210   22.0427 N   0  0  0  0  0  0
  -25.4170  -15.1931   20.4117 N   0  0  0  0  0  0
  -31.8344  -14.7820   20.1842 O   0  0  0  0  0  0
  -21.6643   -6.8881   21.4241 O   0  0  0  0  0  0
  -22.3497  -14.5522   20.6712 O   0  0  0  0  0  0
  -24.6326  -31.8554   23.1990 C   0  0  0  0  0  0
  -25.9149  -32.4754   23.8335 C   0  0  1  0  0  0
  -27.2144  -27.2562   20.1261 C   0  0  0  0  0  0
  -25.5940  -33.8556   24.2255 N   0  0  0  0  0  0
  -23.4287  -30.4800   21.5431 C   0  0  2  0  0  0
  -24.8744  -28.9301   20.1098 C   0  0  0  0  0  0
  -22.7508  -29.4606   22.4910 C   0  0  0  0  0  0
  -18.0293  -28.1389   22.8483 C   0  0  0  0  0  0
  -24.1490  -36.7283   23.2640 C   0  0  0  0  0  0
  -25.9765  -30.7676   21.3796 C   0  0  0  0  0  0
  -26.0484  -29.3910   20.7189 C   0  0  0  0  0  0
  -27.2223  -28.5682   20.7136 C   0  0  0  0  0  0
  -26.0137  -26.8689   19.4867 C   0  0  0  0  0  0
  -24.8630  -27.6776   19.4821 C   0  0  0  0  0  0
  -23.6466  -29.8178   20.1582 C   0  0  0  0  0  0
  -25.4118  -36.3068   24.0325 C   0  0  1  0  0  0
  -20.5898  -28.3701   23.1265 C   0  0  2  0  0  0
  -20.6782  -26.9418   22.5405 C   0  0  0  0  0  0
  -19.5755  -26.6384   21.5211 C   0  0  0  0  0  0
  -18.1936  -26.7930   22.1625 C   0  0  0  0  0  0
  -19.1547  -28.8862   23.2868 C   0  0  0  0  0  0
  -18.9467  -30.1462   23.8889 C   0  0  0  0  0  0
  -17.6465  -30.6588   24.0562 C   0  0  0  0  0  0
  -25.9059  -34.9439   23.5092 C   0  0  0  0  0  0
  -16.5357  -29.9085   23.6331 C   0  0  0  0  0  0
  -16.7279  -28.6503   23.0352 C   0  0  0  0  0  0
  -26.4509  -31.6580   25.0728 C   0  0  0  0  0  0
  -25.3726  -31.3732   26.1443 C   0  0  0  0  0  0
  -27.0360  -30.2995   24.6224 C   0  0  0  0  0  0
  -27.6057  -32.4326   25.7505 C   0  0  0  0  0  0
  -27.5578  -37.1799   24.8466 C   0  0  0  0  0  0
  -21.4215  -29.3048   22.3654 N   0  0  0  0  0  0
  -26.4291  -37.3768   23.9407 N   0  0  0  0  0  0
  -24.6986  -31.0520   22.0967 N   0  0  0  0  0  0
  -23.4207  -28.8141   23.3006 O   0  0  0  0  0  0
  -28.3006  -26.3470   20.1870 O   0  0  0  0  0  0
  -26.5631  -34.8915   22.4662 O   0  0  0  0  0  0
  -23.5474  -32.1377   23.7283 O   0  0  0  0  0  0
  -31.8898  -20.3524   20.1458 C   0  0  0  0  0  0
  -30.9632  -21.3946   20.3630 C   0  0  0  0  0  0
  -29.1479  -19.7620   20.2453 C   0  0  0  0  0  0
  -31.4327  -19.0374   19.9450 C   0  0  0  0  0  0
  -30.0947  -18.6682   20.0844 C   0  0  0  0  0  0
  -29.5641  -21.1622   20.3411 C   0  0  0  0  0  0
  -32.2243  -17.9681   19.2415 C   0  0  0  0  0  0
  -29.9155  -17.1797   19.5382 C   0  0  1  0  0  0
  -31.1224  -17.1305   18.5465 C   0  0  1  0  0  0
  -30.7511  -17.7351   17.1778 C   0  0  0  0  0  0
  -28.0122  -24.8686   20.0772 C   0  0  0  0  0  0
  -29.1023  -23.7016   20.3475 C   0  0  0  0  0  0
  -29.8475  -15.9017   20.4062 N   0  0  0  0  0  0
  -28.6562  -22.2663   20.3513 O   0  0  0  0  0  0
  -31.4703  -12.5531   19.1812 H   0  0  0  0  0  0
  -30.3567  -11.4748   19.9740 H   0  0  0  0  0  0
  -29.7926  -11.7223   17.5274 H   0  0  0  0  0  0
  -29.6411  -13.4515   17.7225 H   0  0  0  0  0  0
  -27.8938  -11.2804   18.9222 H   0  0  0  0  0  0
  -27.3801  -12.5124   17.8006 H   0  0  0  0  0  0
  -27.6271  -14.2522   19.4538 H   0  0  0  0  0  0
  -28.7144  -12.2032   21.4471 H   0  0  0  0  0  0
  -28.4243  -13.8954   21.7750 H   0  0  0  0  0  0
  -25.2769   -9.5685   22.4760 H   0  0  0  0  0  0
  -24.0006   -7.4637   22.7474 H   0  0  0  0  0  0
  -21.0847   -8.8777   19.8953 H   0  0  0  0  0  0
  -22.3704  -10.9675   19.6167 H   0  0  0  0  0  0
  -21.2011   -7.6149   23.9715 H   0  0  0  0  0  0
  -21.1485   -6.0524   25.9077 H   0  0  0  0  0  0
  -22.0596   -2.7609   23.2844 H   0  0  0  0  0  0
  -22.4087  -11.9878   22.4821 H   0  0  0  0  0  0
  -21.1078  -13.1228   22.2631 H   0  0  0  0  0  0
  -24.6463  -15.8430   20.5243 H   0  0  0  0  0  0
  -26.2580  -15.6361   20.0657 H   0  0  0  0  0  0
  -26.7215  -32.5401   23.1075 H   0  0  0  0  0  0
  -25.0078  -33.9690   25.0395 H   0  0  0  0  0  0
  -22.7255  -31.3028   21.3989 H   0  0  0  0  0  0
  -23.3753  -35.9615   23.3301 H   0  0  0  0  0  0
  -24.3579  -36.8909   22.2055 H   0  0  0  0  0  0
  -23.7245  -37.6484   23.6668 H   0  0  0  0  0  0
  -26.1181  -31.5297   20.6119 H   0  0  0  0  0  0
  -26.8532  -30.8137   22.0141 H   0  0  0  0  0  0
  -28.1200  -28.9162   21.2051 H   0  0  0  0  0  0
  -25.9225  -25.9147   18.9922 H   0  0  0  0  0  0
  -23.9650  -27.3199   18.9974 H   0  0  0  0  0  0
  -23.7729  -30.5960   19.4047 H   0  0  0  0  0  0
  -22.7640  -29.2537   19.8511 H   0  0  0  0  0  0
  -25.1300  -36.1913   25.0818 H   0  0  0  0  0  0
  -20.9991  -28.3280   24.1386 H   0  0  0  0  0  0
  -20.5683  -26.2312   23.3612 H   0  0  0  0  0  0
  -21.6649  -26.7441   22.1198 H   0  0  0  0  0  0
  -19.6917  -25.6293   21.1245 H   0  0  0  0  0  0
  -19.6691  -27.3190   20.6738 H   0  0  0  0  0  0
  -17.4205  -26.6673   21.4029 H   0  0  0  0  0  0
  -18.0339  -26.0074   22.9025 H   0  0  0  0  0  0
  -19.7943  -30.7279   24.2256 H   0  0  0  0  0  0
  -17.5020  -31.6267   24.5165 H   0  0  0  0  0  0
  -15.5357  -30.2984   23.7659 H   0  0  0  0  0  0
  -15.8679  -28.0819   22.7072 H   0  0  0  0  0  0
  -24.5909  -30.7073   25.7770 H   0  0  0  0  0  0
  -24.8909  -32.2901   26.4849 H   0  0  0  0  0  0
  -25.8039  -30.8924   27.0231 H   0  0  0  0  0  0
  -26.2949  -29.6737   24.1238 H   0  0  0  0  0  0
  -27.4024  -29.7265   25.4751 H   0  0  0  0  0  0
  -27.8834  -30.4265   23.9483 H   0  0  0  0  0  0
  -27.2660  -33.3632   26.2063 H   0  0  0  0  0  0
  -28.3878  -32.6876   25.0341 H   0  0  0  0  0  0
  -28.0712  -31.8464   26.5438 H   0  0  0  0  0  0
  -28.2595  -38.0096   24.7508 H   0  0  0  0  0  0
  -28.1074  -36.2626   24.6298 H   0  0  0  0  0  0
  -27.2294  -37.1454   25.8868 H   0  0  0  0  0  0
  -20.9402  -29.8776   21.6862 H   0  0  0  0  0  0
  -26.0168  -38.2841   24.1406 H   0  0  0  0  0  0
  -32.9378  -20.5892   20.0238 H   0  0  0  0  0  0
  -31.3591  -22.3946   20.4565 H   0  0  0  0  0  0
  -28.0915  -19.5403   20.1905 H   0  0  0  0  0  0
  -32.7655  -17.3767   19.9809 H   0  0  0  0  0  0
  -32.9471  -18.3817   18.5370 H   0  0  0  0  0  0
  -28.9863  -17.1663   18.9664 H   0  0  0  0  0  0
  -31.4715  -16.1351   18.2868 H   0  0  0  0  0  0
  -30.4036  -18.7652   17.2650 H   0  0  0  0  0  0
  -29.9584  -17.1594   16.6990 H   0  0  0  0  0  0
  -31.6078  -17.7329   16.5033 H   0  0  0  0  0  0
  -27.1714  -24.6625   20.7410 H   0  0  0  0  0  0
  -27.6515  -24.6841   19.0658 H   0  0  0  0  0  0
  -29.5751  -23.8950   21.3108 H   0  0  0  0  0  0
  -29.8820  -23.8203   19.5948 H   0  0  0  0  0  0
  -28.9146  -15.7288   20.7478 H   0  0  0  0  0  0
  1 25  1  0  0  0
  1 30  2  0  0  0
  1 83  1  0  0  0
  2  3  1  0  0  0
  2 25  1  0  0  0
  2 85  1  0  0  0
  2 86  1  0  0  0
  3  4  1  0  0  0
  3 87  1  0  0  0
  3 88  1  0  0  0
  4  5  1  0  0  0
  4 89  1  0  0  0
  4 90  1  0  0  0
  5  6  1  0  0  0
  5 26  1  0  0  0
  5 91  1  0  0  0
  6 25  1  0  0  0
  6 92  1  0  0  0
  6 93  1  0  0  0
  7  8  2  0  0  0
  7 26  1  0  0  0
  7 29  1  0  0  0
  8  9  1  0  0  0
  8 22  1  0  0  0
  9 10  1  0  0  0
  9 27  2  0  0  0
 10 11  2  0  0  0
 10 15  1  0  0  0
 11 12  1  0  0  0
 11 94  1  0  0  0
 12 13  2  0  0  0
 12 95  1  0  0  0
 13 14  1  0  0  0
 13 31  1  0  0  0
 14 15  2  0  0  0
 14 96  1  0  0  0
 15 97  1  0  0  0
 16 17  2  0  0  0
 16 21  1  0  0  0
 16 31  1  0  0  0
 17 18  1  0  0  0
 17 98  1  0  0  0
 18 19  2  0  0  0
 18 99  1  0  0  0
 19 20  1  0  0  0
 19 24  1  0  0  0
 20 21  2  0  0  0
 20100  1  0  0  0
 21 23  1  0  0  0
 22 28  1  0  0  0
 22 32  2  0  0  0
 26 27  1  0  0  0
 28101  1  0  0  0
 28102  1  0  0  0
 29103  1  0  0  0
 29104  1  0  0  0
 33 34  1  0  0  0
 33 66  1  0  0  0
 33 70  2  0  0  0
 34 36  1  0  0  0
 34 59  1  0  0  0
 34105  1  0  0  0
 35 44  2  0  0  0
 35 45  1  0  0  0
 35 68  1  0  0  0
 36 56  1  0  0  0
 36106  1  0  0  0
 37 39  1  0  0  0
 37 47  1  0  0  0
 37 66  1  0  0  0
 37107  1  0  0  0
 38 43  2  0  0  0
 38 46  1  0  0  0
 38 47  1  0  0  0
 39 64  1  0  0  0
 39 67  2  0  0  0
 40 52  1  0  0  0
 40 53  2  0  0  0
 40 58  1  0  0  0
 41108  1  0  0  0
 41109  1  0  0  0
 41110  1  0  0  0
 41 48  1  0  0  0
 42 43  1  0  0  0
 42 66  1  0  0  0
 42111  1  0  0  0
 42112  1  0  0  0
 43 44  1  0  0  0
 44113  1  0  0  0
 45 46  2  0  0  0
 45114  1  0  0  0
 46115  1  0  0  0
 47116  1  0  0  0
 47117  1  0  0  0
 48 56  1  0  0  0
 48 65  1  0  0  0
 48118  1  0  0  0
 49 50  1  0  0  0
 49 53  1  0  0  0
 49 64  1  0  0  0
 49119  1  0  0  0
 50 51  1  0  0  0
 50120  1  0  0  0
 50121  1  0  0  0
 51 52  1  0  0  0
 51122  1  0  0  0
 51123  1  0  0  0
 52124  1  0  0  0
 52125  1  0  0  0
 53 54  1  0  0  0
 54 55  2  0  0  0
 54126  1  0  0  0
 55 57  1  0  0  0
 55127  1  0  0  0
 56 69  2  0  0  0
 57 58  2  0  0  0
 57128  1  0  0  0
 58129  1  0  0  0
 59 60  1  0  0  0
 59 61  1  0  0  0
 59 62  1  0  0  0
 60130  1  0  0  0
 60131  1  0  0  0
 60132  1  0  0  0
 61133  1  0  0  0
 61134  1  0  0  0
 61135  1  0  0  0
 62136  1  0  0  0
 62137  1  0  0  0
 62138  1  0  0  0
 63 65  1  0  0  0
 63139  1  0  0  0
 63140  1  0  0  0
 63141  1  0  0  0
 64142  1  0  0  0
 65143  1  0  0  0
 68 81  1  0  0  0
 71 72  2  0  0  0
 71 74  1  0  0  0
 71144  1  0  0  0
 72 76  1  0  0  0
 72145  1  0  0  0
 73 75  1  0  0  0
 73 76  2  0  0  0
 73146  1  0  0  0
 74 75  2  0  0  0
 74 77  1  0  0  0
 75 78  1  0  0  0
 76 84  1  0  0  0
 77 79  1  0  0  0
 77147  1  0  0  0
 77148  1  0  0  0
 78 79  1  0  0  0
 78 83  1  0  0  0
 78149  1  0  0  0
 79 80  1  0  0  0
 79150  1  0  0  0
 80151  1  0  0  0
 80152  1  0  0  0
 80153  1  0  0  0
 81 82  1  0  0  0
 81154  1  0  0  0
 81155  1  0  0  0
 82 84  1  0  0  0
 82156  1  0  0  0
 82157  1  0  0  0
 83158  1  0  0  0
M  ISO  4   1 100  68 101  81 101  83 100
M  END
> <chiral flag>
0

> <version>
0

> <s_m_source_file>
/data/baiqing/PycharmProjects/Reinvent-master-3.2/result/LINK_invent/BTK/process_docking_weight1_custom_sum_contain_oxygen_bond_distance_aromatic_linkinvent_7_9_3/rearranged_h_0143.sdf

> <i_m_source_file_index>
94

> <r_mmod_Potential_Energy-OPLS-2005>
251.525360107422

> <r_mmod_Stretch_Energy-OPLS-2005>
133.269409179688

> <r_mmod_Bend_Energy-OPLS-2005>
235.744842529297

> <r_mmod_Torsional_Energy-OPLS-2005>
256.412445068359

> <r_mmod_Improper_Torsional_Energy-OPLS-2005>
16.3373260498047

> <r_mmod_Van_der_Waal_Energy-OPLS-2005>
148.372573852539

> <r_mmod_Electrostatic_Energy-OPLS-2005>
-414.393249511719

> <r_mmod_Solvation_Energy-OPLS-2005>
-214.676788330078

> <b_mmod_Minimization_Converged-OPLS-2005>
0

> <r_mmod_RMS_Derivative-OPLS-2005>
0.219838574528694

$$$$
96
                    3D
 Structure written by MMmdl.
169178  0  0  1  0            999 V2000
  -30.5680  -14.9563   20.4394 C   0  0  0  0  0  0
  -30.4362  -12.5673   19.5198 C   0  0  0  0  0  0
  -29.5279  -12.5367   18.2687 C   0  0  0  0  0  0
  -28.0554  -12.3324   18.6735 C   0  0  0  0  0  0
  -27.6259  -13.2574   19.8424 C   0  0  2  0  0  0
  -28.6532  -13.2843   20.9897 C   0  0  0  0  0  0
  -25.2427  -13.8235   20.5720 C   0  0  0  0  0  0
  -24.1751  -13.0439   20.9201 C   0  0  0  0  0  0
  -24.6386  -11.6927   20.8738 C   0  0  0  0  0  0
  -23.9075  -10.4294   21.0395 C   0  0  0  0  0  0
  -24.3622   -9.4213   21.9177 C   0  0  0  0  0  0
  -23.6302   -8.2243   22.0754 C   0  0  0  0  0  0
  -22.4284   -8.0280   21.3551 C   0  0  0  0  0  0
  -21.9913   -9.0243   20.4645 C   0  0  0  0  0  0
  -22.7241  -10.2124   20.3054 C   0  0  0  0  0  0
  -21.6859   -6.0727   22.5276 C   0  0  0  0  0  0
  -21.4025   -6.5631   23.8205 C   0  0  0  0  0  0
  -21.3668   -5.6791   24.9170 C   0  0  0  0  0  0
  -21.6047   -4.3052   24.7226 C   0  0  0  0  0  0
  -21.8816   -3.8141   23.4349 C   0  0  0  0  0  0
  -21.9196   -4.6953   22.3399 C   0  0  0  0  0  0
  -22.7772  -13.5197   21.1873 C   0  0  0  0  0  0
  -22.1661   -4.2138   21.0978 F   0  0  0  0  0  0
  -21.5635   -3.4534   25.7742 F   0  0  0  0  0  0
  -29.9441  -13.6546   20.4110 N   0  0  0  0  0  0
  -26.2851  -12.9491   20.3223 N   0  0  0  0  0  0
  -25.9322  -11.6607   20.5716 N   0  0  0  0  0  0
  -22.0449  -12.8167   22.0440 N   0  0  0  0  0  0
  -25.4102  -15.1968   20.4209 N   0  0  0  0  0  0
  -31.7519  -15.0440   20.1054 O   0  0  0  0  0  0
  -21.6655   -6.8873   21.4244 O   0  0  0  0  0  0
  -22.3437  -14.5503   20.6737 O   0  0  0  0  0  0
  -24.6444  -31.8424   23.1874 C   0  0  0  0  0  0
  -25.9209  -32.4686   23.8276 C   0  0  1  0  0  0
  -27.2168  -27.1148   20.1589 C   0  0  0  0  0  0
  -25.5941  -33.8497   24.2180 N   0  0  0  0  0  0
  -23.4501  -30.4606   21.5323 C   0  0  2  0  0  0
  -24.8990  -28.8816   20.1131 C   0  0  0  0  0  0
  -22.7570  -29.4539   22.4853 C   0  0  0  0  0  0
  -18.0308  -28.1409   22.8484 C   0  0  0  0  0  0
  -24.1490  -36.7255   23.2646 C   0  0  0  0  0  0
  -26.0069  -30.7098   21.3886 C   0  0  0  0  0  0
  -26.0765  -29.3183   20.7319 C   0  0  0  0  0  0
  -27.2347  -28.4515   20.7351 C   0  0  0  0  0  0
  -26.0142  -26.7870   19.4949 C   0  0  0  0  0  0
  -24.8818  -27.6309   19.4791 C   0  0  0  0  0  0
  -23.6767  -29.7856   20.1535 C   0  0  0  0  0  0
  -25.4132  -36.3031   24.0304 C   0  0  1  0  0  0
  -20.5915  -28.3735   23.1242 C   0  0  2  0  0  0
  -20.6783  -26.9430   22.5428 C   0  0  0  0  0  0
  -19.5757  -26.6387   21.5231 C   0  0  0  0  0  0
  -18.1934  -26.7951   22.1631 C   0  0  0  0  0  0
  -19.1565  -28.8895   23.2846 C   0  0  0  0  0  0
  -18.9476  -30.1498   23.8855 C   0  0  0  0  0  0
  -17.6470  -30.6598   24.0579 C   0  0  0  0  0  0
  -25.9081  -34.9400   23.5057 C   0  0  0  0  0  0
  -16.5362  -29.9092   23.6346 C   0  0  0  0  0  0
  -16.7292  -28.6522   23.0348 C   0  0  0  0  0  0
  -26.4517  -31.6575   25.0735 C   0  0  0  0  0  0
  -25.3683  -31.3753   26.1417 C   0  0  0  0  0  0
  -27.0390  -30.2961   24.6356 C   0  0  0  0  0  0
  -27.6054  -32.4347   25.7489 C   0  0  0  0  0  0
  -27.5586  -37.1779   24.8461 C   0  0  0  0  0  0
  -21.4257  -29.3049   22.3598 N   0  0  0  0  0  0
  -26.4293  -37.3750   23.9408 N   0  0  0  0  0  0
  -24.7204  -31.0269   22.0912 N   0  0  0  0  0  0
  -23.4203  -28.8089   23.3018 O   0  0  0  0  0  0
  -28.2892  -26.1456   20.2203 O   0  0  0  0  0  0
  -26.5687  -34.8897   22.4651 O   0  0  0  0  0  0
  -23.5557  -32.1305   23.7091 O   0  0  0  0  0  0
  -30.4429  -20.2690   21.9553 C   0  0  0  0  0  0
  -31.1127  -19.2123   22.5993 C   0  0  0  0  0  0
  -30.8892  -17.8618   22.1882 C   0  0  0  0  0  0
  -29.5364  -20.0632   20.9172 C   0  0  0  0  0  0
  -30.0178  -17.5862   21.0825 C   0  0  0  0  0  0
  -29.2951  -23.7474   19.3961 C   0  0  0  0  0  0
  -28.0967  -23.7147   21.4487 C   0  0  0  0  0  0
  -29.1757  -22.1296   19.2535 C   0  0  0  0  0  0
  -27.9278  -22.1052   21.3395 C   0  0  0  0  0  0
  -28.1422  -24.5812   20.1203 C   0  0  0  0  0  0
  -33.0143  -16.5088   22.7398 C   0  0  0  0  0  0
  -31.2989  -20.3498   24.8773 C   0  0  0  0  0  0
  -33.2383  -20.4364   23.2329 C   0  0  0  0  0  0
  -31.5139  -16.7283   23.0136 C   0  0  0  0  0  0
  -32.0481  -19.6123   23.7529 C   0  0  0  0  0  0
  -29.3453  -18.7141   20.4938 N   0  0  0  0  0  0
  -28.8646  -21.3181   20.4703 N   0  0  0  0  0  0
  -29.6751  -16.1903   20.7443 O   0  0  0  0  0  0
  -31.4754  -12.7214   19.2249 H   0  0  0  0  0  0
  -30.4096  -11.6102   20.0414 H   0  0  0  0  0  0
  -29.8435  -11.7446   17.5887 H   0  0  0  0  0  0
  -29.6295  -13.4751   17.7201 H   0  0  0  0  0  0
  -27.9369  -11.2896   18.9677 H   0  0  0  0  0  0
  -27.4028  -12.4858   17.8136 H   0  0  0  0  0  0
  -27.5948  -14.2629   19.4237 H   0  0  0  0  0  0
  -28.7168  -12.3133   21.4828 H   0  0  0  0  0  0
  -28.3588  -14.0051   21.7555 H   0  0  0  0  0  0
  -25.2767   -9.5691   22.4748 H   0  0  0  0  0  0
  -24.0014   -7.4638   22.7474 H   0  0  0  0  0  0
  -21.0846   -8.8752   19.8945 H   0  0  0  0  0  0
  -22.3688  -10.9659   19.6163 H   0  0  0  0  0  0
  -21.2016   -7.6142   23.9702 H   0  0  0  0  0  0
  -21.1504   -6.0526   25.9073 H   0  0  0  0  0  0
  -22.0591   -2.7602   23.2854 H   0  0  0  0  0  0
  -22.4110  -11.9844   22.4816 H   0  0  0  0  0  0
  -21.1060  -13.1161   22.2664 H   0  0  0  0  0  0
  -24.6461  -15.8520   20.5450 H   0  0  0  0  0  0
  -26.2664  -15.6423   20.1148 H   0  0  0  0  0  0
  -26.7273  -32.5279   23.1003 H   0  0  0  0  0  0
  -25.0018  -33.9617   25.0281 H   0  0  0  0  0  0
  -22.7538  -31.2868   21.3738 H   0  0  0  0  0  0
  -23.3770  -35.9568   23.3292 H   0  0  0  0  0  0
  -24.3571  -36.8929   22.2066 H   0  0  0  0  0  0
  -23.7222  -37.6429   23.6713 H   0  0  0  0  0  0
  -26.1663  -31.4626   20.6149 H   0  0  0  0  0  0
  -26.8756  -30.7602   22.0335 H   0  0  0  0  0  0
  -28.1340  -28.7809   21.2357 H   0  0  0  0  0  0
  -25.9116  -25.8438   18.9843 H   0  0  0  0  0  0
  -23.9843  -27.2934   18.9790 H   0  0  0  0  0  0
  -23.8131  -30.5545   19.3924 H   0  0  0  0  0  0
  -22.7916  -29.2259   19.8454 H   0  0  0  0  0  0
  -25.1324  -36.1859   25.0794 H   0  0  0  0  0  0
  -21.0019  -28.3347   24.1358 H   0  0  0  0  0  0
  -20.5691  -26.2344   23.3653 H   0  0  0  0  0  0
  -21.6645  -26.7432   22.1226 H   0  0  0  0  0  0
  -19.6914  -25.6299   21.1260 H   0  0  0  0  0  0
  -19.6695  -27.3196   20.6761 H   0  0  0  0  0  0
  -17.4218  -26.6738   21.4016 H   0  0  0  0  0  0
  -18.0286  -26.0094   22.9017 H   0  0  0  0  0  0
  -19.7950  -30.7345   24.2168 H   0  0  0  0  0  0
  -17.5020  -31.6258   24.5227 H   0  0  0  0  0  0
  -15.5360  -30.2982   23.7691 H   0  0  0  0  0  0
  -15.8696  -28.0846   22.7043 H   0  0  0  0  0  0
  -24.5885  -30.7082   25.7736 H   0  0  0  0  0  0
  -24.8831  -32.2913   26.4786 H   0  0  0  0  0  0
  -25.7948  -30.8967   27.0239 H   0  0  0  0  0  0
  -26.3023  -29.6664   24.1350 H   0  0  0  0  0  0
  -27.3963  -29.7293   25.4970 H   0  0  0  0  0  0
  -27.8944  -30.4203   23.9708 H   0  0  0  0  0  0
  -27.2686  -33.3708   26.1956 H   0  0  0  0  0  0
  -28.3880  -32.6815   25.0302 H   0  0  0  0  0  0
  -28.0690  -31.8538   26.5474 H   0  0  0  0  0  0
  -28.2573  -38.0106   24.7551 H   0  0  0  0  0  0
  -28.1099  -36.2632   24.6231 H   0  0  0  0  0  0
  -27.2298  -37.1380   25.8860 H   0  0  0  0  0  0
  -20.9472  -29.8749   21.6759 H   0  0  0  0  0  0
  -26.0155  -38.2801   24.1464 H   0  0  0  0  0  0
  -30.6153  -21.2817   22.2930 H   0  0  0  0  0  0
  -29.4223  -24.1528   18.3916 H   0  0  0  0  0  0
  -30.2362  -23.9647   19.9026 H   0  0  0  0  0  0
  -29.0019  -23.9193   22.0219 H   0  0  0  0  0  0
  -27.2849  -24.0956   22.0697 H   0  0  0  0  0  0
  -30.1000  -21.7466   18.8188 H   0  0  0  0  0  0
  -28.3981  -21.9077   18.5204 H   0  0  0  0  0  0
  -26.9178  -21.8955   20.9847 H   0  0  0  0  0  0
  -27.9654  -21.6867   22.3470 H   0  0  0  0  0  0
  -27.2297  -24.3584   19.5750 H   0  0  0  0  0  0
  -33.3980  -15.6827   23.3375 H   0  0  0  0  0  0
  -33.6199  -17.3806   22.9784 H   0  0  0  0  0  0
  -33.2124  -16.2767   21.6961 H   0  0  0  0  0  0
  -30.4921  -19.7332   25.2760 H   0  0  0  0  0  0
  -30.8642  -21.2908   24.5426 H   0  0  0  0  0  0
  -31.9701  -20.5817   25.7047 H   0  0  0  0  0  0
  -33.7947  -19.8773   22.4797 H   0  0  0  0  0  0
  -33.9311  -20.6810   24.0380 H   0  0  0  0  0  0
  -32.9206  -21.3740   22.7768 H   0  0  0  0  0  0
  -30.9716  -15.7953   22.8873 H   0  0  0  0  0  0
  -31.3602  -16.9332   24.0741 H   0  0  0  0  0  0
  -32.4805  -18.7441   24.2371 H   0  0  0  0  0  0
  1 25  1  0  0  0
  1 30  2  0  0  0
  1 88  1  0  0  0
  2  3  1  0  0  0
  2 25  1  0  0  0
  2 89  1  0  0  0
  2 90  1  0  0  0
  3  4  1  0  0  0
  3 91  1  0  0  0
  3 92  1  0  0  0
  4  5  1  0  0  0
  4 93  1  0  0  0
  4 94  1  0  0  0
  5  6  1  0  0  0
  5 26  1  0  0  0
  5 95  1  0  0  0
  6 25  1  0  0  0
  6 96  1  0  0  0
  6 97  1  0  0  0
  7  8  2  0  0  0
  7 26  1  0  0  0
  7 29  1  0  0  0
  8  9  1  0  0  0
  8 22  1  0  0  0
  9 10  1  0  0  0
  9 27  2  0  0  0
 10 11  2  0  0  0
 10 15  1  0  0  0
 11 12  1  0  0  0
 11 98  1  0  0  0
 12 13  2  0  0  0
 12 99  1  0  0  0
 13 14  1  0  0  0
 13 31  1  0  0  0
 14 15  2  0  0  0
 14100  1  0  0  0
 15101  1  0  0  0
 16 17  2  0  0  0
 16 21  1  0  0  0
 16 31  1  0  0  0
 17 18  1  0  0  0
 17102  1  0  0  0
 18 19  2  0  0  0
 18103  1  0  0  0
 19 20  1  0  0  0
 19 24  1  0  0  0
 20 21  2  0  0  0
 20104  1  0  0  0
 21 23  1  0  0  0
 22 28  1  0  0  0
 22 32  2  0  0  0
 26 27  1  0  0  0
 28105  1  0  0  0
 28106  1  0  0  0
 29107  1  0  0  0
 29108  1  0  0  0
 33 34  1  0  0  0
 33 66  1  0  0  0
 33 70  2  0  0  0
 34 36  1  0  0  0
 34 59  1  0  0  0
 34109  1  0  0  0
 35 44  2  0  0  0
 35 45  1  0  0  0
 35 68  1  0  0  0
 36 56  1  0  0  0
 36110  1  0  0  0
 37 39  1  0  0  0
 37 47  1  0  0  0
 37 66  1  0  0  0
 37111  1  0  0  0
 38 43  2  0  0  0
 38 46  1  0  0  0
 38 47  1  0  0  0
 39 64  1  0  0  0
 39 67  2  0  0  0
 40 52  1  0  0  0
 40 53  2  0  0  0
 40 58  1  0  0  0
 41112  1  0  0  0
 41113  1  0  0  0
 41114  1  0  0  0
 41 48  1  0  0  0
 42 43  1  0  0  0
 42 66  1  0  0  0
 42115  1  0  0  0
 42116  1  0  0  0
 43 44  1  0  0  0
 44117  1  0  0  0
 45 46  2  0  0  0
 45118  1  0  0  0
 46119  1  0  0  0
 47120  1  0  0  0
 47121  1  0  0  0
 48 56  1  0  0  0
 48 65  1  0  0  0
 48122  1  0  0  0
 49 50  1  0  0  0
 49 53  1  0  0  0
 49 64  1  0  0  0
 49123  1  0  0  0
 50 51  1  0  0  0
 50124  1  0  0  0
 50125  1  0  0  0
 51 52  1  0  0  0
 51126  1  0  0  0
 51127  1  0  0  0
 52128  1  0  0  0
 52129  1  0  0  0
 53 54  1  0  0  0
 54 55  2  0  0  0
 54130  1  0  0  0
 55 57  1  0  0  0
 55131  1  0  0  0
 56 69  2  0  0  0
 57 58  2  0  0  0
 57132  1  0  0  0
 58133  1  0  0  0
 59 60  1  0  0  0
 59 61  1  0  0  0
 59 62  1  0  0  0
 60134  1  0  0  0
 60135  1  0  0  0
 60136  1  0  0  0
 61137  1  0  0  0
 61138  1  0  0  0
 61139  1  0  0  0
 62140  1  0  0  0
 62141  1  0  0  0
 62142  1  0  0  0
 63 65  1  0  0  0
 63143  1  0  0  0
 63144  1  0  0  0
 63145  1  0  0  0
 64146  1  0  0  0
 65147  1  0  0  0
 68 80  1  0  0  0
 71 72  2  0  0  0
 71 74  1  0  0  0
 71148  1  0  0  0
 72 73  1  0  0  0
 72 85  1  0  0  0
 73 75  2  0  0  0
 73 84  1  0  0  0
 74 86  2  0  0  0
 74 87  1  0  0  0
 75 86  1  0  0  0
 75 88  1  0  0  0
 76 78  1  0  0  0
 76 80  1  0  0  0
 76149  1  0  0  0
 76150  1  0  0  0
 77 79  1  0  0  0
 77 80  1  0  0  0
 77151  1  0  0  0
 77152  1  0  0  0
 78 87  1  0  0  0
 78153  1  0  0  0
 78154  1  0  0  0
 79 87  1  0  0  0
 79155  1  0  0  0
 79156  1  0  0  0
 80157  1  0  0  0
 81 84  1  0  0  0
 81158  1  0  0  0
 81159  1  0  0  0
 81160  1  0  0  0
 82161  1  0  0  0
 82162  1  0  0  0
 82163  1  0  0  0
 82 85  1  0  0  0
 83 85  1  0  0  0
 83164  1  0  0  0
 83165  1  0  0  0
 83166  1  0  0  0
 84167  1  0  0  0
 84168  1  0  0  0
 85169  1  0  0  0
M  ISO  4   1 100  68 101  80 101  88 100
M  END
> <chiral flag>
0

> <version>
0

> <s_m_source_file>
/data/baiqing/PycharmProjects/Reinvent-master-3.2/result/LINK_invent/BTK/process_docking_weight1_custom_sum_contain_oxygen_bond_distance_aromatic_linkinvent_7_9_3/rearranged_h_0143.sdf

> <i_m_source_file_index>
95

> <r_mmod_Potential_Energy-OPLS-2005>
441.503723144531

> <r_mmod_Stretch_Energy-OPLS-2005>
269.167999267578

> <r_mmod_Bend_Energy-OPLS-2005>
301.483001708984

> <r_mmod_Torsional_Energy-OPLS-2005>
238.487152099609

> <r_mmod_Improper_Torsional_Energy-OPLS-2005>
4.62150001525879

> <r_mmod_Van_der_Waal_Energy-OPLS-2005>
140.071380615234

> <r_mmod_Electrostatic_Energy-OPLS-2005>
-498.571899414062

> <r_mmod_Solvation_Energy-OPLS-2005>
-207.743957519531

> <b_mmod_Minimization_Converged-OPLS-2005>
0

> <r_mmod_RMS_Derivative-OPLS-2005>
1.96645998954773

$$$$
